AV-unprocessed.smi:1683|AV-procd|sdf|6752|dock8
  -GOLD-   22720 7513D 1   1.00000     0.00000
 Structure written by MMmdl.
 37 38  0  0  0  0  0  0  0  0  2 V2000
  149.9438  135.6736  156.2782 O   0  0  0  0  0  0  0  0  0  0  0  0
  149.7529  135.7606  155.0652 C   0  0  0  0  0  0  0  0  0  0  0  0
  149.2282  134.7746  154.3237 N   0  0  0  0  0  0  0  0  0  0  0  0
  148.8063  133.4727  154.8308 C   0  0  0  0  0  0  0  0  0  0  0  0
  148.2940  132.5760  153.6919 C   0  0  1  0  0  0  0  0  0  0  0  0
  147.3654  131.4426  154.1315 C   0  0  0  0  0  0  0  0  0  0  0  0
  146.5248  131.1251  152.8868 C   0  0  0  0  0  0  0  0  0  0  0  0
  146.7100  132.2536  151.9421 N   0  3  1  0  0  0  0  0  0  0  0  0
  145.4819  132.7209  151.2543 C   0  0  0  0  0  0  0  0  0  0  0  0
  145.2179  131.9669  149.9394 C   0  0  0  0  0  0  0  0  0  0  0  0
  146.1328  132.3255  149.0402 F   0  0  0  0  0  0  0  0  0  0  0  0
  145.3091  130.6525  150.1417 F   0  0  0  0  0  0  0  0  0  0  0  0
  144.0110  132.2540  149.4532 F   0  0  0  0  0  0  0  0  0  0  0  0
  147.4383  133.3147  152.6645 C   0  0  0  0  0  0  0  0  0  0  0  0
  150.0370  136.8381  154.3150 N   0  0  0  0  0  0  0  0  0  0  0  0
  150.5916  138.0682  154.7517 C   0  0  0  0  0  0  0  0  0  0  0  0
  150.2609  139.3419  154.2142 C   0  0  0  0  0  0  0  0  0  0  0  0
  150.9343  140.3113  154.8174 N   0  0  0  0  0  0  0  0  0  0  0  0
  151.6916  139.6685  155.7348 N   0  0  0  0  0  0  0  0  0  0  0  0
  151.5159  138.3023  155.7310 C   0  0  0  0  0  0  0  0  0  0  0  0
  152.3167  140.1703  156.3495 H   0  0  0  0  0  0  0  0  0  0  0  0
  149.1131  134.9373  153.3340 H   0  0  0  0  0  0  0  0  0  0  0  0
  149.6544  133.0055  155.3327 H   0  0  0  0  0  0  0  0  0  0  0  0
  148.0204  133.5791  155.5805 H   0  0  0  0  0  0  0  0  0  0  0  0
  149.1482  132.1396  153.1704 H   0  0  0  0  0  0  0  0  0  0  0  0
  147.9104  130.5729  154.5003 H   0  0  0  0  0  0  0  0  0  0  0  0
  146.7100  131.7859  154.9334 H   0  0  0  0  0  0  0  0  0  0  0  0
  146.8645  130.2067  152.4068 H   0  0  0  0  0  0  0  0  0  0  0  0
  145.4789  130.9865  153.1642 H   0  0  0  0  0  0  0  0  0  0  0  0
  144.6236  132.6490  151.9241 H   0  0  0  0  0  0  0  0  0  0  0  0
  145.6039  133.7801  151.0218 H   0  0  0  0  0  0  0  0  0  0  0  0
  146.7258  133.9692  153.1705 H   0  0  0  0  0  0  0  0  0  0  0  0
  148.0342  133.9245  151.9845 H   0  0  0  0  0  0  0  0  0  0  0  0
  149.8338  136.7741  153.3284 H   0  0  0  0  0  0  0  0  0  0  0  0
  149.5685  139.5902  153.4233 H   0  0  0  0  0  0  0  0  0  0  0  0
  152.0496  137.6489  156.4054 H   0  0  0  0  0  0  0  0  0  0  0  0
  147.3435  131.9242  151.2274 H   0  0  0  0  0  0  0  0  0  0  0  0
  1  2  2  0  0  0  0
  2  3  1  0  0  0  0
  2 15  1  0  0  0  0
  3  4  1  0  0  0  0
  3 22  1  0  0  0  0
  4  5  1  0  0  0  0
  4 23  1  0  0  0  0
  4 24  1  0  0  0  0
  5 14  1  0  0  0  0
  5  6  1  0  0  0  0
  5 25  1  0  0  0  0
  6  7  1  0  0  0  0
  6 26  1  0  0  0  0
  6 27  1  0  0  0  0
  7  8  1  0  0  0  0
  7 28  1  0  0  0  0
  7 29  1  0  0  0  0
  8  9  1  0  0  0  0
  8 14  1  0  0  0  0
  8 37  1  0  0  0  0
  9 10  1  0  0  0  0
  9 30  1  0  0  0  0
  9 31  1  0  0  0  0
 10 11  1  0  0  0  0
 10 12  1  0  0  0  0
 10 13  1  0  0  0  0
 14 32  1  0  0  0  0
 14 33  1  0  0  0  0
 15 16  1  0  0  0  0
 15 34  1  0  0  0  0
 16 20  2  0  0  0  0
 16 17  1  0  0  0  0
 17 18  2  0  0  0  0
 17 35  1  0  0  0  0
 18 19  1  0  0  0  0
 19 21  1  0  0  0  0
 19 20  1  0  0  0  0
 20 36  1  0  0  0  0
M  CHG  1   8   1
M  END
> <s_m_source_file>
AV-unprocessed.smi

> <i_m_source_file_index>
1683

> <i_lp_mmshare_version>
43012

> <i_f3d_flags>
0

> <s_epik_input>
W2NIXTFbbkhdbltjSF1jMVtOSF1DKD1PKVtOSF1bQ0gyXVtDQEBIXTJbQ0gyXVtDSDJdTihbQ0gyXTIpW0NIMl1DKEYpKEYpRg==

> <s_epik_cmdline>
J2VwaWtfcHl0aG9uJywgJy1waCcsICc3LjAnLCAnLXRuJywgJzgnLCAnLW1hJywgJzIwMCcsICctbWV0YWxfYmluZGluZycsICctaW1hZScsICc8aW5maWxlLm1hZT4nLCAnLW9tYWUnLCAnPG91dGZpbGUubWFlPic=

> <r_lp_tautomer_probability>
0.5

> <r_epik_Ionization_Penalty>
0.641865

> <r_epik_Ionization_Penalty_Charging>
0.64182

> <r_epik_Ionization_Penalty_Neutral>
4.50685e-05

> <r_epik_State_Penalty>
0.65957

> <r_epik_Charging_Adjusted_Penalty>
1.30139

> <i_epik_Tot_Q>
1

> <i_epik_Tot_abs_Q>
1

> <r_epik_Metal_State_Penalty>
0.659571

> <b_epik_Metal_Only>
0

> <s_lp_Force_Field>
OPLS_2005

> <r_lp_Energy>
31.2098

> <b_lp_Chiralities_Consistent>
1

> <s_lp_Variant>
AV-unprocessed.smi:1683-6

> <Gold.Version>
5.8.1

> <Gold.Id.Protein>
6NUR|6NUR_protein|mol2

> <Gold.PLP.Fitness>
49.0874

> <Gold.PLP.PLP>
-38.4505

> <Gold.PLP.part.hbond>
-4.9001

> <Gold.PLP.part.metal>
0.0000

> <Gold.PLP.part.buried>
-5.0445

> <Gold.PLP.part.nonpolar>
-30.1414

> <Gold.PLP.part.repulsive>
0.3926

> <Gold.PLP.ligand.clash>
0.0000

> <Gold.PLP.ligand.torsion>
0.9309

> <Gold.PLP.Chemscore.Hbond>
3.2272

> <Gold.PLP.Chemscore.CHOScore>
0.7854

> <Gold.PLP.Chemscore.Metal>
0.0000

> <Gold.Chemscore.Hbonds>
donor molecule, donor type, donor heavy atom, donor atom, acceptor molecule, acceptor atom, score
      L1  H     3    22       P1  7948  0.84
      L1  H     8    37       P1 10747  0.65
      L1  H    15    34       P1  7948  1.00
      P1  H  7989  7998       L1    18  0.80
      L1  C    17    35       P1  7957  1.00

> <Gold.PLP.Chemscore.Internal.Correction>
0.4608

> <Gold.Rescore>
     Score         DG    S(hbond)    S(metal)    S(lipo)     H(rot)  DE(clash)    DE(int)     intcor
     13.44     -14.96       2.05        0.00      62.16       1.81       0.53       0.99       ----

> <Gold.Chemscore.Fitness>
13.4448

> <Gold.Chemscore.DG>
-14.9640

> <Gold.Chemscore.ZeroCoef>
-5.4800

> <Gold.Chemscore.Hbond>
2.0506

> <Gold.Chemscore.Metal>
0.0000

> <Gold.Chemscore.Lipo>
62.1615

> <Gold.Chemscore.Internal_Hbond>
0.0000

> <Gold.Chemscore.DEClash>
0.5263

> <Gold.Chemscore.DEInternal>
0.9929

> <Gold.Chemscore.Rot>
1.8116

> <Gold.Chemscore.Internal.Correction>
   9.000000E+99

> <Gold.Chemscore.Hbonds>
donor molecule, donor type, donor heavy atom, donor atom, acceptor molecule, acceptor atom, score
      L1  H     3    22       P1  7948  0.14
      L1  H     8    37       P1 10747  0.64
      L1  H    15    34       P1  7948  0.30
      P1  H  7989  7998       L1    18  0.11

> <Gold.Chemscore.Hbond.Weighted>
-6.8488

> <Gold.Chemscore.Metal.Weighted>
-0.0000

> <Gold.Chemscore.Lipo.Weighted>
-7.2729

> <Gold.Chemscore.Internal_Hbond.Weighted>
0.0000

> <Gold.Chemscore.DEClash.Weighted>
0.5263

> <Gold.Chemscore.DEInternal.Weighted>
0.9929

> <Gold.Chemscore.Rot.Weighted>
4.6378

> <Gold.Chemscore.Internal.Correction.Weighted>
   9.000000E+99

> <Gold.Protein.RotatedTorsions>
[ 6907 6896 6895 6894 ] final   92.36 input  -60.11 | X-H torsion
[ 7974 7965 7964 7962 ] final  -60.20 input  175.53 | X-H torsion
[ 8008 7997 7996 7995 ] final  -66.54 input   59.86 | X-H torsion
[ 10167 10162 10161 10158 ] final  147.62 input  -65.29 | X-H torsion
[ 10718 10713 10712 10709 ] final  -53.11 input   66.30 | X-H torsion
[ 10763 10752 10751 10750 ] final -135.53 input  -60.55 | X-H torsion
[ 11005 11000 10999 10996 ] final   57.26 input  -57.11 | X-H torsion

> <Gold.Protein.ActiveResidues>
 VAL166  LYS551  ARG553  GLY616  TRP617  ASP618  TYR619  PRO620  LYS621  CYS622 
 ASP623  PHE694  ASN695  SER759  ASP760  ASP761  ALA762  ILE779  LEU786  VAL792 
 PHE793  MET794  SER795  GLU796  ALA797  LYS798  CYS799  TRP800  GLU811  SER814 

> <Gold.Protein.RotatedAtoms>
  152.5452  134.1514  159.8519 H   0  0  0  0  0  0  0  0  0  0  0  0  # atno 6907 bound_to 6896
  151.1541  133.4881  159.2602 H   0  0  0  0  0  0  0  0  0  0  0  0  # atno 6908 bound_to 6896
  151.1442  135.0205  159.8694 H   0  0  0  0  0  0  0  0  0  0  0  0  # atno 6909 bound_to 6896
  145.8184  140.8555  143.0145 H   0  0  0  0  0  0  0  0  0  0  0  0  # atno 7974 bound_to 7965
  154.4741  140.0910  156.7219 H   0  0  0  0  0  0  0  0  0  0  0  0  # atno 8008 bound_to 7997
  155.4643  140.3462  155.4298 H   0  0  0  0  0  0  0  0  0  0  0  0  # atno 8009 bound_to 7997
  156.1088  140.1442  156.9356 H   0  0  0  0  0  0  0  0  0  0  0  0  # atno 8010 bound_to 7997
  139.4887  144.5741  151.6998 H   0  0  0  0  0  0  0  0  0  0  0  0  # atno 10167 bound_to 10162
  156.1563  130.4150  149.9863 H   0  0  0  0  0  0  0  0  0  0  0  0  # atno 10718 bound_to 10713
  154.8701  135.3700  154.4913 H   0  0  0  0  0  0  0  0  0  0  0  0  # atno 10763 bound_to 10752
  153.5560  135.7024  153.5574 H   0  0  0  0  0  0  0  0  0  0  0  0  # atno 10764 bound_to 10752
  153.3671  135.4031  155.1725 H   0  0  0  0  0  0  0  0  0  0  0  0  # atno 10765 bound_to 10752
  140.0466  134.5797  155.9315 H   0  0  0  0  0  0  0  0  0  0  0  0  # atno 11005 bound_to 11000
  144.6750  140.0497  143.7479 LP  0  0  0  0  0  0  0  0  0  0  0  0  # atno 17320 bound_to 7965
  145.9702  139.2864  143.1103 LP  0  0  0  0  0  0  0  0  0  0  0  0  # atno 17321 bound_to 7965
  140.5334  144.0694  150.6062 LP  0  0  0  0  0  0  0  0  0  0  0  0  # atno 17342 bound_to 10162
  140.3692  143.2864  152.0297 LP  0  0  0  0  0  0  0  0  0  0  0  0  # atno 17343 bound_to 10162
  156.7706  130.9184  151.3644 LP  0  0  0  0  0  0  0  0  0  0  0  0  # atno 17370 bound_to 10713
  157.6698  130.9040  150.0014 LP  0  0  0  0  0  0  0  0  0  0  0  0  # atno 17371 bound_to 10713
  141.1910  133.6570  156.5436 LP  0  0  0  0  0  0  0  0  0  0  0  0  # atno 17394 bound_to 11000
  140.3984  134.7378  157.4764 LP  0  0  0  0  0  0  0  0  0  0  0  0  # atno 17395 bound_to 11000

$$$$
