AV-unprocessed.smi:1144|AV-procd|sdf|4881|dock6
  -GOLD-   22720 3453D 1   1.00000     0.00000
 Structure written by MMmdl.
 34 35  0  0  0  0  0  0  0  0  1 V2000
  148.0132  137.8417  155.0782 C   0  0  0  0  0  0  0  0  0  0  0  0
  148.0992  139.2938  155.1033 N   0  0  0  0  0  0  0  0  0  0  0  0
  147.9155  139.8658  153.7764 C   0  0  0  0  0  0  0  0  0  0  0  0
  148.0214  141.3997  153.8012 C   0  0  0  0  0  0  0  0  0  0  0  0
  149.2725  141.7801  154.3660 O   0  0  0  0  0  0  0  0  0  0  0  0
  149.4639  141.2868  155.6912 C   0  0  2  0  0  0  0  0  0  0  0  0
  150.8358  141.7587  156.1908 C   0  0  0  0  0  0  0  0  0  0  0  0
  150.7713  143.0997  156.7521 N   0  0  0  0  0  0  0  0  0  0  0  0
  151.3384  143.4644  157.9581 C   0  0  0  0  0  0  0  0  0  0  0  0
  151.1313  144.7081  158.4057 N   0  0  0  0  0  0  0  0  0  0  0  0
  151.6966  145.0371  159.5869 C   0  0  0  0  0  0  0  0  0  0  0  0
  152.4718  144.1177  160.3206 C   0  0  0  0  0  0  0  0  0  0  0  0
  152.6239  142.8332  159.7520 C   0  0  0  0  0  0  0  0  0  0  0  0
  153.4315  141.7380  160.4324 C   0  0  0  0  0  0  0  0  0  0  0  0
  153.7125  142.0513  161.6978 F   0  0  0  0  0  0  0  0  0  0  0  0
  152.7408  140.5979  160.4228 F   0  0  0  0  0  0  0  0  0  0  0  0
  154.5782  141.5524  159.7782 F   0  0  0  0  0  0  0  0  0  0  0  0
  152.0523  142.5151  158.5671 N   0  0  0  0  0  0  0  0  0  0  0  0
  149.3672  139.7482  155.6602 C   0  0  0  0  0  0  0  0  0  0  0  0
  147.0475  137.5190  154.6878 H   0  0  0  0  0  0  0  0  0  0  0  0
  148.1187  137.4313  156.0829 H   0  0  0  0  0  0  0  0  0  0  0  0
  148.7947  137.4108  154.4511 H   0  0  0  0  0  0  0  0  0  0  0  0
  148.6656  139.4641  153.0932 H   0  0  0  0  0  0  0  0  0  0  0  0
  146.9430  139.5748  153.3782 H   0  0  0  0  0  0  0  0  0  0  0  0
  147.9479  141.8017  152.7907 H   0  0  0  0  0  0  0  0  0  0  0  0
  147.2054  141.8352  154.3802 H   0  0  0  0  0  0  0  0  0  0  0  0
  148.6833  141.6831  156.3440 H   0  0  0  0  0  0  0  0  0  0  0  0
  151.1968  141.0805  156.9651 H   0  0  0  0  0  0  0  0  0  0  0  0
  151.5631  141.7353  155.3783 H   0  0  0  0  0  0  0  0  0  0  0  0
  150.3385  143.8281  156.2030 H   0  0  0  0  0  0  0  0  0  0  0  0
  151.5293  146.0406  159.9494 H   0  0  0  0  0  0  0  0  0  0  0  0
  152.9200  144.3895  161.2646 H   0  0  0  0  0  0  0  0  0  0  0  0
  149.4846  139.3566  156.6714 H   0  0  0  0  0  0  0  0  0  0  0  0
  150.1935  139.3450  155.0725 H   0  0  0  0  0  0  0  0  0  0  0  0
  1  2  1  0  0  0  0
  1 20  1  0  0  0  0
  1 21  1  0  0  0  0
  1 22  1  0  0  0  0
  2 19  1  0  0  0  0
  2  3  1  0  0  0  0
  3  4  1  0  0  0  0
  3 23  1  0  0  0  0
  3 24  1  0  0  0  0
  4  5  1  0  0  0  0
  4 25  1  0  0  0  0
  4 26  1  0  0  0  0
  5  6  1  0  0  0  0
  6  7  1  0  0  0  0
  6 19  1  0  0  0  0
  6 27  1  0  0  0  0
  7  8  1  0  0  0  0
  7 28  1  0  0  0  0
  7 29  1  0  0  0  0
  8  9  1  0  0  0  0
  8 30  1  0  0  0  0
  9 18  1  0  0  0  0
  9 10  2  0  0  0  0
 10 11  1  0  0  0  0
 11 12  2  0  0  0  0
 11 31  1  0  0  0  0
 12 13  1  0  0  0  0
 12 32  1  0  0  0  0
 13 14  1  0  0  0  0
 13 18  2  0  0  0  0
 14 15  1  0  0  0  0
 14 16  1  0  0  0  0
 14 17  1  0  0  0  0
 19 33  1  0  0  0  0
 19 34  1  0  0  0  0
M  END
> <s_m_source_file>
AV-unprocessed.smi

> <i_m_source_file_index>
1144

> <i_lp_mmshare_version>
43012

> <i_f3d_flags>
0

> <s_epik_input>
W0NIM11OMVtDSDJdW0NIMl1PW0NASF0oW0NIMl0xKVtDSDJdW05IXWMybltjSF1bY0hdYyhuMilDKEYpKEYpRg==

> <s_epik_cmdline>
J2VwaWtfcHl0aG9uJywgJy1waCcsICc3LjAnLCAnLXRuJywgJzgnLCAnLW1hJywgJzIwMCcsICctbWV0YWxfYmluZGluZycsICctaW1hZScsICc8aW5maWxlLm1hZT4nLCAnLW9tYWUnLCAnPG91dGZpbGUubWFlPic=

> <r_lp_tautomer_probability>
1

> <r_epik_Ionization_Penalty>
0.797829

> <r_epik_Ionization_Penalty_Charging>
0

> <r_epik_Ionization_Penalty_Neutral>
0.797829

> <r_epik_State_Penalty>
0.828842

> <r_epik_Charging_Adjusted_Penalty>
0.828842

> <i_epik_Tot_Q>
0

> <i_epik_Tot_abs_Q>
0

> <r_epik_Metal_State_Penalty>
0.828842

> <b_epik_Metal_Only>
0

> <s_lp_Force_Field>
OPLS_2005

> <r_lp_Energy>
14.496

> <b_lp_Chiralities_Consistent>
1

> <s_lp_Variant>
AV-unprocessed.smi:1144-6

> <Gold.Version>
5.8.1

> <Gold.Id.Protein>
6NUR|6NUR_protein|mol2

> <Gold.PLP.Fitness>
40.6006

> <Gold.PLP.PLP>
-38.8973

> <Gold.PLP.part.hbond>
-2.6185

> <Gold.PLP.part.metal>
0.0000

> <Gold.PLP.part.buried>
-5.4587

> <Gold.PLP.part.nonpolar>
-30.9586

> <Gold.PLP.part.repulsive>
0.4517

> <Gold.PLP.ligand.clash>
0.0000

> <Gold.PLP.ligand.torsion>
0.7833

> <Gold.PLP.Chemscore.Hbond>
1.0837

> <Gold.PLP.Chemscore.CHOScore>
0.0000

> <Gold.PLP.Chemscore.Metal>
0.0000

> <Gold.Chemscore.Hbonds>
donor molecule, donor type, donor heavy atom, donor atom, acceptor molecule, acceptor atom, score
      L1  H     8    30       P1  8028  1.00
      P1  H  8011  8017       L1     5  0.09

> <Gold.PLP.Chemscore.Internal.Correction>
0.0189

> <Gold.Rescore>
     Score         DG    S(hbond)    S(metal)    S(lipo)     H(rot)  DE(clash)    DE(int)     intcor
     13.70     -14.58       0.99        0.00      78.29       1.31       0.22       0.65       ----

> <Gold.Chemscore.Fitness>
13.7013

> <Gold.Chemscore.DG>
-14.5754

> <Gold.Chemscore.ZeroCoef>
-5.4800

> <Gold.Chemscore.Hbond>
0.9887

> <Gold.Chemscore.Metal>
0.0000

> <Gold.Chemscore.Lipo>
78.2856

> <Gold.Chemscore.Internal_Hbond>
0.0000

> <Gold.Chemscore.DEClash>
0.2217

> <Gold.Chemscore.DEInternal>
0.6523

> <Gold.Chemscore.Rot>
1.3149

> <Gold.Chemscore.Internal.Correction>
   9.000000E+99

> <Gold.Chemscore.Hbonds>
donor molecule, donor type, donor heavy atom, donor atom, acceptor molecule, acceptor atom, score
      L1  H     8    30       P1  8028  0.96

> <Gold.Chemscore.Hbond.Weighted>
-3.3021

> <Gold.Chemscore.Metal.Weighted>
-0.0000

> <Gold.Chemscore.Lipo.Weighted>
-9.1594

> <Gold.Chemscore.Internal_Hbond.Weighted>
0.0000

> <Gold.Chemscore.DEClash.Weighted>
0.2217

> <Gold.Chemscore.DEInternal.Weighted>
0.6523

> <Gold.Chemscore.Rot.Weighted>
3.3662

> <Gold.Chemscore.Internal.Correction.Weighted>
   9.000000E+99

> <Gold.Protein.RotatedTorsions>
[ 6907 6896 6895 6894 ] final   99.91 input  -60.11 | X-H torsion
[ 7974 7965 7964 7962 ] final -174.75 input  175.53 | X-H torsion
[ 8008 7997 7996 7995 ] final -123.78 input   59.86 | X-H torsion
[ 10167 10162 10161 10158 ] final -108.44 input  -65.29 | X-H torsion
[ 10718 10713 10712 10709 ] final -168.81 input   66.30 | X-H torsion
[ 10763 10752 10751 10750 ] final    3.96 input  -60.55 | X-H torsion
[ 11005 11000 10999 10996 ] final  -13.22 input  -57.11 | X-H torsion

> <Gold.Protein.ActiveResidues>
 VAL166  LYS551  ARG553  GLY616  TRP617  ASP618  TYR619  PRO620  LYS621  CYS622 
 ASP623  PHE694  ASN695  SER759  ASP760  ASP761  ALA762  ILE779  LEU786  VAL792 
 PHE793  MET794  SER795  GLU796  ALA797  LYS798  CYS799  TRP800  GLU811  SER814 

> <Gold.Protein.RotatedAtoms>
  152.5383  134.0357  159.8044 H   0  0  0  0  0  0  0  0  0  0  0  0  # atno 6907 bound_to 6896
  151.0521  133.5608  159.2648 H   0  0  0  0  0  0  0  0  0  0  0  0  # atno 6908 bound_to 6896
  151.2538  135.0639  159.9126 H   0  0  0  0  0  0  0  0  0  0  0  0  # atno 6909 bound_to 6896
  144.7130  140.1424  143.6390 H   0  0  0  0  0  0  0  0  0  0  0  0  # atno 7974 bound_to 7965
  155.1861  140.0412  157.2891 H   0  0  0  0  0  0  0  0  0  0  0  0  # atno 8008 bound_to 7997
  154.6170  140.2491  155.7569 H   0  0  0  0  0  0  0  0  0  0  0  0  # atno 8009 bound_to 7997
  156.2412  140.2903  156.0460 H   0  0  0  0  0  0  0  0  0  0  0  0  # atno 8010 bound_to 7997
  140.1661  143.4080  152.1389 H   0  0  0  0  0  0  0  0  0  0  0  0  # atno 10167 bound_to 10162
  156.7023  130.9201  151.3081 H   0  0  0  0  0  0  0  0  0  0  0  0  # atno 10718 bound_to 10713
  153.2770  135.6937  153.7423 H   0  0  0  0  0  0  0  0  0  0  0  0  # atno 10763 bound_to 10752
  153.6425  135.3391  155.3076 H   0  0  0  0  0  0  0  0  0  0  0  0  # atno 10764 bound_to 10752
  154.8483  135.4435  154.1811 H   0  0  0  0  0  0  0  0  0  0  0  0  # atno 10765 bound_to 10752
  140.7738  133.8417  155.9231 H   0  0  0  0  0  0  0  0  0  0  0  0  # atno 11005 bound_to 11000
  145.9190  139.2533  143.1393 LP  0  0  0  0  0  0  0  0  0  0  0  0  # atno 17320 bound_to 7965
  145.9640  140.8813  143.0196 LP  0  0  0  0  0  0  0  0  0  0  0  0  # atno 17321 bound_to 7965
  139.5359  144.7208  151.4896 LP  0  0  0  0  0  0  0  0  0  0  0  0  # atno 17342 bound_to 10162
  140.6612  143.8495  150.6890 LP  0  0  0  0  0  0  0  0  0  0  0  0  # atno 17343 bound_to 10162
  157.6968  130.9290  150.0668 LP  0  0  0  0  0  0  0  0  0  0  0  0  # atno 17370 bound_to 10713
  156.1720  130.3647  149.9152 LP  0  0  0  0  0  0  0  0  0  0  0  0  # atno 17371 bound_to 10713
  140.9548  134.1732  157.4700 LP  0  0  0  0  0  0  0  0  0  0  0  0  # atno 17394 bound_to 11000
  139.8752  134.9923  156.5589 LP  0  0  0  0  0  0  0  0  0  0  0  0  # atno 17395 bound_to 11000

$$$$
