AV-unprocessed.smi:3329|AV-procd|sdf|12799|dock6
  -GOLD-   2272019153D 1   1.00000     0.00000
 Structure written by MMmdl.
 41 42  0  0  0  0  0  0  0  0  3 V2000
  151.9129  145.0795  158.8100 C   0  0  0  0  0  0  0  0  0  0  0  0
  151.7565  143.5902  158.6958 C   0  0  0  0  0  0  0  0  0  0  0  0
  152.5297  142.5808  159.3365 C   0  0  0  0  0  0  0  0  0  0  0  0
  152.1317  141.3565  159.0301 N   0  0  0  0  0  0  0  0  0  0  0  0
  151.0945  141.5402  158.1864 N   0  0  0  0  0  0  0  0  0  0  0  0
  150.3960  140.3901  157.6413 C   0  0  0  0  0  0  0  0  0  0  0  0
  150.6601  139.1104  158.4513 C   0  0  0  0  0  0  0  0  0  0  0  0
  149.4536  138.6771  159.1824 N   0  3  0  0  0  0  0  0  0  0  0  0
  148.7997  137.4817  158.6169 C   0  0  0  0  0  0  0  0  0  0  0  0
  148.4278  136.5114  159.7426 C   0  0  0  0  0  0  0  0  0  0  0  0
  148.8137  135.3427  159.6972 O   0  0  0  0  0  0  0  0  0  0  0  0
  147.6738  137.1198  160.6892 N   0  5  0  0  0  0  0  0  0  0  0  0
  147.1409  136.4236  161.8673 C   0  0  1  0  0  0  0  0  0  0  0  0
  148.2029  136.4050  162.9859 C   0  0  0  0  0  0  0  0  0  0  0  0
  145.9044  137.0772  162.3420 C   0  0  0  0  0  0  0  0  0  0  0  0
  144.9348  137.5893  162.7134 N   0  0  0  0  0  0  0  0  0  0  0  0
  146.7680  134.9810  161.5111 C   0  0  0  0  0  0  0  0  0  0  0  0
  146.1887  133.9884  162.4945 C   0  0  0  0  0  0  0  0  0  0  0  0
  147.5844  133.7813  161.9356 C   0  0  0  0  0  0  0  0  0  0  0  0
  150.8492  142.8786  157.9630 C   0  0  0  0  0  0  0  0  0  0  0  0
  152.9380  145.3927  158.6114 H   0  0  0  0  0  0  0  0  0  0  0  0
  151.6562  145.4336  159.8085 H   0  0  0  0  0  0  0  0  0  0  0  0
  151.2725  145.6113  158.1058 H   0  0  0  0  0  0  0  0  0  0  0  0
  153.3631  142.7014  160.0132 H   0  0  0  0  0  0  0  0  0  0  0  0
  149.3276  140.6084  157.6098 H   0  0  0  0  0  0  0  0  0  0  0  0
  150.7178  140.2518  156.6082 H   0  0  0  0  0  0  0  0  0  0  0  0
  150.9728  138.3092  157.7807 H   0  0  0  0  0  0  0  0  0  0  0  0
  151.4770  139.2710  159.1566 H   0  0  0  0  0  0  0  0  0  0  0  0
  149.7104  138.4669  160.1365 H   0  0  0  0  0  0  0  0  0  0  0  0
  147.9173  137.7912  158.0532 H   0  0  0  0  0  0  0  0  0  0  0  0
  149.4774  136.9807  157.9245 H   0  0  0  0  0  0  0  0  0  0  0  0
  147.8460  135.8497  163.8536 H   0  0  0  0  0  0  0  0  0  0  0  0
  148.4530  137.4080  163.3324 H   0  0  0  0  0  0  0  0  0  0  0  0
  149.1256  135.9299  162.6502 H   0  0  0  0  0  0  0  0  0  0  0  0
  146.3627  134.9064  160.5032 H   0  0  0  0  0  0  0  0  0  0  0  0
  146.1037  134.2788  163.5396 H   0  0  0  0  0  0  0  0  0  0  0  0
  145.4004  133.3315  162.1332 H   0  0  0  0  0  0  0  0  0  0  0  0
  147.7201  132.9858  161.2057 H   0  0  0  0  0  0  0  0  0  0  0  0
  148.4237  133.9376  162.6101 H   0  0  0  0  0  0  0  0  0  0  0  0
  150.0541  143.2118  157.3120 H   0  0  0  0  0  0  0  0  0  0  0  0
  148.7826  139.4318  159.1892 H   0  0  0  0  0  0  0  0  0  0  0  0
  1  2  1  0  0  0  0
  1 21  1  0  0  0  0
  1 22  1  0  0  0  0
  1 23  1  0  0  0  0
  2 20  2  0  0  0  0
  2  3  1  0  0  0  0
  3  4  2  0  0  0  0
  3 24  1  0  0  0  0
  4  5  1  0  0  0  0
  5  6  1  0  0  0  0
  5 20  1  0  0  0  0
  6  7  1  0  0  0  0
  6 25  1  0  0  0  0
  6 26  1  0  0  0  0
  7  8  1  0  0  0  0
  7 27  1  0  0  0  0
  7 28  1  0  0  0  0
  8  9  1  0  0  0  0
  8 29  1  0  0  0  0
  8 41  1  0  0  0  0
  9 10  1  0  0  0  0
  9 30  1  0  0  0  0
  9 31  1  0  0  0  0
 10 11  2  0  0  0  0
 10 12  1  0  0  0  0
 12 13  1  0  0  0  0
 13 14  1  0  0  0  0
 13 15  1  0  0  0  0
 13 17  1  0  0  0  0
 14 32  1  0  0  0  0
 14 33  1  0  0  0  0
 14 34  1  0  0  0  0
 15 16  3  0  0  0  0
 17 19  1  0  0  0  0
 17 18  1  0  0  0  0
 17 35  1  0  0  0  0
 18 19  1  0  0  0  0
 18 36  1  0  0  0  0
 18 37  1  0  0  0  0
 19 38  1  0  0  0  0
 19 39  1  0  0  0  0
 20 40  1  0  0  0  0
M  CHG  1   8   1
M  CHG  1  12  -1
M  END
> <s_m_source_file>
AV-unprocessed.smi

> <i_m_source_file_index>
3329

> <i_lp_mmshare_version>
43012

> <i_f3d_flags>
0

> <s_epik_input>
W0NIM11jMVtjSF1ubihbY0hdMSlbQ0gyXVtDSDJdW05IXVtDSDJdQyg9TylbTkhdW0NAQF0oW0NIM10pKEMjTilbQ0hdMltDSDJdW0NIMl0y

> <s_epik_cmdline>
J2VwaWtfcHl0aG9uJywgJy1waCcsICc3LjAnLCAnLXRuJywgJzgnLCAnLW1hJywgJzIwMCcsICctbWV0YWxfYmluZGluZycsICctaW1hZScsICc8aW5maWxlLm1hZT4nLCAnLW9tYWUnLCAnPG91dGZpbGUubWFlPic=

> <r_lp_tautomer_probability>
1

> <r_epik_Ionization_Penalty>
5.61187

> <r_epik_Ionization_Penalty_Charging>
5.61186

> <r_epik_Ionization_Penalty_Neutral>
4.91277e-06

> <r_epik_State_Penalty>
5.94522

> <r_epik_Charging_Adjusted_Penalty>
11.5571

> <i_epik_Tot_Q>
0

> <i_epik_Tot_abs_Q>
2

> <r_epik_Metal_State_Penalty>
1.9215

> <b_epik_Metal_Only>
1

> <s_lp_Force_Field>
OPLS_2005

> <r_lp_Energy>
13.6964

> <b_lp_Chiralities_Consistent>
1

> <s_lp_Variant>
AV-unprocessed.smi:3329-5

> <Gold.Version>
5.8.1

> <Gold.Id.Protein>
6NUR|6NUR_protein|mol2

> <Gold.PLP.Fitness>
45.9389

> <Gold.PLP.PLP>
-36.9156

> <Gold.PLP.part.hbond>
-2.9925

> <Gold.PLP.part.metal>
0.0000

> <Gold.PLP.part.buried>
-2.9473

> <Gold.PLP.part.nonpolar>
-34.6521

> <Gold.PLP.part.repulsive>
2.0389

> <Gold.PLP.ligand.clash>
0.0000

> <Gold.PLP.ligand.torsion>
2.7940

> <Gold.PLP.Chemscore.Hbond>
3.3363

> <Gold.PLP.Chemscore.CHOScore>
0.9925

> <Gold.PLP.Chemscore.Metal>
0.0000

> <Gold.Chemscore.Hbonds>
donor molecule, donor type, donor heavy atom, donor atom, acceptor molecule, acceptor atom, score
      P1  H  6896  6908       L1    11  1.00
      P1  H  6931  6943       L1    12  0.71
      P1  H  6934  6947       L1    12  1.89
      L1  C    20    40       P1  8028  1.00

> <Gold.PLP.Chemscore.Internal.Correction>
1.6246

> <Gold.Rescore>
     Score         DG    S(hbond)    S(metal)    S(lipo)     H(rot)  DE(clash)    DE(int)     intcor
     10.00     -14.59       1.04        0.00      98.73       2.31       0.14       4.45       ----

> <Gold.Chemscore.Fitness>
10.0024

> <Gold.Chemscore.DG>
-14.5949

> <Gold.Chemscore.ZeroCoef>
-5.4800

> <Gold.Chemscore.Hbond>
1.0442

> <Gold.Chemscore.Metal>
0.0000

> <Gold.Chemscore.Lipo>
98.7264

> <Gold.Chemscore.Internal_Hbond>
0.0000

> <Gold.Chemscore.DEClash>
0.1431

> <Gold.Chemscore.DEInternal>
4.4495

> <Gold.Chemscore.Rot>
2.3140

> <Gold.Chemscore.Internal.Correction>
   9.000000E+99

> <Gold.Chemscore.Hbonds>
donor molecule, donor type, donor heavy atom, donor atom, acceptor molecule, acceptor atom, score
      P1  H  6896  6908       L1    11  0.90
      P1  H  6931  6943       L1    12  0.01
      P1  H  6934  6947       L1    12  0.49

> <Gold.Chemscore.Hbond.Weighted>
-3.4877

> <Gold.Chemscore.Metal.Weighted>
-0.0000

> <Gold.Chemscore.Lipo.Weighted>
-11.5510

> <Gold.Chemscore.Internal_Hbond.Weighted>
0.0000

> <Gold.Chemscore.DEClash.Weighted>
0.1431

> <Gold.Chemscore.DEInternal.Weighted>
4.4495

> <Gold.Chemscore.Rot.Weighted>
5.9238

> <Gold.Chemscore.Internal.Correction.Weighted>
   9.000000E+99

> <Gold.Protein.RotatedTorsions>
[ 6907 6896 6895 6894 ] final  163.87 input  -60.11 | X-H torsion
[ 7974 7965 7964 7962 ] final  113.93 input  175.53 | X-H torsion
[ 8008 7997 7996 7995 ] final  -92.49 input   59.86 | X-H torsion
[ 10167 10162 10161 10158 ] final  -96.47 input  -65.29 | X-H torsion
[ 10718 10713 10712 10709 ] final   23.60 input   66.30 | X-H torsion
[ 10763 10752 10751 10750 ] final   38.65 input  -60.55 | X-H torsion
[ 11005 11000 10999 10996 ] final  -27.07 input  -57.11 | X-H torsion

> <Gold.Protein.ActiveResidues>
 VAL166  LYS551  ARG553  GLY616  TRP617  ASP618  TYR619  PRO620  LYS621  CYS622 
 ASP623  PHE694  ASN695  SER759  ASP760  ASP761  ALA762  ILE779  LEU786  VAL792 
 PHE793  MET794  SER795  GLU796  ALA797  LYS798  CYS799  TRP800  GLU811  SER814 

> <Gold.Protein.RotatedAtoms>
  151.9185  133.3579  159.3888 H   0  0  0  0  0  0  0  0  0  0  0  0  # atno 6907 bound_to 6896
  150.7042  134.4659  159.5412 H   0  0  0  0  0  0  0  0  0  0  0  0  # atno 6908 bound_to 6896
  152.2278  134.8351  160.0528 H   0  0  0  0  0  0  0  0  0  0  0  0  # atno 6909 bound_to 6896
  145.2107  139.2907  143.4270 H   0  0  0  0  0  0  0  0  0  0  0  0  # atno 7974 bound_to 7965
  154.7238  140.0508  157.0664 H   0  0  0  0  0  0  0  0  0  0  0  0  # atno 8008 bound_to 7997
  155.0392  140.3166  155.4711 H   0  0  0  0  0  0  0  0  0  0  0  0  # atno 8009 bound_to 7997
  156.2823  140.2136  156.5515 H   0  0  0  0  0  0  0  0  0  0  0  0  # atno 8010 bound_to 7997
  140.2935  143.3207  152.0322 H   0  0  0  0  0  0  0  0  0  0  0  0  # atno 10167 bound_to 10162
  157.1683  130.6748  149.6068 H   0  0  0  0  0  0  0  0  0  0  0  0  # atno 10718 bound_to 10713
  152.9994  135.6243  154.2339 H   0  0  0  0  0  0  0  0  0  0  0  0  # atno 10763 bound_to 10752
  154.2080  135.2801  155.2970 H   0  0  0  0  0  0  0  0  0  0  0  0  # atno 10764 bound_to 10752
  154.5629  135.5699  153.7083 H   0  0  0  0  0  0  0  0  0  0  0  0  # atno 10765 bound_to 10752
  140.9086  133.7476  156.0640 H   0  0  0  0  0  0  0  0  0  0  0  0  # atno 11005 bound_to 11000
  146.3398  140.2382  142.8595 LP  0  0  0  0  0  0  0  0  0  0  0  0  # atno 17320 bound_to 7965
  144.9858  140.8502  143.5369 LP  0  0  0  0  0  0  0  0  0  0  0  0  # atno 17321 bound_to 7965
  139.4932  144.6508  151.6680 LP  0  0  0  0  0  0  0  0  0  0  0  0  # atno 17342 bound_to 10162
  140.5712  144.0105  150.6218 LP  0  0  0  0  0  0  0  0  0  0  0  0  # atno 17343 bound_to 10162
  155.9742  130.4688  150.6372 LP  0  0  0  0  0  0  0  0  0  0  0  0  # atno 17370 bound_to 10713
  157.4067  131.0818  151.1258 LP  0  0  0  0  0  0  0  0  0  0  0  0  # atno 17371 bound_to 10713
  140.8138  134.3368  157.5403 LP  0  0  0  0  0  0  0  0  0  0  0  0  # atno 17394 bound_to 11000
  139.8753  134.9270  156.3413 LP  0  0  0  0  0  0  0  0  0  0  0  0  # atno 17395 bound_to 11000

$$$$
