AV-unprocessed.smi:1005|AV-procd|sdf|4380|dock4
  -GOLD-   22720 2303D 1   1.00000     0.00000
 Structure written by MMmdl.
 58 60  0  0  0  0  0  0  0  0  4 V2000
  153.5039  142.7173  161.0142 C   0  0  0  0  0  0  0  0  0  0  0  0
  152.7220  142.3679  159.7593 C   0  0  0  0  0  0  0  0  0  0  0  0
  152.6435  141.0123  159.3682 C   0  0  0  0  0  0  0  0  0  0  0  0
  151.9242  140.7252  158.2143 C   0  0  0  0  0  0  0  0  0  0  0  0
  151.6670  139.5099  157.5766 N   0  3  0  0  0  0  0  0  0  0  0  0
  150.9138  139.7305  156.4640 C   0  0  0  0  0  0  0  0  0  0  0  0
  150.6785  141.0688  156.3854 N   0  0  0  0  0  0  0  0  0  0  0  0
  149.9384  141.8277  155.3669 C   0  0  0  0  0  0  0  0  0  0  0  0
  148.9535  140.9604  154.5572 C   0  0  2  0  0  0  0  0  0  0  0  0
  149.5446  140.7325  153.2941 O   0  0  0  0  0  0  0  0  0  0  0  0
  147.5724  141.6217  154.3545 C   0  0  0  0  0  0  0  0  0  0  0  0
  147.1480  142.4425  155.5209 N   0  3  2  0  0  0  0  0  0  0  0  0
  146.9825  141.6599  156.7695 C   0  0  0  0  0  0  0  0  0  0  0  0
  145.6517  140.8889  156.7685 C   0  0  0  0  0  0  0  0  0  0  0  0
  144.5790  141.8065  156.5947 O   0  0  0  0  0  0  0  0  0  0  0  0
  144.6392  142.4931  155.3485 C   0  0  1  0  0  0  0  0  0  0  0  0
  143.4079  143.4148  155.2578 C   0  0  0  0  0  0  0  0  0  0  0  0
  142.1603  142.6845  154.9131 N   0  3  0  0  0  0  0  0  0  0  0  0
  140.9572  143.5487  154.8874 C   0  0  0  0  0  0  0  0  0  0  0  0
  141.9552  141.4988  155.7747 C   0  0  0  0  0  0  0  0  0  0  0  0
  145.9576  143.2996  155.2827 C   0  0  0  0  0  0  0  0  0  0  0  0
  151.2959  141.7312  157.4540 C   0  0  0  0  0  0  0  0  0  0  0  0
  151.3648  143.0724  157.8256 C   0  0  0  0  0  0  0  0  0  0  0  0
  152.0894  143.3845  158.9980 C   0  0  0  0  0  0  0  0  0  0  0  0
  152.1803  144.8389  159.4276 C   0  0  0  0  0  0  0  0  0  0  0  0
  153.9172  141.8270  161.4891 H   0  0  0  0  0  0  0  0  0  0  0  0
  152.8614  143.2139  161.7416 H   0  0  0  0  0  0  0  0  0  0  0  0
  154.3344  143.3819  160.7747 H   0  0  0  0  0  0  0  0  0  0  0  0
  153.1265  140.2338  159.9408 H   0  0  0  0  0  0  0  0  0  0  0  0
  150.5721  138.9798  155.7655 H   0  0  0  0  0  0  0  0  0  0  0  0
  149.4312  142.6700  155.8379 H   0  0  0  0  0  0  0  0  0  0  0  0
  150.6837  142.2617  154.6985 H   0  0  0  0  0  0  0  0  0  0  0  0
  148.8504  139.9986  155.0590 H   0  0  0  0  0  0  0  0  0  0  0  0
  148.9954  140.1483  152.7943 H   0  0  0  0  0  0  0  0  0  0  0  0
  147.5685  142.2392  153.4579 H   0  0  0  0  0  0  0  0  0  0  0  0
  146.8415  140.8313  154.1762 H   0  0  0  0  0  0  0  0  0  0  0  0
  147.8253  140.9837  156.9180 H   0  0  0  0  0  0  0  0  0  0  0  0
  146.9954  142.3522  157.6125 H   0  0  0  0  0  0  0  0  0  0  0  0
  145.6329  140.1275  155.9872 H   0  0  0  0  0  0  0  0  0  0  0  0
  145.5198  140.3709  157.7187 H   0  0  0  0  0  0  0  0  0  0  0  0
  144.6170  141.7700  154.5339 H   0  0  0  0  0  0  0  0  0  0  0  0
  143.2808  143.9098  156.2221 H   0  0  0  0  0  0  0  0  0  0  0  0
  143.5749  144.2080  154.5275 H   0  0  0  0  0  0  0  0  0  0  0  0
  140.7798  144.0011  155.8639 H   0  0  0  0  0  0  0  0  0  0  0  0
  140.0742  142.9673  154.6197 H   0  0  0  0  0  0  0  0  0  0  0  0
  141.0491  144.3467  154.1518 H   0  0  0  0  0  0  0  0  0  0  0  0
  141.8266  141.7903  156.8179 H   0  0  0  0  0  0  0  0  0  0  0  0
  142.8063  140.8199  155.7107 H   0  0  0  0  0  0  0  0  0  0  0  0
  141.0695  140.9434  155.4633 H   0  0  0  0  0  0  0  0  0  0  0  0
  145.9463  144.0722  156.0532 H   0  0  0  0  0  0  0  0  0  0  0  0
  146.0393  143.8240  154.3314 H   0  0  0  0  0  0  0  0  0  0  0  0
  150.8886  143.8502  157.2475 H   0  0  0  0  0  0  0  0  0  0  0  0
  151.6353  145.4924  158.7456 H   0  0  0  0  0  0  0  0  0  0  0  0
  153.2195  145.1683  159.4451 H   0  0  0  0  0  0  0  0  0  0  0  0
  151.7578  144.9718  160.4240 H   0  0  0  0  0  0  0  0  0  0  0  0
  142.2849  142.3246  153.9771 H   0  0  0  0  0  0  0  0  0  0  0  0
  147.9242  143.0655  155.6950 H   0  0  0  0  0  0  0  0  0  0  0  0
  151.9924  138.5971  157.8694 H   0  0  0  0  0  0  0  0  0  0  0  0
  1  2  1  0  0  0  0
  1 26  1  0  0  0  0
  1 27  1  0  0  0  0
  1 28  1  0  0  0  0
  2 24  1  0  0  0  0
  2  3  2  0  0  0  0
  3  4  1  0  0  0  0
  3 29  1  0  0  0  0
  4 22  2  0  0  0  0
  4  5  1  0  0  0  0
  5  6  2  0  0  0  0
  5 58  1  0  0  0  0
  6  7  1  0  0  0  0
  6 30  1  0  0  0  0
  7  8  1  0  0  0  0
  7 22  1  0  0  0  0
  8  9  1  0  0  0  0
  8 31  1  0  0  0  0
  8 32  1  0  0  0  0
  9 10  1  0  0  0  0
  9 11  1  0  0  0  0
  9 33  1  0  0  0  0
 10 34  1  0  0  0  0
 11 12  1  0  0  0  0
 11 35  1  0  0  0  0
 11 36  1  0  0  0  0
 12 21  1  0  0  0  0
 12 13  1  0  0  0  0
 12 57  1  0  0  0  0
 13 14  1  0  0  0  0
 13 37  1  0  0  0  0
 13 38  1  0  0  0  0
 14 15  1  0  0  0  0
 14 39  1  0  0  0  0
 14 40  1  0  0  0  0
 15 16  1  0  0  0  0
 16 17  1  0  0  0  0
 16 21  1  0  0  0  0
 16 41  1  0  0  0  0
 17 18  1  0  0  0  0
 17 42  1  0  0  0  0
 17 43  1  0  0  0  0
 18 19  1  0  0  0  0
 18 20  1  0  0  0  0
 18 56  1  0  0  0  0
 19 44  1  0  0  0  0
 19 45  1  0  0  0  0
 19 46  1  0  0  0  0
 20 47  1  0  0  0  0
 20 48  1  0  0  0  0
 20 49  1  0  0  0  0
 21 50  1  0  0  0  0
 21 51  1  0  0  0  0
 22 23  1  0  0  0  0
 23 24  2  0  0  0  0
 23 52  1  0  0  0  0
 24 25  1  0  0  0  0
 25 53  1  0  0  0  0
 25 54  1  0  0  0  0
 25 55  1  0  0  0  0
M  CHG  1   5   1
M  CHG  1  12   1
M  CHG  1  18   1
M  END
> <s_m_source_file>
AV-unprocessed.smi

> <i_m_source_file_index>
1005

> <i_lp_mmshare_version>
43012

> <i_f3d_flags>
0

> <s_epik_input>
W0NIM11jKFtjSF0xKWMoW0NIM10pW2NIXWMoYzEyKW4oW2NIXW4yKVtDSDJdW0NASF0oW09IXSlbQ0gyXU4zW0NIMl1bQ0gyXU9bQ0BIXShbQ0gyXTMpW0NIMl1OKFtDSDNdKVtDSDNd

> <s_epik_cmdline>
J2VwaWtfcHl0aG9uJywgJy1waCcsICc3LjAnLCAnLXRuJywgJzgnLCAnLW1hJywgJzIwMCcsICctbWV0YWxfYmluZGluZycsICctaW1hZScsICc8aW5maWxlLm1hZT4nLCAnLW9tYWUnLCAnPG91dGZpbGUubWFlPic=

> <r_epik_Ionization_Penalty>
2.30802

> <r_epik_Ionization_Penalty_Charging>
2.30798

> <r_epik_Ionization_Penalty_Neutral>
3.4851e-05

> <r_epik_State_Penalty>
2.52618

> <r_epik_Charging_Adjusted_Penalty>
4.83416

> <i_epik_Tot_Q>
3

> <i_epik_Tot_abs_Q>
3

> <r_epik_Metal_State_Penalty>
6.53149

> <b_epik_Metal_Only>
0

> <s_lp_Force_Field>
OPLS_2005

> <r_lp_Energy>
52.3538

> <b_lp_Chiralities_Consistent>
1

> <s_lp_Variant>
AV-unprocessed.smi:1005-19

> <Gold.Version>
5.8.1

> <Gold.Id.Protein>
6NUR|6NUR_protein|mol2

> <Gold.PLP.Fitness>
60.1911

> <Gold.PLP.PLP>
-46.1687

> <Gold.PLP.part.hbond>
-4.0265

> <Gold.PLP.part.metal>
0.0000

> <Gold.PLP.part.buried>
-5.8525

> <Gold.PLP.part.nonpolar>
-36.8913

> <Gold.PLP.part.repulsive>
0.1500

> <Gold.PLP.ligand.clash>
0.0000

> <Gold.PLP.ligand.torsion>
1.4040

> <Gold.PLP.Chemscore.Hbond>
5.5600

> <Gold.PLP.Chemscore.CHOScore>
0.0000

> <Gold.PLP.Chemscore.Metal>
0.0000

> <Gold.Chemscore.Hbonds>
donor molecule, donor type, donor heavy atom, donor atom, acceptor molecule, acceptor atom, score
      L1  H    10    34       P1  7957  0.19
      L1  H    12    57       P1  8028  2.00
      L1  H    18    56       P1 10174  2.00
      P1  H  7989  7998       L1    10  0.27
      P1  H  8011  8017       L1    10  1.00

> <Gold.PLP.Chemscore.Internal.Correction>
0.1503

> <Gold.Rescore>
     Score         DG    S(hbond)    S(metal)    S(lipo)     H(rot)  DE(clash)    DE(int)     intcor
     19.06     -21.99       2.76        0.00     118.29       2.56       0.13       2.80       ----

> <Gold.Chemscore.Fitness>
19.0571

> <Gold.Chemscore.DG>
-21.9901

> <Gold.Chemscore.ZeroCoef>
-5.4800

> <Gold.Chemscore.Hbond>
2.7590

> <Gold.Chemscore.Metal>
0.0000

> <Gold.Chemscore.Lipo>
118.2896

> <Gold.Chemscore.Internal_Hbond>
0.0000

> <Gold.Chemscore.DEClash>
0.1299

> <Gold.Chemscore.DEInternal>
2.8031

> <Gold.Chemscore.Rot>
2.5566

> <Gold.Chemscore.Internal.Correction>
   9.000000E+99

> <Gold.Chemscore.Hbonds>
donor molecule, donor type, donor heavy atom, donor atom, acceptor molecule, acceptor atom, score
      L1  H    10    34       P1  7957  0.19
      L1  H    12    57       P1  8028  0.59
      L1  H    18    56       P1 10174  0.69
      P1  H  7989  7998       L1    10  0.19
      P1  H  8011  8017       L1    10  0.58

> <Gold.Chemscore.Hbond.Weighted>
-9.2152

> <Gold.Chemscore.Metal.Weighted>
-0.0000

> <Gold.Chemscore.Lipo.Weighted>
-13.8399

> <Gold.Chemscore.Internal_Hbond.Weighted>
0.0000

> <Gold.Chemscore.DEClash.Weighted>
0.1299

> <Gold.Chemscore.DEInternal.Weighted>
2.8031

> <Gold.Chemscore.Rot.Weighted>
6.5450

> <Gold.Chemscore.Internal.Correction.Weighted>
   9.000000E+99

> <Gold.Protein.RotatedTorsions>
[ 6907 6896 6895 6894 ] final  111.61 input  -60.11 | X-H torsion
[ 7974 7965 7964 7962 ] final   11.68 input  175.53 | X-H torsion
[ 8008 7997 7996 7995 ] final  174.10 input   59.86 | X-H torsion
[ 10167 10162 10161 10158 ] final  119.50 input  -65.29 | X-H torsion
[ 10718 10713 10712 10709 ] final  -65.31 input   66.30 | X-H torsion
[ 10763 10752 10751 10750 ] final   75.93 input  -60.55 | X-H torsion
[ 11005 11000 10999 10996 ] final -119.13 input  -57.11 | X-H torsion

> <Gold.Protein.ActiveResidues>
 VAL166  LYS551  ARG553  GLY616  TRP617  ASP618  TYR619  PRO620  LYS621  CYS622 
 ASP623  PHE694  ASN695  SER759  ASP760  ASP761  ALA762  ILE779  LEU786  VAL792 
 PHE793  MET794  SER795  GLU796  ALA797  LYS798  CYS799  TRP800  GLU811  SER814 

> <Gold.Protein.RotatedAtoms>
  152.4960  133.8633  159.7261 H   0  0  0  0  0  0  0  0  0  0  0  0  # atno 6907 bound_to 6896
  150.9139  133.6954  159.2855 H   0  0  0  0  0  0  0  0  0  0  0  0  # atno 6908 bound_to 6896
  151.4354  135.1018  159.9707 H   0  0  0  0  0  0  0  0  0  0  0  0  # atno 6909 bound_to 6896
  146.2366  139.9449  142.8478 H   0  0  0  0  0  0  0  0  0  0  0  0  # atno 7974 bound_to 7965
  156.1009  140.1443  156.9469 H   0  0  0  0  0  0  0  0  0  0  0  0  # atno 8008 bound_to 7997
  154.4701  140.0912  156.7169 H   0  0  0  0  0  0  0  0  0  0  0  0  # atno 8009 bound_to 7997
  155.4762  140.3443  155.4335 H   0  0  0  0  0  0  0  0  0  0  0  0  # atno 8010 bound_to 7997
  139.6042  144.7065  151.2992 H   0  0  0  0  0  0  0  0  0  0  0  0  # atno 10167 bound_to 10162
  156.0677  130.4245  150.1545 H   0  0  0  0  0  0  0  0  0  0  0  0  # atno 10718 bound_to 10713
  153.0689  135.4970  154.8261 H   0  0  0  0  0  0  0  0  0  0  0  0  # atno 10763 bound_to 10752
  154.6994  135.2999  154.9366 H   0  0  0  0  0  0  0  0  0  0  0  0  # atno 10764 bound_to 10752
  154.0095  135.6756  153.4817 H   0  0  0  0  0  0  0  0  0  0  0  0  # atno 10765 bound_to 10752
  141.0237  134.0085  157.3245 H   0  0  0  0  0  0  0  0  0  0  0  0  # atno 11005 bound_to 11000
  145.1917  140.9815  143.4207 LP  0  0  0  0  0  0  0  0  0  0  0  0  # atno 17320 bound_to 7965
  144.9851  139.3744  143.6242 LP  0  0  0  0  0  0  0  0  0  0  0  0  # atno 17321 bound_to 7965
  140.7272  143.6969  150.7876 LP  0  0  0  0  0  0  0  0  0  0  0  0  # atno 17342 bound_to 10162
  140.0551  143.5211  152.2655 LP  0  0  0  0  0  0  0  0  0  0  0  0  # atno 17343 bound_to 10162
  156.9602  130.9802  151.3480 LP  0  0  0  0  0  0  0  0  0  0  0  0  # atno 17370 bound_to 10713
  157.5729  130.8323  149.8416 LP  0  0  0  0  0  0  0  0  0  0  0  0  # atno 17371 bound_to 10713
  139.9162  135.0197  156.7891 LP  0  0  0  0  0  0  0  0  0  0  0  0  # atno 17394 bound_to 11000
  140.6528  133.9716  155.7764 LP  0  0  0  0  0  0  0  0  0  0  0  0  # atno 17395 bound_to 11000

$$$$
