AV-unprocessed.smi:1715|AV-procd|sdf|6911|dock1
  -GOLD-   22720 8113D 1   1.00000     0.00000
 Structure written by MMmdl.
 40 41  0  0  0  0  0  0  0  0  1 V2000
  145.1627  133.7218  152.1274 C   0  0  0  0  0  0  0  0  0  0  0  0
  146.2401  132.9292  151.3677 C   0  0  1  0  0  0  0  0  0  0  0  0
  147.6388  133.0271  152.0089 C   0  0  0  0  0  0  0  0  0  0  0  0
  147.7554  132.2491  153.2381 N   0  0  0  0  0  0  0  0  0  0  0  0
  149.0980  132.3692  153.8039 C   0  0  0  0  0  0  0  0  0  0  0  0
  149.2341  133.3961  154.9438 C   0  0  0  0  0  0  0  0  0  0  0  0
  149.4867  134.7344  154.4239 N   0  0  0  0  0  0  0  0  0  0  0  0
  150.1064  135.7167  155.0931 C   0  0  0  0  0  0  0  0  0  0  0  0
  150.5357  135.5940  156.2406 O   0  0  0  0  0  0  0  0  0  0  0  0
  150.1914  136.8337  154.3518 N   0  0  0  0  0  0  0  0  0  0  0  0
  150.7744  138.0717  154.7227 C   0  0  0  0  0  0  0  0  0  0  0  0
  150.3045  139.3452  154.3013 C   0  0  0  0  0  0  0  0  0  0  0  0
  151.0428  140.3239  154.8049 N   0  0  0  0  0  0  0  0  0  0  0  0
  151.9801  139.6874  155.5428 N   0  0  0  0  0  0  0  0  0  0  0  0
  151.8558  138.3155  155.5221 C   0  0  0  0  0  0  0  0  0  0  0  0
  147.3835  130.8649  152.9598 C   0  0  0  0  0  0  0  0  0  0  0  0
  145.9641  130.7565  152.3729 C   0  0  2  0  0  0  0  0  0  0  0  0
  145.6051  129.3160  151.9939 C   0  0  0  0  0  0  0  0  0  0  0  0
  145.8712  131.5598  151.1980 O   0  0  0  0  0  0  0  0  0  0  0  0
  152.6903  140.1972  156.0491 H   0  0  0  0  0  0  0  0  0  0  0  0
  145.4051  134.7846  152.1466 H   0  0  0  0  0  0  0  0  0  0  0  0
  145.0636  133.3930  153.1617 H   0  0  0  0  0  0  0  0  0  0  0  0
  144.1899  133.6135  151.6473 H   0  0  0  0  0  0  0  0  0  0  0  0
  146.3005  133.3556  150.3659 H   0  0  0  0  0  0  0  0  0  0  0  0
  148.3793  132.6757  151.2885 H   0  0  0  0  0  0  0  0  0  0  0  0
  147.8760  134.0735  152.2050 H   0  0  0  0  0  0  0  0  0  0  0  0
  149.4406  131.3924  154.1485 H   0  0  0  0  0  0  0  0  0  0  0  0
  149.7841  132.6622  153.0080 H   0  0  0  0  0  0  0  0  0  0  0  0
  148.3380  133.3975  155.5668 H   0  0  0  0  0  0  0  0  0  0  0  0
  150.0683  133.1428  155.5970 H   0  0  0  0  0  0  0  0  0  0  0  0
  149.1666  134.9254  153.4857 H   0  0  0  0  0  0  0  0  0  0  0  0
  149.7962  136.7953  153.4237 H   0  0  0  0  0  0  0  0  0  0  0  0
  149.4694  139.5868  153.6603 H   0  0  0  0  0  0  0  0  0  0  0  0
  152.5283  137.6656  156.0620 H   0  0  0  0  0  0  0  0  0  0  0  0
  148.1008  130.4226  152.2664 H   0  0  0  0  0  0  0  0  0  0  0  0
  147.4244  130.2717  153.8726 H   0  0  0  0  0  0  0  0  0  0  0  0
  145.2390  131.1069  153.1081 H   0  0  0  0  0  0  0  0  0  0  0  0
  145.6400  128.6605  152.8644 H   0  0  0  0  0  0  0  0  0  0  0  0
  146.2951  128.9203  151.2481 H   0  0  0  0  0  0  0  0  0  0  0  0
  144.5987  129.2623  151.5782 H   0  0  0  0  0  0  0  0  0  0  0  0
  1  2  1  0  0  0  0
  1 21  1  0  0  0  0
  1 22  1  0  0  0  0
  1 23  1  0  0  0  0
  2 19  1  0  0  0  0
  2  3  1  0  0  0  0
  2 24  1  0  0  0  0
  3  4  1  0  0  0  0
  3 25  1  0  0  0  0
  3 26  1  0  0  0  0
  4  5  1  0  0  0  0
  4 16  1  0  0  0  0
  5  6  1  0  0  0  0
  5 27  1  0  0  0  0
  5 28  1  0  0  0  0
  6  7  1  0  0  0  0
  6 29  1  0  0  0  0
  6 30  1  0  0  0  0
  7  8  1  0  0  0  0
  7 31  1  0  0  0  0
  8  9  2  0  0  0  0
  8 10  1  0  0  0  0
 10 11  1  0  0  0  0
 10 32  1  0  0  0  0
 11 15  2  0  0  0  0
 11 12  1  0  0  0  0
 12 13  2  0  0  0  0
 12 33  1  0  0  0  0
 13 14  1  0  0  0  0
 14 20  1  0  0  0  0
 14 15  1  0  0  0  0
 15 34  1  0  0  0  0
 16 17  1  0  0  0  0
 16 35  1  0  0  0  0
 16 36  1  0  0  0  0
 17 18  1  0  0  0  0
 17 19  1  0  0  0  0
 17 37  1  0  0  0  0
 18 38  1  0  0  0  0
 18 39  1  0  0  0  0
 18 40  1  0  0  0  0
M  END
> <s_m_source_file>
AV-unprocessed.smi

> <i_m_source_file_index>
1715

> <i_lp_mmshare_version>
43012

> <i_f3d_flags>
0

> <s_epik_input>
W0NIM11bQ0BASF0xW0NIMl1OKFtDSDJdW0NASF0oTzEpW0NIM10pW0NIMl1bQ0gyXVtOSF1DKD1PKVtOSF1jMltjSF1uW25IXVtjSF0y

> <s_epik_cmdline>
J2VwaWtfcHl0aG9uJywgJy1waCcsICc3LjAnLCAnLXRuJywgJzgnLCAnLW1hJywgJzIwMCcsICctbWV0YWxfYmluZGluZycsICctaW1hZScsICc8aW5maWxlLm1hZT4nLCAnLW9tYWUnLCAnPG91dGZpbGUubWFlPic=

> <r_lp_tautomer_probability>
0.5

> <r_epik_Ionization_Penalty>
0.242771

> <r_epik_Ionization_Penalty_Charging>
0

> <r_epik_Ionization_Penalty_Neutral>
0.242771

> <r_epik_State_Penalty>
0.233765

> <r_epik_Charging_Adjusted_Penalty>
0.233765

> <i_epik_Tot_Q>
0

> <i_epik_Tot_abs_Q>
0

> <r_epik_Metal_State_Penalty>
0.233764

> <b_epik_Metal_Only>
0

> <s_lp_Force_Field>
OPLS_2005

> <r_lp_Energy>
25.0708

> <b_lp_Chiralities_Consistent>
1

> <s_lp_Variant>
AV-unprocessed.smi:1715-3

> <Gold.Version>
5.8.1

> <Gold.Id.Protein>
6NUR|6NUR_protein|mol2

> <Gold.PLP.Fitness>
40.4649

> <Gold.PLP.PLP>
-31.7034

> <Gold.PLP.part.hbond>
-3.5904

> <Gold.PLP.part.metal>
0.0000

> <Gold.PLP.part.buried>
-2.5474

> <Gold.PLP.part.nonpolar>
-25.3621

> <Gold.PLP.part.repulsive>
0.5837

> <Gold.PLP.ligand.clash>
0.0000

> <Gold.PLP.ligand.torsion>
1.1125

> <Gold.PLP.Chemscore.Hbond>
2.7599

> <Gold.PLP.Chemscore.CHOScore>
0.8965

> <Gold.PLP.Chemscore.Metal>
0.0000

> <Gold.Chemscore.Hbonds>
donor molecule, donor type, donor heavy atom, donor atom, acceptor molecule, acceptor atom, score
      L1  H     7    31       P1  7948  0.80
      L1  H    10    32       P1  7948  1.00
      P1  H  7989  7998       L1    13  0.95
      L1  C    12    33       P1  7957  0.88

> <Gold.PLP.Chemscore.Internal.Correction>
0.0174

> <Gold.Rescore>
     Score         DG    S(hbond)    S(metal)    S(lipo)     H(rot)  DE(clash)    DE(int)     intcor
     13.82     -14.98       1.44        0.00      75.76       1.63       0.07       1.09       ----

> <Gold.Chemscore.Fitness>
13.8152

> <Gold.Chemscore.DG>
-14.9789

> <Gold.Chemscore.ZeroCoef>
-5.4800

> <Gold.Chemscore.Hbond>
1.4386

> <Gold.Chemscore.Metal>
0.0000

> <Gold.Chemscore.Lipo>
75.7556

> <Gold.Chemscore.Internal_Hbond>
0.0000

> <Gold.Chemscore.DEClash>
0.0709

> <Gold.Chemscore.DEInternal>
1.0928

> <Gold.Chemscore.Rot>
1.6287

> <Gold.Chemscore.Internal.Correction>
   9.000000E+99

> <Gold.Chemscore.Hbonds>
donor molecule, donor type, donor heavy atom, donor atom, acceptor molecule, acceptor atom, score
      L1  H     7    31       P1  7948  0.13
      L1  H    10    32       P1  7948  0.40
      P1  H  7989  7998       L1    13  0.16

> <Gold.Chemscore.Hbond.Weighted>
-4.8050

> <Gold.Chemscore.Metal.Weighted>
-0.0000

> <Gold.Chemscore.Lipo.Weighted>
-8.8634

> <Gold.Chemscore.Internal_Hbond.Weighted>
0.0000

> <Gold.Chemscore.DEClash.Weighted>
0.0709

> <Gold.Chemscore.DEInternal.Weighted>
1.0928

> <Gold.Chemscore.Rot.Weighted>
4.1695

> <Gold.Chemscore.Internal.Correction.Weighted>
   9.000000E+99

> <Gold.Protein.RotatedTorsions>
[ 6907 6896 6895 6894 ] final -142.51 input  -60.11 | X-H torsion
[ 7974 7965 7964 7962 ] final  -76.30 input  175.53 | X-H torsion
[ 8008 7997 7996 7995 ] final  120.86 input   59.86 | X-H torsion
[ 10167 10162 10161 10158 ] final   44.89 input  -65.29 | X-H torsion
[ 10718 10713 10712 10709 ] final  -78.12 input   66.30 | X-H torsion
[ 10763 10752 10751 10750 ] final  -63.79 input  -60.55 | X-H torsion
[ 11005 11000 10999 10996 ] final  152.19 input  -57.11 | X-H torsion

> <Gold.Protein.ActiveResidues>
 VAL166  LYS551  ARG553  GLY616  TRP617  ASP618  TYR619  PRO620  LYS621  CYS622 
 ASP623  PHE694  ASN695  SER759  ASP760  ASP761  ALA762  ILE779  LEU786  VAL792 
 PHE793  MET794  SER795  GLU796  ALA797  LYS798  CYS799  TRP800  GLU811  SER814 

> <Gold.Protein.RotatedAtoms>
  151.0880  133.5338  159.2616 H   0  0  0  0  0  0  0  0  0  0  0  0  # atno 6907 bound_to 6896
  151.2215  135.0520  159.8961 H   0  0  0  0  0  0  0  0  0  0  0  0  # atno 6908 bound_to 6896
  152.5431  134.0682  159.8236 H   0  0  0  0  0  0  0  0  0  0  0  0  # atno 6909 bound_to 6896
  145.6147  140.9378  143.1170 H   0  0  0  0  0  0  0  0  0  0  0  0  # atno 7974 bound_to 7965
  156.2661  140.2821  156.1216 H   0  0  0  0  0  0  0  0  0  0  0  0  # atno 8008 bound_to 7997
  155.1149  140.0391  157.2752 H   0  0  0  0  0  0  0  0  0  0  0  0  # atno 8009 bound_to 7997
  154.6714  140.2588  155.7009 H   0  0  0  0  0  0  0  0  0  0  0  0  # atno 8010 bound_to 7997
  140.3297  144.2604  150.6170 H   0  0  0  0  0  0  0  0  0  0  0  0  # atno 10167 bound_to 10162
  156.0126  130.4509  150.3449 H   0  0  0  0  0  0  0  0  0  0  0  0  # atno 10718 bound_to 10713
  154.3204  135.6197  153.5505 H   0  0  0  0  0  0  0  0  0  0  0  0  # atno 10763 bound_to 10752
  152.9820  135.5722  154.5076 H   0  0  0  0  0  0  0  0  0  0  0  0  # atno 10764 bound_to 10752
  154.4743  135.2860  155.1596 H   0  0  0  0  0  0  0  0  0  0  0  0  # atno 10765 bound_to 10752
  140.1286  134.8817  157.2172 H   0  0  0  0  0  0  0  0  0  0  0  0  # atno 11005 bound_to 11000
  144.7255  139.7888  143.7366 LP  0  0  0  0  0  0  0  0  0  0  0  0  # atno 17320 bound_to 7965
  146.1477  139.4552  143.0068 LP  0  0  0  0  0  0  0  0  0  0  0  0  # atno 17321 bound_to 7965
  140.5408  143.2224  151.8087 LP  0  0  0  0  0  0  0  0  0  0  0  0  # atno 17342 bound_to 10162
  139.4859  144.4602  151.9550 LP  0  0  0  0  0  0  0  0  0  0  0  0  # atno 17343 bound_to 10162
  157.1543  131.0329  151.2870 LP  0  0  0  0  0  0  0  0  0  0  0  0  # atno 17370 bound_to 10713
  157.4365  130.7520  149.7033 LP  0  0  0  0  0  0  0  0  0  0  0  0  # atno 17371 bound_to 10713
  140.2872  134.3282  155.7326 LP  0  0  0  0  0  0  0  0  0  0  0  0  # atno 17394 bound_to 11000
  141.2166  133.7513  156.9449 LP  0  0  0  0  0  0  0  0  0  0  0  0  # atno 17395 bound_to 11000

$$$$
