AV-unprocessed.smi:1409|AV-procd|sdf|5727|dock1
  -GOLD-   22720 5363D 1   1.00000     0.00000
 Structure written by MMmdl.
 37 38  0  0  0  0  0  0  0  0  1 V2000
  144.9358  134.5233  150.5945 C   0  0  0  0  0  0  0  0  0  0  0  0
  146.1338  134.1984  151.2909 O   0  0  0  0  0  0  0  0  0  0  0  0
  146.3140  132.8981  151.7230 C   0  0  0  0  0  0  0  0  0  0  0  0
  145.5141  131.9302  151.2091 N   0  0  0  0  0  0  0  0  0  0  0  0
  145.6904  130.6605  151.6291 C   0  0  0  0  0  0  0  0  0  0  0  0
  146.6686  130.2890  152.5695 C   0  0  0  0  0  0  0  0  0  0  0  0
  147.4997  131.2909  153.1040 C   0  0  0  0  0  0  0  0  0  0  0  0
  147.3163  132.6308  152.6845 C   0  0  0  0  0  0  0  0  0  0  0  0
  148.1157  133.7133  153.1443 N   0  0  0  0  0  0  0  0  0  0  0  0
  148.9212  133.7577  154.2186 C   0  0  0  0  0  0  0  0  0  0  0  0
  149.0880  132.8400  155.0219 O   0  0  0  0  0  0  0  0  0  0  0  0
  149.5148  134.9543  154.3290 N   0  0  0  0  0  0  0  0  0  0  0  0
  150.4228  135.3444  155.4026 C   0  0  0  0  0  0  0  0  0  0  0  0
  150.5646  136.8751  155.5212 C   0  0  2  0  0  0  0  0  0  0  0  0
  151.2615  137.5243  154.3066 C   0  0  0  0  0  0  0  0  0  0  0  0
  151.6052  138.9741  154.6590 C   0  0  0  0  0  0  0  0  0  0  0  0
  152.0273  138.9581  156.4402 S   0  0  0  0  0  0  0  0  0  0  0  0
  153.4887  138.9050  156.5961 O   0  0  0  0  0  0  0  0  0  0  0  0
  151.2285  139.9807  157.1323 O   0  0  0  0  0  0  0  0  0  0  0  0
  151.3336  137.2955  156.7847 C   0  0  0  0  0  0  0  0  0  0  0  0
  144.9469  135.5813  150.3331 H   0  0  0  0  0  0  0  0  0  0  0  0
  144.0536  134.3456  151.2112 H   0  0  0  0  0  0  0  0  0  0  0  0
  144.8465  133.9544  149.6678 H   0  0  0  0  0  0  0  0  0  0  0  0
  145.0363  129.9173  151.1976 H   0  0  0  0  0  0  0  0  0  0  0  0
  146.7827  129.2579  152.8700 H   0  0  0  0  0  0  0  0  0  0  0  0
  148.2673  131.0126  153.8094 H   0  0  0  0  0  0  0  0  0  0  0  0
  148.0053  134.5772  152.6337 H   0  0  0  0  0  0  0  0  0  0  0  0
  149.3180  135.6497  153.6241 H   0  0  0  0  0  0  0  0  0  0  0  0
  150.0808  134.9219  156.3491 H   0  0  0  0  0  0  0  0  0  0  0  0
  151.3947  134.8940  155.1998 H   0  0  0  0  0  0  0  0  0  0  0  0
  149.5680  137.3135  155.5931 H   0  0  0  0  0  0  0  0  0  0  0  0
  152.1851  136.9847  154.0925 H   0  0  0  0  0  0  0  0  0  0  0  0
  150.6466  137.4735  153.4075 H   0  0  0  0  0  0  0  0  0  0  0  0
  152.4350  139.3738  154.0759 H   0  0  0  0  0  0  0  0  0  0  0  0
  150.7371  139.6196  154.5233 H   0  0  0  0  0  0  0  0  0  0  0  0
  150.7020  137.3290  157.6726 H   0  0  0  0  0  0  0  0  0  0  0  0
  152.1696  136.6237  156.9810 H   0  0  0  0  0  0  0  0  0  0  0  0
  1  2  1  0  0  0  0
  1 21  1  0  0  0  0
  1 22  1  0  0  0  0
  1 23  1  0  0  0  0
  2  3  1  0  0  0  0
  3  8  1  0  0  0  0
  3  4  2  0  0  0  0
  4  5  1  0  0  0  0
  5  6  2  0  0  0  0
  5 24  1  0  0  0  0
  6  7  1  0  0  0  0
  6 25  1  0  0  0  0
  7  8  2  0  0  0  0
  7 26  1  0  0  0  0
  8  9  1  0  0  0  0
  9 10  1  0  0  0  0
  9 27  1  0  0  0  0
 10 11  2  0  0  0  0
 10 12  1  0  0  0  0
 12 13  1  0  0  0  0
 12 28  1  0  0  0  0
 13 14  1  0  0  0  0
 13 29  1  0  0  0  0
 13 30  1  0  0  0  0
 14 20  1  0  0  0  0
 14 15  1  0  0  0  0
 14 31  1  0  0  0  0
 15 16  1  0  0  0  0
 15 32  1  0  0  0  0
 15 33  1  0  0  0  0
 16 17  1  0  0  0  0
 16 34  1  0  0  0  0
 16 35  1  0  0  0  0
 17 18  2  0  0  0  0
 17 19  2  0  0  0  0
 17 20  1  0  0  0  0
 20 36  1  0  0  0  0
 20 37  1  0  0  0  0
M  END
> <s_m_source_file>
AV-unprocessed.smi

> <i_m_source_file_index>
1409

> <i_lp_mmshare_version>
43012

> <i_f3d_flags>
0

> <s_epik_input>
W0NIM11PYzFuW2NIXVtjSF1bY0hdYzFbTkhdQyg9TylbTkhdW0NIMl1bQ0BASF0oW0NIMl0yKVtDSDJdW0NIMl1TMig9Tyk9Tw==

> <s_epik_cmdline>
J2VwaWtfcHl0aG9uJywgJy1waCcsICc3LjAnLCAnLXRuJywgJzgnLCAnLW1hJywgJzIwMCcsICctbWV0YWxfYmluZGluZycsICctaW1hZScsICc8aW5maWxlLm1hZT4nLCAnLW9tYWUnLCAnPG91dGZpbGUubWFlPic=

> <r_lp_tautomer_probability>
1

> <r_epik_Ionization_Penalty>
9.0549e-05

> <r_epik_Ionization_Penalty_Charging>
0

> <r_epik_Ionization_Penalty_Neutral>
9.0549e-05

> <r_epik_State_Penalty>
-0

> <r_epik_Charging_Adjusted_Penalty>
0

> <i_epik_Tot_Q>
0

> <i_epik_Tot_abs_Q>
0

> <r_epik_Metal_State_Penalty>
-0

> <b_epik_Metal_Only>
0

> <s_lp_Force_Field>
OPLS_2005

> <r_lp_Energy>
8.54576

> <b_lp_Chiralities_Consistent>
1

> <s_lp_Variant>
AV-unprocessed.smi:1409-1

> <Gold.Version>
5.8.1

> <Gold.Id.Protein>
6NUR|6NUR_protein|mol2

> <Gold.PLP.Fitness>
39.5125

> <Gold.PLP.PLP>
-31.5540

> <Gold.PLP.part.hbond>
-2.7396

> <Gold.PLP.part.metal>
0.0000

> <Gold.PLP.part.buried>
-4.9457

> <Gold.PLP.part.nonpolar>
-24.3978

> <Gold.PLP.part.repulsive>
0.3346

> <Gold.PLP.ligand.clash>
0.0000

> <Gold.PLP.ligand.torsion>
0.4149

> <Gold.PLP.Chemscore.Hbond>
2.9111

> <Gold.PLP.Chemscore.CHOScore>
0.0000

> <Gold.PLP.Chemscore.Metal>
0.0000

> <Gold.Chemscore.Hbonds>
donor molecule, donor type, donor heavy atom, donor atom, acceptor molecule, acceptor atom, score
      L1  H     9    27       P1  7948  0.90
      L1  H    12    28       P1  7948  1.00
      P1  H  7997  8009       L1    18  0.83

> <Gold.PLP.Chemscore.Internal.Correction>
0.0550

> <Gold.Rescore>
     Score         DG    S(hbond)    S(metal)    S(lipo)     H(rot)  DE(clash)    DE(int)     intcor
     15.19     -16.78       2.39        0.00      63.05       1.59       0.00       1.58       ----

> <Gold.Chemscore.Fitness>
15.1941

> <Gold.Chemscore.DG>
-16.7804

> <Gold.Chemscore.ZeroCoef>
-5.4800

> <Gold.Chemscore.Hbond>
2.3948

> <Gold.Chemscore.Metal>
0.0000

> <Gold.Chemscore.Lipo>
63.0523

> <Gold.Chemscore.Internal_Hbond>
0.0000

> <Gold.Chemscore.DEClash>
0.0021

> <Gold.Chemscore.DEInternal>
1.5841

> <Gold.Chemscore.Rot>
1.5919

> <Gold.Chemscore.Internal.Correction>
   9.000000E+99

> <Gold.Chemscore.Hbonds>
donor molecule, donor type, donor heavy atom, donor atom, acceptor molecule, acceptor atom, score
      L1  H     9    27       P1  7948  0.50
      L1  H    12    28       P1  7948  0.48
      P1  H  7997  8009       L1    18  0.76

> <Gold.Chemscore.Hbond.Weighted>
-7.9986

> <Gold.Chemscore.Metal.Weighted>
-0.0000

> <Gold.Chemscore.Lipo.Weighted>
-7.3771

> <Gold.Chemscore.Internal_Hbond.Weighted>
0.0000

> <Gold.Chemscore.DEClash.Weighted>
0.0021

> <Gold.Chemscore.DEInternal.Weighted>
1.5841

> <Gold.Chemscore.Rot.Weighted>
4.0754

> <Gold.Chemscore.Internal.Correction.Weighted>
   9.000000E+99

> <Gold.Protein.RotatedTorsions>
[ 6907 6896 6895 6894 ] final  -95.09 input  -60.11 | X-H torsion
[ 7974 7965 7964 7962 ] final   80.15 input  175.53 | X-H torsion
[ 8008 7997 7996 7995 ] final -171.76 input   59.86 | X-H torsion
[ 10167 10162 10161 10158 ] final  173.62 input  -65.29 | X-H torsion
[ 10718 10713 10712 10709 ] final -171.41 input   66.30 | X-H torsion
[ 10763 10752 10751 10750 ] final    2.04 input  -60.55 | X-H torsion
[ 11005 11000 10999 10996 ] final  161.30 input  -57.11 | X-H torsion

> <Gold.Protein.ActiveResidues>
 VAL166  LYS551  ARG553  GLY616  TRP617  ASP618  TYR619  PRO620  LYS621  CYS622 
 ASP623  PHE694  ASN695  SER759  ASP760  ASP761  ALA762  ILE779  LEU786  VAL792 
 PHE793  MET794  SER795  GLU796  ALA797  LYS798  CYS799  TRP800  GLU811  SER814 

> <Gold.Protein.RotatedAtoms>
  150.6956  134.1712  159.4212 H   0  0  0  0  0  0  0  0  0  0  0  0  # atno 6907 bound_to 6896
  151.9689  135.0084  160.0561 H   0  0  0  0  0  0  0  0  0  0  0  0  # atno 6908 bound_to 6896
  152.1859  133.4704  159.5019 H   0  0  0  0  0  0  0  0  0  0  0  0  # atno 6909 bound_to 6896
  145.6549  139.2457  143.1955 H   0  0  0  0  0  0  0  0  0  0  0  0  # atno 7974 bound_to 7965
  155.9358  140.1099  157.1096 H   0  0  0  0  0  0  0  0  0  0  0  0  # atno 8008 bound_to 7997
  154.4079  140.1229  156.4927 H   0  0  0  0  0  0  0  0  0  0  0  0  # atno 8009 bound_to 7997
  155.7024  140.3472  155.4941 H   0  0  0  0  0  0  0  0  0  0  0  0  # atno 8010 bound_to 7997
  139.5114  144.3240  152.0175 H   0  0  0  0  0  0  0  0  0  0  0  0  # atno 10167 bound_to 10162
  156.7405  130.9340  151.3110 H   0  0  0  0  0  0  0  0  0  0  0  0  # atno 10718 bound_to 10713
  153.3005  135.6955  153.7207 H   0  0  0  0  0  0  0  0  0  0  0  0  # atno 10763 bound_to 10752
  153.6123  135.3442  155.2984 H   0  0  0  0  0  0  0  0  0  0  0  0  # atno 10764 bound_to 10752
  154.8549  135.4366  154.2115 H   0  0  0  0  0  0  0  0  0  0  0  0  # atno 10765 bound_to 10752
  140.2145  134.8243  157.3155 H   0  0  0  0  0  0  0  0  0  0  0  0  # atno 11005 bound_to 11000
  146.1173  140.7353  142.9474 LP  0  0  0  0  0  0  0  0  0  0  0  0  # atno 17320 bound_to 7965
  144.7109  140.4035  143.7081 LP  0  0  0  0  0  0  0  0  0  0  0  0  # atno 17321 bound_to 7965
  140.2681  144.3994  150.6161 LP  0  0  0  0  0  0  0  0  0  0  0  0  # atno 17342 bound_to 10162
  140.6108  143.2169  151.6889 LP  0  0  0  0  0  0  0  0  0  0  0  0  # atno 17343 bound_to 10162
  157.6820  130.9149  150.0292 LP  0  0  0  0  0  0  0  0  0  0  0  0  # atno 17370 bound_to 10713
  156.1468  130.3642  149.9499 LP  0  0  0  0  0  0  0  0  0  0  0  0  # atno 17371 bound_to 10713
  140.1915  134.4365  155.7713 LP  0  0  0  0  0  0  0  0  0  0  0  0  # atno 17394 bound_to 11000
  141.2225  133.7029  156.8036 LP  0  0  0  0  0  0  0  0  0  0  0  0  # atno 17395 bound_to 11000

$$$$
