AV-unprocessed.smi:2613|AV-procd|sdf|10212|dock7
  -GOLD-   2272014223D 1   1.00000     0.00000
 Structure written by MMmdl.
 27 28  0  0  0  0  0  0  0  0  2 V2000
  152.4521  144.3514  158.8340 C   0  0  0  0  0  0  0  0  0  0  0  0
  152.5256  142.8752  159.0608 C   0  0  0  0  0  0  0  0  0  0  0  0
  153.4934  142.3126  159.7842 N   0  0  0  0  0  0  0  0  0  0  0  0
  153.1763  140.9686  159.7210 C   0  0  0  0  0  0  0  0  0  0  0  0
  153.8229  139.8457  160.2831 C   0  0  0  0  0  0  0  0  0  0  0  0
  153.3178  138.5376  160.0824 C   0  0  0  0  0  0  0  0  0  0  0  0
  154.0209  137.3512  160.6855 C   0  0  0  0  0  0  0  0  0  0  0  0
  153.8050  136.2141  160.2100 O   0  0  0  0  0  0  0  0  0  0  0  0
  154.8017  137.5363  161.6455 O   0  5  0  0  0  0  0  0  0  0  0  0
  152.1459  138.3590  159.3075 C   0  0  0  0  0  0  0  0  0  0  0  0
  151.4856  139.4648  158.7384 C   0  0  0  0  0  0  0  0  0  0  0  0
  152.0018  140.7556  158.9474 C   0  0  0  0  0  0  0  0  0  0  0  0
  151.6089  142.0254  158.5375 N   0  0  0  0  0  0  0  0  0  0  0  0
  150.4576  142.3458  157.7097 C   0  0  0  0  0  0  0  0  0  0  0  0
  150.5276  141.6321  156.3531 C   0  0  0  0  0  0  0  0  0  0  0  0
  149.3351  141.8572  155.6336 O   0  0  0  0  0  0  0  0  0  0  0  0
  153.3298  144.8467  159.2509 H   0  0  0  0  0  0  0  0  0  0  0  0
  151.5640  144.7616  159.3149 H   0  0  0  0  0  0  0  0  0  0  0  0
  152.4103  144.5697  157.7668 H   0  0  0  0  0  0  0  0  0  0  0  0
  154.7157  140.0015  160.8710 H   0  0  0  0  0  0  0  0  0  0  0  0
  151.7433  137.3700  159.1426 H   0  0  0  0  0  0  0  0  0  0  0  0
  150.5937  139.3202  158.1472 H   0  0  0  0  0  0  0  0  0  0  0  0
  149.5544  142.0513  158.2459 H   0  0  0  0  0  0  0  0  0  0  0  0
  150.3969  143.4261  157.5756 H   0  0  0  0  0  0  0  0  0  0  0  0
  151.3708  141.9966  155.7661 H   0  0  0  0  0  0  0  0  0  0  0  0
  150.6640  140.5587  156.4891 H   0  0  0  0  0  0  0  0  0  0  0  0
  149.1556  142.7850  155.6323 H   0  0  0  0  0  0  0  0  0  0  0  0
  1  2  1  0  0  0  0
  1 17  1  0  0  0  0
  1 18  1  0  0  0  0
  1 19  1  0  0  0  0
  2 13  1  0  0  0  0
  2  3  2  0  0  0  0
  3  4  1  0  0  0  0
  4 12  2  0  0  0  0
  4  5  1  0  0  0  0
  5  6  2  0  0  0  0
  5 20  1  0  0  0  0
  6  7  1  0  0  0  0
  6 10  1  0  0  0  0
  7  8  2  0  0  0  0
  7  9  1  0  0  0  0
 10 11  2  0  0  0  0
 10 21  1  0  0  0  0
 11 12  1  0  0  0  0
 11 22  1  0  0  0  0
 12 13  1  0  0  0  0
 13 14  1  0  0  0  0
 14 15  1  0  0  0  0
 14 23  1  0  0  0  0
 14 24  1  0  0  0  0
 15 16  1  0  0  0  0
 15 25  1  0  0  0  0
 15 26  1  0  0  0  0
 16 27  1  0  0  0  0
M  CHG  1   9  -1
M  END
> <s_m_source_file>
AV-unprocessed.smi

> <i_m_source_file_index>
2613

> <i_lp_mmshare_version>
43012

> <i_f3d_flags>
0

> <s_epik_input>
W09IXVtDSDJdW0NIMl1uKGMobjEpW0NIM10pYyhjMTIpW2NIXVtjSF1jKFtjSF0yKUMoPU8pW09IXQ==

> <s_epik_cmdline>
J2VwaWtfcHl0aG9uJywgJy1waCcsICc3LjAnLCAnLXRuJywgJzgnLCAnLW1hJywgJzIwMCcsICctbWV0YWxfYmluZGluZycsICctaW1hZScsICc8aW5maWxlLm1hZT4nLCAnLW9tYWUnLCAnPG91dGZpbGUubWFlPic=

> <r_epik_Ionization_Penalty>
0.138858

> <r_epik_Ionization_Penalty_Charging>
0.000449576

> <r_epik_Ionization_Penalty_Neutral>
0.138408

> <r_epik_State_Penalty>
0.127739

> <r_epik_Charging_Adjusted_Penalty>
0.128189

> <i_epik_Tot_Q>
-1

> <i_epik_Tot_abs_Q>
1

> <r_epik_Metal_State_Penalty>
0.000142538

> <b_epik_Metal_Only>
0

> <s_lp_Force_Field>
OPLS_2005

> <r_lp_Energy>
7.17367

> <b_lp_Chiralities_Consistent>
1

> <s_lp_Variant>
AV-unprocessed.smi:2613-1

> <Gold.Version>
5.8.1

> <Gold.Id.Protein>
6NUR|6NUR_protein|mol2

> <Gold.PLP.Fitness>
41.5416

> <Gold.PLP.PLP>
-32.9048

> <Gold.PLP.part.hbond>
-2.0000

> <Gold.PLP.part.metal>
0.0000

> <Gold.PLP.part.buried>
-5.7211

> <Gold.PLP.part.nonpolar>
-25.4002

> <Gold.PLP.part.repulsive>
0.0000

> <Gold.PLP.ligand.clash>
0.0000

> <Gold.PLP.ligand.torsion>
0.1825

> <Gold.PLP.Chemscore.Hbond>
3.0000

> <Gold.PLP.Chemscore.CHOScore>
0.0000

> <Gold.PLP.Chemscore.Metal>
0.0000

> <Gold.Chemscore.Hbonds>
donor molecule, donor type, donor heavy atom, donor atom, acceptor molecule, acceptor atom, score
      L1  H    16    27       P1  8028  1.00
      P1  H  6896  6907       L1     8  2.00

> <Gold.PLP.Chemscore.Internal.Correction>
0.0019

> <Gold.Rescore>
     Score         DG    S(hbond)    S(metal)    S(lipo)     H(rot)  DE(clash)    DE(int)     intcor
     15.54     -15.59       2.00        0.00      69.28       1.83       0.02       0.03       ----

> <Gold.Chemscore.Fitness>
15.5430

> <Gold.Chemscore.DG>
-15.5906

> <Gold.Chemscore.ZeroCoef>
-5.4800

> <Gold.Chemscore.Hbond>
2.0000

> <Gold.Chemscore.Metal>
0.0000

> <Gold.Chemscore.Lipo>
69.2789

> <Gold.Chemscore.Internal_Hbond>
0.0000

> <Gold.Chemscore.DEClash>
0.0170

> <Gold.Chemscore.DEInternal>
0.0306

> <Gold.Chemscore.Rot>
1.8262

> <Gold.Chemscore.Internal.Correction>
   9.000000E+99

> <Gold.Chemscore.Hbonds>
donor molecule, donor type, donor heavy atom, donor atom, acceptor molecule, acceptor atom, score
      L1  H    16    27       P1  8028  0.99
      P1  H  6896  6907       L1     8  0.93

> <Gold.Chemscore.Hbond.Weighted>
-6.6799

> <Gold.Chemscore.Metal.Weighted>
-0.0000

> <Gold.Chemscore.Lipo.Weighted>
-8.1056

> <Gold.Chemscore.Internal_Hbond.Weighted>
0.0000

> <Gold.Chemscore.DEClash.Weighted>
0.0170

> <Gold.Chemscore.DEInternal.Weighted>
0.0306

> <Gold.Chemscore.Rot.Weighted>
4.6750

> <Gold.Chemscore.Internal.Correction.Weighted>
   9.000000E+99

> <Gold.Protein.RotatedTorsions>
[ 6907 6896 6895 6894 ] final   51.34 input  -60.11 | X-H torsion
[ 7974 7965 7964 7962 ] final   35.52 input  175.53 | X-H torsion
[ 8008 7997 7996 7995 ] final -158.74 input   59.86 | X-H torsion
[ 10167 10162 10161 10158 ] final  138.01 input  -65.29 | X-H torsion
[ 10718 10713 10712 10709 ] final -165.72 input   66.30 | X-H torsion
[ 10763 10752 10751 10750 ] final -166.49 input  -60.55 | X-H torsion
[ 11005 11000 10999 10996 ] final  -16.31 input  -57.11 | X-H torsion

> <Gold.Protein.ActiveResidues>
 VAL166  LYS551  ARG553  GLY616  TRP617  ASP618  TYR619  PRO620  LYS621  CYS622 
 ASP623  PHE694  ASN695  SER759  ASP760  ASP761  ALA762  ILE779  LEU786  VAL792 
 PHE793  MET794  SER795  GLU796  ALA797  LYS798  CYS799  TRP800  GLU811  SER814 

> <Gold.Protein.RotatedAtoms>
  152.3115  134.7491  160.0334 H   0  0  0  0  0  0  0  0  0  0  0  0  # atno 6907 bound_to 6896
  151.7970  133.3360  159.3524 H   0  0  0  0  0  0  0  0  0  0  0  0  # atno 6908 bound_to 6896
  150.7323  134.5720  159.5939 H   0  0  0  0  0  0  0  0  0  0  0  0  # atno 6909 bound_to 6896
  146.1277  139.6132  142.9247 H   0  0  0  0  0  0  0  0  0  0  0  0  # atno 7974 bound_to 7965
  155.7521  140.0828  157.2196 H   0  0  0  0  0  0  0  0  0  0  0  0  # atno 8008 bound_to 7997
  154.4011  140.1558  156.2791 H   0  0  0  0  0  0  0  0  0  0  0  0  # atno 8009 bound_to 7997
  155.8921  140.3414  155.5966 H   0  0  0  0  0  0  0  0  0  0  0  0  # atno 8010 bound_to 7997
  139.5125  144.6378  151.5651 H   0  0  0  0  0  0  0  0  0  0  0  0  # atno 10167 bound_to 10162
  156.6574  130.9032  151.3023 H   0  0  0  0  0  0  0  0  0  0  0  0  # atno 10718 bound_to 10713
  154.6828  135.2957  154.9589 H   0  0  0  0  0  0  0  0  0  0  0  0  # atno 10763 bound_to 10752
  154.0579  135.6635  153.4812 H   0  0  0  0  0  0  0  0  0  0  0  0  # atno 10764 bound_to 10752
  153.0558  135.5145  154.7879 H   0  0  0  0  0  0  0  0  0  0  0  0  # atno 10765 bound_to 10752
  140.8055  133.8181  155.9511 H   0  0  0  0  0  0  0  0  0  0  0  0  # atno 11005 bound_to 11000
  145.5329  141.0426  143.2373 LP  0  0  0  0  0  0  0  0  0  0  0  0  # atno 17320 bound_to 7965
  144.7659  139.6847  143.7215 LP  0  0  0  0  0  0  0  0  0  0  0  0  # atno 17321 bound_to 7965
  140.6133  143.9396  150.6469 LP  0  0  0  0  0  0  0  0  0  0  0  0  # atno 17342 bound_to 10162
  140.2646  143.3500  152.1293 LP  0  0  0  0  0  0  0  0  0  0  0  0  # atno 17343 bound_to 10162
  157.7121  130.9452  150.1125 LP  0  0  0  0  0  0  0  0  0  0  0  0  # atno 17370 bound_to 10713
  156.2037  130.3662  149.8756 LP  0  0  0  0  0  0  0  0  0  0  0  0  # atno 17371 bound_to 10713
  140.9251  134.2092  157.4901 LP  0  0  0  0  0  0  0  0  0  0  0  0  # atno 17394 bound_to 11000
  139.8718  134.9809  156.5095 LP  0  0  0  0  0  0  0  0  0  0  0  0  # atno 17395 bound_to 11000

$$$$
