AV-unprocessed.smi:1839|AV-procd|sdf|7487|dock1
  -GOLD-   22720 9183D 1   1.00000     0.00000
 Structure written by MMmdl.
 47 48  0  0  0  0  0  0  0  0  2 V2000
  152.3607  141.8007  159.1542 C   0  0  0  0  0  0  0  0  0  0  0  0
  151.8596  140.8978  158.1177 N   0  0  0  0  0  0  0  0  0  0  0  0
  152.0497  139.4737  158.4192 C   0  0  0  0  0  0  0  0  0  0  0  0
  151.0362  141.3624  157.1449 C   0  0  0  0  0  0  0  0  0  0  0  0
  150.3992  142.4097  157.2737 O   0  0  0  0  0  0  0  0  0  0  0  0
  150.9248  140.5893  156.0386 N   0  0  0  0  0  0  0  0  0  0  0  0
  152.0698  139.8911  155.4362 C   0  0  0  0  0  0  0  0  0  0  0  0
  151.6380  138.4843  154.9874 C   0  0  0  0  0  0  0  0  0  0  0  0
  150.4373  138.5601  154.0287 C   0  0  0  0  0  0  0  0  0  0  0  0
  149.2952  139.4138  154.6233 C   0  0  2  0  0  0  0  0  0  0  0  0
  148.1462  139.5843  153.6214 C   0  0  0  0  0  0  0  0  0  0  0  0
  147.6333  140.6898  153.4447 O   0  0  0  0  0  0  0  0  0  0  0  0
  147.7444  138.4780  152.9764 N   0  0  0  0  0  0  0  0  0  0  0  0
  146.6604  138.4263  152.0031 C   0  0  0  0  0  0  0  0  0  0  0  0
  145.3924  137.7907  152.5990 C   0  0  0  0  0  0  0  0  0  0  0  0
  145.1443  136.3955  152.0609 C   0  0  0  0  0  0  0  0  0  0  0  0
  143.8443  135.8589  151.9407 C   0  0  0  0  0  0  0  0  0  0  0  0
  143.6816  134.5572  151.4219 C   0  0  0  0  0  0  0  0  0  0  0  0
  144.8207  133.8213  151.0342 C   0  0  0  0  0  0  0  0  0  0  0  0
  146.0955  134.4070  151.1746 C   0  0  0  0  0  0  0  0  0  0  0  0
  146.2100  135.6570  151.6752 N   0  3  0  0  0  0  0  0  0  0  0  0
  149.8357  140.7886  155.0757 C   0  0  0  0  0  0  0  0  0  0  0  0
  152.6292  142.7750  158.7419 H   0  0  0  0  0  0  0  0  0  0  0  0
  153.2554  141.3968  159.6298 H   0  0  0  0  0  0  0  0  0  0  0  0
  151.6041  141.9520  159.9252 H   0  0  0  0  0  0  0  0  0  0  0  0
  151.2126  138.8632  158.0771 H   0  0  0  0  0  0  0  0  0  0  0  0
  152.1364  139.3067  159.4937 H   0  0  0  0  0  0  0  0  0  0  0  0
  152.9619  139.1011  157.9536 H   0  0  0  0  0  0  0  0  0  0  0  0
  152.4206  140.4634  154.5761 H   0  0  0  0  0  0  0  0  0  0  0  0
  152.9233  139.8237  156.1114 H   0  0  0  0  0  0  0  0  0  0  0  0
  152.4703  137.9737  154.5025 H   0  0  0  0  0  0  0  0  0  0  0  0
  151.3729  137.8844  155.8585 H   0  0  0  0  0  0  0  0  0  0  0  0
  150.7712  138.9897  153.0828 H   0  0  0  0  0  0  0  0  0  0  0  0
  150.0817  137.5542  153.8024 H   0  0  0  0  0  0  0  0  0  0  0  0
  148.9107  138.8956  155.5042 H   0  0  0  0  0  0  0  0  0  0  0  0
  148.2218  137.6113  153.1783 H   0  0  0  0  0  0  0  0  0  0  0  0
  146.4473  139.4304  151.6320 H   0  0  0  0  0  0  0  0  0  0  0  0
  147.0031  137.8450  151.1465 H   0  0  0  0  0  0  0  0  0  0  0  0
  145.4730  137.7430  153.6860 H   0  0  0  0  0  0  0  0  0  0  0  0
  144.5200  138.4093  152.3842 H   0  0  0  0  0  0  0  0  0  0  0  0
  142.9818  136.4372  152.2392 H   0  0  0  0  0  0  0  0  0  0  0  0
  142.6948  134.1292  151.3217 H   0  0  0  0  0  0  0  0  0  0  0  0
  144.7178  132.8229  150.6343 H   0  0  0  0  0  0  0  0  0  0  0  0
  147.0195  133.9177  150.9033 H   0  0  0  0  0  0  0  0  0  0  0  0
  149.0195  141.3670  155.5140 H   0  0  0  0  0  0  0  0  0  0  0  0
  150.2049  141.3664  154.2264 H   0  0  0  0  0  0  0  0  0  0  0  0
  147.1420  136.0620  151.7676 H   0  0  0  0  0  0  0  0  0  0  0  0
  1  2  1  0  0  0  0
  1 23  1  0  0  0  0
  1 24  1  0  0  0  0
  1 25  1  0  0  0  0
  2  3  1  0  0  0  0
  2  4  1  0  0  0  0
  3 26  1  0  0  0  0
  3 27  1  0  0  0  0
  3 28  1  0  0  0  0
  4  5  2  0  0  0  0
  4  6  1  0  0  0  0
  6 22  1  0  0  0  0
  6  7  1  0  0  0  0
  7  8  1  0  0  0  0
  7 29  1  0  0  0  0
  7 30  1  0  0  0  0
  8  9  1  0  0  0  0
  8 31  1  0  0  0  0
  8 32  1  0  0  0  0
  9 10  1  0  0  0  0
  9 33  1  0  0  0  0
  9 34  1  0  0  0  0
 10 11  1  0  0  0  0
 10 22  1  0  0  0  0
 10 35  1  0  0  0  0
 11 12  2  0  0  0  0
 11 13  1  0  0  0  0
 13 14  1  0  0  0  0
 13 36  1  0  0  0  0
 14 15  1  0  0  0  0
 14 37  1  0  0  0  0
 14 38  1  0  0  0  0
 15 16  1  0  0  0  0
 15 39  1  0  0  0  0
 15 40  1  0  0  0  0
 16 21  1  0  0  0  0
 16 17  2  0  0  0  0
 17 18  1  0  0  0  0
 17 41  1  0  0  0  0
 18 19  2  0  0  0  0
 18 42  1  0  0  0  0
 19 20  1  0  0  0  0
 19 43  1  0  0  0  0
 20 21  2  0  0  0  0
 20 44  1  0  0  0  0
 21 47  1  0  0  0  0
 22 45  1  0  0  0  0
 22 46  1  0  0  0  0
M  CHG  1  21   1
M  END
> <s_m_source_file>
AV-unprocessed.smi

> <i_m_source_file_index>
1839

> <i_lp_mmshare_version>
43012

> <i_f3d_flags>
0

> <s_epik_input>
W0NIM11OKFtDSDNdKUMoPU8pTjFbQ0gyXVtDSDJdW0NIMl1bQ0BIXShbQ0gyXTEpQyg9TylbTkhdW0NIMl1bQ0gyXWMyW2NIXVtjSF1bY0hdW2NIXW4y

> <s_epik_cmdline>
J2VwaWtfcHl0aG9uJywgJy1waCcsICc3LjAnLCAnLXRuJywgJzgnLCAnLW1hJywgJzIwMCcsICctbWV0YWxfYmluZGluZycsICctaW1hZScsICc8aW5maWxlLm1hZT4nLCAnLW9tYWUnLCAnPG91dGZpbGUubWFlPic=

> <r_epik_Ionization_Penalty>
1.8476

> <r_epik_Ionization_Penalty_Charging>
1.84754

> <r_epik_Ionization_Penalty_Neutral>
5.83857e-05

> <r_epik_State_Penalty>
1.96477

> <r_epik_Charging_Adjusted_Penalty>
3.81231

> <i_epik_Tot_Q>
1

> <i_epik_Tot_abs_Q>
1

> <r_epik_Metal_State_Penalty>
1.99061

> <b_epik_Metal_Only>
0

> <s_lp_Force_Field>
OPLS_2005

> <r_lp_Energy>
52.6854

> <b_lp_Chiralities_Consistent>
1

> <s_lp_Variant>
AV-unprocessed.smi:1839-4

> <Gold.Version>
5.8.1

> <Gold.Id.Protein>
6NUR|6NUR_protein|mol2

> <Gold.PLP.Fitness>
47.8045

> <Gold.PLP.PLP>
-42.0552

> <Gold.PLP.part.hbond>
-3.0000

> <Gold.PLP.part.metal>
0.0000

> <Gold.PLP.part.buried>
-1.6604

> <Gold.PLP.part.nonpolar>
-38.7551

> <Gold.PLP.part.repulsive>
0.4113

> <Gold.PLP.ligand.clash>
0.0000

> <Gold.PLP.ligand.torsion>
1.7662

> <Gold.PLP.Chemscore.Hbond>
2.6080

> <Gold.PLP.Chemscore.CHOScore>
0.0000

> <Gold.PLP.Chemscore.Metal>
0.0000

> <Gold.Chemscore.Hbonds>
donor molecule, donor type, donor heavy atom, donor atom, acceptor molecule, acceptor atom, score
      L1  H    13    36       P1  7948  0.56
      L1  H    21    47       P1  7948  2.00

> <Gold.PLP.Chemscore.Internal.Correction>
1.4578

> <Gold.Rescore>
     Score         DG    S(hbond)    S(metal)    S(lipo)     H(rot)  DE(clash)    DE(int)     intcor
     14.72     -17.71       1.75        0.00      89.78       1.60       0.16       2.83       ----

> <Gold.Chemscore.Fitness>
14.7199

> <Gold.Chemscore.DG>
-17.7055

> <Gold.Chemscore.ZeroCoef>
-5.4800

> <Gold.Chemscore.Hbond>
1.7453

> <Gold.Chemscore.Metal>
0.0000

> <Gold.Chemscore.Lipo>
89.7845

> <Gold.Chemscore.Internal_Hbond>
0.0000

> <Gold.Chemscore.DEClash>
0.1595

> <Gold.Chemscore.DEInternal>
2.8261

> <Gold.Chemscore.Rot>
1.6049

> <Gold.Chemscore.Internal.Correction>
   9.000000E+99

> <Gold.Chemscore.Hbonds>
donor molecule, donor type, donor heavy atom, donor atom, acceptor molecule, acceptor atom, score
      L1  H    13    36       P1  7948  0.52
      L1  H    21    47       P1  7948  1.00

> <Gold.Chemscore.Hbond.Weighted>
-5.8293

> <Gold.Chemscore.Metal.Weighted>
-0.0000

> <Gold.Chemscore.Lipo.Weighted>
-10.5048

> <Gold.Chemscore.Internal_Hbond.Weighted>
0.0000

> <Gold.Chemscore.DEClash.Weighted>
0.1595

> <Gold.Chemscore.DEInternal.Weighted>
2.8261

> <Gold.Chemscore.Rot.Weighted>
4.1087

> <Gold.Chemscore.Internal.Correction.Weighted>
   9.000000E+99

> <Gold.Protein.RotatedTorsions>
[ 6907 6896 6895 6894 ] final  146.19 input  -60.11 | X-H torsion
[ 7974 7965 7964 7962 ] final   77.41 input  175.53 | X-H torsion
[ 8008 7997 7996 7995 ] final  -76.08 input   59.86 | X-H torsion
[ 10167 10162 10161 10158 ] final  -12.53 input  -65.29 | X-H torsion
[ 10718 10713 10712 10709 ] final   50.11 input   66.30 | X-H torsion
[ 10763 10752 10751 10750 ] final  -58.62 input  -60.55 | X-H torsion
[ 11005 11000 10999 10996 ] final  165.88 input  -57.11 | X-H torsion

> <Gold.Protein.ActiveResidues>
 VAL166  LYS551  ARG553  GLY616  TRP617  ASP618  TYR619  PRO620  LYS621  CYS622 
 ASP623  PHE694  ASN695  SER759  ASP760  ASP761  ALA762  ILE779  LEU786  VAL792 
 PHE793  MET794  SER795  GLU796  ALA797  LYS798  CYS799  TRP800  GLU811  SER814 

> <Gold.Protein.RotatedAtoms>
  152.1711  133.4644  159.4909 H   0  0  0  0  0  0  0  0  0  0  0  0  # atno 6907 bound_to 6896
  150.6920  134.1951  159.4309 H   0  0  0  0  0  0  0  0  0  0  0  0  # atno 6908 bound_to 6896
  151.9858  135.0004  160.0610 H   0  0  0  0  0  0  0  0  0  0  0  0  # atno 6909 bound_to 6896
  145.6904  139.2550  143.1763 H   0  0  0  0  0  0  0  0  0  0  0  0  # atno 7974 bound_to 7965
  154.5474  140.0733  156.8611 H   0  0  0  0  0  0  0  0  0  0  0  0  # atno 8008 bound_to 7997
  155.3061  140.3387  155.4227 H   0  0  0  0  0  0  0  0  0  0  0  0  # atno 8009 bound_to 7997
  156.1930  140.1693  156.8040 H   0  0  0  0  0  0  0  0  0  0  0  0  # atno 8010 bound_to 7997
  140.7163  143.5522  150.9288 H   0  0  0  0  0  0  0  0  0  0  0  0  # atno 10167 bound_to 10162
  157.4853  130.8341  149.8140 H   0  0  0  0  0  0  0  0  0  0  0  0  # atno 10718 bound_to 10713
  154.2409  135.6343  153.5207 H   0  0  0  0  0  0  0  0  0  0  0  0  # atno 10763 bound_to 10752
  152.9930  135.5542  154.5911 H   0  0  0  0  0  0  0  0  0  0  0  0  # atno 10764 bound_to 10752
  154.5416  135.2895  155.1064 H   0  0  0  0  0  0  0  0  0  0  0  0  # atno 10765 bound_to 10752
  140.2607  134.7905  157.3587 H   0  0  0  0  0  0  0  0  0  0  0  0  # atno 11005 bound_to 11000
  146.0887  140.7681  142.9606 LP  0  0  0  0  0  0  0  0  0  0  0  0  # atno 17320 bound_to 7965
  144.6998  140.3603  143.7165 LP  0  0  0  0  0  0  0  0  0  0  0  0  # atno 17321 bound_to 7965
  139.9246  143.6565  152.3089 LP  0  0  0  0  0  0  0  0  0  0  0  0  # atno 17342 bound_to 10162
  139.6994  144.7637  151.1300 LP  0  0  0  0  0  0  0  0  0  0  0  0  # atno 17343 bound_to 10162
  156.0143  130.3820  150.2161 LP  0  0  0  0  0  0  0  0  0  0  0  0  # atno 17370 bound_to 10713
  157.0348  131.0018  151.3301 LP  0  0  0  0  0  0  0  0  0  0  0  0  # atno 17371 bound_to 10713
  140.1468  134.4901  155.7990 LP  0  0  0  0  0  0  0  0  0  0  0  0  # atno 17394 bound_to 11000
  141.2190  133.6846  156.7308 LP  0  0  0  0  0  0  0  0  0  0  0  0  # atno 17395 bound_to 11000

$$$$
