AV-unprocessed.smi:259|AV-procd|sdf|1973|dock8
  -GOLD-   2262021143D 1   1.00000     0.00000
 Structure written by MMmdl.
 54 57  0  0  0  0  0  0  0  0  1 V2000
  149.8898  130.4997  153.0693 C   0  0  0  0  0  0  0  0  0  0  0  0
  148.6535  130.6599  152.3195 N   0  0  0  0  0  0  0  0  0  0  0  0
  147.5472  131.2419  152.8046 C   0  0  0  0  0  0  0  0  0  0  0  0
  147.4774  131.6976  153.9459 O   0  0  0  0  0  0  0  0  0  0  0  0
  146.3368  131.3016  151.8585 C   0  0  0  0  0  0  0  0  0  0  0  0
  146.0328  132.6858  151.2214 C   0  0  1  0  0  0  0  0  0  0  0  0
  146.9998  132.9280  150.2143 O   0  0  0  0  0  0  0  0  0  0  0  0
  144.6055  132.7605  150.6174 C   0  0  0  0  0  0  0  0  0  0  0  0
  144.2244  134.1867  150.1873 C   0  0  0  0  0  0  0  0  0  0  0  0
  144.4279  135.1791  151.3389 C   0  0  0  0  0  0  0  0  0  0  0  0
  145.7971  135.0989  151.8289 N   0  0  0  0  0  0  0  0  0  0  0  0
  146.1373  136.1250  152.6356 C   0  0  0  0  0  0  0  0  0  0  0  0
  146.0773  135.9055  153.9717 N   0  0  0  0  0  0  0  0  0  0  0  0
  146.3999  136.8834  154.8236 C   0  0  0  0  0  0  0  0  0  0  0  0
  146.8041  138.1266  154.5536 N   0  0  0  0  0  0  0  0  0  0  0  0
  146.8757  138.3448  153.2088 C   0  0  0  0  0  0  0  0  0  0  0  0
  146.5647  137.4060  152.1857 C   0  0  0  0  0  0  0  0  0  0  0  0
  146.7644  137.9829  150.9374 N   0  0  0  0  0  0  0  0  0  0  0  0
  147.1639  139.1958  151.2071 C   0  0  0  0  0  0  0  0  0  0  0  0
  147.2671  139.4958  152.5469 N   0  0  0  0  0  0  0  0  0  0  0  0
  147.6865  140.7617  153.1287 C   0  0  0  0  0  0  0  0  0  0  0  0
  149.2042  140.8648  153.3690 C   0  0  0  0  0  0  0  0  0  0  0  0
  149.4439  141.4739  154.7658 C   0  0  0  0  0  0  0  0  0  0  0  0
  148.9919  142.8102  154.8589 O   0  0  0  0  0  0  0  0  0  0  0  0
  150.0289  139.6155  153.0268 C   0  0  0  0  0  0  0  0  0  0  0  0
  150.8934  140.3556  152.1368 O   0  0  0  0  0  0  0  0  0  0  0  0
  149.9980  141.4870  152.2114 C   0  0  0  0  0  0  0  0  0  0  0  0
  146.2288  133.7826  152.2955 C   0  0  0  0  0  0  0  0  0  0  0  0
  150.6473  130.0316  152.4409 H   0  0  0  0  0  0  0  0  0  0  0  0
  149.7334  129.8671  153.9441 H   0  0  0  0  0  0  0  0  0  0  0  0
  150.2718  131.4659  153.4014 H   0  0  0  0  0  0  0  0  0  0  0  0
  148.6359  130.3030  151.3750 H   0  0  0  0  0  0  0  0  0  0  0  0
  146.4937  130.5751  151.0594 H   0  0  0  0  0  0  0  0  0  0  0  0
  145.4642  130.9479  152.4096 H   0  0  0  0  0  0  0  0  0  0  0  0
  147.6664  132.2605  150.2734 H   0  0  0  0  0  0  0  0  0  0  0  0
  144.5071  132.0892  149.7636 H   0  0  0  0  0  0  0  0  0  0  0  0
  143.8843  132.4169  151.3602 H   0  0  0  0  0  0  0  0  0  0  0  0
  144.8320  134.4889  149.3333 H   0  0  0  0  0  0  0  0  0  0  0  0
  143.1872  134.2117  149.8523 H   0  0  0  0  0  0  0  0  0  0  0  0
  144.2095  136.1924  150.9980 H   0  0  0  0  0  0  0  0  0  0  0  0
  143.7368  134.9579  152.1534 H   0  0  0  0  0  0  0  0  0  0  0  0
  146.3229  136.6340  155.8716 H   0  0  0  0  0  0  0  0  0  0  0  0
  147.3967  139.9080  150.4290 H   0  0  0  0  0  0  0  0  0  0  0  0
  147.3506  141.5567  152.4616 H   0  0  0  0  0  0  0  0  0  0  0  0
  147.1411  140.9121  154.0612 H   0  0  0  0  0  0  0  0  0  0  0  0
  148.9364  140.8913  155.5353 H   0  0  0  0  0  0  0  0  0  0  0  0
  150.5042  141.4774  155.0182 H   0  0  0  0  0  0  0  0  0  0  0  0
  149.3475  143.2993  154.1326 H   0  0  0  0  0  0  0  0  0  0  0  0
  150.5657  139.1870  153.8740 H   0  0  0  0  0  0  0  0  0  0  0  0
  149.4718  138.8455  152.4922 H   0  0  0  0  0  0  0  0  0  0  0  0
  149.4216  141.6058  151.2925 H   0  0  0  0  0  0  0  0  0  0  0  0
  150.5125  142.4149  152.4635 H   0  0  0  0  0  0  0  0  0  0  0  0
  145.6453  133.5197  153.1780 H   0  0  0  0  0  0  0  0  0  0  0  0
  147.2728  133.8248  152.6114 H   0  0  0  0  0  0  0  0  0  0  0  0
  1  2  1  0  0  0  0
  1 29  1  0  0  0  0
  1 30  1  0  0  0  0
  1 31  1  0  0  0  0
  2  3  1  0  0  0  0
  2 32  1  0  0  0  0
  3  4  2  0  0  0  0
  3  5  1  0  0  0  0
  5  6  1  0  0  0  0
  5 33  1  0  0  0  0
  5 34  1  0  0  0  0
  6 28  1  0  0  0  0
  6  7  1  0  0  0  0
  6  8  1  0  0  0  0
  7 35  1  0  0  0  0
  8  9  1  0  0  0  0
  8 36  1  0  0  0  0
  8 37  1  0  0  0  0
  9 10  1  0  0  0  0
  9 38  1  0  0  0  0
  9 39  1  0  0  0  0
 10 11  1  0  0  0  0
 10 40  1  0  0  0  0
 10 41  1  0  0  0  0
 11 12  1  0  0  0  0
 11 28  1  0  0  0  0
 12 17  1  0  0  0  0
 12 13  2  0  0  0  0
 13 14  1  0  0  0  0
 14 15  2  0  0  0  0
 14 42  1  0  0  0  0
 15 16  1  0  0  0  0
 16 20  1  0  0  0  0
 16 17  2  0  0  0  0
 17 18  1  0  0  0  0
 18 19  2  0  0  0  0
 19 20  1  0  0  0  0
 19 43  1  0  0  0  0
 20 21  1  0  0  0  0
 21 22  1  0  0  0  0
 21 44  1  0  0  0  0
 21 45  1  0  0  0  0
 22 27  1  0  0  0  0
 22 23  1  0  0  0  0
 22 25  1  0  0  0  0
 23 24  1  0  0  0  0
 23 46  1  0  0  0  0
 23 47  1  0  0  0  0
 24 48  1  0  0  0  0
 25 26  1  0  0  0  0
 25 49  1  0  0  0  0
 25 50  1  0  0  0  0
 26 27  1  0  0  0  0
 27 51  1  0  0  0  0
 27 52  1  0  0  0  0
 28 53  1  0  0  0  0
 28 54  1  0  0  0  0
M  END
> <s_m_source_file>
AV-unprocessed.smi

> <i_m_source_file_index>
259

> <i_lp_mmshare_version>
43012

> <i_f3d_flags>
0

> <s_epik_input>
W0NIM11bTkhdQyg9TylbQ0gyXVtDQEBdMShbT0hdKVtDSDJdW0NIMl1bQ0gyXU4oW0NIMl0xKWMobltjSF1uMiljKGMyMyluW2NIXW4zW0NIMl1DNChbQ0gyXVtPSF0pW0NIMl1PW0NIMl00

> <s_epik_cmdline>
J2VwaWtfcHl0aG9uJywgJy1waCcsICc3LjAnLCAnLXRuJywgJzgnLCAnLW1hJywgJzIwMCcsICctbWV0YWxfYmluZGluZycsICctaW1hZScsICc8aW5maWxlLm1hZT4nLCAnLW9tYWUnLCAnPG91dGZpbGUubWFlPic=

> <r_lp_tautomer_probability>
1

> <r_epik_Ionization_Penalty>
0.00366363

> <r_epik_Ionization_Penalty_Charging>
0

> <r_epik_Ionization_Penalty_Neutral>
0.00366363

> <r_epik_State_Penalty>
0.00243014

> <r_epik_Charging_Adjusted_Penalty>
0.00243014

> <i_epik_Tot_Q>
0

> <i_epik_Tot_abs_Q>
0

> <r_epik_Metal_State_Penalty>
-0

> <b_epik_Metal_Only>
0

> <s_lp_Force_Field>
OPLS_2005

> <r_lp_Energy>
40.2539

> <b_lp_Chiralities_Consistent>
1

> <s_lp_Variant>
AV-unprocessed.smi:259-1

> <Gold.Version>
5.8.1

> <Gold.Id.Protein>
6NUR|6NUR_protein|mol2

> <Gold.PLP.Fitness>
44.3699

> <Gold.PLP.PLP>
-34.0277

> <Gold.PLP.part.hbond>
-4.0000

> <Gold.PLP.part.metal>
0.0000

> <Gold.PLP.part.buried>
-4.2983

> <Gold.PLP.part.nonpolar>
-26.4204

> <Gold.PLP.part.repulsive>
1.8216

> <Gold.PLP.ligand.clash>
0.0000

> <Gold.PLP.ligand.torsion>
2.3920

> <Gold.PLP.Chemscore.Hbond>
3.9840

> <Gold.PLP.Chemscore.CHOScore>
0.8435

> <Gold.PLP.Chemscore.Metal>
0.0000

> <Gold.Chemscore.Hbonds>
donor molecule, donor type, donor heavy atom, donor atom, acceptor molecule, acceptor atom, score
      L1  H     2    32       P1 10747  0.17
      L1  H     7    35       P1 10747  1.00
      P1  H  7954  7966       L1    18  0.35
      L1  C    19    43       P1  7957  0.24

> <Gold.PLP.Chemscore.Internal.Correction>
0.6436

> <Gold.Rescore>
     Score         DG    S(hbond)    S(metal)    S(lipo)     H(rot)  DE(clash)    DE(int)     intcor
      8.15     -12.49       2.68        0.00      72.80       4.09       0.54       3.80       ----

> <Gold.Chemscore.Fitness>
8.1492

> <Gold.Chemscore.DG>
-12.4883

> <Gold.Chemscore.ZeroCoef>
-5.4800

> <Gold.Chemscore.Hbond>
2.6836

> <Gold.Chemscore.Metal>
0.0000

> <Gold.Chemscore.Lipo>
72.7967

> <Gold.Chemscore.Internal_Hbond>
0.0000

> <Gold.Chemscore.DEClash>
0.5430

> <Gold.Chemscore.DEInternal>
3.7962

> <Gold.Chemscore.Rot>
4.0906

> <Gold.Chemscore.Internal.Correction>
   9.000000E+99

> <Gold.Chemscore.Hbonds>
donor molecule, donor type, donor heavy atom, donor atom, acceptor molecule, acceptor atom, score
      L1  H     2    32       P1 10747  0.12
      L1  H     7    35       P1 10747  1.00
      P1  H  7954  7966       L1    18  0.01

> <Gold.Chemscore.Hbond.Weighted>
-8.9631

> <Gold.Chemscore.Metal.Weighted>
-0.0000

> <Gold.Chemscore.Lipo.Weighted>
-8.5172

> <Gold.Chemscore.Internal_Hbond.Weighted>
0.0000

> <Gold.Chemscore.DEClash.Weighted>
0.5430

> <Gold.Chemscore.DEInternal.Weighted>
3.7962

> <Gold.Chemscore.Rot.Weighted>
10.4719

> <Gold.Chemscore.Internal.Correction.Weighted>
   9.000000E+99

> <Gold.Protein.RotatedTorsions>
[ 6907 6896 6895 6894 ] final   34.19 input  -60.11 | X-H torsion
[ 7974 7965 7964 7962 ] final  155.71 input  175.53 | X-H torsion
[ 8008 7997 7996 7995 ] final  127.80 input   59.86 | X-H torsion
[ 10167 10162 10161 10158 ] final   30.57 input  -65.29 | X-H torsion
[ 10718 10713 10712 10709 ] final -144.21 input   66.30 | X-H torsion
[ 10763 10752 10751 10750 ] final   69.50 input  -60.55 | X-H torsion
[ 11005 11000 10999 10996 ] final  166.34 input  -57.11 | X-H torsion

> <Gold.Protein.ActiveResidues>
 VAL166  LYS551  ARG553  GLY616  TRP617  ASP618  TYR619  PRO620  LYS621  CYS622 
 ASP623  PHE694  ASN695  SER759  ASP760  ASP761  ALA762  ILE779  LEU786  VAL792 
 PHE793  MET794  SER795  GLU796  ALA797  LYS798  CYS799  TRP800  GLU811  SER814 

> <Gold.Protein.RotatedAtoms>
  152.0990  134.9355  160.0569 H   0  0  0  0  0  0  0  0  0  0  0  0  # atno 6907 bound_to 6896
  152.0577  133.4043  159.4412 H   0  0  0  0  0  0  0  0  0  0  0  0  # atno 6908 bound_to 6896
  150.6839  134.3156  159.4808 H   0  0  0  0  0  0  0  0  0  0  0  0  # atno 6909 bound_to 6896
  144.8008  139.7105  143.6183 H   0  0  0  0  0  0  0  0  0  0  0  0  # atno 7974 bound_to 7965
  156.2900  140.2660  156.2333 H   0  0  0  0  0  0  0  0  0  0  0  0  # atno 8008 bound_to 7997
  155.0051  140.0387  157.2394 H   0  0  0  0  0  0  0  0  0  0  0  0  # atno 8009 bound_to 7997
  154.7567  140.2753  155.6252 H   0  0  0  0  0  0  0  0  0  0  0  0  # atno 8010 bound_to 7997
  140.4666  144.0826  150.6226 H   0  0  0  0  0  0  0  0  0  0  0  0  # atno 10167 bound_to 10162
  156.3673  130.7769  151.1945 H   0  0  0  0  0  0  0  0  0  0  0  0  # atno 10718 bound_to 10713
  153.0290  135.5208  154.7297 H   0  0  0  0  0  0  0  0  0  0  0  0  # atno 10763 bound_to 10752
  154.6328  135.2902  155.0198 H   0  0  0  0  0  0  0  0  0  0  0  0  # atno 10764 bound_to 10752
  154.1144  135.6617  153.4943 H   0  0  0  0  0  0  0  0  0  0  0  0  # atno 10765 bound_to 10752
  140.2654  134.7869  157.3627 H   0  0  0  0  0  0  0  0  0  0  0  0  # atno 11005 bound_to 11000
  146.2289  139.5775  142.9569 LP  0  0  0  0  0  0  0  0  0  0  0  0  # atno 17320 bound_to 7965
  145.5558  141.0409  143.2253 LP  0  0  0  0  0  0  0  0  0  0  0  0  # atno 17321 bound_to 7965
  140.4028  143.2695  151.9926 LP  0  0  0  0  0  0  0  0  0  0  0  0  # atno 17342 bound_to 10162
  139.4813  144.5982  151.7652 LP  0  0  0  0  0  0  0  0  0  0  0  0  # atno 17343 bound_to 10162
  157.7480  131.0382  150.4494 LP  0  0  0  0  0  0  0  0  0  0  0  0  # atno 17370 bound_to 10713
  156.4715  130.4053  149.6515 LP  0  0  0  0  0  0  0  0  0  0  0  0  # atno 17371 bound_to 10713
  140.1424  134.4954  155.8021 LP  0  0  0  0  0  0  0  0  0  0  0  0  # atno 17394 bound_to 11000
  141.2185  133.6830  156.7234 LP  0  0  0  0  0  0  0  0  0  0  0  0  # atno 17395 bound_to 11000

$$$$
