AV-unprocessed.smi:2454|AV-procd|sdf|9695|dock2
  -GOLD-   2272013333D 1   1.00000     0.00000
 Structure written by MMmdl.
 42 43  0  0  0  0  0  0  0  0  1 V2000
  152.6043  142.0255  159.0231 C   0  0  0  0  0  0  0  0  0  0  0  0
  152.1238  140.8965  158.3150 O   0  0  0  0  0  0  0  0  0  0  0  0
  151.5477  141.2414  157.0634 C   0  0  0  0  0  0  0  0  0  0  0  0
  151.6071  140.1125  156.0490 C   0  0  0  0  0  0  0  0  0  0  0  0
  150.4274  139.6186  155.4529 C   0  0  0  0  0  0  0  0  0  0  0  0
  150.5591  138.5618  154.5238 C   0  0  0  0  0  0  0  0  0  0  0  0
  149.3393  138.1076  153.9414 N   0  0  0  0  0  0  0  0  0  0  0  0
  148.0602  138.2155  154.3605 C   0  0  0  0  0  0  0  0  0  0  0  0
  147.7818  138.7804  155.4170 O   0  0  0  0  0  0  0  0  0  0  0  0
  147.1303  137.6678  153.5613 N   0  0  0  0  0  0  0  0  0  0  0  0
  145.6863  137.6801  153.7817 C   0  0  2  0  0  0  0  0  0  0  0  0
  145.3662  137.1830  155.2040 C   0  0  0  0  0  0  0  0  0  0  0  0
  145.6472  135.6797  155.3672 C   0  0  0  0  0  0  0  0  0  0  0  0
  144.8993  134.8532  154.3092 C   0  0  0  0  0  0  0  0  0  0  0  0
  145.2389  135.3150  152.8760 C   0  0  1  0  0  0  0  0  0  0  0  0
  144.5014  134.4791  151.8099 C   0  0  0  0  0  0  0  0  0  0  0  0
  144.7080  134.9757  150.5896 F   0  0  0  0  0  0  0  0  0  0  0  0
  144.9319  133.2178  151.8406 F   0  0  0  0  0  0  0  0  0  0  0  0
  143.1916  134.4764  152.0577 F   0  0  0  0  0  0  0  0  0  0  0  0
  144.9543  136.8270  152.7235 C   0  0  0  0  0  0  0  0  0  0  0  0
  151.7916  138.0700  154.2366 N   0  0  0  0  0  0  0  0  0  0  0  0
  152.8443  138.6079  154.8566 C   0  0  0  0  0  0  0  0  0  0  0  0
  152.8201  139.5995  155.7467 N   0  0  0  0  0  0  0  0  0  0  0  0
  153.0386  141.7062  159.9703 H   0  0  0  0  0  0  0  0  0  0  0  0
  151.7977  142.7263  159.2421 H   0  0  0  0  0  0  0  0  0  0  0  0
  153.3777  142.5466  158.4573 H   0  0  0  0  0  0  0  0  0  0  0  0
  150.5024  141.5210  157.2036 H   0  0  0  0  0  0  0  0  0  0  0  0
  152.0641  142.1076  156.6467 H   0  0  0  0  0  0  0  0  0  0  0  0
  149.4622  140.0357  155.7019 H   0  0  0  0  0  0  0  0  0  0  0  0
  149.4558  137.5808  153.0880 H   0  0  0  0  0  0  0  0  0  0  0  0
  147.4526  137.2217  152.7137 H   0  0  0  0  0  0  0  0  0  0  0  0
  145.3376  138.7112  153.7020 H   0  0  0  0  0  0  0  0  0  0  0  0
  145.9352  137.7518  155.9406 H   0  0  0  0  0  0  0  0  0  0  0  0
  144.3144  137.3738  155.4210 H   0  0  0  0  0  0  0  0  0  0  0  0
  146.7188  135.4916  155.2889 H   0  0  0  0  0  0  0  0  0  0  0  0
  145.3523  135.3556  156.3656 H   0  0  0  0  0  0  0  0  0  0  0  0
  145.1498  133.7994  154.4329 H   0  0  0  0  0  0  0  0  0  0  0  0
  143.8251  134.9360  154.4790 H   0  0  0  0  0  0  0  0  0  0  0  0
  146.3079  135.1578  152.7232 H   0  0  0  0  0  0  0  0  0  0  0  0
  143.8813  137.0010  152.8128 H   0  0  0  0  0  0  0  0  0  0  0  0
  145.2282  137.1632  151.7227 H   0  0  0  0  0  0  0  0  0  0  0  0
  153.8128  138.1979  154.6113 H   0  0  0  0  0  0  0  0  0  0  0  0
  1  2  1  0  0  0  0
  1 24  1  0  0  0  0
  1 25  1  0  0  0  0
  1 26  1  0  0  0  0
  2  3  1  0  0  0  0
  3  4  1  0  0  0  0
  3 27  1  0  0  0  0
  3 28  1  0  0  0  0
  4 23  1  0  0  0  0
  4  5  2  0  0  0  0
  5  6  1  0  0  0  0
  5 29  1  0  0  0  0
  6  7  1  0  0  0  0
  6 21  2  0  0  0  0
  7  8  1  0  0  0  0
  7 30  1  0  0  0  0
  8  9  2  0  0  0  0
  8 10  1  0  0  0  0
 10 11  1  0  0  0  0
 10 31  1  0  0  0  0
 11 20  1  0  0  0  0
 11 12  1  0  0  0  0
 11 32  1  0  0  0  0
 12 13  1  0  0  0  0
 12 33  1  0  0  0  0
 12 34  1  0  0  0  0
 13 14  1  0  0  0  0
 13 35  1  0  0  0  0
 13 36  1  0  0  0  0
 14 15  1  0  0  0  0
 14 37  1  0  0  0  0
 14 38  1  0  0  0  0
 15 16  1  0  0  0  0
 15 20  1  0  0  0  0
 15 39  1  0  0  0  0
 16 17  1  0  0  0  0
 16 18  1  0  0  0  0
 16 19  1  0  0  0  0
 20 40  1  0  0  0  0
 20 41  1  0  0  0  0
 21 22  1  0  0  0  0
 22 23  2  0  0  0  0
 22 42  1  0  0  0  0
M  END
> <s_m_source_file>
AV-unprocessed.smi

> <i_m_source_file_index>
2454

> <i_lp_mmshare_version>
43012

> <i_f3d_flags>
0

> <s_epik_input>
W0NIM11PW0NIMl1jMVtjSF1jKG5bY0hdbjEpW05IXUMoPU8pW05IXVtDQEBIXTJbQ0gyXVtDSDJdW0NIMl1bQ0BASF0oQyhGKShGKUYpW0NIMl0y

> <s_epik_cmdline>
J2VwaWtfcHl0aG9uJywgJy1waCcsICc3LjAnLCAnLXRuJywgJzgnLCAnLW1hJywgJzIwMCcsICctbWV0YWxfYmluZGluZycsICctaW1hZScsICc8aW5maWxlLm1hZT4nLCAnLW9tYWUnLCAnPG91dGZpbGUubWFlPic=

> <r_lp_tautomer_probability>
1

> <r_epik_Ionization_Penalty>
3.01554e-05

> <r_epik_Ionization_Penalty_Charging>
0

> <r_epik_Ionization_Penalty_Neutral>
3.01554e-05

> <r_epik_State_Penalty>
-0

> <r_epik_Charging_Adjusted_Penalty>
0

> <i_epik_Tot_Q>
0

> <i_epik_Tot_abs_Q>
0

> <r_epik_Metal_State_Penalty>
-0

> <b_epik_Metal_Only>
0

> <s_lp_Force_Field>
OPLS_2005

> <r_lp_Energy>
13.8487

> <b_lp_Chiralities_Consistent>
1

> <s_lp_Variant>
AV-unprocessed.smi:2454-1

> <Gold.Version>
5.8.1

> <Gold.Id.Protein>
6NUR|6NUR_protein|mol2

> <Gold.PLP.Fitness>
39.8436

> <Gold.PLP.PLP>
-31.8911

> <Gold.PLP.part.hbond>
-3.0000

> <Gold.PLP.part.metal>
0.0000

> <Gold.PLP.part.buried>
-5.1911

> <Gold.PLP.part.nonpolar>
-23.9526

> <Gold.PLP.part.repulsive>
0.2510

> <Gold.PLP.ligand.clash>
0.0000

> <Gold.PLP.ligand.torsion>
0.4159

> <Gold.PLP.Chemscore.Hbond>
2.9120

> <Gold.PLP.Chemscore.CHOScore>
0.0000

> <Gold.PLP.Chemscore.Metal>
0.0000

> <Gold.Chemscore.Hbonds>
donor molecule, donor type, donor heavy atom, donor atom, acceptor molecule, acceptor atom, score
      L1  H     7    30       P1  7948  1.00
      L1  H    10    31       P1  7948  0.91
      P1  H  7997  8009       L1    23  1.00

> <Gold.PLP.Chemscore.Internal.Correction>
0.0484

> <Gold.Rescore>
     Score         DG    S(hbond)    S(metal)    S(lipo)     H(rot)  DE(clash)    DE(int)     intcor
     12.82     -15.77       2.77        0.00      43.85       1.60       0.00       2.95       ----

> <Gold.Chemscore.Fitness>
12.8238

> <Gold.Chemscore.DG>
-15.7696

> <Gold.Chemscore.ZeroCoef>
-5.4800

> <Gold.Chemscore.Hbond>
2.7736

> <Gold.Chemscore.Metal>
0.0000

> <Gold.Chemscore.Lipo>
43.8538

> <Gold.Chemscore.Internal_Hbond>
0.0000

> <Gold.Chemscore.DEClash>
0.0000

> <Gold.Chemscore.DEInternal>
2.9458

> <Gold.Chemscore.Rot>
1.6035

> <Gold.Chemscore.Internal.Correction>
   9.000000E+99

> <Gold.Chemscore.Hbonds>
donor molecule, donor type, donor heavy atom, donor atom, acceptor molecule, acceptor atom, score
      L1  H     7    30       P1  7948  0.89
      L1  H    10    31       P1  7948  0.87
      P1  H  7997  8009       L1    23  0.88

> <Gold.Chemscore.Hbond.Weighted>
-9.2637

> <Gold.Chemscore.Metal.Weighted>
-0.0000

> <Gold.Chemscore.Lipo.Weighted>
-5.1309

> <Gold.Chemscore.Internal_Hbond.Weighted>
0.0000

> <Gold.Chemscore.DEClash.Weighted>
0.0000

> <Gold.Chemscore.DEInternal.Weighted>
2.9458

> <Gold.Chemscore.Rot.Weighted>
4.1050

> <Gold.Chemscore.Internal.Correction.Weighted>
   9.000000E+99

> <Gold.Protein.RotatedTorsions>
[ 6907 6896 6895 6894 ] final  127.33 input  -60.11 | X-H torsion
[ 7974 7965 7964 7962 ] final  130.22 input  175.53 | X-H torsion
[ 8008 7997 7996 7995 ] final -155.77 input   59.86 | X-H torsion
[ 10167 10162 10161 10158 ] final  -84.37 input  -65.29 | X-H torsion
[ 10718 10713 10712 10709 ] final -161.06 input   66.30 | X-H torsion
[ 10763 10752 10751 10750 ] final   36.99 input  -60.55 | X-H torsion
[ 11005 11000 10999 10996 ] final -144.71 input  -57.11 | X-H torsion

> <Gold.Protein.ActiveResidues>
 VAL166  LYS551  ARG553  GLY616  TRP617  ASP618  TYR619  PRO620  LYS621  CYS622 
 ASP623  PHE694  ASN695  SER759  ASP760  ASP761  ALA762  ILE779  LEU786  VAL792 
 PHE793  MET794  SER795  GLU796  ALA797  LYS798  CYS799  TRP800  GLU811  SER814 

> <Gold.Protein.RotatedAtoms>
  152.3822  133.6562  159.6170 H   0  0  0  0  0  0  0  0  0  0  0  0  # atno 6907 bound_to 6896
  150.7750  133.9094  159.3374 H   0  0  0  0  0  0  0  0  0  0  0  0  # atno 6908 bound_to 6896
  151.6898  135.0949  160.0283 H   0  0  0  0  0  0  0  0  0  0  0  0  # atno 6909 bound_to 6896
  145.0202  139.4138  143.5201 H   0  0  0  0  0  0  0  0  0  0  0  0  # atno 7974 bound_to 7965
  155.7070  140.0773  157.2387 H   0  0  0  0  0  0  0  0  0  0  0  0  # atno 8008 bound_to 7997
  154.4064  140.1637  156.2307 H   0  0  0  0  0  0  0  0  0  0  0  0  # atno 8009 bound_to 7997
  155.9317  140.3391  155.6257 H   0  0  0  0  0  0  0  0  0  0  0  0  # atno 8010 bound_to 7997
  140.4138  143.2612  151.8981 H   0  0  0  0  0  0  0  0  0  0  0  0  # atno 10167 bound_to 10162
  156.5909  130.8769  151.2889 H   0  0  0  0  0  0  0  0  0  0  0  0  # atno 10718 bound_to 10713
  153.0055  135.6290  154.2073 H   0  0  0  0  0  0  0  0  0  0  0  0  # atno 10763 bound_to 10752
  154.1817  135.2813  155.3052 H   0  0  0  0  0  0  0  0  0  0  0  0  # atno 10764 bound_to 10752
  154.5829  135.5641  153.7263 H   0  0  0  0  0  0  0  0  0  0  0  0  # atno 10765 bound_to 10752
  140.7996  134.2872  157.4983 H   0  0  0  0  0  0  0  0  0  0  0  0  # atno 11005 bound_to 11000
  146.3484  139.9696  142.8708 LP  0  0  0  0  0  0  0  0  0  0  0  0  # atno 17320 bound_to 7965
  145.1905  140.9809  143.4213 LP  0  0  0  0  0  0  0  0  0  0  0  0  # atno 17321 bound_to 7965
  139.4782  144.5509  151.8387 LP  0  0  0  0  0  0  0  0  0  0  0  0  # atno 17342 bound_to 10162
  140.4608  144.1724  150.5906 LP  0  0  0  0  0  0  0  0  0  0  0  0  # atno 17343 bound_to 10162
  157.7304  130.9685  150.1830 LP  0  0  0  0  0  0  0  0  0  0  0  0  # atno 17370 bound_to 10713
  156.2551  130.3704  149.8191 LP  0  0  0  0  0  0  0  0  0  0  0  0  # atno 17371 bound_to 10713
  139.8723  134.9422  156.3818 LP  0  0  0  0  0  0  0  0  0  0  0  0  # atno 17394 bound_to 11000
  140.9308  133.7581  156.0022 LP  0  0  0  0  0  0  0  0  0  0  0  0  # atno 17395 bound_to 11000

$$$$
