AV-unprocessed.smi:188|AV-procd|sdf|1472|dock1
  -GOLD-   2262019293D 1   1.00000     0.00000
 Structure written by MMmdl.
 49 53  0  0  0  0  0  0  0  0  1 V2000
  143.5570  131.8804  148.3531 O   0  0  0  0  0  0  0  0  0  0  0  0
  144.0703  132.5247  149.2648 C   0  0  0  0  0  0  0  0  0  0  0  0
  145.2518  132.2749  149.8365 N   0  0  0  0  0  0  0  0  0  0  0  0
  145.5467  133.1450  150.8004 C   0  0  0  0  0  0  0  0  0  0  0  0
  146.5651  133.1533  151.4897 O   0  0  0  0  0  0  0  0  0  0  0  0
  144.3947  134.1436  150.9103 C   0  0  0  0  0  0  0  0  0  0  0  0
  144.8149  135.5957  150.5847 C   0  0  0  0  0  0  0  0  0  0  0  0
  145.5988  136.2537  151.7359 C   0  0  0  0  0  0  0  0  0  0  0  0
  144.8684  136.1454  152.9988 N   0  0  0  0  0  0  0  0  0  0  0  0
  145.3103  136.9777  153.9762 C   0  0  0  0  0  0  0  0  0  0  0  0
  145.1133  136.6558  155.2831 N   0  0  0  0  0  0  0  0  0  0  0  0
  145.5575  137.4614  156.2520 C   0  0  0  0  0  0  0  0  0  0  0  0
  146.2085  138.6204  156.1399 N   0  0  0  0  0  0  0  0  0  0  0  0
  146.3982  138.9577  154.8326 C   0  0  0  0  0  0  0  0  0  0  0  0
  145.9880  138.1988  153.6993 C   0  0  0  0  0  0  0  0  0  0  0  0
  146.3500  138.8606  152.5319 N   0  0  0  0  0  0  0  0  0  0  0  0
  146.9483  139.9420  152.9508 C   0  0  0  0  0  0  0  0  0  0  0  0
  147.0132  140.0865  154.3187 N   0  0  0  0  0  0  0  0  0  0  0  0
  147.6178  141.1934  155.0455 C   0  0  0  0  0  0  0  0  0  0  0  0
  148.8911  140.8165  155.8323 C   0  0  0  0  0  0  0  0  0  0  0  0
  150.1117  140.7407  154.8979 C   0  0  0  0  0  0  0  0  0  0  0  0
  149.9048  139.8109  153.8534 O   0  0  0  0  0  0  0  0  0  0  0  0
  149.1371  141.5990  157.1307 C   0  0  0  0  0  0  0  0  0  0  0  0
  149.3308  140.3868  157.8890 O   0  0  0  0  0  0  0  0  0  0  0  0
  148.7507  139.6350  156.8024 C   0  0  0  0  0  0  0  0  0  0  0  0
  144.4936  134.7850  153.3899 C   0  0  0  0  0  0  0  0  0  0  0  0
  143.6793  134.0956  152.2798 C   0  0  0  0  0  0  0  0  0  0  0  0
  143.5438  133.6024  149.8616 N   0  0  0  0  0  0  0  0  0  0  0  0
  145.8546  131.5109  149.5676 H   0  0  0  0  0  0  0  0  0  0  0  0
  145.4127  135.6280  149.6726 H   0  0  0  0  0  0  0  0  0  0  0  0
  143.9234  136.1906  150.3809 H   0  0  0  0  0  0  0  0  0  0  0  0
  146.5734  135.7789  151.8525 H   0  0  0  0  0  0  0  0  0  0  0  0
  145.7954  137.2943  151.4802 H   0  0  0  0  0  0  0  0  0  0  0  0
  145.3628  137.1297  157.2611 H   0  0  0  0  0  0  0  0  0  0  0  0
  147.3536  140.6746  152.2679 H   0  0  0  0  0  0  0  0  0  0  0  0
  147.8316  141.9855  154.3269 H   0  0  0  0  0  0  0  0  0  0  0  0
  146.8660  141.6084  155.7178 H   0  0  0  0  0  0  0  0  0  0  0  0
  150.3543  141.7134  154.4701 H   0  0  0  0  0  0  0  0  0  0  0  0
  150.9979  140.4278  155.4512 H   0  0  0  0  0  0  0  0  0  0  0  0
  149.7515  140.2886  153.0523 H   0  0  0  0  0  0  0  0  0  0  0  0
  150.0253  142.2316  157.1095 H   0  0  0  0  0  0  0  0  0  0  0  0
  148.2709  142.1562  157.4899 H   0  0  0  0  0  0  0  0  0  0  0  0
  147.7172  139.3539  157.0120 H   0  0  0  0  0  0  0  0  0  0  0  0
  149.3446  138.7612  156.5316 H   0  0  0  0  0  0  0  0  0  0  0  0
  145.3936  134.2113  153.6135 H   0  0  0  0  0  0  0  0  0  0  0  0
  143.8990  134.8120  154.3042 H   0  0  0  0  0  0  0  0  0  0  0  0
  142.7093  134.5879  152.1961 H   0  0  0  0  0  0  0  0  0  0  0  0
  143.4693  133.0649  152.5695 H   0  0  0  0  0  0  0  0  0  0  0  0
  142.6510  134.0071  149.6195 H   0  0  0  0  0  0  0  0  0  0  0  0
  1  2  2  0  0  0  0
  2 28  1  0  0  0  0
  2  3  1  0  0  0  0
  3  4  1  0  0  0  0
  3 29  1  0  0  0  0
  4  5  2  0  0  0  0
  4  6  1  0  0  0  0
  6 27  1  0  0  0  0
  6  7  1  0  0  0  0
  6 28  1  0  0  0  0
  7  8  1  0  0  0  0
  7 30  1  0  0  0  0
  7 31  1  0  0  0  0
  8  9  1  0  0  0  0
  8 32  1  0  0  0  0
  8 33  1  0  0  0  0
  9 10  1  0  0  0  0
  9 26  1  0  0  0  0
 10 15  1  0  0  0  0
 10 11  2  0  0  0  0
 11 12  1  0  0  0  0
 12 13  2  0  0  0  0
 12 34  1  0  0  0  0
 13 14  1  0  0  0  0
 14 18  1  0  0  0  0
 14 15  2  0  0  0  0
 15 16  1  0  0  0  0
 16 17  2  0  0  0  0
 17 18  1  0  0  0  0
 17 35  1  0  0  0  0
 18 19  1  0  0  0  0
 19 20  1  0  0  0  0
 19 36  1  0  0  0  0
 19 37  1  0  0  0  0
 20 25  1  0  0  0  0
 20 21  1  0  0  0  0
 20 23  1  0  0  0  0
 21 22  1  0  0  0  0
 21 38  1  0  0  0  0
 21 39  1  0  0  0  0
 22 40  1  0  0  0  0
 23 24  1  0  0  0  0
 23 41  1  0  0  0  0
 23 42  1  0  0  0  0
 24 25  1  0  0  0  0
 25 43  1  0  0  0  0
 25 44  1  0  0  0  0
 26 27  1  0  0  0  0
 26 45  1  0  0  0  0
 26 46  1  0  0  0  0
 27 47  1  0  0  0  0
 27 48  1  0  0  0  0
 28 49  1  0  0  0  0
M  END
> <s_m_source_file>
AV-unprocessed.smi

> <i_m_source_file_index>
188

> <i_lp_mmshare_version>
43012

> <i_f3d_flags>
0

> <s_epik_input>
Tz1DKFtOSF0xKVtOSF1DKD1PKUMxMltDSDJdW0NIMl1OKFtDSDJdW0NIMl0yKWMobltjSF1uMyljKGMzNCluW2NIXW40W0NIMl1DNShbQ0gyXVtPSF0pW0NIMl1PW0NIMl01

> <s_epik_cmdline>
J2VwaWtfcHl0aG9uJywgJy1waCcsICc3LjAnLCAnLXRuJywgJzgnLCAnLW1hJywgJzIwMCcsICctbWV0YWxfYmluZGluZycsICctaW1hZScsICc8aW5maWxlLm1hZT4nLCAnLW9tYWUnLCAnPG91dGZpbGUubWFlPic=

> <r_lp_tautomer_probability>
1

> <r_epik_Ionization_Penalty>
0.00868263

> <r_epik_Ionization_Penalty_Charging>
0

> <r_epik_Ionization_Penalty_Neutral>
0.00868263

> <r_epik_State_Penalty>
0.00519311

> <r_epik_Charging_Adjusted_Penalty>
0.00519311

> <i_epik_Tot_Q>
0

> <i_epik_Tot_abs_Q>
0

> <r_epik_Metal_State_Penalty>
0.404007

> <b_epik_Metal_Only>
0

> <s_lp_Force_Field>
OPLS_2005

> <r_lp_Energy>
48.5208

> <b_lp_Chiralities_Consistent>
1

> <s_lp_Variant>
AV-unprocessed.smi:188-1

> <Gold.Version>
5.8.1

> <Gold.Id.Protein>
6NUR|6NUR_protein|mol2

> <Gold.PLP.Fitness>
42.7692

> <Gold.PLP.PLP>
-33.5368

> <Gold.PLP.part.hbond>
-4.0000

> <Gold.PLP.part.metal>
0.0000

> <Gold.PLP.part.buried>
-5.7190

> <Gold.PLP.part.nonpolar>
-26.2495

> <Gold.PLP.part.repulsive>
1.1119

> <Gold.PLP.ligand.clash>
0.0000

> <Gold.PLP.ligand.torsion>
0.9869

> <Gold.PLP.Chemscore.Hbond>
2.6400

> <Gold.PLP.Chemscore.CHOScore>
0.8523

> <Gold.PLP.Chemscore.Metal>
0.0000

> <Gold.Chemscore.Hbonds>
donor molecule, donor type, donor heavy atom, donor atom, acceptor molecule, acceptor atom, score
      L1  H    22    40       P1  7957  0.83
      L1  H    28    49       P1 10186  1.00
      P1  H 10785 10796       L1     1  0.59
      L1  C    17    35       P1  7957  0.66

> <Gold.PLP.Chemscore.Internal.Correction>
0.7293

> <Gold.Rescore>
     Score         DG    S(hbond)    S(metal)    S(lipo)     H(rot)  DE(clash)    DE(int)     intcor
      7.98     -13.19       2.61        0.00      54.23       2.88       1.28       3.93       ----

> <Gold.Chemscore.Fitness>
7.9769

> <Gold.Chemscore.DG>
-13.1928

> <Gold.Chemscore.ZeroCoef>
-5.4800

> <Gold.Chemscore.Hbond>
2.6146

> <Gold.Chemscore.Metal>
0.0000

> <Gold.Chemscore.Lipo>
54.2304

> <Gold.Chemscore.Internal_Hbond>
0.0000

> <Gold.Chemscore.DEClash>
1.2821

> <Gold.Chemscore.DEInternal>
3.9338

> <Gold.Chemscore.Rot>
2.8770

> <Gold.Chemscore.Internal.Correction>
   9.000000E+99

> <Gold.Chemscore.Hbonds>
donor molecule, donor type, donor heavy atom, donor atom, acceptor molecule, acceptor atom, score
      L1  H    22    40       P1  7957  0.83
      L1  H    28    49       P1 10186  1.00
      P1  H 10785 10796       L1     1  0.56

> <Gold.Chemscore.Hbond.Weighted>
-8.7329

> <Gold.Chemscore.Metal.Weighted>
-0.0000

> <Gold.Chemscore.Lipo.Weighted>
-6.3450

> <Gold.Chemscore.Internal_Hbond.Weighted>
0.0000

> <Gold.Chemscore.DEClash.Weighted>
1.2821

> <Gold.Chemscore.DEInternal.Weighted>
3.9338

> <Gold.Chemscore.Rot.Weighted>
7.3651

> <Gold.Chemscore.Internal.Correction.Weighted>
   9.000000E+99

> <Gold.Protein.RotatedTorsions>
[ 6907 6896 6895 6894 ] final   74.18 input  -60.11 | X-H torsion
[ 7974 7965 7964 7962 ] final -111.42 input  175.53 | X-H torsion
[ 8008 7997 7996 7995 ] final   21.95 input   59.86 | X-H torsion
[ 10167 10162 10161 10158 ] final   62.37 input  -65.29 | X-H torsion
[ 10718 10713 10712 10709 ] final  169.19 input   66.30 | X-H torsion
[ 10763 10752 10751 10750 ] final  -33.01 input  -60.55 | X-H torsion
[ 11005 11000 10999 10996 ] final   39.25 input  -57.11 | X-H torsion

> <Gold.Protein.ActiveResidues>
 VAL166  LYS551  ARG553  GLY616  TRP617  ASP618  TYR619  PRO620  LYS621  CYS622 
 ASP623  PHE694  ASN695  SER759  ASP760  ASP761  ALA762  ILE779  LEU786  VAL792 
 PHE793  MET794  SER795  GLU796  ALA797  LYS798  CYS799  TRP800  GLU811  SER814 

> <Gold.Protein.RotatedAtoms>
  152.4962  134.4310  159.9511 H   0  0  0  0  0  0  0  0  0  0  0  0  # atno 6907 bound_to 6896
  151.4288  133.3670  159.2774 H   0  0  0  0  0  0  0  0  0  0  0  0  # atno 6908 bound_to 6896
  150.9169  134.8610  159.7523 H   0  0  0  0  0  0  0  0  0  0  0  0  # atno 6909 bound_to 6896
  145.1563  140.8855  143.3617 H   0  0  0  0  0  0  0  0  0  0  0  0  # atno 7974 bound_to 7965
  154.9583  140.3075  155.5042 H   0  0  0  0  0  0  0  0  0  0  0  0  # atno 8008 bound_to 7997
  156.2980  140.2306  156.4605 H   0  0  0  0  0  0  0  0  0  0  0  0  # atno 8009 bound_to 7997
  154.7989  140.0435  157.1246 H   0  0  0  0  0  0  0  0  0  0  0  0  # atno 8010 bound_to 7997
  140.1446  144.4520  150.6792 H   0  0  0  0  0  0  0  0  0  0  0  0  # atno 10167 bound_to 10162
  157.0262  131.0246  151.2759 H   0  0  0  0  0  0  0  0  0  0  0  0  # atno 10718 bound_to 10713
  153.8231  135.6872  153.4824 H   0  0  0  0  0  0  0  0  0  0  0  0  # atno 10763 bound_to 10752
  153.1556  135.4600  154.9698 H   0  0  0  0  0  0  0  0  0  0  0  0  # atno 10764 bound_to 10752
  154.7919  135.3305  154.7702 H   0  0  0  0  0  0  0  0  0  0  0  0  # atno 10765 bound_to 10752
  140.2046  134.3829  155.8079 H   0  0  0  0  0  0  0  0  0  0  0  0  # atno 11005 bound_to 11000
  145.0378  139.3286  143.5992 LP  0  0  0  0  0  0  0  0  0  0  0  0  # atno 17320 bound_to 7965
  146.3488  139.9739  142.8703 LP  0  0  0  0  0  0  0  0  0  0  0  0  # atno 17321 bound_to 7965
  140.6739  143.2297  151.5555 LP  0  0  0  0  0  0  0  0  0  0  0  0  # atno 17342 bound_to 10162
  139.5455  144.2533  152.1434 LP  0  0  0  0  0  0  0  0  0  0  0  0  # atno 17343 bound_to 10162
  157.5212  130.7999  149.7812 LP  0  0  0  0  0  0  0  0  0  0  0  0  # atno 17370 bound_to 10713
  156.0085  130.3844  150.2346 LP  0  0  0  0  0  0  0  0  0  0  0  0  # atno 17371 bound_to 10713
  141.2227  133.7111  156.8315 LP  0  0  0  0  0  0  0  0  0  0  0  0  # atno 17394 bound_to 11000
  140.2017  134.8892  157.3176 LP  0  0  0  0  0  0  0  0  0  0  0  0  # atno 17395 bound_to 11000

$$$$
