AV-unprocessed.smi:867|AV-procd|sdf|3994|dock3
  -GOLD-   22720 1473D 1   1.00000     0.00000
 Structure written by MMmdl.
 53 56  0  0  0  0  0  0  0  0  2 V2000
  148.0533  141.7638  154.7905 O   0  0  0  0  0  0  0  0  0  0  0  0
  148.6396  140.7136  155.0542 C   0  0  0  0  0  0  0  0  0  0  0  0
  149.3897  140.5650  156.1604 N   0  0  0  0  0  0  0  0  0  0  0  0
  149.6259  141.5883  157.1763 C   0  0  0  0  0  0  0  0  0  0  0  0
  151.1220  141.9225  157.3277 C   0  0  0  0  0  0  0  0  0  0  0  0
  151.4299  142.8013  158.5274 C   0  0  0  0  0  0  0  0  0  0  0  0
  152.2181  142.3237  159.5949 C   0  0  0  0  0  0  0  0  0  0  0  0
  152.4959  143.1865  160.6720 C   0  0  0  0  0  0  0  0  0  0  0  0
  151.9682  144.4927  160.6376 C   0  0  0  0  0  0  0  0  0  0  0  0
  151.2095  144.9597  159.6228 N   0  0  0  0  0  0  0  0  0  0  0  0
  150.9492  144.1264  158.5929 C   0  0  0  0  0  0  0  0  0  0  0  0
  148.6582  139.6481  154.2162 N   0  0  0  0  0  0  0  0  0  0  0  0
  149.0509  138.2789  154.5741 C   0  0  0  0  0  0  0  0  0  0  0  0
  147.7839  137.4127  154.6985 C   0  0  0  0  0  0  0  0  0  0  0  0
  146.9655  137.4459  153.4519 N   0  3  0  0  0  0  0  0  0  0  0  0
  145.7364  136.6069  153.5509 C   0  0  2  0  0  0  0  0  0  0  0  0
  146.0087  135.0976  153.7665 C   0  0  0  0  0  0  0  0  0  0  0  0
  145.1293  134.4257  152.6946 C   0  0  2  0  0  0  0  0  0  0  0  0
  145.8019  134.5979  151.3222 C   0  0  0  0  0  0  0  0  0  0  0  0
  145.6156  136.1003  151.0459 C   0  0  0  0  0  0  0  0  0  0  0  0
  144.8386  136.5890  152.2881 C   0  0  1  0  0  0  0  0  0  0  0  0
  143.9504  135.3849  152.5832 C   0  0  0  0  0  0  0  0  0  0  0  0
  146.6920  138.8401  152.9990 C   0  0  0  0  0  0  0  0  0  0  0  0
  147.9840  139.6722  152.9167 C   0  0  0  0  0  0  0  0  0  0  0  0
  149.8638  139.6835  156.2913 H   0  0  0  0  0  0  0  0  0  0  0  0
  149.0602  142.4940  156.9519 H   0  0  0  0  0  0  0  0  0  0  0  0
  149.2384  141.2186  158.1257 H   0  0  0  0  0  0  0  0  0  0  0  0
  151.6957  140.9994  157.4159 H   0  0  0  0  0  0  0  0  0  0  0  0
  151.4804  142.4157  156.4232 H   0  0  0  0  0  0  0  0  0  0  0  0
  152.6116  141.3180  159.5861 H   0  0  0  0  0  0  0  0  0  0  0  0
  153.0991  142.8560  161.5043 H   0  0  0  0  0  0  0  0  0  0  0  0
  152.1609  145.1810  161.4470 H   0  0  0  0  0  0  0  0  0  0  0  0
  150.3468  144.5313  157.7932 H   0  0  0  0  0  0  0  0  0  0  0  0
  149.7017  137.8796  153.7946 H   0  0  0  0  0  0  0  0  0  0  0  0
  149.6271  138.2128  155.4970 H   0  0  0  0  0  0  0  0  0  0  0  0
  148.0790  136.3917  154.9381 H   0  0  0  0  0  0  0  0  0  0  0  0
  147.1788  137.7674  155.5346 H   0  0  0  0  0  0  0  0  0  0  0  0
  145.1422  136.9822  154.3865 H   0  0  0  0  0  0  0  0  0  0  0  0
  147.0554  134.8199  153.6380 H   0  0  0  0  0  0  0  0  0  0  0  0
  145.7059  134.7954  154.7698 H   0  0  0  0  0  0  0  0  0  0  0  0
  144.8665  133.3928  152.9253 H   0  0  0  0  0  0  0  0  0  0  0  0
  146.8514  134.3005  151.3298 H   0  0  0  0  0  0  0  0  0  0  0  0
  145.2922  134.0025  150.5633 H   0  0  0  0  0  0  0  0  0  0  0  0
  146.5651  136.6169  150.9057 H   0  0  0  0  0  0  0  0  0  0  0  0
  145.0250  136.2483  150.1408 H   0  0  0  0  0  0  0  0  0  0  0  0
  144.2861  137.5149  152.1249 H   0  0  0  0  0  0  0  0  0  0  0  0
  143.2681  135.1385  151.7673 H   0  0  0  0  0  0  0  0  0  0  0  0
  143.3801  135.4795  153.5091 H   0  0  0  0  0  0  0  0  0  0  0  0
  146.2211  138.8373  152.0166 H   0  0  0  0  0  0  0  0  0  0  0  0
  145.9894  139.3130  153.6871 H   0  0  0  0  0  0  0  0  0  0  0  0
  147.7578  140.6856  152.5810 H   0  0  0  0  0  0  0  0  0  0  0  0
  148.6500  139.2551  152.1599 H   0  0  0  0  0  0  0  0  0  0  0  0
  147.5351  137.0286  152.7298 H   0  0  0  0  0  0  0  0  0  0  0  0
  1  2  2  0  0  0  0
  2  3  1  0  0  0  0
  2 12  1  0  0  0  0
  3  4  1  0  0  0  0
  3 25  1  0  0  0  0
  4  5  1  0  0  0  0
  4 26  1  0  0  0  0
  4 27  1  0  0  0  0
  5  6  1  0  0  0  0
  5 28  1  0  0  0  0
  5 29  1  0  0  0  0
  6 11  1  0  0  0  0
  6  7  2  0  0  0  0
  7  8  1  0  0  0  0
  7 30  1  0  0  0  0
  8  9  2  0  0  0  0
  8 31  1  0  0  0  0
  9 10  1  0  0  0  0
  9 32  1  0  0  0  0
 10 11  2  0  0  0  0
 11 33  1  0  0  0  0
 12 24  1  0  0  0  0
 12 13  1  0  0  0  0
 13 14  1  0  0  0  0
 13 34  1  0  0  0  0
 13 35  1  0  0  0  0
 14 15  1  0  0  0  0
 14 36  1  0  0  0  0
 14 37  1  0  0  0  0
 15 16  1  0  0  0  0
 15 23  1  0  0  0  0
 15 53  1  0  0  0  0
 16 21  1  0  0  0  0
 16 17  1  0  0  0  0
 16 38  1  0  0  0  0
 17 18  1  0  0  0  0
 17 39  1  0  0  0  0
 17 40  1  0  0  0  0
 18 22  1  0  0  0  0
 18 19  1  0  0  0  0
 18 41  1  0  0  0  0
 19 20  1  0  0  0  0
 19 42  1  0  0  0  0
 19 43  1  0  0  0  0
 20 21  1  0  0  0  0
 20 44  1  0  0  0  0
 20 45  1  0  0  0  0
 21 22  1  0  0  0  0
 21 46  1  0  0  0  0
 22 47  1  0  0  0  0
 22 48  1  0  0  0  0
 23 24  1  0  0  0  0
 23 49  1  0  0  0  0
 23 50  1  0  0  0  0
 24 51  1  0  0  0  0
 24 52  1  0  0  0  0
M  CHG  1  15   1
M  END
> <s_m_source_file>
AV-unprocessed.smi

> <i_m_source_file_index>
867

> <i_lp_mmshare_version>
43012

> <i_f3d_flags>
0

> <s_epik_input>
W0NIMl0xW0NIMl1bQ0BASF0oW0NIMl0yKVtDQEBIXShbQ0gyXVtDQEhdMTIpTihbQ0gyXVtDSDJdMylbQ0gyXVtDSDJdTjNDKD1PKVtOSF1bQ0gyXVtDSDJdYzRbY0hdW2NIXVtjSF1uW2NIXTQ=

> <s_epik_cmdline>
J2VwaWtfcHl0aG9uJywgJy1waCcsICc3LjAnLCAnLXRuJywgJzgnLCAnLW1hJywgJzIwMCcsICctbWV0YWxfYmluZGluZycsICctaW1hZScsICc8aW5maWxlLm1hZT4nLCAnLW9tYWUnLCAnPG91dGZpbGUubWFlPic=

> <r_epik_Ionization_Penalty>
0.0161279

> <r_epik_Ionization_Penalty_Charging>
0.00262064

> <r_epik_Ionization_Penalty_Neutral>
0.0135072

> <r_epik_State_Penalty>
0.0104914

> <r_epik_Charging_Adjusted_Penalty>
0.013112

> <i_epik_Tot_Q>
1

> <i_epik_Tot_abs_Q>
1

> <r_epik_Metal_State_Penalty>
0.0102536

> <b_epik_Metal_Only>
0

> <s_lp_Force_Field>
OPLS_2005

> <r_lp_Energy>
96.6143

> <b_lp_Chiralities_Consistent>
1

> <s_lp_Variant>
AV-unprocessed.smi:867-1

> <Gold.Version>
5.8.1

> <Gold.Id.Protein>
6NUR|6NUR_protein|mol2

> <Gold.PLP.Fitness>
47.6369

> <Gold.PLP.PLP>
-38.7728

> <Gold.PLP.part.hbond>
-1.0000

> <Gold.PLP.part.metal>
0.0000

> <Gold.PLP.part.buried>
-1.5146

> <Gold.PLP.part.nonpolar>
-38.2568

> <Gold.PLP.part.repulsive>
0.4199

> <Gold.PLP.ligand.clash>
0.0000

> <Gold.PLP.ligand.torsion>
0.1673

> <Gold.PLP.Chemscore.Hbond>
2.0000

> <Gold.PLP.Chemscore.CHOScore>
1.0251

> <Gold.PLP.Chemscore.Metal>
0.0000

> <Gold.Chemscore.Hbonds>
donor molecule, donor type, donor heavy atom, donor atom, acceptor molecule, acceptor atom, score
      L1  H    15    53       P1  7948  2.00
      L1  C    11    33       P1  8028  0.94
      L1  C    11    33       P1  8029  0.06

> <Gold.PLP.Chemscore.Internal.Correction>
0.1235

> <Gold.Rescore>
     Score         DG    S(hbond)    S(metal)    S(lipo)     H(rot)  DE(clash)    DE(int)     intcor
     16.99     -19.08       0.99        0.00     117.97       1.37       1.95       0.15       ----

> <Gold.Chemscore.Fitness>
16.9865

> <Gold.Chemscore.DG>
-19.0817

> <Gold.Chemscore.ZeroCoef>
-5.4800

> <Gold.Chemscore.Hbond>
0.9923

> <Gold.Chemscore.Metal>
0.0000

> <Gold.Chemscore.Lipo>
117.9703

> <Gold.Chemscore.Internal_Hbond>
0.0000

> <Gold.Chemscore.DEClash>
1.9457

> <Gold.Chemscore.DEInternal>
0.1495

> <Gold.Chemscore.Rot>
1.3731

> <Gold.Chemscore.Internal.Correction>
   9.000000E+99

> <Gold.Chemscore.Hbonds>
donor molecule, donor type, donor heavy atom, donor atom, acceptor molecule, acceptor atom, score
      L1  H    15    53       P1  7948  1.00

> <Gold.Chemscore.Hbond.Weighted>
-3.3143

> <Gold.Chemscore.Metal.Weighted>
-0.0000

> <Gold.Chemscore.Lipo.Weighted>
-13.8025

> <Gold.Chemscore.Internal_Hbond.Weighted>
0.0000

> <Gold.Chemscore.DEClash.Weighted>
1.9457

> <Gold.Chemscore.DEInternal.Weighted>
0.1495

> <Gold.Chemscore.Rot.Weighted>
3.5152

> <Gold.Chemscore.Internal.Correction.Weighted>
   9.000000E+99

> <Gold.Protein.RotatedTorsions>
[ 6907 6896 6895 6894 ] final  111.27 input  -60.11 | X-H torsion
[ 7974 7965 7964 7962 ] final   -1.36 input  175.53 | X-H torsion
[ 8008 7997 7996 7995 ] final  -72.76 input   59.86 | X-H torsion
[ 10167 10162 10161 10158 ] final   93.41 input  -65.29 | X-H torsion
[ 10718 10713 10712 10709 ] final -124.53 input   66.30 | X-H torsion
[ 10763 10752 10751 10750 ] final   54.03 input  -60.55 | X-H torsion
[ 11005 11000 10999 10996 ] final   40.93 input  -57.11 | X-H torsion

> <Gold.Protein.ActiveResidues>
 VAL166  LYS551  ARG553  GLY616  TRP617  ASP618  TYR619  PRO620  LYS621  CYS622 
 ASP623  PHE694  ASN695  SER759  ASP760  ASP761  ALA762  ILE779  LEU786  VAL792 
 PHE793  MET794  SER795  GLU796  ALA797  LYS798  CYS799  TRP800  GLU811  SER814 

> <Gold.Protein.RotatedAtoms>
  152.4978  133.8682  159.7284 H   0  0  0  0  0  0  0  0  0  0  0  0  # atno 6907 bound_to 6896
  150.9175  133.6912  159.2846 H   0  0  0  0  0  0  0  0  0  0  0  0  # atno 6908 bound_to 6896
  151.4300  135.1013  159.9692 H   0  0  0  0  0  0  0  0  0  0  0  0  # atno 6909 bound_to 6896
  146.2418  140.1408  142.8335 H   0  0  0  0  0  0  0  0  0  0  0  0  # atno 7974 bound_to 7965
  154.5192  140.0791  156.8140 H   0  0  0  0  0  0  0  0  0  0  0  0  # atno 8008 bound_to 7997
  155.3613  140.3418  155.4222 H   0  0  0  0  0  0  0  0  0  0  0  0  # atno 8009 bound_to 7997
  156.1662  140.1604  156.8514 H   0  0  0  0  0  0  0  0  0  0  0  0  # atno 8010 bound_to 7997
  139.8182  144.6743  150.9552 H   0  0  0  0  0  0  0  0  0  0  0  0  # atno 10167 bound_to 10162
  156.1596  130.6592  151.0030 H   0  0  0  0  0  0  0  0  0  0  0  0  # atno 10718 bound_to 10713
  152.9800  135.5758  154.4838 H   0  0  0  0  0  0  0  0  0  0  0  0  # atno 10763 bound_to 10752
  154.4383  135.2775  155.1867 H   0  0  0  0  0  0  0  0  0  0  0  0  # atno 10764 bound_to 10752
  154.3546  135.6202  153.5713 H   0  0  0  0  0  0  0  0  0  0  0  0  # atno 10765 bound_to 10752
  140.1883  134.4018  155.8161 H   0  0  0  0  0  0  0  0  0  0  0  0  # atno 11005 bound_to 11000
  145.0248  140.8823  143.5145 LP  0  0  0  0  0  0  0  0  0  0  0  0  # atno 17320 bound_to 7965
  145.1463  139.2542  143.5464 LP  0  0  0  0  0  0  0  0  0  0  0  0  # atno 17321 bound_to 7965
  140.7814  143.4117  151.0982 LP  0  0  0  0  0  0  0  0  0  0  0  0  # atno 17342 bound_to 10162
  139.7779  143.8398  152.3132 LP  0  0  0  0  0  0  0  0  0  0  0  0  # atno 17343 bound_to 10162
  157.6722  131.0859  150.7584 LP  0  0  0  0  0  0  0  0  0  0  0  0  # atno 17370 bound_to 10713
  156.7648  130.4810  149.5430 LP  0  0  0  0  0  0  0  0  0  0  0  0  # atno 17371 bound_to 10713
  141.2225  133.7034  156.8050 LP  0  0  0  0  0  0  0  0  0  0  0  0  # atno 17394 bound_to 11000
  140.2189  134.8772  157.3355 LP  0  0  0  0  0  0  0  0  0  0  0  0  # atno 17395 bound_to 11000

$$$$
