AV-unprocessed.smi:1433|AV-procd|sdf|5846|dock1
  -GOLD-   22720 5513D 1   1.00000     0.00000
 Structure written by MMmdl.
 45 46  0  0  0  0  0  0  0  0  2 V2000
  147.7976  133.2844  152.5478 C   0  0  0  0  0  0  0  0  0  0  0  0
  146.3957  133.6751  153.0497 C   0  0  1  0  0  0  0  0  0  0  0  0
  146.3571  135.0362  153.7740 C   0  0  0  0  0  0  0  0  0  0  0  0
  146.4701  136.1708  152.8171 N   0  3  2  0  0  0  0  0  0  0  0  0
  146.4957  137.5445  153.4174 C   0  0  2  0  0  0  0  0  0  0  0  0
  145.2288  137.7603  154.2740 C   0  0  0  0  0  0  0  0  0  0  0  0
  146.6524  138.6924  152.3801 C   0  0  0  0  0  0  0  0  0  0  0  0
  147.4971  139.7850  152.8541 N   0  0  0  0  0  0  0  0  0  0  0  0
  147.2047  140.5954  153.8834 C   0  0  0  0  0  0  0  0  0  0  0  0
  146.1644  140.5134  154.5363 O   0  0  0  0  0  0  0  0  0  0  0  0
  148.2464  141.6576  154.2351 C   0  0  0  0  0  0  0  0  0  0  0  0
  149.2515  141.1188  155.1327 N   0  0  0  0  0  0  0  0  0  0  0  0
  149.5506  141.5141  156.4200 C   0  0  0  0  0  0  0  0  0  0  0  0
  150.5608  140.7116  156.8672 C   0  0  0  0  0  0  0  0  0  0  0  0
  150.8142  139.8432  155.7688 C   0  0  0  0  0  0  0  0  0  0  0  0
  150.0286  140.0882  154.7322 N   0  0  0  0  0  0  0  0  0  0  0  0
  145.4282  136.0362  151.7656 C   0  0  0  0  0  0  0  0  0  0  0  0
  145.5357  134.6788  151.0505 C   0  0  2  0  0  0  0  0  0  0  0  0
  144.4230  134.4862  150.0140 C   0  0  0  0  0  0  0  0  0  0  0  0
  145.4213  133.6338  152.0098 O   0  0  0  0  0  0  0  0  0  0  0  0
  148.4916  133.1802  153.3821 H   0  0  0  0  0  0  0  0  0  0  0  0
  148.2182  134.0264  151.8696 H   0  0  0  0  0  0  0  0  0  0  0  0
  147.7694  132.3291  152.0230 H   0  0  0  0  0  0  0  0  0  0  0  0
  146.0982  132.9108  153.7685 H   0  0  0  0  0  0  0  0  0  0  0  0
  145.4226  135.1310  154.3296 H   0  0  0  0  0  0  0  0  0  0  0  0
  147.1689  135.0498  154.5007 H   0  0  0  0  0  0  0  0  0  0  0  0
  147.3640  137.5914  154.0765 H   0  0  0  0  0  0  0  0  0  0  0  0
  145.2474  138.7209  154.7886 H   0  0  0  0  0  0  0  0  0  0  0  0
  145.1158  137.0030  155.0484 H   0  0  0  0  0  0  0  0  0  0  0  0
  144.3298  137.7350  153.6571 H   0  0  0  0  0  0  0  0  0  0  0  0
  147.0870  138.3296  151.4476 H   0  0  0  0  0  0  0  0  0  0  0  0
  145.6764  139.1110  152.1316 H   0  0  0  0  0  0  0  0  0  0  0  0
  148.3791  139.9214  152.3806 H   0  0  0  0  0  0  0  0  0  0  0  0
  148.7297  142.0402  153.3342 H   0  0  0  0  0  0  0  0  0  0  0  0
  147.7583  142.5039  154.7202 H   0  0  0  0  0  0  0  0  0  0  0  0
  149.0240  142.3233  156.9045 H   0  0  0  0  0  0  0  0  0  0  0  0
  151.0445  140.7396  157.8322 H   0  0  0  0  0  0  0  0  0  0  0  0
  151.5404  139.0471  155.6947 H   0  0  0  0  0  0  0  0  0  0  0  0
  144.4412  136.1416  152.2198 H   0  0  0  0  0  0  0  0  0  0  0  0
  145.5189  136.8314  151.0273 H   0  0  0  0  0  0  0  0  0  0  0  0
  146.4933  134.6088  150.5344 H   0  0  0  0  0  0  0  0  0  0  0  0
  144.4636  135.2579  149.2449 H   0  0  0  0  0  0  0  0  0  0  0  0
  143.4375  134.5288  150.4791 H   0  0  0  0  0  0  0  0  0  0  0  0
  144.5148  133.5192  149.5187 H   0  0  0  0  0  0  0  0  0  0  0  0
  147.3639  136.0513  152.3619 H   0  0  0  0  0  0  0  0  0  0  0  0
  1  2  1  0  0  0  0
  1 21  1  0  0  0  0
  1 22  1  0  0  0  0
  1 23  1  0  0  0  0
  2 20  1  0  0  0  0
  2  3  1  0  0  0  0
  2 24  1  0  0  0  0
  3  4  1  0  0  0  0
  3 25  1  0  0  0  0
  3 26  1  0  0  0  0
  4  5  1  0  0  0  0
  4 17  1  0  0  0  0
  4 45  1  0  0  0  0
  5  6  1  0  0  0  0
  5  7  1  0  0  0  0
  5 27  1  0  0  0  0
  6 28  1  0  0  0  0
  6 29  1  0  0  0  0
  6 30  1  0  0  0  0
  7  8  1  0  0  0  0
  7 31  1  0  0  0  0
  7 32  1  0  0  0  0
  8  9  1  0  0  0  0
  8 33  1  0  0  0  0
  9 10  2  0  0  0  0
  9 11  1  0  0  0  0
 11 12  1  0  0  0  0
 11 34  1  0  0  0  0
 11 35  1  0  0  0  0
 12 16  1  0  0  0  0
 12 13  1  0  0  0  0
 13 14  2  0  0  0  0
 13 36  1  0  0  0  0
 14 15  1  0  0  0  0
 14 37  1  0  0  0  0
 15 16  2  0  0  0  0
 15 38  1  0  0  0  0
 17 18  1  0  0  0  0
 17 39  1  0  0  0  0
 17 40  1  0  0  0  0
 18 19  1  0  0  0  0
 18 20  1  0  0  0  0
 18 41  1  0  0  0  0
 19 42  1  0  0  0  0
 19 43  1  0  0  0  0
 19 44  1  0  0  0  0
M  CHG  1   4   1
M  END
> <s_m_source_file>
AV-unprocessed.smi

> <i_m_source_file_index>
1433

> <i_lp_mmshare_version>
43012

> <i_f3d_flags>
0

> <s_epik_input>
W0NIM11bQ0BASF0xW0NIMl1OKFtDSDJdW0NASF0oTzEpW0NIM10pW0NASF0oW0NIM10pW0NIMl1bTkhdQyg9TylbQ0gyXW4yW2NIXVtjSF1bY0hdbjI=

> <s_epik_cmdline>
J2VwaWtfcHl0aG9uJywgJy1waCcsICc3LjAnLCAnLXRuJywgJzgnLCAnLW1hJywgJzIwMCcsICctbWV0YWxfYmluZGluZycsICctaW1hZScsICc8aW5maWxlLm1hZT4nLCAnLW9tYWUnLCAnPG91dGZpbGUubWFlPic=

> <r_lp_tautomer_probability>
1

> <r_epik_Ionization_Penalty>
0.748405

> <r_epik_Ionization_Penalty_Charging>
0.748396

> <r_epik_Ionization_Penalty_Neutral>
8.54426e-06

> <r_epik_State_Penalty>
0.775162

> <r_epik_Charging_Adjusted_Penalty>
1.52356

> <i_epik_Tot_Q>
1

> <i_epik_Tot_abs_Q>
1

> <r_epik_Metal_State_Penalty>
0.775167

> <b_epik_Metal_Only>
0

> <s_lp_Force_Field>
OPLS_2005

> <r_lp_Energy>
23.467

> <b_lp_Chiralities_Consistent>
1

> <s_lp_Variant>
AV-unprocessed.smi:1433-12

> <Gold.Version>
5.8.1

> <Gold.Id.Protein>
6NUR|6NUR_protein|mol2

> <Gold.PLP.Fitness>
46.2614

> <Gold.PLP.PLP>
-34.0037

> <Gold.PLP.part.hbond>
-2.9471

> <Gold.PLP.part.metal>
0.0000

> <Gold.PLP.part.buried>
-1.0719

> <Gold.PLP.part.nonpolar>
-30.3145

> <Gold.PLP.part.repulsive>
0.3836

> <Gold.PLP.ligand.clash>
0.0000

> <Gold.PLP.ligand.torsion>
0.8963

> <Gold.PLP.Chemscore.Hbond>
3.7000

> <Gold.PLP.Chemscore.CHOScore>
0.9463

> <Gold.PLP.Chemscore.Metal>
0.0000

> <Gold.Chemscore.Hbonds>
donor molecule, donor type, donor heavy atom, donor atom, acceptor molecule, acceptor atom, score
      L1  H     4    45       P1  7948  2.00
      L1  H     8    33       P1  7957  1.00
      P1  H  7989  7998       L1    16  0.50
      L1  C    13    36       P1  8028  0.45

> <Gold.PLP.Chemscore.Internal.Correction>
0.1114

> <Gold.Rescore>
     Score         DG    S(hbond)    S(metal)    S(lipo)     H(rot)  DE(clash)    DE(int)     intcor
     15.67     -18.26       2.91        0.00      66.84       1.87       0.13       2.46       ----

> <Gold.Chemscore.Fitness>
15.6717

> <Gold.Chemscore.DG>
-18.2562

> <Gold.Chemscore.ZeroCoef>
-5.4800

> <Gold.Chemscore.Hbond>
2.9138

> <Gold.Chemscore.Metal>
0.0000

> <Gold.Chemscore.Lipo>
66.8400

> <Gold.Chemscore.Internal_Hbond>
0.0000

> <Gold.Chemscore.DEClash>
0.1281

> <Gold.Chemscore.DEInternal>
2.4564

> <Gold.Chemscore.Rot>
1.8657

> <Gold.Chemscore.Internal.Correction>
   9.000000E+99

> <Gold.Chemscore.Hbonds>
donor molecule, donor type, donor heavy atom, donor atom, acceptor molecule, acceptor atom, score
      L1  H     4    45       P1  7948  1.00
      L1  H     8    33       P1  7957  1.00
      P1  H  7989  7998       L1    16  0.04

> <Gold.Chemscore.Hbond.Weighted>
-9.7321

> <Gold.Chemscore.Metal.Weighted>
-0.0000

> <Gold.Chemscore.Lipo.Weighted>
-7.8203

> <Gold.Chemscore.Internal_Hbond.Weighted>
0.0000

> <Gold.Chemscore.DEClash.Weighted>
0.1281

> <Gold.Chemscore.DEInternal.Weighted>
2.4564

> <Gold.Chemscore.Rot.Weighted>
4.7761

> <Gold.Chemscore.Internal.Correction.Weighted>
   9.000000E+99

> <Gold.Protein.RotatedTorsions>
[ 6907 6896 6895 6894 ] final  136.33 input  -60.11 | X-H torsion
[ 7974 7965 7964 7962 ] final  -22.60 input  175.53 | X-H torsion
[ 8008 7997 7996 7995 ] final  -61.97 input   59.86 | X-H torsion
[ 10167 10162 10161 10158 ] final -162.59 input  -65.29 | X-H torsion
[ 10718 10713 10712 10709 ] final  -16.87 input   66.30 | X-H torsion
[ 10763 10752 10751 10750 ] final -135.23 input  -60.55 | X-H torsion
[ 11005 11000 10999 10996 ] final   29.04 input  -57.11 | X-H torsion

> <Gold.Protein.ActiveResidues>
 VAL166  LYS551  ARG553  GLY616  TRP617  ASP618  TYR619  PRO620  LYS621  CYS622 
 ASP623  PHE694  ASN695  SER759  ASP760  ASP761  ALA762  ILE779  LEU786  VAL792 
 PHE793  MET794  SER795  GLU796  ALA797  LYS798  CYS799  TRP800  GLU811  SER814 

> <Gold.Protein.RotatedAtoms>
  152.2905  133.5557  159.5554 H   0  0  0  0  0  0  0  0  0  0  0  0  # atno 6907 bound_to 6896
  150.7233  134.0435  159.3782 H   0  0  0  0  0  0  0  0  0  0  0  0  # atno 6908 bound_to 6896
  151.8341  135.0612  160.0491 H   0  0  0  0  0  0  0  0  0  0  0  0  # atno 6909 bound_to 6896
  146.1666  140.4502  142.8549 H   0  0  0  0  0  0  0  0  0  0  0  0  # atno 7974 bound_to 7965
  154.4475  140.1006  156.6514 H   0  0  0  0  0  0  0  0  0  0  0  0  # atno 8008 bound_to 7997
  155.5394  140.3483  155.4425 H   0  0  0  0  0  0  0  0  0  0  0  0  # atno 8009 bound_to 7997
  156.0608  140.1326  156.9932 H   0  0  0  0  0  0  0  0  0  0  0  0  # atno 8010 bound_to 7997
  139.6381  144.0311  152.2070 H   0  0  0  0  0  0  0  0  0  0  0  0  # atno 10167 bound_to 10162
  156.5815  130.4775  149.6318 H   0  0  0  0  0  0  0  0  0  0  0  0  # atno 10718 bound_to 10713
  154.8706  135.3710  154.4865 H   0  0  0  0  0  0  0  0  0  0  0  0  # atno 10763 bound_to 10752
  153.5515  135.7024  153.5594 H   0  0  0  0  0  0  0  0  0  0  0  0  # atno 10764 bound_to 10752
  153.3711  135.4021  155.1753 H   0  0  0  0  0  0  0  0  0  0  0  0  # atno 10765 bound_to 10752
  140.3092  134.2669  155.7738 H   0  0  0  0  0  0  0  0  0  0  0  0  # atno 11005 bound_to 11000
  144.8101  140.6370  143.6421 LP  0  0  0  0  0  0  0  0  0  0  0  0  # atno 17320 bound_to 7965
  145.4452  139.1530  143.3949 LP  0  0  0  0  0  0  0  0  0  0  0  0  # atno 17321 bound_to 7965
  139.9993  144.6305  150.7744 LP  0  0  0  0  0  0  0  0  0  0  0  0  # atno 17342 bound_to 10162
  140.7476  143.2909  151.3332 LP  0  0  0  0  0  0  0  0  0  0  0  0  # atno 17343 bound_to 10162
  156.2628  130.6972  151.1746 LP  0  0  0  0  0  0  0  0  0  0  0  0  # atno 17370 bound_to 10713
  157.7325  131.0599  150.5623 LP  0  0  0  0  0  0  0  0  0  0  0  0  # atno 17371 bound_to 10713
  141.2112  133.7697  156.9881 LP  0  0  0  0  0  0  0  0  0  0  0  0  # atno 17394 bound_to 11000
  140.1040  134.9518  157.1966 LP  0  0  0  0  0  0  0  0  0  0  0  0  # atno 17395 bound_to 11000

$$$$
