AV-unprocessed.smi:1985|AV-procd|sdf|8045|dock4
  -GOLD-   2272010243D 1   1.00000     0.00000
 Structure written by MMmdl.
 51 52  0  0  0  0  0  0  0  0  2 V2000
  145.0865  135.7632  150.1154 C   0  0  0  0  0  0  0  0  0  0  0  0
  145.8662  136.9909  150.6189 C   0  0  0  0  0  0  0  0  0  0  0  0
  145.7176  137.3058  152.1390 C   0  0  2  0  0  0  0  0  0  0  0  0
  144.2055  137.2397  152.4824 C   0  0  0  0  0  0  0  0  0  0  0  0
  146.2394  138.7479  152.4114 C   0  0  0  0  0  0  0  0  0  0  0  0
  147.6868  138.8682  152.2618 N   0  0  0  0  0  0  0  0  0  0  0  0
  148.3917  139.9677  152.5622 C   0  0  0  0  0  0  0  0  0  0  0  0
  147.8818  140.9828  153.0384 O   0  0  0  0  0  0  0  0  0  0  0  0
  149.9007  139.8939  152.2889 C   0  0  0  0  0  0  0  0  0  0  0  0
  150.7146  139.8611  153.5115 N   0  0  0  0  0  0  0  0  0  0  0  0
  151.1680  138.6489  153.9989 C   0  0  0  0  0  0  0  0  0  0  0  0
  151.9102  138.5276  155.1209 C   0  0  0  0  0  0  0  0  0  0  0  0
  152.2860  139.7012  155.8993 C   0  0  0  0  0  0  0  0  0  0  0  0
  152.9427  139.6390  156.9395 O   0  0  0  0  0  0  0  0  0  0  0  0
  151.8231  140.9294  155.3721 N   0  0  0  0  0  0  0  0  0  0  0  0
  152.1400  142.1323  156.1142 C   0  0  0  0  0  0  0  0  0  0  0  0
  151.0329  141.0492  154.2056 C   0  0  0  0  0  0  0  0  0  0  0  0
  150.6209  142.1383  153.7987 O   0  0  0  0  0  0  0  0  0  0  0  0
  146.4865  136.2966  152.9564 N   0  3  0  0  0  0  0  0  0  0  0  0
  146.6546  136.6229  154.4013 C   0  0  0  0  0  0  0  0  0  0  0  0
  147.6192  135.6306  155.0700 C   0  0  0  0  0  0  0  0  0  0  0  0
  147.1210  134.3096  154.9161 O   0  0  0  0  0  0  0  0  0  0  0  0
  147.0310  133.9390  153.5479 C   0  0  0  0  0  0  0  0  0  0  0  0
  146.0562  134.8761  152.8144 C   0  0  0  0  0  0  0  0  0  0  0  0
  145.2525  135.6198  149.0474 H   0  0  0  0  0  0  0  0  0  0  0  0
  144.0128  135.8769  150.2616 H   0  0  0  0  0  0  0  0  0  0  0  0
  145.4008  134.8477  150.6166 H   0  0  0  0  0  0  0  0  0  0  0  0
  146.9168  136.8735  150.3543 H   0  0  0  0  0  0  0  0  0  0  0  0
  145.5374  137.8505  150.0338 H   0  0  0  0  0  0  0  0  0  0  0  0
  143.6001  137.7781  151.7525 H   0  0  0  0  0  0  0  0  0  0  0  0
  143.9868  137.6893  153.4514 H   0  0  0  0  0  0  0  0  0  0  0  0
  143.8395  136.2129  152.5055 H   0  0  0  0  0  0  0  0  0  0  0  0
  145.7789  139.4632  151.7300 H   0  0  0  0  0  0  0  0  0  0  0  0
  145.9766  139.0629  153.4218 H   0  0  0  0  0  0  0  0  0  0  0  0
  148.1803  138.0738  151.8809 H   0  0  0  0  0  0  0  0  0  0  0  0
  150.0954  139.0051  151.6872 H   0  0  0  0  0  0  0  0  0  0  0  0
  150.2004  140.7406  151.6690 H   0  0  0  0  0  0  0  0  0  0  0  0
  150.9125  137.7484  153.4595 H   0  0  0  0  0  0  0  0  0  0  0  0
  152.2278  137.5486  155.4488 H   0  0  0  0  0  0  0  0  0  0  0  0
  152.1131  143.0005  155.4552 H   0  0  0  0  0  0  0  0  0  0  0  0
  153.1511  142.0450  156.5152 H   0  0  0  0  0  0  0  0  0  0  0  0
  151.3990  142.2164  156.9104 H   0  0  0  0  0  0  0  0  0  0  0  0
  147.0516  137.6263  154.5420 H   0  0  0  0  0  0  0  0  0  0  0  0
  145.6935  136.5808  154.9140 H   0  0  0  0  0  0  0  0  0  0  0  0
  148.6210  135.7108  154.6447 H   0  0  0  0  0  0  0  0  0  0  0  0
  147.7066  135.8515  156.1340 H   0  0  0  0  0  0  0  0  0  0  0  0
  148.0188  133.9654  153.0849 H   0  0  0  0  0  0  0  0  0  0  0  0
  146.6793  132.9090  153.4849 H   0  0  0  0  0  0  0  0  0  0  0  0
  145.0517  134.7431  153.2165 H   0  0  0  0  0  0  0  0  0  0  0  0
  146.0295  134.5656  151.7717 H   0  0  0  0  0  0  0  0  0  0  0  0
  147.4196  136.3225  152.5705 H   0  0  0  0  0  0  0  0  0  0  0  0
  1  2  1  0  0  0  0
  1 25  1  0  0  0  0
  1 26  1  0  0  0  0
  1 27  1  0  0  0  0
  2  3  1  0  0  0  0
  2 28  1  0  0  0  0
  2 29  1  0  0  0  0
  3  4  1  0  0  0  0
  3  5  1  0  0  0  0
  3 19  1  0  0  0  0
  4 30  1  0  0  0  0
  4 31  1  0  0  0  0
  4 32  1  0  0  0  0
  5  6  1  0  0  0  0
  5 33  1  0  0  0  0
  5 34  1  0  0  0  0
  6  7  1  0  0  0  0
  6 35  1  0  0  0  0
  7  8  2  0  0  0  0
  7  9  1  0  0  0  0
  9 10  1  0  0  0  0
  9 36  1  0  0  0  0
  9 37  1  0  0  0  0
 10 17  1  0  0  0  0
 10 11  1  0  0  0  0
 11 12  2  0  0  0  0
 11 38  1  0  0  0  0
 12 13  1  0  0  0  0
 12 39  1  0  0  0  0
 13 14  2  0  0  0  0
 13 15  1  0  0  0  0
 15 16  1  0  0  0  0
 15 17  1  0  0  0  0
 16 40  1  0  0  0  0
 16 41  1  0  0  0  0
 16 42  1  0  0  0  0
 17 18  2  0  0  0  0
 19 24  1  0  0  0  0
 19 20  1  0  0  0  0
 19 51  1  0  0  0  0
 20 21  1  0  0  0  0
 20 43  1  0  0  0  0
 20 44  1  0  0  0  0
 21 22  1  0  0  0  0
 21 45  1  0  0  0  0
 21 46  1  0  0  0  0
 22 23  1  0  0  0  0
 23 24  1  0  0  0  0
 23 47  1  0  0  0  0
 23 48  1  0  0  0  0
 24 49  1  0  0  0  0
 24 50  1  0  0  0  0
M  CHG  1  19   1
M  END
> <s_m_source_file>
AV-unprocessed.smi

> <i_m_source_file_index>
1985

> <i_lp_mmshare_version>
43012

> <i_f3d_flags>
0

> <s_epik_input>
W0NIMl0xW0NIMl1PW0NIMl1bQ0gyXU4xW0NAQF0oW0NIM10pKFtDSDJdW0NIM10pW0NIMl1bTkhdQyg9TylbQ0gyXW4yW2NIXVtjSF1jKD1PKW4oW0NIM10pYzI9Tw==

> <s_epik_cmdline>
J2VwaWtfcHl0aG9uJywgJy1waCcsICc3LjAnLCAnLXRuJywgJzgnLCAnLW1hJywgJzIwMCcsICctbWV0YWxfYmluZGluZycsICctaW1hZScsICc8aW5maWxlLm1hZT4nLCAnLW9tYWUnLCAnPG91dGZpbGUubWFlPic=

> <r_lp_tautomer_probability>
1

> <r_epik_Ionization_Penalty>
0.519658

> <r_epik_Ionization_Penalty_Charging>
0.519658

> <r_epik_Ionization_Penalty_Neutral>
8.70177e-08

> <r_epik_State_Penalty>
0.527569

> <r_epik_Charging_Adjusted_Penalty>
1.04723

> <i_epik_Tot_Q>
1

> <i_epik_Tot_abs_Q>
1

> <r_epik_Metal_State_Penalty>
0.527613

> <b_epik_Metal_Only>
0

> <s_lp_Force_Field>
OPLS_2005

> <r_lp_Energy>
37.4979

> <b_lp_Chiralities_Consistent>
1

> <s_lp_Variant>
AV-unprocessed.smi:1985-4

> <Gold.Version>
5.8.1

> <Gold.Id.Protein>
6NUR|6NUR_protein|mol2

> <Gold.PLP.Fitness>
50.0628

> <Gold.PLP.PLP>
-35.9752

> <Gold.PLP.part.hbond>
-3.0000

> <Gold.PLP.part.metal>
0.0000

> <Gold.PLP.part.buried>
0.1737

> <Gold.PLP.part.nonpolar>
-34.0473

> <Gold.PLP.part.repulsive>
0.2958

> <Gold.PLP.ligand.clash>
0.0000

> <Gold.PLP.ligand.torsion>
0.7211

> <Gold.PLP.Chemscore.Hbond>
3.9920

> <Gold.PLP.Chemscore.CHOScore>
1.1023

> <Gold.PLP.Chemscore.Metal>
0.0000

> <Gold.Chemscore.Hbonds>
donor molecule, donor type, donor heavy atom, donor atom, acceptor molecule, acceptor atom, score
      L1  H     6    35       P1  7948  1.00
      L1  H    19    51       P1  7948  2.00
      P1  H  7997  8008       L1    14  1.00
      P1  H  8011  8017       L1    18  0.11
      L1  C    11    38       P1  7948  0.05
      L1  C    11    38       P1  7949  0.70

> <Gold.PLP.Chemscore.Internal.Correction>
0.2470

> <Gold.Rescore>
     Score         DG    S(hbond)    S(metal)    S(lipo)     H(rot)  DE(clash)    DE(int)     intcor
     14.47     -17.75       2.98        0.00      69.46       2.27       1.77       1.51       ----

> <Gold.Chemscore.Fitness>
14.4700

> <Gold.Chemscore.DG>
-17.7539

> <Gold.Chemscore.ZeroCoef>
-5.4800

> <Gold.Chemscore.Hbond>
2.9833

> <Gold.Chemscore.Metal>
0.0000

> <Gold.Chemscore.Lipo>
69.4611

> <Gold.Chemscore.Internal_Hbond>
0.0000

> <Gold.Chemscore.DEClash>
1.7715

> <Gold.Chemscore.DEInternal>
1.5123

> <Gold.Chemscore.Rot>
2.2724

> <Gold.Chemscore.Internal.Correction>
   9.000000E+99

> <Gold.Chemscore.Hbonds>
donor molecule, donor type, donor heavy atom, donor atom, acceptor molecule, acceptor atom, score
      L1  H     6    35       P1  7948  0.98
      L1  H    19    51       P1  7948  1.00
      P1  H  7997  8008       L1    14  0.91
      P1  H  8011  8017       L1    18  0.13

> <Gold.Chemscore.Hbond.Weighted>
-9.9643

> <Gold.Chemscore.Metal.Weighted>
-0.0000

> <Gold.Chemscore.Lipo.Weighted>
-8.1269

> <Gold.Chemscore.Internal_Hbond.Weighted>
0.0000

> <Gold.Chemscore.DEClash.Weighted>
1.7715

> <Gold.Chemscore.DEInternal.Weighted>
1.5123

> <Gold.Chemscore.Rot.Weighted>
5.8174

> <Gold.Chemscore.Internal.Correction.Weighted>
   9.000000E+99

> <Gold.Protein.RotatedTorsions>
[ 6907 6896 6895 6894 ] final   59.43 input  -60.11 | X-H torsion
[ 7974 7965 7964 7962 ] final   28.03 input  175.53 | X-H torsion
[ 8008 7997 7996 7995 ] final  -76.25 input   59.86 | X-H torsion
[ 10167 10162 10161 10158 ] final  123.34 input  -65.29 | X-H torsion
[ 10718 10713 10712 10709 ] final -159.56 input   66.30 | X-H torsion
[ 10763 10752 10751 10750 ] final  110.78 input  -60.55 | X-H torsion
[ 11005 11000 10999 10996 ] final   43.91 input  -57.11 | X-H torsion

> <Gold.Protein.ActiveResidues>
 VAL166  LYS551  ARG553  GLY616  TRP617  ASP618  TYR619  PRO620  LYS621  CYS622 
 ASP623  PHE694  ASN695  SER759  ASP760  ASP761  ALA762  ILE779  LEU786  VAL792 
 PHE793  MET794  SER795  GLU796  ALA797  LYS798  CYS799  TRP800  GLU811  SER814 

> <Gold.Protein.RotatedAtoms>
  152.3914  134.6436  160.0105 H   0  0  0  0  0  0  0  0  0  0  0  0  # atno 6907 bound_to 6896
  151.6669  133.3309  159.3195 H   0  0  0  0  0  0  0  0  0  0  0  0  # atno 6908 bound_to 6896
  150.7829  134.6833  159.6501 H   0  0  0  0  0  0  0  0  0  0  0  0  # atno 6909 bound_to 6896
  146.1752  139.7111  142.8940 H   0  0  0  0  0  0  0  0  0  0  0  0  # atno 7974 bound_to 7965
  154.5489  140.0730  156.8635 H   0  0  0  0  0  0  0  0  0  0  0  0  # atno 8008 bound_to 7997
  155.3032  140.3385  155.4228 H   0  0  0  0  0  0  0  0  0  0  0  0  # atno 8009 bound_to 7997
  156.1943  140.1698  156.8015 H   0  0  0  0  0  0  0  0  0  0  0  0  # atno 8010 bound_to 7997
  139.5805  144.6984  151.3541 H   0  0  0  0  0  0  0  0  0  0  0  0  # atno 10167 bound_to 10162
  156.5698  130.8683  151.2834 H   0  0  0  0  0  0  0  0  0  0  0  0  # atno 10718 bound_to 10713
  153.4539  135.3737  155.2300 H   0  0  0  0  0  0  0  0  0  0  0  0  # atno 10763 bound_to 10752
  154.8756  135.3892  154.4005 H   0  0  0  0  0  0  0  0  0  0  0  0  # atno 10764 bound_to 10752
  153.4569  135.7086  153.6138 H   0  0  0  0  0  0  0  0  0  0  0  0  # atno 10765 bound_to 10752
  140.1601  134.4352  155.8323 H   0  0  0  0  0  0  0  0  0  0  0  0  # atno 11005 bound_to 11000
  145.4232  141.0408  143.2952 LP  0  0  0  0  0  0  0  0  0  0  0  0  # atno 17320 bound_to 7965
  144.8224  139.5768  143.6981 LP  0  0  0  0  0  0  0  0  0  0  0  0  # atno 17321 bound_to 7965
  140.7084  143.7455  150.7522 LP  0  0  0  0  0  0  0  0  0  0  0  0  # atno 17342 bound_to 10162
  140.0986  143.4809  152.2438 LP  0  0  0  0  0  0  0  0  0  0  0  0  # atno 17343 bound_to 10162
  157.7350  130.9756  150.2062 LP  0  0  0  0  0  0  0  0  0  0  0  0  # atno 17370 bound_to 10713
  156.2725  130.3723  149.8017 LP  0  0  0  0  0  0  0  0  0  0  0  0  # atno 17371 bound_to 10713
  141.2208  133.6909  156.7578 LP  0  0  0  0  0  0  0  0  0  0  0  0  # atno 17394 bound_to 11000
  140.2500  134.8548  157.3658 LP  0  0  0  0  0  0  0  0  0  0  0  0  # atno 17395 bound_to 11000

$$$$
