AV-unprocessed.smi:139|AV-procd|sdf|1183|dock5
  -GOLD-   2262018333D 1   1.00000     0.00000
 Structure written by MMmdl.
 50 53  0  0  0  0  0  0  0  0  1 V2000
  153.5414  139.0428  157.8523 O   0  0  0  0  0  0  0  0  0  0  0  0
  152.4707  138.9957  158.4592 C   0  0  0  0  0  0  0  0  0  0  0  0
  151.8121  137.6464  158.7800 C   0  0  0  0  0  0  0  0  0  0  0  0
  150.8258  137.2346  157.7577 N   0  0  0  0  0  0  0  0  0  0  0  0
  151.2278  136.3424  156.7331 C   0  0  0  0  0  0  0  0  0  0  0  0
  152.3744  135.8949  156.6875 O   0  0  0  0  0  0  0  0  0  0  0  0
  150.2020  136.0089  155.7514 C   0  0  0  0  0  0  0  0  0  0  0  0
  150.4944  135.1711  154.7422 F   0  0  0  0  0  0  0  0  0  0  0  0
  148.9608  136.5301  155.8371 C   0  0  0  0  0  0  0  0  0  0  0  0
  148.5806  137.3984  156.8452 N   0  0  0  0  0  0  0  0  0  0  0  0
  147.1881  137.9906  156.9171 C   0  0  2  0  0  0  0  0  0  0  0  0
  146.4971  137.5977  158.2375 C   0  0  0  0  0  0  0  0  0  0  0  0
  145.1800  137.0115  157.7681 C   0  0  0  0  0  0  0  0  0  0  0  0
  145.5464  136.4692  156.3951 C   0  0  0  0  0  0  0  0  0  0  0  0
  146.3997  137.4816  155.8790 O   0  0  0  0  0  0  0  0  0  0  0  0
  149.5214  137.7803  157.8260 C   0  0  0  0  0  0  0  0  0  0  0  0
  149.2111  138.5735  158.7182 O   0  0  0  0  0  0  0  0  0  0  0  0
  151.8063  140.0865  158.8762 N   0  0  0  0  0  0  0  0  0  0  0  0
  152.1836  141.4829  158.6443 C   0  0  1  0  0  0  0  0  0  0  0  0
  151.3125  142.1274  157.5462 C   0  0  0  0  0  0  0  0  0  0  0  0
  151.5952  143.6253  157.4156 C   0  0  0  0  0  0  0  0  0  0  0  0
  151.2905  144.3571  158.7274 C   0  0  0  0  0  0  0  0  0  0  0  0
  151.8921  143.6814  159.9506 C   0  0  0  0  0  0  0  0  0  0  0  0
  152.0239  144.4305  161.1390 C   0  0  0  0  0  0  0  0  0  0  0  0
  152.5641  143.8432  162.2976 C   0  0  0  0  0  0  0  0  0  0  0  0
  152.9782  142.4998  162.2738 C   0  0  0  0  0  0  0  0  0  0  0  0
  152.8501  141.7460  161.0925 C   0  0  0  0  0  0  0  0  0  0  0  0
  152.2985  142.3215  159.9238 C   0  0  0  0  0  0  0  0  0  0  0  0
  152.6021  136.9055  158.9077 H   0  0  0  0  0  0  0  0  0  0  0  0
  151.3346  137.6984  159.7604 H   0  0  0  0  0  0  0  0  0  0  0  0
  148.2520  136.2458  155.0745 H   0  0  0  0  0  0  0  0  0  0  0  0
  147.3190  139.0656  156.7826 H   0  0  0  0  0  0  0  0  0  0  0  0
  147.0840  136.8427  158.7629 H   0  0  0  0  0  0  0  0  0  0  0  0
  146.3730  138.4648  158.8865 H   0  0  0  0  0  0  0  0  0  0  0  0
  144.7890  136.2472  158.4398 H   0  0  0  0  0  0  0  0  0  0  0  0
  144.4316  137.7991  157.6707 H   0  0  0  0  0  0  0  0  0  0  0  0
  146.0881  135.5263  156.4813 H   0  0  0  0  0  0  0  0  0  0  0  0
  144.6772  136.3119  155.7566 H   0  0  0  0  0  0  0  0  0  0  0  0
  150.9392  139.9375  159.3713 H   0  0  0  0  0  0  0  0  0  0  0  0
  153.2006  141.4408  158.2526 H   0  0  0  0  0  0  0  0  0  0  0  0
  151.4768  141.6237  156.5930 H   0  0  0  0  0  0  0  0  0  0  0  0
  150.2540  142.0047  157.7780 H   0  0  0  0  0  0  0  0  0  0  0  0
  152.6441  143.7689  157.1530 H   0  0  0  0  0  0  0  0  0  0  0  0
  151.0099  144.0561  156.6027 H   0  0  0  0  0  0  0  0  0  0  0  0
  151.6455  145.3865  158.6651 H   0  0  0  0  0  0  0  0  0  0  0  0
  150.2111  144.4075  158.8742 H   0  0  0  0  0  0  0  0  0  0  0  0
  151.7071  145.4629  161.1651 H   0  0  0  0  0  0  0  0  0  0  0  0
  152.6614  144.4232  163.2034 H   0  0  0  0  0  0  0  0  0  0  0  0
  153.3955  142.0469  163.1610 H   0  0  0  0  0  0  0  0  0  0  0  0
  153.1786  140.7172  161.0913 H   0  0  0  0  0  0  0  0  0  0  0  0
  1  2  2  0  0  0  0
  2  3  1  0  0  0  0
  2 18  1  0  0  0  0
  3  4  1  0  0  0  0
  3 29  1  0  0  0  0
  3 30  1  0  0  0  0
  4 16  1  0  0  0  0
  4  5  1  0  0  0  0
  5  6  2  0  0  0  0
  5  7  1  0  0  0  0
  7  8  1  0  0  0  0
  7  9  2  0  0  0  0
  9 10  1  0  0  0  0
  9 31  1  0  0  0  0
 10 11  1  0  0  0  0
 10 16  1  0  0  0  0
 11 15  1  0  0  0  0
 11 12  1  0  0  0  0
 11 32  1  0  0  0  0
 12 13  1  0  0  0  0
 12 33  1  0  0  0  0
 12 34  1  0  0  0  0
 13 14  1  0  0  0  0
 13 35  1  0  0  0  0
 13 36  1  0  0  0  0
 14 15  1  0  0  0  0
 14 37  1  0  0  0  0
 14 38  1  0  0  0  0
 16 17  2  0  0  0  0
 18 19  1  0  0  0  0
 18 39  1  0  0  0  0
 19 28  1  0  0  0  0
 19 20  1  0  0  0  0
 19 40  1  0  0  0  0
 20 21  1  0  0  0  0
 20 41  1  0  0  0  0
 20 42  1  0  0  0  0
 21 22  1  0  0  0  0
 21 43  1  0  0  0  0
 21 44  1  0  0  0  0
 22 23  1  0  0  0  0
 22 45  1  0  0  0  0
 22 46  1  0  0  0  0
 23 28  2  0  0  0  0
 23 24  1  0  0  0  0
 24 25  2  0  0  0  0
 24 47  1  0  0  0  0
 25 26  1  0  0  0  0
 25 48  1  0  0  0  0
 26 27  2  0  0  0  0
 26 49  1  0  0  0  0
 27 28  1  0  0  0  0
 27 50  1  0  0  0  0
M  END
> <s_m_source_file>
AV-unprocessed.smi

> <i_m_source_file_index>
139

> <i_lp_mmshare_version>
43012

> <i_f3d_flags>
0

> <s_epik_input>
W2NIXTFbY0hdW2NIXVtjSF1jKGMxMilbQ0BASF0oW0NIMl1bQ0gyXVtDSDJdMilbTkhdQyg9TylbQ0gyXW4zYyg9TyljKEYpW2NIXW4oYzM9TylbQ0BASF00W0NIMl1bQ0gyXVtDSDJdTzQ=

> <s_epik_cmdline>
J2VwaWtfcHl0aG9uJywgJy1waCcsICc3LjAnLCAnLXRuJywgJzgnLCAnLW1hJywgJzIwMCcsICctbWV0YWxfYmluZGluZycsICctaW1hZScsICc8aW5maWxlLm1hZT4nLCAnLW9tYWUnLCAnPG91dGZpbGUubWFlPic=

> <r_lp_tautomer_probability>
1

> <r_epik_Ionization_Penalty>
3.261e-08

> <r_epik_Ionization_Penalty_Charging>
3.6725e-09

> <r_epik_Ionization_Penalty_Neutral>
2.89375e-08

> <r_epik_State_Penalty>
-0

> <r_epik_Charging_Adjusted_Penalty>
3.6725e-09

> <i_epik_Tot_Q>
0

> <i_epik_Tot_abs_Q>
0

> <r_epik_Metal_State_Penalty>
-0

> <b_epik_Metal_Only>
0

> <s_epik_Chemistry_Notes>
This compound contains an acetal/aminal-like group ( X-CH(R)-Y where X, Y are N, S, or O) that may be acid/base labile, releasing an aldehyde.

> <s_lp_Force_Field>
OPLS_2005

> <r_lp_Energy>
30.9596

> <b_lp_Chiralities_Consistent>
1

> <s_lp_Variant>
AV-unprocessed.smi:139-3

> <Gold.Version>
5.8.1

> <Gold.Id.Protein>
6NUR|6NUR_protein|mol2

> <Gold.PLP.Fitness>
50.4867

> <Gold.PLP.PLP>
-46.0140

> <Gold.PLP.part.hbond>
-3.3369

> <Gold.PLP.part.metal>
0.0000

> <Gold.PLP.part.buried>
-6.6137

> <Gold.PLP.part.nonpolar>
-35.9010

> <Gold.PLP.part.repulsive>
0.1414

> <Gold.PLP.ligand.clash>
0.0000

> <Gold.PLP.ligand.torsion>
0.8045

> <Gold.PLP.Chemscore.Hbond>
2.0000

> <Gold.PLP.Chemscore.CHOScore>
0.0000

> <Gold.PLP.Chemscore.Metal>
0.0000

> <Gold.Chemscore.Hbonds>
donor molecule, donor type, donor heavy atom, donor atom, acceptor molecule, acceptor atom, score
      P1  H  7997  8009       L1     1  1.00
      P1  H 10752 10764       L1     6  1.00

> <Gold.PLP.Chemscore.Internal.Correction>
0.0816

> <Gold.Rescore>
     Score         DG    S(hbond)    S(metal)    S(lipo)     H(rot)  DE(clash)    DE(int)     intcor
     19.35     -21.30       2.00        0.00     117.91       1.82       0.05       1.90       ----

> <Gold.Chemscore.Fitness>
19.3522

> <Gold.Chemscore.DG>
-21.2953

> <Gold.Chemscore.ZeroCoef>
-5.4800

> <Gold.Chemscore.Hbond>
1.9978

> <Gold.Chemscore.Metal>
0.0000

> <Gold.Chemscore.Lipo>
117.9068

> <Gold.Chemscore.Internal_Hbond>
0.0000

> <Gold.Chemscore.DEClash>
0.0476

> <Gold.Chemscore.DEInternal>
1.8955

> <Gold.Chemscore.Rot>
1.8174

> <Gold.Chemscore.Internal.Correction>
   9.000000E+99

> <Gold.Chemscore.Hbonds>
donor molecule, donor type, donor heavy atom, donor atom, acceptor molecule, acceptor atom, score
      P1  H  7997  8009       L1     1  1.00
      P1  H 10752 10764       L1     6  1.00

> <Gold.Chemscore.Hbond.Weighted>
-6.6726

> <Gold.Chemscore.Metal.Weighted>
-0.0000

> <Gold.Chemscore.Lipo.Weighted>
-13.7951

> <Gold.Chemscore.Internal_Hbond.Weighted>
0.0000

> <Gold.Chemscore.DEClash.Weighted>
0.0476

> <Gold.Chemscore.DEInternal.Weighted>
1.8955

> <Gold.Chemscore.Rot.Weighted>
4.6524

> <Gold.Chemscore.Internal.Correction.Weighted>
   9.000000E+99

> <Gold.Protein.RotatedTorsions>
[ 6907 6896 6895 6894 ] final  -77.48 input  -60.11 | X-H torsion
[ 7974 7965 7964 7962 ] final  157.78 input  175.53 | X-H torsion
[ 8008 7997 7996 7995 ] final  164.91 input   59.86 | X-H torsion
[ 10167 10162 10161 10158 ] final  -59.17 input  -65.29 | X-H torsion
[ 10718 10713 10712 10709 ] final  -21.26 input   66.30 | X-H torsion
[ 10763 10752 10751 10750 ] final  -16.32 input  -60.55 | X-H torsion
[ 11005 11000 10999 10996 ] final  -61.85 input  -57.11 | X-H torsion

> <Gold.Protein.ActiveResidues>
 VAL166  LYS551  ARG553  GLY616  TRP617  ASP618  TYR619  PRO620  LYS621  CYS622 
 ASP623  PHE694  ASN695  SER759  ASP760  ASP761  ALA762  ILE779  LEU786  VAL792 
 PHE793  MET794  SER795  GLU796  ALA797  LYS798  CYS799  TRP800  GLU811  SER814 

> <Gold.Protein.RotatedAtoms>
  150.6998  134.4416  159.5294 H   0  0  0  0  0  0  0  0  0  0  0  0  # atno 6907 bound_to 6896
  152.2125  134.8485  160.0505 H   0  0  0  0  0  0  0  0  0  0  0  0  # atno 6908 bound_to 6896
  151.9365  133.3591  159.3986 H   0  0  0  0  0  0  0  0  0  0  0  0  # atno 6909 bound_to 6896
  144.7883  139.7388  143.6231 H   0  0  0  0  0  0  0  0  0  0  0  0  # atno 7974 bound_to 7965
  156.1842  140.1684  156.8216 H   0  0  0  0  0  0  0  0  0  0  0  0  # atno 8008 bound_to 7997
  154.5395  140.0739  156.8518 H   0  0  0  0  0  0  0  0  0  0  0  0  # atno 8009 bound_to 7997
  155.3243  140.3375  155.4243 H   0  0  0  0  0  0  0  0  0  0  0  0  # atno 8010 bound_to 7997
  140.6152  143.2400  151.5615 H   0  0  0  0  0  0  0  0  0  0  0  0  # atno 10167 bound_to 10162
  156.5206  130.4631  149.6599 H   0  0  0  0  0  0  0  0  0  0  0  0  # atno 10718 bound_to 10713
  153.5567  135.7010  153.5566 H   0  0  0  0  0  0  0  0  0  0  0  0  # atno 10763 bound_to 10752
  153.3466  135.4006  155.1613 H   0  0  0  0  0  0  0  0  0  0  0  0  # atno 10764 bound_to 10752
  154.8653  135.3755  154.5082 H   0  0  0  0  0  0  0  0  0  0  0  0  # atno 10765 bound_to 10752
  141.1339  133.6634  156.5439 H   0  0  0  0  0  0  0  0  0  0  0  0  # atno 11005 bound_to 11000
  146.2125  139.5491  142.9672 LP  0  0  0  0  0  0  0  0  0  0  0  0  # atno 17320 bound_to 7965
  145.5861  141.0376  143.2095 LP  0  0  0  0  0  0  0  0  0  0  0  0  # atno 17321 bound_to 7965
  139.5392  144.2694  152.1316 LP  0  0  0  0  0  0  0  0  0  0  0  0  # atno 17342 bound_to 10162
  140.1901  144.4760  150.6483 LP  0  0  0  0  0  0  0  0  0  0  0  0  # atno 17343 bound_to 10162
  156.3153  130.7251  151.2152 LP  0  0  0  0  0  0  0  0  0  0  0  0  # atno 17370 bound_to 10713
  157.7437  131.0470  150.4923 LP  0  0  0  0  0  0  0  0  0  0  0  0  # atno 17371 bound_to 10713
  140.4118  134.7266  157.4840 LP  0  0  0  0  0  0  0  0  0  0  0  0  # atno 17394 bound_to 11000
  140.0422  134.6251  155.8966 LP  0  0  0  0  0  0  0  0  0  0  0  0  # atno 17395 bound_to 11000

$$$$
