AV-unprocessed.smi:2217|AV-procd|sdf|8975|dock5
  -GOLD-   2272012193D 1   1.00000     0.00000
 Structure written by MMmdl.
 45 48  0  0  0  0  0  0  0  0  1 V2000
  150.8538  141.8301  157.2803 C   0  0  0  0  0  0  0  0  0  0  0  0
  150.2363  140.6786  156.5151 C   0  0  0  0  0  0  0  0  0  0  0  0
  150.7731  140.2480  155.2872 C   0  0  0  0  0  0  0  0  0  0  0  0
  150.1548  139.1763  154.6150 C   0  0  0  0  0  0  0  0  0  0  0  0
  149.0170  138.5581  155.1812 C   0  0  0  0  0  0  0  0  0  0  0  0
  148.4738  137.4946  154.4010 N   0  0  0  0  0  0  0  0  0  0  0  0
  147.4041  136.6954  154.6015 C   0  0  0  0  0  0  0  0  0  0  0  0
  146.6995  136.8163  155.6022 O   0  0  0  0  0  0  0  0  0  0  0  0
  147.1652  135.7768  153.6536 N   0  0  0  0  0  0  0  0  0  0  0  0
  146.1149  134.7688  153.7079 C   0  0  1  0  0  0  0  0  0  0  0  0
  145.4654  134.5316  152.3451 C   0  0  2  0  0  0  0  0  0  0  0  0
  144.1169  134.7961  151.7771 C   0  0  0  0  0  0  0  0  0  0  0  0
  143.8785  133.4072  151.1286 C   0  0  0  0  0  0  0  0  0  0  0  0
  144.9402  132.5530  151.6185 O   0  0  0  0  0  0  0  0  0  0  0  0
  145.2837  133.1204  152.8667 C   0  0  1  0  0  0  0  0  0  0  0  0
  146.6482  133.2921  153.5661 C   0  0  0  0  0  0  0  0  0  0  0  0
  146.8632  132.5113  154.8703 C   0  0  0  0  0  0  0  0  0  0  0  0
  148.1861  131.7490  154.7680 C   0  0  0  0  0  0  0  0  0  0  0  0
  148.9878  132.5101  153.7223 C   0  0  0  0  0  0  0  0  0  0  0  0
  147.9258  133.0085  152.7474 C   0  0  0  0  0  0  0  0  0  0  0  0
  148.5081  138.9839  156.3657 N   0  0  0  0  0  0  0  0  0  0  0  0
  149.1007  140.0104  157.0108 C   0  0  0  0  0  0  0  0  0  0  0  0
  151.8515  142.0624  156.9066 H   0  0  0  0  0  0  0  0  0  0  0  0
  150.9369  141.5841  158.3395 H   0  0  0  0  0  0  0  0  0  0  0  0
  150.2340  142.7215  157.1823 H   0  0  0  0  0  0  0  0  0  0  0  0
  151.6424  140.7290  154.8630 H   0  0  0  0  0  0  0  0  0  0  0  0
  150.5542  138.8355  153.6708 H   0  0  0  0  0  0  0  0  0  0  0  0
  148.9442  137.3450  153.5203 H   0  0  0  0  0  0  0  0  0  0  0  0
  147.7887  135.7465  152.8591 H   0  0  0  0  0  0  0  0  0  0  0  0
  145.3914  134.9147  154.5158 H   0  0  0  0  0  0  0  0  0  0  0  0
  146.2144  134.5908  151.5492 H   0  0  0  0  0  0  0  0  0  0  0  0
  143.3833  135.0163  152.5539 H   0  0  0  0  0  0  0  0  0  0  0  0
  144.1176  135.6052  151.0463 H   0  0  0  0  0  0  0  0  0  0  0  0
  142.9055  133.0067  151.4156 H   0  0  0  0  0  0  0  0  0  0  0  0
  143.9189  133.4525  150.0400 H   0  0  0  0  0  0  0  0  0  0  0  0
  144.4599  133.0112  153.5817 H   0  0  0  0  0  0  0  0  0  0  0  0
  146.9100  133.1987  155.7151 H   0  0  0  0  0  0  0  0  0  0  0  0
  146.0414  131.8248  155.0775 H   0  0  0  0  0  0  0  0  0  0  0  0
  148.7047  131.6742  155.7241 H   0  0  0  0  0  0  0  0  0  0  0  0
  147.9965  130.7353  154.4122 H   0  0  0  0  0  0  0  0  0  0  0  0
  149.4861  133.3611  154.1887 H   0  0  0  0  0  0  0  0  0  0  0  0
  149.7498  131.8962  153.2415 H   0  0  0  0  0  0  0  0  0  0  0  0
  147.7256  132.2295  152.0109 H   0  0  0  0  0  0  0  0  0  0  0  0
  148.2921  133.8719  152.1921 H   0  0  0  0  0  0  0  0  0  0  0  0
  148.6529  140.3064  157.9480 H   0  0  0  0  0  0  0  0  0  0  0  0
  1  2  1  0  0  0  0
  1 23  1  0  0  0  0
  1 24  1  0  0  0  0
  1 25  1  0  0  0  0
  2 22  1  0  0  0  0
  2  3  2  0  0  0  0
  3  4  1  0  0  0  0
  3 26  1  0  0  0  0
  4  5  2  0  0  0  0
  4 27  1  0  0  0  0
  5  6  1  0  0  0  0
  5 21  1  0  0  0  0
  6  7  1  0  0  0  0
  6 28  1  0  0  0  0
  7  8  2  0  0  0  0
  7  9  1  0  0  0  0
  9 10  1  0  0  0  0
  9 29  1  0  0  0  0
 10 16  1  0  0  0  0
 10 11  1  0  0  0  0
 10 30  1  0  0  0  0
 11 15  1  0  0  0  0
 11 12  1  0  0  0  0
 11 31  1  0  0  0  0
 12 13  1  0  0  0  0
 12 32  1  0  0  0  0
 12 33  1  0  0  0  0
 13 14  1  0  0  0  0
 13 34  1  0  0  0  0
 13 35  1  0  0  0  0
 14 15  1  0  0  0  0
 15 16  1  0  0  0  0
 15 36  1  0  0  0  0
 16 20  1  0  0  0  0
 16 17  1  0  0  0  0
 17 18  1  0  0  0  0
 17 37  1  0  0  0  0
 17 38  1  0  0  0  0
 18 19  1  0  0  0  0
 18 39  1  0  0  0  0
 18 40  1  0  0  0  0
 19 20  1  0  0  0  0
 19 41  1  0  0  0  0
 19 42  1  0  0  0  0
 20 43  1  0  0  0  0
 20 44  1  0  0  0  0
 21 22  2  0  0  0  0
 22 45  1  0  0  0  0
M  END
> <s_m_source_file>
AV-unprocessed.smi

> <i_m_source_file_index>
2217

> <i_lp_mmshare_version>
43012

> <i_f3d_flags>
0

> <s_epik_input>
W0NIM11jMVtjSF1bY0hdYyhuW2NIXTEpW05IXUMoPU8pW05IXVtDQEBIXTJbQ0BASF0oW0NIMl1bQ0gyXU8zKVtDQEhdM0MyNFtDSDJdW0NIMl1bQ0gyXVtDSDJdNA==

> <s_epik_cmdline>
J2VwaWtfcHl0aG9uJywgJy1waCcsICc3LjAnLCAnLXRuJywgJzgnLCAnLW1hJywgJzIwMCcsICctbWV0YWxfYmluZGluZycsICctaW1hZScsICc8aW5maWxlLm1hZT4nLCAnLW9tYWUnLCAnPG91dGZpbGUubWFlPic=

> <r_lp_tautomer_probability>
1

> <r_epik_Ionization_Penalty>
6.14796e-05

> <r_epik_Ionization_Penalty_Charging>
0

> <r_epik_Ionization_Penalty_Neutral>
6.14796e-05

> <r_epik_State_Penalty>
-0

> <r_epik_Charging_Adjusted_Penalty>
0

> <i_epik_Tot_Q>
0

> <i_epik_Tot_abs_Q>
0

> <r_epik_Metal_State_Penalty>
-0

> <b_epik_Metal_Only>
0

> <s_lp_Force_Field>
OPLS_2005

> <r_lp_Energy>
79.3106

> <b_lp_Chiralities_Consistent>
1

> <s_lp_Variant>
AV-unprocessed.smi:2217-8

> <Gold.Version>
5.8.1

> <Gold.Id.Protein>
6NUR|6NUR_protein|mol2

> <Gold.PLP.Fitness>
33.9574

> <Gold.PLP.PLP>
-28.3087

> <Gold.PLP.part.hbond>
-2.0000

> <Gold.PLP.part.metal>
0.0000

> <Gold.PLP.part.buried>
-3.0040

> <Gold.PLP.part.nonpolar>
-23.8717

> <Gold.PLP.part.repulsive>
0.1397

> <Gold.PLP.ligand.clash>
0.0000

> <Gold.PLP.ligand.torsion>
0.1607

> <Gold.PLP.Chemscore.Hbond>
1.8960

> <Gold.PLP.Chemscore.CHOScore>
0.0000

> <Gold.PLP.Chemscore.Metal>
0.0000

> <Gold.Chemscore.Hbonds>
donor molecule, donor type, donor heavy atom, donor atom, acceptor molecule, acceptor atom, score
      L1  H     6    28       P1  7948  0.91
      L1  H     9    29       P1  7948  1.00

> <Gold.PLP.Chemscore.Internal.Correction>
0.2821

> <Gold.Rescore>
     Score         DG    S(hbond)    S(metal)    S(lipo)     H(rot)  DE(clash)    DE(int)     intcor
     15.84     -17.29       1.84        0.00      70.35       1.00       0.07       1.37       ----

> <Gold.Chemscore.Fitness>
15.8440

> <Gold.Chemscore.DG>
-17.2873

> <Gold.Chemscore.ZeroCoef>
-5.4800

> <Gold.Chemscore.Hbond>
1.8372

> <Gold.Chemscore.Metal>
0.0000

> <Gold.Chemscore.Lipo>
70.3524

> <Gold.Chemscore.Internal_Hbond>
0.0000

> <Gold.Chemscore.DEClash>
0.0739

> <Gold.Chemscore.DEInternal>
1.3695

> <Gold.Chemscore.Rot>
1.0000

> <Gold.Chemscore.Internal.Correction>
   9.000000E+99

> <Gold.Chemscore.Hbonds>
donor molecule, donor type, donor heavy atom, donor atom, acceptor molecule, acceptor atom, score
      L1  H     6    28       P1  7948  0.86
      L1  H     9    29       P1  7948  0.98

> <Gold.Chemscore.Hbond.Weighted>
-6.1361

> <Gold.Chemscore.Metal.Weighted>
-0.0000

> <Gold.Chemscore.Lipo.Weighted>
-8.2312

> <Gold.Chemscore.Internal_Hbond.Weighted>
0.0000

> <Gold.Chemscore.DEClash.Weighted>
0.0739

> <Gold.Chemscore.DEInternal.Weighted>
1.3695

> <Gold.Chemscore.Rot.Weighted>
2.5600

> <Gold.Chemscore.Internal.Correction.Weighted>
   9.000000E+99

> <Gold.Protein.RotatedTorsions>
[ 6907 6896 6895 6894 ] final -144.80 input  -60.11 | X-H torsion
[ 7974 7965 7964 7962 ] final -151.24 input  175.53 | X-H torsion
[ 8008 7997 7996 7995 ] final  139.68 input   59.86 | X-H torsion
[ 10167 10162 10161 10158 ] final -143.93 input  -65.29 | X-H torsion
[ 10718 10713 10712 10709 ] final  -25.03 input   66.30 | X-H torsion
[ 10763 10752 10751 10750 ] final   85.20 input  -60.55 | X-H torsion
[ 11005 11000 10999 10996 ] final  174.30 input  -57.11 | X-H torsion

> <Gold.Protein.ActiveResidues>
 VAL166  LYS551  ARG553  GLY616  TRP617  ASP618  TYR619  PRO620  LYS621  CYS622 
 ASP623  PHE694  ASN695  SER759  ASP760  ASP761  ALA762  ILE779  LEU786  VAL792 
 PHE793  MET794  SER795  GLU796  ALA797  LYS798  CYS799  TRP800  GLU811  SER814 

> <Gold.Protein.RotatedAtoms>
  151.1190  133.5118  159.2602 H   0  0  0  0  0  0  0  0  0  0  0  0  # atno 6907 bound_to 6896
  151.1883  135.0391  159.8831 H   0  0  0  0  0  0  0  0  0  0  0  0  # atno 6908 bound_to 6896
  152.5454  134.1033  159.8380 H   0  0  0  0  0  0  0  0  0  0  0  0  # atno 6909 bound_to 6896
  144.7861  140.4825  143.5805 H   0  0  0  0  0  0  0  0  0  0  0  0  # atno 7974 bound_to 7965
  156.2987  140.2361  156.4278 H   0  0  0  0  0  0  0  0  0  0  0  0  # atno 8008 bound_to 7997
  154.8298  140.0433  157.1489 H   0  0  0  0  0  0  0  0  0  0  0  0  # atno 8009 bound_to 7997
  154.9221  140.3005  155.5214 H   0  0  0  0  0  0  0  0  0  0  0  0  # atno 8010 bound_to 7997
  139.7947  143.7917  152.2653 H   0  0  0  0  0  0  0  0  0  0  0  0  # atno 10167 bound_to 10162
  156.4698  130.4522  149.6876 H   0  0  0  0  0  0  0  0  0  0  0  0  # atno 10718 bound_to 10713
  153.1452  135.4626  154.9556 H   0  0  0  0  0  0  0  0  0  0  0  0  # atno 10763 bound_to 10752
  154.7780  135.3179  154.8052 H   0  0  0  0  0  0  0  0  0  0  0  0  # atno 10764 bound_to 10752
  153.8567  135.6916  153.4841 H   0  0  0  0  0  0  0  0  0  0  0  0  # atno 10765 bound_to 10752
  140.3498  134.7204  157.4260 H   0  0  0  0  0  0  0  0  0  0  0  0  # atno 11005 bound_to 11000
  145.5917  139.1496  143.3178 LP  0  0  0  0  0  0  0  0  0  0  0  0  # atno 17320 bound_to 7965
  146.2094  140.6043  142.9066 LP  0  0  0  0  0  0  0  0  0  0  0  0  # atno 17321 bound_to 7965
  139.8019  144.7371  150.9813 LP  0  0  0  0  0  0  0  0  0  0  0  0  # atno 17342 bound_to 10162
  140.7820  143.4337  151.0656 LP  0  0  0  0  0  0  0  0  0  0  0  0  # atno 17343 bound_to 10162
  156.3630  130.7491  151.2465 LP  0  0  0  0  0  0  0  0  0  0  0  0  # atno 17370 bound_to 10713
  157.7492  131.0345  150.4319 LP  0  0  0  0  0  0  0  0  0  0  0  0  # atno 17371 bound_to 10713
  140.0712  134.5860  155.8640 LP  0  0  0  0  0  0  0  0  0  0  0  0  # atno 17394 bound_to 11000
  141.2015  133.6619  156.5955 LP  0  0  0  0  0  0  0  0  0  0  0  0  # atno 17395 bound_to 11000

$$$$
