AV-unprocessed.smi:224|AV-procd|sdf|1712|dock8
  -GOLD-   2262020183D 1   1.00000     0.00000
 Structure written by MMmdl.
 56 59  0  0  0  0  0  0  0  0  2 V2000
  146.1090  134.2409  155.0244 C   0  0  0  0  0  0  0  0  0  0  0  0
  147.2273  135.0884  154.4042 C   0  0  1  0  0  0  0  0  0  0  0  0
  147.4415  134.6363  153.0825 O   0  0  0  0  0  0  0  0  0  0  0  0
  146.8730  136.5856  154.3688 C   0  0  0  0  0  0  0  0  0  0  0  0
  148.0688  137.4176  154.0557 N   0  3  2  0  0  0  0  0  0  0  0  0
  149.1310  137.2263  155.0835 C   0  0  0  0  0  0  0  0  0  0  0  0
  150.3919  138.0574  154.7914 C   0  0  0  0  0  0  0  0  0  0  0  0
  150.0563  139.4598  154.5691 N   0  0  0  0  0  0  0  0  0  0  0  0
  149.9661  140.3070  155.6304 C   0  0  0  0  0  0  0  0  0  0  0  0
  148.9637  141.2250  155.6794 N   0  0  0  0  0  0  0  0  0  0  0  0
  148.8772  142.0834  156.6993 C   0  0  0  0  0  0  0  0  0  0  0  0
  149.6748  142.1977  157.7615 N   0  0  0  0  0  0  0  0  0  0  0  0
  150.6736  141.2703  157.7315 C   0  0  0  0  0  0  0  0  0  0  0  0
  150.8862  140.2917  156.7189 C   0  0  0  0  0  0  0  0  0  0  0  0
  151.9873  139.5088  157.0477 N   0  0  0  0  0  0  0  0  0  0  0  0
  152.4117  140.0079  158.1761 C   0  0  0  0  0  0  0  0  0  0  0  0
  151.6898  141.0788  158.6510 N   0  0  0  0  0  0  0  0  0  0  0  0
  151.9477  141.8368  159.8653 C   0  0  0  0  0  0  0  0  0  0  0  0
  152.4575  143.2713  159.5910 C   0  0  2  0  0  0  0  0  0  0  0  0
  153.8202  143.2138  159.2058 O   0  0  0  0  0  0  0  0  0  0  0  0
  152.3326  144.2155  160.7842 C   0  0  0  0  0  0  0  0  0  0  0  0
  152.0794  145.5642  160.1258 C   0  0  0  0  0  0  0  0  0  0  0  0
  151.2157  145.2232  159.0554 O   0  0  0  0  0  0  0  0  0  0  0  0
  151.6679  143.9993  158.4850 C   0  0  0  0  0  0  0  0  0  0  0  0
  149.0771  139.6468  153.5057 C   0  0  0  0  0  0  0  0  0  0  0  0
  147.7745  138.8583  153.7730 C   0  0  1  0  0  0  0  0  0  0  0  0
  146.8493  139.0468  152.5523 C   0  0  0  0  0  0  0  0  0  0  0  0
  145.9219  134.5357  156.0574 H   0  0  0  0  0  0  0  0  0  0  0  0
  146.3737  133.1828  155.0280 H   0  0  0  0  0  0  0  0  0  0  0  0
  145.1738  134.3488  154.4739 H   0  0  0  0  0  0  0  0  0  0  0  0
  148.1436  134.9296  154.9730 H   0  0  0  0  0  0  0  0  0  0  0  0
  148.2176  135.0540  152.7405 H   0  0  0  0  0  0  0  0  0  0  0  0
  146.0615  136.7345  153.6608 H   0  0  0  0  0  0  0  0  0  0  0  0
  146.4568  136.8937  155.3293 H   0  0  0  0  0  0  0  0  0  0  0  0
  148.7329  137.4976  156.0620 H   0  0  0  0  0  0  0  0  0  0  0  0
  149.4025  136.1724  155.1432 H   0  0  0  0  0  0  0  0  0  0  0  0
  151.1210  137.9522  155.5958 H   0  0  0  0  0  0  0  0  0  0  0  0
  150.8791  137.6783  153.8921 H   0  0  0  0  0  0  0  0  0  0  0  0
  148.0544  142.7818  156.6553 H   0  0  0  0  0  0  0  0  0  0  0  0
  153.2736  139.6100  158.6920 H   0  0  0  0  0  0  0  0  0  0  0  0
  151.0310  141.8679  160.4558 H   0  0  0  0  0  0  0  0  0  0  0  0
  152.6764  141.2858  160.4613 H   0  0  0  0  0  0  0  0  0  0  0  0
  154.2407  142.5227  159.6939 H   0  0  0  0  0  0  0  0  0  0  0  0
  151.4605  143.9523  161.3836 H   0  0  0  0  0  0  0  0  0  0  0  0
  153.2018  144.2130  161.4433 H   0  0  0  0  0  0  0  0  0  0  0  0
  151.6202  146.2859  160.8016 H   0  0  0  0  0  0  0  0  0  0  0  0
  153.0037  145.9923  159.7350 H   0  0  0  0  0  0  0  0  0  0  0  0
  152.2867  144.2128  157.6118 H   0  0  0  0  0  0  0  0  0  0  0  0
  150.8069  143.4254  158.1412 H   0  0  0  0  0  0  0  0  0  0  0  0
  148.8418  140.6987  153.3536 H   0  0  0  0  0  0  0  0  0  0  0  0
  149.5294  139.3059  152.5735 H   0  0  0  0  0  0  0  0  0  0  0  0
  147.2880  139.2828  154.6529 H   0  0  0  0  0  0  0  0  0  0  0  0
  146.7660  140.1022  152.2914 H   0  0  0  0  0  0  0  0  0  0  0  0
  145.8324  138.6996  152.7254 H   0  0  0  0  0  0  0  0  0  0  0  0
  147.2380  138.5249  151.6769 H   0  0  0  0  0  0  0  0  0  0  0  0
  148.4415  137.0523  153.1906 H   0  0  0  0  0  0  0  0  0  0  0  0
  1  2  1  0  0  0  0
  1 28  1  0  0  0  0
  1 29  1  0  0  0  0
  1 30  1  0  0  0  0
  2  3  1  0  0  0  0
  2  4  1  0  0  0  0
  2 31  1  0  0  0  0
  3 32  1  0  0  0  0
  4  5  1  0  0  0  0
  4 33  1  0  0  0  0
  4 34  1  0  0  0  0
  5 26  1  0  0  0  0
  5  6  1  0  0  0  0
  5 56  1  0  0  0  0
  6  7  1  0  0  0  0
  6 35  1  0  0  0  0
  6 36  1  0  0  0  0
  7  8  1  0  0  0  0
  7 37  1  0  0  0  0
  7 38  1  0  0  0  0
  8  9  1  0  0  0  0
  8 25  1  0  0  0  0
  9 14  1  0  0  0  0
  9 10  2  0  0  0  0
 10 11  1  0  0  0  0
 11 12  2  0  0  0  0
 11 39  1  0  0  0  0
 12 13  1  0  0  0  0
 13 17  1  0  0  0  0
 13 14  2  0  0  0  0
 14 15  1  0  0  0  0
 15 16  2  0  0  0  0
 16 17  1  0  0  0  0
 16 40  1  0  0  0  0
 17 18  1  0  0  0  0
 18 19  1  0  0  0  0
 18 41  1  0  0  0  0
 18 42  1  0  0  0  0
 19 24  1  0  0  0  0
 19 20  1  0  0  0  0
 19 21  1  0  0  0  0
 20 43  1  0  0  0  0
 21 22  1  0  0  0  0
 21 44  1  0  0  0  0
 21 45  1  0  0  0  0
 22 23  1  0  0  0  0
 22 46  1  0  0  0  0
 22 47  1  0  0  0  0
 23 24  1  0  0  0  0
 24 48  1  0  0  0  0
 24 49  1  0  0  0  0
 25 26  1  0  0  0  0
 25 50  1  0  0  0  0
 25 51  1  0  0  0  0
 26 27  1  0  0  0  0
 26 52  1  0  0  0  0
 27 53  1  0  0  0  0
 27 54  1  0  0  0  0
 27 55  1  0  0  0  0
M  CHG  1   5   1
M  END
> <s_m_source_file>
AV-unprocessed.smi

> <i_m_source_file_index>
224

> <i_lp_mmshare_version>
43012

> <i_f3d_flags>
0

> <s_epik_input>
W0NIM11bQ0BIXShbT0hdKVtDSDJdTjFbQ0gyXVtDSDJdTihbQ0gyXVtDQEhdMVtDSDNdKWMobltjSF1uMiljKGMyMyluW2NIXW4zW0NIMl1bQ0BAXTQoW09IXSlbQ0gyXVtDSDJdT1tDSDJdNA==

> <s_epik_cmdline>
J2VwaWtfcHl0aG9uJywgJy1waCcsICc3LjAnLCAnLXRuJywgJzgnLCAnLW1hJywgJzIwMCcsICctbWV0YWxfYmluZGluZycsICctaW1hZScsICc8aW5maWxlLm1hZT4nLCAnLW9tYWUnLCAnPG91dGZpbGUubWFlPic=

> <r_lp_tautomer_probability>
1

> <r_epik_Ionization_Penalty>
0.00516958

> <r_epik_Ionization_Penalty_Charging>
0.00509693

> <r_epik_Ionization_Penalty_Neutral>
7.26542e-05

> <r_epik_State_Penalty>
-0

> <r_epik_Charging_Adjusted_Penalty>
0.00509693

> <i_epik_Tot_Q>
1

> <i_epik_Tot_abs_Q>
1

> <r_epik_Metal_State_Penalty>
-0

> <b_epik_Metal_Only>
0

> <s_lp_Force_Field>
OPLS_2005

> <r_lp_Energy>
47.1484

> <b_lp_Chiralities_Consistent>
1

> <s_lp_Variant>
AV-unprocessed.smi:224-6

> <Gold.Version>
5.8.1

> <Gold.Id.Protein>
6NUR|6NUR_protein|mol2

> <Gold.PLP.Fitness>
45.6347

> <Gold.PLP.PLP>
-35.9170

> <Gold.PLP.part.hbond>
-1.9165

> <Gold.PLP.part.metal>
0.0000

> <Gold.PLP.part.buried>
2.5904

> <Gold.PLP.part.nonpolar>
-35.5607

> <Gold.PLP.part.repulsive>
0.4938

> <Gold.PLP.ligand.clash>
0.0000

> <Gold.PLP.ligand.torsion>
0.6624

> <Gold.PLP.Chemscore.Hbond>
3.0341

> <Gold.PLP.Chemscore.CHOScore>
0.4718

> <Gold.PLP.Chemscore.Metal>
0.0000

> <Gold.Chemscore.Hbonds>
donor molecule, donor type, donor heavy atom, donor atom, acceptor molecule, acceptor atom, score
      L1  H     3    32       P1  7948  1.00
      L1  H     5    56       P1  7948  2.00
      P1  H  7989  7998       L1     8  0.06
      L1  C    11    39       P1  8028  0.55

> <Gold.PLP.Chemscore.Internal.Correction>
0.5245

> <Gold.Rescore>
     Score         DG    S(hbond)    S(metal)    S(lipo)     H(rot)  DE(clash)    DE(int)     intcor
     10.25     -14.96       1.99        0.00      97.89       3.36       2.77       1.94       ----

> <Gold.Chemscore.Fitness>
10.2512

> <Gold.Chemscore.DG>
-14.9597

> <Gold.Chemscore.ZeroCoef>
-5.4800

> <Gold.Chemscore.Hbond>
1.9853

> <Gold.Chemscore.Metal>
0.0000

> <Gold.Chemscore.Lipo>
97.8901

> <Gold.Chemscore.Internal_Hbond>
0.0000

> <Gold.Chemscore.DEClash>
2.7697

> <Gold.Chemscore.DEInternal>
1.9387

> <Gold.Chemscore.Rot>
3.3611

> <Gold.Chemscore.Internal.Correction>
   9.000000E+99

> <Gold.Chemscore.Hbonds>
donor molecule, donor type, donor heavy atom, donor atom, acceptor molecule, acceptor atom, score
      L1  H     3    32       P1  7948  0.81
      L1  H     5    56       P1  7948  1.00

> <Gold.Chemscore.Hbond.Weighted>
-6.6310

> <Gold.Chemscore.Metal.Weighted>
-0.0000

> <Gold.Chemscore.Lipo.Weighted>
-11.4531

> <Gold.Chemscore.Internal_Hbond.Weighted>
0.0000

> <Gold.Chemscore.DEClash.Weighted>
2.7697

> <Gold.Chemscore.DEInternal.Weighted>
1.9387

> <Gold.Chemscore.Rot.Weighted>
8.6045

> <Gold.Chemscore.Internal.Correction.Weighted>
   9.000000E+99

> <Gold.Protein.RotatedTorsions>
[ 6907 6896 6895 6894 ] final  -16.63 input  -60.11 | X-H torsion
[ 7974 7965 7964 7962 ] final   22.22 input  175.53 | X-H torsion
[ 8008 7997 7996 7995 ] final  136.35 input   59.86 | X-H torsion
[ 10167 10162 10161 10158 ] final  128.57 input  -65.29 | X-H torsion
[ 10718 10713 10712 10709 ] final  111.17 input   66.30 | X-H torsion
[ 10763 10752 10751 10750 ] final   49.85 input  -60.55 | X-H torsion
[ 11005 11000 10999 10996 ] final -108.51 input  -57.11 | X-H torsion

> <Gold.Protein.ActiveResidues>
 VAL166  LYS551  ARG553  GLY616  TRP617  ASP618  TYR619  PRO620  LYS621  CYS622 
 ASP623  PHE694  ASN695  SER759  ASP760  ASP761  ALA762  ILE779  LEU786  VAL792 
 PHE793  MET794  SER795  GLU796  ALA797  LYS798  CYS799  TRP800  GLU811  SER814 

> <Gold.Protein.RotatedAtoms>
  151.3056  135.0780  159.9253 H   0  0  0  0  0  0  0  0  0  0  0  0  # atno 6907 bound_to 6896
  152.5288  133.9788  159.7807 H   0  0  0  0  0  0  0  0  0  0  0  0  # atno 6908 bound_to 6896
  151.0082  133.5938  159.2716 H   0  0  0  0  0  0  0  0  0  0  0  0  # atno 6909 bound_to 6896
  146.2038  139.7915  142.8741 H   0  0  0  0  0  0  0  0  0  0  0  0  # atno 7974 bound_to 7965
  156.3004  140.2447  156.3731 H   0  0  0  0  0  0  0  0  0  0  0  0  # atno 8008 bound_to 7997
  154.8770  140.0414  157.1779 H   0  0  0  0  0  0  0  0  0  0  0  0  # atno 8009 bound_to 7997
  154.8735  140.2938  155.5471 H   0  0  0  0  0  0  0  0  0  0  0  0  # atno 8010 bound_to 7997
  139.5520  144.6820  151.4294 H   0  0  0  0  0  0  0  0  0  0  0  0  # atno 10167 bound_to 10162
  157.6458  131.0946  150.6709 H   0  0  0  0  0  0  0  0  0  0  0  0  # atno 10718 bound_to 10713
  152.9785  135.5898  154.4156 H   0  0  0  0  0  0  0  0  0  0  0  0  # atno 10763 bound_to 10752
  154.3787  135.2767  155.2226 H   0  0  0  0  0  0  0  0  0  0  0  0  # atno 10764 bound_to 10752
  154.4150  135.6072  153.6030 H   0  0  0  0  0  0  0  0  0  0  0  0  # atno 10765 bound_to 10752
  141.0898  133.9075  157.2103 H   0  0  0  0  0  0  0  0  0  0  0  0  # atno 11005 bound_to 11000
  145.3392  141.0284  143.3402 LP  0  0  0  0  0  0  0  0  0  0  0  0  # atno 17320 bound_to 7965
  144.8744  139.4992  143.6752 LP  0  0  0  0  0  0  0  0  0  0  0  0  # atno 17321 bound_to 7965
  140.6785  143.8135  150.7090 LP  0  0  0  0  0  0  0  0  0  0  0  0  # atno 17342 bound_to 10162
  140.1581  143.4299  152.2085 LP  0  0  0  0  0  0  0  0  0  0  0  0  # atno 17343 bound_to 10162
  156.7027  130.4628  149.5568 LP  0  0  0  0  0  0  0  0  0  0  0  0  # atno 17370 bound_to 10713
  156.1784  130.6483  151.0922 LP  0  0  0  0  0  0  0  0  0  0  0  0  # atno 17371 bound_to 10713
  139.9721  135.0125  156.9540 LP  0  0  0  0  0  0  0  0  0  0  0  0  # atno 17394 bound_to 11000
  140.5279  134.0842  155.7308 LP  0  0  0  0  0  0  0  0  0  0  0  0  # atno 17395 bound_to 11000

$$$$
