AV-unprocessed.smi:422|AV-procd|sdf|2537|dock10
  -GOLD-   2262022503D 1   1.00000     0.00000
 Structure written by MMmdl.
 43 45  0  0  0  0  0  0  0  0  1 V2000
  151.2696  142.6477  157.8196 C   0  0  0  0  0  0  0  0  0  0  0  0
  152.1106  141.7827  158.6384 N   0  0  0  0  0  0  0  0  0  0  0  0
  152.5976  140.5667  158.2976 C   0  0  0  0  0  0  0  0  0  0  0  0
  152.4064  139.9826  157.2311 O   0  0  0  0  0  0  0  0  0  0  0  0
  153.3169  140.0954  159.3431 N   0  0  0  0  0  0  0  0  0  0  0  0
  154.0055  138.8087  159.4149 C   0  0  0  0  0  0  0  0  0  0  0  0
  153.4085  137.9056  160.5134 C   0  0  1  0  0  0  0  0  0  0  0  0
  153.2491  136.5861  160.0325 O   0  0  0  0  0  0  0  0  0  0  0  0
  154.2781  137.8401  161.7803 C   0  0  0  0  0  0  0  0  0  0  0  0
  153.8743  136.7506  162.5953 O   0  0  0  0  0  0  0  0  0  0  0  0
  154.8328  135.7083  162.6376 C   0  0  0  0  0  0  0  0  0  0  0  0
  154.2602  134.4642  163.2867 C   0  0  0  0  0  0  0  0  0  0  0  0
  153.7955  134.5139  164.6179 C   0  0  0  0  0  0  0  0  0  0  0  0
  153.2584  133.3616  165.2243 C   0  0  0  0  0  0  0  0  0  0  0  0
  153.1821  132.1555  164.5013 C   0  0  0  0  0  0  0  0  0  0  0  0
  153.6425  132.1028  163.1714 C   0  0  0  0  0  0  0  0  0  0  0  0
  154.1796  133.2543  162.5632 C   0  0  0  0  0  0  0  0  0  0  0  0
  154.6164  133.1925  161.2822 F   0  0  0  0  0  0  0  0  0  0  0  0
  153.2668  141.0254  160.3917 C   0  0  0  0  0  0  0  0  0  0  0  0
  153.8228  140.9968  161.6827 C   0  0  0  0  0  0  0  0  0  0  0  0
  153.5771  142.1128  162.5167 C   0  0  0  0  0  0  0  0  0  0  0  0
  152.7979  143.2066  162.0574 C   0  0  0  0  0  0  0  0  0  0  0  0
  152.2469  143.2076  160.7544 C   0  0  0  0  0  0  0  0  0  0  0  0
  152.5082  142.0876  159.9466 C   0  0  0  0  0  0  0  0  0  0  0  0
  151.3262  142.3844  156.7627 H   0  0  0  0  0  0  0  0  0  0  0  0
  151.5785  143.6886  157.9178 H   0  0  0  0  0  0  0  0  0  0  0  0
  150.2293  142.5674  158.1357 H   0  0  0  0  0  0  0  0  0  0  0  0
  153.9976  138.3067  158.4455 H   0  0  0  0  0  0  0  0  0  0  0  0
  155.0558  139.0066  159.6316 H   0  0  0  0  0  0  0  0  0  0  0  0
  152.4219  138.2705  160.8029 H   0  0  0  0  0  0  0  0  0  0  0  0
  154.0706  136.1286  160.1296 H   0  0  0  0  0  0  0  0  0  0  0  0
  155.3190  137.6908  161.4889 H   0  0  0  0  0  0  0  0  0  0  0  0
  154.2322  138.7809  162.3319 H   0  0  0  0  0  0  0  0  0  0  0  0
  155.1683  135.4635  161.6283 H   0  0  0  0  0  0  0  0  0  0  0  0
  155.7130  136.0356  163.1937 H   0  0  0  0  0  0  0  0  0  0  0  0
  153.8477  135.4367  165.1771 H   0  0  0  0  0  0  0  0  0  0  0  0
  152.9039  133.4036  166.2437 H   0  0  0  0  0  0  0  0  0  0  0  0
  152.7701  131.2719  164.9658 H   0  0  0  0  0  0  0  0  0  0  0  0
  153.5827  131.1780  162.6166 H   0  0  0  0  0  0  0  0  0  0  0  0
  154.4114  140.1600  162.0288 H   0  0  0  0  0  0  0  0  0  0  0  0
  153.9865  142.1316  163.5161 H   0  0  0  0  0  0  0  0  0  0  0  0
  152.6212  144.0480  162.7110 H   0  0  0  0  0  0  0  0  0  0  0  0
  151.6498  144.0348  160.4000 H   0  0  0  0  0  0  0  0  0  0  0  0
  1  2  1  0  0  0  0
  1 25  1  0  0  0  0
  1 26  1  0  0  0  0
  1 27  1  0  0  0  0
  2 24  1  0  0  0  0
  2  3  1  0  0  0  0
  3  4  2  0  0  0  0
  3  5  1  0  0  0  0
  5  6  1  0  0  0  0
  5 19  1  0  0  0  0
  6  7  1  0  0  0  0
  6 28  1  0  0  0  0
  6 29  1  0  0  0  0
  7  8  1  0  0  0  0
  7  9  1  0  0  0  0
  7 30  1  0  0  0  0
  8 31  1  0  0  0  0
  9 10  1  0  0  0  0
  9 32  1  0  0  0  0
  9 33  1  0  0  0  0
 10 11  1  0  0  0  0
 11 12  1  0  0  0  0
 11 34  1  0  0  0  0
 11 35  1  0  0  0  0
 12 17  1  0  0  0  0
 12 13  2  0  0  0  0
 13 14  1  0  0  0  0
 13 36  1  0  0  0  0
 14 15  2  0  0  0  0
 14 37  1  0  0  0  0
 15 16  1  0  0  0  0
 15 38  1  0  0  0  0
 16 17  2  0  0  0  0
 16 39  1  0  0  0  0
 17 18  1  0  0  0  0
 19 24  2  0  0  0  0
 19 20  1  0  0  0  0
 20 21  2  0  0  0  0
 20 40  1  0  0  0  0
 21 22  1  0  0  0  0
 21 41  1  0  0  0  0
 22 23  2  0  0  0  0
 22 42  1  0  0  0  0
 23 24  1  0  0  0  0
 23 43  1  0  0  0  0
M  END
> <s_m_source_file>
AV-unprocessed.smi

> <i_m_source_file_index>
422

> <i_lp_mmshare_version>
43012

> <i_f3d_flags>
0

> <s_epik_input>
W2NIXTFbY0hdW2NIXVtjSF1jKGMxMiluKFtDSDNdKWMoPU8pbjJbQ0gyXVtDQEhdKFtPSF0pW0NIMl1PW0NIMl1jM1tjSF1bY0hdW2NIXVtjSF1jM0Y=

> <s_epik_cmdline>
J2VwaWtfcHl0aG9uJywgJy1waCcsICc3LjAnLCAnLXRuJywgJzgnLCAnLW1hJywgJzIwMCcsICctbWV0YWxfYmluZGluZycsICctaW1hZScsICc8aW5maWxlLm1hZT4nLCAnLW9tYWUnLCAnPG91dGZpbGUubWFlPic=

> <r_lp_tautomer_probability>
1

> <r_epik_Ionization_Penalty>
1.0795e-06

> <r_epik_Ionization_Penalty_Charging>
2.82452e-09

> <r_epik_Ionization_Penalty_Neutral>
1.07667e-06

> <r_epik_State_Penalty>
-0

> <r_epik_Charging_Adjusted_Penalty>
2.82452e-09

> <i_epik_Tot_Q>
0

> <i_epik_Tot_abs_Q>
0

> <r_epik_Metal_State_Penalty>
-0

> <b_epik_Metal_Only>
0

> <s_lp_Force_Field>
OPLS_2005

> <r_lp_Energy>
48.6782

> <b_lp_Chiralities_Consistent>
1

> <s_lp_Variant>
AV-unprocessed.smi:422-2

> <Gold.Version>
5.8.1

> <Gold.Id.Protein>
6NUR|6NUR_protein|mol2

> <Gold.PLP.Fitness>
55.1739

> <Gold.PLP.PLP>
-51.6436

> <Gold.PLP.part.hbond>
-1.8492

> <Gold.PLP.part.metal>
0.0000

> <Gold.PLP.part.buried>
-5.1245

> <Gold.PLP.part.nonpolar>
-44.8588

> <Gold.PLP.part.repulsive>
0.0000

> <Gold.PLP.ligand.clash>
0.0000

> <Gold.PLP.ligand.torsion>
1.1423

> <Gold.PLP.Chemscore.Hbond>
1.9100

> <Gold.PLP.Chemscore.CHOScore>
0.0000

> <Gold.PLP.Chemscore.Metal>
0.0000

> <Gold.Chemscore.Hbonds>
donor molecule, donor type, donor heavy atom, donor atom, acceptor molecule, acceptor atom, score
      P1  H  6896  6908       L1     8  0.65
      P1  H  7997  8009       L1     4  0.78

> <Gold.PLP.Chemscore.Internal.Correction>
0.0849

> <Gold.Rescore>
     Score         DG    S(hbond)    S(metal)    S(lipo)     H(rot)  DE(clash)    DE(int)     intcor
     18.78     -19.96       1.25        0.00     140.32       2.38       0.10       1.08       ----

> <Gold.Chemscore.Fitness>
18.7768

> <Gold.Chemscore.DG>
-19.9626

> <Gold.Chemscore.ZeroCoef>
-5.4800

> <Gold.Chemscore.Hbond>
1.2455

> <Gold.Chemscore.Metal>
0.0000

> <Gold.Chemscore.Lipo>
140.3232

> <Gold.Chemscore.Internal_Hbond>
0.0000

> <Gold.Chemscore.DEClash>
0.1008

> <Gold.Chemscore.DEInternal>
1.0849

> <Gold.Chemscore.Rot>
2.3809

> <Gold.Chemscore.Internal.Correction>
   9.000000E+99

> <Gold.Chemscore.Hbonds>
donor molecule, donor type, donor heavy atom, donor atom, acceptor molecule, acceptor atom, score
      P1  H  6896  6908       L1     8  0.06
      P1  H  7997  8009       L1     4  0.14

> <Gold.Chemscore.Hbond.Weighted>
-4.1598

> <Gold.Chemscore.Metal.Weighted>
-0.0000

> <Gold.Chemscore.Lipo.Weighted>
-16.4178

> <Gold.Chemscore.Internal_Hbond.Weighted>
0.0000

> <Gold.Chemscore.DEClash.Weighted>
0.1008

> <Gold.Chemscore.DEInternal.Weighted>
1.0849

> <Gold.Chemscore.Rot.Weighted>
6.0951

> <Gold.Chemscore.Internal.Correction.Weighted>
   9.000000E+99

> <Gold.Protein.RotatedTorsions>
[ 6907 6896 6895 6894 ] final  -81.28 input  -60.11 | X-H torsion
[ 7974 7965 7964 7962 ] final  108.86 input  175.53 | X-H torsion
[ 8008 7997 7996 7995 ] final -167.81 input   59.86 | X-H torsion
[ 10167 10162 10161 10158 ] final -161.62 input  -65.29 | X-H torsion
[ 10718 10713 10712 10709 ] final -102.47 input   66.30 | X-H torsion
[ 10763 10752 10751 10750 ] final -155.80 input  -60.55 | X-H torsion
[ 11005 11000 10999 10996 ] final  -95.94 input  -57.11 | X-H torsion

> <Gold.Protein.ActiveResidues>
 VAL166  LYS551  ARG553  GLY616  TRP617  ASP618  TYR619  PRO620  LYS621  CYS622 
 ASP623  PHE694  ASN695  SER759  ASP760  ASP761  ALA762  ILE779  LEU786  VAL792 
 PHE793  MET794  SER795  GLU796  ALA797  LYS798  CYS799  TRP800  GLU811  SER814 

> <Gold.Protein.RotatedAtoms>
  150.6914  134.3841  159.5046 H   0  0  0  0  0  0  0  0  0  0  0  0  # atno 6907 bound_to 6896
  152.1639  134.8887  160.0549 H   0  0  0  0  0  0  0  0  0  0  0  0  # atno 6908 bound_to 6896
  151.9939  133.3766  159.4192 H   0  0  0  0  0  0  0  0  0  0  0  0  # atno 6909 bound_to 6896
  145.2752  139.2652  143.3945 H   0  0  0  0  0  0  0  0  0  0  0  0  # atno 7974 bound_to 7965
  155.8829  140.1012  157.1473 H   0  0  0  0  0  0  0  0  0  0  0  0  # atno 8008 bound_to 7997
  154.4007  140.1325  156.4282 H   0  0  0  0  0  0  0  0  0  0  0  0  # atno 8009 bound_to 7997
  155.7623  140.3463  155.5206 H   0  0  0  0  0  0  0  0  0  0  0  0  # atno 8010 bound_to 7997
  139.6452  144.0186  152.2121 H   0  0  0  0  0  0  0  0  0  0  0  0  # atno 10167 bound_to 10162
  156.0230  130.5421  150.7113 H   0  0  0  0  0  0  0  0  0  0  0  0  # atno 10718 bound_to 10713
  154.7760  135.3160  154.8090 H   0  0  0  0  0  0  0  0  0  0  0  0  # atno 10763 bound_to 10752
  153.8813  135.6834  153.4771 H   0  0  0  0  0  0  0  0  0  0  0  0  # atno 10764 bound_to 10752
  153.1384  135.4749  154.9395 H   0  0  0  0  0  0  0  0  0  0  0  0  # atno 10765 bound_to 10752
  141.1427  133.8062  157.0504 H   0  0  0  0  0  0  0  0  0  0  0  0  # atno 11005 bound_to 11000
  146.3234  140.3205  142.8633 LP  0  0  0  0  0  0  0  0  0  0  0  0  # atno 17320 bound_to 7965
  144.9300  140.7965  143.5695 LP  0  0  0  0  0  0  0  0  0  0  0  0  # atno 17321 bound_to 7965
  139.9886  144.6378  150.7835 LP  0  0  0  0  0  0  0  0  0  0  0  0  # atno 17342 bound_to 10162
  140.7511  143.2966  151.3188 LP  0  0  0  0  0  0  0  0  0  0  0  0  # atno 17343 bound_to 10162
  157.4750  131.0897  151.0600 LP  0  0  0  0  0  0  0  0  0  0  0  0  # atno 17370 bound_to 10713
  157.1049  130.5997  149.5468 LP  0  0  0  0  0  0  0  0  0  0  0  0  # atno 17371 bound_to 10713
  140.0636  134.9741  157.1347 LP  0  0  0  0  0  0  0  0  0  0  0  0  # atno 17394 bound_to 11000
  140.3813  134.2284  155.7171 LP  0  0  0  0  0  0  0  0  0  0  0  0  # atno 17395 bound_to 11000

$$$$
