AV-unprocessed.smi:2083|AV-procd|sdf|8504|dock2
  -GOLD-   2272011213D 1   1.00000     0.00000
 Structure written by MMmdl.
 44 45  0  0  0  0  0  0  0  0  3 V2000
  147.1275  136.5779  162.9098 C   0  0  0  0  0  0  0  0  0  0  0  0
  147.6353  136.2220  161.5543 C   0  0  0  0  0  0  0  0  0  0  0  0
  147.8721  135.0267  160.9366 C   0  0  0  0  0  0  0  0  0  0  0  0
  148.3427  135.4125  159.6518 C   0  0  0  0  0  0  0  0  0  0  0  0
  148.7290  134.5836  158.6696 N   0  5  0  0  0  0  0  0  0  0  0  0
  148.2430  134.7364  157.4169 C   0  0  0  0  0  0  0  0  0  0  0  0
  147.0552  134.8024  157.0927 O   0  0  0  0  0  0  0  0  0  0  0  0
  149.1953  134.8184  156.4791 N   0  0  0  0  0  0  0  0  0  0  0  0
  148.9604  134.9944  155.0509 C   0  0  0  0  0  0  0  0  0  0  0  0
  148.3881  133.7138  154.3980 C   0  0  2  0  0  0  0  0  0  0  0  0
  149.5268  132.7012  154.1207 C   0  0  0  0  0  0  0  0  0  0  0  0
  147.5846  134.0806  153.1853 N   0  3  2  0  0  0  0  0  0  0  0  0
  146.4764  135.0202  153.5194 C   0  0  0  0  0  0  0  0  0  0  0  0
  145.7862  135.5556  152.2567 C   0  0  0  0  0  0  0  0  0  0  0  0
  145.2470  134.4034  151.4048 C   0  0  0  0  0  0  0  0  0  0  0  0
  146.3819  133.4236  151.0727 C   0  0  2  0  0  0  0  0  0  0  0  0
  145.8727  132.2425  150.2338 C   0  0  0  0  0  0  0  0  0  0  0  0
  147.0796  132.9415  152.3622 C   0  0  0  0  0  0  0  0  0  0  0  0
  148.4022  136.7256  159.5082 N   0  0  0  0  0  0  0  0  0  0  0  0
  147.9437  137.2525  160.7216 O   0  0  0  0  0  0  0  0  0  0  0  0
  147.7641  136.1503  163.6843 H   0  0  0  0  0  0  0  0  0  0  0  0
  146.1165  136.1972  163.0539 H   0  0  0  0  0  0  0  0  0  0  0  0
  147.1045  137.6588  163.0506 H   0  0  0  0  0  0  0  0  0  0  0  0
  147.7287  134.0347  161.3380 H   0  0  0  0  0  0  0  0  0  0  0  0
  150.1553  134.7580  156.7860 H   0  0  0  0  0  0  0  0  0  0  0  0
  148.2880  135.8434  154.9333 H   0  0  0  0  0  0  0  0  0  0  0  0
  149.8959  135.2668  154.5586 H   0  0  0  0  0  0  0  0  0  0  0  0
  147.7144  133.2326  155.1093 H   0  0  0  0  0  0  0  0  0  0  0  0
  150.0876  132.4683  155.0259 H   0  0  0  0  0  0  0  0  0  0  0  0
  150.2387  133.0899  153.3918 H   0  0  0  0  0  0  0  0  0  0  0  0
  149.1471  131.7465  153.7566 H   0  0  0  0  0  0  0  0  0  0  0  0
  145.7475  134.5098  154.1512 H   0  0  0  0  0  0  0  0  0  0  0  0
  146.8435  135.8673  154.0965 H   0  0  0  0  0  0  0  0  0  0  0  0
  144.9709  136.2243  152.5342 H   0  0  0  0  0  0  0  0  0  0  0  0
  146.4912  136.1504  151.6744 H   0  0  0  0  0  0  0  0  0  0  0  0
  144.4513  133.8869  151.9435 H   0  0  0  0  0  0  0  0  0  0  0  0
  144.8022  134.7949  150.4893 H   0  0  0  0  0  0  0  0  0  0  0  0
  147.1200  133.9569  150.4713 H   0  0  0  0  0  0  0  0  0  0  0  0
  145.1322  131.6571  150.7802 H   0  0  0  0  0  0  0  0  0  0  0  0
  146.6889  131.5739  149.9594 H   0  0  0  0  0  0  0  0  0  0  0  0
  145.4077  132.5887  149.3103 H   0  0  0  0  0  0  0  0  0  0  0  0
  147.9036  132.2986  152.0543 H   0  0  0  0  0  0  0  0  0  0  0  0
  146.3986  132.3340  152.9606 H   0  0  0  0  0  0  0  0  0  0  0  0
  148.2201  134.5836  152.5823 H   0  0  0  0  0  0  0  0  0  0  0  0
  1  2  1  0  0  0  0
  1 21  1  0  0  0  0
  1 22  1  0  0  0  0
  1 23  1  0  0  0  0
  2 20  1  0  0  0  0
  2  3  2  0  0  0  0
  3  4  1  0  0  0  0
  3 24  1  0  0  0  0
  4  5  1  0  0  0  0
  4 19  2  0  0  0  0
  5  6  1  0  0  0  0
  6  7  2  0  0  0  0
  6  8  1  0  0  0  0
  8  9  1  0  0  0  0
  8 25  1  0  0  0  0
  9 10  1  0  0  0  0
  9 26  1  0  0  0  0
  9 27  1  0  0  0  0
 10 11  1  0  0  0  0
 10 12  1  0  0  0  0
 10 28  1  0  0  0  0
 11 29  1  0  0  0  0
 11 30  1  0  0  0  0
 11 31  1  0  0  0  0
 12 18  1  0  0  0  0
 12 13  1  0  0  0  0
 12 44  1  0  0  0  0
 13 14  1  0  0  0  0
 13 32  1  0  0  0  0
 13 33  1  0  0  0  0
 14 15  1  0  0  0  0
 14 34  1  0  0  0  0
 14 35  1  0  0  0  0
 15 16  1  0  0  0  0
 15 36  1  0  0  0  0
 15 37  1  0  0  0  0
 16 17  1  0  0  0  0
 16 18  1  0  0  0  0
 16 38  1  0  0  0  0
 17 39  1  0  0  0  0
 17 40  1  0  0  0  0
 17 41  1  0  0  0  0
 18 42  1  0  0  0  0
 18 43  1  0  0  0  0
 19 20  1  0  0  0  0
M  CHG  1   5  -1
M  CHG  1  12   1
M  END
> <s_m_source_file>
AV-unprocessed.smi

> <i_m_source_file_index>
2083

> <i_lp_mmshare_version>
43012

> <i_f3d_flags>
0

> <s_epik_input>
W0NIM11jMVtjSF1jKG5vMSlbTkhdQyg9TylbTkhdW0NIMl1bQ0BIXShbQ0gzXSlOMltDSDJdW0NIMl1bQ0gyXVtDQEBIXShbQ0gzXSlbQ0gyXTI=

> <s_epik_cmdline>
J2VwaWtfcHl0aG9uJywgJy1waCcsICc3LjAnLCAnLXRuJywgJzgnLCAnLW1hJywgJzIwMCcsICctbWV0YWxfYmluZGluZycsICctaW1hZScsICc8aW5maWxlLm1hZT4nLCAnLW9tYWUnLCAnPG91dGZpbGUubWFlPic=

> <r_epik_Ionization_Penalty>
6.22434

> <r_epik_Ionization_Penalty_Charging>
6.22425

> <r_epik_Ionization_Penalty_Neutral>
9.62407e-05

> <r_epik_State_Penalty>
6.22423

> <r_epik_Charging_Adjusted_Penalty>
12.4485

> <i_epik_Tot_Q>
0

> <i_epik_Tot_abs_Q>
2

> <r_epik_Metal_State_Penalty>
2.16764

> <b_epik_Metal_Only>
1

> <s_lp_Force_Field>
OPLS_2005

> <r_lp_Energy>
11.4066

> <b_lp_Chiralities_Consistent>
1

> <s_lp_Variant>
AV-unprocessed.smi:2083-15

> <Gold.Version>
5.8.1

> <Gold.Id.Protein>
6NUR|6NUR_protein|mol2

> <Gold.PLP.Fitness>
46.1469

> <Gold.PLP.PLP>
-31.7844

> <Gold.PLP.part.hbond>
-4.0000

> <Gold.PLP.part.metal>
0.0000

> <Gold.PLP.part.buried>
-3.4712

> <Gold.PLP.part.nonpolar>
-24.6920

> <Gold.PLP.part.repulsive>
0.0412

> <Gold.PLP.ligand.clash>
0.0000

> <Gold.PLP.ligand.torsion>
1.2718

> <Gold.PLP.Chemscore.Hbond>
5.6000

> <Gold.PLP.Chemscore.CHOScore>
0.0000

> <Gold.PLP.Chemscore.Metal>
0.0000

> <Gold.Chemscore.Hbonds>
donor molecule, donor type, donor heavy atom, donor atom, acceptor molecule, acceptor atom, score
      L1  H    12    44       P1  7948  2.00
      P1  H  6896  6907       L1     5  1.53
      P1  H  6931  6943       L1    20  0.76
      P1  H  6934  6947       L1    20  0.77

> <Gold.PLP.Chemscore.Internal.Correction>
0.1061

> <Gold.Rescore>
     Score         DG    S(hbond)    S(metal)    S(lipo)     H(rot)  DE(clash)    DE(int)     intcor
     16.69     -18.26       2.54        0.00      69.92       1.52       0.07       1.50       ----

> <Gold.Chemscore.Fitness>
16.6924

> <Gold.Chemscore.DG>
-18.2619

> <Gold.Chemscore.ZeroCoef>
-5.4800

> <Gold.Chemscore.Hbond>
2.5419

> <Gold.Chemscore.Metal>
0.0000

> <Gold.Chemscore.Lipo>
69.9195

> <Gold.Chemscore.Internal_Hbond>
0.0000

> <Gold.Chemscore.DEClash>
0.0689

> <Gold.Chemscore.DEInternal>
1.5007

> <Gold.Chemscore.Rot>
1.5190

> <Gold.Chemscore.Internal.Correction>
   9.000000E+99

> <Gold.Chemscore.Hbonds>
donor molecule, donor type, donor heavy atom, donor atom, acceptor molecule, acceptor atom, score
      L1  H    12    44       P1  7948  0.34
      P1  H  6896  6907       L1     5  0.23
      P1  H  6931  6943       L1    20  0.17
      P1  H  6934  6947       L1    20  0.76

> <Gold.Chemscore.Hbond.Weighted>
-8.4900

> <Gold.Chemscore.Metal.Weighted>
-0.0000

> <Gold.Chemscore.Lipo.Weighted>
-8.1806

> <Gold.Chemscore.Internal_Hbond.Weighted>
0.0000

> <Gold.Chemscore.DEClash.Weighted>
0.0689

> <Gold.Chemscore.DEInternal.Weighted>
1.5007

> <Gold.Chemscore.Rot.Weighted>
3.8886

> <Gold.Chemscore.Internal.Correction.Weighted>
   9.000000E+99

> <Gold.Protein.RotatedTorsions>
[ 6907 6896 6895 6894 ] final -104.78 input  -60.11 | X-H torsion
[ 7974 7965 7964 7962 ] final  -90.40 input  175.53 | X-H torsion
[ 8008 7997 7996 7995 ] final -149.77 input   59.86 | X-H torsion
[ 10167 10162 10161 10158 ] final  125.83 input  -65.29 | X-H torsion
[ 10718 10713 10712 10709 ] final   94.28 input   66.30 | X-H torsion
[ 10763 10752 10751 10750 ] final   99.84 input  -60.55 | X-H torsion
[ 11005 11000 10999 10996 ] final   17.52 input  -57.11 | X-H torsion

> <Gold.Protein.ActiveResidues>
 VAL166  LYS551  ARG553  GLY616  TRP617  ASP618  TYR619  PRO620  LYS621  CYS622 
 ASP623  PHE694  ASN695  SER759  ASP760  ASP761  ALA762  ILE779  LEU786  VAL792 
 PHE793  MET794  SER795  GLU796  ALA797  LYS798  CYS799  TRP800  GLU811  SER814 

> <Gold.Protein.RotatedAtoms>
  150.7304  134.0226  159.3706 H   0  0  0  0  0  0  0  0  0  0  0  0  # atno 6907 bound_to 6896
  151.8192  135.0655  160.0432 H   0  0  0  0  0  0  0  0  0  0  0  0  # atno 6908 bound_to 6896
  152.3016  133.5625  159.5658 H   0  0  0  0  0  0  0  0  0  0  0  0  # atno 6909 bound_to 6896
  145.4270  140.9554  143.2149 H   0  0  0  0  0  0  0  0  0  0  0  0  # atno 7974 bound_to 7965
  155.6129  140.0673  157.2701 H   0  0  0  0  0  0  0  0  0  0  0  0  # atno 8008 bound_to 7997
  154.4249  140.1798  156.1339 H   0  0  0  0  0  0  0  0  0  0  0  0  # atno 8009 bound_to 7997
  156.0070  140.3330  155.6906 H   0  0  0  0  0  0  0  0  0  0  0  0  # atno 8010 bound_to 7997
  139.5664  144.6914  151.3898 H   0  0  0  0  0  0  0  0  0  0  0  0  # atno 10167 bound_to 10162
  157.6949  131.0507  150.4163 H   0  0  0  0  0  0  0  0  0  0  0  0  # atno 10718 bound_to 10713
  153.3064  135.4099  155.1297 H   0  0  0  0  0  0  0  0  0  0  0  0  # atno 10763 bound_to 10752
  154.8564  135.3554  154.5783 H   0  0  0  0  0  0  0  0  0  0  0  0  # atno 10764 bound_to 10752
  153.6210  135.7064  153.5369 H   0  0  0  0  0  0  0  0  0  0  0  0  # atno 10765 bound_to 10752
  140.4350  134.1380  155.7684 H   0  0  0  0  0  0  0  0  0  0  0  0  # atno 11005 bound_to 11000
  144.8208  139.5795  143.6988 LP  0  0  0  0  0  0  0  0  0  0  0  0  # atno 17320 bound_to 7965
  146.2627  139.6448  142.9351 LP  0  0  0  0  0  0  0  0  0  0  0  0  # atno 17321 bound_to 7965
  140.6948  143.7776  150.7309 LP  0  0  0  0  0  0  0  0  0  0  0  0  # atno 17342 bound_to 10162
  140.1269  143.4561  152.2278 LP  0  0  0  0  0  0  0  0  0  0  0  0  # atno 17343 bound_to 10162
  156.4542  130.4018  149.6617 LP  0  0  0  0  0  0  0  0  0  0  0  0  # atno 17370 bound_to 10713
  156.3755  130.7552  151.2540 LP  0  0  0  0  0  0  0  0  0  0  0  0  # atno 17371 bound_to 10713
  141.1729  133.8572  157.1513 LP  0  0  0  0  0  0  0  0  0  0  0  0  # atno 17394 bound_to 11000
  140.0108  134.9989  157.0391 LP  0  0  0  0  0  0  0  0  0  0  0  0  # atno 17395 bound_to 11000

$$$$
