AV-unprocessed.smi:1308|AV-procd|sdf|5438|dock1
  -GOLD-   22720 5 03D 1   1.00000     0.00000
 Structure written by MMmdl.
 45 45  0  0  0  0  0  0  0  0  1 V2000
  151.2312  141.4908  158.4137 C   0  0  0  0  0  0  0  0  0  0  0  0
  151.0394  140.3811  157.4024 C   0  0  0  0  0  0  0  0  0  0  0  0
  149.9405  139.7167  157.2612 N   0  0  0  0  0  0  0  0  0  0  0  0
  149.8783  138.7171  156.2809 C   0  0  0  0  0  0  0  0  0  0  0  0
  148.5399  138.0106  156.1550 C   0  0  0  0  0  0  0  0  0  0  0  0
  150.9484  138.4284  155.4827 C   0  0  0  0  0  0  0  0  0  0  0  0
  150.8957  137.3818  154.3681 C   0  0  0  0  0  0  0  0  0  0  0  0
  150.6495  135.9542  154.8567 C   0  0  0  0  0  0  0  0  0  0  0  0
  151.3222  135.4892  155.7761 O   0  0  0  0  0  0  0  0  0  0  0  0
  149.6401  135.2997  154.2616 N   0  0  0  0  0  0  0  0  0  0  0  0
  149.0101  134.0738  154.7424 C   0  0  2  0  0  0  0  0  0  0  0  0
  149.8837  132.8681  154.3711 C   0  0  0  0  0  0  0  0  0  0  0  0
  147.5904  133.9616  154.1498 C   0  0  0  0  0  0  0  0  0  0  0  0
  147.5455  133.2382  152.7870 C   0  0  0  0  0  0  0  0  0  0  0  0
  146.1803  133.2955  152.0746 C   0  0  0  0  0  0  0  0  0  0  0  0
  146.1403  132.4131  150.8151 C   0  0  0  0  0  0  0  0  0  0  0  0
  145.8245  134.7463  151.7152 C   0  0  0  0  0  0  0  0  0  0  0  0
  152.2015  139.1881  155.6598 C   0  0  0  0  0  0  0  0  0  0  0  0
  153.2203  139.0167  154.9928 O   0  0  0  0  0  0  0  0  0  0  0  0
  152.1684  140.1355  156.6234 N   0  0  0  0  0  0  0  0  0  0  0  0
  152.9999  140.6863  156.7797 H   0  0  0  0  0  0  0  0  0  0  0  0
  150.5376  142.3068  158.2098 H   0  0  0  0  0  0  0  0  0  0  0  0
  152.2462  141.8895  158.3866 H   0  0  0  0  0  0  0  0  0  0  0  0
  151.0376  141.1189  159.4200 H   0  0  0  0  0  0  0  0  0  0  0  0
  148.6574  136.9338  156.2757 H   0  0  0  0  0  0  0  0  0  0  0  0
  148.0946  138.2066  155.1796 H   0  0  0  0  0  0  0  0  0  0  0  0
  147.8382  138.3550  156.9157 H   0  0  0  0  0  0  0  0  0  0  0  0
  150.1326  137.6341  153.6311 H   0  0  0  0  0  0  0  0  0  0  0  0
  151.8352  137.4052  153.8157 H   0  0  0  0  0  0  0  0  0  0  0  0
  149.1775  135.7652  153.4939 H   0  0  0  0  0  0  0  0  0  0  0  0
  148.9210  134.0959  155.8298 H   0  0  0  0  0  0  0  0  0  0  0  0
  149.4436  131.9388  154.7339 H   0  0  0  0  0  0  0  0  0  0  0  0
  150.8783  132.9539  154.8100 H   0  0  0  0  0  0  0  0  0  0  0  0
  150.0027  132.7803  153.2906 H   0  0  0  0  0  0  0  0  0  0  0  0
  146.9512  133.4443  154.8656 H   0  0  0  0  0  0  0  0  0  0  0  0
  147.1708  134.9616  154.0347 H   0  0  0  0  0  0  0  0  0  0  0  0
  148.3046  133.6829  152.1423 H   0  0  0  0  0  0  0  0  0  0  0  0
  147.8292  132.1928  152.9030 H   0  0  0  0  0  0  0  0  0  0  0  0
  145.4186  132.9338  152.7666 H   0  0  0  0  0  0  0  0  0  0  0  0
  146.9148  132.7023  150.1041 H   0  0  0  0  0  0  0  0  0  0  0  0
  145.1784  132.4981  150.3089 H   0  0  0  0  0  0  0  0  0  0  0  0
  146.2825  131.3598  151.0539 H   0  0  0  0  0  0  0  0  0  0  0  0
  146.5545  135.1734  151.0264 H   0  0  0  0  0  0  0  0  0  0  0  0
  145.7969  135.3776  152.6038 H   0  0  0  0  0  0  0  0  0  0  0  0
  144.8444  134.8061  151.2411 H   0  0  0  0  0  0  0  0  0  0  0  0
  1  2  1  0  0  0  0
  1 22  1  0  0  0  0
  1 23  1  0  0  0  0
  1 24  1  0  0  0  0
  2 20  1  0  0  0  0
  2  3  2  0  0  0  0
  3  4  1  0  0  0  0
  4  5  1  0  0  0  0
  4  6  2  0  0  0  0
  5 25  1  0  0  0  0
  5 26  1  0  0  0  0
  5 27  1  0  0  0  0
  6  7  1  0  0  0  0
  6 18  1  0  0  0  0
  7  8  1  0  0  0  0
  7 28  1  0  0  0  0
  7 29  1  0  0  0  0
  8  9  2  0  0  0  0
  8 10  1  0  0  0  0
 10 11  1  0  0  0  0
 10 30  1  0  0  0  0
 11 12  1  0  0  0  0
 11 13  1  0  0  0  0
 11 31  1  0  0  0  0
 12 32  1  0  0  0  0
 12 33  1  0  0  0  0
 12 34  1  0  0  0  0
 13 14  1  0  0  0  0
 13 35  1  0  0  0  0
 13 36  1  0  0  0  0
 14 15  1  0  0  0  0
 14 37  1  0  0  0  0
 14 38  1  0  0  0  0
 15 16  1  0  0  0  0
 15 17  1  0  0  0  0
 15 39  1  0  0  0  0
 16 40  1  0  0  0  0
 16 41  1  0  0  0  0
 16 42  1  0  0  0  0
 17 43  1  0  0  0  0
 17 44  1  0  0  0  0
 17 45  1  0  0  0  0
 18 19  2  0  0  0  0
 18 20  1  0  0  0  0
 20 21  1  0  0  0  0
M  END
> <s_m_source_file>
AV-unprocessed.smi

> <i_m_source_file_index>
1308

> <i_lp_mmshare_version>
43012

> <i_f3d_flags>
0

> <s_epik_input>
W0NIM11jMW5jKFtDSDNdKWMoYyg9TylbbkhdMSlbQ0gyXUMoPU8pW05IXVtDQEhdKFtDSDNdKVtDSDJdW0NIMl1bQ0hdKFtDSDNdKVtDSDNd

> <s_epik_cmdline>
J2VwaWtfcHl0aG9uJywgJy1waCcsICc3LjAnLCAnLXRuJywgJzgnLCAnLW1hJywgJzIwMCcsICctbWV0YWxfYmluZGluZycsICctaW1hZScsICc8aW5maWxlLm1hZT4nLCAnLW9tYWUnLCAnPG91dGZpbGUubWFlPic=

> <r_lp_tautomer_probability>
0.839158

> <r_epik_Ionization_Penalty>
0.000390633

> <r_epik_Ionization_Penalty_Charging>
0.00035831

> <r_epik_Ionization_Penalty_Neutral>
3.23235e-05

> <r_epik_State_Penalty>
0.0470222

> <r_epik_Charging_Adjusted_Penalty>
0.0473805

> <i_epik_Tot_Q>
0

> <i_epik_Tot_abs_Q>
0

> <r_epik_Metal_State_Penalty>
0.223807

> <b_epik_Metal_Only>
0

> <s_lp_Force_Field>
OPLS_2005

> <r_lp_Energy>
5.21456

> <b_lp_Chiralities_Consistent>
1

> <s_lp_Variant>
AV-unprocessed.smi:1308-1

> <Gold.Version>
5.8.1

> <Gold.Id.Protein>
6NUR|6NUR_protein|mol2

> <Gold.PLP.Fitness>
38.0631

> <Gold.PLP.PLP>
-30.4407

> <Gold.PLP.part.hbond>
-3.4182

> <Gold.PLP.part.metal>
0.0000

> <Gold.PLP.part.buried>
-2.9726

> <Gold.PLP.part.nonpolar>
-24.1151

> <Gold.PLP.part.repulsive>
0.3203

> <Gold.PLP.ligand.clash>
0.0000

> <Gold.PLP.ligand.torsion>
0.7631

> <Gold.PLP.Chemscore.Hbond>
3.0000

> <Gold.PLP.Chemscore.CHOScore>
0.0000

> <Gold.PLP.Chemscore.Metal>
0.0000

> <Gold.Chemscore.Hbonds>
donor molecule, donor type, donor heavy atom, donor atom, acceptor molecule, acceptor atom, score
      L1  H    10    30       P1  7948  1.00
      P1  H  7997  8010       L1    19  0.90
      P1  H 10752 10764       L1     9  1.00

> <Gold.PLP.Chemscore.Internal.Correction>
0.1485

> <Gold.Rescore>
     Score         DG    S(hbond)    S(metal)    S(lipo)     H(rot)  DE(clash)    DE(int)     intcor
     14.30     -15.91       2.59        0.00      58.49       1.98       0.68       0.92       ----

> <Gold.Chemscore.Fitness>
14.3035

> <Gold.Chemscore.DG>
-15.9104

> <Gold.Chemscore.ZeroCoef>
-5.4800

> <Gold.Chemscore.Hbond>
2.5942

> <Gold.Chemscore.Metal>
0.0000

> <Gold.Chemscore.Lipo>
58.4922

> <Gold.Chemscore.Internal_Hbond>
0.0000

> <Gold.Chemscore.DEClash>
0.6820

> <Gold.Chemscore.DEInternal>
0.9250

> <Gold.Chemscore.Rot>
1.9835

> <Gold.Chemscore.Internal.Correction>
   9.000000E+99

> <Gold.Chemscore.Hbonds>
donor molecule, donor type, donor heavy atom, donor atom, acceptor molecule, acceptor atom, score
      L1  H    10    30       P1  7948  0.68
      P1  H  7997  8010       L1    19  0.18
      P1  H 10752 10764       L1     9  0.34

> <Gold.Chemscore.Hbond.Weighted>
-8.6646

> <Gold.Chemscore.Metal.Weighted>
-0.0000

> <Gold.Chemscore.Lipo.Weighted>
-6.8436

> <Gold.Chemscore.Internal_Hbond.Weighted>
0.0000

> <Gold.Chemscore.DEClash.Weighted>
0.6820

> <Gold.Chemscore.DEInternal.Weighted>
0.9250

> <Gold.Chemscore.Rot.Weighted>
5.0778

> <Gold.Chemscore.Internal.Correction.Weighted>
   9.000000E+99

> <Gold.Protein.RotatedTorsions>
[ 6907 6896 6895 6894 ] final  112.69 input  -60.11 | X-H torsion
[ 7974 7965 7964 7962 ] final  166.23 input  175.53 | X-H torsion
[ 8008 7997 7996 7995 ] final   94.99 input   59.86 | X-H torsion
[ 10167 10162 10161 10158 ] final  101.36 input  -65.29 | X-H torsion
[ 10718 10713 10712 10709 ] final -173.29 input   66.30 | X-H torsion
[ 10763 10752 10751 10750 ] final  -32.53 input  -60.55 | X-H torsion
[ 11005 11000 10999 10996 ] final   73.58 input  -57.11 | X-H torsion

> <Gold.Protein.ActiveResidues>
 VAL166  LYS551  ARG553  GLY616  TRP617  ASP618  TYR619  PRO620  LYS621  CYS622 
 ASP623  PHE694  ASN695  SER759  ASP760  ASP761  ALA762  ILE779  LEU786  VAL792 
 PHE793  MET794  SER795  GLU796  ALA797  LYS798  CYS799  TRP800  GLU811  SER814 

> <Gold.Protein.RotatedAtoms>
  152.4902  133.8480  159.7186 H   0  0  0  0  0  0  0  0  0  0  0  0  # atno 6907 bound_to 6896
  150.9025  133.7091  159.2882 H   0  0  0  0  0  0  0  0  0  0  0  0  # atno 6908 bound_to 6896
  151.4527  135.1035  159.9755 H   0  0  0  0  0  0  0  0  0  0  0  0  # atno 6909 bound_to 6896
  144.7470  139.8585  143.6379 H   0  0  0  0  0  0  0  0  0  0  0  0  # atno 7974 bound_to 7965
  156.0640  140.3292  155.7495 H   0  0  0  0  0  0  0  0  0  0  0  0  # atno 8008 bound_to 7997
  155.5411  140.0602  157.2887 H   0  0  0  0  0  0  0  0  0  0  0  0  # atno 8009 bound_to 7997
  154.4495  140.1910  156.0580 H   0  0  0  0  0  0  0  0  0  0  0  0  # atno 8010 bound_to 7997
  139.7444  144.7002  151.0526 H   0  0  0  0  0  0  0  0  0  0  0  0  # atno 10167 bound_to 10162
  156.7681  130.9438  151.3119 H   0  0  0  0  0  0  0  0  0  0  0  0  # atno 10718 bound_to 10713
  153.8153  135.6879  153.4835 H   0  0  0  0  0  0  0  0  0  0  0  0  # atno 10763 bound_to 10752
  153.1602  135.4583  154.9760 H   0  0  0  0  0  0  0  0  0  0  0  0  # atno 10764 bound_to 10752
  154.7950  135.3316  154.7630 H   0  0  0  0  0  0  0  0  0  0  0  0  # atno 10765 bound_to 10752
  139.9433  134.7359  156.1044 H   0  0  0  0  0  0  0  0  0  0  0  0  # atno 11005 bound_to 11000
  146.1365  139.4412  143.0136 LP  0  0  0  0  0  0  0  0  0  0  0  0  # atno 17320 bound_to 7965
  145.7084  141.0114  143.1467 LP  0  0  0  0  0  0  0  0  0  0  0  0  # atno 17321 bound_to 7965
  140.7790  143.4884  150.9925 LP  0  0  0  0  0  0  0  0  0  0  0  0  # atno 17342 bound_to 10162
  139.8572  143.7361  152.3175 LP  0  0  0  0  0  0  0  0  0  0  0  0  # atno 17343 bound_to 10162
  157.6703  130.9045  150.0026 LP  0  0  0  0  0  0  0  0  0  0  0  0  # atno 17370 bound_to 10713
  156.1295  130.3643  149.9754 LP  0  0  0  0  0  0  0  0  0  0  0  0  # atno 17371 bound_to 10713
  141.1075  133.6655  156.2899 LP  0  0  0  0  0  0  0  0  0  0  0  0  # atno 17394 bound_to 11000
  140.5897  134.5663  157.5497 LP  0  0  0  0  0  0  0  0  0  0  0  0  # atno 17395 bound_to 11000

$$$$
