AV-unprocessed.smi:1960|AV-procd|sdf|7917|dock9
  -GOLD-   2272010 83D 1   1.00000     0.00000
 Structure written by MMmdl.
 39 40  0  0  0  0  0  0  0  0  2 V2000
  148.5880  132.1993  159.1261 C   0  0  0  0  0  0  0  0  0  0  0  0
  148.7734  133.6062  157.9558 S   0  0  0  0  0  0  0  0  0  0  0  0
  147.4573  133.8843  157.3605 O   0  0  0  0  0  0  0  0  0  0  0  0
  149.5043  134.6816  158.6438 O   0  0  0  0  0  0  0  0  0  0  0  0
  149.8043  132.9808  156.7006 N   0  0  0  0  0  0  0  0  0  0  0  0
  149.7530  131.5471  156.3505 C   0  0  0  0  0  0  0  0  0  0  0  0
  148.9417  131.3028  155.0657 C   0  0  0  0  0  0  0  0  0  0  0  0
  149.4616  132.1631  153.9012 C   0  0  0  0  0  0  0  0  0  0  0  0
  148.6394  131.9797  152.7081 N   0  0  0  0  0  0  0  0  0  0  0  0
  147.3717  132.3952  152.5725 C   0  0  0  0  0  0  0  0  0  0  0  0
  146.7572  132.9974  153.4524 O   0  0  0  0  0  0  0  0  0  0  0  0
  146.8848  132.0866  151.3578 N   0  0  0  0  0  0  0  0  0  0  0  0
  145.5892  132.3438  150.8314 C   0  0  0  0  0  0  0  0  0  0  0  0
  144.5795  132.7317  151.7401 C   0  0  0  0  0  0  0  0  0  0  0  0
  143.2832  133.0124  151.2619 C   0  0  0  0  0  0  0  0  0  0  0  0
  143.0188  132.9186  149.9412 N   0  3  0  0  0  0  0  0  0  0  0  0
  143.9537  132.5661  149.0329 C   0  0  0  0  0  0  0  0  0  0  0  0
  145.2678  132.2736  149.4516 C   0  0  0  0  0  0  0  0  0  0  0  0
  149.4503  133.6405  154.3195 C   0  0  0  0  0  0  0  0  0  0  0  0
  150.2593  133.8655  155.6091 C   0  0  0  0  0  0  0  0  0  0  0  0
  147.9481  132.5071  159.9526 H   0  0  0  0  0  0  0  0  0  0  0  0
  149.5615  131.9145  159.5213 H   0  0  0  0  0  0  0  0  0  0  0  0
  148.1273  131.3531  158.6196 H   0  0  0  0  0  0  0  0  0  0  0  0
  150.7742  131.1918  156.2081 H   0  0  0  0  0  0  0  0  0  0  0  0
  149.3393  130.9687  157.1760 H   0  0  0  0  0  0  0  0  0  0  0  0
  148.9944  130.2454  154.8044 H   0  0  0  0  0  0  0  0  0  0  0  0
  147.8887  131.5180  155.2443 H   0  0  0  0  0  0  0  0  0  0  0  0
  150.4907  131.8769  153.6751 H   0  0  0  0  0  0  0  0  0  0  0  0
  149.0695  131.4978  151.9323 H   0  0  0  0  0  0  0  0  0  0  0  0
  147.5382  131.6658  150.7137 H   0  0  0  0  0  0  0  0  0  0  0  0
  144.7908  132.8086  152.7970 H   0  0  0  0  0  0  0  0  0  0  0  0
  142.4569  133.3089  151.8913 H   0  0  0  0  0  0  0  0  0  0  0  0
  143.6271  132.5354  148.0035 H   0  0  0  0  0  0  0  0  0  0  0  0
  146.0036  132.0145  148.7057 H   0  0  0  0  0  0  0  0  0  0  0  0
  149.8649  134.2561  153.5204 H   0  0  0  0  0  0  0  0  0  0  0  0
  148.4246  133.9792  154.4616 H   0  0  0  0  0  0  0  0  0  0  0  0
  150.2014  134.9093  155.9162 H   0  0  0  0  0  0  0  0  0  0  0  0
  151.3132  133.6606  155.4181 H   0  0  0  0  0  0  0  0  0  0  0  0
  142.0747  133.1275  149.6149 H   0  0  0  0  0  0  0  0  0  0  0  0
  1  2  1  0  0  0  0
  1 21  1  0  0  0  0
  1 22  1  0  0  0  0
  1 23  1  0  0  0  0
  2  3  2  0  0  0  0
  2  4  2  0  0  0  0
  2  5  1  0  0  0  0
  5 20  1  0  0  0  0
  5  6  1  0  0  0  0
  6  7  1  0  0  0  0
  6 24  1  0  0  0  0
  6 25  1  0  0  0  0
  7  8  1  0  0  0  0
  7 26  1  0  0  0  0
  7 27  1  0  0  0  0
  8  9  1  0  0  0  0
  8 19  1  0  0  0  0
  8 28  1  0  0  0  0
  9 10  1  0  0  0  0
  9 29  1  0  0  0  0
 10 11  2  0  0  0  0
 10 12  1  0  0  0  0
 12 13  1  0  0  0  0
 12 30  1  0  0  0  0
 13 18  1  0  0  0  0
 13 14  2  0  0  0  0
 14 15  1  0  0  0  0
 14 31  1  0  0  0  0
 15 16  2  0  0  0  0
 15 32  1  0  0  0  0
 16 17  1  0  0  0  0
 16 39  1  0  0  0  0
 17 18  2  0  0  0  0
 17 33  1  0  0  0  0
 18 34  1  0  0  0  0
 19 20  1  0  0  0  0
 19 35  1  0  0  0  0
 19 36  1  0  0  0  0
 20 37  1  0  0  0  0
 20 38  1  0  0  0  0
M  CHG  1  16   1
M  END
> <s_m_source_file>
AV-unprocessed.smi

> <i_m_source_file_index>
1960

> <i_lp_mmshare_version>
43012

> <i_f3d_flags>
0

> <s_epik_input>
W0NIM11TKD1PKSg9TylOMVtDSDJdW0NIMl1bQ0hdKFtDSDJdW0NIMl0xKVtOSF1DKD1PKVtOSF1jMltjSF1bY0hdbltjSF1bY0hdMg==

> <s_epik_cmdline>
J2VwaWtfcHl0aG9uJywgJy1waCcsICc3LjAnLCAnLXRuJywgJzgnLCAnLW1hJywgJzIwMCcsICctbWV0YWxfYmluZGluZycsICctaW1hZScsICc8aW5maWxlLm1hZT4nLCAnLW9tYWUnLCAnPG91dGZpbGUubWFlPic=

> <r_epik_Ionization_Penalty>
1.01996

> <r_epik_Ionization_Penalty_Charging>
1.01994

> <r_epik_Ionization_Penalty_Neutral>
1.92463e-05

> <r_epik_State_Penalty>
1.07014

> <r_epik_Charging_Adjusted_Penalty>
2.09007

> <i_epik_Tot_Q>
1

> <i_epik_Tot_abs_Q>
1

> <r_epik_Metal_State_Penalty>
1.16909

> <b_epik_Metal_Only>
0

> <s_lp_Force_Field>
OPLS_2005

> <r_lp_Energy>
12.0857

> <b_lp_Chiralities_Consistent>
1

> <s_lp_Variant>
AV-unprocessed.smi:1960-2

> <Gold.Version>
5.8.1

> <Gold.Id.Protein>
6NUR|6NUR_protein|mol2

> <Gold.PLP.Fitness>
47.1428

> <Gold.PLP.PLP>
-34.0312

> <Gold.PLP.part.hbond>
-4.0000

> <Gold.PLP.part.metal>
0.0000

> <Gold.PLP.part.buried>
-4.1752

> <Gold.PLP.part.nonpolar>
-26.3860

> <Gold.PLP.part.repulsive>
0.2008

> <Gold.PLP.ligand.clash>
0.0000

> <Gold.PLP.ligand.torsion>
1.3221

> <Gold.PLP.Chemscore.Hbond>
4.5680

> <Gold.PLP.Chemscore.CHOScore>
0.0000

> <Gold.PLP.Chemscore.Metal>
0.0000

> <Gold.Chemscore.Hbonds>
donor molecule, donor type, donor heavy atom, donor atom, acceptor molecule, acceptor atom, score
      L1  H     9    29       P1 10747  1.00
      L1  H    12    30       P1 10747  1.00
      L1  H    16    39       P1 10186  1.60
      P1  H  6896  6908       L1     4  0.73

> <Gold.PLP.Chemscore.Internal.Correction>
2.0518

> <Gold.Rescore>
     Score         DG    S(hbond)    S(metal)    S(lipo)     H(rot)  DE(clash)    DE(int)     intcor
     19.08     -23.07       3.45        0.00      73.83       1.00       0.05       3.94       ----

> <Gold.Chemscore.Fitness>
19.0782

> <Gold.Chemscore.DG>
-23.0666

> <Gold.Chemscore.ZeroCoef>
-5.4800

> <Gold.Chemscore.Hbond>
3.4455

> <Gold.Chemscore.Metal>
0.0000

> <Gold.Chemscore.Lipo>
73.8342

> <Gold.Chemscore.Internal_Hbond>
0.0000

> <Gold.Chemscore.DEClash>
0.0451

> <Gold.Chemscore.DEInternal>
3.9433

> <Gold.Chemscore.Rot>
1.0000

> <Gold.Chemscore.Internal.Correction>
   9.000000E+99

> <Gold.Chemscore.Hbonds>
donor molecule, donor type, donor heavy atom, donor atom, acceptor molecule, acceptor atom, score
      L1  H     9    29       P1 10747  0.63
      L1  H    12    30       P1 10747  0.98
      L1  H    16    39       P1 10186  0.79
      P1  H  6896  6908       L1     4  0.69

> <Gold.Chemscore.Hbond.Weighted>
-11.5079

> <Gold.Chemscore.Metal.Weighted>
-0.0000

> <Gold.Chemscore.Lipo.Weighted>
-8.6386

> <Gold.Chemscore.Internal_Hbond.Weighted>
0.0000

> <Gold.Chemscore.DEClash.Weighted>
0.0451

> <Gold.Chemscore.DEInternal.Weighted>
3.9433

> <Gold.Chemscore.Rot.Weighted>
2.5600

> <Gold.Chemscore.Internal.Correction.Weighted>
   9.000000E+99

> <Gold.Protein.RotatedTorsions>
[ 6907 6896 6895 6894 ] final  151.60 input  -60.11 | X-H torsion
[ 7974 7965 7964 7962 ] final  165.32 input  175.53 | X-H torsion
[ 8008 7997 7996 7995 ] final   88.27 input   59.86 | X-H torsion
[ 10167 10162 10161 10158 ] final  -82.86 input  -65.29 | X-H torsion
[ 10718 10713 10712 10709 ] final   28.47 input   66.30 | X-H torsion
[ 10763 10752 10751 10750 ] final  104.10 input  -60.55 | X-H torsion
[ 11005 11000 10999 10996 ] final -134.33 input  -57.11 | X-H torsion

> <Gold.Protein.ActiveResidues>
 VAL166  LYS551  ARG553  GLY616  TRP617  ASP618  TYR619  PRO620  LYS621  CYS622 
 ASP623  PHE694  ASN695  SER759  ASP760  ASP761  ALA762  ILE779  LEU786  VAL792 
 PHE793  MET794  SER795  GLU796  ALA797  LYS798  CYS799  TRP800  GLU811  SER814 

> <Gold.Protein.RotatedAtoms>
  152.0984  133.4236  159.4575 H   0  0  0  0  0  0  0  0  0  0  0  0  # atno 6907 bound_to 6896
  150.6863  134.2790  159.4628 H   0  0  0  0  0  0  0  0  0  0  0  0  # atno 6908 bound_to 6896
  152.0648  134.9571  160.0625 H   0  0  0  0  0  0  0  0  0  0  0  0  # atno 6909 bound_to 6896
  144.7508  139.8453  143.6367 H   0  0  0  0  0  0  0  0  0  0  0  0  # atno 7974 bound_to 7965
  155.9857  140.3373  155.6705 H   0  0  0  0  0  0  0  0  0  0  0  0  # atno 8008 bound_to 7997
  155.6488  140.0703  157.2612 H   0  0  0  0  0  0  0  0  0  0  0  0  # atno 8009 bound_to 7997
  154.4204  140.1729  156.1640 H   0  0  0  0  0  0  0  0  0  0  0  0  # atno 8010 bound_to 7997
  140.4280  143.2559  151.8799 H   0  0  0  0  0  0  0  0  0  0  0  0  # atno 10167 bound_to 10162
  157.2338  130.7036  149.6326 H   0  0  0  0  0  0  0  0  0  0  0  0  # atno 10718 bound_to 10713
  153.3614  135.3954  155.1721 H   0  0  0  0  0  0  0  0  0  0  0  0  # atno 10763 bound_to 10752
  154.8680  135.3680  154.5094 H   0  0  0  0  0  0  0  0  0  0  0  0  # atno 10764 bound_to 10752
  153.5554  135.7082  153.5632 H   0  0  0  0  0  0  0  0  0  0  0  0  # atno 10765 bound_to 10752
  140.8999  134.1703  157.4468 H   0  0  0  0  0  0  0  0  0  0  0  0  # atno 11005 bound_to 11000
  146.1454  139.4522  143.0082 LP  0  0  0  0  0  0  0  0  0  0  0  0  # atno 17320 bound_to 7965
  145.6953  141.0152  143.1533 LP  0  0  0  0  0  0  0  0  0  0  0  0  # atno 17321 bound_to 7965
  139.4784  144.5366  151.8590 LP  0  0  0  0  0  0  0  0  0  0  0  0  # atno 17342 bound_to 10162
  140.4459  144.1922  150.5894 LP  0  0  0  0  0  0  0  0  0  0  0  0  # atno 17343 bound_to 10162
  155.9674  130.4480  150.5602 LP  0  0  0  0  0  0  0  0  0  0  0  0  # atno 17370 bound_to 10713
  157.3450  131.0723  151.1758 LP  0  0  0  0  0  0  0  0  0  0  0  0  # atno 17371 bound_to 10713
  139.8741  134.9894  156.5454 LP  0  0  0  0  0  0  0  0  0  0  0  0  # atno 17394 bound_to 11000
  140.8242  133.8329  155.8924 LP  0  0  0  0  0  0  0  0  0  0  0  0  # atno 17395 bound_to 11000

$$$$
