AV-unprocessed.smi:135|AV-procd|sdf|1170|dock2
  -GOLD-   2262018313D 1   1.00000     0.00000
 Structure written by MMmdl.
 51 54  0  0  0  0  0  0  0  0  1 V2000
  152.9590  136.6781  159.9630 O   0  0  0  0  0  0  0  0  0  0  0  0
  153.2820  137.8507  159.7736 C   0  0  0  0  0  0  0  0  0  0  0  0
  153.1199  138.4851  158.3832 C   0  0  0  0  0  0  0  0  0  0  0  0
  152.1531  139.6042  158.3538 N   0  0  0  0  0  0  0  0  0  0  0  0
  150.8874  139.3877  157.7550 C   0  0  0  0  0  0  0  0  0  0  0  0
  150.5876  138.2937  157.2742 O   0  0  0  0  0  0  0  0  0  0  0  0
  149.9888  140.5366  157.7481 C   0  0  0  0  0  0  0  0  0  0  0  0
  148.7622  140.4186  157.2121 F   0  0  0  0  0  0  0  0  0  0  0  0
  150.3679  141.7192  158.2750 C   0  0  0  0  0  0  0  0  0  0  0  0
  151.6134  141.9207  158.8433 N   0  0  0  0  0  0  0  0  0  0  0  0
  152.0239  143.2544  159.4317 C   0  0  1  0  0  0  0  0  0  0  0  0
  152.9612  144.0086  158.4692 C   0  0  0  0  0  0  0  0  0  0  0  0
  152.3079  145.3725  158.3663 C   0  0  0  0  0  0  0  0  0  0  0  0
  150.8409  145.0354  158.5854 C   0  0  0  0  0  0  0  0  0  0  0  0
  150.8949  144.0604  159.6183 O   0  0  0  0  0  0  0  0  0  0  0  0
  152.5365  140.8536  158.8963 C   0  0  0  0  0  0  0  0  0  0  0  0
  153.6511  141.0137  159.3986 O   0  0  0  0  0  0  0  0  0  0  0  0
  153.8110  138.6673  160.7025 N   0  0  0  0  0  0  0  0  0  0  0  0
  154.0848  138.4502  162.0839 C   0  0  0  0  0  0  0  0  0  0  0  0
  153.6545  137.3089  162.8069 C   0  0  0  0  0  0  0  0  0  0  0  0
  153.9729  137.1665  164.1710 C   0  0  0  0  0  0  0  0  0  0  0  0
  154.7229  138.1569  164.8298 C   0  0  0  0  0  0  0  0  0  0  0  0
  155.1481  139.2961  164.1240 C   0  0  0  0  0  0  0  0  0  0  0  0
  154.8238  139.4526  162.7610 C   0  0  0  0  0  0  0  0  0  0  0  0
  155.2586  140.5801  162.1083 O   0  0  0  0  0  0  0  0  0  0  0  0
  154.7493  141.7910  162.5094 C   0  0  0  0  0  0  0  0  0  0  0  0
  153.7213  142.4387  161.7875 C   0  0  0  0  0  0  0  0  0  0  0  0
  153.2216  143.6802  162.2264 C   0  0  0  0  0  0  0  0  0  0  0  0
  153.7418  144.2779  163.3903 C   0  0  0  0  0  0  0  0  0  0  0  0
  154.7605  143.6322  164.1174 C   0  0  0  0  0  0  0  0  0  0  0  0
  155.2599  142.3905  163.6789 C   0  0  0  0  0  0  0  0  0  0  0  0
  154.0978  138.8166  158.0284 H   0  0  0  0  0  0  0  0  0  0  0  0
  152.8398  137.6983  157.6814 H   0  0  0  0  0  0  0  0  0  0  0  0
  149.6541  142.5276  158.2413 H   0  0  0  0  0  0  0  0  0  0  0  0
  152.4689  143.0245  160.4015 H   0  0  0  0  0  0  0  0  0  0  0  0
  153.9775  144.0466  158.8622 H   0  0  0  0  0  0  0  0  0  0  0  0
  152.9758  143.5195  157.4940 H   0  0  0  0  0  0  0  0  0  0  0  0
  152.6653  146.0219  159.1665 H   0  0  0  0  0  0  0  0  0  0  0  0
  152.4955  145.8667  157.4128 H   0  0  0  0  0  0  0  0  0  0  0  0
  150.2471  145.9007  158.8804 H   0  0  0  0  0  0  0  0  0  0  0  0
  150.4024  144.6062  157.6832 H   0  0  0  0  0  0  0  0  0  0  0  0
  154.0536  139.5895  160.3703 H   0  0  0  0  0  0  0  0  0  0  0  0
  153.0750  136.5243  162.3495 H   0  0  0  0  0  0  0  0  0  0  0  0
  153.6414  136.2928  164.7123 H   0  0  0  0  0  0  0  0  0  0  0  0
  154.9693  138.0442  165.8752 H   0  0  0  0  0  0  0  0  0  0  0  0
  155.7211  140.0585  164.6310 H   0  0  0  0  0  0  0  0  0  0  0  0
  153.3128  141.9880  160.8948 H   0  0  0  0  0  0  0  0  0  0  0  0
  152.4383  144.1735  161.6701 H   0  0  0  0  0  0  0  0  0  0  0  0
  153.3576  145.2297  163.7266 H   0  0  0  0  0  0  0  0  0  0  0  0
  155.1579  144.0886  165.0119 H   0  0  0  0  0  0  0  0  0  0  0  0
  156.0413  141.8987  164.2396 H   0  0  0  0  0  0  0  0  0  0  0  0
  1  2  2  0  0  0  0
  2  3  1  0  0  0  0
  2 18  1  0  0  0  0
  3  4  1  0  0  0  0
  3 32  1  0  0  0  0
  3 33  1  0  0  0  0
  4 16  1  0  0  0  0
  4  5  1  0  0  0  0
  5  6  2  0  0  0  0
  5  7  1  0  0  0  0
  7  8  1  0  0  0  0
  7  9  2  0  0  0  0
  9 10  1  0  0  0  0
  9 34  1  0  0  0  0
 10 11  1  0  0  0  0
 10 16  1  0  0  0  0
 11 15  1  0  0  0  0
 11 12  1  0  0  0  0
 11 35  1  0  0  0  0
 12 13  1  0  0  0  0
 12 36  1  0  0  0  0
 12 37  1  0  0  0  0
 13 14  1  0  0  0  0
 13 38  1  0  0  0  0
 13 39  1  0  0  0  0
 14 15  1  0  0  0  0
 14 40  1  0  0  0  0
 14 41  1  0  0  0  0
 16 17  2  0  0  0  0
 18 19  1  0  0  0  0
 18 42  1  0  0  0  0
 19 24  1  0  0  0  0
 19 20  2  0  0  0  0
 20 21  1  0  0  0  0
 20 43  1  0  0  0  0
 21 22  2  0  0  0  0
 21 44  1  0  0  0  0
 22 23  1  0  0  0  0
 22 45  1  0  0  0  0
 23 24  2  0  0  0  0
 23 46  1  0  0  0  0
 24 25  1  0  0  0  0
 25 26  1  0  0  0  0
 26 31  1  0  0  0  0
 26 27  2  0  0  0  0
 27 28  1  0  0  0  0
 27 47  1  0  0  0  0
 28 29  2  0  0  0  0
 28 48  1  0  0  0  0
 29 30  1  0  0  0  0
 29 49  1  0  0  0  0
 30 31  2  0  0  0  0
 30 50  1  0  0  0  0
 31 51  1  0  0  0  0
M  END
> <s_m_source_file>
AV-unprocessed.smi

> <i_m_source_file_index>
135

> <i_lp_mmshare_version>
43012

> <i_f3d_flags>
0

> <s_epik_input>
TzFbQ0gyXVtDSDJdW0NIMl1bQ0BIXTFuKGMyPU8pW2NIXWMoRiljKD1PKW4yW0NIMl1DKD1PKVtOSF1jM1tjSF1bY0hdW2NIXVtjSF1jM09jNFtjSF1bY0hdW2NIXVtjSF1bY0hdNA==

> <s_epik_cmdline>
J2VwaWtfcHl0aG9uJywgJy1waCcsICc3LjAnLCAnLXRuJywgJzgnLCAnLW1hJywgJzIwMCcsICctbWV0YWxfYmluZGluZycsICctaW1hZScsICc8aW5maWxlLm1hZT4nLCAnLW9tYWUnLCAnPG91dGZpbGUubWFlPic=

> <r_lp_tautomer_probability>
1

> <r_epik_Ionization_Penalty>
1.89877e-06

> <r_epik_Ionization_Penalty_Charging>
3.88729e-08

> <r_epik_Ionization_Penalty_Neutral>
1.8599e-06

> <r_epik_State_Penalty>
-0

> <r_epik_Charging_Adjusted_Penalty>
3.88729e-08

> <i_epik_Tot_Q>
0

> <i_epik_Tot_abs_Q>
0

> <r_epik_Metal_State_Penalty>
-0

> <b_epik_Metal_Only>
0

> <s_epik_Chemistry_Notes>
This compound contains an acetal/aminal-like group ( X-CH(R)-Y where X, Y are N, S, or O) that may be acid/base labile, releasing an aldehyde.

> <s_lp_Force_Field>
OPLS_2005

> <r_lp_Energy>
40.6736

> <b_lp_Chiralities_Consistent>
1

> <s_lp_Variant>
AV-unprocessed.smi:135-2

> <Gold.Version>
5.8.1

> <Gold.Id.Protein>
6NUR|6NUR_protein|mol2

> <Gold.PLP.Fitness>
62.0738

> <Gold.PLP.PLP>
-60.8417

> <Gold.PLP.part.hbond>
-1.6300

> <Gold.PLP.part.metal>
0.0000

> <Gold.PLP.part.buried>
-2.6099

> <Gold.PLP.part.nonpolar>
-55.7833

> <Gold.PLP.part.repulsive>
0.0767

> <Gold.PLP.ligand.clash>
0.0000

> <Gold.PLP.ligand.torsion>
0.9319

> <Gold.PLP.Chemscore.Hbond>
1.0000

> <Gold.PLP.Chemscore.CHOScore>
0.0000

> <Gold.PLP.Chemscore.Metal>
0.0000

> <Gold.Chemscore.Hbonds>
donor molecule, donor type, donor heavy atom, donor atom, acceptor molecule, acceptor atom, score
      P1  H  6896  6907       L1     1  1.00

> <Gold.PLP.Chemscore.Internal.Correction>
0.0960

> <Gold.Rescore>
     Score         DG    S(hbond)    S(metal)    S(lipo)     H(rot)  DE(clash)    DE(int)     intcor
     18.60     -22.58       0.99        0.00     162.44       2.04       0.61       3.37       ----

> <Gold.Chemscore.Fitness>
18.5977

> <Gold.Chemscore.DG>
-22.5800

> <Gold.Chemscore.ZeroCoef>
-5.4800

> <Gold.Chemscore.Hbond>
0.9914

> <Gold.Chemscore.Metal>
0.0000

> <Gold.Chemscore.Lipo>
162.4367

> <Gold.Chemscore.Internal_Hbond>
0.0000

> <Gold.Chemscore.DEClash>
0.6104

> <Gold.Chemscore.DEInternal>
3.3719

> <Gold.Chemscore.Rot>
2.0377

> <Gold.Chemscore.Internal.Correction>
   9.000000E+99

> <Gold.Chemscore.Hbonds>
donor molecule, donor type, donor heavy atom, donor atom, acceptor molecule, acceptor atom, score
      P1  H  6896  6907       L1     1  0.97

> <Gold.Chemscore.Hbond.Weighted>
-3.3114

> <Gold.Chemscore.Metal.Weighted>
-0.0000

> <Gold.Chemscore.Lipo.Weighted>
-19.0051

> <Gold.Chemscore.Internal_Hbond.Weighted>
0.0000

> <Gold.Chemscore.DEClash.Weighted>
0.6104

> <Gold.Chemscore.DEInternal.Weighted>
3.3719

> <Gold.Chemscore.Rot.Weighted>
5.2165

> <Gold.Chemscore.Internal.Correction.Weighted>
   9.000000E+99

> <Gold.Protein.RotatedTorsions>
[ 6907 6896 6895 6894 ] final   46.48 input  -60.11 | X-H torsion
[ 7974 7965 7964 7962 ] final -169.96 input  175.53 | X-H torsion
[ 8008 7997 7996 7995 ] final   52.53 input   59.86 | X-H torsion
[ 10167 10162 10161 10158 ] final  115.92 input  -65.29 | X-H torsion
[ 10718 10713 10712 10709 ] final   24.30 input   66.30 | X-H torsion
[ 10763 10752 10751 10750 ] final  -83.50 input  -60.55 | X-H torsion
[ 11005 11000 10999 10996 ] final    0.14 input  -57.11 | X-H torsion

> <Gold.Protein.ActiveResidues>
 VAL166  LYS551  ARG553  GLY616  TRP617  ASP618  TYR619  PRO620  LYS621  CYS622 
 ASP623  PHE694  ASN695  SER759  ASP760  ASP761  ALA762  ILE779  LEU786  VAL792 
 PHE793  MET794  SER795  GLU796  ALA797  LYS798  CYS799  TRP800  GLU811  SER814 

> <Gold.Protein.RotatedAtoms>
  152.2569  134.8075  160.0436 H   0  0  0  0  0  0  0  0  0  0  0  0  # atno 6907 bound_to 6896
  151.8735  133.3475  159.3751 H   0  0  0  0  0  0  0  0  0  0  0  0  # atno 6908 bound_to 6896
  150.7103  134.5016  159.5608 H   0  0  0  0  0  0  0  0  0  0  0  0  # atno 6909 bound_to 6896
  144.7177  140.2143  143.6323 H   0  0  0  0  0  0  0  0  0  0  0  0  # atno 7974 bound_to 7965
  155.4532  140.3459  155.4303 H   0  0  0  0  0  0  0  0  0  0  0  0  # atno 8008 bound_to 7997
  156.1207  140.1486  156.9238 H   0  0  0  0  0  0  0  0  0  0  0  0  # atno 8009 bound_to 7997
  154.4821  140.0866  156.7381 H   0  0  0  0  0  0  0  0  0  0  0  0  # atno 8010 bound_to 7997
  139.6283  144.7111  151.2486 H   0  0  0  0  0  0  0  0  0  0  0  0  # atno 10167 bound_to 10162
  157.1779  130.6789  149.6102 H   0  0  0  0  0  0  0  0  0  0  0  0  # atno 10718 bound_to 10713
  154.5885  135.5554  153.7254 H   0  0  0  0  0  0  0  0  0  0  0  0  # atno 10763 bound_to 10752
  153.0107  135.6337  154.1883 H   0  0  0  0  0  0  0  0  0  0  0  0  # atno 10764 bound_to 10752
  154.1824  135.2886  155.3028 H   0  0  0  0  0  0  0  0  0  0  0  0  # atno 10765 bound_to 10752
  140.6298  133.9585  155.8268 H   0  0  0  0  0  0  0  0  0  0  0  0  # atno 11005 bound_to 11000
  145.8561  139.2199  143.1744 LP  0  0  0  0  0  0  0  0  0  0  0  0  # atno 17320 bound_to 7965
  146.0216  140.8342  142.9920 LP  0  0  0  0  0  0  0  0  0  0  0  0  # atno 17321 bound_to 7965
  140.7424  143.6527  150.8234 LP  0  0  0  0  0  0  0  0  0  0  0  0  # atno 17342 bound_to 10162
  140.0148  143.5605  152.2824 LP  0  0  0  0  0  0  0  0  0  0  0  0  # atno 17343 bound_to 10162
  155.9728  130.4657  150.6262 LP  0  0  0  0  0  0  0  0  0  0  0  0  # atno 17370 bound_to 10713
  157.3981  131.0806  151.1333 LP  0  0  0  0  0  0  0  0  0  0  0  0  # atno 17371 bound_to 10713
  141.0683  134.0243  157.3562 LP  0  0  0  0  0  0  0  0  0  0  0  0  # atno 17394 bound_to 11000
  139.9120  135.0191  156.7731 LP  0  0  0  0  0  0  0  0  0  0  0  0  # atno 17395 bound_to 11000

$$$$
