AV-unprocessed.smi:1965|AV-procd|sdf|7942|dock2
  -GOLD-   2272010113D 1   1.00000     0.00000
 Structure written by MMmdl.
 36 38  0  0  0  0  0  0  0  0  3 V2000
  149.6764  136.5411  159.2943 O   0  0  0  0  0  0  0  0  0  0  0  0
  148.7551  137.3361  159.4757 C   0  0  0  0  0  0  0  0  0  0  0  0
  147.8721  137.2380  160.5032 N   0  5  0  0  0  0  0  0  0  0  0  0
  147.6393  136.0809  161.1501 C   0  0  0  0  0  0  0  0  0  0  0  0
  147.7071  134.8828  160.5581 N   0  0  0  0  0  0  0  0  0  0  0  0
  147.4322  133.8207  161.4213 C   0  0  0  0  0  0  0  0  0  0  0  0
  147.1458  134.2198  162.6998 C   0  0  0  0  0  0  0  0  0  0  0  0
  147.2100  135.9518  162.8579 S   0  0  0  0  0  0  0  0  0  0  0  0
  148.6045  138.3622  158.6178 N   0  0  0  0  0  0  0  0  0  0  0  0
  149.4222  138.6223  157.4401 C   0  0  2  0  0  0  0  0  0  0  0  0
  150.8656  139.0623  157.7529 C   0  0  0  0  0  0  0  0  0  0  0  0
  151.2024  140.1325  156.6954 C   0  0  0  0  0  0  0  0  0  0  0  0
  150.0229  140.1922  155.8104 N   0  3  2  0  0  0  0  0  0  0  0  0
  149.7942  141.4535  155.0724 C   0  0  0  0  0  0  0  0  0  0  0  0
  148.5641  141.2917  154.1557 C   0  0  0  0  0  0  0  0  0  0  0  0
  147.3270  140.8004  154.9359 C   0  0  0  0  0  0  0  0  0  0  0  0
  147.6526  139.5354  155.7534 C   0  0  0  0  0  0  0  0  0  0  0  0
  148.8761  139.8041  156.6439 C   0  0  1  0  0  0  0  0  0  0  0  0
  147.4619  132.8109  161.0397 H   0  0  0  0  0  0  0  0  0  0  0  0
  146.8991  133.6058  163.5529 H   0  0  0  0  0  0  0  0  0  0  0  0
  147.8467  139.0046  158.7979 H   0  0  0  0  0  0  0  0  0  0  0  0
  149.4422  137.7365  156.8019 H   0  0  0  0  0  0  0  0  0  0  0  0
  150.9412  139.4943  158.7521 H   0  0  0  0  0  0  0  0  0  0  0  0
  151.5517  138.2156  157.7096 H   0  0  0  0  0  0  0  0  0  0  0  0
  151.3602  141.0980  157.1787 H   0  0  0  0  0  0  0  0  0  0  0  0
  152.0997  139.8874  156.1264 H   0  0  0  0  0  0  0  0  0  0  0  0
  149.6415  142.2732  155.7761 H   0  0  0  0  0  0  0  0  0  0  0  0
  150.6768  141.6960  154.4796 H   0  0  0  0  0  0  0  0  0  0  0  0
  148.3416  142.2361  153.6584 H   0  0  0  0  0  0  0  0  0  0  0  0
  148.7960  140.5759  153.3658 H   0  0  0  0  0  0  0  0  0  0  0  0
  146.9859  141.5887  155.6084 H   0  0  0  0  0  0  0  0  0  0  0  0
  146.5030  140.6026  154.2495 H   0  0  0  0  0  0  0  0  0  0  0  0
  146.7954  139.2510  156.3647 H   0  0  0  0  0  0  0  0  0  0  0  0
  147.8513  138.6991  155.0817 H   0  0  0  0  0  0  0  0  0  0  0  0
  148.6523  140.6249  157.3299 H   0  0  0  0  0  0  0  0  0  0  0  0
  150.1386  139.4571  155.1277 H   0  0  0  0  0  0  0  0  0  0  0  0
  1  2  2  0  0  0  0
  2  3  1  0  0  0  0
  2  9  1  0  0  0  0
  3  4  1  0  0  0  0
  4  8  1  0  0  0  0
  4  5  2  0  0  0  0
  5  6  1  0  0  0  0
  6  7  2  0  0  0  0
  6 19  1  0  0  0  0
  7  8  1  0  0  0  0
  7 20  1  0  0  0  0
  9 10  1  0  0  0  0
  9 21  1  0  0  0  0
 10 18  1  0  0  0  0
 10 11  1  0  0  0  0
 10 22  1  0  0  0  0
 11 12  1  0  0  0  0
 11 23  1  0  0  0  0
 11 24  1  0  0  0  0
 12 13  1  0  0  0  0
 12 25  1  0  0  0  0
 12 26  1  0  0  0  0
 13 18  1  0  0  0  0
 13 14  1  0  0  0  0
 13 36  1  0  0  0  0
 14 15  1  0  0  0  0
 14 27  1  0  0  0  0
 14 28  1  0  0  0  0
 15 16  1  0  0  0  0
 15 29  1  0  0  0  0
 15 30  1  0  0  0  0
 16 17  1  0  0  0  0
 16 31  1  0  0  0  0
 16 32  1  0  0  0  0
 17 18  1  0  0  0  0
 17 33  1  0  0  0  0
 17 34  1  0  0  0  0
 18 35  1  0  0  0  0
M  CHG  1   3  -1
M  CHG  1  13   1
M  END
> <s_m_source_file>
AV-unprocessed.smi

> <i_m_source_file_index>
1965

> <i_lp_mmshare_version>
43012

> <i_f3d_flags>
0

> <s_epik_input>
czFbY0hdW2NIXW5jMVtOSF1DKD1PKVtOSF1bQ0BIXShbQ0gyXVtDSDJdMilbQ0BASF0oTjIzKVtDSDJdW0NIMl1bQ0gyXVtDSDJdMw==

> <s_epik_cmdline>
J2VwaWtfcHl0aG9uJywgJy1waCcsICc3LjAnLCAnLXRuJywgJzgnLCAnLW1hJywgJzIwMCcsICctbWV0YWxfYmluZGluZycsICctaW1hZScsICc8aW5maWxlLm1hZT4nLCAnLW9tYWUnLCAnPG91dGZpbGUubWFlPic=

> <r_lp_tautomer_probability>
1

> <r_epik_Ionization_Penalty>
7.4116

> <r_epik_Ionization_Penalty_Charging>
6.13869

> <r_epik_Ionization_Penalty_Neutral>
1.27291

> <r_epik_State_Penalty>
6.13761

> <r_epik_Charging_Adjusted_Penalty>
12.2763

> <i_epik_Tot_Q>
0

> <i_epik_Tot_abs_Q>
2

> <r_epik_Metal_State_Penalty>
2.08142

> <b_epik_Metal_Only>
1

> <s_lp_Force_Field>
OPLS_2005

> <r_lp_Energy>
26.2692

> <b_lp_Chiralities_Consistent>
1

> <s_lp_Variant>
AV-unprocessed.smi:1965-11

> <Gold.Version>
5.8.1

> <Gold.Id.Protein>
6NUR|6NUR_protein|mol2

> <Gold.PLP.Fitness>
40.2566

> <Gold.PLP.PLP>
-28.6161

> <Gold.PLP.part.hbond>
-3.0000

> <Gold.PLP.part.metal>
0.0000

> <Gold.PLP.part.buried>
-3.3057

> <Gold.PLP.part.nonpolar>
-24.0913

> <Gold.PLP.part.repulsive>
0.2548

> <Gold.PLP.ligand.clash>
0.0000

> <Gold.PLP.ligand.torsion>
0.3687

> <Gold.PLP.Chemscore.Hbond>
4.1223

> <Gold.PLP.Chemscore.CHOScore>
0.0000

> <Gold.PLP.Chemscore.Metal>
0.0000

> <Gold.Chemscore.Hbonds>
donor molecule, donor type, donor heavy atom, donor atom, acceptor molecule, acceptor atom, score
      P1  H  6896  6907       L1     1  0.91
      P1  H  6931  6943       L1     3  1.03
      P1  H  6934  6947       L1     3  1.63

> <Gold.PLP.Chemscore.Internal.Correction>
0.0110

> <Gold.Rescore>
     Score         DG    S(hbond)    S(metal)    S(lipo)     H(rot)  DE(clash)    DE(int)     intcor
     14.96     -16.52       2.04        0.00      58.01       1.00       0.04       1.53       ----

> <Gold.Chemscore.Fitness>
14.9560

> <Gold.Chemscore.DG>
-16.5249

> <Gold.Chemscore.ZeroCoef>
-5.4800

> <Gold.Chemscore.Hbond>
2.0412

> <Gold.Chemscore.Metal>
0.0000

> <Gold.Chemscore.Lipo>
58.0107

> <Gold.Chemscore.Internal_Hbond>
0.0000

> <Gold.Chemscore.DEClash>
0.0412

> <Gold.Chemscore.DEInternal>
1.5277

> <Gold.Chemscore.Rot>
1.0000

> <Gold.Chemscore.Internal.Correction>
   9.000000E+99

> <Gold.Chemscore.Hbonds>
donor molecule, donor type, donor heavy atom, donor atom, acceptor molecule, acceptor atom, score
      P1  H  6896  6907       L1     1  0.87
      P1  H  6931  6943       L1     3  0.03
      P1  H  6934  6947       L1     3  0.53

> <Gold.Chemscore.Hbond.Weighted>
-6.8176

> <Gold.Chemscore.Metal.Weighted>
-0.0000

> <Gold.Chemscore.Lipo.Weighted>
-6.7873

> <Gold.Chemscore.Internal_Hbond.Weighted>
0.0000

> <Gold.Chemscore.DEClash.Weighted>
0.0412

> <Gold.Chemscore.DEInternal.Weighted>
1.5277

> <Gold.Chemscore.Rot.Weighted>
2.5600

> <Gold.Chemscore.Internal.Correction.Weighted>
   9.000000E+99

> <Gold.Protein.RotatedTorsions>
[ 6907 6896 6895 6894 ] final  -42.75 input  -60.11 | X-H torsion
[ 7974 7965 7964 7962 ] final -152.51 input  175.53 | X-H torsion
[ 8008 7997 7996 7995 ] final -165.25 input   59.86 | X-H torsion
[ 10167 10162 10161 10158 ] final  165.97 input  -65.29 | X-H torsion
[ 10718 10713 10712 10709 ] final -148.57 input   66.30 | X-H torsion
[ 10763 10752 10751 10750 ] final   98.27 input  -60.55 | X-H torsion
[ 11005 11000 10999 10996 ] final  127.32 input  -57.11 | X-H torsion

> <Gold.Protein.ActiveResidues>
 VAL166  LYS551  ARG553  GLY616  TRP617  ASP618  TYR619  PRO620  LYS621  CYS622 
 ASP623  PHE694  ASN695  SER759  ASP760  ASP761  ALA762  ILE779  LEU786  VAL792 
 PHE793  MET794  SER795  GLU796  ALA797  LYS798  CYS799  TRP800  GLU811  SER814 

> <Gold.Protein.RotatedAtoms>
  150.9517  134.8916  159.7675 H   0  0  0  0  0  0  0  0  0  0  0  0  # atno 6907 bound_to 6896
  152.5122  134.3798  159.9357 H   0  0  0  0  0  0  0  0  0  0  0  0  # atno 6908 bound_to 6896
  151.3813  133.3780  159.2745 H   0  0  0  0  0  0  0  0  0  0  0  0  # atno 6909 bound_to 6896
  144.7790  140.4652  143.5853 H   0  0  0  0  0  0  0  0  0  0  0  0  # atno 7974 bound_to 7965
  155.8472  140.0957  157.1698 H   0  0  0  0  0  0  0  0  0  0  0  0  # atno 8008 bound_to 7997
  154.3984  140.1390  156.3862 H   0  0  0  0  0  0  0  0  0  0  0  0  # atno 8009 bound_to 7997
  155.8001  140.3453  155.5400 H   0  0  0  0  0  0  0  0  0  0  0  0  # atno 8010 bound_to 7997
  139.4915  144.4077  151.9336 H   0  0  0  0  0  0  0  0  0  0  0  0  # atno 10167 bound_to 10162
  156.4220  130.8033  151.2256 H   0  0  0  0  0  0  0  0  0  0  0  0  # atno 10718 bound_to 10713
  153.2870  135.4154  155.1132 H   0  0  0  0  0  0  0  0  0  0  0  0  # atno 10763 bound_to 10752
  154.8508  135.3509  154.6033 H   0  0  0  0  0  0  0  0  0  0  0  0  # atno 10764 bound_to 10752
  153.6455  135.7055  153.5284 H   0  0  0  0  0  0  0  0  0  0  0  0  # atno 10765 bound_to 10752
  139.9501  134.9623  156.8837 H   0  0  0  0  0  0  0  0  0  0  0  0  # atno 11005 bound_to 11000
  145.6103  139.1512  143.3079 LP  0  0  0  0  0  0  0  0  0  0  0  0  # atno 17320 bound_to 7965
  146.1987  140.6220  142.9112 LP  0  0  0  0  0  0  0  0  0  0  0  0  # atno 17321 bound_to 7965
  140.3517  144.3080  150.5948 LP  0  0  0  0  0  0  0  0  0  0  0  0  # atno 17342 bound_to 10162
  140.5479  143.2211  151.7976 LP  0  0  0  0  0  0  0  0  0  0  0  0  # atno 17343 bound_to 10162
  157.7508  131.0225  150.3795 LP  0  0  0  0  0  0  0  0  0  0  0  0  # atno 17370 bound_to 10713
  156.4114  130.3935  149.6888 LP  0  0  0  0  0  0  0  0  0  0  0  0  # atno 17371 bound_to 10713
  140.5739  134.0417  155.7440 LP  0  0  0  0  0  0  0  0  0  0  0  0  # atno 17394 bound_to 11000
  141.1162  133.9536  157.2817 LP  0  0  0  0  0  0  0  0  0  0  0  0  # atno 17395 bound_to 11000

$$$$
