AV-unprocessed.smi:2473|AV-procd|sdf|9743|dock9
  -GOLD-   2272013383D 1   1.00000     0.00000
 Structure written by MMmdl.
 48 49  0  0  0  0  0  0  0  0  2 V2000
  153.4047  141.9934  162.3689 C   0  0  0  0  0  0  0  0  0  0  0  0
  152.6063  142.5402  161.1766 C   0  0  2  0  0  0  0  0  0  0  0  0
  153.2307  142.0927  159.8388 C   0  0  0  0  0  0  0  0  0  0  0  0
  152.4804  142.6374  158.6016 C   0  0  1  0  0  0  0  0  0  0  0  0
  151.1785  141.8825  158.2694 C   0  0  0  0  0  0  0  0  0  0  0  0
  150.2846  141.7528  159.1062 O   0  0  0  0  0  0  0  0  0  0  0  0
  151.0925  141.3638  157.0354 N   0  0  0  0  0  0  0  0  0  0  0  0
  149.9294  140.6568  156.5195 C   0  0  0  0  0  0  0  0  0  0  0  0
  149.8567  140.7819  154.9924 C   0  0  0  0  0  0  0  0  0  0  0  0
  148.5275  141.2796  154.5163 C   0  0  0  0  0  0  0  0  0  0  0  0
  148.0620  142.5247  154.6719 N   0  3  0  0  0  0  0  0  0  0  0  0
  146.8224  142.6447  154.1047 C   0  0  0  0  0  0  0  0  0  0  0  0
  146.5196  141.4185  153.5727 C   0  0  0  0  0  0  0  0  0  0  0  0
  147.5874  140.5998  153.8386 N   0  0  0  0  0  0  0  0  0  0  0  0
  147.7229  139.1915  153.4595 C   0  0  0  0  0  0  0  0  0  0  0  0
  152.2980  144.1736  158.7091 C   0  0  0  0  0  0  0  0  0  0  0  0
  151.7181  144.6984  160.0515 C   0  0  0  0  0  0  0  0  0  0  0  0
  151.9014  146.2293  160.0897 C   0  0  0  0  0  0  0  0  0  0  0  0
  150.2037  144.4205  160.1829 C   0  0  0  0  0  0  0  0  0  0  0  0
  152.5019  144.0779  161.2341 C   0  0  0  0  0  0  0  0  0  0  0  0
  154.4284  142.3688  162.3681 H   0  0  0  0  0  0  0  0  0  0  0  0
  153.4494  140.9042  162.3443 H   0  0  0  0  0  0  0  0  0  0  0  0
  152.9450  142.2815  163.3147 H   0  0  0  0  0  0  0  0  0  0  0  0
  151.6040  142.1217  161.2563 H   0  0  0  0  0  0  0  0  0  0  0  0
  154.2647  142.4373  159.7966 H   0  0  0  0  0  0  0  0  0  0  0  0
  153.2851  141.0037  159.7981 H   0  0  0  0  0  0  0  0  0  0  0  0
  153.1261  142.4524  157.7418 H   0  0  0  0  0  0  0  0  0  0  0  0
  151.8724  141.4954  156.4076 H   0  0  0  0  0  0  0  0  0  0  0  0
  149.9872  139.6076  156.8124 H   0  0  0  0  0  0  0  0  0  0  0  0
  149.0241  141.0679  156.9691 H   0  0  0  0  0  0  0  0  0  0  0  0
  150.6183  141.4652  154.6151 H   0  0  0  0  0  0  0  0  0  0  0  0
  150.0257  139.8155  154.5157 H   0  0  0  0  0  0  0  0  0  0  0  0
  146.2643  143.5697  154.1198 H   0  0  0  0  0  0  0  0  0  0  0  0
  145.6456  141.0776  153.0368 H   0  0  0  0  0  0  0  0  0  0  0  0
  146.8345  138.8729  152.9138 H   0  0  0  0  0  0  0  0  0  0  0  0
  147.8301  138.5830  154.3578 H   0  0  0  0  0  0  0  0  0  0  0  0
  148.5985  139.0687  152.8220 H   0  0  0  0  0  0  0  0  0  0  0  0
  153.2838  144.6183  158.5641 H   0  0  0  0  0  0  0  0  0  0  0  0
  151.7002  144.5490  157.8774 H   0  0  0  0  0  0  0  0  0  0  0  0
  151.5236  146.6533  161.0209 H   0  0  0  0  0  0  0  0  0  0  0  0
  151.3698  146.7135  159.2696 H   0  0  0  0  0  0  0  0  0  0  0  0
  152.9518  146.5113  160.0085 H   0  0  0  0  0  0  0  0  0  0  0  0
  149.7945  144.8928  161.0766 H   0  0  0  0  0  0  0  0  0  0  0  0
  149.9704  143.3611  160.2595 H   0  0  0  0  0  0  0  0  0  0  0  0
  149.6538  144.8135  159.3270 H   0  0  0  0  0  0  0  0  0  0  0  0
  152.0447  144.3799  162.1776 H   0  0  0  0  0  0  0  0  0  0  0  0
  153.5122  144.4898  161.2492 H   0  0  0  0  0  0  0  0  0  0  0  0
  148.5588  143.2707  155.1426 H   0  0  0  0  0  0  0  0  0  0  0  0
  1  2  1  0  0  0  0
  1 21  1  0  0  0  0
  1 22  1  0  0  0  0
  1 23  1  0  0  0  0
  2 20  1  0  0  0  0
  2  3  1  0  0  0  0
  2 24  1  0  0  0  0
  3  4  1  0  0  0  0
  3 25  1  0  0  0  0
  3 26  1  0  0  0  0
  4  5  1  0  0  0  0
  4 16  1  0  0  0  0
  4 27  1  0  0  0  0
  5  6  2  0  0  0  0
  5  7  1  0  0  0  0
  7  8  1  0  0  0  0
  7 28  1  0  0  0  0
  8  9  1  0  0  0  0
  8 29  1  0  0  0  0
  8 30  1  0  0  0  0
  9 10  1  0  0  0  0
  9 31  1  0  0  0  0
  9 32  1  0  0  0  0
 10 14  1  0  0  0  0
 10 11  2  0  0  0  0
 11 12  1  0  0  0  0
 11 48  1  0  0  0  0
 12 13  2  0  0  0  0
 12 33  1  0  0  0  0
 13 14  1  0  0  0  0
 13 34  1  0  0  0  0
 14 15  1  0  0  0  0
 15 35  1  0  0  0  0
 15 36  1  0  0  0  0
 15 37  1  0  0  0  0
 16 17  1  0  0  0  0
 16 38  1  0  0  0  0
 16 39  1  0  0  0  0
 17 18  1  0  0  0  0
 17 19  1  0  0  0  0
 17 20  1  0  0  0  0
 18 40  1  0  0  0  0
 18 41  1  0  0  0  0
 18 42  1  0  0  0  0
 19 43  1  0  0  0  0
 19 44  1  0  0  0  0
 19 45  1  0  0  0  0
 20 46  1  0  0  0  0
 20 47  1  0  0  0  0
M  CHG  1  11   1
M  END
> <s_m_source_file>
AV-unprocessed.smi

> <i_m_source_file_index>
2473

> <i_lp_mmshare_version>
43012

> <i_f3d_flags>
0

> <s_epik_input>
W0NIM11bQ0BASF0oW0NIMl0xKVtDSDJdW0NASF0oW0NIMl1DMShbQ0gzXSlbQ0gzXSlDKD1PKVtOSF1bQ0gyXVtDSDJdYzJuW2NIXVtjSF1uMltDSDNd

> <s_epik_cmdline>
J2VwaWtfcHl0aG9uJywgJy1waCcsICc3LjAnLCAnLXRuJywgJzgnLCAnLW1hJywgJzIwMCcsICctbWV0YWxfYmluZGluZycsICctaW1hZScsICc8aW5maWxlLm1hZT4nLCAnLW9tYWUnLCAnPG91dGZpbGUubWFlPic=

> <r_lp_tautomer_probability>
1

> <r_epik_Ionization_Penalty>
0.0796112

> <r_epik_Ionization_Penalty_Charging>
0

> <r_epik_Ionization_Penalty_Neutral>
0.0796112

> <r_epik_State_Penalty>
0.0704541

> <r_epik_Charging_Adjusted_Penalty>
0.0704541

> <i_epik_Tot_Q>
1

> <i_epik_Tot_abs_Q>
1

> <r_epik_Metal_State_Penalty>
0.409899

> <b_epik_Metal_Only>
0

> <s_lp_Force_Field>
OPLS_2005

> <r_lp_Energy>
17.1237

> <b_lp_Chiralities_Consistent>
1

> <s_lp_Variant>
AV-unprocessed.smi:2473-1

> <Gold.Version>
5.8.1

> <Gold.Id.Protein>
6NUR|6NUR_protein|mol2

> <Gold.PLP.Fitness>
54.3780

> <Gold.PLP.PLP>
-46.8707

> <Gold.PLP.part.hbond>
-1.9916

> <Gold.PLP.part.metal>
0.0000

> <Gold.PLP.part.buried>
-1.2247

> <Gold.PLP.part.nonpolar>
-43.8541

> <Gold.PLP.part.repulsive>
0.2774

> <Gold.PLP.ligand.clash>
0.0000

> <Gold.PLP.ligand.torsion>
0.7816

> <Gold.PLP.Chemscore.Hbond>
2.0000

> <Gold.PLP.Chemscore.CHOScore>
1.0000

> <Gold.PLP.Chemscore.Metal>
0.0000

> <Gold.Chemscore.Hbonds>
donor molecule, donor type, donor heavy atom, donor atom, acceptor molecule, acceptor atom, score
      L1  H    11    48       P1  8028  2.00
      L1  C    13    34       P1 10175  1.00

> <Gold.PLP.Chemscore.Internal.Correction>
0.0704

> <Gold.Rescore>
     Score         DG    S(hbond)    S(metal)    S(lipo)     H(rot)  DE(clash)    DE(int)     intcor
     17.68     -20.59       0.99        0.00     135.66       1.58       0.85       2.07       ----

> <Gold.Chemscore.Fitness>
17.6811

> <Gold.Chemscore.DG>
-20.5946

> <Gold.Chemscore.ZeroCoef>
-5.4800

> <Gold.Chemscore.Hbond>
0.9855

> <Gold.Chemscore.Metal>
0.0000

> <Gold.Chemscore.Lipo>
135.6607

> <Gold.Chemscore.Internal_Hbond>
0.0000

> <Gold.Chemscore.DEClash>
0.8464

> <Gold.Chemscore.DEInternal>
2.0670

> <Gold.Chemscore.Rot>
1.5818

> <Gold.Chemscore.Internal.Correction>
   9.000000E+99

> <Gold.Chemscore.Hbonds>
donor molecule, donor type, donor heavy atom, donor atom, acceptor molecule, acceptor atom, score
      L1  H    11    48       P1  8028  0.94

> <Gold.Chemscore.Hbond.Weighted>
-3.2917

> <Gold.Chemscore.Metal.Weighted>
-0.0000

> <Gold.Chemscore.Lipo.Weighted>
-15.8723

> <Gold.Chemscore.Internal_Hbond.Weighted>
0.0000

> <Gold.Chemscore.DEClash.Weighted>
0.8464

> <Gold.Chemscore.DEInternal.Weighted>
2.0670

> <Gold.Chemscore.Rot.Weighted>
4.0495

> <Gold.Chemscore.Internal.Correction.Weighted>
   9.000000E+99

> <Gold.Protein.RotatedTorsions>
[ 6907 6896 6895 6894 ] final   90.01 input  -60.11 | X-H torsion
[ 7974 7965 7964 7962 ] final  -47.20 input  175.53 | X-H torsion
[ 8008 7997 7996 7995 ] final  171.59 input   59.86 | X-H torsion
[ 10167 10162 10161 10158 ] final  -23.12 input  -65.29 | X-H torsion
[ 10718 10713 10712 10709 ] final   12.52 input   66.30 | X-H torsion
[ 10763 10752 10751 10750 ] final -171.10 input  -60.55 | X-H torsion
[ 11005 11000 10999 10996 ] final -101.11 input  -57.11 | X-H torsion

> <Gold.Protein.ActiveResidues>
 VAL166  LYS551  ARG553  GLY616  TRP617  ASP618  TYR619  PRO620  LYS621  CYS622 
 ASP623  PHE694  ASN695  SER759  ASP760  ASP761  ALA762  ILE779  LEU786  VAL792 
 PHE793  MET794  SER795  GLU796  ALA797  LYS798  CYS799  TRP800  GLU811  SER814 

> <Gold.Protein.RotatedAtoms>
  152.5441  134.1877  159.8661 H   0  0  0  0  0  0  0  0  0  0  0  0  # atno 6907 bound_to 6896
  151.1875  133.4680  159.2602 H   0  0  0  0  0  0  0  0  0  0  0  0  # atno 6908 bound_to 6896
  151.1116  135.0042  159.8552 H   0  0  0  0  0  0  0  0  0  0  0  0  # atno 6909 bound_to 6896
  145.9640  140.7450  142.9443 H   0  0  0  0  0  0  0  0  0  0  0  0  # atno 7974 bound_to 7965
  156.1256  140.1508  156.9140 H   0  0  0  0  0  0  0  0  0  0  0  0  # atno 8008 bound_to 7997
  154.4869  140.0862  156.7548 H   0  0  0  0  0  0  0  0  0  0  0  0  # atno 8009 bound_to 7997
  155.4349  140.3428  155.4286 H   0  0  0  0  0  0  0  0  0  0  0  0  # atno 8010 bound_to 7997
  140.7287  143.4472  151.0570 H   0  0  0  0  0  0  0  0  0  0  0  0  # atno 10167 bound_to 10162
  157.0113  130.6118  149.5708 H   0  0  0  0  0  0  0  0  0  0  0  0  # atno 10718 bound_to 10713
  154.6342  135.2890  155.0181 H   0  0  0  0  0  0  0  0  0  0  0  0  # atno 10763 bound_to 10752
  154.1330  135.6530  153.4930 H   0  0  0  0  0  0  0  0  0  0  0  0  # atno 10764 bound_to 10752
  153.0294  135.5315  154.7182 H   0  0  0  0  0  0  0  0  0  0  0  0  # atno 10765 bound_to 10752
  141.1244  133.8452  157.1189 H   0  0  0  0  0  0  0  0  0  0  0  0  # atno 11005 bound_to 11000
  144.6821  140.2638  143.7315 LP  0  0  0  0  0  0  0  0  0  0  0  0  # atno 17320 bound_to 7965
  145.8000  139.1960  143.2053 LP  0  0  0  0  0  0  0  0  0  0  0  0  # atno 17321 bound_to 7965
  139.8144  143.7906  152.3173 LP  0  0  0  0  0  0  0  0  0  0  0  0  # atno 17342 bound_to 10162
  139.7967  144.7390  150.9881 LP  0  0  0  0  0  0  0  0  0  0  0  0  # atno 17343 bound_to 10162
  156.0135  130.5228  150.8063 LP  0  0  0  0  0  0  0  0  0  0  0  0  # atno 17370 bound_to 10713
  157.5318  131.0937  150.9944 LP  0  0  0  0  0  0  0  0  0  0  0  0  # atno 17371 bound_to 10713
  140.0229  134.9937  157.0628 LP  0  0  0  0  0  0  0  0  0  0  0  0  # atno 17394 bound_to 11000
  140.4410  134.1681  155.7174 LP  0  0  0  0  0  0  0  0  0  0  0  0  # atno 17395 bound_to 11000

$$$$
