AV-unprocessed.smi:2526|AV-procd|sdf|9934|dock8
  -GOLD-   2272013573D 1   1.00000     0.00000
 Structure written by MMmdl.
 29 30  0  0  0  0  0  0  0  0  2 V2000
  152.1440  145.5582  159.4229 C   0  0  0  0  0  0  0  0  0  0  0  0
  152.0621  144.1480  159.1085 N   0  0  0  0  0  0  0  0  0  0  0  0
  151.3551  143.5322  158.0988 C   0  0  0  0  0  0  0  0  0  0  0  0
  151.5861  142.1869  158.1939 C   0  0  0  0  0  0  0  0  0  0  0  0
  151.0503  141.0614  157.3413 C   0  0  2  0  0  0  0  0  0  0  0  0
  152.1486  140.2704  156.7799 N   0  0  0  0  0  0  0  0  0  0  0  0
  152.1761  139.6656  155.5788 C   0  0  0  0  0  0  0  0  0  0  0  0
  153.1275  138.9697  155.2341 O   0  0  0  0  0  0  0  0  0  0  0  0
  151.0080  139.8818  154.6041 C   0  0  0  0  0  0  0  0  0  0  0  0
  149.7483  140.4640  155.2664 C   0  0  0  0  0  0  0  0  0  0  0  0
  150.1112  141.5958  156.2347 C   0  0  1  0  0  0  0  0  0  0  0  0
  148.9017  142.2217  156.7996 N   0  3  0  0  0  0  0  0  0  0  0  0
  152.4653  142.0865  159.3109 C   0  0  0  0  0  0  0  0  0  0  0  0
  152.7448  143.2579  159.8564 N   0  0  0  0  0  0  0  0  0  0  0  0
  151.3253  146.0956  158.9432 H   0  0  0  0  0  0  0  0  0  0  0  0
  153.0922  145.9592  159.0633 H   0  0  0  0  0  0  0  0  0  0  0  0
  152.0786  145.7057  160.5015 H   0  0  0  0  0  0  0  0  0  0  0  0
  150.7505  144.0965  157.4036 H   0  0  0  0  0  0  0  0  0  0  0  0
  150.4821  140.3697  157.9656 H   0  0  0  0  0  0  0  0  0  0  0  0
  152.9464  140.1258  157.3826 H   0  0  0  0  0  0  0  0  0  0  0  0
  151.3549  140.5628  153.8263 H   0  0  0  0  0  0  0  0  0  0  0  0
  150.7688  138.9403  154.1081 H   0  0  0  0  0  0  0  0  0  0  0  0
  149.0706  140.8301  154.4942 H   0  0  0  0  0  0  0  0  0  0  0  0
  149.2138  139.6744  155.7972 H   0  0  0  0  0  0  0  0  0  0  0  0
  150.6326  142.3715  155.6710 H   0  0  0  0  0  0  0  0  0  0  0  0
  148.0862  141.6944  156.5218 H   0  0  0  0  0  0  0  0  0  0  0  0
  148.8220  143.1692  156.4587 H   0  0  0  0  0  0  0  0  0  0  0  0
  152.9041  141.1986  159.7416 H   0  0  0  0  0  0  0  0  0  0  0  0
  148.9695  142.2321  157.8074 H   0  0  0  0  0  0  0  0  0  0  0  0
  1  2  1  0  0  0  0
  1 15  1  0  0  0  0
  1 16  1  0  0  0  0
  1 17  1  0  0  0  0
  2 14  1  0  0  0  0
  2  3  1  0  0  0  0
  3  4  2  0  0  0  0
  3 18  1  0  0  0  0
  4  5  1  0  0  0  0
  4 13  1  0  0  0  0
  5 11  1  0  0  0  0
  5  6  1  0  0  0  0
  5 19  1  0  0  0  0
  6  7  1  0  0  0  0
  6 20  1  0  0  0  0
  7  8  2  0  0  0  0
  7  9  1  0  0  0  0
  9 10  1  0  0  0  0
  9 21  1  0  0  0  0
  9 22  1  0  0  0  0
 10 11  1  0  0  0  0
 10 23  1  0  0  0  0
 10 24  1  0  0  0  0
 11 12  1  0  0  0  0
 11 25  1  0  0  0  0
 12 26  1  0  0  0  0
 12 27  1  0  0  0  0
 12 29  1  0  0  0  0
 13 14  2  0  0  0  0
 13 28  1  0  0  0  0
M  CHG  1  12   1
M  END
> <s_m_source_file>
AV-unprocessed.smi

> <i_m_source_file_index>
2526

> <i_lp_mmshare_version>
43012

> <i_f3d_flags>
0

> <s_epik_input>
W0NIM11uMVtjSF1jKFtjSF1uMSlbQ0BASF0yW05IXUMoPU8pW0NIMl1bQ0gyXVtDQEhdMltOSDJd

> <s_epik_cmdline>
J2VwaWtfcHl0aG9uJywgJy1waCcsICc3LjAnLCAnLXRuJywgJzgnLCAnLW1hJywgJzIwMCcsICctbWV0YWxfYmluZGluZycsICctaW1hZScsICc8aW5maWxlLm1hZT4nLCAnLW9tYWUnLCAnPG91dGZpbGUubWFlPic=

> <r_lp_tautomer_probability>
1

> <r_epik_Ionization_Penalty>
0.00878543

> <r_epik_Ionization_Penalty_Charging>
0.00874185

> <r_epik_Ionization_Penalty_Neutral>
4.35793e-05

> <r_epik_State_Penalty>
0.00660351

> <r_epik_Charging_Adjusted_Penalty>
0.0153454

> <i_epik_Tot_Q>
1

> <i_epik_Tot_abs_Q>
1

> <r_epik_Metal_State_Penalty>
0.00660727

> <b_epik_Metal_Only>
0

> <s_lp_Force_Field>
OPLS_2005

> <r_lp_Energy>
10.7235

> <b_lp_Chiralities_Consistent>
1

> <s_lp_Variant>
AV-unprocessed.smi:2526-1

> <Gold.Version>
5.8.1

> <Gold.Id.Protein>
6NUR|6NUR_protein|mol2

> <Gold.PLP.Fitness>
41.5512

> <Gold.PLP.PLP>
-30.0148

> <Gold.PLP.part.hbond>
-2.0000

> <Gold.PLP.part.metal>
0.0000

> <Gold.PLP.part.buried>
-1.6648

> <Gold.PLP.part.nonpolar>
-27.1032

> <Gold.PLP.part.repulsive>
0.1259

> <Gold.PLP.ligand.clash>
0.0000

> <Gold.PLP.ligand.torsion>
0.0176

> <Gold.PLP.Chemscore.Hbond>
2.8500

> <Gold.PLP.Chemscore.CHOScore>
1.0000

> <Gold.PLP.Chemscore.Metal>
0.0000

> <Gold.Chemscore.Hbonds>
donor molecule, donor type, donor heavy atom, donor atom, acceptor molecule, acceptor atom, score
      L1  H    12    27       P1  8028  2.00
      P1  H  7997  8008       L1     8  0.65
      L1  C     3    18       P1  8028  0.82

> <Gold.PLP.Chemscore.Internal.Correction>
0.0215

> <Gold.Rescore>
     Score         DG    S(hbond)    S(metal)    S(lipo)     H(rot)  DE(clash)    DE(int)     intcor
     14.05     -14.22       1.00        0.00      68.07       1.00       0.15       0.02       ----

> <Gold.Chemscore.Fitness>
14.0480

> <Gold.Chemscore.DG>
-14.2221

> <Gold.Chemscore.ZeroCoef>
-5.4800

> <Gold.Chemscore.Hbond>
0.9992

> <Gold.Chemscore.Metal>
0.0000

> <Gold.Chemscore.Lipo>
68.0743

> <Gold.Chemscore.Internal_Hbond>
0.0000

> <Gold.Chemscore.DEClash>
0.1541

> <Gold.Chemscore.DEInternal>
0.0200

> <Gold.Chemscore.Rot>
1.0000

> <Gold.Chemscore.Internal.Correction>
   9.000000E+99

> <Gold.Chemscore.Hbonds>
donor molecule, donor type, donor heavy atom, donor atom, acceptor molecule, acceptor atom, score
      L1  H    12    27       P1  8028  0.96
      P1  H  7997  8008       L1     8  0.06

> <Gold.Chemscore.Hbond.Weighted>
-3.3374

> <Gold.Chemscore.Metal.Weighted>
-0.0000

> <Gold.Chemscore.Lipo.Weighted>
-7.9647

> <Gold.Chemscore.Internal_Hbond.Weighted>
0.0000

> <Gold.Chemscore.DEClash.Weighted>
0.1541

> <Gold.Chemscore.DEInternal.Weighted>
0.0200

> <Gold.Chemscore.Rot.Weighted>
2.5600

> <Gold.Chemscore.Internal.Correction.Weighted>
   9.000000E+99

> <Gold.Protein.RotatedTorsions>
[ 6907 6896 6895 6894 ] final    2.67 input  -60.11 | X-H torsion
[ 7974 7965 7964 7962 ] final -160.66 input  175.53 | X-H torsion
[ 8008 7997 7996 7995 ] final  -23.06 input   59.86 | X-H torsion
[ 10167 10162 10161 10158 ] final  126.08 input  -65.29 | X-H torsion
[ 10718 10713 10712 10709 ] final  170.22 input   66.30 | X-H torsion
[ 10763 10752 10751 10750 ] final -118.02 input  -60.55 | X-H torsion
[ 11005 11000 10999 10996 ] final  -70.44 input  -57.11 | X-H torsion

> <Gold.Protein.ActiveResidues>
 VAL166  LYS551  ARG553  GLY616  TRP617  ASP618  TYR619  PRO620  LYS621  CYS622 
 ASP623  PHE694  ASN695  SER759  ASP760  ASP761  ALA762  ILE779  LEU786  VAL792 
 PHE793  MET794  SER795  GLU796  ALA797  LYS798  CYS799  TRP800  GLU811  SER814 

> <Gold.Protein.RotatedAtoms>
  151.6126  135.1039  160.0084 H   0  0  0  0  0  0  0  0  0  0  0  0  # atno 6907 bound_to 6896
  152.4200  133.7097  159.6482 H   0  0  0  0  0  0  0  0  0  0  0  0  # atno 6908 bound_to 6896
  150.8088  133.8387  159.3214 H   0  0  0  0  0  0  0  0  0  0  0  0  # atno 6909 bound_to 6896
  144.7419  140.3509  143.6116 H   0  0  0  0  0  0  0  0  0  0  0  0  # atno 7974 bound_to 7965
  154.4607  140.1991  156.0253 H   0  0  0  0  0  0  0  0  0  0  0  0  # atno 8008 bound_to 7997
  156.0834  140.3268  155.7694 H   0  0  0  0  0  0  0  0  0  0  0  0  # atno 8009 bound_to 7997
  155.5075  140.0559  157.2920 H   0  0  0  0  0  0  0  0  0  0  0  0  # atno 8010 bound_to 7997
  139.5650  144.6906  151.3935 H   0  0  0  0  0  0  0  0  0  0  0  0  # atno 10167 bound_to 10162
  157.0113  131.0205  151.2802 H   0  0  0  0  0  0  0  0  0  0  0  0  # atno 10718 bound_to 10713
  154.8574  135.4288  154.2073 H   0  0  0  0  0  0  0  0  0  0  0  0  # atno 10763 bound_to 10752
  153.3106  135.6975  153.7125 H   0  0  0  0  0  0  0  0  0  0  0  0  # atno 10764 bound_to 10752
  153.6219  135.3500  155.2987 H   0  0  0  0  0  0  0  0  0  0  0  0  # atno 10765 bound_to 10752
  141.1574  133.6790  156.6753 H   0  0  0  0  0  0  0  0  0  0  0  0  # atno 11005 bound_to 11000
  145.7277  139.1727  143.2448 LP  0  0  0  0  0  0  0  0  0  0  0  0  # atno 17320 bound_to 7965
  146.1230  140.7285  142.9448 LP  0  0  0  0  0  0  0  0  0  0  0  0  # atno 17321 bound_to 7965
  140.6933  143.7809  150.7288 LP  0  0  0  0  0  0  0  0  0  0  0  0  # atno 17342 bound_to 10162
  140.1298  143.4536  152.2261 LP  0  0  0  0  0  0  0  0  0  0  0  0  # atno 17343 bound_to 10162
  157.5318  130.8063  149.7926 LP  0  0  0  0  0  0  0  0  0  0  0  0  # atno 17370 bound_to 10713
  156.0135  130.3823  150.2186 LP  0  0  0  0  0  0  0  0  0  0  0  0  # atno 17371 bound_to 10713
  140.3144  134.8059  157.4202 LP  0  0  0  0  0  0  0  0  0  0  0  0  # atno 17394 bound_to 11000
  140.1151  134.5294  155.8232 LP  0  0  0  0  0  0  0  0  0  0  0  0  # atno 17395 bound_to 11000

$$$$
