AV-unprocessed.smi:1795|AV-procd|sdf|7245|dock1
  -GOLD-   22720 8493D 1   1.00000     0.00000
 Structure written by MMmdl.
 48 49  0  0  0  0  0  0  0  0  2 V2000
  151.6063  138.2081  154.5173 C   0  0  0  0  0  0  0  0  0  0  0  0
  150.3931  139.0806  154.8584 C   0  0  2  0  0  0  0  0  0  0  0  0
  149.2011  138.8004  153.9276 C   0  0  0  0  0  0  0  0  0  0  0  0
  148.0611  139.7037  154.2356 N   0  3  2  0  0  0  0  0  0  0  0  0
  146.8223  139.3471  153.4686 C   0  0  1  0  0  0  0  0  0  0  0  0
  147.0584  139.5851  151.9595 C   0  0  0  0  0  0  0  0  0  0  0  0
  146.3163  137.9005  153.7280 C   0  0  0  0  0  0  0  0  0  0  0  0
  146.4249  137.0468  152.5476 N   0  0  0  0  0  0  0  0  0  0  0  0
  145.4555  136.2519  152.0682 C   0  0  0  0  0  0  0  0  0  0  0  0
  144.3296  136.1846  152.5624 O   0  0  0  0  0  0  0  0  0  0  0  0
  145.8226  135.4075  150.8402 C   0  0  0  0  0  0  0  0  0  0  0  0
  145.9247  133.9690  151.1382 N   0  0  0  0  0  0  0  0  0  0  0  0
  146.8962  133.5735  152.0793 C   0  0  0  0  0  0  0  0  0  0  0  0
  147.0666  132.2878  152.4259 C   0  0  0  0  0  0  0  0  0  0  0  0
  146.2216  131.2951  151.8054 C   0  0  0  0  0  0  0  0  0  0  0  0
  145.2909  131.6619  150.9021 C   0  0  0  0  0  0  0  0  0  0  0  0
  145.1007  133.0660  150.5203 C   0  0  0  0  0  0  0  0  0  0  0  0
  144.2530  133.4105  149.6956 O   0  0  0  0  0  0  0  0  0  0  0  0
  148.5135  141.1181  154.1303 C   0  0  0  0  0  0  0  0  0  0  0  0
  149.7528  141.3853  155.0086 C   0  0  1  0  0  0  0  0  0  0  0  0
  149.4334  141.4605  156.5127 C   0  0  0  0  0  0  0  0  0  0  0  0
  150.7831  140.4426  154.7219 O   0  0  0  0  0  0  0  0  0  0  0  0
  151.3696  137.1486  154.6184 H   0  0  0  0  0  0  0  0  0  0  0  0
  152.4420  138.4257  155.1828 H   0  0  0  0  0  0  0  0  0  0  0  0
  151.9429  138.3797  153.4944 H   0  0  0  0  0  0  0  0  0  0  0  0
  150.1106  138.8749  155.8911 H   0  0  0  0  0  0  0  0  0  0  0  0
  149.4996  138.9360  152.8865 H   0  0  0  0  0  0  0  0  0  0  0  0
  148.9138  137.7559  154.0352 H   0  0  0  0  0  0  0  0  0  0  0  0
  146.0280  140.0192  153.7982 H   0  0  0  0  0  0  0  0  0  0  0  0
  146.1477  139.4393  151.3795 H   0  0  0  0  0  0  0  0  0  0  0  0
  147.8112  138.8999  151.5682 H   0  0  0  0  0  0  0  0  0  0  0  0
  147.3904  140.5975  151.7379 H   0  0  0  0  0  0  0  0  0  0  0  0
  146.8413  137.4602  154.5774 H   0  0  0  0  0  0  0  0  0  0  0  0
  145.2570  137.9062  153.9850 H   0  0  0  0  0  0  0  0  0  0  0  0
  147.3150  137.0425  152.0704 H   0  0  0  0  0  0  0  0  0  0  0  0
  145.0757  135.5940  150.0673 H   0  0  0  0  0  0  0  0  0  0  0  0
  146.7663  135.7604  150.4190 H   0  0  0  0  0  0  0  0  0  0  0  0
  147.4912  134.3742  152.4937 H   0  0  0  0  0  0  0  0  0  0  0  0
  147.8176  132.0029  153.1481 H   0  0  0  0  0  0  0  0  0  0  0  0
  146.3368  130.2533  152.0662 H   0  0  0  0  0  0  0  0  0  0  0  0
  144.6680  130.9054  150.4477 H   0  0  0  0  0  0  0  0  0  0  0  0
  148.7455  141.3408  153.0874 H   0  0  0  0  0  0  0  0  0  0  0  0
  147.7324  141.8107  154.4422 H   0  0  0  0  0  0  0  0  0  0  0  0
  150.1526  142.3597  154.7262 H   0  0  0  0  0  0  0  0  0  0  0  0
  148.7444  142.2796  156.7208 H   0  0  0  0  0  0  0  0  0  0  0  0
  150.3386  141.6383  157.0937 H   0  0  0  0  0  0  0  0  0  0  0  0
  148.9699  140.5475  156.8852 H   0  0  0  0  0  0  0  0  0  0  0  0
  147.8313  139.5649  155.2095 H   0  0  0  0  0  0  0  0  0  0  0  0
  1  2  1  0  0  0  0
  1 23  1  0  0  0  0
  1 24  1  0  0  0  0
  1 25  1  0  0  0  0
  2 22  1  0  0  0  0
  2  3  1  0  0  0  0
  2 26  1  0  0  0  0
  3  4  1  0  0  0  0
  3 27  1  0  0  0  0
  3 28  1  0  0  0  0
  4  5  1  0  0  0  0
  4 19  1  0  0  0  0
  4 48  1  0  0  0  0
  5  6  1  0  0  0  0
  5  7  1  0  0  0  0
  5 29  1  0  0  0  0
  6 30  1  0  0  0  0
  6 31  1  0  0  0  0
  6 32  1  0  0  0  0
  7  8  1  0  0  0  0
  7 33  1  0  0  0  0
  7 34  1  0  0  0  0
  8  9  1  0  0  0  0
  8 35  1  0  0  0  0
  9 10  2  0  0  0  0
  9 11  1  0  0  0  0
 11 12  1  0  0  0  0
 11 36  1  0  0  0  0
 11 37  1  0  0  0  0
 12 17  1  0  0  0  0
 12 13  1  0  0  0  0
 13 14  2  0  0  0  0
 13 38  1  0  0  0  0
 14 15  1  0  0  0  0
 14 39  1  0  0  0  0
 15 16  2  0  0  0  0
 15 40  1  0  0  0  0
 16 17  1  0  0  0  0
 16 41  1  0  0  0  0
 17 18  2  0  0  0  0
 19 20  1  0  0  0  0
 19 42  1  0  0  0  0
 19 43  1  0  0  0  0
 20 21  1  0  0  0  0
 20 22  1  0  0  0  0
 20 44  1  0  0  0  0
 21 45  1  0  0  0  0
 21 46  1  0  0  0  0
 21 47  1  0  0  0  0
M  CHG  1   4   1
M  END
> <s_m_source_file>
AV-unprocessed.smi

> <i_m_source_file_index>
1795

> <i_lp_mmshare_version>
43012

> <i_f3d_flags>
0

> <s_epik_input>
W0NIM11bQ0BASF0xW0NIMl1OKFtDSDJdW0NASF0oTzEpW0NIM10pW0NASF0oW0NIM10pW0NIMl1bTkhdQyg9TylbQ0gyXW4yW2NIXVtjSF1bY0hdW2NIXWMyPU8=

> <s_epik_cmdline>
J2VwaWtfcHl0aG9uJywgJy1waCcsICc3LjAnLCAnLXRuJywgJzgnLCAnLW1hJywgJzIwMCcsICctbWV0YWxfYmluZGluZycsICctaW1hZScsICc8aW5maWxlLm1hZT4nLCAnLW9tYWUnLCAnPG91dGZpbGUubWFlPic=

> <r_lp_tautomer_probability>
1

> <r_epik_Ionization_Penalty>
0.656654

> <r_epik_Ionization_Penalty_Charging>
0.656654

> <r_epik_Ionization_Penalty_Neutral>
8.90321e-08

> <r_epik_State_Penalty>
0.675641

> <r_epik_Charging_Adjusted_Penalty>
1.33229

> <i_epik_Tot_Q>
1

> <i_epik_Tot_abs_Q>
1

> <r_epik_Metal_State_Penalty>
0.675691

> <b_epik_Metal_Only>
0

> <s_lp_Force_Field>
OPLS_2005

> <r_lp_Energy>
30.7176

> <b_lp_Chiralities_Consistent>
1

> <s_lp_Variant>
AV-unprocessed.smi:1795-9

> <Gold.Version>
5.8.1

> <Gold.Id.Protein>
6NUR|6NUR_protein|mol2

> <Gold.PLP.Fitness>
44.6152

> <Gold.PLP.PLP>
-39.7695

> <Gold.PLP.part.hbond>
-2.0000

> <Gold.PLP.part.metal>
0.0000

> <Gold.PLP.part.buried>
-1.2940

> <Gold.PLP.part.nonpolar>
-36.2629

> <Gold.PLP.part.repulsive>
0.5420

> <Gold.PLP.ligand.clash>
2.4622

> <Gold.PLP.ligand.torsion>
0.8900

> <Gold.PLP.Chemscore.Hbond>
2.0000

> <Gold.PLP.Chemscore.CHOScore>
0.9987

> <Gold.PLP.Chemscore.Metal>
0.0000

> <Gold.Chemscore.Hbonds>
donor molecule, donor type, donor heavy atom, donor atom, acceptor molecule, acceptor atom, score
      L1  H     8    35       P1  7948  0.96
      P1  H  7989  7998       L1    22  1.00
      L1  C    13    38       P1  7948  1.00

> <Gold.PLP.Chemscore.Internal.Correction>
0.0917

> <Gold.Rescore>
     Score         DG    S(hbond)    S(metal)    S(lipo)     H(rot)  DE(clash)    DE(int)     intcor
     16.25     -18.07       1.87        0.00      95.36       1.89       0.97       0.85       ----

> <Gold.Chemscore.Fitness>
16.2473

> <Gold.Chemscore.DG>
-18.0679

> <Gold.Chemscore.ZeroCoef>
-5.4800

> <Gold.Chemscore.Hbond>
1.8745

> <Gold.Chemscore.Metal>
0.0000

> <Gold.Chemscore.Lipo>
95.3647

> <Gold.Chemscore.Internal_Hbond>
0.0000

> <Gold.Chemscore.DEClash>
0.9747

> <Gold.Chemscore.DEInternal>
0.8459

> <Gold.Chemscore.Rot>
1.8870

> <Gold.Chemscore.Internal.Correction>
   9.000000E+99

> <Gold.Chemscore.Hbonds>
donor molecule, donor type, donor heavy atom, donor atom, acceptor molecule, acceptor atom, score
      L1  H     8    35       P1  7948  0.92
      P1  H  7989  7998       L1    22  0.72

> <Gold.Chemscore.Hbond.Weighted>
-6.2610

> <Gold.Chemscore.Metal.Weighted>
-0.0000

> <Gold.Chemscore.Lipo.Weighted>
-11.1577

> <Gold.Chemscore.Internal_Hbond.Weighted>
0.0000

> <Gold.Chemscore.DEClash.Weighted>
0.9747

> <Gold.Chemscore.DEInternal.Weighted>
0.8459

> <Gold.Chemscore.Rot.Weighted>
4.8308

> <Gold.Chemscore.Internal.Correction.Weighted>
   9.000000E+99

> <Gold.Protein.RotatedTorsions>
[ 6907 6896 6895 6894 ] final -133.76 input  -60.11 | X-H torsion
[ 7974 7965 7964 7962 ] final   26.76 input  175.53 | X-H torsion
[ 8008 7997 7996 7995 ] final  -28.16 input   59.86 | X-H torsion
[ 10167 10162 10161 10158 ] final   40.95 input  -65.29 | X-H torsion
[ 10718 10713 10712 10709 ] final  103.18 input   66.30 | X-H torsion
[ 10763 10752 10751 10750 ] final  -39.79 input  -60.55 | X-H torsion
[ 11005 11000 10999 10996 ] final  101.71 input  -57.11 | X-H torsion

> <Gold.Protein.ActiveResidues>
 VAL166  LYS551  ARG553  GLY616  TRP617  ASP618  TYR619  PRO620  LYS621  CYS622 
 ASP623  PHE694  ASN695  SER759  ASP760  ASP761  ALA762  ILE779  LEU786  VAL792 
 PHE793  MET794  SER795  GLU796  ALA797  LYS798  CYS799  TRP800  GLU811  SER814 

> <Gold.Protein.RotatedAtoms>
  150.9778  133.6276  159.2727 H   0  0  0  0  0  0  0  0  0  0  0  0  # atno 6907 bound_to 6896
  151.3542  135.0889  159.9423 H   0  0  0  0  0  0  0  0  0  0  0  0  # atno 6908 bound_to 6896
  152.5205  133.9365  159.7660 H   0  0  0  0  0  0  0  0  0  0  0  0  # atno 6909 bound_to 6896
  146.1820  139.7284  142.8893 H   0  0  0  0  0  0  0  0  0  0  0  0  # atno 7974 bound_to 7965
  154.4345  140.1853  156.1045 H   0  0  0  0  0  0  0  0  0  0  0  0  # atno 8008 bound_to 7997
  156.0266  140.3335  155.7069 H   0  0  0  0  0  0  0  0  0  0  0  0  # atno 8009 bound_to 7997
  155.5900  140.0630  157.2752 H   0  0  0  0  0  0  0  0  0  0  0  0  # atno 8010 bound_to 7997
  140.3691  144.2128  150.6134 H   0  0  0  0  0  0  0  0  0  0  0  0  # atno 10167 bound_to 10162
  157.6780  131.0772  150.5517 H   0  0  0  0  0  0  0  0  0  0  0  0  # atno 10718 bound_to 10713
  153.9353  135.6767  153.4745 H   0  0  0  0  0  0  0  0  0  0  0  0  # atno 10763 bound_to 10752
  153.0959  135.4851  154.8774 H   0  0  0  0  0  0  0  0  0  0  0  0  # atno 10764 bound_to 10752
  154.7406  135.3160  154.8692 H   0  0  0  0  0  0  0  0  0  0  0  0  # atno 10765 bound_to 10752
  139.8774  134.9194  156.4948 H   0  0  0  0  0  0  0  0  0  0  0  0  # atno 11005 bound_to 11000
  145.4048  141.0389  143.3050 LP  0  0  0  0  0  0  0  0  0  0  0  0  # atno 17320 bound_to 7965
  144.8332  139.5594  143.6934 LP  0  0  0  0  0  0  0  0  0  0  0  0  # atno 17321 bound_to 7965
  140.5051  143.2306  151.8620 LP  0  0  0  0  0  0  0  0  0  0  0  0  # atno 17342 bound_to 10162
  139.4805  144.5014  151.9055 LP  0  0  0  0  0  0  0  0  0  0  0  0  # atno 17343 bound_to 10162
  156.5821  130.4307  149.5973 LP  0  0  0  0  0  0  0  0  0  0  0  0  # atno 17370 bound_to 10713
  156.2653  130.6985  151.1766 LP  0  0  0  0  0  0  0  0  0  0  0  0  # atno 17371 bound_to 10713
  140.8632  133.8044  155.9287 LP  0  0  0  0  0  0  0  0  0  0  0  0  # atno 17394 bound_to 11000
  140.9028  134.2357  157.5032 LP  0  0  0  0  0  0  0  0  0  0  0  0  # atno 17395 bound_to 11000

$$$$
