AV-unprocessed.smi:123|AV-procd|sdf|1144|dock3
  -GOLD-   2262018273D 1   1.00000     0.00000
 Structure written by MMmdl.
 43 45  0  0  0  0  0  0  0  0  1 V2000
  150.3292  135.3739  156.3624 C   0  0  0  0  0  0  0  0  0  0  0  0
  150.1420  136.8517  156.7333 C   0  0  1  0  0  0  0  0  0  0  0  0
  151.4223  137.4235  157.1286 N   0  0  0  0  0  0  0  0  0  0  0  0
  151.8784  137.5950  158.3807 C   0  0  0  0  0  0  0  0  0  0  0  0
  151.2614  137.2192  159.3764 O   0  0  0  0  0  0  0  0  0  0  0  0
  153.2325  138.3085  158.5570 C   0  0  0  0  0  0  0  0  0  0  0  0
  153.1618  139.5719  159.3289 N   0  0  0  0  0  0  0  0  0  0  0  0
  153.8964  139.6774  160.5360 C   0  0  0  0  0  0  0  0  0  0  0  0
  154.5641  138.7345  160.9624 O   0  0  0  0  0  0  0  0  0  0  0  0
  153.8146  140.9673  161.2121 C   0  0  0  0  0  0  0  0  0  0  0  0
  154.4607  141.1500  162.3763 F   0  0  0  0  0  0  0  0  0  0  0  0
  153.1056  141.9860  160.6836 C   0  0  0  0  0  0  0  0  0  0  0  0
  152.4184  141.8792  159.4869 N   0  0  0  0  0  0  0  0  0  0  0  0
  151.6513  143.0416  158.8889 C   0  0  2  0  0  0  0  0  0  0  0  0
  152.6088  144.1981  158.5318 C   0  0  0  0  0  0  0  0  0  0  0  0
  152.0067  145.3804  159.2657 C   0  0  0  0  0  0  0  0  0  0  0  0
  151.2998  144.7064  160.4316 C   0  0  0  0  0  0  0  0  0  0  0  0
  150.7443  143.5464  159.8271 O   0  0  0  0  0  0  0  0  0  0  0  0
  152.4126  140.6484  158.7959 C   0  0  0  0  0  0  0  0  0  0  0  0
  151.7859  140.5235  157.7414 O   0  0  0  0  0  0  0  0  0  0  0  0
  149.5591  137.6503  155.6115 C   0  0  0  0  0  0  0  0  0  0  0  0
  148.3273  137.6764  155.0179 C   0  0  0  0  0  0  0  0  0  0  0  0
  148.3957  138.6596  153.9922 C   0  0  0  0  0  0  0  0  0  0  0  0
  149.6673  139.1561  154.0297 C   0  0  0  0  0  0  0  0  0  0  0  0
  150.3913  138.5494  155.0089 O   0  0  0  0  0  0  0  0  0  0  0  0
  149.3788  134.9179  156.0841 H   0  0  0  0  0  0  0  0  0  0  0  0
  150.7335  134.8054  157.2007 H   0  0  0  0  0  0  0  0  0  0  0  0
  151.0132  135.2584  155.5208 H   0  0  0  0  0  0  0  0  0  0  0  0
  149.4497  136.9053  157.5753 H   0  0  0  0  0  0  0  0  0  0  0  0
  152.0049  137.7612  156.3765 H   0  0  0  0  0  0  0  0  0  0  0  0
  153.9248  137.6116  159.0321 H   0  0  0  0  0  0  0  0  0  0  0  0
  153.6622  138.4695  157.5674 H   0  0  0  0  0  0  0  0  0  0  0  0
  153.0880  142.9138  161.2349 H   0  0  0  0  0  0  0  0  0  0  0  0
  151.1113  142.6258  158.0365 H   0  0  0  0  0  0  0  0  0  0  0  0
  153.6124  143.9903  158.9049 H   0  0  0  0  0  0  0  0  0  0  0  0
  152.6574  144.3459  157.4527 H   0  0  0  0  0  0  0  0  0  0  0  0
  152.7517  146.1110  159.5822 H   0  0  0  0  0  0  0  0  0  0  0  0
  151.2787  145.8856  158.6296 H   0  0  0  0  0  0  0  0  0  0  0  0
  152.0123  144.4253  161.2086 H   0  0  0  0  0  0  0  0  0  0  0  0
  150.5294  145.3341  160.8795 H   0  0  0  0  0  0  0  0  0  0  0  0
  147.4798  137.0655  155.2917 H   0  0  0  0  0  0  0  0  0  0  0  0
  147.6139  138.9638  153.3120 H   0  0  0  0  0  0  0  0  0  0  0  0
  150.1969  139.9070  153.4620 H   0  0  0  0  0  0  0  0  0  0  0  0
  1  2  1  0  0  0  0
  1 26  1  0  0  0  0
  1 27  1  0  0  0  0
  1 28  1  0  0  0  0
  2  3  1  0  0  0  0
  2 21  1  0  0  0  0
  2 29  1  0  0  0  0
  3  4  1  0  0  0  0
  3 30  1  0  0  0  0
  4  5  2  0  0  0  0
  4  6  1  0  0  0  0
  6  7  1  0  0  0  0
  6 31  1  0  0  0  0
  6 32  1  0  0  0  0
  7 19  1  0  0  0  0
  7  8  1  0  0  0  0
  8  9  2  0  0  0  0
  8 10  1  0  0  0  0
 10 11  1  0  0  0  0
 10 12  2  0  0  0  0
 12 13  1  0  0  0  0
 12 33  1  0  0  0  0
 13 14  1  0  0  0  0
 13 19  1  0  0  0  0
 14 18  1  0  0  0  0
 14 15  1  0  0  0  0
 14 34  1  0  0  0  0
 15 16  1  0  0  0  0
 15 35  1  0  0  0  0
 15 36  1  0  0  0  0
 16 17  1  0  0  0  0
 16 37  1  0  0  0  0
 16 38  1  0  0  0  0
 17 18  1  0  0  0  0
 17 39  1  0  0  0  0
 17 40  1  0  0  0  0
 19 20  2  0  0  0  0
 21 25  1  0  0  0  0
 21 22  2  0  0  0  0
 22 23  1  0  0  0  0
 22 41  1  0  0  0  0
 23 24  2  0  0  0  0
 23 42  1  0  0  0  0
 24 25  1  0  0  0  0
 24 43  1  0  0  0  0
M  END
> <s_m_source_file>
AV-unprocessed.smi

> <i_m_source_file_index>
123

> <i_lp_mmshare_version>
43012

> <i_f3d_flags>
0

> <s_epik_input>
bzFbY0hdW2NIXVtjSF1jMVtDQEhdKFtDSDNdKVtOSF1DKD1PKVtDSDJdbjJjKD1PKWMoRilbY0hdbihjMj1PKVtDQEBIXTNbQ0gyXVtDSDJdW0NIMl1PMw==

> <s_epik_cmdline>
J2VwaWtfcHl0aG9uJywgJy1waCcsICc3LjAnLCAnLXRuJywgJzgnLCAnLW1hJywgJzIwMCcsICctbWV0YWxfYmluZGluZycsICctaW1hZScsICc8aW5maWxlLm1hZT4nLCAnLW9tYWUnLCAnPG91dGZpbGUubWFlPic=

> <r_lp_tautomer_probability>
1

> <r_epik_Ionization_Penalty>
2.31906e-08

> <r_epik_Ionization_Penalty_Charging>
3.85846e-09

> <r_epik_Ionization_Penalty_Neutral>
1.93321e-08

> <r_epik_State_Penalty>
-0

> <r_epik_Charging_Adjusted_Penalty>
3.85846e-09

> <i_epik_Tot_Q>
0

> <i_epik_Tot_abs_Q>
0

> <r_epik_Metal_State_Penalty>
-0

> <b_epik_Metal_Only>
0

> <s_epik_Chemistry_Notes>
This compound contains an acetal/aminal-like group ( X-CH(R)-Y where X, Y are N, S, or O) that may be acid/base labile, releasing an aldehyde.

> <s_lp_Force_Field>
OPLS_2005

> <r_lp_Energy>
20.7844

> <b_lp_Chiralities_Consistent>
1

> <s_lp_Variant>
AV-unprocessed.smi:123-2

> <Gold.Version>
5.8.1

> <Gold.Id.Protein>
6NUR|6NUR_protein|mol2

> <Gold.PLP.Fitness>
46.3884

> <Gold.PLP.PLP>
-41.6260

> <Gold.PLP.part.hbond>
-1.6645

> <Gold.PLP.part.metal>
0.0000

> <Gold.PLP.part.buried>
-4.4035

> <Gold.PLP.part.nonpolar>
-37.0390

> <Gold.PLP.part.repulsive>
0.2489

> <Gold.PLP.ligand.clash>
0.0000

> <Gold.PLP.ligand.torsion>
0.5444

> <Gold.PLP.Chemscore.Hbond>
0.9913

> <Gold.PLP.Chemscore.CHOScore>
0.9478

> <Gold.PLP.Chemscore.Metal>
0.0000

> <Gold.Chemscore.Hbonds>
donor molecule, donor type, donor heavy atom, donor atom, acceptor molecule, acceptor atom, score
      P1  H  6896  6908       L1     5  0.71
      L1  C    24    43       P1  7957  0.71

> <Gold.PLP.Chemscore.Internal.Correction>
0.0342

> <Gold.Rescore>
     Score         DG    S(hbond)    S(metal)    S(lipo)     H(rot)  DE(clash)    DE(int)     intcor
     11.06     -12.46       0.98        0.00      80.60       2.23       0.00       1.39       ----

> <Gold.Chemscore.Fitness>
11.0637

> <Gold.Chemscore.DG>
-12.4579

> <Gold.Chemscore.ZeroCoef>
-5.4800

> <Gold.Chemscore.Hbond>
0.9785

> <Gold.Chemscore.Metal>
0.0000

> <Gold.Chemscore.Lipo>
80.6020

> <Gold.Chemscore.Internal_Hbond>
0.0000

> <Gold.Chemscore.DEClash>
0.0000

> <Gold.Chemscore.DEInternal>
1.3942

> <Gold.Chemscore.Rot>
2.2347

> <Gold.Chemscore.Internal.Correction>
   9.000000E+99

> <Gold.Chemscore.Hbonds>
donor molecule, donor type, donor heavy atom, donor atom, acceptor molecule, acceptor atom, score
      P1  H  6896  6908       L1     5  0.70

> <Gold.Chemscore.Hbond.Weighted>
-3.2683

> <Gold.Chemscore.Metal.Weighted>
-0.0000

> <Gold.Chemscore.Lipo.Weighted>
-9.4304

> <Gold.Chemscore.Internal_Hbond.Weighted>
0.0000

> <Gold.Chemscore.DEClash.Weighted>
0.0000

> <Gold.Chemscore.DEInternal.Weighted>
1.3942

> <Gold.Chemscore.Rot.Weighted>
5.7208

> <Gold.Chemscore.Internal.Correction.Weighted>
   9.000000E+99

> <Gold.Protein.RotatedTorsions>
[ 6907 6896 6895 6894 ] final -136.81 input  -60.11 | X-H torsion
[ 7974 7965 7964 7962 ] final -176.88 input  175.53 | X-H torsion
[ 8008 7997 7996 7995 ] final  154.52 input   59.86 | X-H torsion
[ 10167 10162 10161 10158 ] final -176.31 input  -65.29 | X-H torsion
[ 10718 10713 10712 10709 ] final  -47.01 input   66.30 | X-H torsion
[ 10763 10752 10751 10750 ] final  153.03 input  -60.55 | X-H torsion
[ 11005 11000 10999 10996 ] final  163.97 input  -57.11 | X-H torsion

> <Gold.Protein.ActiveResidues>
 VAL166  LYS551  ARG553  GLY616  TRP617  ASP618  TYR619  PRO620  LYS621  CYS622 
 ASP623  PHE694  ASN695  SER759  ASP760  ASP761  ALA762  ILE779  LEU786  VAL792 
 PHE793  MET794  SER795  GLU796  ALA797  LYS798  CYS799  TRP800  GLU811  SER814 

> <Gold.Protein.RotatedAtoms>
  151.0147  133.5933  159.2678 H   0  0  0  0  0  0  0  0  0  0  0  0  # atno 6907 bound_to 6896
  151.3071  135.0783  159.9269 H   0  0  0  0  0  0  0  0  0  0  0  0  # atno 6908 bound_to 6896
  152.5308  133.9818  159.7864 H   0  0  0  0  0  0  0  0  0  0  0  0  # atno 6909 bound_to 6896
  144.7127  140.1103  143.6411 H   0  0  0  0  0  0  0  0  0  0  0  0  # atno 7974 bound_to 7965
  156.2527  140.1964  156.6659 H   0  0  0  0  0  0  0  0  0  0  0  0  # atno 8008 bound_to 7997
  154.6429  140.0581  156.9892 H   0  0  0  0  0  0  0  0  0  0  0  0  # atno 8009 bound_to 7997
  155.1535  140.3253  155.4429 H   0  0  0  0  0  0  0  0  0  0  0  0  # atno 8010 bound_to 7997
  139.5536  144.2045  152.1121 H   0  0  0  0  0  0  0  0  0  0  0  0  # atno 10167 bound_to 10162
  156.2127  130.4161  149.9094 H   0  0  0  0  0  0  0  0  0  0  0  0  # atno 10718 bound_to 10713
  154.1296  135.2827  155.3188 H   0  0  0  0  0  0  0  0  0  0  0  0  # atno 10763 bound_to 10752
  154.6365  135.5417  153.7743 H   0  0  0  0  0  0  0  0  0  0  0  0  # atno 10764 bound_to 10752
  153.0285  135.6475  154.1447 H   0  0  0  0  0  0  0  0  0  0  0  0  # atno 10765 bound_to 10752
  140.2411  134.8050  157.3412 H   0  0  0  0  0  0  0  0  0  0  0  0  # atno 11005 bound_to 11000
  145.9460  139.2701  143.1240 LP  0  0  0  0  0  0  0  0  0  0  0  0  # atno 17320 bound_to 7965
  145.9373  140.9005  143.0325 LP  0  0  0  0  0  0  0  0  0  0  0  0  # atno 17321 bound_to 7965
  140.1545  144.5083  150.6668 LP  0  0  0  0  0  0  0  0  0  0  0  0  # atno 17342 bound_to 10162
  140.6804  143.2324  151.5397 LP  0  0  0  0  0  0  0  0  0  0  0  0  # atno 17343 bound_to 10162
  156.6767  130.8842  151.3570 LP  0  0  0  0  0  0  0  0  0  0  0  0  # atno 17370 bound_to 10713
  157.7047  130.9371  150.0892 LP  0  0  0  0  0  0  0  0  0  0  0  0  # atno 17371 bound_to 10713
  140.1652  134.4678  155.7868 LP  0  0  0  0  0  0  0  0  0  0  0  0  # atno 17394 bound_to 11000
  141.2210  133.6918  156.7613 LP  0  0  0  0  0  0  0  0  0  0  0  0  # atno 17395 bound_to 11000

$$$$
