AV-unprocessed.smi:72|AV-procd|sdf|672|dock5
  -GOLD-   2262016573D 1   1.00000     0.00000
 Structure written by MMmdl.
 29 30  0  0  0  0  0  0  0  0  1 V2000
  147.2679  142.5578  154.3825 N   0  0  0  0  0  0  0  0  0  0  0  0
  148.2597  141.7672  154.5916 C   0  0  0  0  0  0  0  0  0  0  0  0
  148.3239  140.4237  154.1950 N   0  0  0  0  0  0  0  0  0  0  0  0
  149.4053  139.7523  154.4441 C   0  0  0  0  0  0  0  0  0  0  0  0
  150.5734  140.3546  155.0776 N   0  0  0  0  0  0  0  0  0  0  0  0
  151.8294  139.5623  155.4214 C   0  0  1  0  0  0  0  0  0  0  0  0
  151.5917  138.8490  156.5931 O   0  0  0  0  0  0  0  0  0  0  0  0
  151.1492  137.5451  156.2485 C   0  0  2  0  0  0  0  0  0  0  0  0
  151.3259  136.5790  157.4341 C   0  0  0  0  0  0  0  0  0  0  0  0
  152.2266  137.0801  158.4009 O   0  0  0  0  0  0  0  0  0  0  0  0
  151.8864  137.1893  154.9432 C   0  0  1  0  0  0  0  0  0  0  0  0
  151.0139  136.4969  154.0724 O   0  0  0  0  0  0  0  0  0  0  0  0
  152.2755  138.5476  154.3452 C   0  0  2  0  0  0  0  0  0  0  0  0
  153.6732  138.6086  154.1440 O   0  0  0  0  0  0  0  0  0  0  0  0
  150.4827  141.6845  155.5642 C   0  0  0  0  0  0  0  0  0  0  0  0
  151.3898  142.2239  156.1975 O   0  0  0  0  0  0  0  0  0  0  0  0
  149.3352  142.3386  155.2818 N   0  0  0  0  0  0  0  0  0  0  0  0
  152.6007  140.3154  155.5904 H   0  0  0  0  0  0  0  0  0  0  0  0
  150.0795  137.6352  156.0509 H   0  0  0  0  0  0  0  0  0  0  0  0
  152.7694  136.5765  155.1273 H   0  0  0  0  0  0  0  0  0  0  0  0
  151.8125  138.7559  153.3811 H   0  0  0  0  0  0  0  0  0  0  0  0
  147.4549  143.4724  154.7670 H   0  0  0  0  0  0  0  0  0  0  0  0
  149.4962  138.6951  154.1997 H   0  0  0  0  0  0  0  0  0  0  0  0
  150.3647  136.3716  157.9049 H   0  0  0  0  0  0  0  0  0  0  0  0
  151.7170  135.6266  157.0751 H   0  0  0  0  0  0  0  0  0  0  0  0
  152.8365  137.6608  157.9718 H   0  0  0  0  0  0  0  0  0  0  0  0
  151.3342  136.5967  153.1889 H   0  0  0  0  0  0  0  0  0  0  0  0
  153.8818  138.1563  153.3409 H   0  0  0  0  0  0  0  0  0  0  0  0
  149.2544  143.2930  155.6003 H   0  0  0  0  0  0  0  0  0  0  0  0
  1  2  2  0  0  0  0
  1 22  1  0  0  0  0
  2 17  1  0  0  0  0
  2  3  1  0  0  0  0
  3  4  2  0  0  0  0
  4  5  1  0  0  0  0
  4 23  1  0  0  0  0
  5  6  1  0  0  0  0
  5 15  1  0  0  0  0
  6 18  1  0  0  0  0
  6 13  1  0  0  0  0
  6  7  1  0  0  0  0
  7  8  1  0  0  0  0
  8 19  1  0  0  0  0
  8  9  1  0  0  0  0
  8 11  1  0  0  0  0
  9 10  1  0  0  0  0
  9 24  1  0  0  0  0
  9 25  1  0  0  0  0
 10 26  1  0  0  0  0
 11 20  1  0  0  0  0
 11 12  1  0  0  0  0
 11 13  1  0  0  0  0
 12 27  1  0  0  0  0
 13 21  1  0  0  0  0
 13 14  1  0  0  0  0
 14 28  1  0  0  0  0
 15 16  2  0  0  0  0
 15 17  1  0  0  0  0
 17 29  1  0  0  0  0
M  END
> <s_m_source_file>
AV-unprocessed.smi

> <i_m_source_file_index>
72

> <i_lp_mmshare_version>
43012

> <i_f3d_flags>
0

> <s_epik_input>
W05IMl1jMW5bY0hdbihjKD1PKW4xKVtDQEBIXTJPW0NASF0oW0NIMl1bT0hdKVtDQEBIXShbT0hdKVtDQEhdMltPSF0=

> <s_epik_cmdline>
J2VwaWtfcHl0aG9uJywgJy1waCcsICc3LjAnLCAnLXRuJywgJzgnLCAnLW1hJywgJzIwMCcsICctbWV0YWxfYmluZGluZycsICctaW1hZScsICc8aW5maWxlLm1hZT4nLCAnLW9tYWUnLCAnPG91dGZpbGUubWFlPic=

> <r_lp_tautomer_probability>
7.17554e-07

> <r_epik_Ionization_Penalty>
0.0066451

> <r_epik_Ionization_Penalty_Charging>
0.00663793

> <r_epik_Ionization_Penalty_Neutral>
7.17052e-06

> <r_epik_State_Penalty>
0.419231

> <r_epik_Charging_Adjusted_Penalty>
0.425868

> <i_epik_Tot_Q>
0

> <i_epik_Tot_abs_Q>
0

> <r_epik_Metal_State_Penalty>
1.44144

> <b_epik_Metal_Only>
0

> <s_epik_Chemistry_Notes>
This compound contains an acetal/aminal-like group ( X-CH(R)-Y where X, Y are N, S, or O) that may be acid/base labile, releasing an aldehyde.

> <s_lp_Force_Field>
OPLS_2005

> <r_lp_Energy>
39.4446

> <b_lp_Chiralities_Consistent>
1

> <s_lp_Variant>
AV-unprocessed.smi:72-10

> <Gold.Version>
5.8.1

> <Gold.Id.Protein>
6NUR|6NUR_protein|mol2

> <Gold.PLP.Fitness>
36.4425

> <Gold.PLP.PLP>
-26.7844

> <Gold.PLP.part.hbond>
-6.8202

> <Gold.PLP.part.metal>
0.0000

> <Gold.PLP.part.buried>
-0.8328

> <Gold.PLP.part.nonpolar>
-19.0493

> <Gold.PLP.part.repulsive>
0.7109

> <Gold.PLP.ligand.clash>
0.0000

> <Gold.PLP.ligand.torsion>
1.2303

> <Gold.PLP.Chemscore.Hbond>
4.0135

> <Gold.PLP.Chemscore.CHOScore>
0.0000

> <Gold.PLP.Chemscore.Metal>
0.0000

> <Gold.Chemscore.Hbonds>
donor molecule, donor type, donor heavy atom, donor atom, acceptor molecule, acceptor atom, score
      L1  H     1    22       P1  8028  0.81
      L1  H    12    27       P1  7949  0.88
      L1  H    17    29       P1  8028  0.86

> <Gold.PLP.Chemscore.Internal.Correction>
0.0781

> <Gold.Rescore>
     Score         DG    S(hbond)    S(metal)    S(lipo)     H(rot)  DE(clash)    DE(int)     intcor
      5.45      -7.03       2.82        0.00      21.49       4.06       0.42       1.16       ----

> <Gold.Chemscore.Fitness>
5.4521

> <Gold.Chemscore.DG>
-7.0277

> <Gold.Chemscore.ZeroCoef>
-5.4800

> <Gold.Chemscore.Hbond>
2.8226

> <Gold.Chemscore.Metal>
0.0000

> <Gold.Chemscore.Lipo>
21.4865

> <Gold.Chemscore.Internal_Hbond>
0.0000

> <Gold.Chemscore.DEClash>
0.4155

> <Gold.Chemscore.DEInternal>
1.1601

> <Gold.Chemscore.Rot>
4.0600

> <Gold.Chemscore.Internal.Correction>
   9.000000E+99

> <Gold.Chemscore.Hbonds>
donor molecule, donor type, donor heavy atom, donor atom, acceptor molecule, acceptor atom, score
      L1  H     1    22       P1  8028  0.15
      L1  H    12    27       P1  7949  0.64
      L1  H    17    29       P1  8028  0.84
      P1  H  7997  8008       L1    14  0.02

> <Gold.Chemscore.Hbond.Weighted>
-9.4274

> <Gold.Chemscore.Metal.Weighted>
-0.0000

> <Gold.Chemscore.Lipo.Weighted>
-2.5139

> <Gold.Chemscore.Internal_Hbond.Weighted>
0.0000

> <Gold.Chemscore.DEClash.Weighted>
0.4155

> <Gold.Chemscore.DEInternal.Weighted>
1.1601

> <Gold.Chemscore.Rot.Weighted>
10.3936

> <Gold.Chemscore.Internal.Correction.Weighted>
   9.000000E+99

> <Gold.Protein.RotatedTorsions>
[ 6907 6896 6895 6894 ] final -142.02 input  -60.11 | X-H torsion
[ 7974 7965 7964 7962 ] final   50.98 input  175.53 | X-H torsion
[ 8008 7997 7996 7995 ] final  -15.18 input   59.86 | X-H torsion
[ 10167 10162 10161 10158 ] final  164.37 input  -65.29 | X-H torsion
[ 10718 10713 10712 10709 ] final  -85.20 input   66.30 | X-H torsion
[ 10763 10752 10751 10750 ] final   45.11 input  -60.55 | X-H torsion
[ 11005 11000 10999 10996 ] final -171.42 input  -57.11 | X-H torsion

> <Gold.Protein.ActiveResidues>
 VAL166  LYS551  ARG553  GLY616  TRP617  ASP618  TYR619  PRO620  LYS621  CYS622 
 ASP623  PHE694  ASN695  SER759  ASP760  ASP761  ALA762  ILE779  LEU786  VAL792 
 PHE793  MET794  SER795  GLU796  ALA797  LYS798  CYS799  TRP800  GLU811  SER814 

> <Gold.Protein.RotatedAtoms>
  151.0815  133.5386  159.2620 H   0  0  0  0  0  0  0  0  0  0  0  0  # atno 6907 bound_to 6896
  151.2288  135.0546  159.8989 H   0  0  0  0  0  0  0  0  0  0  0  0  # atno 6908 bound_to 6896
  152.5424  134.0607  159.8204 H   0  0  0  0  0  0  0  0  0  0  0  0  # atno 6909 bound_to 6896
  145.9958  139.4387  143.0045 H   0  0  0  0  0  0  0  0  0  0  0  0  # atno 7974 bound_to 7965
  154.5151  140.2203  155.9082 H   0  0  0  0  0  0  0  0  0  0  0  0  # atno 8008 bound_to 7997
  156.1597  140.3144  155.8752 H   0  0  0  0  0  0  0  0  0  0  0  0  # atno 8009 bound_to 7997
  155.3775  140.0470  157.3035 H   0  0  0  0  0  0  0  0  0  0  0  0  # atno 8010 bound_to 7997
  139.4888  144.4242  151.9150 H   0  0  0  0  0  0  0  0  0  0  0  0  # atno 10167 bound_to 10162
  155.9999  130.4723  150.4527 H   0  0  0  0  0  0  0  0  0  0  0  0  # atno 10718 bound_to 10713
  152.9830  135.6050  154.3383 H   0  0  0  0  0  0  0  0  0  0  0  0  # atno 10763 bound_to 10752
  154.3081  135.2771  155.2581 H   0  0  0  0  0  0  0  0  0  0  0  0  # atno 10764 bound_to 10752
  154.4802  135.5919  153.6440 H   0  0  0  0  0  0  0  0  0  0  0  0  # atno 10765 bound_to 10752
  140.5084  134.5825  157.5011 H   0  0  0  0  0  0  0  0  0  0  0  0  # atno 11005 bound_to 11000
  145.7561  140.9953  143.1224 LP  0  0  0  0  0  0  0  0  0  0  0  0  # atno 17320 bound_to 7965
  144.6903  139.9274  143.7470 LP  0  0  0  0  0  0  0  0  0  0  0  0  # atno 17321 bound_to 7965
  140.3687  144.2882  150.5923 LP  0  0  0  0  0  0  0  0  0  0  0  0  # atno 17342 bound_to 10162
  140.5338  143.2237  151.8195 LP  0  0  0  0  0  0  0  0  0  0  0  0  # atno 17343 bound_to 10162
  157.2558  131.0556  151.2351 LP  0  0  0  0  0  0  0  0  0  0  0  0  # atno 17370 bound_to 10713
  157.3483  130.7069  149.6425 LP  0  0  0  0  0  0  0  0  0  0  0  0  # atno 17371 bound_to 10713
  139.9673  134.7352  156.0113 LP  0  0  0  0  0  0  0  0  0  0  0  0  # atno 17394 bound_to 11000
  141.1398  133.6567  156.3698 LP  0  0  0  0  0  0  0  0  0  0  0  0  # atno 17395 bound_to 11000

$$$$
