AV-unprocessed.smi:199|AV-procd|sdf|1565|dock10
  -GOLD-   2262019443D 1   1.00000     0.00000
 Structure written by MMmdl.
 51 55  0  0  0  0  0  0  0  0  1 V2000
  143.6877  133.0748  148.3313 C   0  0  0  0  0  0  0  0  0  0  0  0
  143.8549  132.6018  149.7845 C   0  0  1  0  0  0  0  0  0  0  0  0
  144.4892  131.3316  149.8280 O   0  0  0  0  0  0  0  0  0  0  0  0
  144.9574  131.1481  151.1517 C   0  0  0  0  0  0  0  0  0  0  0  0
  145.5770  132.5014  151.4779 C   0  0  0  0  0  0  0  0  0  0  0  0
  144.6929  133.5039  150.7295 C   0  0  1  0  0  0  0  0  0  0  0  0
  145.5397  134.3820  150.0058 O   0  0  0  0  0  0  0  0  0  0  0  0
  143.8256  134.3512  151.6935 C   0  0  0  0  0  0  0  0  0  0  0  0
  144.5859  135.3418  152.4417 N   0  0  0  0  0  0  0  0  0  0  0  0
  144.9670  136.5903  152.0061 C   0  0  0  0  0  0  0  0  0  0  0  0
  145.6383  137.2996  152.8705 N   0  0  0  0  0  0  0  0  0  0  0  0
  145.7462  136.4748  153.9840 C   0  0  0  0  0  0  0  0  0  0  0  0
  146.3445  136.6088  155.2708 C   0  0  0  0  0  0  0  0  0  0  0  0
  147.0121  137.7219  155.6811 N   0  0  0  0  0  0  0  0  0  0  0  0
  147.7413  137.7367  156.9428 C   0  0  2  0  0  0  0  0  0  0  0  0
  148.1336  139.2175  157.0731 C   0  0  0  0  0  0  0  0  0  0  0  0
  148.3870  139.5878  155.6041 C   0  0  0  0  0  0  0  0  0  0  0  0
  148.1238  138.2426  154.8987 C   0  0  1  0  0  0  0  0  0  0  0  0
  149.2563  137.2191  155.1711 C   0  0  1  0  0  0  0  0  0  0  0  0
  150.6951  137.6456  154.8248 C   0  0  0  0  0  0  0  0  0  0  0  0
  151.4160  136.5531  154.2969 O   0  0  0  0  0  0  0  0  0  0  0  0
  149.0164  136.9118  156.6604 C   0  0  0  0  0  0  0  0  0  0  0  0
  146.2082  135.5646  156.1310 N   0  0  0  0  0  0  0  0  0  0  0  0
  145.5630  134.4566  155.7570 C   0  0  0  0  0  0  0  0  0  0  0  0
  144.9757  134.1880  154.5904 N   0  0  0  0  0  0  0  0  0  0  0  0
  145.0860  135.2384  153.7284 C   0  0  0  0  0  0  0  0  0  0  0  0
  143.2151  134.0565  148.2893 H   0  0  0  0  0  0  0  0  0  0  0  0
  143.0602  132.3820  147.7706 H   0  0  0  0  0  0  0  0  0  0  0  0
  144.6469  133.1379  147.8169 H   0  0  0  0  0  0  0  0  0  0  0  0
  142.8637  132.4520  150.2140 H   0  0  0  0  0  0  0  0  0  0  0  0
  144.1184  130.9300  151.8145 H   0  0  0  0  0  0  0  0  0  0  0  0
  145.6734  130.3288  151.2176 H   0  0  0  0  0  0  0  0  0  0  0  0
  145.6300  132.6833  152.5519 H   0  0  0  0  0  0  0  0  0  0  0  0
  146.5990  132.5177  151.0952 H   0  0  0  0  0  0  0  0  0  0  0  0
  145.4583  134.1866  149.0850 H   0  0  0  0  0  0  0  0  0  0  0  0
  143.0453  134.8698  151.1350 H   0  0  0  0  0  0  0  0  0  0  0  0
  143.3093  133.7077  152.4070 H   0  0  0  0  0  0  0  0  0  0  0  0
  144.7220  136.9657  151.0233 H   0  0  0  0  0  0  0  0  0  0  0  0
  147.1759  137.3803  157.8048 H   0  0  0  0  0  0  0  0  0  0  0  0
  147.3104  139.8062  157.4800 H   0  0  0  0  0  0  0  0  0  0  0  0
  149.0071  139.3697  157.7081 H   0  0  0  0  0  0  0  0  0  0  0  0
  147.6626  140.3344  155.2759 H   0  0  0  0  0  0  0  0  0  0  0  0
  149.3795  139.9982  155.4253 H   0  0  0  0  0  0  0  0  0  0  0  0
  147.9219  138.3772  153.8375 H   0  0  0  0  0  0  0  0  0  0  0  0
  149.0381  136.3146  154.6002 H   0  0  0  0  0  0  0  0  0  0  0  0
  150.7203  138.4763  154.1207 H   0  0  0  0  0  0  0  0  0  0  0  0
  151.2042  137.9879  155.7257 H   0  0  0  0  0  0  0  0  0  0  0  0
  151.2112  136.4739  153.3777 H   0  0  0  0  0  0  0  0  0  0  0  0
  149.8485  137.2045  157.3022 H   0  0  0  0  0  0  0  0  0  0  0  0
  148.8422  135.8454  156.8081 H   0  0  0  0  0  0  0  0  0  0  0  0
  145.5095  133.6736  156.4987 H   0  0  0  0  0  0  0  0  0  0  0  0
  1  2  1  0  0  0  0
  1 27  1  0  0  0  0
  1 28  1  0  0  0  0
  1 29  1  0  0  0  0
  2  6  1  0  0  0  0
  2  3  1  0  0  0  0
  2 30  1  0  0  0  0
  3  4  1  0  0  0  0
  4  5  1  0  0  0  0
  4 31  1  0  0  0  0
  4 32  1  0  0  0  0
  5  6  1  0  0  0  0
  5 33  1  0  0  0  0
  5 34  1  0  0  0  0
  6  7  1  0  0  0  0
  6  8  1  0  0  0  0
  7 35  1  0  0  0  0
  8  9  1  0  0  0  0
  8 36  1  0  0  0  0
  8 37  1  0  0  0  0
  9 26  1  0  0  0  0
  9 10  1  0  0  0  0
 10 11  2  0  0  0  0
 10 38  1  0  0  0  0
 11 12  1  0  0  0  0
 12 26  2  0  0  0  0
 12 13  1  0  0  0  0
 13 14  1  0  0  0  0
 13 23  2  0  0  0  0
 14 18  1  0  0  0  0
 14 15  1  0  0  0  0
 15 22  1  0  0  0  0
 15 16  1  0  0  0  0
 15 39  1  0  0  0  0
 16 17  1  0  0  0  0
 16 40  1  0  0  0  0
 16 41  1  0  0  0  0
 17 18  1  0  0  0  0
 17 42  1  0  0  0  0
 17 43  1  0  0  0  0
 18 19  1  0  0  0  0
 18 44  1  0  0  0  0
 19 20  1  0  0  0  0
 19 22  1  0  0  0  0
 19 45  1  0  0  0  0
 20 21  1  0  0  0  0
 20 46  1  0  0  0  0
 20 47  1  0  0  0  0
 21 48  1  0  0  0  0
 22 49  1  0  0  0  0
 22 50  1  0  0  0  0
 23 24  1  0  0  0  0
 24 25  2  0  0  0  0
 24 51  1  0  0  0  0
 25 26  1  0  0  0  0
M  END
> <s_m_source_file>
AV-unprocessed.smi

> <i_m_source_file_index>
199

> <i_lp_mmshare_version>
43012

> <i_f3d_flags>
0

> <s_epik_input>
W0NIMl0xW0NIMl1PW0NAQEhdKFtDSDNdKVtDQEBdMShbT0hdKVtDSDJdbihbY0hdbjIpYyhjMjMpbltjSF1uYzNOKFtDQEBIXTQ1KVtDQEhdKFtDSDJdW0NIMl00KVtDQEhdKFtDSDJdNSlbQ0gyXVtPSF0=

> <s_epik_cmdline>
J2VwaWtfcHl0aG9uJywgJy1waCcsICc3LjAnLCAnLXRuJywgJzgnLCAnLW1hJywgJzIwMCcsICctbWV0YWxfYmluZGluZycsICctaW1hZScsICc8aW5maWxlLm1hZT4nLCAnLW9tYWUnLCAnPG91dGZpbGUubWFlPic=

> <r_lp_tautomer_probability>
1

> <r_epik_Ionization_Penalty>
0.00583903

> <r_epik_Ionization_Penalty_Charging>
0

> <r_epik_Ionization_Penalty_Neutral>
0.00583903

> <r_epik_State_Penalty>
-0

> <r_epik_Charging_Adjusted_Penalty>
0

> <i_epik_Tot_Q>
0

> <i_epik_Tot_abs_Q>
0

> <r_epik_Metal_State_Penalty>
-0

> <b_epik_Metal_Only>
0

> <s_lp_Force_Field>
OPLS_2005

> <r_lp_Energy>
84.4473

> <b_lp_Chiralities_Consistent>
1

> <s_lp_Variant>
AV-unprocessed.smi:199-6

> <Gold.Version>
5.8.1

> <Gold.Id.Protein>
6NUR|6NUR_protein|mol2

> <Gold.PLP.Fitness>
38.1861

> <Gold.PLP.PLP>
-28.1153

> <Gold.PLP.part.hbond>
-3.9789

> <Gold.PLP.part.metal>
0.0000

> <Gold.PLP.part.buried>
-2.2015

> <Gold.PLP.part.nonpolar>
-22.3905

> <Gold.PLP.part.repulsive>
0.4448

> <Gold.PLP.ligand.clash>
0.0000

> <Gold.PLP.ligand.torsion>
1.0601

> <Gold.PLP.Chemscore.Hbond>
3.0560

> <Gold.PLP.Chemscore.CHOScore>
1.0000

> <Gold.PLP.Chemscore.Metal>
0.0000

> <Gold.Chemscore.Hbonds>
donor molecule, donor type, donor heavy atom, donor atom, acceptor molecule, acceptor atom, score
      L1  H     7    35       P1  7921  0.72
      L1  H    21    48       P1  7949  1.00
      P1  H 10752 10765       L1    21  1.00
      P1  H 10785 10796       L1     3  0.40
      L1  C    10    38       P1 10171  1.00

> <Gold.PLP.Chemscore.Internal.Correction>
0.0230

> <Gold.Rescore>
     Score         DG    S(hbond)    S(metal)    S(lipo)     H(rot)  DE(clash)    DE(int)     intcor
     11.85     -15.59       2.86        0.00      72.04       3.07       1.52       2.21       ----

> <Gold.Chemscore.Fitness>
11.8550

> <Gold.Chemscore.DG>
-15.5879

> <Gold.Chemscore.ZeroCoef>
-5.4800

> <Gold.Chemscore.Hbond>
2.8581

> <Gold.Chemscore.Metal>
0.0000

> <Gold.Chemscore.Lipo>
72.0384

> <Gold.Chemscore.Internal_Hbond>
0.0000

> <Gold.Chemscore.DEClash>
1.5211

> <Gold.Chemscore.DEInternal>
2.2119

> <Gold.Chemscore.Rot>
3.0729

> <Gold.Chemscore.Internal.Correction>
   9.000000E+99

> <Gold.Chemscore.Hbonds>
donor molecule, donor type, donor heavy atom, donor atom, acceptor molecule, acceptor atom, score
      L1  H     7    35       P1  7921  0.65
      L1  H    21    48       P1  7949  0.55
      P1  H 10752 10765       L1    21  0.26
      P1  H 10785 10796       L1     3  0.17

> <Gold.Chemscore.Hbond.Weighted>
-9.5462

> <Gold.Chemscore.Metal.Weighted>
-0.0000

> <Gold.Chemscore.Lipo.Weighted>
-8.4285

> <Gold.Chemscore.Internal_Hbond.Weighted>
0.0000

> <Gold.Chemscore.DEClash.Weighted>
1.5211

> <Gold.Chemscore.DEInternal.Weighted>
2.2119

> <Gold.Chemscore.Rot.Weighted>
7.8667

> <Gold.Chemscore.Internal.Correction.Weighted>
   9.000000E+99

> <Gold.Protein.RotatedTorsions>
[ 6907 6896 6895 6894 ] final   43.87 input  -60.11 | X-H torsion
[ 7974 7965 7964 7962 ] final  138.85 input  175.53 | X-H torsion
[ 8008 7997 7996 7995 ] final  157.15 input   59.86 | X-H torsion
[ 10167 10162 10161 10158 ] final -163.44 input  -65.29 | X-H torsion
[ 10718 10713 10712 10709 ] final  -24.79 input   66.30 | X-H torsion
[ 10763 10752 10751 10750 ] final  166.33 input  -60.55 | X-H torsion
[ 11005 11000 10999 10996 ] final  -25.30 input  -57.11 | X-H torsion

> <Gold.Protein.ActiveResidues>
 VAL166  LYS551  ARG553  GLY616  TRP617  ASP618  TYR619  PRO620  LYS621  CYS622 
 ASP623  PHE694  ASN695  SER759  ASP760  ASP761  ALA762  ILE779  LEU786  VAL792 
 PHE793  MET794  SER795  GLU796  ALA797  LYS798  CYS799  TRP800  GLU811  SER814 

> <Gold.Protein.RotatedAtoms>
  152.2256  134.8371  160.0480 H   0  0  0  0  0  0  0  0  0  0  0  0  # atno 6907 bound_to 6896
  151.9139  133.3563  159.3881 H   0  0  0  0  0  0  0  0  0  0  0  0  # atno 6908 bound_to 6896
  150.7011  134.4629  159.5433 H   0  0  0  0  0  0  0  0  0  0  0  0  # atno 6909 bound_to 6896
  144.9334  139.5019  143.5607 H   0  0  0  0  0  0  0  0  0  0  0  0  # atno 7974 bound_to 7965
  156.2381  140.1893  156.7064 H   0  0  0  0  0  0  0  0  0  0  0  0  # atno 8008 bound_to 7997
  154.6144  140.0617  156.9563 H   0  0  0  0  0  0  0  0  0  0  0  0  # atno 8009 bound_to 7997
  155.1963  140.3288  155.4353 H   0  0  0  0  0  0  0  0  0  0  0  0  # atno 8010 bound_to 7997
  139.6320  144.0421  152.2024 H   0  0  0  0  0  0  0  0  0  0  0  0  # atno 10167 bound_to 10162
  156.4730  130.4528  149.6858 H   0  0  0  0  0  0  0  0  0  0  0  0  # atno 10718 bound_to 10713
  154.3373  135.2754  155.2441 H   0  0  0  0  0  0  0  0  0  0  0  0  # atno 10763 bound_to 10752
  154.4727  135.5879  153.6336 H   0  0  0  0  0  0  0  0  0  0  0  0  # atno 10764 bound_to 10752
  152.9861  135.6092  154.3571 H   0  0  0  0  0  0  0  0  0  0  0  0  # atno 10765 bound_to 10752
  140.8925  133.7579  156.0439 H   0  0  0  0  0  0  0  0  0  0  0  0  # atno 11005 bound_to 11000
  146.3256  139.8301  142.8910 LP  0  0  0  0  0  0  0  0  0  0  0  0  # atno 17320 bound_to 7965
  145.3105  141.0218  143.3557 LP  0  0  0  0  0  0  0  0  0  0  0  0  # atno 17321 bound_to 7965
  140.0088  144.6239  150.7665 LP  0  0  0  0  0  0  0  0  0  0  0  0  # atno 17342 bound_to 10162
  140.7444  143.2861  151.3460 LP  0  0  0  0  0  0  0  0  0  0  0  0  # atno 17343 bound_to 10162
  156.3599  130.7476  151.2447 LP  0  0  0  0  0  0  0  0  0  0  0  0  # atno 17370 bound_to 10713
  157.7490  131.0353  150.4357 LP  0  0  0  0  0  0  0  0  0  0  0  0  # atno 17371 bound_to 10713
  140.8330  134.3156  157.5342 LP  0  0  0  0  0  0  0  0  0  0  0  0  # atno 17394 bound_to 11000
  139.8731  134.9374  156.3685 LP  0  0  0  0  0  0  0  0  0  0  0  0  # atno 17395 bound_to 11000

$$$$
