AV-unprocessed.smi:3303|AV-procd|sdf|12696|dock9
  -GOLD-   2272019 33D 1   1.00000     0.00000
 Structure written by MMmdl.
 44 45  0  0  0  0  0  0  0  0  2 V2000
  151.0880  137.8953  154.9261 C   0  0  0  0  0  0  0  0  0  0  0  0
  150.3093  139.1134  154.3988 C   0  0  1  0  0  0  0  0  0  0  0  0
  148.9078  138.6783  153.9262 C   0  0  0  0  0  0  0  0  0  0  0  0
  148.1113  139.8162  153.3984 N   0  3  1  0  0  0  0  0  0  0  0  0
  146.8380  139.3421  152.8037 C   0  0  0  0  0  0  0  0  0  0  0  0
  147.9438  140.8947  154.4168 C   0  0  2  0  0  0  0  0  0  0  0  0
  147.1288  142.0925  153.8897 C   0  0  0  0  0  0  0  0  0  0  0  0
  149.3239  141.3821  154.8985 C   0  0  0  0  0  0  0  0  0  0  0  0
  150.1866  140.2364  155.4520 C   0  0  2  0  0  0  0  0  0  0  0  0
  151.5013  140.7909  155.7538 N   0  0  0  0  0  0  0  0  0  0  0  0
  151.5930  141.2036  157.1459 C   0  0  0  0  0  0  0  0  0  0  0  0
  150.7095  142.4370  157.3773 C   0  0  0  0  0  0  0  0  0  0  0  0
  151.2513  143.3317  158.4756 C   0  0  0  0  0  0  0  0  0  0  0  0
  151.5328  144.6919  158.2249 C   0  0  0  0  0  0  0  0  0  0  0  0
  152.0356  145.4781  159.2797 C   0  0  0  0  0  0  0  0  0  0  0  0
  152.2377  144.8772  160.5372 C   0  0  0  0  0  0  0  0  0  0  0  0
  151.9276  143.5105  160.6846 C   0  0  0  0  0  0  0  0  0  0  0  0
  151.4447  142.7477  159.6799 N   0  0  0  0  0  0  0  0  0  0  0  0
  150.6191  137.4795  155.8187 H   0  0  0  0  0  0  0  0  0  0  0  0
  152.1155  138.1563  155.1808 H   0  0  0  0  0  0  0  0  0  0  0  0
  151.1350  137.1049  154.1764 H   0  0  0  0  0  0  0  0  0  0  0  0
  150.8466  139.5042  153.5326 H   0  0  0  0  0  0  0  0  0  0  0  0
  149.0139  137.9234  153.1457 H   0  0  0  0  0  0  0  0  0  0  0  0
  148.3625  138.2067  154.7457 H   0  0  0  0  0  0  0  0  0  0  0  0
  146.1491  138.9984  153.5764 H   0  0  0  0  0  0  0  0  0  0  0  0
  147.0152  138.5146  152.1159 H   0  0  0  0  0  0  0  0  0  0  0  0
  146.3492  140.1259  152.2260 H   0  0  0  0  0  0  0  0  0  0  0  0
  147.4095  140.4739  155.2704 H   0  0  0  0  0  0  0  0  0  0  0  0
  147.1099  142.9009  154.6211 H   0  0  0  0  0  0  0  0  0  0  0  0
  146.0895  141.8281  153.6957 H   0  0  0  0  0  0  0  0  0  0  0  0
  147.5557  142.4924  152.9694 H   0  0  0  0  0  0  0  0  0  0  0  0
  149.8416  141.8683  154.0694 H   0  0  0  0  0  0  0  0  0  0  0  0
  149.1959  142.1436  155.6693 H   0  0  0  0  0  0  0  0  0  0  0  0
  149.7097  139.8425  156.3517 H   0  0  0  0  0  0  0  0  0  0  0  0
  151.6780  141.5903  155.1620 H   0  0  0  0  0  0  0  0  0  0  0  0
  151.2685  140.3848  157.7898 H   0  0  0  0  0  0  0  0  0  0  0  0
  152.6291  141.4314  157.3987 H   0  0  0  0  0  0  0  0  0  0  0  0
  150.6241  143.0137  156.4551 H   0  0  0  0  0  0  0  0  0  0  0  0
  149.6965  142.1301  157.6432 H   0  0  0  0  0  0  0  0  0  0  0  0
  151.3677  145.1244  157.2489 H   0  0  0  0  0  0  0  0  0  0  0  0
  152.2624  146.5229  159.1271 H   0  0  0  0  0  0  0  0  0  0  0  0
  152.6222  145.4493  161.3687 H   0  0  0  0  0  0  0  0  0  0  0  0
  152.0717  143.0167  161.6341 H   0  0  0  0  0  0  0  0  0  0  0  0
  148.6491  140.2130  152.6409 H   0  0  0  0  0  0  0  0  0  0  0  0
  1  2  1  0  0  0  0
  1 19  1  0  0  0  0
  1 20  1  0  0  0  0
  1 21  1  0  0  0  0
  2  9  1  0  0  0  0
  2  3  1  0  0  0  0
  2 22  1  0  0  0  0
  3  4  1  0  0  0  0
  3 23  1  0  0  0  0
  3 24  1  0  0  0  0
  4  5  1  0  0  0  0
  4  6  1  0  0  0  0
  4 44  1  0  0  0  0
  5 25  1  0  0  0  0
  5 26  1  0  0  0  0
  5 27  1  0  0  0  0
  6  7  1  0  0  0  0
  6  8  1  0  0  0  0
  6 28  1  0  0  0  0
  7 29  1  0  0  0  0
  7 30  1  0  0  0  0
  7 31  1  0  0  0  0
  8  9  1  0  0  0  0
  8 32  1  0  0  0  0
  8 33  1  0  0  0  0
  9 10  1  0  0  0  0
  9 34  1  0  0  0  0
 10 11  1  0  0  0  0
 10 35  1  0  0  0  0
 11 12  1  0  0  0  0
 11 36  1  0  0  0  0
 11 37  1  0  0  0  0
 12 13  1  0  0  0  0
 12 38  1  0  0  0  0
 12 39  1  0  0  0  0
 13 18  1  0  0  0  0
 13 14  2  0  0  0  0
 14 15  1  0  0  0  0
 14 40  1  0  0  0  0
 15 16  2  0  0  0  0
 15 41  1  0  0  0  0
 16 17  1  0  0  0  0
 16 42  1  0  0  0  0
 17 18  2  0  0  0  0
 17 43  1  0  0  0  0
M  CHG  1   4   1
M  END
> <s_m_source_file>
AV-unprocessed.smi

> <i_m_source_file_index>
3303

> <i_lp_mmshare_version>
43012

> <i_f3d_flags>
0

> <s_epik_input>
W0NIM11bQ0BASF0xW0NIMl1OKFtDSDNdKVtDQEBIXShbQ0gzXSlbQ0gyXVtDQEhdMVtOSF1bQ0gyXVtDSDJdYzJbY0hdW2NIXVtjSF1bY0hdbjI=

> <s_epik_cmdline>
J2VwaWtfcHl0aG9uJywgJy1waCcsICc3LjAnLCAnLXRuJywgJzgnLCAnLW1hJywgJzIwMCcsICctbWV0YWxfYmluZGluZycsICctaW1hZScsICc8aW5maWxlLm1hZT4nLCAnLW9tYWUnLCAnPG91dGZpbGUubWFlPic=

> <r_epik_Ionization_Penalty>
2.31085

> <r_epik_Ionization_Penalty_Charging>
0.000313057

> <r_epik_Ionization_Penalty_Neutral>
2.31054

> <r_epik_State_Penalty>
2.4087

> <r_epik_Charging_Adjusted_Penalty>
2.40902

> <i_epik_Tot_Q>
1

> <i_epik_Tot_abs_Q>
1

> <r_epik_Metal_State_Penalty>
2.30979

> <b_epik_Metal_Only>
0

> <s_lp_Force_Field>
OPLS_2005

> <r_lp_Energy>
23.6085

> <b_lp_Chiralities_Consistent>
1

> <s_lp_Variant>
AV-unprocessed.smi:3303-40

> <Gold.Version>
5.8.1

> <Gold.Id.Protein>
6NUR|6NUR_protein|mol2

> <Gold.PLP.Fitness>
45.6999

> <Gold.PLP.PLP>
-44.0230

> <Gold.PLP.part.hbond>
-2.1664

> <Gold.PLP.part.metal>
0.0000

> <Gold.PLP.part.buried>
-4.6521

> <Gold.PLP.part.nonpolar>
-37.1660

> <Gold.PLP.part.repulsive>
0.0828

> <Gold.PLP.ligand.clash>
0.0000

> <Gold.PLP.ligand.torsion>
0.6700

> <Gold.PLP.Chemscore.Hbond>
1.0000

> <Gold.PLP.Chemscore.CHOScore>
0.0000

> <Gold.PLP.Chemscore.Metal>
0.0000

> <Gold.Chemscore.Hbonds>
donor molecule, donor type, donor heavy atom, donor atom, acceptor molecule, acceptor atom, score
      L1  H     4    44       P1  7957  1.00

> <Gold.PLP.Chemscore.Internal.Correction>
0.0168

> <Gold.Rescore>
     Score         DG    S(hbond)    S(metal)    S(lipo)     H(rot)  DE(clash)    DE(int)     intcor
     19.74     -20.53       0.99        0.00     129.58       1.33       0.08       0.72       ----

> <Gold.Chemscore.Fitness>
19.7357

> <Gold.Chemscore.DG>
-20.5333

> <Gold.Chemscore.ZeroCoef>
-5.4800

> <Gold.Chemscore.Hbond>
0.9850

> <Gold.Chemscore.Metal>
0.0000

> <Gold.Chemscore.Lipo>
129.5798

> <Gold.Chemscore.Internal_Hbond>
0.0000

> <Gold.Chemscore.DEClash>
0.0814

> <Gold.Chemscore.DEInternal>
0.7161

> <Gold.Chemscore.Rot>
1.3272

> <Gold.Chemscore.Internal.Correction>
   9.000000E+99

> <Gold.Chemscore.Hbonds>
donor molecule, donor type, donor heavy atom, donor atom, acceptor molecule, acceptor atom, score
      L1  H     4    44       P1  7957  0.95

> <Gold.Chemscore.Hbond.Weighted>
-3.2901

> <Gold.Chemscore.Metal.Weighted>
-0.0000

> <Gold.Chemscore.Lipo.Weighted>
-15.1608

> <Gold.Chemscore.Internal_Hbond.Weighted>
0.0000

> <Gold.Chemscore.DEClash.Weighted>
0.0814

> <Gold.Chemscore.DEInternal.Weighted>
0.7161

> <Gold.Chemscore.Rot.Weighted>
3.3976

> <Gold.Chemscore.Internal.Correction.Weighted>
   9.000000E+99

> <Gold.Protein.RotatedTorsions>
[ 6907 6896 6895 6894 ] final  -53.51 input  -60.11 | X-H torsion
[ 7974 7965 7964 7962 ] final   93.37 input  175.53 | X-H torsion
[ 8008 7997 7996 7995 ] final -137.89 input   59.86 | X-H torsion
[ 10167 10162 10161 10158 ] final  -66.07 input  -65.29 | X-H torsion
[ 10718 10713 10712 10709 ] final   92.09 input   66.30 | X-H torsion
[ 10763 10752 10751 10750 ] final -145.63 input  -60.55 | X-H torsion
[ 11005 11000 10999 10996 ] final  -28.31 input  -57.11 | X-H torsion

> <Gold.Protein.ActiveResidues>
 VAL166  LYS551  ARG553  GLY616  TRP617  ASP618  TYR619  PRO620  LYS621  CYS622 
 ASP623  PHE694  ASN695  SER759  ASP760  ASP761  ALA762  ILE779  LEU786  VAL792 
 PHE793  MET794  SER795  GLU796  ALA797  LYS798  CYS799  TRP800  GLU811  SER814 

> <Gold.Protein.RotatedAtoms>
  150.8421  134.7716  159.6940 H   0  0  0  0  0  0  0  0  0  0  0  0  # atno 6907 bound_to 6896
  152.4506  134.5399  159.9846 H   0  0  0  0  0  0  0  0  0  0  0  0  # atno 6908 bound_to 6896
  151.5537  133.3376  159.2993 H   0  0  0  0  0  0  0  0  0  0  0  0  # atno 6909 bound_to 6896
  145.4799  139.2279  143.2888 H   0  0  0  0  0  0  0  0  0  0  0  0  # atno 7974 bound_to 7965
  155.4193  140.0517  157.3026 H   0  0  0  0  0  0  0  0  0  0  0  0  # atno 8008 bound_to 7997
  154.4910  140.2120  155.9508 H   0  0  0  0  0  0  0  0  0  0  0  0  # atno 8009 bound_to 7997
  156.1342  140.3166  155.8400 H   0  0  0  0  0  0  0  0  0  0  0  0  # atno 8010 bound_to 7997
  140.5684  143.2316  151.6588 H   0  0  0  0  0  0  0  0  0  0  0  0  # atno 10167 bound_to 10162
  157.6959  131.0431  150.3829 H   0  0  0  0  0  0  0  0  0  0  0  0  # atno 10718 bound_to 10713
  154.8374  135.3408  154.6534 H   0  0  0  0  0  0  0  0  0  0  0  0  # atno 10763 bound_to 10752
  153.7148  135.6962  153.5032 H   0  0  0  0  0  0  0  0  0  0  0  0  # atno 10764 bound_to 10752
  153.2425  135.4380  155.0666 H   0  0  0  0  0  0  0  0  0  0  0  0  # atno 10765 bound_to 10752
  140.9197  133.7407  156.0784 H   0  0  0  0  0  0  0  0  0  0  0  0  # atno 11005 bound_to 11000
  146.2347  140.5584  142.8960 LP  0  0  0  0  0  0  0  0  0  0  0  0  # atno 17320 bound_to 7965
  144.7895  140.6003  143.6551 LP  0  0  0  0  0  0  0  0  0  0  0  0  # atno 17321 bound_to 7965
  139.5105  144.3542  152.0623 LP  0  0  0  0  0  0  0  0  0  0  0  0  # atno 17342 bound_to 10162
  140.2676  144.3999  150.6162 LP  0  0  0  0  0  0  0  0  0  0  0  0  # atno 17343 bound_to 10162
  156.4241  130.3959  149.6805 LP  0  0  0  0  0  0  0  0  0  0  0  0  # atno 17370 bound_to 10713
  156.4045  130.7691  151.2701 LP  0  0  0  0  0  0  0  0  0  0  0  0  # atno 17371 bound_to 10713
  140.8003  134.3516  157.5441 LP  0  0  0  0  0  0  0  0  0  0  0  0  # atno 17394 bound_to 11000
  139.8773  134.9194  156.3225 LP  0  0  0  0  0  0  0  0  0  0  0  0  # atno 17395 bound_to 11000

$$$$
