AV-unprocessed.smi:2840|AV-procd|sdf|10934|dock10
  -GOLD-   2272015383D 1   1.00000     0.00000
 Structure written by MMmdl.
 36 37  0  0  0  0  0  0  0  0  1 V2000
  151.5138  140.4788  158.1950 C   0  0  0  0  0  0  0  0  0  0  0  0
  151.5339  141.9793  158.5372 C   0  0  1  0  0  0  0  0  0  0  0  0
  152.7601  142.3139  159.4108 C   0  0  0  0  0  0  0  0  0  0  0  0
  152.8112  143.8031  159.7825 C   0  0  0  0  0  0  0  0  0  0  0  0
  152.7974  144.6837  158.5262 C   0  0  0  0  0  0  0  0  0  0  0  0
  151.5718  144.3761  157.6543 C   0  0  0  0  0  0  0  0  0  0  0  0
  151.4978  142.8830  157.2771 C   0  0  2  0  0  0  0  0  0  0  0  0
  150.2760  142.6558  156.5060 N   0  0  0  0  0  0  0  0  0  0  0  0
  150.0322  141.6078  155.7047 C   0  0  0  0  0  0  0  0  0  0  0  0
  150.8264  140.6835  155.5281 O   0  0  0  0  0  0  0  0  0  0  0  0
  148.8188  141.7096  155.1345 N   0  0  0  0  0  0  0  0  0  0  0  0
  148.1870  140.8017  154.2434 C   0  0  0  0  0  0  0  0  0  0  0  0
  147.3234  141.3971  153.2964 C   0  0  0  0  0  0  0  0  0  0  0  0
  146.6448  140.5826  152.3693 C   0  0  0  0  0  0  0  0  0  0  0  0
  146.8479  139.1918  152.4126 C   0  0  0  0  0  0  0  0  0  0  0  0
  147.7240  138.6798  153.3874 C   0  0  0  0  0  0  0  0  0  0  0  0
  148.3749  139.4586  154.2771 N   0  0  0  0  0  0  0  0  0  0  0  0
  152.3594  140.2079  157.5619 H   0  0  0  0  0  0  0  0  0  0  0  0
  150.6013  140.1960  157.6705 H   0  0  0  0  0  0  0  0  0  0  0  0
  151.5666  139.8701  159.0979 H   0  0  0  0  0  0  0  0  0  0  0  0
  150.6420  142.1904  159.1296 H   0  0  0  0  0  0  0  0  0  0  0  0
  152.7436  141.7142  160.3216 H   0  0  0  0  0  0  0  0  0  0  0  0
  153.6743  142.0421  158.8810 H   0  0  0  0  0  0  0  0  0  0  0  0
  151.9589  144.0527  160.4157 H   0  0  0  0  0  0  0  0  0  0  0  0
  153.7055  144.0093  160.3711 H   0  0  0  0  0  0  0  0  0  0  0  0
  152.7977  145.7365  158.8095 H   0  0  0  0  0  0  0  0  0  0  0  0
  153.7087  144.5168  157.9505 H   0  0  0  0  0  0  0  0  0  0  0  0
  150.6676  144.6682  158.1905 H   0  0  0  0  0  0  0  0  0  0  0  0
  151.6046  144.9873  156.7514 H   0  0  0  0  0  0  0  0  0  0  0  0
  152.3738  142.6541  156.6669 H   0  0  0  0  0  0  0  0  0  0  0  0
  149.5583  143.3608  156.5880 H   0  0  0  0  0  0  0  0  0  0  0  0
  148.2822  142.5317  155.3679 H   0  0  0  0  0  0  0  0  0  0  0  0
  147.1791  142.4678  153.2771 H   0  0  0  0  0  0  0  0  0  0  0  0
  145.9799  141.0186  151.6386 H   0  0  0  0  0  0  0  0  0  0  0  0
  146.3453  138.5348  151.7182 H   0  0  0  0  0  0  0  0  0  0  0  0
  147.9065  137.6175  153.4556 H   0  0  0  0  0  0  0  0  0  0  0  0
  1  2  1  0  0  0  0
  1 18  1  0  0  0  0
  1 19  1  0  0  0  0
  1 20  1  0  0  0  0
  2  7  1  0  0  0  0
  2  3  1  0  0  0  0
  2 21  1  0  0  0  0
  3  4  1  0  0  0  0
  3 22  1  0  0  0  0
  3 23  1  0  0  0  0
  4  5  1  0  0  0  0
  4 24  1  0  0  0  0
  4 25  1  0  0  0  0
  5  6  1  0  0  0  0
  5 26  1  0  0  0  0
  5 27  1  0  0  0  0
  6  7  1  0  0  0  0
  6 28  1  0  0  0  0
  6 29  1  0  0  0  0
  7  8  1  0  0  0  0
  7 30  1  0  0  0  0
  8  9  1  0  0  0  0
  8 31  1  0  0  0  0
  9 10  2  0  0  0  0
  9 11  1  0  0  0  0
 11 12  1  0  0  0  0
 11 32  1  0  0  0  0
 12 17  1  0  0  0  0
 12 13  2  0  0  0  0
 13 14  1  0  0  0  0
 13 33  1  0  0  0  0
 14 15  2  0  0  0  0
 14 34  1  0  0  0  0
 15 16  1  0  0  0  0
 15 35  1  0  0  0  0
 16 17  2  0  0  0  0
 16 36  1  0  0  0  0
M  END
> <s_m_source_file>
AV-unprocessed.smi

> <i_m_source_file_index>
2840

> <i_lp_mmshare_version>
43012

> <i_f3d_flags>
0

> <s_epik_input>
W0NIM11bQ0BASF0xW0NIMl1bQ0gyXVtDSDJdW0NIMl1bQ0BIXTFbTkhdQyg9TylbTkhdYzJbY0hdW2NIXVtjSF1bY0hdbjI=

> <s_epik_cmdline>
J2VwaWtfcHl0aG9uJywgJy1waCcsICc3LjAnLCAnLXRuJywgJzgnLCAnLW1hJywgJzIwMCcsICctbWV0YWxfYmluZGluZycsICctaW1hZScsICc8aW5maWxlLm1hZT4nLCAnLW9tYWUnLCAnPG91dGZpbGUubWFlPic=

> <r_lp_tautomer_probability>
1

> <r_epik_Ionization_Penalty>
5.29956e-05

> <r_epik_Ionization_Penalty_Charging>
0

> <r_epik_Ionization_Penalty_Neutral>
5.29956e-05

> <r_epik_State_Penalty>
-0

> <r_epik_Charging_Adjusted_Penalty>
0

> <i_epik_Tot_Q>
0

> <i_epik_Tot_abs_Q>
0

> <r_epik_Metal_State_Penalty>
-0

> <b_epik_Metal_Only>
0

> <s_lp_Force_Field>
OPLS_2005

> <r_lp_Energy>
13.2298

> <b_lp_Chiralities_Consistent>
1

> <s_lp_Variant>
AV-unprocessed.smi:2840-4

> <Gold.Version>
5.8.1

> <Gold.Id.Protein>
6NUR|6NUR_protein|mol2

> <Gold.PLP.Fitness>
42.4075

> <Gold.PLP.PLP>
-35.2738

> <Gold.PLP.part.hbond>
-2.9659

> <Gold.PLP.part.metal>
0.0000

> <Gold.PLP.part.buried>
0.1268

> <Gold.PLP.part.nonpolar>
-31.6483

> <Gold.PLP.part.repulsive>
0.4165

> <Gold.PLP.ligand.clash>
0.0000

> <Gold.PLP.ligand.torsion>
0.4510

> <Gold.PLP.Chemscore.Hbond>
1.7165

> <Gold.PLP.Chemscore.CHOScore>
0.9607

> <Gold.PLP.Chemscore.Metal>
0.0000

> <Gold.Chemscore.Hbonds>
donor molecule, donor type, donor heavy atom, donor atom, acceptor molecule, acceptor atom, score
      L1  H     8    31       P1  8028  0.80
      L1  H    11    32       P1  8028  0.26
      P1  H  7989  7998       L1    10  0.53
      L1  C    16    36       P1  7948  0.94

> <Gold.PLP.Chemscore.Internal.Correction>
0.0039

> <Gold.Rescore>
     Score         DG    S(hbond)    S(metal)    S(lipo)     H(rot)  DE(clash)    DE(int)     intcor
     16.58     -21.12       1.57        0.00     110.66       1.00       1.94       2.60       ----

> <Gold.Chemscore.Fitness>
16.5783

> <Gold.Chemscore.DG>
-21.1211

> <Gold.Chemscore.ZeroCoef>
-5.4800

> <Gold.Chemscore.Hbond>
1.5729

> <Gold.Chemscore.Metal>
0.0000

> <Gold.Chemscore.Lipo>
110.6619

> <Gold.Chemscore.Internal_Hbond>
0.0000

> <Gold.Chemscore.DEClash>
1.9418

> <Gold.Chemscore.DEInternal>
2.6010

> <Gold.Chemscore.Rot>
1.0000

> <Gold.Chemscore.Internal.Correction>
   9.000000E+99

> <Gold.Chemscore.Hbonds>
donor molecule, donor type, donor heavy atom, donor atom, acceptor molecule, acceptor atom, score
      L1  H     8    31       P1  8028  0.80
      L1  H    11    32       P1  8028  0.26
      P1  H  7989  7998       L1    10  0.31

> <Gold.Chemscore.Hbond.Weighted>
-5.2536

> <Gold.Chemscore.Metal.Weighted>
-0.0000

> <Gold.Chemscore.Lipo.Weighted>
-12.9474

> <Gold.Chemscore.Internal_Hbond.Weighted>
0.0000

> <Gold.Chemscore.DEClash.Weighted>
1.9418

> <Gold.Chemscore.DEInternal.Weighted>
2.6010

> <Gold.Chemscore.Rot.Weighted>
2.5600

> <Gold.Chemscore.Internal.Correction.Weighted>
   9.000000E+99

> <Gold.Protein.RotatedTorsions>
[ 6907 6896 6895 6894 ] final   59.13 input  -60.11 | X-H torsion
[ 7974 7965 7964 7962 ] final  -55.76 input  175.53 | X-H torsion
[ 8008 7997 7996 7995 ] final -130.10 input   59.86 | X-H torsion
[ 10167 10162 10161 10158 ] final -146.88 input  -65.29 | X-H torsion
[ 10718 10713 10712 10709 ] final  -59.40 input   66.30 | X-H torsion
[ 10763 10752 10751 10750 ] final  -72.70 input  -60.55 | X-H torsion
[ 11005 11000 10999 10996 ] final  112.40 input  -57.11 | X-H torsion

> <Gold.Protein.ActiveResidues>
 VAL166  LYS551  ARG553  GLY616  TRP617  ASP618  TYR619  PRO620  LYS621  CYS622 
 ASP623  PHE694  ASN695  SER759  ASP760  ASP761  ALA762  ILE779  LEU786  VAL792 
 PHE793  MET794  SER795  GLU796  ALA797  LYS798  CYS799  TRP800  GLU811  SER814 

> <Gold.Protein.RotatedAtoms>
  152.3887  134.6476  160.0115 H   0  0  0  0  0  0  0  0  0  0  0  0  # atno 6907 bound_to 6896
  151.6717  133.3308  159.3206 H   0  0  0  0  0  0  0  0  0  0  0  0  # atno 6908 bound_to 6896
  150.7807  134.6793  159.6480 H   0  0  0  0  0  0  0  0  0  0  0  0  # atno 6909 bound_to 6896
  145.8705  140.8220  142.9891 H   0  0  0  0  0  0  0  0  0  0  0  0  # atno 7974 bound_to 7965
  155.2901  140.0448  157.3022 H   0  0  0  0  0  0  0  0  0  0  0  0  # atno 8008 bound_to 7997
  154.5546  140.2328  155.8398 H   0  0  0  0  0  0  0  0  0  0  0  0  # atno 8009 bound_to 7997
  156.1996  140.3029  155.9506 H   0  0  0  0  0  0  0  0  0  0  0  0  # atno 8010 bound_to 7997
  139.7673  143.8289  152.2618 H   0  0  0  0  0  0  0  0  0  0  0  0  # atno 10167 bound_to 10162
  156.1064  130.4180  150.0710 H   0  0  0  0  0  0  0  0  0  0  0  0  # atno 10718 bound_to 10713
  154.4493  135.5921  153.6181 H   0  0  0  0  0  0  0  0  0  0  0  0  # atno 10763 bound_to 10752
  152.9812  135.6017  154.3625 H   0  0  0  0  0  0  0  0  0  0  0  0  # atno 10764 bound_to 10752
  154.3484  135.2841  155.2364 H   0  0  0  0  0  0  0  0  0  0  0  0  # atno 10765 bound_to 10752
  139.8926  134.9529  156.6579 H   0  0  0  0  0  0  0  0  0  0  0  0  # atno 11005 bound_to 11000
  144.6726  140.1231  143.7448 LP  0  0  0  0  0  0  0  0  0  0  0  0  # atno 17320 bound_to 7965
  145.9143  139.2506  143.1419 LP  0  0  0  0  0  0  0  0  0  0  0  0  # atno 17321 bound_to 7965
  139.8313  144.7252  150.9447 LP  0  0  0  0  0  0  0  0  0  0  0  0  # atno 17342 bound_to 10162
  140.7811  143.4067  151.1059 LP  0  0  0  0  0  0  0  0  0  0  0  0  # atno 17343 bound_to 10162
  156.8685  130.9516  151.3611 LP  0  0  0  0  0  0  0  0  0  0  0  0  # atno 17370 bound_to 10713
  157.6241  130.8678  149.9159 LP  0  0  0  0  0  0  0  0  0  0  0  0  # atno 17371 bound_to 10713
  140.7470  133.8930  155.8319 LP  0  0  0  0  0  0  0  0  0  0  0  0  # atno 17394 bound_to 11000
  141.0032  134.1122  157.4296 LP  0  0  0  0  0  0  0  0  0  0  0  0  # atno 17395 bound_to 11000

$$$$
