AV-unprocessed.smi:3112|AV-procd|sdf|11848|dock4
  -GOLD-   2272017233D 1   1.00000     0.00000
 Structure written by MMmdl.
 36 36  0  0  0  0  0  0  0  0  1 V2000
  147.9366  141.3749  153.8732 C   0  0  0  0  0  0  0  0  0  0  0  0
  146.9191  140.5043  153.1230 C   0  0  0  0  0  0  0  0  0  0  0  0
  147.2193  138.9947  153.2143 C   0  0  2  0  0  0  0  0  0  0  0  0
  148.4710  138.7477  152.6073 O   0  0  0  0  0  0  0  0  0  0  0  0
  146.1757  138.1295  152.4883 C   0  0  0  0  0  0  0  0  0  0  0  0
  146.3851  136.7082  152.7581 N   0  0  0  0  0  0  0  0  0  0  0  0
  145.6026  135.7632  151.9479 C   0  0  2  0  0  0  0  0  0  0  0  0
  144.1195  135.9351  152.3163 C   0  0  0  0  0  0  0  0  0  0  0  0
  146.0447  134.2716  152.0653 C   0  0  1  0  0  0  0  0  0  0  0  0
  146.2558  133.7804  153.5128 C   0  0  0  0  0  0  0  0  0  0  0  0
  145.2445  133.3553  151.2543 N   0  0  0  0  0  0  0  0  0  0  0  0
  145.6736  132.5352  150.2301 C   0  0  0  0  0  0  0  0  0  0  0  0
  144.5810  131.8809  149.7383 C   0  0  0  0  0  0  0  0  0  0  0  0
  143.5084  132.3762  150.5293 C   0  0  0  0  0  0  0  0  0  0  0  0
  143.9062  133.2580  151.4307 N   0  0  0  0  0  0  0  0  0  0  0  0
  147.6643  142.4286  153.8108 H   0  0  0  0  0  0  0  0  0  0  0  0
  148.9383  141.2687  153.4564 H   0  0  0  0  0  0  0  0  0  0  0  0
  147.9812  141.1061  154.9288 H   0  0  0  0  0  0  0  0  0  0  0  0
  145.9323  140.7046  153.5411 H   0  0  0  0  0  0  0  0  0  0  0  0
  146.8721  140.8128  152.0777 H   0  0  0  0  0  0  0  0  0  0  0  0
  147.2836  138.6865  154.2590 H   0  0  0  0  0  0  0  0  0  0  0  0
  148.4811  137.8561  152.2942 H   0  0  0  0  0  0  0  0  0  0  0  0
  145.1715  138.4314  152.7883 H   0  0  0  0  0  0  0  0  0  0  0  0
  146.2604  138.3194  151.4209 H   0  0  0  0  0  0  0  0  0  0  0  0
  146.2134  136.5267  153.7417 H   0  0  0  0  0  0  0  0  0  0  0  0
  145.6863  136.0536  150.8999 H   0  0  0  0  0  0  0  0  0  0  0  0
  143.4820  135.2931  151.7074 H   0  0  0  0  0  0  0  0  0  0  0  0
  143.7923  136.9625  152.1529 H   0  0  0  0  0  0  0  0  0  0  0  0
  143.9333  135.6940  153.3631 H   0  0  0  0  0  0  0  0  0  0  0  0
  147.0476  134.2235  151.6381 H   0  0  0  0  0  0  0  0  0  0  0  0
  146.9337  134.4422  154.0521 H   0  0  0  0  0  0  0  0  0  0  0  0
  146.7026  132.7858  153.5193 H   0  0  0  0  0  0  0  0  0  0  0  0
  145.3340  133.7204  154.0869 H   0  0  0  0  0  0  0  0  0  0  0  0
  146.7124  132.4864  149.9385 H   0  0  0  0  0  0  0  0  0  0  0  0
  144.5520  131.1615  148.9336 H   0  0  0  0  0  0  0  0  0  0  0  0
  142.4595  132.1249  150.4749 H   0  0  0  0  0  0  0  0  0  0  0  0
  1  2  1  0  0  0  0
  1 16  1  0  0  0  0
  1 17  1  0  0  0  0
  1 18  1  0  0  0  0
  2  3  1  0  0  0  0
  2 19  1  0  0  0  0
  2 20  1  0  0  0  0
  3  4  1  0  0  0  0
  3  5  1  0  0  0  0
  3 21  1  0  0  0  0
  4 22  1  0  0  0  0
  5  6  1  0  0  0  0
  5 23  1  0  0  0  0
  5 24  1  0  0  0  0
  6  7  1  0  0  0  0
  6 25  1  0  0  0  0
  7  8  1  0  0  0  0
  7  9  1  0  0  0  0
  7 26  1  0  0  0  0
  8 27  1  0  0  0  0
  8 28  1  0  0  0  0
  8 29  1  0  0  0  0
  9 10  1  0  0  0  0
  9 11  1  0  0  0  0
  9 30  1  0  0  0  0
 10 31  1  0  0  0  0
 10 32  1  0  0  0  0
 10 33  1  0  0  0  0
 11 15  1  0  0  0  0
 11 12  1  0  0  0  0
 12 13  2  0  0  0  0
 12 34  1  0  0  0  0
 13 14  1  0  0  0  0
 13 35  1  0  0  0  0
 14 15  2  0  0  0  0
 14 36  1  0  0  0  0
M  END
> <s_m_source_file>
AV-unprocessed.smi

> <i_m_source_file_index>
3112

> <i_lp_mmshare_version>
43012

> <i_f3d_flags>
0

> <s_epik_input>
W0NIM11bQ0gyXVtDQEhdKFtPSF0pW0NIMl1bTkhdW0NASF0oW0NIM10pW0NASF0oW0NIM10pbjFbY0hdW2NIXVtjSF1uMQ==

> <s_epik_cmdline>
J2VwaWtfcHl0aG9uJywgJy1waCcsICc3LjAnLCAnLXRuJywgJzgnLCAnLW1hJywgJzIwMCcsICctbWV0YWxfYmluZGluZycsICctaW1hZScsICc8aW5maWxlLm1hZT4nLCAnLW9tYWUnLCAnPG91dGZpbGUubWFlPic=

> <r_lp_tautomer_probability>
1

> <r_epik_Ionization_Penalty>
2.16876

> <r_epik_Ionization_Penalty_Charging>
0

> <r_epik_Ionization_Penalty_Neutral>
2.16876

> <r_epik_State_Penalty>
2.30854

> <r_epik_Charging_Adjusted_Penalty>
2.30854

> <i_epik_Tot_Q>
0

> <i_epik_Tot_abs_Q>
0

> <r_epik_Metal_State_Penalty>
2.3073

> <b_epik_Metal_Only>
0

> <s_lp_Force_Field>
OPLS_2005

> <r_lp_Energy>
16.8249

> <b_lp_Chiralities_Consistent>
1

> <s_lp_Variant>
AV-unprocessed.smi:3112-13

> <Gold.Version>
5.8.1

> <Gold.Id.Protein>
6NUR|6NUR_protein|mol2

> <Gold.PLP.Fitness>
39.7226

> <Gold.PLP.PLP>
-30.5455

> <Gold.PLP.part.hbond>
-2.9963

> <Gold.PLP.part.metal>
0.0000

> <Gold.PLP.part.buried>
-2.8896

> <Gold.PLP.part.nonpolar>
-25.7882

> <Gold.PLP.part.repulsive>
0.1777

> <Gold.PLP.ligand.clash>
0.0000

> <Gold.PLP.ligand.torsion>
0.3625

> <Gold.PLP.Chemscore.Hbond>
1.0000

> <Gold.PLP.Chemscore.CHOScore>
2.2055

> <Gold.PLP.Chemscore.Metal>
0.0000

> <Gold.Chemscore.Hbonds>
donor molecule, donor type, donor heavy atom, donor atom, acceptor molecule, acceptor atom, score
      L1  H     4    22       P1  7948  1.00
      L1  C    12    34       P1 10747  0.34
      L1  C    14    36       P1 10186  0.10
      L1  C    14    36       P1 10952  0.89

> <Gold.PLP.Chemscore.Internal.Correction>
0.2856

> <Gold.Rescore>
     Score         DG    S(hbond)    S(metal)    S(lipo)     H(rot)  DE(clash)    DE(int)     intcor
     12.05     -12.58       1.00        0.00      82.76       2.31       0.19       0.34       ----

> <Gold.Chemscore.Fitness>
12.0514

> <Gold.Chemscore.DG>
-12.5820

> <Gold.Chemscore.ZeroCoef>
-5.4800

> <Gold.Chemscore.Hbond>
0.9983

> <Gold.Chemscore.Metal>
0.0000

> <Gold.Chemscore.Lipo>
82.7635

> <Gold.Chemscore.Internal_Hbond>
0.0000

> <Gold.Chemscore.DEClash>
0.1917

> <Gold.Chemscore.DEInternal>
0.3389

> <Gold.Chemscore.Rot>
2.3108

> <Gold.Chemscore.Internal.Correction>
   9.000000E+99

> <Gold.Chemscore.Hbonds>
donor molecule, donor type, donor heavy atom, donor atom, acceptor molecule, acceptor atom, score
      L1  H     4    22       P1  7948  1.00

> <Gold.Chemscore.Hbond.Weighted>
-3.3344

> <Gold.Chemscore.Metal.Weighted>
-0.0000

> <Gold.Chemscore.Lipo.Weighted>
-9.6833

> <Gold.Chemscore.Internal_Hbond.Weighted>
0.0000

> <Gold.Chemscore.DEClash.Weighted>
0.1917

> <Gold.Chemscore.DEInternal.Weighted>
0.3389

> <Gold.Chemscore.Rot.Weighted>
5.9157

> <Gold.Chemscore.Internal.Correction.Weighted>
   9.000000E+99

> <Gold.Protein.RotatedTorsions>
[ 6907 6896 6895 6894 ] final -105.42 input  -60.11 | X-H torsion
[ 7974 7965 7964 7962 ] final  145.88 input  175.53 | X-H torsion
[ 8008 7997 7996 7995 ] final -135.41 input   59.86 | X-H torsion
[ 10167 10162 10161 10158 ] final -173.51 input  -65.29 | X-H torsion
[ 10718 10713 10712 10709 ] final  -40.66 input   66.30 | X-H torsion
[ 10763 10752 10751 10750 ] final -130.52 input  -60.55 | X-H torsion
[ 11005 11000 10999 10996 ] final  -98.61 input  -57.11 | X-H torsion

> <Gold.Protein.ActiveResidues>
 VAL166  LYS551  ARG553  GLY616  TRP617  ASP618  TYR619  PRO620  LYS621  CYS622 
 ASP623  PHE694  ASN695  SER759  ASP760  ASP761  ALA762  ILE779  LEU786  VAL792 
 PHE793  MET794  SER795  GLU796  ALA797  LYS798  CYS799  TRP800  GLU811  SER814 

> <Gold.Protein.RotatedAtoms>
  150.7336  134.0129  159.3675 H   0  0  0  0  0  0  0  0  0  0  0  0  # atno 6907 bound_to 6896
  151.8090  135.0684  160.0420 H   0  0  0  0  0  0  0  0  0  0  0  0  # atno 6908 bound_to 6896
  152.3086  133.5693  159.5702 H   0  0  0  0  0  0  0  0  0  0  0  0  # atno 6909 bound_to 6896
  144.8716  139.5837  143.5884 H   0  0  0  0  0  0  0  0  0  0  0  0  # atno 7974 bound_to 7965
  155.3782  140.0492  157.3044 H   0  0  0  0  0  0  0  0  0  0  0  0  # atno 8008 bound_to 7997
  154.5096  140.2186  155.9145 H   0  0  0  0  0  0  0  0  0  0  0  0  # atno 8009 bound_to 7997
  156.1566  140.3125  155.8742 H   0  0  0  0  0  0  0  0  0  0  0  0  # atno 8010 bound_to 7997
  139.5684  144.1699  152.1348 H   0  0  0  0  0  0  0  0  0  0  0  0  # atno 10167 bound_to 10162
  156.2789  130.4215  149.8358 H   0  0  0  0  0  0  0  0  0  0  0  0  # atno 10718 bound_to 10713
  154.8755  135.3860  154.4096 H   0  0  0  0  0  0  0  0  0  0  0  0  # atno 10763 bound_to 10752
  153.4812  135.7030  153.5942 H   0  0  0  0  0  0  0  0  0  0  0  0  # atno 10764 bound_to 10752
  153.4357  135.3868  155.2165 H   0  0  0  0  0  0  0  0  0  0  0  0  # atno 10765 bound_to 10752
  141.1339  133.8258  157.0862 H   0  0  0  0  0  0  0  0  0  0  0  0  # atno 11005 bound_to 11000
  146.2934  139.7206  142.9144 LP  0  0  0  0  0  0  0  0  0  0  0  0  # atno 17320 bound_to 7965
  145.4119  141.0397  143.3012 LP  0  0  0  0  0  0  0  0  0  0  0  0  # atno 17321 bound_to 7965
  140.1227  144.5359  150.6852 LP  0  0  0  0  0  0  0  0  0  0  0  0  # atno 17342 bound_to 10162
  140.6968  143.2409  151.4977 LP  0  0  0  0  0  0  0  0  0  0  0  0  # atno 17343 bound_to 10162
  156.5812  130.8466  151.3383 LP  0  0  0  0  0  0  0  0  0  0  0  0  # atno 17370 bound_to 10713
  157.7308  130.9691  150.1850 LP  0  0  0  0  0  0  0  0  0  0  0  0  # atno 17371 bound_to 10713
  140.0421  134.9849  157.0981 LP  0  0  0  0  0  0  0  0  0  0  0  0  # atno 17394 bound_to 11000
  140.4120  134.1972  155.7163 LP  0  0  0  0  0  0  0  0  0  0  0  0  # atno 17395 bound_to 11000

$$$$
