AV-unprocessed.smi:3208|AV-procd|sdf|12267|dock6
  -GOLD-   2272018103D 1   1.00000     0.00000
 Structure written by MMmdl.
 29 29  0  0  0  0  0  0  0  0  2 V2000
  147.3456  141.7566  154.0051 C   0  0  0  0  0  0  0  0  0  0  0  0
  148.2685  141.1234  154.7445 C   0  0  0  0  0  0  0  0  0  0  0  0
  148.9345  139.8219  154.3556 C   0  0  0  0  0  0  0  0  0  0  0  0
  150.3493  139.9588  154.4094 O   0  0  0  0  0  0  0  0  0  0  0  0
  150.9713  139.4395  155.5828 C   0  0  1  0  0  0  0  0  0  0  0  0
  152.2506  138.7112  155.1449 C   0  0  0  0  0  0  0  0  0  0  0  0
  151.2851  140.5721  156.5738 C   0  0  0  0  0  0  0  0  0  0  0  0
  150.9522  141.7273  156.3053 O   0  0  0  0  0  0  0  0  0  0  0  0
  151.9078  140.1963  157.7060 N   0  0  0  0  0  0  0  0  0  0  0  0
  152.3358  141.0008  158.7979 C   0  0  0  0  0  0  0  0  0  0  0  0
  151.6582  142.1006  159.2133 N   0  0  0  0  0  0  0  0  0  0  0  0
  152.1324  142.8153  160.2544 C   0  0  0  0  0  0  0  0  0  0  0  0
  153.3096  142.4809  160.9467 C   0  0  0  0  0  0  0  0  0  0  0  0
  154.0220  141.3436  160.5289 C   0  0  0  0  0  0  0  0  0  0  0  0
  153.5331  140.5910  159.4422 C   0  0  0  0  0  0  0  0  0  0  0  0
  154.2275  139.4836  159.0359 O   0  5  0  0  0  0  0  0  0  0  0  0
  147.0150  141.3572  153.0573 H   0  0  0  0  0  0  0  0  0  0  0  0
  146.9082  142.6852  154.3408 H   0  0  0  0  0  0  0  0  0  0  0  0
  148.5747  141.5518  155.6876 H   0  0  0  0  0  0  0  0  0  0  0  0
  148.5917  139.0257  155.0179 H   0  0  0  0  0  0  0  0  0  0  0  0
  148.6198  139.5664  153.3429 H   0  0  0  0  0  0  0  0  0  0  0  0
  150.3071  138.7101  156.0506 H   0  0  0  0  0  0  0  0  0  0  0  0
  152.7862  138.3016  156.0022 H   0  0  0  0  0  0  0  0  0  0  0  0
  152.9297  139.3775  154.6117 H   0  0  0  0  0  0  0  0  0  0  0  0
  152.0135  137.8819  154.4784 H   0  0  0  0  0  0  0  0  0  0  0  0
  152.1111  139.2119  157.8036 H   0  0  0  0  0  0  0  0  0  0  0  0
  151.5554  143.6811  160.5436 H   0  0  0  0  0  0  0  0  0  0  0  0
  153.6566  143.0800  161.7753 H   0  0  0  0  0  0  0  0  0  0  0  0
  154.9310  141.0547  161.0360 H   0  0  0  0  0  0  0  0  0  0  0  0
  1  2  2  0  0  0  0
  1 17  1  0  0  0  0
  1 18  1  0  0  0  0
  2  3  1  0  0  0  0
  2 19  1  0  0  0  0
  3  4  1  0  0  0  0
  3 20  1  0  0  0  0
  3 21  1  0  0  0  0
  4  5  1  0  0  0  0
  5  6  1  0  0  0  0
  5  7  1  0  0  0  0
  5 22  1  0  0  0  0
  6 23  1  0  0  0  0
  6 24  1  0  0  0  0
  6 25  1  0  0  0  0
  7  8  2  0  0  0  0
  7  9  1  0  0  0  0
  9 26  1  0  0  0  0
  9 10  1  0  0  0  0
 10 15  2  0  0  0  0
 10 11  1  0  0  0  0
 11 12  2  0  0  0  0
 12 27  1  0  0  0  0
 12 13  1  0  0  0  0
 13 28  1  0  0  0  0
 13 14  2  0  0  0  0
 14 15  1  0  0  0  0
 14 29  1  0  0  0  0
 15 16  1  0  0  0  0
M  CHG  1  16  -1
M  END
> <s_m_source_file>
AV-unprocessed.smi

> <i_m_source_file_index>
3208

> <i_lp_mmshare_version>
43012

> <i_f3d_flags>
0

> <s_epik_input>
W0NIMl09W0NIXVtDSDJdT1tDQEhdKFtDSDNdKUMoPU8pW05IXWMxbltjSF1bY0hdW2NIXWMxW09IXQ==

> <s_epik_cmdline>
J2VwaWtfcHl0aG9uJywgJy1waCcsICc3LjAnLCAnLXRuJywgJzgnLCAnLW1hJywgJzIwMCcsICctbWV0YWxfYmluZGluZycsICctaW1hZScsICc8aW5maWxlLm1hZT4nLCAnLW9tYWUnLCAnPG91dGZpbGUubWFlPic=

> <r_epik_Ionization_Penalty>
4.05889

> <r_epik_Ionization_Penalty_Charging>
2.07983

> <r_epik_Ionization_Penalty_Neutral>
1.97905

> <r_epik_State_Penalty>
2.65143

> <r_epik_Charging_Adjusted_Penalty>
4.73126

> <i_epik_Tot_Q>
-1

> <i_epik_Tot_abs_Q>
1

> <r_epik_Metal_State_Penalty>
0.650759

> <b_epik_Metal_Only>
0

> <s_lp_Force_Field>
OPLS_2005

> <r_lp_Energy>
4.10408

> <b_lp_Chiralities_Consistent>
1

> <s_lp_Variant>
AV-unprocessed.smi:3208-8

> <Gold.Version>
5.8.1

> <Gold.Id.Protein>
6NUR|6NUR_protein|mol2

> <Gold.PLP.Fitness>
42.5388

> <Gold.PLP.PLP>
-35.7758

> <Gold.PLP.part.hbond>
-2.0000

> <Gold.PLP.part.metal>
0.0000

> <Gold.PLP.part.buried>
-4.7699

> <Gold.PLP.part.nonpolar>
-29.3457

> <Gold.PLP.part.repulsive>
0.2667

> <Gold.PLP.ligand.clash>
0.0000

> <Gold.PLP.ligand.torsion>
1.1256

> <Gold.PLP.Chemscore.Hbond>
3.0000

> <Gold.PLP.Chemscore.CHOScore>
0.0000

> <Gold.PLP.Chemscore.Metal>
0.0000

> <Gold.Chemscore.Hbonds>
donor molecule, donor type, donor heavy atom, donor atom, acceptor molecule, acceptor atom, score
      P1  H  7989  7998       L1     4  1.00
      P1  H  7997  8008       L1    16  2.00

> <Gold.PLP.Chemscore.Internal.Correction>
0.0141

> <Gold.Rescore>
     Score         DG    S(hbond)    S(metal)    S(lipo)     H(rot)  DE(clash)    DE(int)     intcor
     14.93     -16.29       1.82        0.00      76.70       1.65       0.04       1.31       ----

> <Gold.Chemscore.Fitness>
14.9337

> <Gold.Chemscore.DG>
-16.2865

> <Gold.Chemscore.ZeroCoef>
-5.4800

> <Gold.Chemscore.Hbond>
1.8160

> <Gold.Chemscore.Metal>
0.0000

> <Gold.Chemscore.Lipo>
76.6964

> <Gold.Chemscore.Internal_Hbond>
0.0000

> <Gold.Chemscore.DEClash>
0.0396

> <Gold.Chemscore.DEInternal>
1.3132

> <Gold.Chemscore.Rot>
1.6533

> <Gold.Chemscore.Internal.Correction>
   9.000000E+99

> <Gold.Chemscore.Hbonds>
donor molecule, donor type, donor heavy atom, donor atom, acceptor molecule, acceptor atom, score
      P1  H  7989  7998       L1     4  0.60
      P1  H  7997  8008       L1    16  0.44

> <Gold.Chemscore.Hbond.Weighted>
-6.0654

> <Gold.Chemscore.Metal.Weighted>
-0.0000

> <Gold.Chemscore.Lipo.Weighted>
-8.9735

> <Gold.Chemscore.Internal_Hbond.Weighted>
0.0000

> <Gold.Chemscore.DEClash.Weighted>
0.0396

> <Gold.Chemscore.DEInternal.Weighted>
1.3132

> <Gold.Chemscore.Rot.Weighted>
4.2324

> <Gold.Chemscore.Internal.Correction.Weighted>
   9.000000E+99

> <Gold.Protein.RotatedTorsions>
[ 6907 6896 6895 6894 ] final -131.34 input  -60.11 | X-H torsion
[ 7974 7965 7964 7962 ] final  -45.61 input  175.53 | X-H torsion
[ 8008 7997 7996 7995 ] final -115.97 input   59.86 | X-H torsion
[ 10167 10162 10161 10158 ] final   84.14 input  -65.29 | X-H torsion
[ 10718 10713 10712 10709 ] final  -18.89 input   66.30 | X-H torsion
[ 10763 10752 10751 10750 ] final -111.93 input  -60.55 | X-H torsion
[ 11005 11000 10999 10996 ] final -127.73 input  -57.11 | X-H torsion

> <Gold.Protein.ActiveResidues>
 VAL166  LYS551  ARG553  GLY616  TRP617  ASP618  TYR619  PRO620  LYS621  CYS622 
 ASP623  PHE694  ASN695  SER759  ASP760  ASP761  ALA762  ILE779  LEU786  VAL792 
 PHE793  MET794  SER795  GLU796  ALA797  LYS798  CYS799  TRP800  GLU811  SER814 

> <Gold.Protein.RotatedAtoms>
  150.9498  133.6562  159.2773 H   0  0  0  0  0  0  0  0  0  0  0  0  # atno 6907 bound_to 6896
  151.3921  135.0956  159.9539 H   0  0  0  0  0  0  0  0  0  0  0  0  # atno 6908 bound_to 6896
  152.5105  133.9010  159.7496 H   0  0  0  0  0  0  0  0  0  0  0  0  # atno 6909 bound_to 6896
  145.9803  140.7291  142.9367 H   0  0  0  0  0  0  0  0  0  0  0  0  # atno 7974 bound_to 7965
  155.0605  140.0393  157.2575 H   0  0  0  0  0  0  0  0  0  0  0  0  # atno 8008 bound_to 7997
  154.7063  140.2683  155.6647 H   0  0  0  0  0  0  0  0  0  0  0  0  # atno 8009 bound_to 7997
  156.2776  140.2730  156.1691 H   0  0  0  0  0  0  0  0  0  0  0  0  # atno 8010 bound_to 7997
  139.9111  144.6271  150.8537 H   0  0  0  0  0  0  0  0  0  0  0  0  # atno 10167 bound_to 10162
  156.5533  130.4707  149.6441 H   0  0  0  0  0  0  0  0  0  0  0  0  # atno 10718 bound_to 10713
  154.8324  135.4509  154.1115 H   0  0  0  0  0  0  0  0  0  0  0  0  # atno 10763 bound_to 10752
  153.2376  135.6912  153.7826 H   0  0  0  0  0  0  0  0  0  0  0  0  # atno 10764 bound_to 10752
  153.7185  135.3345  155.3238 H   0  0  0  0  0  0  0  0  0  0  0  0  # atno 10765 bound_to 10752
  140.9575  134.0982  157.4002 H   0  0  0  0  0  0  0  0  0  0  0  0  # atno 11005 bound_to 11000
  144.6859  140.2897  143.7280 LP  0  0  0  0  0  0  0  0  0  0  0  0  # atno 17320 bound_to 7965
  145.7779  139.1881  143.2174 LP  0  0  0  0  0  0  0  0  0  0  0  0  # atno 17321 bound_to 7965
  140.7685  143.3365  151.2298 LP  0  0  0  0  0  0  0  0  0  0  0  0  # atno 17342 bound_to 10162
  139.6942  143.9641  152.2874 LP  0  0  0  0  0  0  0  0  0  0  0  0  # atno 17343 bound_to 10162
  156.2865  130.7100  151.1938 LP  0  0  0  0  0  0  0  0  0  0  0  0  # atno 17370 bound_to 10713
  157.7383  131.0542  150.5302 LP  0  0  0  0  0  0  0  0  0  0  0  0  # atno 17371 bound_to 10713
  139.8867  135.0083  156.6514 LP  0  0  0  0  0  0  0  0  0  0  0  0  # atno 17394 bound_to 11000
  140.7515  133.8893  155.8350 LP  0  0  0  0  0  0  0  0  0  0  0  0  # atno 17395 bound_to 11000

$$$$
