AV-unprocessed.smi:1029|AV-procd|sdf|4474|dock2
  -GOLD-   22720 2453D 1   1.00000     0.00000
 Structure written by MMmdl.
 46 47  0  0  0  0  0  0  0  0  2 V2000
  152.0769  139.8106  158.3409 C   0  0  0  0  0  0  0  0  0  0  0  0
  151.6696  139.6854  156.9024 C   0  0  0  0  0  0  0  0  0  0  0  0
  150.3619  139.5245  156.3659 C   0  0  0  0  0  0  0  0  0  0  0  0
  150.5924  139.4680  155.0170 C   0  0  0  0  0  0  0  0  0  0  0  0
  149.6903  139.3268  154.0110 N   0  0  0  0  0  0  0  0  0  0  0  0
  148.4484  138.8133  154.0580 C   0  0  0  0  0  0  0  0  0  0  0  0
  147.9020  138.3488  155.0586 O   0  0  0  0  0  0  0  0  0  0  0  0
  147.8555  138.8627  152.8577 N   0  0  0  0  0  0  0  0  0  0  0  0
  146.4992  138.3977  152.5967 C   0  0  0  0  0  0  0  0  0  0  0  0
  146.4996  137.1869  151.6477 C   0  0  2  0  0  0  0  0  0  0  0  0
  146.5491  137.6673  150.3180 O   0  0  0  0  0  0  0  0  0  0  0  0
  145.2118  136.3517  151.8000 C   0  0  0  0  0  0  0  0  0  0  0  0
  145.4155  134.9175  151.4686 N   0  3  2  0  0  0  0  0  0  0  0  0
  144.1344  134.1678  151.4073 C   0  0  0  0  0  0  0  0  0  0  0  0
  144.3557  132.7221  150.9312 C   0  0  0  0  0  0  0  0  0  0  0  0
  145.3628  131.9864  151.8302 C   0  0  1  0  0  0  0  0  0  0  0  0
  145.6114  130.5496  151.3504 C   0  0  0  0  0  0  0  0  0  0  0  0
  146.6659  132.7999  151.8974 C   0  0  0  0  0  0  0  0  0  0  0  0
  146.3995  134.2431  152.3572 C   0  0  0  0  0  0  0  0  0  0  0  0
  151.9133  139.5866  154.7392 O   0  0  0  0  0  0  0  0  0  0  0  0
  152.5946  139.7229  155.9544 N   0  0  0  0  0  0  0  0  0  0  0  0
  151.2083  139.7928  158.9993 H   0  0  0  0  0  0  0  0  0  0  0  0
  152.6082  140.7459  158.5190 H   0  0  0  0  0  0  0  0  0  0  0  0
  152.7332  138.9914  158.6359 H   0  0  0  0  0  0  0  0  0  0  0  0
  149.4254  139.4650  156.8996 H   0  0  0  0  0  0  0  0  0  0  0  0
  150.0023  139.6542  153.1086 H   0  0  0  0  0  0  0  0  0  0  0  0
  148.3647  139.2616  152.0823 H   0  0  0  0  0  0  0  0  0  0  0  0
  146.0566  138.1102  153.5520 H   0  0  0  0  0  0  0  0  0  0  0  0
  145.8883  139.2097  152.1976 H   0  0  0  0  0  0  0  0  0  0  0  0
  147.3793  136.5738  151.8424 H   0  0  0  0  0  0  0  0  0  0  0  0
  145.8374  138.2760  150.1885 H   0  0  0  0  0  0  0  0  0  0  0  0
  144.8210  136.4291  152.8158 H   0  0  0  0  0  0  0  0  0  0  0  0
  144.4454  136.7786  151.1506 H   0  0  0  0  0  0  0  0  0  0  0  0
  143.6605  134.1730  152.3904 H   0  0  0  0  0  0  0  0  0  0  0  0
  143.4483  134.6656  150.7211 H   0  0  0  0  0  0  0  0  0  0  0  0
  143.4038  132.1897  150.9230 H   0  0  0  0  0  0  0  0  0  0  0  0
  144.7142  132.7290  149.9007 H   0  0  0  0  0  0  0  0  0  0  0  0
  144.9435  131.9315  152.8359 H   0  0  0  0  0  0  0  0  0  0  0  0
  146.0333  130.5329  150.3448 H   0  0  0  0  0  0  0  0  0  0  0  0
  144.6841  129.9762  151.3318 H   0  0  0  0  0  0  0  0  0  0  0  0
  146.3055  130.0297  152.0114 H   0  0  0  0  0  0  0  0  0  0  0  0
  147.3690  132.3218  152.5807 H   0  0  0  0  0  0  0  0  0  0  0  0
  147.1474  132.8125  150.9184 H   0  0  0  0  0  0  0  0  0  0  0  0
  147.3419  134.7892  152.3655 H   0  0  0  0  0  0  0  0  0  0  0  0
  146.0265  134.2448  153.3826 H   0  0  0  0  0  0  0  0  0  0  0  0
  145.7972  134.8962  150.5333 H   0  0  0  0  0  0  0  0  0  0  0  0
  1  2  1  0  0  0  0
  1 22  1  0  0  0  0
  1 23  1  0  0  0  0
  1 24  1  0  0  0  0
  2 21  2  0  0  0  0
  2  3  1  0  0  0  0
  3  4  2  0  0  0  0
  3 25  1  0  0  0  0
  4  5  1  0  0  0  0
  4 20  1  0  0  0  0
  5  6  1  0  0  0  0
  5 26  1  0  0  0  0
  6  7  2  0  0  0  0
  6  8  1  0  0  0  0
  8  9  1  0  0  0  0
  8 27  1  0  0  0  0
  9 10  1  0  0  0  0
  9 28  1  0  0  0  0
  9 29  1  0  0  0  0
 10 11  1  0  0  0  0
 10 12  1  0  0  0  0
 10 30  1  0  0  0  0
 11 31  1  0  0  0  0
 12 13  1  0  0  0  0
 12 32  1  0  0  0  0
 12 33  1  0  0  0  0
 13 19  1  0  0  0  0
 13 14  1  0  0  0  0
 13 46  1  0  0  0  0
 14 15  1  0  0  0  0
 14 34  1  0  0  0  0
 14 35  1  0  0  0  0
 15 16  1  0  0  0  0
 15 36  1  0  0  0  0
 15 37  1  0  0  0  0
 16 17  1  0  0  0  0
 16 18  1  0  0  0  0
 16 38  1  0  0  0  0
 17 39  1  0  0  0  0
 17 40  1  0  0  0  0
 17 41  1  0  0  0  0
 18 19  1  0  0  0  0
 18 42  1  0  0  0  0
 18 43  1  0  0  0  0
 19 44  1  0  0  0  0
 19 45  1  0  0  0  0
 20 21  1  0  0  0  0
M  CHG  1  13   1
M  END
> <s_m_source_file>
AV-unprocessed.smi

> <i_m_source_file_index>
1029

> <i_lp_mmshare_version>
43012

> <i_f3d_flags>
0

> <s_epik_input>
W0NIM11jMVtjSF1jKG9uMSlbTkhdQyg9TylbTkhdW0NIMl1bQ0BIXShbT0hdKVtDSDJdTjJbQ0gyXVtDSDJdW0NIXShbQ0gzXSlbQ0gyXVtDSDJdMg==

> <s_epik_cmdline>
J2VwaWtfcHl0aG9uJywgJy1waCcsICc3LjAnLCAnLXRuJywgJzgnLCAnLW1hJywgJzIwMCcsICctbWV0YWxfYmluZGluZycsICctaW1hZScsICc8aW5maWxlLm1hZT4nLCAnLW9tYWUnLCAnPG91dGZpbGUubWFlPic=

> <r_lp_tautomer_probability>
1

> <r_epik_Ionization_Penalty>
0.00211787

> <r_epik_Ionization_Penalty_Charging>
0.00153238

> <r_epik_Ionization_Penalty_Neutral>
0.000585488

> <r_epik_State_Penalty>
-0

> <r_epik_Charging_Adjusted_Penalty>
0.00153238

> <i_epik_Tot_Q>
1

> <i_epik_Tot_abs_Q>
1

> <r_epik_Metal_State_Penalty>
-0

> <b_epik_Metal_Only>
0

> <s_lp_Force_Field>
OPLS_2005

> <r_lp_Energy>
21.4534

> <b_lp_Chiralities_Consistent>
1

> <s_lp_Variant>
AV-unprocessed.smi:1029-1

> <Gold.Version>
5.8.1

> <Gold.Id.Protein>
6NUR|6NUR_protein|mol2

> <Gold.PLP.Fitness>
52.1399

> <Gold.PLP.PLP>
-36.1028

> <Gold.PLP.part.hbond>
-7.3244

> <Gold.PLP.part.metal>
0.0000

> <Gold.PLP.part.buried>
-3.0165

> <Gold.PLP.part.nonpolar>
-26.7106

> <Gold.PLP.part.repulsive>
0.3191

> <Gold.PLP.ligand.clash>
0.0000

> <Gold.PLP.ligand.torsion>
0.7478

> <Gold.PLP.Chemscore.Hbond>
5.8160

> <Gold.PLP.Chemscore.CHOScore>
0.0000

> <Gold.PLP.Chemscore.Metal>
0.0000

> <Gold.Chemscore.Hbonds>
donor molecule, donor type, donor heavy atom, donor atom, acceptor molecule, acceptor atom, score
      L1  H     5    26       P1  7957  1.00
      L1  H     8    27       P1  7957  1.00
      L1  H    11    31       P1 10171  0.99
      P1  H  7954  7966       L1    11  0.85
      P1  H  7989  7998       L1    20  0.67
      P1  H  7997  8008       L1    21  1.00

> <Gold.PLP.Chemscore.Internal.Correction>
0.0847

> <Gold.Rescore>
     Score         DG    S(hbond)    S(metal)    S(lipo)     H(rot)  DE(clash)    DE(int)     intcor
     21.94     -25.35       5.19        0.00      75.41       2.46       1.61       1.79       ----

> <Gold.Chemscore.Fitness>
21.9444

> <Gold.Chemscore.DG>
-25.3454

> <Gold.Chemscore.ZeroCoef>
-5.4800

> <Gold.Chemscore.Hbond>
5.1934

> <Gold.Chemscore.Metal>
0.0000

> <Gold.Chemscore.Lipo>
75.4121

> <Gold.Chemscore.Internal_Hbond>
0.0000

> <Gold.Chemscore.DEClash>
1.6135

> <Gold.Chemscore.DEInternal>
1.7875

> <Gold.Chemscore.Rot>
2.4624

> <Gold.Chemscore.Internal.Correction>
   9.000000E+99

> <Gold.Chemscore.Hbonds>
donor molecule, donor type, donor heavy atom, donor atom, acceptor molecule, acceptor atom, score
      L1  H     5    26       P1  7957  0.89
      L1  H     8    27       P1  7957  1.00
      L1  H    11    31       P1 10171  0.91
      P1  H  7954  7966       L1    11  0.58
      P1  H  7989  7998       L1    20  0.07
      P1  H  7997  8008       L1    21  0.99

> <Gold.Chemscore.Hbond.Weighted>
-17.3459

> <Gold.Chemscore.Metal.Weighted>
-0.0000

> <Gold.Chemscore.Lipo.Weighted>
-8.8232

> <Gold.Chemscore.Internal_Hbond.Weighted>
0.0000

> <Gold.Chemscore.DEClash.Weighted>
1.6135

> <Gold.Chemscore.DEInternal.Weighted>
1.7875

> <Gold.Chemscore.Rot.Weighted>
6.3037

> <Gold.Chemscore.Internal.Correction.Weighted>
   9.000000E+99

> <Gold.Protein.RotatedTorsions>
[ 6907 6896 6895 6894 ] final -126.00 input  -60.11 | X-H torsion
[ 7974 7965 7964 7962 ] final  172.80 input  175.53 | X-H torsion
[ 8008 7997 7996 7995 ] final  -40.68 input   59.86 | X-H torsion
[ 10167 10162 10161 10158 ] final   25.56 input  -65.29 | X-H torsion
[ 10718 10713 10712 10709 ] final  140.98 input   66.30 | X-H torsion
[ 10763 10752 10751 10750 ] final -177.11 input  -60.55 | X-H torsion
[ 11005 11000 10999 10996 ] final -109.65 input  -57.11 | X-H torsion

> <Gold.Protein.ActiveResidues>
 VAL166  LYS551  ARG553  GLY616  TRP617  ASP618  TYR619  PRO620  LYS621  CYS622 
 ASP623  PHE694  ASN695  SER759  ASP760  ASP761  ALA762  ILE779  LEU786  VAL792 
 PHE793  MET794  SER795  GLU796  ALA797  LYS798  CYS799  TRP800  GLU811  SER814 

> <Gold.Protein.RotatedAtoms>
  150.8924  133.7225  159.2900 H   0  0  0  0  0  0  0  0  0  0  0  0  # atno 6907 bound_to 6896
  151.4771  135.1048  159.9777 H   0  0  0  0  0  0  0  0  0  0  0  0  # atno 6908 bound_to 6896
  152.4828  133.8250  159.7129 H   0  0  0  0  0  0  0  0  0  0  0  0  # atno 6909 bound_to 6896
  144.7259  139.9553  143.6433 H   0  0  0  0  0  0  0  0  0  0  0  0  # atno 7974 bound_to 7965
  154.4010  140.1519  156.3066 H   0  0  0  0  0  0  0  0  0  0  0  0  # atno 8008 bound_to 7997
  155.8652  140.3451  155.5762 H   0  0  0  0  0  0  0  0  0  0  0  0  # atno 8009 bound_to 7997
  155.7835  140.0847  157.2037 H   0  0  0  0  0  0  0  0  0  0  0  0  # atno 8010 bound_to 7997
  140.5096  144.0182  150.6367 H   0  0  0  0  0  0  0  0  0  0  0  0  # atno 10167 bound_to 10162
  157.3972  131.1012  151.0588 H   0  0  0  0  0  0  0  0  0  0  0  0  # atno 10718 bound_to 10713
  154.5642  135.2822  155.0890 H   0  0  0  0  0  0  0  0  0  0  0  0  # atno 10763 bound_to 10752
  154.2288  135.6378  153.5172 H   0  0  0  0  0  0  0  0  0  0  0  0  # atno 10764 bound_to 10752
  153.0038  135.5532  154.6245 H   0  0  0  0  0  0  0  0  0  0  0  0  # atno 10765 bound_to 10752
  141.0836  133.9178  157.2235 H   0  0  0  0  0  0  0  0  0  0  0  0  # atno 11005 bound_to 11000
  146.0680  139.3670  143.0541 LP  0  0  0  0  0  0  0  0  0  0  0  0  # atno 17320 bound_to 7965
  145.8006  140.9773  143.1001 LP  0  0  0  0  0  0  0  0  0  0  0  0  # atno 17321 bound_to 7965
  140.3501  143.2968  152.0496 LP  0  0  0  0  0  0  0  0  0  0  0  0  # atno 17342 bound_to 10162
  139.4892  144.6380  151.6936 LP  0  0  0  0  0  0  0  0  0  0  0  0  # atno 17343 bound_to 10162
  157.1600  130.6221  149.5608 LP  0  0  0  0  0  0  0  0  0  0  0  0  # atno 17370 bound_to 10713
  155.9813  130.4820  150.6823 LP  0  0  0  0  0  0  0  0  0  0  0  0  # atno 17371 bound_to 10713
  139.9652  135.0144  156.9367 LP  0  0  0  0  0  0  0  0  0  0  0  0  # atno 17394 bound_to 11000
  140.5414  134.0717  155.7342 LP  0  0  0  0  0  0  0  0  0  0  0  0  # atno 17395 bound_to 11000

$$$$
