AV-unprocessed.smi:741|AV-procd|sdf|3557|dock4
  -GOLD-   22720 0553D 1   1.00000     0.00000
 Structure written by MMmdl.
 43 44  0  0  0  0  0  0  0  0  3 V2000
  144.4822  135.3345  150.8083 C   0  0  0  0  0  0  0  0  0  0  0  0
  144.4600  135.6282  152.3156 C   0  0  0  0  0  0  0  0  0  0  0  0
  145.7219  135.1523  153.0609 C   0  0  1  0  0  0  0  0  0  0  0  0
  146.3049  133.8772  152.4131 C   0  0  0  0  0  0  0  0  0  0  0  0
  147.1233  133.0722  153.3530 N   0  3  0  0  0  0  0  0  0  0  0  0
  147.3115  131.6577  152.9679 C   0  0  0  0  0  0  0  0  0  0  0  0
  148.5551  131.2124  153.7286 C   0  0  0  0  0  0  0  0  0  0  0  0
  149.4441  132.4513  153.6801 C   0  0  0  0  0  0  0  0  0  0  0  0
  148.4651  133.6330  153.6380 C   0  0  0  0  0  0  0  0  0  0  0  0
  146.7192  136.2256  153.0810 N   0  0  0  0  0  0  0  0  0  0  0  0
  146.5730  137.4294  153.6541 C   0  0  0  0  0  0  0  0  0  0  0  0
  145.5748  137.7613  154.2922 O   0  0  0  0  0  0  0  0  0  0  0  0
  147.6594  138.1976  153.4629 N   0  0  0  0  0  0  0  0  0  0  0  0
  147.8784  139.5337  153.8957 C   0  0  0  0  0  0  0  0  0  0  0  0
  149.1873  139.8908  154.2892 C   0  0  0  0  0  0  0  0  0  0  0  0
  149.4511  141.2105  154.7095 C   0  0  0  0  0  0  0  0  0  0  0  0
  148.4568  142.1240  154.7218 N   0  3  0  0  0  0  0  0  0  0  0  0
  147.1946  141.8345  154.3393 C   0  0  0  0  0  0  0  0  0  0  0  0
  146.8702  140.5309  153.9107 C   0  0  0  0  0  0  0  0  0  0  0  0
  143.5901  135.7328  150.3246 H   0  0  0  0  0  0  0  0  0  0  0  0
  144.5138  134.2637  150.6064 H   0  0  0  0  0  0  0  0  0  0  0  0
  145.3493  135.7920  150.3311 H   0  0  0  0  0  0  0  0  0  0  0  0
  144.3461  136.7038  152.4550 H   0  0  0  0  0  0  0  0  0  0  0  0
  143.5734  135.1715  152.7580 H   0  0  0  0  0  0  0  0  0  0  0  0
  145.4174  134.9133  154.0815 H   0  0  0  0  0  0  0  0  0  0  0  0
  145.5094  133.2551  151.9997 H   0  0  0  0  0  0  0  0  0  0  0  0
  146.9316  134.1727  151.5698 H   0  0  0  0  0  0  0  0  0  0  0  0
  146.4408  131.0460  153.2023 H   0  0  0  0  0  0  0  0  0  0  0  0
  147.4948  131.5851  151.8947 H   0  0  0  0  0  0  0  0  0  0  0  0
  148.2947  130.9810  154.7624 H   0  0  0  0  0  0  0  0  0  0  0  0
  149.0278  130.3314  153.2937 H   0  0  0  0  0  0  0  0  0  0  0  0
  150.1328  132.5055  154.5236 H   0  0  0  0  0  0  0  0  0  0  0  0
  150.0400  132.4370  152.7664 H   0  0  0  0  0  0  0  0  0  0  0  0
  148.7753  134.3526  152.8788 H   0  0  0  0  0  0  0  0  0  0  0  0
  148.4324  134.1548  154.5948 H   0  0  0  0  0  0  0  0  0  0  0  0
  147.5788  136.0442  152.5828 H   0  0  0  0  0  0  0  0  0  0  0  0
  148.4407  137.7580  152.9982 H   0  0  0  0  0  0  0  0  0  0  0  0
  149.9845  139.1616  154.2768 H   0  0  0  0  0  0  0  0  0  0  0  0
  150.4212  141.5608  155.0311 H   0  0  0  0  0  0  0  0  0  0  0  0
  146.4875  142.6502  154.3809 H   0  0  0  0  0  0  0  0  0  0  0  0
  145.8603  140.3256  153.5893 H   0  0  0  0  0  0  0  0  0  0  0  0
  146.6382  133.0632  154.2385 H   0  0  0  0  0  0  0  0  0  0  0  0
  148.6695  143.0744  155.0271 H   0  0  0  0  0  0  0  0  0  0  0  0
  1  2  1  0  0  0  0
  1 20  1  0  0  0  0
  1 21  1  0  0  0  0
  1 22  1  0  0  0  0
  2  3  1  0  0  0  0
  2 23  1  0  0  0  0
  2 24  1  0  0  0  0
  3  4  1  0  0  0  0
  3 10  1  0  0  0  0
  3 25  1  0  0  0  0
  4  5  1  0  0  0  0
  4 26  1  0  0  0  0
  4 27  1  0  0  0  0
  5  9  1  0  0  0  0
  5  6  1  0  0  0  0
  5 42  1  0  0  0  0
  6  7  1  0  0  0  0
  6 28  1  0  0  0  0
  6 29  1  0  0  0  0
  7  8  1  0  0  0  0
  7 30  1  0  0  0  0
  7 31  1  0  0  0  0
  8  9  1  0  0  0  0
  8 32  1  0  0  0  0
  8 33  1  0  0  0  0
  9 34  1  0  0  0  0
  9 35  1  0  0  0  0
 10 11  1  0  0  0  0
 10 36  1  0  0  0  0
 11 12  2  0  0  0  0
 11 13  1  0  0  0  0
 13 14  1  0  0  0  0
 13 37  1  0  0  0  0
 14 19  1  0  0  0  0
 14 15  2  0  0  0  0
 15 16  1  0  0  0  0
 15 38  1  0  0  0  0
 16 17  2  0  0  0  0
 16 39  1  0  0  0  0
 17 18  1  0  0  0  0
 17 43  1  0  0  0  0
 18 19  2  0  0  0  0
 18 40  1  0  0  0  0
 19 41  1  0  0  0  0
M  CHG  1   5   1
M  CHG  1  17   1
M  END
> <s_m_source_file>
AV-unprocessed.smi

> <i_m_source_file_index>
741

> <i_lp_mmshare_version>
43012

> <i_f3d_flags>
0

> <s_epik_input>
W0NIMl0xW0NIMl1bQ0gyXVtDSDJdTjFbQ0gyXVtDQEBIXShbQ0gyXVtDSDNdKVtOSF1DKD1PKVtOSF1jMltjSF1bY0hdbltjSF1bY0hdMg==

> <s_epik_cmdline>
J2VwaWtfcHl0aG9uJywgJy1waCcsICc3LjAnLCAnLXRuJywgJzgnLCAnLW1hJywgJzIwMCcsICctbWV0YWxfYmluZGluZycsICctaW1hZScsICc8aW5maWxlLm1hZT4nLCAnLW9tYWUnLCAnPG91dGZpbGUubWFlPic=

> <r_epik_Ionization_Penalty>
1.10771

> <r_epik_Ionization_Penalty_Charging>
1.10769

> <r_epik_Ionization_Penalty_Neutral>
1.91663e-05

> <r_epik_State_Penalty>
1.16347

> <r_epik_Charging_Adjusted_Penalty>
2.27116

> <i_epik_Tot_Q>
2

> <i_epik_Tot_abs_Q>
2

> <r_epik_Metal_State_Penalty>
1.24871

> <b_epik_Metal_Only>
0

> <s_lp_Force_Field>
OPLS_2005

> <r_lp_Energy>
49.4137

> <b_lp_Chiralities_Consistent>
1

> <s_lp_Variant>
AV-unprocessed.smi:741-4

> <Gold.Version>
5.8.1

> <Gold.Id.Protein>
6NUR|6NUR_protein|mol2

> <Gold.PLP.Fitness>
42.5282

> <Gold.PLP.PLP>
-32.8372

> <Gold.PLP.part.hbond>
-2.9830

> <Gold.PLP.part.metal>
0.0000

> <Gold.PLP.part.buried>
-2.4600

> <Gold.PLP.part.nonpolar>
-27.8667

> <Gold.PLP.part.repulsive>
0.3793

> <Gold.PLP.ligand.clash>
0.0000

> <Gold.PLP.ligand.torsion>
1.0303

> <Gold.PLP.Chemscore.Hbond>
3.8800

> <Gold.PLP.Chemscore.CHOScore>
0.0000

> <Gold.PLP.Chemscore.Metal>
0.0000

> <Gold.Chemscore.Hbonds>
donor molecule, donor type, donor heavy atom, donor atom, acceptor molecule, acceptor atom, score
      L1  H    10    36       P1  7948  1.00
      L1  H    13    37       P1  7948  0.90
      L1  H    17    43       P1  8028  2.00

> <Gold.PLP.Chemscore.Internal.Correction>
0.1116

> <Gold.Rescore>
     Score         DG    S(hbond)    S(metal)    S(lipo)     H(rot)  DE(clash)    DE(int)     intcor
     18.30     -19.99       2.92        0.00      76.27       1.63       0.26       1.43       ----

> <Gold.Chemscore.Fitness>
18.3046

> <Gold.Chemscore.DG>
-19.9918

> <Gold.Chemscore.ZeroCoef>
-5.4800

> <Gold.Chemscore.Hbond>
2.9194

> <Gold.Chemscore.Metal>
0.0000

> <Gold.Chemscore.Lipo>
76.2712

> <Gold.Chemscore.Internal_Hbond>
0.0000

> <Gold.Chemscore.DEClash>
0.2563

> <Gold.Chemscore.DEInternal>
1.4310

> <Gold.Chemscore.Rot>
1.6260

> <Gold.Chemscore.Internal.Correction>
   9.000000E+99

> <Gold.Chemscore.Hbonds>
donor molecule, donor type, donor heavy atom, donor atom, acceptor molecule, acceptor atom, score
      L1  H    10    36       P1  7948  0.95
      L1  H    13    37       P1  7948  0.85
      L1  H    17    43       P1  8028  1.00

> <Gold.Chemscore.Hbond.Weighted>
-9.7507

> <Gold.Chemscore.Metal.Weighted>
-0.0000

> <Gold.Chemscore.Lipo.Weighted>
-8.9237

> <Gold.Chemscore.Internal_Hbond.Weighted>
0.0000

> <Gold.Chemscore.DEClash.Weighted>
0.2563

> <Gold.Chemscore.DEInternal.Weighted>
1.4310

> <Gold.Chemscore.Rot.Weighted>
4.1626

> <Gold.Chemscore.Internal.Correction.Weighted>
   9.000000E+99

> <Gold.Protein.RotatedTorsions>
[ 6907 6896 6895 6894 ] final   66.21 input  -60.11 | X-H torsion
[ 7974 7965 7964 7962 ] final  176.73 input  175.53 | X-H torsion
[ 8008 7997 7996 7995 ] final  -57.86 input   59.86 | X-H torsion
[ 10167 10162 10161 10158 ] final  145.20 input  -65.29 | X-H torsion
[ 10718 10713 10712 10709 ] final   29.47 input   66.30 | X-H torsion
[ 10763 10752 10751 10750 ] final -129.79 input  -60.55 | X-H torsion
[ 11005 11000 10999 10996 ] final -141.87 input  -57.11 | X-H torsion

> <Gold.Protein.ActiveResidues>
 VAL166  LYS551  ARG553  GLY616  TRP617  ASP618  TYR619  PRO620  LYS621  CYS622 
 ASP623  PHE694  ASN695  SER759  ASP760  ASP761  ALA762  ILE779  LEU786  VAL792 
 PHE793  MET794  SER795  GLU796  ALA797  LYS798  CYS799  TRP800  GLU811  SER814 

> <Gold.Protein.RotatedAtoms>
  152.4464  134.5486  159.9859 H   0  0  0  0  0  0  0  0  0  0  0  0  # atno 6907 bound_to 6896
  151.5569  133.3403  159.2971 H   0  0  0  0  0  0  0  0  0  0  0  0  # atno 6908 bound_to 6896
  150.8381  134.7695  159.6973 H   0  0  0  0  0  0  0  0  0  0  0  0  # atno 6909 bound_to 6896
  144.7179  140.0141  143.6440 H   0  0  0  0  0  0  0  0  0  0  0  0  # atno 7974 bound_to 7965
  154.4285  140.1097  156.5865 H   0  0  0  0  0  0  0  0  0  0  0  0  # atno 8008 bound_to 7997
  155.6057  140.3494  155.4588 H   0  0  0  0  0  0  0  0  0  0  0  0  # atno 8009 bound_to 7997
  156.0138  140.1225  157.0416 H   0  0  0  0  0  0  0  0  0  0  0  0  # atno 8010 bound_to 7997
  139.4931  144.5918  151.6665 H   0  0  0  0  0  0  0  0  0  0  0  0  # atno 10167 bound_to 10162
  157.2470  130.7097  149.6386 H   0  0  0  0  0  0  0  0  0  0  0  0  # atno 10718 bound_to 10713
  154.8757  135.3884  154.3977 H   0  0  0  0  0  0  0  0  0  0  0  0  # atno 10763 bound_to 10752
  153.4705  135.7030  153.6001 H   0  0  0  0  0  0  0  0  0  0  0  0  # atno 10764 bound_to 10752
  153.4460  135.3845  155.2224 H   0  0  0  0  0  0  0  0  0  0  0  0  # atno 10765 bound_to 10752
  140.8282  134.2549  157.4869 H   0  0  0  0  0  0  0  0  0  0  0  0  # atno 11005 bound_to 11000
  146.0234  139.3271  143.0799 LP  0  0  0  0  0  0  0  0  0  0  0  0  # atno 17320 bound_to 7965
  145.8540  140.9513  143.0734 LP  0  0  0  0  0  0  0  0  0  0  0  0  # atno 17321 bound_to 7965
  140.5547  144.0368  150.6142 LP  0  0  0  0  0  0  0  0  0  0  0  0  # atno 17342 bound_to 10162
  140.3434  143.3006  152.0564 LP  0  0  0  0  0  0  0  0  0  0  0  0  # atno 17343 bound_to 10162
  155.9667  130.4439  150.5442 LP  0  0  0  0  0  0  0  0  0  0  0  0  # atno 17370 bound_to 10713
  157.3318  131.0701  151.1855 LP  0  0  0  0  0  0  0  0  0  0  0  0  # atno 17371 bound_to 10713
  139.8706  134.9572  156.4260 LP  0  0  0  0  0  0  0  0  0  0  0  0  # atno 17394 bound_to 11000
  140.9027  133.7768  155.9698 LP  0  0  0  0  0  0  0  0  0  0  0  0  # atno 17395 bound_to 11000

$$$$
