AV-unprocessed.smi:2729|AV-procd|sdf|10527|dock3
  -GOLD-   2272014573D 1   1.00000     0.00000
 Structure written by MMmdl.
 33 34  0  0  0  0  0  0  0  0  1 V2000
  150.3090  132.3614  154.8441 C   0  0  0  0  0  0  0  0  0  0  0  0
  149.7050  133.7571  155.1051 C   0  0  2  0  0  0  0  0  0  0  0  0
  148.8267  134.1531  153.9950 N   0  0  0  0  0  0  0  0  0  0  0  0
  147.7643  133.4992  153.4975 C   0  0  0  0  0  0  0  0  0  0  0  0
  147.3463  132.4296  153.9391 O   0  0  0  0  0  0  0  0  0  0  0  0
  147.2205  134.1793  152.4740 N   0  0  0  0  0  0  0  0  0  0  0  0
  146.1063  133.8225  151.6676 C   0  0  0  0  0  0  0  0  0  0  0  0
  145.6698  132.4921  151.4554 C   0  0  0  0  0  0  0  0  0  0  0  0
  144.5629  132.2662  150.6149 C   0  0  0  0  0  0  0  0  0  0  0  0
  143.9382  133.3754  150.0127 C   0  0  0  0  0  0  0  0  0  0  0  0
  144.3516  134.6471  150.1952 N   0  0  0  0  0  0  0  0  0  0  0  0
  145.4140  134.8559  151.0016 C   0  0  0  0  0  0  0  0  0  0  0  0
  150.8076  134.8214  155.3519 C   0  0  0  0  0  0  0  0  0  0  0  0
  150.1835  136.0694  155.9873 C   0  0  0  0  0  0  0  0  0  0  0  0
  148.7995  135.4578  157.0165 S   0  0  0  0  0  0  0  0  0  0  0  0
  149.1959  135.4608  158.4328 O   0  0  0  0  0  0  0  0  0  0  0  0
  147.5555  136.1075  156.5762 O   0  0  0  0  0  0  0  0  0  0  0  0
  148.8447  133.7359  156.3849 C   0  0  0  0  0  0  0  0  0  0  0  0
  150.9036  132.0235  155.6934 H   0  0  0  0  0  0  0  0  0  0  0  0
  150.9665  132.3556  153.9749 H   0  0  0  0  0  0  0  0  0  0  0  0
  149.5284  131.6185  154.6754 H   0  0  0  0  0  0  0  0  0  0  0  0
  149.0672  135.0247  153.5459 H   0  0  0  0  0  0  0  0  0  0  0  0
  147.6214  135.0853  152.2796 H   0  0  0  0  0  0  0  0  0  0  0  0
  146.1659  131.6455  151.9038 H   0  0  0  0  0  0  0  0  0  0  0  0
  144.2042  131.2643  150.4318 H   0  0  0  0  0  0  0  0  0  0  0  0
  143.0874  133.2370  149.3621 H   0  0  0  0  0  0  0  0  0  0  0  0
  145.7180  135.8857  151.1216 H   0  0  0  0  0  0  0  0  0  0  0  0
  151.5320  134.4128  156.0578 H   0  0  0  0  0  0  0  0  0  0  0  0
  151.3741  135.0726  154.4556 H   0  0  0  0  0  0  0  0  0  0  0  0
  150.8881  136.6352  156.5971 H   0  0  0  0  0  0  0  0  0  0  0  0
  149.7726  136.7299  155.2234 H   0  0  0  0  0  0  0  0  0  0  0  0
  147.8312  133.3635  156.2303 H   0  0  0  0  0  0  0  0  0  0  0  0
  149.3122  133.1237  157.1571 H   0  0  0  0  0  0  0  0  0  0  0  0
  1  2  1  0  0  0  0
  1 19  1  0  0  0  0
  1 20  1  0  0  0  0
  1 21  1  0  0  0  0
  2 18  1  0  0  0  0
  2  3  1  0  0  0  0
  2 13  1  0  0  0  0
  3  4  1  0  0  0  0
  3 22  1  0  0  0  0
  4  5  2  0  0  0  0
  4  6  1  0  0  0  0
  6  7  1  0  0  0  0
  6 23  1  0  0  0  0
  7 12  1  0  0  0  0
  7  8  2  0  0  0  0
  8  9  1  0  0  0  0
  8 24  1  0  0  0  0
  9 10  2  0  0  0  0
  9 25  1  0  0  0  0
 10 11  1  0  0  0  0
 10 26  1  0  0  0  0
 11 12  2  0  0  0  0
 12 27  1  0  0  0  0
 13 14  1  0  0  0  0
 13 28  1  0  0  0  0
 13 29  1  0  0  0  0
 14 15  1  0  0  0  0
 14 30  1  0  0  0  0
 14 31  1  0  0  0  0
 15 16  2  0  0  0  0
 15 17  2  0  0  0  0
 15 18  1  0  0  0  0
 18 32  1  0  0  0  0
 18 33  1  0  0  0  0
M  END
> <s_m_source_file>
AV-unprocessed.smi

> <i_m_source_file_index>
2729

> <i_lp_mmshare_version>
43012

> <i_f3d_flags>
0

> <s_epik_input>
Tz1TKD1PKShbQ0gyXTEpW0NIMl1bQ0gyXVtDQEBdMShbQ0gzXSlbTkhdQyg9TylbTkhdYzJbY0hdW2NIXVtjSF1uW2NIXTI=

> <s_epik_cmdline>
J2VwaWtfcHl0aG9uJywgJy1waCcsICc3LjAnLCAnLXRuJywgJzgnLCAnLW1hJywgJzIwMCcsICctbWV0YWxfYmluZGluZycsICctaW1hZScsICc8aW5maWxlLm1hZT4nLCAnLW9tYWUnLCAnPG91dGZpbGUubWFlPic=

> <r_epik_Ionization_Penalty>
0.00438887

> <r_epik_Ionization_Penalty_Charging>
0

> <r_epik_Ionization_Penalty_Neutral>
0.00438887

> <r_epik_State_Penalty>
0.00314315

> <r_epik_Charging_Adjusted_Penalty>
0.00314315

> <i_epik_Tot_Q>
0

> <i_epik_Tot_abs_Q>
0

> <r_epik_Metal_State_Penalty>
-0

> <b_epik_Metal_Only>
0

> <s_lp_Force_Field>
OPLS_2005

> <r_lp_Energy>
5.04322

> <b_lp_Chiralities_Consistent>
1

> <s_lp_Variant>
AV-unprocessed.smi:2729-2

> <Gold.Version>
5.8.1

> <Gold.Id.Protein>
6NUR|6NUR_protein|mol2

> <Gold.PLP.Fitness>
35.1210

> <Gold.PLP.PLP>
-23.8660

> <Gold.PLP.part.hbond>
-2.9965

> <Gold.PLP.part.metal>
0.0000

> <Gold.PLP.part.buried>
-4.3911

> <Gold.PLP.part.nonpolar>
-16.6876

> <Gold.PLP.part.repulsive>
0.3164

> <Gold.PLP.ligand.clash>
0.0000

> <Gold.PLP.ligand.torsion>
0.1408

> <Gold.PLP.Chemscore.Hbond>
2.9360

> <Gold.PLP.Chemscore.CHOScore>
0.9045

> <Gold.PLP.Chemscore.Metal>
0.0000

> <Gold.Chemscore.Hbonds>
donor molecule, donor type, donor heavy atom, donor atom, acceptor molecule, acceptor atom, score
      L1  H     3    22       P1  7948  0.94
      L1  H     6    23       P1  7948  1.00
      P1  H  6896  6907       L1    16  0.96
      L1  C    10    26       P1 10186  0.91

> <Gold.PLP.Chemscore.Internal.Correction>
0.0150

> <Gold.Rescore>
     Score         DG    S(hbond)    S(metal)    S(lipo)     H(rot)  DE(clash)    DE(int)     intcor
     16.77     -17.30       2.25        0.00      58.56       1.00       0.25       0.29       ----

> <Gold.Chemscore.Fitness>
16.7660

> <Gold.Chemscore.DG>
-17.3005

> <Gold.Chemscore.ZeroCoef>
-5.4800

> <Gold.Chemscore.Hbond>
2.2541

> <Gold.Chemscore.Metal>
0.0000

> <Gold.Chemscore.Lipo>
58.5629

> <Gold.Chemscore.Internal_Hbond>
0.0000

> <Gold.Chemscore.DEClash>
0.2455

> <Gold.Chemscore.DEInternal>
0.2890

> <Gold.Chemscore.Rot>
1.0000

> <Gold.Chemscore.Internal.Correction>
   9.000000E+99

> <Gold.Chemscore.Hbonds>
donor molecule, donor type, donor heavy atom, donor atom, acceptor molecule, acceptor atom, score
      L1  H     3    22       P1  7948  0.26
      L1  H     6    23       P1  7948  0.94
      P1  H  6896  6907       L1    16  0.91

> <Gold.Chemscore.Hbond.Weighted>
-7.5286

> <Gold.Chemscore.Metal.Weighted>
-0.0000

> <Gold.Chemscore.Lipo.Weighted>
-6.8519

> <Gold.Chemscore.Internal_Hbond.Weighted>
0.0000

> <Gold.Chemscore.DEClash.Weighted>
0.2455

> <Gold.Chemscore.DEInternal.Weighted>
0.2890

> <Gold.Chemscore.Rot.Weighted>
2.5600

> <Gold.Chemscore.Internal.Correction.Weighted>
   9.000000E+99

> <Gold.Protein.RotatedTorsions>
[ 6907 6896 6895 6894 ] final  -72.30 input  -60.11 | X-H torsion
[ 7974 7965 7964 7962 ] final   69.49 input  175.53 | X-H torsion
[ 8008 7997 7996 7995 ] final -107.76 input   59.86 | X-H torsion
[ 10167 10162 10161 10158 ] final -177.87 input  -65.29 | X-H torsion
[ 10718 10713 10712 10709 ] final   -7.49 input   66.30 | X-H torsion
[ 10763 10752 10751 10750 ] final  172.95 input  -60.55 | X-H torsion
[ 11005 11000 10999 10996 ] final  -95.23 input  -57.11 | X-H torsion

> <Gold.Protein.ActiveResidues>
 VAL166  LYS551  ARG553  GLY616  TRP617  ASP618  TYR619  PRO620  LYS621  CYS622 
 ASP623  PHE694  ASN695  SER759  ASP760  ASP761  ALA762  ILE779  LEU786  VAL792 
 PHE793  MET794  SER795  GLU796  ALA797  LYS798  CYS799  TRP800  GLU811  SER814 

> <Gold.Protein.RotatedAtoms>
  150.7176  134.5183  159.5640 H   0  0  0  0  0  0  0  0  0  0  0  0  # atno 6907 bound_to 6896
  152.2744  134.7894  160.0417 H   0  0  0  0  0  0  0  0  0  0  0  0  # atno 6908 bound_to 6896
  151.8563  133.3413  159.3726 H   0  0  0  0  0  0  0  0  0  0  0  0  # atno 6909 bound_to 6896
  145.7897  139.2928  143.1217 H   0  0  0  0  0  0  0  0  0  0  0  0  # atno 7974 bound_to 7965
  154.9342  140.0404  157.2064 H   0  0  0  0  0  0  0  0  0  0  0  0  # atno 8008 bound_to 7997
  154.8131  140.2871  155.5817 H   0  0  0  0  0  0  0  0  0  0  0  0  # atno 8009 bound_to 7997
  156.2973  140.2533  156.3023 H   0  0  0  0  0  0  0  0  0  0  0  0  # atno 8010 bound_to 7997
  139.5459  144.2237  152.0987 H   0  0  0  0  0  0  0  0  0  0  0  0  # atno 10167 bound_to 10162
  156.7165  130.5138  149.5879 H   0  0  0  0  0  0  0  0  0  0  0  0  # atno 10718 bound_to 10713
  154.4332  135.2760  155.1898 H   0  0  0  0  0  0  0  0  0  0  0  0  # atno 10763 bound_to 10752
  154.3795  135.6090  153.5787 H   0  0  0  0  0  0  0  0  0  0  0  0  # atno 10764 bound_to 10752
  152.9837  135.5877  154.4647 H   0  0  0  0  0  0  0  0  0  0  0  0  # atno 10765 bound_to 10752
  141.1448  133.8012  157.0407 H   0  0  0  0  0  0  0  0  0  0  0  0  # atno 11005 bound_to 11000
  145.9989  140.8537  143.0028 LP  0  0  0  0  0  0  0  0  0  0  0  0  # atno 17320 bound_to 7965
  144.6783  140.2324  143.7354 LP  0  0  0  0  0  0  0  0  0  0  0  0  # atno 17321 bound_to 7965
  140.1723  144.4924  150.6573 LP  0  0  0  0  0  0  0  0  0  0  0  0  # atno 17342 bound_to 10162
  140.6707  143.2285  151.5632 LP  0  0  0  0  0  0  0  0  0  0  0  0  # atno 17343 bound_to 10162
  156.1624  130.6383  151.0736 LP  0  0  0  0  0  0  0  0  0  0  0  0  # atno 17370 bound_to 10713
  157.6915  131.0808  150.7093 LP  0  0  0  0  0  0  0  0  0  0  0  0  # atno 17371 bound_to 10713
  140.0694  134.9710  157.1442 LP  0  0  0  0  0  0  0  0  0  0  0  0  # atno 17394 bound_to 11000
  140.3732  134.2367  155.7176 LP  0  0  0  0  0  0  0  0  0  0  0  0  # atno 17395 bound_to 11000

$$$$
