AV-unprocessed.smi:1082|AV-procd|sdf|4713|dock5
  -GOLD-   22720 3233D 1   1.00000     0.00000
 Structure written by MMmdl.
 49 51  0  0  0  0  0  0  0  0  3 V2000
  145.0762  138.0260  152.9749 O   0  0  0  0  0  0  0  0  0  0  0  0
  146.1428  137.5780  152.5551 C   0  0  0  0  0  0  0  0  0  0  0  0
  146.2452  136.4237  151.8835 N   0  0  0  0  0  0  0  0  0  0  0  0
  145.1201  135.5536  151.5687 C   0  0  0  0  0  0  0  0  0  0  0  0
  145.2049  134.2507  152.3795 C   0  0  0  0  0  0  0  0  0  0  0  0
  145.0389  133.0462  151.5315 N   0  3  0  0  0  0  0  0  0  0  0  0
  143.6797  132.8919  150.9575 C   0  0  0  0  0  0  0  0  0  0  0  0
  143.8557  132.5974  149.4635 C   0  0  0  0  0  0  0  0  0  0  0  0
  145.2945  132.1105  149.3470 C   0  0  0  0  0  0  0  0  0  0  0  0
  146.0098  132.9235  150.4211 C   0  0  0  0  0  0  0  0  0  0  0  0
  147.3450  138.1546  152.7206 N   0  0  0  0  0  0  0  0  0  0  0  0
  147.6526  139.3628  153.4082 C   0  0  0  0  0  0  0  0  0  0  0  0
  146.8140  140.5056  153.3591 C   0  0  0  0  0  0  0  0  0  0  0  0
  147.1885  141.6767  154.0475 C   0  0  0  0  0  0  0  0  0  0  0  0
  148.3975  141.6917  154.7677 C   0  0  0  0  0  0  0  0  0  0  0  0
  149.1803  140.5926  154.7835 N   0  3  0  0  0  0  0  0  0  0  0  0
  148.8674  139.4434  154.1355 C   0  0  0  0  0  0  0  0  0  0  0  0
  149.7542  138.3560  154.2216 N   0  0  0  0  0  0  0  0  0  0  0  0
  151.1574  138.7203  154.3973 C   0  0  0  0  0  0  0  0  0  0  0  0
  151.7622  137.6519  155.3074 C   0  0  0  0  0  0  0  0  0  0  0  0
  150.5815  137.2535  156.1832 C   0  0  0  0  0  0  0  0  0  0  0  0
  149.3957  137.3555  155.2228 C   0  0  0  0  0  0  0  0  0  0  0  0
  147.1593  136.1250  151.5761 H   0  0  0  0  0  0  0  0  0  0  0  0
  144.1929  136.0847  151.7892 H   0  0  0  0  0  0  0  0  0  0  0  0
  145.1201  135.3313  150.5002 H   0  0  0  0  0  0  0  0  0  0  0  0
  146.1813  134.2000  152.8641 H   0  0  0  0  0  0  0  0  0  0  0  0
  144.4579  134.2443  153.1751 H   0  0  0  0  0  0  0  0  0  0  0  0
  143.1889  132.0575  151.4593 H   0  0  0  0  0  0  0  0  0  0  0  0
  143.0585  133.7765  151.1067 H   0  0  0  0  0  0  0  0  0  0  0  0
  143.1316  131.8747  149.0863 H   0  0  0  0  0  0  0  0  0  0  0  0
  143.7356  133.5187  148.8918 H   0  0  0  0  0  0  0  0  0  0  0  0
  145.3484  131.0470  149.5839 H   0  0  0  0  0  0  0  0  0  0  0  0
  145.7153  132.2582  148.3520 H   0  0  0  0  0  0  0  0  0  0  0  0
  146.2516  133.9117  150.0260 H   0  0  0  0  0  0  0  0  0  0  0  0
  146.9388  132.4547  150.7474 H   0  0  0  0  0  0  0  0  0  0  0  0
  148.1414  137.6236  152.4001 H   0  0  0  0  0  0  0  0  0  0  0  0
  145.8948  140.5090  152.7932 H   0  0  0  0  0  0  0  0  0  0  0  0
  146.5577  142.5531  154.0191 H   0  0  0  0  0  0  0  0  0  0  0  0
  148.7621  142.5441  155.3225 H   0  0  0  0  0  0  0  0  0  0  0  0
  151.6695  138.7585  153.4355 H   0  0  0  0  0  0  0  0  0  0  0  0
  151.2546  139.7031  154.8610 H   0  0  0  0  0  0  0  0  0  0  0  0
  152.0879  136.7963  154.7137 H   0  0  0  0  0  0  0  0  0  0  0  0
  152.6174  138.0136  155.8792 H   0  0  0  0  0  0  0  0  0  0  0  0
  150.6889  136.2613  156.6222 H   0  0  0  0  0  0  0  0  0  0  0  0
  150.4645  137.9727  156.9952 H   0  0  0  0  0  0  0  0  0  0  0  0
  148.4706  137.5894  155.7519 H   0  0  0  0  0  0  0  0  0  0  0  0
  149.2454  136.4054  154.7093 H   0  0  0  0  0  0  0  0  0  0  0  0
  145.1783  132.2404  152.1247 H   0  0  0  0  0  0  0  0  0  0  0  0
  150.0537  140.6300  155.3093 H   0  0  0  0  0  0  0  0  0  0  0  0
  1  2  2  0  0  0  0
  2  3  1  0  0  0  0
  2 11  1  0  0  0  0
  3  4  1  0  0  0  0
  3 23  1  0  0  0  0
  4  5  1  0  0  0  0
  4 24  1  0  0  0  0
  4 25  1  0  0  0  0
  5  6  1  0  0  0  0
  5 26  1  0  0  0  0
  5 27  1  0  0  0  0
  6 10  1  0  0  0  0
  6  7  1  0  0  0  0
  6 48  1  0  0  0  0
  7  8  1  0  0  0  0
  7 28  1  0  0  0  0
  7 29  1  0  0  0  0
  8  9  1  0  0  0  0
  8 30  1  0  0  0  0
  8 31  1  0  0  0  0
  9 10  1  0  0  0  0
  9 32  1  0  0  0  0
  9 33  1  0  0  0  0
 10 34  1  0  0  0  0
 10 35  1  0  0  0  0
 11 12  1  0  0  0  0
 11 36  1  0  0  0  0
 12 17  1  0  0  0  0
 12 13  2  0  0  0  0
 13 14  1  0  0  0  0
 13 37  1  0  0  0  0
 14 15  2  0  0  0  0
 14 38  1  0  0  0  0
 15 16  1  0  0  0  0
 15 39  1  0  0  0  0
 16 17  2  0  0  0  0
 16 49  1  0  0  0  0
 17 18  1  0  0  0  0
 18 22  1  0  0  0  0
 18 19  1  0  0  0  0
 19 20  1  0  0  0  0
 19 40  1  0  0  0  0
 19 41  1  0  0  0  0
 20 21  1  0  0  0  0
 20 42  1  0  0  0  0
 20 43  1  0  0  0  0
 21 22  1  0  0  0  0
 21 44  1  0  0  0  0
 21 45  1  0  0  0  0
 22 46  1  0  0  0  0
 22 47  1  0  0  0  0
M  CHG  1   6   1
M  CHG  1  16   1
M  END
> <s_m_source_file>
AV-unprocessed.smi

> <i_m_source_file_index>
1082

> <i_lp_mmshare_version>
43012

> <i_f3d_flags>
0

> <s_epik_input>
W0NIMl0xW0NIMl1bQ0gyXVtDSDJdTjFbQ0gyXVtDSDJdW05IXUMoPU8pW05IXWMyW2NIXVtjSF1bY0hdbmMyTjNbQ0gyXVtDSDJdW0NIMl1bQ0gyXTM=

> <s_epik_cmdline>
J2VwaWtfcHl0aG9uJywgJy1waCcsICc3LjAnLCAnLXRuJywgJzgnLCAnLW1hJywgJzIwMCcsICctbWV0YWxfYmluZGluZycsICctaW1hZScsICc8aW5maWxlLm1hZT4nLCAnLW9tYWUnLCAnPG91dGZpbGUubWFlPic=

> <r_lp_tautomer_probability>
0.999994

> <r_epik_Ionization_Penalty>
1.21588

> <r_epik_Ionization_Penalty_Charging>
1.21586

> <r_epik_Ionization_Penalty_Neutral>
1.99004e-05

> <r_epik_State_Penalty>
1.28011

> <r_epik_Charging_Adjusted_Penalty>
2.49596

> <i_epik_Tot_Q>
2

> <i_epik_Tot_abs_Q>
2

> <r_epik_Metal_State_Penalty>
1.35385

> <b_epik_Metal_Only>
0

> <s_lp_Force_Field>
OPLS_2005

> <r_lp_Energy>
65.6653

> <b_lp_Chiralities_Consistent>
1

> <s_lp_Variant>
AV-unprocessed.smi:1082-2

> <Gold.Version>
5.8.1

> <Gold.Id.Protein>
6NUR|6NUR_protein|mol2

> <Gold.PLP.Fitness>
40.8819

> <Gold.PLP.PLP>
-37.6117

> <Gold.PLP.part.hbond>
-2.2909

> <Gold.PLP.part.metal>
0.0000

> <Gold.PLP.part.buried>
-3.1590

> <Gold.PLP.part.nonpolar>
-34.2065

> <Gold.PLP.part.repulsive>
2.0544

> <Gold.PLP.ligand.clash>
0.0000

> <Gold.PLP.ligand.torsion>
1.3611

> <Gold.PLP.Chemscore.Hbond>
1.9600

> <Gold.PLP.Chemscore.CHOScore>
0.0000

> <Gold.PLP.Chemscore.Metal>
0.0000

> <Gold.Chemscore.Hbonds>
donor molecule, donor type, donor heavy atom, donor atom, acceptor molecule, acceptor atom, score
      L1  H     3    23       P1  7948  0.96
      L1  H    11    36       P1  7948  1.00

> <Gold.PLP.Chemscore.Internal.Correction>
0.1124

> <Gold.Rescore>
     Score         DG    S(hbond)    S(metal)    S(lipo)     H(rot)  DE(clash)    DE(int)     intcor
     16.65     -19.01       1.86        0.00      98.25       1.63       0.27       2.09       ----

> <Gold.Chemscore.Fitness>
16.6480

> <Gold.Chemscore.DG>
-19.0103

> <Gold.Chemscore.ZeroCoef>
-5.4800

> <Gold.Chemscore.Hbond>
1.8603

> <Gold.Chemscore.Metal>
0.0000

> <Gold.Chemscore.Lipo>
98.2525

> <Gold.Chemscore.Internal_Hbond>
0.0000

> <Gold.Chemscore.DEClash>
0.2738

> <Gold.Chemscore.DEInternal>
2.0884

> <Gold.Chemscore.Rot>
1.6323

> <Gold.Chemscore.Internal.Correction>
   9.000000E+99

> <Gold.Chemscore.Hbonds>
donor molecule, donor type, donor heavy atom, donor atom, acceptor molecule, acceptor atom, score
      L1  H     3    23       P1  7948  0.92
      L1  H    11    36       P1  7948  0.98

> <Gold.Chemscore.Hbond.Weighted>
-6.2133

> <Gold.Chemscore.Metal.Weighted>
-0.0000

> <Gold.Chemscore.Lipo.Weighted>
-11.4955

> <Gold.Chemscore.Internal_Hbond.Weighted>
0.0000

> <Gold.Chemscore.DEClash.Weighted>
0.2738

> <Gold.Chemscore.DEInternal.Weighted>
2.0884

> <Gold.Chemscore.Rot.Weighted>
4.1786

> <Gold.Chemscore.Internal.Correction.Weighted>
   9.000000E+99

> <Gold.Protein.RotatedTorsions>
[ 6907 6896 6895 6894 ] final  -36.46 input  -60.11 | X-H torsion
[ 7974 7965 7964 7962 ] final  103.19 input  175.53 | X-H torsion
[ 8008 7997 7996 7995 ] final  139.00 input   59.86 | X-H torsion
[ 10167 10162 10161 10158 ] final    4.99 input  -65.29 | X-H torsion
[ 10718 10713 10712 10709 ] final -136.16 input   66.30 | X-H torsion
[ 10763 10752 10751 10750 ] final -155.16 input  -60.55 | X-H torsion
[ 11005 11000 10999 10996 ] final    2.01 input  -57.11 | X-H torsion

> <Gold.Protein.ActiveResidues>
 VAL166  LYS551  ARG553  GLY616  TRP617  ASP618  TYR619  PRO620  LYS621  CYS622 
 ASP623  PHE694  ASN695  SER759  ASP760  ASP761  ALA762  ILE779  LEU786  VAL792 
 PHE793  MET794  SER795  GLU796  ALA797  LYS798  CYS799  TRP800  GLU811  SER814 

> <Gold.Protein.RotatedAtoms>
  151.0269  134.9511  159.8089 H   0  0  0  0  0  0  0  0  0  0  0  0  # atno 6907 bound_to 6896
  152.5337  134.2830  159.9024 H   0  0  0  0  0  0  0  0  0  0  0  0  # atno 6908 bound_to 6896
  151.2839  133.4154  159.2662 H   0  0  0  0  0  0  0  0  0  0  0  0  # atno 6909 bound_to 6896
  145.3492  139.2443  143.3567 H   0  0  0  0  0  0  0  0  0  0  0  0  # atno 7974 bound_to 7965
  156.2993  140.2379  156.4166 H   0  0  0  0  0  0  0  0  0  0  0  0  # atno 8008 bound_to 7997
  154.8393  140.0429  157.1550 H   0  0  0  0  0  0  0  0  0  0  0  0  # atno 8009 bound_to 7997
  154.9121  140.2992  155.5264 H   0  0  0  0  0  0  0  0  0  0  0  0  # atno 8010 bound_to 7997
  140.6506  143.7555  150.7568 H   0  0  0  0  0  0  0  0  0  0  0  0  # atno 10167 bound_to 10162
  156.2740  130.7282  151.1258 H   0  0  0  0  0  0  0  0  0  0  0  0  # atno 10718 bound_to 10713
  154.7807  135.3174  154.7995 H   0  0  0  0  0  0  0  0  0  0  0  0  # atno 10763 bound_to 10752
  153.8708  135.6844  153.4779 H   0  0  0  0  0  0  0  0  0  0  0  0  # atno 10764 bound_to 10752
  153.1443  135.4726  154.9480 H   0  0  0  0  0  0  0  0  0  0  0  0  # atno 10765 bound_to 10752
  140.6090  133.9766  155.8168 H   0  0  0  0  0  0  0  0  0  0  0  0  # atno 11005 bound_to 11000
  146.2975  140.4104  142.8716 LP  0  0  0  0  0  0  0  0  0  0  0  0  # atno 17320 bound_to 7965
  144.8731  140.7299  143.6034 LP  0  0  0  0  0  0  0  0  0  0  0  0  # atno 17321 bound_to 7965
  140.1205  143.4617  152.2316 LP  0  0  0  0  0  0  0  0  0  0  0  0  # atno 17342 bound_to 10162
  139.5720  144.7468  151.3864 LP  0  0  0  0  0  0  0  0  0  0  0  0  # atno 17343 bound_to 10162
  157.7293  131.0625  150.5780 LP  0  0  0  0  0  0  0  0  0  0  0  0  # atno 17370 bound_to 10713
  156.5879  130.4321  149.5949 LP  0  0  0  0  0  0  0  0  0  0  0  0  # atno 17371 bound_to 10713
  141.0821  134.0047  157.3370 LP  0  0  0  0  0  0  0  0  0  0  0  0  # atno 17394 bound_to 11000
  139.9200  135.0200  156.8028 LP  0  0  0  0  0  0  0  0  0  0  0  0  # atno 17395 bound_to 11000

$$$$
