AV-unprocessed.smi:1686|AV-procd|sdf|6763|dock4
  -GOLD-   22720 7523D 1   1.00000     0.00000
 Structure written by MMmdl.
 41 43  0  0  0  0  0  0  0  0  1 V2000
  149.5889  138.5799  158.1402 C   0  0  0  0  0  0  0  0  0  0  0  0
  150.8651  137.9152  158.5700 C   0  0  0  0  0  0  0  0  0  0  0  0
  150.9322  137.3688  159.7770 N   0  0  0  0  0  0  0  0  0  0  0  0
  152.2167  136.8253  159.8930 O   0  0  0  0  0  0  0  0  0  0  0  0
  152.8609  137.0801  158.7312 C   0  0  0  0  0  0  0  0  0  0  0  0
  154.4787  136.5731  158.4453 Cl  0  0  0  0  0  0  0  0  0  0  0  0
  152.0834  137.7664  157.8437 C   0  0  0  0  0  0  0  0  0  0  0  0
  152.4160  138.2416  156.4495 C   0  0  0  0  0  0  0  0  0  0  0  0
  151.7750  139.6004  156.1418 C   0  0  0  0  0  0  0  0  0  0  0  0
  151.2909  139.8438  155.0352 O   0  0  0  0  0  0  0  0  0  0  0  0
  151.7853  140.4864  157.1493 N   0  0  0  0  0  0  0  0  0  0  0  0
  151.2577  141.8481  157.0916 C   0  0  1  0  0  0  0  0  0  0  0  0
  149.8511  141.8169  156.4664 C   0  0  0  0  0  0  0  0  0  0  0  0
  151.2558  142.4716  158.5089 C   0  0  2  0  0  0  0  0  0  0  0  0
  150.7508  143.9352  158.5432 C   0  0  0  0  0  0  0  0  0  0  0  0
  151.8855  144.6865  159.2615 C   0  0  1  0  0  0  0  0  0  0  0  0
  151.9239  144.2687  160.7426 C   0  0  0  0  0  0  0  0  0  0  0  0
  152.4868  142.8369  160.6740 C   0  0  0  0  0  0  0  0  0  0  0  0
  152.6574  142.6103  159.1595 C   0  0  2  0  0  0  0  0  0  0  0  0
  153.1166  143.9897  158.6987 C   0  0  0  0  0  0  0  0  0  0  0  0
  149.6568  138.9557  157.1196 H   0  0  0  0  0  0  0  0  0  0  0  0
  149.3489  139.4234  158.7878 H   0  0  0  0  0  0  0  0  0  0  0  0
  148.7521  137.8819  158.1774 H   0  0  0  0  0  0  0  0  0  0  0  0
  153.4944  138.3264  156.3136 H   0  0  0  0  0  0  0  0  0  0  0  0
  152.0748  137.5271  155.6999 H   0  0  0  0  0  0  0  0  0  0  0  0
  152.2037  140.2011  158.0228 H   0  0  0  0  0  0  0  0  0  0  0  0
  151.9060  142.4502  156.4524 H   0  0  0  0  0  0  0  0  0  0  0  0
  149.4334  142.8182  156.3651 H   0  0  0  0  0  0  0  0  0  0  0  0
  149.1610  141.2296  157.0731 H   0  0  0  0  0  0  0  0  0  0  0  0
  149.8729  141.3761  155.4692 H   0  0  0  0  0  0  0  0  0  0  0  0
  150.6239  141.8513  159.1471 H   0  0  0  0  0  0  0  0  0  0  0  0
  150.6239  144.3393  157.5381 H   0  0  0  0  0  0  0  0  0  0  0  0
  149.7952  144.0324  159.0599 H   0  0  0  0  0  0  0  0  0  0  0  0
  151.8584  145.7661  159.1112 H   0  0  0  0  0  0  0  0  0  0  0  0
  152.5898  144.9159  161.3146 H   0  0  0  0  0  0  0  0  0  0  0  0
  150.9379  144.3068  161.2069 H   0  0  0  0  0  0  0  0  0  0  0  0
  153.4498  142.7811  161.1831 H   0  0  0  0  0  0  0  0  0  0  0  0
  151.8244  142.1046  161.1367 H   0  0  0  0  0  0  0  0  0  0  0  0
  153.3503  141.8007  158.9303 H   0  0  0  0  0  0  0  0  0  0  0  0
  153.2100  144.0803  157.6153 H   0  0  0  0  0  0  0  0  0  0  0  0
  154.0488  144.3141  159.1650 H   0  0  0  0  0  0  0  0  0  0  0  0
  1  2  1  0  0  0  0
  1 21  1  0  0  0  0
  1 22  1  0  0  0  0
  1 23  1  0  0  0  0
  2  7  1  0  0  0  0
  2  3  2  0  0  0  0
  3  4  1  0  0  0  0
  4  5  1  0  0  0  0
  5  6  1  0  0  0  0
  5  7  2  0  0  0  0
  7  8  1  0  0  0  0
  8  9  1  0  0  0  0
  8 24  1  0  0  0  0
  8 25  1  0  0  0  0
  9 10  2  0  0  0  0
  9 11  1  0  0  0  0
 11 12  1  0  0  0  0
 11 26  1  0  0  0  0
 12 13  1  0  0  0  0
 12 14  1  0  0  0  0
 12 27  1  0  0  0  0
 13 28  1  0  0  0  0
 13 29  1  0  0  0  0
 13 30  1  0  0  0  0
 14 19  1  0  0  0  0
 14 15  1  0  0  0  0
 14 31  1  0  0  0  0
 15 16  1  0  0  0  0
 15 32  1  0  0  0  0
 15 33  1  0  0  0  0
 16 20  1  0  0  0  0
 16 17  1  0  0  0  0
 16 34  1  0  0  0  0
 17 18  1  0  0  0  0
 17 35  1  0  0  0  0
 17 36  1  0  0  0  0
 18 19  1  0  0  0  0
 18 37  1  0  0  0  0
 18 38  1  0  0  0  0
 19 20  1  0  0  0  0
 19 39  1  0  0  0  0
 20 40  1  0  0  0  0
 20 41  1  0  0  0  0
M  END
> <s_m_source_file>
AV-unprocessed.smi

> <i_m_source_file_index>
1686

> <i_lp_mmshare_version>
43012

> <i_f3d_flags>
0

> <s_epik_input>
W0NIM11jMW5vYyhDbCljMVtDSDJdQyg9TylbTkhdW0NASF0oW0NIM10pW0NASF0oW0NIMl1bQ0BIXTIzKVtDQEhdKFtDSDJdMylbQ0gyXVtDSDJdMg==

> <s_epik_cmdline>
J2VwaWtfcHl0aG9uJywgJy1waCcsICc3LjAnLCAnLXRuJywgJzgnLCAnLW1hJywgJzIwMCcsICctbWV0YWxfYmluZGluZycsICctaW1hZScsICc8aW5maWxlLm1hZT4nLCAnLW9tYWUnLCAnPG91dGZpbGUubWFlPic=

> <r_lp_tautomer_probability>
1

> <r_epik_Ionization_Penalty>
2.01576e-08

> <r_epik_Ionization_Penalty_Charging>
0

> <r_epik_Ionization_Penalty_Neutral>
2.01576e-08

> <r_epik_State_Penalty>
-0

> <r_epik_Charging_Adjusted_Penalty>
0

> <i_epik_Tot_Q>
0

> <i_epik_Tot_abs_Q>
0

> <r_epik_Metal_State_Penalty>
-0

> <b_epik_Metal_Only>
0

> <s_lp_Force_Field>
OPLS_2005

> <r_lp_Energy>
46.9039

> <b_lp_Chiralities_Consistent>
1

> <s_lp_Variant>
AV-unprocessed.smi:1686-6

> <Gold.Version>
5.8.1

> <Gold.Id.Protein>
6NUR|6NUR_protein|mol2

> <Gold.PLP.Fitness>
44.5675

> <Gold.PLP.PLP>
-40.0163

> <Gold.PLP.part.hbond>
-2.3353

> <Gold.PLP.part.metal>
0.0000

> <Gold.PLP.part.buried>
-6.7887

> <Gold.PLP.part.nonpolar>
-31.3080

> <Gold.PLP.part.repulsive>
0.1508

> <Gold.PLP.ligand.clash>
0.0000

> <Gold.PLP.ligand.torsion>
0.7253

> <Gold.PLP.Chemscore.Hbond>
1.9920

> <Gold.PLP.Chemscore.CHOScore>
0.0000

> <Gold.PLP.Chemscore.Metal>
0.0000

> <Gold.Chemscore.Hbonds>
donor molecule, donor type, donor heavy atom, donor atom, acceptor molecule, acceptor atom, score
      P1  H  6896  6909       L1     4  0.82
      P1  H  7989  7998       L1    10  1.00

> <Gold.PLP.Chemscore.Internal.Correction>
0.0258

> <Gold.Rescore>
     Score         DG    S(hbond)    S(metal)    S(lipo)     H(rot)  DE(clash)    DE(int)     intcor
     19.26     -21.02       1.68        0.00     117.01       1.46       0.04       1.72       ----

> <Gold.Chemscore.Fitness>
19.2558

> <Gold.Chemscore.DG>
-21.0219

> <Gold.Chemscore.ZeroCoef>
-5.4800

> <Gold.Chemscore.Hbond>
1.6773

> <Gold.Chemscore.Metal>
0.0000

> <Gold.Chemscore.Lipo>
117.0051

> <Gold.Chemscore.Internal_Hbond>
0.0000

> <Gold.Chemscore.DEClash>
0.0429

> <Gold.Chemscore.DEInternal>
1.7232

> <Gold.Chemscore.Rot>
1.4648

> <Gold.Chemscore.Internal.Correction>
   9.000000E+99

> <Gold.Chemscore.Hbonds>
donor molecule, donor type, donor heavy atom, donor atom, acceptor molecule, acceptor atom, score
      P1  H  6896  6909       L1     4  0.36
      P1  H  7989  7998       L1    10  1.00

> <Gold.Chemscore.Hbond.Weighted>
-5.6023

> <Gold.Chemscore.Metal.Weighted>
-0.0000

> <Gold.Chemscore.Lipo.Weighted>
-13.6896

> <Gold.Chemscore.Internal_Hbond.Weighted>
0.0000

> <Gold.Chemscore.DEClash.Weighted>
0.0429

> <Gold.Chemscore.DEInternal.Weighted>
1.7232

> <Gold.Chemscore.Rot.Weighted>
3.7500

> <Gold.Chemscore.Internal.Correction.Weighted>
   9.000000E+99

> <Gold.Protein.RotatedTorsions>
[ 6907 6896 6895 6894 ] final  160.16 input  -60.11 | X-H torsion
[ 7974 7965 7964 7962 ] final  161.71 input  175.53 | X-H torsion
[ 8008 7997 7996 7995 ] final  167.76 input   59.86 | X-H torsion
[ 10167 10162 10161 10158 ] final   96.11 input  -65.29 | X-H torsion
[ 10718 10713 10712 10709 ] final  -56.05 input   66.30 | X-H torsion
[ 10763 10752 10751 10750 ] final  -39.05 input  -60.55 | X-H torsion
[ 11005 11000 10999 10996 ] final -112.65 input  -57.11 | X-H torsion

> <Gold.Protein.ActiveResidues>
 VAL166  LYS551  ARG553  GLY616  TRP617  ASP618  TYR619  PRO620  LYS621  CYS622 
 ASP623  PHE694  ASN695  SER759  ASP760  ASP761  ALA762  ILE779  LEU786  VAL792 
 PHE793  MET794  SER795  GLU796  ALA797  LYS798  CYS799  TRP800  GLU811  SER814 

> <Gold.Protein.RotatedAtoms>
  151.9747  133.3737  159.4084 H   0  0  0  0  0  0  0  0  0  0  0  0  # atno 6907 bound_to 6896
  150.6943  134.4102  159.5167 H   0  0  0  0  0  0  0  0  0  0  0  0  # atno 6908 bound_to 6896
  152.1812  134.8752  160.0577 H   0  0  0  0  0  0  0  0  0  0  0  0  # atno 6909 bound_to 6896
  144.7672  139.7937  143.6311 H   0  0  0  0  0  0  0  0  0  0  0  0  # atno 7974 bound_to 7965
  156.1606  140.1608  156.8619 H   0  0  0  0  0  0  0  0  0  0  0  0  # atno 8008 bound_to 7997
  154.5157  140.0790  156.8111 H   0  0  0  0  0  0  0  0  0  0  0  0  # atno 8009 bound_to 7997
  155.3716  140.3400  155.4246 H   0  0  0  0  0  0  0  0  0  0  0  0  # atno 8010 bound_to 7997
  139.7925  144.6846  150.9873 H   0  0  0  0  0  0  0  0  0  0  0  0  # atno 10167 bound_to 10162
  156.1319  130.4159  150.0253 H   0  0  0  0  0  0  0  0  0  0  0  0  # atno 10718 bound_to 10713
  153.9229  135.6780  153.4747 H   0  0  0  0  0  0  0  0  0  0  0  0  # atno 10763 bound_to 10752
  153.1019  135.4824  154.8879 H   0  0  0  0  0  0  0  0  0  0  0  0  # atno 10764 bound_to 10752
  154.7468  135.3174  154.8586 H   0  0  0  0  0  0  0  0  0  0  0  0  # atno 10765 bound_to 10752
  141.0662  133.9454  157.2573 H   0  0  0  0  0  0  0  0  0  0  0  0  # atno 11005 bound_to 11000
  146.1789  139.4973  142.9879 LP  0  0  0  0  0  0  0  0  0  0  0  0  # atno 17320 bound_to 7965
  145.6434  141.0279  143.1799 LP  0  0  0  0  0  0  0  0  0  0  0  0  # atno 17321 bound_to 7965
  140.7820  143.4365  151.0615 LP  0  0  0  0  0  0  0  0  0  0  0  0  # atno 17342 bound_to 10162
  139.8041  143.8042  152.3166 LP  0  0  0  0  0  0  0  0  0  0  0  0  # atno 17343 bound_to 10162
  156.8163  130.9342  151.3642 LP  0  0  0  0  0  0  0  0  0  0  0  0  # atno 17370 bound_to 10713
  157.6496  130.8873  149.9607 LP  0  0  0  0  0  0  0  0  0  0  0  0  # atno 17371 bound_to 10713
  139.9479  135.0181  156.8907 LP  0  0  0  0  0  0  0  0  0  0  0  0  # atno 17394 bound_to 11000
  140.5768  134.0391  155.7449 LP  0  0  0  0  0  0  0  0  0  0  0  0  # atno 17395 bound_to 11000

$$$$
