AV-unprocessed.smi:246|AV-procd|sdf|1880|dock3
  -GOLD-   2262020523D 1   1.00000     0.00000
 Structure written by MMmdl.
 57 60  0  0  0  0  0  0  0  0  1 V2000
  151.4380  144.9263  158.4689 C   0  0  0  0  0  0  0  0  0  0  0  0
  152.2913  144.5582  159.6903 C   0  0  0  0  0  0  0  0  0  0  0  0
  153.2790  143.5876  159.3728 O   0  0  0  0  0  0  0  0  0  0  0  0
  152.8925  142.2475  159.6416 C   0  0  0  0  0  0  0  0  0  0  0  0
  151.6922  141.8956  158.7584 C   0  0  0  0  0  0  0  0  0  0  0  0
  151.7796  140.5303  158.3784 O   0  0  0  0  0  0  0  0  0  0  0  0
  152.0277  140.3386  156.9932 C   0  0  1  0  0  0  0  0  0  0  0  0
  151.8790  138.8825  156.5566 C   0  0  0  0  0  0  0  0  0  0  0  0
  151.5578  139.0146  155.0702 C   0  0  0  0  0  0  0  0  0  0  0  0
  150.8164  140.2646  154.9232 N   0  0  0  0  0  0  0  0  0  0  0  0
  149.5336  140.1718  154.5042 C   0  0  0  0  0  0  0  0  0  0  0  0
  148.9294  141.2316  153.9036 N   0  0  0  0  0  0  0  0  0  0  0  0
  147.6687  141.1256  153.4725 C   0  0  0  0  0  0  0  0  0  0  0  0
  146.8484  140.0745  153.5409 N   0  0  0  0  0  0  0  0  0  0  0  0
  147.4556  139.0098  154.1400 C   0  0  0  0  0  0  0  0  0  0  0  0
  148.7870  138.9723  154.6402 C   0  0  0  0  0  0  0  0  0  0  0  0
  149.0613  137.7200  155.1745 N   0  0  0  0  0  0  0  0  0  0  0  0
  147.9502  137.0553  155.0073 C   0  0  0  0  0  0  0  0  0  0  0  0
  146.9279  137.7592  154.4102 N   0  0  0  0  0  0  0  0  0  0  0  0
  145.5964  137.2660  154.1045 C   0  0  0  0  0  0  0  0  0  0  0  0
  145.3809  136.9310  152.6104 C   0  0  2  0  0  0  0  0  0  0  0  0
  144.2025  137.6159  152.2360 O   0  0  0  0  0  0  0  0  0  0  0  0
  145.1597  135.4340  152.2895 C   0  0  2  0  0  0  0  0  0  0  0  0
  144.9669  135.0819  150.8097 C   0  0  0  0  0  0  0  0  0  0  0  0
  144.0806  133.8453  150.8232 C   0  0  0  0  0  0  0  0  0  0  0  0
  143.6144  133.7430  152.2740 C   0  0  0  0  0  0  0  0  0  0  0  0
  143.9124  135.0152  152.8262 O   0  0  0  0  0  0  0  0  0  0  0  0
  150.9657  141.0478  156.1475 C   0  0  0  0  0  0  0  0  0  0  0  0
  153.0139  140.7155  156.7151 H   0  0  0  0  0  0  0  0  0  0  0  0
  150.6277  145.5971  158.7548 H   0  0  0  0  0  0  0  0  0  0  0  0
  150.9916  144.0376  158.0224 H   0  0  0  0  0  0  0  0  0  0  0  0
  152.0229  145.4318  157.7010 H   0  0  0  0  0  0  0  0  0  0  0  0
  152.7439  145.4449  160.1363 H   0  0  0  0  0  0  0  0  0  0  0  0
  151.6431  144.1261  160.4532 H   0  0  0  0  0  0  0  0  0  0  0  0
  153.7091  141.5469  159.4664 H   0  0  0  0  0  0  0  0  0  0  0  0
  152.6051  142.1618  160.6905 H   0  0  0  0  0  0  0  0  0  0  0  0
  150.7683  142.0504  159.3175 H   0  0  0  0  0  0  0  0  0  0  0  0
  151.6632  142.5545  157.8900 H   0  0  0  0  0  0  0  0  0  0  0  0
  152.7685  138.2808  156.7443 H   0  0  0  0  0  0  0  0  0  0  0  0
  151.0379  138.4208  157.0757 H   0  0  0  0  0  0  0  0  0  0  0  0
  152.4800  139.1039  154.4954 H   0  0  0  0  0  0  0  0  0  0  0  0
  151.0266  138.1405  154.6909 H   0  0  0  0  0  0  0  0  0  0  0  0
  147.2589  142.0095  153.0064 H   0  0  0  0  0  0  0  0  0  0  0  0
  147.8426  136.0280  155.3243 H   0  0  0  0  0  0  0  0  0  0  0  0
  145.3857  136.3928  154.7231 H   0  0  0  0  0  0  0  0  0  0  0  0
  144.8934  138.0399  154.4164 H   0  0  0  0  0  0  0  0  0  0  0  0
  146.2060  137.3253  152.0165 H   0  0  0  0  0  0  0  0  0  0  0  0
  144.2347  137.7836  151.3065 H   0  0  0  0  0  0  0  0  0  0  0  0
  145.9613  134.8238  152.7111 H   0  0  0  0  0  0  0  0  0  0  0  0
  144.4474  135.8881  150.2906 H   0  0  0  0  0  0  0  0  0  0  0  0
  145.9115  134.9019  150.2976 H   0  0  0  0  0  0  0  0  0  0  0  0
  143.2372  133.9730  150.1437 H   0  0  0  0  0  0  0  0  0  0  0  0
  144.6235  132.9489  150.5214 H   0  0  0  0  0  0  0  0  0  0  0  0
  142.5533  133.5089  152.3608 H   0  0  0  0  0  0  0  0  0  0  0  0
  144.1793  132.9768  152.8072 H   0  0  0  0  0  0  0  0  0  0  0  0
  150.0209  141.0880  156.6934 H   0  0  0  0  0  0  0  0  0  0  0  0
  151.2573  142.0735  155.9207 H   0  0  0  0  0  0  0  0  0  0  0  0
  1  2  1  0  0  0  0
  1 30  1  0  0  0  0
  1 31  1  0  0  0  0
  1 32  1  0  0  0  0
  2  3  1  0  0  0  0
  2 33  1  0  0  0  0
  2 34  1  0  0  0  0
  3  4  1  0  0  0  0
  4  5  1  0  0  0  0
  4 35  1  0  0  0  0
  4 36  1  0  0  0  0
  5  6  1  0  0  0  0
  5 37  1  0  0  0  0
  5 38  1  0  0  0  0
  6  7  1  0  0  0  0
  7 29  1  0  0  0  0
  7 28  1  0  0  0  0
  7  8  1  0  0  0  0
  8  9  1  0  0  0  0
  8 39  1  0  0  0  0
  8 40  1  0  0  0  0
  9 10  1  0  0  0  0
  9 41  1  0  0  0  0
  9 42  1  0  0  0  0
 10 11  1  0  0  0  0
 10 28  1  0  0  0  0
 11 16  1  0  0  0  0
 11 12  2  0  0  0  0
 12 13  1  0  0  0  0
 13 14  2  0  0  0  0
 13 43  1  0  0  0  0
 14 15  1  0  0  0  0
 15 19  1  0  0  0  0
 15 16  2  0  0  0  0
 16 17  1  0  0  0  0
 17 18  2  0  0  0  0
 18 19  1  0  0  0  0
 18 44  1  0  0  0  0
 19 20  1  0  0  0  0
 20 21  1  0  0  0  0
 20 45  1  0  0  0  0
 20 46  1  0  0  0  0
 21 22  1  0  0  0  0
 21 23  1  0  0  0  0
 21 47  1  0  0  0  0
 22 48  1  0  0  0  0
 23 27  1  0  0  0  0
 23 24  1  0  0  0  0
 23 49  1  0  0  0  0
 24 25  1  0  0  0  0
 24 50  1  0  0  0  0
 24 51  1  0  0  0  0
 25 26  1  0  0  0  0
 25 52  1  0  0  0  0
 25 53  1  0  0  0  0
 26 27  1  0  0  0  0
 26 54  1  0  0  0  0
 26 55  1  0  0  0  0
 28 56  1  0  0  0  0
 28 57  1  0  0  0  0
M  END
> <s_m_source_file>
AV-unprocessed.smi

> <i_m_source_file_index>
246

> <i_lp_mmshare_version>
43012

> <i_f3d_flags>
0

> <s_epik_input>
W0NIM11bQ0gyXU9bQ0gyXVtDSDJdT1tDQEhdMVtDSDJdW0NIMl1OKFtDSDJdMSljKG5bY0hdbjIpYyhjMjMpbltjSF1uM1tDSDJdW0NASF0oW09IXSlbQ0BASF00W0NIMl1bQ0gyXVtDSDJdTzQ=

> <s_epik_cmdline>
J2VwaWtfcHl0aG9uJywgJy1waCcsICc3LjAnLCAnLXRuJywgJzgnLCAnLW1hJywgJzIwMCcsICctbWV0YWxfYmluZGluZycsICctaW1hZScsICc8aW5maWxlLm1hZT4nLCAnLW9tYWUnLCAnPG91dGZpbGUubWFlPic=

> <r_lp_tautomer_probability>
1

> <r_epik_Ionization_Penalty>
0.0024631

> <r_epik_Ionization_Penalty_Charging>
0

> <r_epik_Ionization_Penalty_Neutral>
0.0024631

> <r_epik_State_Penalty>
0.00162428

> <r_epik_Charging_Adjusted_Penalty>
0.00162428

> <i_epik_Tot_Q>
0

> <i_epik_Tot_abs_Q>
0

> <r_epik_Metal_State_Penalty>
-0

> <b_epik_Metal_Only>
0

> <s_lp_Force_Field>
OPLS_2005

> <r_lp_Energy>
54.9549

> <b_lp_Chiralities_Consistent>
1

> <s_lp_Variant>
AV-unprocessed.smi:246-1

> <Gold.Version>
5.8.1

> <Gold.Id.Protein>
6NUR|6NUR_protein|mol2

> <Gold.PLP.Fitness>
52.1087

> <Gold.PLP.PLP>
-48.7471

> <Gold.PLP.part.hbond>
-3.8752

> <Gold.PLP.part.metal>
0.0000

> <Gold.PLP.part.buried>
-7.4611

> <Gold.PLP.part.nonpolar>
-38.1028

> <Gold.PLP.part.repulsive>
0.6705

> <Gold.PLP.ligand.clash>
0.0000

> <Gold.PLP.ligand.torsion>
2.3218

> <Gold.PLP.Chemscore.Hbond>
2.3710

> <Gold.PLP.Chemscore.CHOScore>
0.0000

> <Gold.PLP.Chemscore.Metal>
0.0000

> <Gold.Chemscore.Hbonds>
donor molecule, donor type, donor heavy atom, donor atom, acceptor molecule, acceptor atom, score
      L1  H    22    48       P1 10171  1.00
      P1  H  7989  7998       L1    10  0.90
      P1  H  8011  8017       L1    12  0.58

> <Gold.PLP.Chemscore.Internal.Correction>
0.8922

> <Gold.Rescore>
     Score         DG    S(hbond)    S(metal)    S(lipo)     H(rot)  DE(clash)    DE(int)     intcor
      9.29     -13.55       1.20        0.00     108.64       3.37       0.51       3.75       ----

> <Gold.Chemscore.Fitness>
9.2902

> <Gold.Chemscore.DG>
-13.5478

> <Gold.Chemscore.ZeroCoef>
-5.4800

> <Gold.Chemscore.Hbond>
1.1959

> <Gold.Chemscore.Metal>
0.0000

> <Gold.Chemscore.Lipo>
108.6370

> <Gold.Chemscore.Internal_Hbond>
0.0000

> <Gold.Chemscore.DEClash>
0.5084

> <Gold.Chemscore.DEInternal>
3.7492

> <Gold.Chemscore.Rot>
3.3739

> <Gold.Chemscore.Internal.Correction>
   9.000000E+99

> <Gold.Chemscore.Hbonds>
donor molecule, donor type, donor heavy atom, donor atom, acceptor molecule, acceptor atom, score
      L1  H    22    48       P1 10171  0.99
      P1  H  7989  7998       L1    10  0.06
      P1  H  8011  8017       L1    12  0.17

> <Gold.Chemscore.Hbond.Weighted>
-3.9944

> <Gold.Chemscore.Metal.Weighted>
-0.0000

> <Gold.Chemscore.Lipo.Weighted>
-12.7105

> <Gold.Chemscore.Internal_Hbond.Weighted>
0.0000

> <Gold.Chemscore.DEClash.Weighted>
0.5084

> <Gold.Chemscore.DEInternal.Weighted>
3.7492

> <Gold.Chemscore.Rot.Weighted>
8.6371

> <Gold.Chemscore.Internal.Correction.Weighted>
   9.000000E+99

> <Gold.Protein.RotatedTorsions>
[ 6907 6896 6895 6894 ] final -121.19 input  -60.11 | X-H torsion
[ 7974 7965 7964 7962 ] final  126.26 input  175.53 | X-H torsion
[ 8008 7997 7996 7995 ] final   39.90 input   59.86 | X-H torsion
[ 10167 10162 10161 10158 ] final   -7.75 input  -65.29 | X-H torsion
[ 10718 10713 10712 10709 ] final -116.40 input   66.30 | X-H torsion
[ 10763 10752 10751 10750 ] final   16.73 input  -60.55 | X-H torsion
[ 11005 11000 10999 10996 ] final  146.52 input  -57.11 | X-H torsion

> <Gold.Protein.ActiveResidues>
 VAL166  LYS551  ARG553  GLY616  TRP617  ASP618  TYR619  PRO620  LYS621  CYS622 
 ASP623  PHE694  ASN695  SER759  ASP760  ASP761  ALA762  ILE779  LEU786  VAL792 
 PHE793  MET794  SER795  GLU796  ALA797  LYS798  CYS799  TRP800  GLU811  SER814 

> <Gold.Protein.RotatedAtoms>
  150.8460  133.7860  159.3042 H   0  0  0  0  0  0  0  0  0  0  0  0  # atno 6907 bound_to 6896
  151.5547  135.1065  159.9967 H   0  0  0  0  0  0  0  0  0  0  0  0  # atno 6908 bound_to 6896
  152.4514  133.7594  159.6794 H   0  0  0  0  0  0  0  0  0  0  0  0  # atno 6909 bound_to 6896
  145.0638  139.3784  143.4992 H   0  0  0  0  0  0  0  0  0  0  0  0  # atno 7974 bound_to 7965
  155.2443  140.3347  155.4289 H   0  0  0  0  0  0  0  0  0  0  0  0  # atno 8008 bound_to 7997
  156.2243  140.1822  156.7446 H   0  0  0  0  0  0  0  0  0  0  0  0  # atno 8009 bound_to 7997
  154.5873  140.0643  156.9175 H   0  0  0  0  0  0  0  0  0  0  0  0  # atno 8010 bound_to 7997
  140.7038  143.6045  150.8764 H   0  0  0  0  0  0  0  0  0  0  0  0  # atno 10167 bound_to 10162
  156.0961  130.6133  150.9030 H   0  0  0  0  0  0  0  0  0  0  0  0  # atno 10718 bound_to 10713
  153.1403  135.6758  153.9037 H   0  0  0  0  0  0  0  0  0  0  0  0  # atno 10763 bound_to 10752
  153.8496  135.3095  155.3433 H   0  0  0  0  0  0  0  0  0  0  0  0  # atno 10764 bound_to 10752
  154.7782  135.4903  153.9872 H   0  0  0  0  0  0  0  0  0  0  0  0  # atno 10765 bound_to 10752
  140.0800  134.9103  157.1484 H   0  0  0  0  0  0  0  0  0  0  0  0  # atno 11005 bound_to 11000
  146.3525  140.0349  142.8647 LP  0  0  0  0  0  0  0  0  0  0  0  0  # atno 17320 bound_to 7965
  145.1376  140.9553  143.4507 LP  0  0  0  0  0  0  0  0  0  0  0  0  # atno 17321 bound_to 7965
  139.9769  143.5994  152.2955 LP  0  0  0  0  0  0  0  0  0  0  0  0  # atno 17342 bound_to 10162
  139.6601  144.7662  151.1979 LP  0  0  0  0  0  0  0  0  0  0  0  0  # atno 17343 bound_to 10162
  157.6122  131.0935  150.8775 LP  0  0  0  0  0  0  0  0  0  0  0  0  # atno 17370 bound_to 10713
  156.8913  130.5214  149.5286 LP  0  0  0  0  0  0  0  0  0  0  0  0  # atno 17371 bound_to 10713
  140.3502  134.2607  155.7199 LP  0  0  0  0  0  0  0  0  0  0  0  0  # atno 17394 bound_to 11000
  141.2043  133.7890  157.0294 LP  0  0  0  0  0  0  0  0  0  0  0  0  # atno 17395 bound_to 11000

$$$$
