AV-unprocessed.smi:3221|AV-procd|sdf|12302|dock6
  -GOLD-   2272018143D 1   1.00000     0.00000
 Structure written by MMmdl.
 27 28  0  0  0  0  0  0  0  0  2 V2000
  154.3016  139.9801  162.8774 F   0  0  0  0  0  0  0  0  0  0  0  0
  154.6856  141.2490  162.7381 C   0  0  0  0  0  0  0  0  0  0  0  0
  154.7752  141.7783  163.9579 F   0  0  0  0  0  0  0  0  0  0  0  0
  155.9080  141.2431  162.2073 F   0  0  0  0  0  0  0  0  0  0  0  0
  153.7287  142.0254  161.8801 C   0  0  0  0  0  0  0  0  0  0  0  0
  152.9686  143.1077  162.2514 C   0  0  0  0  0  0  0  0  0  0  0  0
  151.9872  143.6986  160.9389 S   0  0  0  0  0  0  0  0  0  0  0  0
  152.6523  142.4335  159.9124 C   0  0  0  0  0  0  0  0  0  0  0  0
  152.2629  142.2507  158.4797 C   0  0  1  0  0  0  0  0  0  0  0  0
  151.8253  140.8076  158.1666 C   0  0  0  0  0  0  0  0  0  0  0  0
  151.4364  140.6740  156.6861 C   0  0  0  0  0  0  0  0  0  0  0  0
  150.3790  141.7214  156.2987 C   0  0  0  0  0  0  0  0  0  0  0  0
  150.8622  143.0871  156.5975 N   0  3  0  0  0  0  0  0  0  0  0  0
  151.2091  143.2799  158.0229 C   0  0  0  0  0  0  0  0  0  0  0  0
  153.5383  141.6576  160.5436 N   0  0  0  0  0  0  0  0  0  0  0  0
  152.9261  143.5910  163.2163 H   0  0  0  0  0  0  0  0  0  0  0  0
  153.1637  142.4407  157.8941 H   0  0  0  0  0  0  0  0  0  0  0  0
  152.6268  140.1076  158.4056 H   0  0  0  0  0  0  0  0  0  0  0  0
  150.9741  140.5328  158.7911 H   0  0  0  0  0  0  0  0  0  0  0  0
  152.3220  140.7980  156.0612 H   0  0  0  0  0  0  0  0  0  0  0  0
  151.0578  139.6706  156.4892 H   0  0  0  0  0  0  0  0  0  0  0  0
  150.1473  141.6505  155.2357 H   0  0  0  0  0  0  0  0  0  0  0  0
  149.4497  141.5418  156.8411 H   0  0  0  0  0  0  0  0  0  0  0  0
  151.6852  143.2655  156.0397 H   0  0  0  0  0  0  0  0  0  0  0  0
  150.3010  143.1891  158.6210 H   0  0  0  0  0  0  0  0  0  0  0  0
  151.5819  144.2952  158.1611 H   0  0  0  0  0  0  0  0  0  0  0  0
  150.1458  143.7520  156.3424 H   0  0  0  0  0  0  0  0  0  0  0  0
  1  2  1  0  0  0  0
  2  3  1  0  0  0  0
  2  4  1  0  0  0  0
  2  5  1  0  0  0  0
  5 15  1  0  0  0  0
  5  6  2  0  0  0  0
  6  7  1  0  0  0  0
  6 16  1  0  0  0  0
  7  8  1  0  0  0  0
  8  9  1  0  0  0  0
  8 15  2  0  0  0  0
  9 14  1  0  0  0  0
  9 10  1  0  0  0  0
  9 17  1  0  0  0  0
 10 11  1  0  0  0  0
 10 18  1  0  0  0  0
 10 19  1  0  0  0  0
 11 12  1  0  0  0  0
 11 20  1  0  0  0  0
 11 21  1  0  0  0  0
 12 13  1  0  0  0  0
 12 22  1  0  0  0  0
 12 23  1  0  0  0  0
 13 14  1  0  0  0  0
 13 24  1  0  0  0  0
 13 27  1  0  0  0  0
 14 25  1  0  0  0  0
 14 26  1  0  0  0  0
M  CHG  1  13   1
M  END
> <s_m_source_file>
AV-unprocessed.smi

> <i_m_source_file_index>
3221

> <i_lp_mmshare_version>
43012

> <i_f3d_flags>
0

> <s_epik_input>
RkMoRikoRiljMVtjSF1zYyhuMSlbQ0BASF0yW0NIMl1bQ0gyXVtDSDJdW05IXVtDSDJdMg==

> <s_epik_cmdline>
J2VwaWtfcHl0aG9uJywgJy1waCcsICc3LjAnLCAnLXRuJywgJzgnLCAnLW1hJywgJzIwMCcsICctbWV0YWxfYmluZGluZycsICctaW1hZScsICc8aW5maWxlLm1hZT4nLCAnLW9tYWUnLCAnPG91dGZpbGUubWFlPic=

> <r_epik_Ionization_Penalty>
0.000426856

> <r_epik_Ionization_Penalty_Charging>
0.000426856

> <r_epik_Ionization_Penalty_Neutral>
2.38238e-11

> <r_epik_State_Penalty>
0.00026276

> <r_epik_Charging_Adjusted_Penalty>
0.000689616

> <i_epik_Tot_Q>
1

> <i_epik_Tot_abs_Q>
1

> <r_epik_Metal_State_Penalty>
-0

> <b_epik_Metal_Only>
0

> <s_lp_Force_Field>
OPLS_2005

> <r_lp_Energy>
6.82196

> <b_lp_Chiralities_Consistent>
1

> <s_lp_Variant>
AV-unprocessed.smi:3221-2

> <Gold.Version>
5.8.1

> <Gold.Id.Protein>
6NUR|6NUR_protein|mol2

> <Gold.PLP.Fitness>
38.2553

> <Gold.PLP.PLP>
-32.3637

> <Gold.PLP.part.hbond>
-1.0000

> <Gold.PLP.part.metal>
0.0000

> <Gold.PLP.part.buried>
-2.9589

> <Gold.PLP.part.nonpolar>
-27.6796

> <Gold.PLP.part.repulsive>
0.0902

> <Gold.PLP.ligand.clash>
0.0000

> <Gold.PLP.ligand.torsion>
0.0806

> <Gold.PLP.Chemscore.Hbond>
2.0000

> <Gold.PLP.Chemscore.CHOScore>
0.0000

> <Gold.PLP.Chemscore.Metal>
0.0000

> <Gold.Chemscore.Hbonds>
donor molecule, donor type, donor heavy atom, donor atom, acceptor molecule, acceptor atom, score
      L1  H    13    27       P1  8028  2.00

> <Gold.PLP.Chemscore.Internal.Correction>
0.0528

> <Gold.Rescore>
     Score         DG    S(hbond)    S(metal)    S(lipo)     H(rot)  DE(clash)    DE(int)     intcor
     15.86     -15.89       1.00        0.00      82.34       1.00       0.00       0.03       ----

> <Gold.Chemscore.Fitness>
15.8564

> <Gold.Chemscore.DG>
-15.8852

> <Gold.Chemscore.ZeroCoef>
-5.4800

> <Gold.Chemscore.Hbond>
0.9974

> <Gold.Chemscore.Metal>
0.0000

> <Gold.Chemscore.Lipo>
82.3414

> <Gold.Chemscore.Internal_Hbond>
0.0000

> <Gold.Chemscore.DEClash>
0.0000

> <Gold.Chemscore.DEInternal>
0.0288

> <Gold.Chemscore.Rot>
1.0000

> <Gold.Chemscore.Internal.Correction>
   9.000000E+99

> <Gold.Chemscore.Hbonds>
donor molecule, donor type, donor heavy atom, donor atom, acceptor molecule, acceptor atom, score
      L1  H    13    27       P1  8028  1.00

> <Gold.Chemscore.Hbond.Weighted>
-3.3313

> <Gold.Chemscore.Metal.Weighted>
-0.0000

> <Gold.Chemscore.Lipo.Weighted>
-9.6339

> <Gold.Chemscore.Internal_Hbond.Weighted>
0.0000

> <Gold.Chemscore.DEClash.Weighted>
0.0000

> <Gold.Chemscore.DEInternal.Weighted>
0.0288

> <Gold.Chemscore.Rot.Weighted>
2.5600

> <Gold.Chemscore.Internal.Correction.Weighted>
   9.000000E+99

> <Gold.Protein.RotatedTorsions>
[ 6907 6896 6895 6894 ] final -114.59 input  -60.11 | X-H torsion
[ 7974 7965 7964 7962 ] final  127.47 input  175.53 | X-H torsion
[ 8008 7997 7996 7995 ] final  -81.32 input   59.86 | X-H torsion
[ 10167 10162 10161 10158 ] final  157.20 input  -65.29 | X-H torsion
[ 10718 10713 10712 10709 ] final   22.64 input   66.30 | X-H torsion
[ 10763 10752 10751 10750 ] final  -90.89 input  -60.55 | X-H torsion
[ 11005 11000 10999 10996 ] final  157.48 input  -57.11 | X-H torsion

> <Gold.Protein.ActiveResidues>
 VAL166  LYS551  ARG553  GLY616  TRP617  ASP618  TYR619  PRO620  LYS621  CYS622 
 ASP623  PHE694  ASN695  SER759  ASP760  ASP761  ALA762  ILE779  LEU786  VAL792 
 PHE793  MET794  SER795  GLU796  ALA797  LYS798  CYS799  TRP800  GLU811  SER814 

> <Gold.Protein.RotatedAtoms>
  150.7914  133.8779  159.3277 H   0  0  0  0  0  0  0  0  0  0  0  0  # atno 6907 bound_to 6896
  151.6616  135.0986  160.0190 H   0  0  0  0  0  0  0  0  0  0  0  0  # atno 6908 bound_to 6896
  152.3988  133.6748  159.6334 H   0  0  0  0  0  0  0  0  0  0  0  0  # atno 6909 bound_to 6896
  145.0502  139.3889  143.5058 H   0  0  0  0  0  0  0  0  0  0  0  0  # atno 7974 bound_to 7965
  154.5971  140.0649  156.9319 H   0  0  0  0  0  0  0  0  0  0  0  0  # atno 8008 bound_to 7997
  155.2195  140.3329  155.4299 H   0  0  0  0  0  0  0  0  0  0  0  0  # atno 8009 bound_to 7997
  156.2294  140.1834  156.7264 H   0  0  0  0  0  0  0  0  0  0  0  0  # atno 8010 bound_to 7997
  139.4822  144.4939  151.8268 H   0  0  0  0  0  0  0  0  0  0  0  0  # atno 10167 bound_to 10162
  157.1551  130.6692  149.6025 H   0  0  0  0  0  0  0  0  0  0  0  0  # atno 10718 bound_to 10713
  154.6704  135.5288  153.8131 H   0  0  0  0  0  0  0  0  0  0  0  0  # atno 10763 bound_to 10752
  153.0498  135.6527  154.0734 H   0  0  0  0  0  0  0  0  0  0  0  0  # atno 10764 bound_to 10752
  154.0633  135.2960  155.3301 H   0  0  0  0  0  0  0  0  0  0  0  0  # atno 10765 bound_to 10752
  140.1774  134.8500  157.2762 H   0  0  0  0  0  0  0  0  0  0  0  0  # atno 11005 bound_to 11000
  146.3517  140.0148  142.8664 LP  0  0  0  0  0  0  0  0  0  0  0  0  # atno 17320 bound_to 7965
  145.1537  140.9636  143.4418 LP  0  0  0  0  0  0  0  0  0  0  0  0  # atno 17321 bound_to 7965
  140.4426  144.1965  150.5892 LP  0  0  0  0  0  0  0  0  0  0  0  0  # atno 17342 bound_to 10162
  140.4667  143.2428  151.9145 LP  0  0  0  0  0  0  0  0  0  0  0  0  # atno 17343 bound_to 10162
  155.9763  130.4731  150.6522 LP  0  0  0  0  0  0  0  0  0  0  0  0  # atno 17370 bound_to 10713
  157.4185  131.0833  151.1154 LP  0  0  0  0  0  0  0  0  0  0  0  0  # atno 17371 bound_to 10713
  140.2307  134.3913  155.7523 LP  0  0  0  0  0  0  0  0  0  0  0  0  # atno 17394 bound_to 11000
  141.2221  133.7213  156.8636 LP  0  0  0  0  0  0  0  0  0  0  0  0  # atno 17395 bound_to 11000

$$$$
