AV-unprocessed.smi:158|AV-procd|sdf|1326|dock7
  -GOLD-   2262019 23D 1   1.00000     0.00000
 Structure written by MMmdl.
 31 33  0  0  0  0  0  0  0  0  1 V2000
  152.1956  140.2467  159.3678 N   0  0  0  0  0  0  0  0  0  0  0  0
  151.8480  140.2616  158.0735 C   0  0  0  0  0  0  0  0  0  0  0  0
  152.7070  139.7363  157.1688 N   0  0  0  0  0  0  0  0  0  0  0  0
  152.3982  139.7309  155.8659 C   0  0  0  0  0  0  0  0  0  0  0  0
  153.5682  139.0390  154.8051 Cl  0  0  0  0  0  0  0  0  0  0  0  0
  151.2852  140.2033  155.2936 N   0  0  0  0  0  0  0  0  0  0  0  0
  150.4195  140.7353  156.2041 C   0  0  0  0  0  0  0  0  0  0  0  0
  150.6250  140.8021  157.6071 C   0  0  0  0  0  0  0  0  0  0  0  0
  149.5334  141.4058  158.2163 N   0  0  0  0  0  0  0  0  0  0  0  0
  148.7309  141.6792  157.2220 C   0  0  0  0  0  0  0  0  0  0  0  0
  149.1919  141.3151  155.9733 N   0  0  0  0  0  0  0  0  0  0  0  0
  148.5441  141.4731  154.6334 C   0  0  1  0  0  0  0  0  0  0  0  0
  148.4417  140.2053  154.0537 O   0  0  0  0  0  0  0  0  0  0  0  0
  147.0786  139.7911  153.9464 C   0  0  1  0  0  0  0  0  0  0  0  0
  146.9197  138.2903  154.2491 C   0  0  0  0  0  0  0  0  0  0  0  0
  146.9815  137.5465  153.0514 O   0  0  0  0  0  0  0  0  0  0  0  0
  146.2868  140.7413  154.8580 C   0  0  1  0  0  0  0  0  0  0  0  0
  146.1665  140.2656  156.1868 O   0  0  0  0  0  0  0  0  0  0  0  0
  147.1193  142.0088  154.8079 C   0  0  2  0  0  0  0  0  0  0  0  0
  146.7972  142.7258  153.7303 F   0  0  0  0  0  0  0  0  0  0  0  0
  149.2143  142.1323  154.0804 H   0  0  0  0  0  0  0  0  0  0  0  0
  146.7639  139.9927  152.9207 H   0  0  0  0  0  0  0  0  0  0  0  0
  145.2781  140.9080  154.4785 H   0  0  0  0  0  0  0  0  0  0  0  0
  147.0151  142.6584  155.6782 H   0  0  0  0  0  0  0  0  0  0  0  0
  151.5705  140.6339  160.0603 H   0  0  0  0  0  0  0  0  0  0  0  0
  153.0814  139.8516  159.6481 H   0  0  0  0  0  0  0  0  0  0  0  0
  147.7773  142.1597  157.3799 H   0  0  0  0  0  0  0  0  0  0  0  0
  147.6746  137.9385  154.9519 H   0  0  0  0  0  0  0  0  0  0  0  0
  145.9443  138.0988  154.6970 H   0  0  0  0  0  0  0  0  0  0  0  0
  147.7446  136.9900  153.0813 H   0  0  0  0  0  0  0  0  0  0  0  0
  145.6321  140.8716  156.6769 H   0  0  0  0  0  0  0  0  0  0  0  0
  1  2  1  0  0  0  0
  1 25  1  0  0  0  0
  1 26  1  0  0  0  0
  2  8  1  0  0  0  0
  2  3  2  0  0  0  0
  3  4  1  0  0  0  0
  4  5  1  0  0  0  0
  4  6  2  0  0  0  0
  6  7  1  0  0  0  0
  7 11  1  0  0  0  0
  7  8  2  0  0  0  0
  8  9  1  0  0  0  0
  9 10  2  0  0  0  0
 10 11  1  0  0  0  0
 10 27  1  0  0  0  0
 11 12  1  0  0  0  0
 12 21  1  0  0  0  0
 12 19  1  0  0  0  0
 12 13  1  0  0  0  0
 13 14  1  0  0  0  0
 14 22  1  0  0  0  0
 14 15  1  0  0  0  0
 14 17  1  0  0  0  0
 15 16  1  0  0  0  0
 15 28  1  0  0  0  0
 15 29  1  0  0  0  0
 16 30  1  0  0  0  0
 17 23  1  0  0  0  0
 17 18  1  0  0  0  0
 17 19  1  0  0  0  0
 18 31  1  0  0  0  0
 19 24  1  0  0  0  0
 19 20  1  0  0  0  0
M  END
> <s_m_source_file>
AV-unprocessed.smi

> <i_m_source_file_index>
158

> <i_lp_mmshare_version>
43012

> <i_f3d_flags>
0

> <s_epik_input>
Q2xjKG4xKW5jKFtOSDJdKWMoYzEyKW5bY0hdbjJbQ0BASF0zT1tDQEhdKFtDSDJdW09IXSlbQ0BASF0oW09IXSlbQ0BASF0zRg==

> <s_epik_cmdline>
J2VwaWtfcHl0aG9uJywgJy1waCcsICc3LjAnLCAnLXRuJywgJzgnLCAnLW1hJywgJzIwMCcsICctbWV0YWxfYmluZGluZycsICctaW1hZScsICc8aW5maWxlLm1hZT4nLCAnLW9tYWUnLCAnPG91dGZpbGUubWFlPic=

> <r_lp_tautomer_probability>
1

> <r_epik_Ionization_Penalty>
6.51543e-05

> <r_epik_Ionization_Penalty_Charging>
0

> <r_epik_Ionization_Penalty_Neutral>
6.51543e-05

> <r_epik_State_Penalty>
-0

> <r_epik_Charging_Adjusted_Penalty>
0

> <i_epik_Tot_Q>
0

> <i_epik_Tot_abs_Q>
0

> <r_epik_Metal_State_Penalty>
-0

> <b_epik_Metal_Only>
0

> <s_epik_Chemistry_Notes>
This compound contains an acetal/aminal-like group ( X-CH(R)-Y where X, Y are N, S, or O) that may be acid/base labile, releasing an aldehyde.

> <s_lp_Force_Field>
OPLS_2005

> <r_lp_Energy>
31.9678

> <b_lp_Chiralities_Consistent>
1

> <s_lp_Variant>
AV-unprocessed.smi:158-4

> <Gold.Version>
5.8.1

> <Gold.Id.Protein>
6NUR|6NUR_protein|mol2

> <Gold.PLP.Fitness>
37.1882

> <Gold.PLP.PLP>
-29.2310

> <Gold.PLP.part.hbond>
-3.0000

> <Gold.PLP.part.metal>
0.0000

> <Gold.PLP.part.buried>
-6.9366

> <Gold.PLP.part.nonpolar>
-20.0720

> <Gold.PLP.part.repulsive>
1.0402

> <Gold.PLP.ligand.clash>
0.0000

> <Gold.PLP.ligand.torsion>
0.4922

> <Gold.PLP.Chemscore.Hbond>
2.9760

> <Gold.PLP.Chemscore.CHOScore>
0.0000

> <Gold.PLP.Chemscore.Metal>
0.0000

> <Gold.Chemscore.Hbonds>
donor molecule, donor type, donor heavy atom, donor atom, acceptor molecule, acceptor atom, score
      L1  H    16    30       P1  7948  0.74
      P1  H  7989  7998       L1     6  1.00
      P1  H  7997  8010       L1     3  0.40

> <Gold.PLP.Chemscore.Internal.Correction>
0.0136

> <Gold.Rescore>
     Score         DG    S(hbond)    S(metal)    S(lipo)     H(rot)  DE(clash)    DE(int)     intcor
      5.60      -7.75       1.87        0.00      34.43       3.12       1.25       0.90       ----

> <Gold.Chemscore.Fitness>
5.5998

> <Gold.Chemscore.DG>
-7.7510

> <Gold.Chemscore.ZeroCoef>
-5.4800

> <Gold.Chemscore.Hbond>
1.8675

> <Gold.Chemscore.Metal>
0.0000

> <Gold.Chemscore.Lipo>
34.4322

> <Gold.Chemscore.Internal_Hbond>
0.0000

> <Gold.Chemscore.DEClash>
1.2492

> <Gold.Chemscore.DEInternal>
0.9020

> <Gold.Chemscore.Rot>
3.1230

> <Gold.Chemscore.Internal.Correction>
   9.000000E+99

> <Gold.Chemscore.Hbonds>
donor molecule, donor type, donor heavy atom, donor atom, acceptor molecule, acceptor atom, score
      L1  H    16    30       P1  7948  0.74
      P1  H  7989  7998       L1     6  0.75
      P1  H  7997  8010       L1     3  0.01

> <Gold.Chemscore.Hbond.Weighted>
-6.2374

> <Gold.Chemscore.Metal.Weighted>
-0.0000

> <Gold.Chemscore.Lipo.Weighted>
-4.0286

> <Gold.Chemscore.Internal_Hbond.Weighted>
0.0000

> <Gold.Chemscore.DEClash.Weighted>
1.2492

> <Gold.Chemscore.DEInternal.Weighted>
0.9020

> <Gold.Chemscore.Rot.Weighted>
7.9950

> <Gold.Chemscore.Internal.Correction.Weighted>
   9.000000E+99

> <Gold.Protein.RotatedTorsions>
[ 6907 6896 6895 6894 ] final  -31.44 input  -60.11 | X-H torsion
[ 7974 7965 7964 7962 ] final   34.73 input  175.53 | X-H torsion
[ 8008 7997 7996 7995 ] final   56.85 input   59.86 | X-H torsion
[ 10167 10162 10161 10158 ] final  124.51 input  -65.29 | X-H torsion
[ 10718 10713 10712 10709 ] final  -12.08 input   66.30 | X-H torsion
[ 10763 10752 10751 10750 ] final  -91.39 input  -60.55 | X-H torsion
[ 11005 11000 10999 10996 ] final -103.05 input  -57.11 | X-H torsion

> <Gold.Protein.ActiveResidues>
 VAL166  LYS551  ARG553  GLY616  TRP617  ASP618  TYR619  PRO620  LYS621  CYS622 
 ASP623  PHE694  ASN695  SER759  ASP760  ASP761  ALA762  ILE779  LEU786  VAL792 
 PHE793  MET794  SER795  GLU796  ALA797  LYS798  CYS799  TRP800  GLU811  SER814 

> <Gold.Protein.RotatedAtoms>
  151.0921  134.9922  159.8407 H   0  0  0  0  0  0  0  0  0  0  0  0  # atno 6907 bound_to 6896
  152.5430  134.2053  159.8738 H   0  0  0  0  0  0  0  0  0  0  0  0  # atno 6908 bound_to 6896
  151.2090  133.4523  159.2631 H   0  0  0  0  0  0  0  0  0  0  0  0  # atno 6909 bound_to 6896
  146.1332  139.6231  142.9212 H   0  0  0  0  0  0  0  0  0  0  0  0  # atno 7974 bound_to 7965
  155.5241  140.3480  155.4413 H   0  0  0  0  0  0  0  0  0  0  0  0  # atno 8008 bound_to 7997
  156.0764  140.1375  156.9794 H   0  0  0  0  0  0  0  0  0  0  0  0  # atno 8009 bound_to 7997
  154.4555  140.0955  156.6721 H   0  0  0  0  0  0  0  0  0  0  0  0  # atno 8010 bound_to 7997
  139.5737  144.6952  151.3709 H   0  0  0  0  0  0  0  0  0  0  0  0  # atno 10167 bound_to 10162
  156.6498  130.4951  149.6066 H   0  0  0  0  0  0  0  0  0  0  0  0  # atno 10718 bound_to 10713
  154.6756  135.5269  153.8195 H   0  0  0  0  0  0  0  0  0  0  0  0  # atno 10763 bound_to 10752
  153.0530  135.6540  154.0656 H   0  0  0  0  0  0  0  0  0  0  0  0  # atno 10764 bound_to 10752
  154.0550  135.2966  155.3314 H   0  0  0  0  0  0  0  0  0  0  0  0  # atno 10765 bound_to 10752
  141.1163  133.8608  157.1437 H   0  0  0  0  0  0  0  0  0  0  0  0  # atno 11005 bound_to 11000
  145.5214  141.0431  143.2433 LP  0  0  0  0  0  0  0  0  0  0  0  0  # atno 17320 bound_to 7965
  144.7712  139.6730  143.7194 LP  0  0  0  0  0  0  0  0  0  0  0  0  # atno 17321 bound_to 7965
  140.7021  143.7606  150.7420 LP  0  0  0  0  0  0  0  0  0  0  0  0  # atno 17342 bound_to 10162
  140.1119  143.4691  152.2365 LP  0  0  0  0  0  0  0  0  0  0  0  0  # atno 17343 bound_to 10162
  156.2093  130.6669  151.1253 LP  0  0  0  0  0  0  0  0  0  0  0  0  # atno 17370 bound_to 10713
  157.7144  131.0717  150.6380 LP  0  0  0  0  0  0  0  0  0  0  0  0  # atno 17371 bound_to 10713
  140.0087  134.9997  157.0349 LP  0  0  0  0  0  0  0  0  0  0  0  0  # atno 17394 bound_to 11000
  140.4637  134.1458  155.7194 LP  0  0  0  0  0  0  0  0  0  0  0  0  # atno 17395 bound_to 11000

$$$$
