AV-unprocessed.smi:888|AV-procd|sdf|4055|dock3
  -GOLD-   22720 1543D 1   1.00000     0.00000
 Structure written by MMmdl.
 45 46  0  0  0  0  0  0  0  0  1 V2000
  150.6097  140.4959  157.4952 C   0  0  0  0  0  0  0  0  0  0  0  0
  151.7018  140.6507  156.4315 C   0  0  0  0  0  0  0  0  0  0  0  0
  151.8596  139.4259  155.5845 C   0  0  0  0  0  0  0  0  0  0  0  0
  152.9712  138.6803  155.5686 N   0  0  0  0  0  0  0  0  0  0  0  0
  152.7155  137.6486  154.6872 N   0  0  0  0  0  0  0  0  0  0  0  0
  151.4714  137.8694  154.2653 C   0  0  0  0  0  0  0  0  0  0  0  0
  150.8783  138.9541  154.7867 N   0  0  0  0  0  0  0  0  0  0  0  0
  149.5398  139.4554  154.5352 C   0  0  0  0  0  0  0  0  0  0  0  0
  148.4690  138.4813  155.0436 C   0  0  0  0  0  0  0  0  0  0  0  0
  147.9043  137.7196  153.9336 N   0  0  0  0  0  0  0  0  0  0  0  0
  146.6094  137.4258  153.7269 C   0  0  0  0  0  0  0  0  0  0  0  0
  145.7295  137.7885  154.5051 O   0  0  0  0  0  0  0  0  0  0  0  0
  146.3734  136.7058  152.6163 N   0  0  0  0  0  0  0  0  0  0  0  0
  145.0629  136.2489  152.1502 C   0  0  1  0  0  0  0  0  0  0  0  0
  145.1912  135.7589  150.6960 C   0  0  0  0  0  0  0  0  0  0  0  0
  145.2155  134.2248  150.7426 C   0  0  0  0  0  0  0  0  0  0  0  0
  145.1704  133.8410  152.2247 C   0  0  0  0  0  0  0  0  0  0  0  0
  144.5265  135.0329  152.9510 C   0  0  0  0  0  0  0  0  0  0  0  0
  144.8860  135.0397  154.4528 C   0  0  0  0  0  0  0  0  0  0  0  0
  142.9894  134.9589  152.8223 C   0  0  0  0  0  0  0  0  0  0  0  0
  150.5236  141.4007  158.0970 H   0  0  0  0  0  0  0  0  0  0  0  0
  150.8314  139.6672  158.1684 H   0  0  0  0  0  0  0  0  0  0  0  0
  149.6385  140.3058  157.0383 H   0  0  0  0  0  0  0  0  0  0  0  0
  151.4892  141.5122  155.7987 H   0  0  0  0  0  0  0  0  0  0  0  0
  152.6556  140.8607  156.9164 H   0  0  0  0  0  0  0  0  0  0  0  0
  150.9778  137.2198  153.5572 H   0  0  0  0  0  0  0  0  0  0  0  0
  149.4362  140.4231  155.0282 H   0  0  0  0  0  0  0  0  0  0  0  0
  149.4245  139.6352  153.4657 H   0  0  0  0  0  0  0  0  0  0  0  0
  148.9030  137.7948  155.7724 H   0  0  0  0  0  0  0  0  0  0  0  0
  147.6743  139.0327  155.5489 H   0  0  0  0  0  0  0  0  0  0  0  0
  148.5632  137.3747  153.2503 H   0  0  0  0  0  0  0  0  0  0  0  0
  147.1662  136.4529  152.0450 H   0  0  0  0  0  0  0  0  0  0  0  0
  144.3570  137.0807  152.1923 H   0  0  0  0  0  0  0  0  0  0  0  0
  144.3294  136.0897  150.1150 H   0  0  0  0  0  0  0  0  0  0  0  0
  146.0755  136.1601  150.1984 H   0  0  0  0  0  0  0  0  0  0  0  0
  144.3428  133.8257  150.2244 H   0  0  0  0  0  0  0  0  0  0  0  0
  146.0993  133.8156  150.2525 H   0  0  0  0  0  0  0  0  0  0  0  0
  144.6411  132.9027  152.3942 H   0  0  0  0  0  0  0  0  0  0  0  0
  146.1920  133.7000  152.5808 H   0  0  0  0  0  0  0  0  0  0  0  0
  144.4589  134.1751  154.9617 H   0  0  0  0  0  0  0  0  0  0  0  0
  144.5018  135.9337  154.9452 H   0  0  0  0  0  0  0  0  0  0  0  0
  145.9629  135.0059  154.6203 H   0  0  0  0  0  0  0  0  0  0  0  0
  142.5943  134.0621  153.3004 H   0  0  0  0  0  0  0  0  0  0  0  0
  142.6637  134.9424  151.7819 H   0  0  0  0  0  0  0  0  0  0  0  0
  142.5141  135.8180  153.2969 H   0  0  0  0  0  0  0  0  0  0  0  0
  1  2  1  0  0  0  0
  1 21  1  0  0  0  0
  1 22  1  0  0  0  0
  1 23  1  0  0  0  0
  2  3  1  0  0  0  0
  2 24  1  0  0  0  0
  2 25  1  0  0  0  0
  3  7  1  0  0  0  0
  3  4  2  0  0  0  0
  4  5  1  0  0  0  0
  5  6  2  0  0  0  0
  6  7  1  0  0  0  0
  6 26  1  0  0  0  0
  7  8  1  0  0  0  0
  8  9  1  0  0  0  0
  8 27  1  0  0  0  0
  8 28  1  0  0  0  0
  9 10  1  0  0  0  0
  9 29  1  0  0  0  0
  9 30  1  0  0  0  0
 10 11  1  0  0  0  0
 10 31  1  0  0  0  0
 11 12  2  0  0  0  0
 11 13  1  0  0  0  0
 13 14  1  0  0  0  0
 13 32  1  0  0  0  0
 14 18  1  0  0  0  0
 14 15  1  0  0  0  0
 14 33  1  0  0  0  0
 15 16  1  0  0  0  0
 15 34  1  0  0  0  0
 15 35  1  0  0  0  0
 16 17  1  0  0  0  0
 16 36  1  0  0  0  0
 16 37  1  0  0  0  0
 17 18  1  0  0  0  0
 17 38  1  0  0  0  0
 17 39  1  0  0  0  0
 18 19  1  0  0  0  0
 18 20  1  0  0  0  0
 19 40  1  0  0  0  0
 19 41  1  0  0  0  0
 19 42  1  0  0  0  0
 20 43  1  0  0  0  0
 20 44  1  0  0  0  0
 20 45  1  0  0  0  0
M  END
> <s_m_source_file>
AV-unprocessed.smi

> <i_m_source_file_index>
888

> <i_lp_mmshare_version>
43012

> <i_f3d_flags>
0

> <s_epik_input>
W0NIM11bQ0gyXWMxbm5bY0hdbjFbQ0gyXVtDSDJdW05IXUMoPU8pW05IXVtDQEBIXShDMihbQ0gzXSlbQ0gzXSlbQ0gyXVtDSDJdW0NIMl0y

> <s_epik_cmdline>
J2VwaWtfcHl0aG9uJywgJy1waCcsICc3LjAnLCAnLXRuJywgJzgnLCAnLW1hJywgJzIwMCcsICctbWV0YWxfYmluZGluZycsICctaW1hZScsICc8aW5maWxlLm1hZT4nLCAnLW9tYWUnLCAnPG91dGZpbGUubWFlPic=

> <r_lp_tautomer_probability>
1

> <r_epik_Ionization_Penalty>
0.000379534

> <r_epik_Ionization_Penalty_Charging>
0

> <r_epik_Ionization_Penalty_Neutral>
0.000379534

> <r_epik_State_Penalty>
-0

> <r_epik_Charging_Adjusted_Penalty>
0

> <i_epik_Tot_Q>
0

> <i_epik_Tot_abs_Q>
0

> <r_epik_Metal_State_Penalty>
-0

> <b_epik_Metal_Only>
0

> <s_lp_Force_Field>
OPLS_2005

> <r_lp_Energy>
32.1677

> <b_lp_Chiralities_Consistent>
1

> <s_lp_Variant>
AV-unprocessed.smi:888-2

> <Gold.Version>
5.8.1

> <Gold.Id.Protein>
6NUR|6NUR_protein|mol2

> <Gold.PLP.Fitness>
45.3291

> <Gold.PLP.PLP>
-33.3611

> <Gold.PLP.part.hbond>
-4.0000

> <Gold.PLP.part.metal>
0.0000

> <Gold.PLP.part.buried>
-5.7417

> <Gold.PLP.part.nonpolar>
-24.0964

> <Gold.PLP.part.repulsive>
0.1812

> <Gold.PLP.ligand.clash>
0.0000

> <Gold.PLP.ligand.torsion>
0.6437

> <Gold.PLP.Chemscore.Hbond>
3.2708

> <Gold.PLP.Chemscore.CHOScore>
1.1287

> <Gold.PLP.Chemscore.Metal>
0.0000

> <Gold.Chemscore.Hbonds>
donor molecule, donor type, donor heavy atom, donor atom, acceptor molecule, acceptor atom, score
      L1  H    10    31       P1  7948  1.00
      L1  H    13    32       P1  7948  1.00
      P1  H  7997  8008       L1     4  0.83
      P1  H 10752 10763       L1     5  0.45
      L1  C     6    26       P1  7948  0.10
      L1  C     6    26       P1  7949  1.00

> <Gold.PLP.Chemscore.Internal.Correction>
0.0570

> <Gold.Rescore>
     Score         DG    S(hbond)    S(metal)    S(lipo)     H(rot)  DE(clash)    DE(int)     intcor
     15.62     -16.45       2.93        0.00      54.48       2.03       0.07       0.76       ----

> <Gold.Chemscore.Fitness>
15.6232

> <Gold.Chemscore.DG>
-16.4495

> <Gold.Chemscore.ZeroCoef>
-5.4800

> <Gold.Chemscore.Hbond>
2.9313

> <Gold.Chemscore.Metal>
0.0000

> <Gold.Chemscore.Lipo>
54.4800

> <Gold.Chemscore.Internal_Hbond>
0.0000

> <Gold.Chemscore.DEClash>
0.0699

> <Gold.Chemscore.DEInternal>
0.7564

> <Gold.Chemscore.Rot>
2.0293

> <Gold.Chemscore.Internal.Correction>
   9.000000E+99

> <Gold.Chemscore.Hbonds>
donor molecule, donor type, donor heavy atom, donor atom, acceptor molecule, acceptor atom, score
      L1  H    10    31       P1  7948  0.95
      L1  H    13    32       P1  7948  0.95
      P1  H  7997  8008       L1     4  0.21
      P1  H 10752 10763       L1     5  0.19

> <Gold.Chemscore.Hbond.Weighted>
-9.7904

> <Gold.Chemscore.Metal.Weighted>
-0.0000

> <Gold.Chemscore.Lipo.Weighted>
-6.3742

> <Gold.Chemscore.Internal_Hbond.Weighted>
0.0000

> <Gold.Chemscore.DEClash.Weighted>
0.0699

> <Gold.Chemscore.DEInternal.Weighted>
0.7564

> <Gold.Chemscore.Rot.Weighted>
5.1950

> <Gold.Chemscore.Internal.Correction.Weighted>
   9.000000E+99

> <Gold.Protein.RotatedTorsions>
[ 6907 6896 6895 6894 ] final  -77.36 input  -60.11 | X-H torsion
[ 7974 7965 7964 7962 ] final   17.15 input  175.53 | X-H torsion
[ 8008 7997 7996 7995 ] final  -32.93 input   59.86 | X-H torsion
[ 10167 10162 10161 10158 ] final  113.66 input  -65.29 | X-H torsion
[ 10718 10713 10712 10709 ] final  -30.07 input   66.30 | X-H torsion
[ 10763 10752 10751 10750 ] final   49.79 input  -60.55 | X-H torsion
[ 11005 11000 10999 10996 ] final -124.86 input  -57.11 | X-H torsion

> <Gold.Protein.ActiveResidues>
 VAL166  LYS551  ARG553  GLY616  TRP617  ASP618  TYR619  PRO620  LYS621  CYS622 
 ASP623  PHE694  ASN695  SER759  ASP760  ASP761  ALA762  ILE779  LEU786  VAL792 
 PHE793  MET794  SER795  GLU796  ALA797  LYS798  CYS799  TRP800  GLU811  SER814 

> <Gold.Protein.RotatedAtoms>
  150.7001  134.4434  159.5302 H   0  0  0  0  0  0  0  0  0  0  0  0  # atno 6907 bound_to 6896
  152.2139  134.8473  160.0503 H   0  0  0  0  0  0  0  0  0  0  0  0  # atno 6908 bound_to 6896
  151.9348  133.3586  159.3980 H   0  0  0  0  0  0  0  0  0  0  0  0  # atno 6909 bound_to 6896
  146.2227  139.8645  142.8598 H   0  0  0  0  0  0  0  0  0  0  0  0  # atno 7974 bound_to 7965
  154.4164  140.1724  156.1805 H   0  0  0  0  0  0  0  0  0  0  0  0  # atno 8008 bound_to 7997
  155.9686  140.3387  155.6531 H   0  0  0  0  0  0  0  0  0  0  0  0  # atno 8009 bound_to 7997
  155.6655  140.0706  157.2529 H   0  0  0  0  0  0  0  0  0  0  0  0  # atno 8010 bound_to 7997
  139.6445  144.7126  151.2170 H   0  0  0  0  0  0  0  0  0  0  0  0  # atno 10167 bound_to 10162
  156.4044  130.4396  149.7298 H   0  0  0  0  0  0  0  0  0  0  0  0  # atno 10718 bound_to 10713
  152.9786  135.5900  154.4146 H   0  0  0  0  0  0  0  0  0  0  0  0  # atno 10763 bound_to 10752
  154.3777  135.2767  155.2231 H   0  0  0  0  0  0  0  0  0  0  0  0  # atno 10764 bound_to 10752
  154.4159  135.6070  153.6035 H   0  0  0  0  0  0  0  0  0  0  0  0  # atno 10765 bound_to 10752
  140.9808  134.0676  157.3767 H   0  0  0  0  0  0  0  0  0  0  0  0  # atno 11005 bound_to 11000
  145.2671  141.0096  143.3793 LP  0  0  0  0  0  0  0  0  0  0  0  0  # atno 17320 bound_to 7965
  144.9253  139.4363  143.6521 LP  0  0  0  0  0  0  0  0  0  0  0  0  # atno 17321 bound_to 7965
  140.7508  143.6254  150.8473 LP  0  0  0  0  0  0  0  0  0  0  0  0  # atno 17342 bound_to 10162
  139.9896  143.5862  152.2915 LP  0  0  0  0  0  0  0  0  0  0  0  0  # atno 17343 bound_to 10162
  156.4301  130.7811  151.2831 LP  0  0  0  0  0  0  0  0  0  0  0  0  # atno 17370 bound_to 10713
  157.7505  131.0156  150.3512 LP  0  0  0  0  0  0  0  0  0  0  0  0  # atno 17371 bound_to 10713
  139.8949  135.0138  156.6976 LP  0  0  0  0  0  0  0  0  0  0  0  0  # atno 17394 bound_to 11000
  140.7190  133.9157  155.8134 LP  0  0  0  0  0  0  0  0  0  0  0  0  # atno 17395 bound_to 11000

$$$$
