AV-unprocessed.smi:1389|AV-procd|sdf|5649|dock5
  -GOLD-   22720 5273D 1   1.00000     0.00000
 Structure written by MMmdl.
 52 54  0  0  0  0  0  0  0  0  2 V2000
  146.3402  142.5719  153.8132 C   0  0  0  0  0  0  0  0  0  0  0  0
  145.8406  141.5582  154.8715 C   0  0  1  0  0  0  0  0  0  0  0  0
  146.5132  141.8386  156.2422 C   0  0  0  0  0  0  0  0  0  0  0  0
  147.9094  141.4171  156.2775 N   0  0  0  0  0  0  0  0  0  0  0  0
  148.7160  141.5705  157.3354 C   0  0  0  0  0  0  0  0  0  0  0  0
  148.3526  142.0793  158.3958 O   0  0  0  0  0  0  0  0  0  0  0  0
  149.9440  141.0853  157.0871 N   0  0  0  0  0  0  0  0  0  0  0  0
  151.0557  141.0205  157.9741 C   0  0  0  0  0  0  0  0  0  0  0  0
  151.3026  142.0418  158.9241 C   0  0  0  0  0  0  0  0  0  0  0  0
  152.4499  141.9703  159.7324 C   0  0  0  0  0  0  0  0  0  0  0  0
  153.3230  140.8851  159.5517 C   0  0  0  0  0  0  0  0  0  0  0  0
  153.1108  139.9132  158.6422 N   0  0  0  0  0  0  0  0  0  0  0  0
  152.0012  139.9601  157.8642 C   0  0  0  0  0  0  0  0  0  0  0  0
  151.8272  138.9052  156.9384 N   0  0  0  0  0  0  0  0  0  0  0  0
  151.8590  139.2237  155.5138 C   0  0  0  0  0  0  0  0  0  0  0  0
  150.8323  138.3067  154.8405 C   0  0  0  0  0  0  0  0  0  0  0  0
  150.6658  137.1613  155.8338 C   0  0  0  0  0  0  0  0  0  0  0  0
  150.8269  137.8696  157.1757 C   0  0  0  0  0  0  0  0  0  0  0  0
  144.3407  141.5578  154.9482 N   0  3  0  0  0  0  0  0  0  0  0  0
  143.8051  140.5691  155.9259 C   0  0  0  0  0  0  0  0  0  0  0  0
  142.2677  140.5722  155.9454 C   0  0  0  0  0  0  0  0  0  0  0  0
  141.7988  141.8746  156.2549 O   0  0  0  0  0  0  0  0  0  0  0  0
  142.1951  142.8109  155.2657 C   0  0  0  0  0  0  0  0  0  0  0  0
  143.7304  142.8929  155.2058 C   0  0  0  0  0  0  0  0  0  0  0  0
  147.4277  142.6325  153.7803 H   0  0  0  0  0  0  0  0  0  0  0  0
  145.9648  143.5744  154.0206 H   0  0  0  0  0  0  0  0  0  0  0  0
  146.0401  142.3023  152.8021 H   0  0  0  0  0  0  0  0  0  0  0  0
  146.1527  140.5606  154.5575 H   0  0  0  0  0  0  0  0  0  0  0  0
  146.4453  142.9016  156.4812 H   0  0  0  0  0  0  0  0  0  0  0  0
  146.0178  141.2901  157.0432 H   0  0  0  0  0  0  0  0  0  0  0  0
  148.2837  140.9839  155.4458 H   0  0  0  0  0  0  0  0  0  0  0  0
  150.0686  140.6109  156.2045 H   0  0  0  0  0  0  0  0  0  0  0  0
  150.6439  142.8903  159.0297 H   0  0  0  0  0  0  0  0  0  0  0  0
  152.6616  142.7361  160.4639 H   0  0  0  0  0  0  0  0  0  0  0  0
  154.2189  140.7977  160.1482 H   0  0  0  0  0  0  0  0  0  0  0  0
  151.6408  140.2752  155.3216 H   0  0  0  0  0  0  0  0  0  0  0  0
  152.8557  139.0080  155.1286 H   0  0  0  0  0  0  0  0  0  0  0  0
  149.8848  138.8356  154.7306 H   0  0  0  0  0  0  0  0  0  0  0  0
  151.1470  137.9723  153.8517 H   0  0  0  0  0  0  0  0  0  0  0  0
  149.7105  136.6447  155.7372 H   0  0  0  0  0  0  0  0  0  0  0  0
  151.4644  136.4306  155.6982 H   0  0  0  0  0  0  0  0  0  0  0  0
  151.1428  137.1832  157.9618 H   0  0  0  0  0  0  0  0  0  0  0  0
  149.8735  138.3120  157.4678 H   0  0  0  0  0  0  0  0  0  0  0  0
  144.1255  139.5585  155.6818 H   0  0  0  0  0  0  0  0  0  0  0  0
  144.1883  140.7959  156.9220 H   0  0  0  0  0  0  0  0  0  0  0  0
  141.8633  140.2396  154.9879 H   0  0  0  0  0  0  0  0  0  0  0  0
  141.9016  139.8782  156.7024 H   0  0  0  0  0  0  0  0  0  0  0  0
  141.7811  142.5321  154.2951 H   0  0  0  0  0  0  0  0  0  0  0  0
  141.7783  143.7861  155.5185 H   0  0  0  0  0  0  0  0  0  0  0  0
  144.1208  143.2999  156.1398 H   0  0  0  0  0  0  0  0  0  0  0  0
  143.9778  143.5957  154.4118 H   0  0  0  0  0  0  0  0  0  0  0  0
  144.0094  141.2725  154.0376 H   0  0  0  0  0  0  0  0  0  0  0  0
  1  2  1  0  0  0  0
  1 25  1  0  0  0  0
  1 26  1  0  0  0  0
  1 27  1  0  0  0  0
  2  3  1  0  0  0  0
  2 19  1  0  0  0  0
  2 28  1  0  0  0  0
  3  4  1  0  0  0  0
  3 29  1  0  0  0  0
  3 30  1  0  0  0  0
  4  5  1  0  0  0  0
  4 31  1  0  0  0  0
  5  6  2  0  0  0  0
  5  7  1  0  0  0  0
  7  8  1  0  0  0  0
  7 32  1  0  0  0  0
  8 13  1  0  0  0  0
  8  9  2  0  0  0  0
  9 10  1  0  0  0  0
  9 33  1  0  0  0  0
 10 11  2  0  0  0  0
 10 34  1  0  0  0  0
 11 12  1  0  0  0  0
 11 35  1  0  0  0  0
 12 13  2  0  0  0  0
 13 14  1  0  0  0  0
 14 18  1  0  0  0  0
 14 15  1  0  0  0  0
 15 16  1  0  0  0  0
 15 36  1  0  0  0  0
 15 37  1  0  0  0  0
 16 17  1  0  0  0  0
 16 38  1  0  0  0  0
 16 39  1  0  0  0  0
 17 18  1  0  0  0  0
 17 40  1  0  0  0  0
 17 41  1  0  0  0  0
 18 42  1  0  0  0  0
 18 43  1  0  0  0  0
 19 24  1  0  0  0  0
 19 20  1  0  0  0  0
 19 52  1  0  0  0  0
 20 21  1  0  0  0  0
 20 44  1  0  0  0  0
 20 45  1  0  0  0  0
 21 22  1  0  0  0  0
 21 46  1  0  0  0  0
 21 47  1  0  0  0  0
 22 23  1  0  0  0  0
 23 24  1  0  0  0  0
 23 48  1  0  0  0  0
 23 49  1  0  0  0  0
 24 50  1  0  0  0  0
 24 51  1  0  0  0  0
M  CHG  1  19   1
M  END
> <s_m_source_file>
AV-unprocessed.smi

> <i_m_source_file_index>
1389

> <i_lp_mmshare_version>
43012

> <i_f3d_flags>
0

> <s_epik_input>
W0NIMl0xW0NIMl1PW0NIMl1bQ0gyXU4xW0NASF0oW0NIM10pW0NIMl1bTkhdQyg9TylbTkhdYzJbY0hdW2NIXVtjSF1uYzJOM1tDSDJdW0NIMl1bQ0gyXVtDSDJdMw==

> <s_epik_cmdline>
J2VwaWtfcHl0aG9uJywgJy1waCcsICc3LjAnLCAnLXRuJywgJzgnLCAnLW1hJywgJzIwMCcsICctbWV0YWxfYmluZGluZycsICctaW1hZScsICc8aW5maWxlLm1hZT4nLCAnLW9tYWUnLCAnPG91dGZpbGUubWFlPic=

> <r_lp_tautomer_probability>
1

> <r_epik_Ionization_Penalty>
0.686

> <r_epik_Ionization_Penalty_Charging>
0.602531

> <r_epik_Ionization_Penalty_Neutral>
0.08347

> <r_epik_State_Penalty>
0.679975

> <r_epik_Charging_Adjusted_Penalty>
1.28251

> <i_epik_Tot_Q>
1

> <i_epik_Tot_abs_Q>
1

> <r_epik_Metal_State_Penalty>
0.679055

> <b_epik_Metal_Only>
0

> <s_lp_Force_Field>
OPLS_2005

> <r_lp_Energy>
49.8528

> <b_lp_Chiralities_Consistent>
1

> <s_lp_Variant>
AV-unprocessed.smi:1389-4

> <Gold.Version>
5.8.1

> <Gold.Id.Protein>
6NUR|6NUR_protein|mol2

> <Gold.PLP.Fitness>
41.3935

> <Gold.PLP.PLP>
-33.3999

> <Gold.PLP.part.hbond>
-2.5964

> <Gold.PLP.part.metal>
0.0000

> <Gold.PLP.part.buried>
-5.0377

> <Gold.PLP.part.nonpolar>
-26.0718

> <Gold.PLP.part.repulsive>
0.1909

> <Gold.PLP.ligand.clash>
0.0000

> <Gold.PLP.ligand.torsion>
0.5814

> <Gold.PLP.Chemscore.Hbond>
2.9280

> <Gold.PLP.Chemscore.CHOScore>
0.0000

> <Gold.PLP.Chemscore.Metal>
0.0000

> <Gold.Chemscore.Hbonds>
donor molecule, donor type, donor heavy atom, donor atom, acceptor molecule, acceptor atom, score
      L1  H    19    52       P1 10175  2.00
      P1  H  7997  8009       L1    12  0.39

> <Gold.PLP.Chemscore.Internal.Correction>
0.3725

> <Gold.Rescore>
     Score         DG    S(hbond)    S(metal)    S(lipo)     H(rot)  DE(clash)    DE(int)     intcor
     12.99     -14.81       1.33        0.00      77.41       1.63       0.06       1.76       ----

> <Gold.Chemscore.Fitness>
12.9879

> <Gold.Chemscore.DG>
-14.8078

> <Gold.Chemscore.ZeroCoef>
-5.4800

> <Gold.Chemscore.Hbond>
1.3311

> <Gold.Chemscore.Metal>
0.0000

> <Gold.Chemscore.Lipo>
77.4071

> <Gold.Chemscore.Internal_Hbond>
0.0000

> <Gold.Chemscore.DEClash>
0.0574

> <Gold.Chemscore.DEInternal>
1.7625

> <Gold.Chemscore.Rot>
1.6307

> <Gold.Chemscore.Internal.Correction>
   9.000000E+99

> <Gold.Chemscore.Hbonds>
donor molecule, donor type, donor heavy atom, donor atom, acceptor molecule, acceptor atom, score
      L1  H    19    52       P1 10175  0.40
      P1  H  7997  8009       L1    12  0.12

> <Gold.Chemscore.Hbond.Weighted>
-4.4458

> <Gold.Chemscore.Metal.Weighted>
-0.0000

> <Gold.Chemscore.Lipo.Weighted>
-9.0566

> <Gold.Chemscore.Internal_Hbond.Weighted>
0.0000

> <Gold.Chemscore.DEClash.Weighted>
0.0574

> <Gold.Chemscore.DEInternal.Weighted>
1.7625

> <Gold.Chemscore.Rot.Weighted>
4.1746

> <Gold.Chemscore.Internal.Correction.Weighted>
   9.000000E+99

> <Gold.Protein.RotatedTorsions>
[ 6907 6896 6895 6894 ] final   87.44 input  -60.11 | X-H torsion
[ 7974 7965 7964 7962 ] final  -38.48 input  175.53 | X-H torsion
[ 8008 7997 7996 7995 ] final  132.16 input   59.86 | X-H torsion
[ 10167 10162 10161 10158 ] final  136.57 input  -65.29 | X-H torsion
[ 10718 10713 10712 10709 ] final    5.26 input   66.30 | X-H torsion
[ 10763 10752 10751 10750 ] final  -39.90 input  -60.55 | X-H torsion
[ 11005 11000 10999 10996 ] final -124.78 input  -57.11 | X-H torsion

> <Gold.Protein.ActiveResidues>
 VAL166  LYS551  ARG553  GLY616  TRP617  ASP618  TYR619  PRO620  LYS621  CYS622 
 ASP623  PHE694  ASN695  SER759  ASP760  ASP761  ALA762  ILE779  LEU786  VAL792 
 PHE793  MET794  SER795  GLU796  ALA797  LYS798  CYS799  TRP800  GLU811  SER814 

> <Gold.Protein.RotatedAtoms>
  152.5411  134.2276  159.8811 H   0  0  0  0  0  0  0  0  0  0  0  0  # atno 6907 bound_to 6896
  151.2249  133.4475  159.2609 H   0  0  0  0  0  0  0  0  0  0  0  0  # atno 6908 bound_to 6896
  151.0770  134.9847  159.8393 H   0  0  0  0  0  0  0  0  0  0  0  0  # atno 6909 bound_to 6896
  146.0482  140.6517  142.9054 H   0  0  0  0  0  0  0  0  0  0  0  0  # atno 7974 bound_to 7965
  156.2979  140.2553  156.3044 H   0  0  0  0  0  0  0  0  0  0  0  0  # atno 8008 bound_to 7997
  154.9386  140.0396  157.2104 H   0  0  0  0  0  0  0  0  0  0  0  0  # atno 8009 bound_to 7997
  154.8148  140.2850  155.5832 H   0  0  0  0  0  0  0  0  0  0  0  0  # atno 8010 bound_to 7997
  139.5175  144.6457  151.5445 H   0  0  0  0  0  0  0  0  0  0  0  0  # atno 10167 bound_to 10162
  156.9047  130.5734  149.5647 H   0  0  0  0  0  0  0  0  0  0  0  0  # atno 10718 bound_to 10713
  153.9370  135.6765  153.4745 H   0  0  0  0  0  0  0  0  0  0  0  0  # atno 10763 bound_to 10752
  153.0951  135.4855  154.8760 H   0  0  0  0  0  0  0  0  0  0  0  0  # atno 10764 bound_to 10752
  154.7398  135.3158  154.8707 H   0  0  0  0  0  0  0  0  0  0  0  0  # atno 10765 bound_to 10752
  140.9814  134.0667  157.3760 H   0  0  0  0  0  0  0  0  0  0  0  0  # atno 11005 bound_to 11000
  144.7109  140.4034  143.7081 LP  0  0  0  0  0  0  0  0  0  0  0  0  # atno 17320 bound_to 7965
  145.6769  139.1610  143.2723 LP  0  0  0  0  0  0  0  0  0  0  0  0  # atno 17321 bound_to 7965
  140.6241  143.9201  150.6550 LP  0  0  0  0  0  0  0  0  0  0  0  0  # atno 17342 bound_to 10162
  140.2485  143.3611  152.1426 LP  0  0  0  0  0  0  0  0  0  0  0  0  # atno 17343 bound_to 10162
  156.0565  130.5625  150.9102 LP  0  0  0  0  0  0  0  0  0  0  0  0  # atno 17370 bound_to 10713
  157.6004  131.0941  150.8969 LP  0  0  0  0  0  0  0  0  0  0  0  0  # atno 17371 bound_to 10713
  139.8952  135.0140  156.6989 LP  0  0  0  0  0  0  0  0  0  0  0  0  # atno 17394 bound_to 11000
  140.7180  133.9165  155.8128 LP  0  0  0  0  0  0  0  0  0  0  0  0  # atno 17395 bound_to 11000

$$$$
