AV-unprocessed.smi:196|AV-procd|sdf|1529|dock4
  -GOLD-   2262019383D 1   1.00000     0.00000
 Structure written by MMmdl.
 47 50  0  0  0  0  0  0  0  0  1 V2000
  146.6050  142.7486  153.7732 C   0  0  0  0  0  0  0  0  0  0  0  0
  147.2269  141.7862  154.7982 C   0  0  1  0  0  0  0  0  0  0  0  0
  146.2576  141.3743  155.7507 O   0  0  0  0  0  0  0  0  0  0  0  0
  146.7786  140.2295  156.4012 C   0  0  0  0  0  0  0  0  0  0  0  0
  147.3443  139.4130  155.2454 C   0  0  0  0  0  0  0  0  0  0  0  0
  147.8401  140.4691  154.2524 C   0  0  1  0  0  0  0  0  0  0  0  0
  147.3275  140.1444  152.9702 O   0  0  0  0  0  0  0  0  0  0  0  0
  149.3861  140.5049  154.1611 C   0  0  0  0  0  0  0  0  0  0  0  0
  150.0363  140.7440  155.4410 N   0  0  0  0  0  0  0  0  0  0  0  0
  149.8388  141.8192  156.2773 C   0  0  0  0  0  0  0  0  0  0  0  0
  150.5295  141.7978  157.3837 N   0  0  0  0  0  0  0  0  0  0  0  0
  151.2753  140.6276  157.2996 C   0  0  0  0  0  0  0  0  0  0  0  0
  152.2197  139.9869  158.1532 C   0  0  0  0  0  0  0  0  0  0  0  0
  152.6012  140.4923  159.3577 N   0  0  0  0  0  0  0  0  0  0  0  0
  151.7742  141.5204  159.9809 C   0  0  0  0  0  0  0  0  0  0  0  0
  152.7495  142.4830  160.6572 C   0  0  2  0  0  0  0  0  0  0  0  0
  153.0818  143.4514  159.8019 F   0  0  0  0  0  0  0  0  0  0  0  0
  153.9670  141.6078  160.9344 C   0  0  0  0  0  0  0  0  0  0  0  0
  154.0133  140.6484  159.7339 C   0  0  1  0  0  0  0  0  0  0  0  0
  154.7365  139.3382  160.1034 C   0  0  0  0  0  0  0  0  0  0  0  0
  155.1522  139.1630  161.3623 N   0  0  0  0  0  0  0  0  0  0  0  0
  154.9152  138.4796  159.2426 O   0  0  0  0  0  0  0  0  0  0  0  0
  152.7363  138.8032  157.7287 N   0  0  0  0  0  0  0  0  0  0  0  0
  152.3735  138.2867  156.5517 C   0  0  0  0  0  0  0  0  0  0  0  0
  151.5140  138.7753  155.6567 N   0  0  0  0  0  0  0  0  0  0  0  0
  150.9782  139.9557  156.0794 C   0  0  0  0  0  0  0  0  0  0  0  0
  152.3410  142.9578  161.5497 H   0  0  0  0  0  0  0  0  0  0  0  0
  154.5528  141.1352  158.9197 H   0  0  0  0  0  0  0  0  0  0  0  0
  147.3373  143.0556  153.0263 H   0  0  0  0  0  0  0  0  0  0  0  0
  146.2382  143.6495  154.2647 H   0  0  0  0  0  0  0  0  0  0  0  0
  145.7619  142.2926  153.2537 H   0  0  0  0  0  0  0  0  0  0  0  0
  147.9847  142.3289  155.3639 H   0  0  0  0  0  0  0  0  0  0  0  0
  147.5667  140.5259  157.0953 H   0  0  0  0  0  0  0  0  0  0  0  0
  146.0088  139.6953  156.9584 H   0  0  0  0  0  0  0  0  0  0  0  0
  148.1224  138.7221  155.5718 H   0  0  0  0  0  0  0  0  0  0  0  0
  146.5402  138.8147  154.8134 H   0  0  0  0  0  0  0  0  0  0  0  0
  148.0470  140.1120  152.3587 H   0  0  0  0  0  0  0  0  0  0  0  0
  149.7588  139.5621  153.7585 H   0  0  0  0  0  0  0  0  0  0  0  0
  149.7088  141.2801  153.4647 H   0  0  0  0  0  0  0  0  0  0  0  0
  149.1518  142.6200  156.0455 H   0  0  0  0  0  0  0  0  0  0  0  0
  151.1328  142.0460  159.2716 H   0  0  0  0  0  0  0  0  0  0  0  0
  151.1349  141.0425  160.7240 H   0  0  0  0  0  0  0  0  0  0  0  0
  154.8838  142.1878  161.0461 H   0  0  0  0  0  0  0  0  0  0  0  0
  153.8075  141.0581  161.8642 H   0  0  0  0  0  0  0  0  0  0  0  0
  155.6315  138.3123  161.6194 H   0  0  0  0  0  0  0  0  0  0  0  0
  154.9888  139.8843  162.0494 H   0  0  0  0  0  0  0  0  0  0  0  0
  152.8371  137.3466  156.2911 H   0  0  0  0  0  0  0  0  0  0  0  0
  1  2  1  0  0  0  0
  1 29  1  0  0  0  0
  1 30  1  0  0  0  0
  1 31  1  0  0  0  0
  2  6  1  0  0  0  0
  2  3  1  0  0  0  0
  2 32  1  0  0  0  0
  3  4  1  0  0  0  0
  4  5  1  0  0  0  0
  4 33  1  0  0  0  0
  4 34  1  0  0  0  0
  5  6  1  0  0  0  0
  5 35  1  0  0  0  0
  5 36  1  0  0  0  0
  6  7  1  0  0  0  0
  6  8  1  0  0  0  0
  7 37  1  0  0  0  0
  8  9  1  0  0  0  0
  8 38  1  0  0  0  0
  8 39  1  0  0  0  0
  9 26  1  0  0  0  0
  9 10  1  0  0  0  0
 10 11  2  0  0  0  0
 10 40  1  0  0  0  0
 11 12  1  0  0  0  0
 12 26  2  0  0  0  0
 12 13  1  0  0  0  0
 13 14  1  0  0  0  0
 13 23  2  0  0  0  0
 14 19  1  0  0  0  0
 14 15  1  0  0  0  0
 15 16  1  0  0  0  0
 15 41  1  0  0  0  0
 15 42  1  0  0  0  0
 16 27  1  0  0  0  0
 16 17  1  0  0  0  0
 16 18  1  0  0  0  0
 18 19  1  0  0  0  0
 18 43  1  0  0  0  0
 18 44  1  0  0  0  0
 19 28  1  0  0  0  0
 19 20  1  0  0  0  0
 20 21  1  0  0  0  0
 20 22  2  0  0  0  0
 21 45  1  0  0  0  0
 21 46  1  0  0  0  0
 23 24  1  0  0  0  0
 24 25  2  0  0  0  0
 24 47  1  0  0  0  0
 25 26  1  0  0  0  0
M  END
> <s_m_source_file>
AV-unprocessed.smi

> <i_m_source_file_index>
196

> <i_lp_mmshare_version>
43012

> <i_f3d_flags>
0

> <s_epik_input>
W0NIMl0xW0NIMl1PW0NAQEhdKFtDSDNdKVtDQEBdMShbT0hdKVtDSDJdbihbY0hdbjIpYyhjMjMpbltjSF1uYzNONFtDSDJdW0NASF0oRilbQ0gyXVtDQEhdNEMoPU8pW05IMl0=

> <s_epik_cmdline>
J2VwaWtfcHl0aG9uJywgJy1waCcsICc3LjAnLCAnLXRuJywgJzgnLCAnLW1hJywgJzIwMCcsICctbWV0YWxfYmluZGluZycsICctaW1hZScsICc8aW5maWxlLm1hZT4nLCAnLW9tYWUnLCAnPG91dGZpbGUubWFlPic=

> <r_lp_tautomer_probability>
1

> <r_epik_Ionization_Penalty>
0.000857933

> <r_epik_Ionization_Penalty_Charging>
0

> <r_epik_Ionization_Penalty_Neutral>
0.000857933

> <r_epik_State_Penalty>
0.000462053

> <r_epik_Charging_Adjusted_Penalty>
0.000462053

> <i_epik_Tot_Q>
0

> <i_epik_Tot_abs_Q>
0

> <r_epik_Metal_State_Penalty>
-0

> <b_epik_Metal_Only>
0

> <s_lp_Force_Field>
OPLS_2005

> <r_lp_Energy>
42.3272

> <b_lp_Chiralities_Consistent>
1

> <s_lp_Variant>
AV-unprocessed.smi:196-2

> <Gold.Version>
5.8.1

> <Gold.Id.Protein>
6NUR|6NUR_protein|mol2

> <Gold.PLP.Fitness>
49.8030

> <Gold.PLP.PLP>
-41.6950

> <Gold.PLP.part.hbond>
-3.0000

> <Gold.PLP.part.metal>
0.0000

> <Gold.PLP.part.buried>
0.9528

> <Gold.PLP.part.nonpolar>
-38.2513

> <Gold.PLP.part.repulsive>
0.1658

> <Gold.PLP.ligand.clash>
0.0000

> <Gold.PLP.ligand.torsion>
0.5812

> <Gold.PLP.Chemscore.Hbond>
2.0000

> <Gold.PLP.Chemscore.CHOScore>
1.0000

> <Gold.PLP.Chemscore.Metal>
0.0000

> <Gold.Chemscore.Hbonds>
donor molecule, donor type, donor heavy atom, donor atom, acceptor molecule, acceptor atom, score
      L1  H     7    37       P1  7957  1.00
      L1  C    10    40       P1  8028  1.00

> <Gold.PLP.Chemscore.Internal.Correction>
0.2704

> <Gold.Rescore>
     Score         DG    S(hbond)    S(metal)    S(lipo)     H(rot)  DE(clash)    DE(int)     intcor
      9.31     -13.95       1.95        0.00      73.40       2.60       1.20       3.43       ----

> <Gold.Chemscore.Fitness>
9.3128

> <Gold.Chemscore.DG>
-13.9465

> <Gold.Chemscore.ZeroCoef>
-5.4800

> <Gold.Chemscore.Hbond>
1.9541

> <Gold.Chemscore.Metal>
0.0000

> <Gold.Chemscore.Lipo>
73.3982

> <Gold.Chemscore.Internal_Hbond>
0.0000

> <Gold.Chemscore.DEClash>
1.2032

> <Gold.Chemscore.DEInternal>
3.4306

> <Gold.Chemscore.Rot>
2.5968

> <Gold.Chemscore.Internal.Correction>
   9.000000E+99

> <Gold.Chemscore.Hbonds>
donor molecule, donor type, donor heavy atom, donor atom, acceptor molecule, acceptor atom, score
      L1  H     7    37       P1  7957  0.99
      P1  H  7997  8009       L1    22  0.01

> <Gold.Chemscore.Hbond.Weighted>
-6.5267

> <Gold.Chemscore.Metal.Weighted>
-0.0000

> <Gold.Chemscore.Lipo.Weighted>
-8.5876

> <Gold.Chemscore.Internal_Hbond.Weighted>
0.0000

> <Gold.Chemscore.DEClash.Weighted>
1.2032

> <Gold.Chemscore.DEInternal.Weighted>
3.4306

> <Gold.Chemscore.Rot.Weighted>
6.6477

> <Gold.Chemscore.Internal.Correction.Weighted>
   9.000000E+99

> <Gold.Protein.RotatedTorsions>
[ 6907 6896 6895 6894 ] final   76.73 input  -60.11 | X-H torsion
[ 7974 7965 7964 7962 ] final  -59.32 input  175.53 | X-H torsion
[ 8008 7997 7996 7995 ] final  122.71 input   59.86 | X-H torsion
[ 10167 10162 10161 10158 ] final   51.92 input  -65.29 | X-H torsion
[ 10718 10713 10712 10709 ] final  -61.74 input   66.30 | X-H torsion
[ 10763 10752 10751 10750 ] final -169.21 input  -60.55 | X-H torsion
[ 11005 11000 10999 10996 ] final   -2.82 input  -57.11 | X-H torsion

> <Gold.Protein.ActiveResidues>
 VAL166  LYS551  ARG553  GLY616  TRP617  ASP618  TYR619  PRO620  LYS621  CYS622 
 ASP623  PHE694  ASN695  SER759  ASP760  ASP761  ALA762  ILE779  LEU786  VAL792 
 PHE793  MET794  SER795  GLU796  ALA797  LYS798  CYS799  TRP800  GLU811  SER814 

> <Gold.Protein.RotatedAtoms>
  152.5086  134.3924  159.9388 H   0  0  0  0  0  0  0  0  0  0  0  0  # atno 6907 bound_to 6896
  151.3885  133.3791  159.2726 H   0  0  0  0  0  0  0  0  0  0  0  0  # atno 6908 bound_to 6896
  150.9451  134.8877  159.7695 H   0  0  0  0  0  0  0  0  0  0  0  0  # atno 6909 bound_to 6896
  145.8289  140.8492  143.0094 H   0  0  0  0  0  0  0  0  0  0  0  0  # atno 7974 bound_to 7965
  156.2738  140.2779  156.1511 H   0  0  0  0  0  0  0  0  0  0  0  0  # atno 8008 bound_to 7997
  155.0853  140.0388  157.2669 H   0  0  0  0  0  0  0  0  0  0  0  0  # atno 8009 bound_to 7997
  154.6932  140.2633  155.6798 H   0  0  0  0  0  0  0  0  0  0  0  0  # atno 8010 bound_to 7997
  140.2569  144.3417  150.6330 H   0  0  0  0  0  0  0  0  0  0  0  0  # atno 10167 bound_to 10162
  156.0901  130.4201  150.1036 H   0  0  0  0  0  0  0  0  0  0  0  0  # atno 10718 bound_to 10713
  154.6547  135.2916  154.9942 H   0  0  0  0  0  0  0  0  0  0  0  0  # atno 10763 bound_to 10752
  154.1023  135.6575  153.4874 H   0  0  0  0  0  0  0  0  0  0  0  0  # atno 10764 bound_to 10752
  153.0396  135.5245  154.7471 H   0  0  0  0  0  0  0  0  0  0  0  0  # atno 10765 bound_to 10752
  140.6625  133.9308  155.8445 H   0  0  0  0  0  0  0  0  0  0  0  0  # atno 11005 bound_to 11000
  144.6741  140.0643  143.7475 LP  0  0  0  0  0  0  0  0  0  0  0  0  # atno 17320 bound_to 7965
  145.9593  139.2789  143.1165 LP  0  0  0  0  0  0  0  0  0  0  0  0  # atno 17321 bound_to 7965
  140.5997  143.2167  151.7096 LP  0  0  0  0  0  0  0  0  0  0  0  0  # atno 17342 bound_to 10162
  139.5029  144.3812  152.0374 LP  0  0  0  0  0  0  0  0  0  0  0  0  # atno 17343 bound_to 10162
  156.9048  130.9632  151.3571 LP  0  0  0  0  0  0  0  0  0  0  0  0  # atno 17370 bound_to 10713
  157.6048  130.8539  149.8858 LP  0  0  0  0  0  0  0  0  0  0  0  0  # atno 17371 bound_to 10713
  141.0454  134.0561  157.3850 LP  0  0  0  0  0  0  0  0  0  0  0  0  # atno 17394 bound_to 11000
  139.9008  135.0164  156.7259 LP  0  0  0  0  0  0  0  0  0  0  0  0  # atno 17395 bound_to 11000

$$$$
