AV-unprocessed.smi:1464|AV-procd|sdf|5942|dock3
  -GOLD-   22720 6 23D 1   1.00000     0.00000
 Structure written by MMmdl.
 40 41  0  0  0  0  0  0  0  0  2 V2000
  152.8109  142.9859  162.3648 C   0  0  0  0  0  0  0  0  0  0  0  0
  152.2058  143.2126  160.9678 C   0  0  1  0  0  0  0  0  0  0  0  0
  151.9522  144.7186  160.7468 C   0  0  0  0  0  0  0  0  0  0  0  0
  151.3363  145.0077  159.3711 C   0  0  0  0  0  0  0  0  0  0  0  0
  152.2156  144.4403  158.2472 C   0  0  0  0  0  0  0  0  0  0  0  0
  152.4721  142.9314  158.4307 C   0  0  2  0  0  0  0  0  0  0  0  0
  151.2399  142.1718  158.2415 N   0  0  0  0  0  0  0  0  0  0  0  0
  150.9349  141.3687  157.2100 C   0  0  0  0  0  0  0  0  0  0  0  0
  151.7004  141.1654  156.2680 O   0  0  0  0  0  0  0  0  0  0  0  0
  149.5520  140.6931  157.2264 C   0  0  0  0  0  0  0  0  0  0  0  0
  148.6815  141.0700  156.0991 N   0  0  0  0  0  0  0  0  0  0  0  0
  147.4486  141.7412  156.5027 N   0  5  0  0  0  0  0  0  0  0  0  0
  146.6170  142.2307  155.5452 C   0  0  0  0  0  0  0  0  0  0  0  0
  145.5838  142.8412  155.8088 O   0  0  0  0  0  0  0  0  0  0  0  0
  146.9735  142.0126  154.1530 C   0  0  0  0  0  0  0  0  0  0  0  0
  148.1039  141.3647  153.8093 C   0  0  0  0  0  0  0  0  0  0  0  0
  149.0425  140.8550  154.8015 C   0  0  0  0  0  0  0  0  0  0  0  0
  150.0927  140.2914  154.4939 O   0  0  0  0  0  0  0  0  0  0  0  0
  153.0832  142.6284  159.8238 C   0  0  2  0  0  0  0  0  0  0  0  0
  153.3632  141.1206  159.9918 C   0  0  0  0  0  0  0  0  0  0  0  0
  153.8158  143.4028  162.4353 H   0  0  0  0  0  0  0  0  0  0  0  0
  152.8672  141.9264  162.6131 H   0  0  0  0  0  0  0  0  0  0  0  0
  152.2013  143.4579  163.1358 H   0  0  0  0  0  0  0  0  0  0  0  0
  151.2383  142.7080  160.9506 H   0  0  0  0  0  0  0  0  0  0  0  0
  151.2908  145.1027  161.5241 H   0  0  0  0  0  0  0  0  0  0  0  0
  152.8903  145.2669  160.8440 H   0  0  0  0  0  0  0  0  0  0  0  0
  150.3361  144.5755  159.3167 H   0  0  0  0  0  0  0  0  0  0  0  0
  151.2135  146.0826  159.2379 H   0  0  0  0  0  0  0  0  0  0  0  0
  151.7540  144.6346  157.2783 H   0  0  0  0  0  0  0  0  0  0  0  0
  153.1699  144.9682  158.2377 H   0  0  0  0  0  0  0  0  0  0  0  0
  153.1868  142.6124  157.6699 H   0  0  0  0  0  0  0  0  0  0  0  0
  150.5446  142.2584  158.9694 H   0  0  0  0  0  0  0  0  0  0  0  0
  149.6893  139.6108  157.2518 H   0  0  0  0  0  0  0  0  0  0  0  0
  149.0660  140.9453  158.1705 H   0  0  0  0  0  0  0  0  0  0  0  0
  146.3149  142.3746  153.3771 H   0  0  0  0  0  0  0  0  0  0  0  0
  148.3273  141.2231  152.7624 H   0  0  0  0  0  0  0  0  0  0  0  0
  154.0494  143.1337  159.8617 H   0  0  0  0  0  0  0  0  0  0  0  0
  152.4407  140.5480  160.0982 H   0  0  0  0  0  0  0  0  0  0  0  0
  153.9802  140.9213  160.8674 H   0  0  0  0  0  0  0  0  0  0  0  0
  153.9008  140.7247  159.1299 H   0  0  0  0  0  0  0  0  0  0  0  0
  1  2  1  0  0  0  0
  1 21  1  0  0  0  0
  1 22  1  0  0  0  0
  1 23  1  0  0  0  0
  2 19  1  0  0  0  0
  2  3  1  0  0  0  0
  2 24  1  0  0  0  0
  3  4  1  0  0  0  0
  3 25  1  0  0  0  0
  3 26  1  0  0  0  0
  4  5  1  0  0  0  0
  4 27  1  0  0  0  0
  4 28  1  0  0  0  0
  5  6  1  0  0  0  0
  5 29  1  0  0  0  0
  5 30  1  0  0  0  0
  6  7  1  0  0  0  0
  6 19  1  0  0  0  0
  6 31  1  0  0  0  0
  7  8  1  0  0  0  0
  7 32  1  0  0  0  0
  8  9  2  0  0  0  0
  8 10  1  0  0  0  0
 10 33  1  0  0  0  0
 10 34  1  0  0  0  0
 10 11  1  0  0  0  0
 11 12  1  0  0  0  0
 11 17  1  0  0  0  0
 12 13  1  0  0  0  0
 13 14  2  0  0  0  0
 13 15  1  0  0  0  0
 15 35  1  0  0  0  0
 15 16  2  0  0  0  0
 16 36  1  0  0  0  0
 16 17  1  0  0  0  0
 17 18  2  0  0  0  0
 19 20  1  0  0  0  0
 19 37  1  0  0  0  0
 20 38  1  0  0  0  0
 20 39  1  0  0  0  0
 20 40  1  0  0  0  0
M  CHG  1  12  -1
M  END
> <s_m_source_file>
AV-unprocessed.smi

> <i_m_source_file_index>
1464

> <i_lp_mmshare_version>
43012

> <i_f3d_flags>
0

> <s_epik_input>
W0NIM11bQ0BASF0xW0NIMl1bQ0gyXVtDSDJdW0NASF0oW0NASF0xW0NIM10pW05IXUMoPU8pW0NIMl1uMltuSF1jKD1PKVtjSF1bY0hdYzI9Tw==

> <s_epik_cmdline>
J2VwaWtfcHl0aG9uJywgJy1waCcsICc3LjAnLCAnLXRuJywgJzgnLCAnLW1hJywgJzIwMCcsICctbWV0YWxfYmluZGluZycsICctaW1hZScsICc8aW5maWxlLm1hZT4nLCAnLW9tYWUnLCAnPG91dGZpbGUubWFlPic=

> <r_lp_tautomer_probability>
1

> <r_epik_Ionization_Penalty>
0.101366

> <r_epik_Ionization_Penalty_Charging>
0.101366

> <r_epik_Ionization_Penalty_Neutral>
1.90469e-08

> <r_epik_State_Penalty>
0.035861

> <r_epik_Charging_Adjusted_Penalty>
0.137227

> <i_epik_Tot_Q>
-1

> <i_epik_Tot_abs_Q>
1

> <r_epik_Metal_State_Penalty>
0.035861

> <b_epik_Metal_Only>
0

> <s_lp_Force_Field>
OPLS_2005

> <r_lp_Energy>
23.814

> <b_lp_Chiralities_Consistent>
1

> <s_lp_Variant>
AV-unprocessed.smi:1464-8

> <Gold.Version>
5.8.1

> <Gold.Id.Protein>
6NUR|6NUR_protein|mol2

> <Gold.PLP.Fitness>
49.6161

> <Gold.PLP.PLP>
-46.8474

> <Gold.PLP.part.hbond>
-1.0000

> <Gold.PLP.part.metal>
0.0000

> <Gold.PLP.part.buried>
-4.8287

> <Gold.PLP.part.nonpolar>
-41.6198

> <Gold.PLP.part.repulsive>
0.4611

> <Gold.PLP.ligand.clash>
0.0000

> <Gold.PLP.ligand.torsion>
0.0863

> <Gold.PLP.Chemscore.Hbond>
0.9760

> <Gold.PLP.Chemscore.CHOScore>
0.0000

> <Gold.PLP.Chemscore.Metal>
0.0000

> <Gold.Chemscore.Hbonds>
donor molecule, donor type, donor heavy atom, donor atom, acceptor molecule, acceptor atom, score
      P1  H  7989  7998       L1    18  0.99

> <Gold.PLP.Chemscore.Internal.Correction>
0.0133

> <Gold.Rescore>
     Score         DG    S(hbond)    S(metal)    S(lipo)     H(rot)  DE(clash)    DE(int)     intcor
     14.86     -17.61       0.93        0.00     113.17       1.64       1.09       1.66       ----

> <Gold.Chemscore.Fitness>
14.8639

> <Gold.Chemscore.DG>
-17.6114

> <Gold.Chemscore.ZeroCoef>
-5.4800

> <Gold.Chemscore.Hbond>
0.9277

> <Gold.Chemscore.Metal>
0.0000

> <Gold.Chemscore.Lipo>
113.1694

> <Gold.Chemscore.Internal_Hbond>
0.0000

> <Gold.Chemscore.DEClash>
1.0868

> <Gold.Chemscore.DEInternal>
1.6606

> <Gold.Chemscore.Rot>
1.6438

> <Gold.Chemscore.Internal.Correction>
   9.000000E+99

> <Gold.Chemscore.Hbonds>
donor molecule, donor type, donor heavy atom, donor atom, acceptor molecule, acceptor atom, score
      P1  H  7989  7998       L1    18  0.93

> <Gold.Chemscore.Hbond.Weighted>
-3.0986

> <Gold.Chemscore.Metal.Weighted>
-0.0000

> <Gold.Chemscore.Lipo.Weighted>
-13.2408

> <Gold.Chemscore.Internal_Hbond.Weighted>
0.0000

> <Gold.Chemscore.DEClash.Weighted>
1.0868

> <Gold.Chemscore.DEInternal.Weighted>
1.6606

> <Gold.Chemscore.Rot.Weighted>
4.2080

> <Gold.Chemscore.Internal.Correction.Weighted>
   9.000000E+99

> <Gold.Protein.RotatedTorsions>
[ 6907 6896 6895 6894 ] final   62.33 input  -60.11 | X-H torsion
[ 7974 7965 7964 7962 ] final   -8.73 input  175.53 | X-H torsion
[ 8008 7997 7996 7995 ] final  -90.03 input   59.86 | X-H torsion
[ 10167 10162 10161 10158 ] final   57.94 input  -65.29 | X-H torsion
[ 10718 10713 10712 10709 ] final -134.29 input   66.30 | X-H torsion
[ 10763 10752 10751 10750 ] final   26.41 input  -60.55 | X-H torsion
[ 11005 11000 10999 10996 ] final -131.29 input  -57.11 | X-H torsion

> <Gold.Protein.ActiveResidues>
 VAL166  LYS551  ARG553  GLY616  TRP617  ASP618  TYR619  PRO620  LYS621  CYS622 
 ASP623  PHE694  ASN695  SER759  ASP760  ASP761  ALA762  ILE779  LEU786  VAL792 
 PHE793  MET794  SER795  GLU796  ALA797  LYS798  CYS799  TRP800  GLU811  SER814 

> <Gold.Protein.RotatedAtoms>
  152.4163  134.6035  160.0006 H   0  0  0  0  0  0  0  0  0  0  0  0  # atno 6907 bound_to 6896
  151.6197  133.3334  159.3093 H   0  0  0  0  0  0  0  0  0  0  0  0  # atno 6908 bound_to 6896
  150.8052  134.7211  159.6703 H   0  0  0  0  0  0  0  0  0  0  0  0  # atno 6909 bound_to 6896
  146.2272  140.2512  142.8347 H   0  0  0  0  0  0  0  0  0  0  0  0  # atno 7974 bound_to 7965
  154.6936  140.0535  157.0388 H   0  0  0  0  0  0  0  0  0  0  0  0  # atno 8008 bound_to 7997
  155.0782  140.3207  155.4591 H   0  0  0  0  0  0  0  0  0  0  0  0  # atno 8009 bound_to 7997
  156.2737  140.2069  156.5910 H   0  0  0  0  0  0  0  0  0  0  0  0  # atno 8010 bound_to 7997
  140.1926  144.4070  150.6564 H   0  0  0  0  0  0  0  0  0  0  0  0  # atno 10167 bound_to 10162
  156.2539  130.7170  151.1079 H   0  0  0  0  0  0  0  0  0  0  0  0  # atno 10718 bound_to 10713
  153.0624  135.6561  154.0432 H   0  0  0  0  0  0  0  0  0  0  0  0  # atno 10763 bound_to 10752
  154.0096  135.2929  155.3395 H   0  0  0  0  0  0  0  0  0  0  0  0  # atno 10764 bound_to 10752
  154.6968  135.5260  153.8538 H   0  0  0  0  0  0  0  0  0  0  0  0  # atno 10765 bound_to 10752
  140.9272  134.1367  157.4265 H   0  0  0  0  0  0  0  0  0  0  0  0  # atno 11005 bound_to 11000
  144.9410  140.8079  143.5630 LP  0  0  0  0  0  0  0  0  0  0  0  0  # atno 17320 bound_to 7965
  145.2463  139.2050  143.4966 LP  0  0  0  0  0  0  0  0  0  0  0  0  # atno 17321 bound_to 7965
  140.6445  143.2210  151.6216 LP  0  0  0  0  0  0  0  0  0  0  0  0  # atno 17342 bound_to 10162
  139.5250  144.3088  152.1010 LP  0  0  0  0  0  0  0  0  0  0  0  0  # atno 17343 bound_to 10162
  157.7225  131.0672  150.6074 LP  0  0  0  0  0  0  0  0  0  0  0  0  # atno 17370 bound_to 10713
  156.6157  130.4392  149.5842 LP  0  0  0  0  0  0  0  0  0  0  0  0  # atno 17371 bound_to 10713
  139.8788  134.9992  156.5943 LP  0  0  0  0  0  0  0  0  0  0  0  0  # atno 17394 bound_to 11000
  140.7911  133.8582  155.8646 LP  0  0  0  0  0  0  0  0  0  0  0  0  # atno 17395 bound_to 11000

$$$$
