AV-unprocessed.smi:667|AV-procd|sdf|3256|dock7
  -GOLD-   22720 0203D 1   1.00000     0.00000
 Structure written by MMmdl.
 48 49  0  0  0  0  0  0  0  0  1 V2000
  151.8455  145.5785  158.6990 C   0  0  0  0  0  0  0  0  0  0  0  0
  152.1223  144.1682  159.1353 C   0  0  0  0  0  0  0  0  0  0  0  0
  152.8644  143.9584  160.2097 N   0  0  0  0  0  0  0  0  0  0  0  0
  152.9237  142.6171  160.3314 N   0  0  0  0  0  0  0  0  0  0  0  0
  153.6789  142.0355  161.4240 C   0  0  0  0  0  0  0  0  0  0  0  0
  152.2135  141.9781  159.3333 C   0  0  0  0  0  0  0  0  0  0  0  0
  152.1159  140.4887  159.2480 C   0  0  0  0  0  0  0  0  0  0  0  0
  151.6866  142.9531  158.5286 C   0  0  0  0  0  0  0  0  0  0  0  0
  150.8434  142.7948  157.2879 C   0  0  0  0  0  0  0  0  0  0  0  0
  149.5434  142.0599  157.6224 C   0  0  0  0  0  0  0  0  0  0  0  0
  149.5467  141.1318  158.4318 O   0  0  0  0  0  0  0  0  0  0  0  0
  148.4367  142.4895  156.9967 N   0  0  0  0  0  0  0  0  0  0  0  0
  147.0965  141.9511  157.2025 C   0  0  0  0  0  0  0  0  0  0  0  0
  146.5961  141.1591  155.9694 C   0  0  1  0  0  0  0  0  0  0  0  0
  146.0186  142.0694  154.8923 C   0  0  0  0  0  0  0  0  0  0  0  0
  147.2297  142.4193  154.0224 C   0  0  0  0  0  0  0  0  0  0  0  0
  148.2691  141.5288  154.4165 O   0  0  0  0  0  0  0  0  0  0  0  0
  147.7039  140.4600  155.1630 C   0  0  1  0  0  0  0  0  0  0  0  0
  148.7827  139.6852  155.9532 C   0  0  0  0  0  0  0  0  0  0  0  0
  149.9490  139.2794  155.0377 C   0  0  0  0  0  0  0  0  0  0  0  0
  148.1996  138.4402  156.6443 C   0  0  0  0  0  0  0  0  0  0  0  0
  150.8318  145.6774  158.3123 H   0  0  0  0  0  0  0  0  0  0  0  0
  152.5335  145.8842  157.9109 H   0  0  0  0  0  0  0  0  0  0  0  0
  151.9499  146.2824  159.5254 H   0  0  0  0  0  0  0  0  0  0  0  0
  154.4268  141.3486  161.0272 H   0  0  0  0  0  0  0  0  0  0  0  0
  153.0059  141.4879  162.0842 H   0  0  0  0  0  0  0  0  0  0  0  0
  154.1847  142.8117  162.0000 H   0  0  0  0  0  0  0  0  0  0  0  0
  151.2671  140.1857  158.6351 H   0  0  0  0  0  0  0  0  0  0  0  0
  151.9821  140.0449  160.2345 H   0  0  0  0  0  0  0  0  0  0  0  0
  153.0190  140.0679  158.8061 H   0  0  0  0  0  0  0  0  0  0  0  0
  150.6179  143.7657  156.8447 H   0  0  0  0  0  0  0  0  0  0  0  0
  151.3679  142.2298  156.5172 H   0  0  0  0  0  0  0  0  0  0  0  0
  148.5260  143.2554  156.3449 H   0  0  0  0  0  0  0  0  0  0  0  0
  147.1177  141.3096  158.0838 H   0  0  0  0  0  0  0  0  0  0  0  0
  146.4226  142.7738  157.4422 H   0  0  0  0  0  0  0  0  0  0  0  0
  145.8510  140.4307  156.2925 H   0  0  0  0  0  0  0  0  0  0  0  0
  145.2908  141.5150  154.2982 H   0  0  0  0  0  0  0  0  0  0  0  0
  145.5147  142.9541  155.2809 H   0  0  0  0  0  0  0  0  0  0  0  0
  147.0030  142.2977  152.9627 H   0  0  0  0  0  0  0  0  0  0  0  0
  147.5576  143.4465  154.1842 H   0  0  0  0  0  0  0  0  0  0  0  0
  147.2354  139.7769  154.4509 H   0  0  0  0  0  0  0  0  0  0  0  0
  149.1950  140.3393  156.7216 H   0  0  0  0  0  0  0  0  0  0  0  0
  149.6120  138.6274  154.2310 H   0  0  0  0  0  0  0  0  0  0  0  0
  150.7198  138.7472  155.5958 H   0  0  0  0  0  0  0  0  0  0  0  0
  150.4207  140.1520  154.5850 H   0  0  0  0  0  0  0  0  0  0  0  0
  147.7756  137.7474  155.9169 H   0  0  0  0  0  0  0  0  0  0  0  0
  147.4116  138.7003  157.3507 H   0  0  0  0  0  0  0  0  0  0  0  0
  148.9682  137.9052  157.2023 H   0  0  0  0  0  0  0  0  0  0  0  0
  1  2  1  0  0  0  0
  1 22  1  0  0  0  0
  1 23  1  0  0  0  0
  1 24  1  0  0  0  0
  2  8  1  0  0  0  0
  2  3  2  0  0  0  0
  3  4  1  0  0  0  0
  4  5  1  0  0  0  0
  4  6  1  0  0  0  0
  5 25  1  0  0  0  0
  5 26  1  0  0  0  0
  5 27  1  0  0  0  0
  6  7  1  0  0  0  0
  6  8  2  0  0  0  0
  7 28  1  0  0  0  0
  7 29  1  0  0  0  0
  7 30  1  0  0  0  0
  8  9  1  0  0  0  0
  9 10  1  0  0  0  0
  9 31  1  0  0  0  0
  9 32  1  0  0  0  0
 10 11  2  0  0  0  0
 10 12  1  0  0  0  0
 12 13  1  0  0  0  0
 12 33  1  0  0  0  0
 13 14  1  0  0  0  0
 13 34  1  0  0  0  0
 13 35  1  0  0  0  0
 14 18  1  0  0  0  0
 14 15  1  0  0  0  0
 14 36  1  0  0  0  0
 15 16  1  0  0  0  0
 15 37  1  0  0  0  0
 15 38  1  0  0  0  0
 16 17  1  0  0  0  0
 16 39  1  0  0  0  0
 16 40  1  0  0  0  0
 17 18  1  0  0  0  0
 18 19  1  0  0  0  0
 18 41  1  0  0  0  0
 19 20  1  0  0  0  0
 19 21  1  0  0  0  0
 19 42  1  0  0  0  0
 20 43  1  0  0  0  0
 20 44  1  0  0  0  0
 20 45  1  0  0  0  0
 21 46  1  0  0  0  0
 21 47  1  0  0  0  0
 21 48  1  0  0  0  0
M  END
> <s_m_source_file>
AV-unprocessed.smi

> <i_m_source_file_index>
667

> <i_lp_mmshare_version>
43012

> <i_f3d_flags>
0

> <s_epik_input>
W0NIM11jMW5uKFtDSDNdKWMoW0NIM10pYzFbQ0gyXUMoPU8pW05IXVtDSDJdW0NAQEhdMltDSDJdW0NIMl1PW0NASF0yW0NIXShbQ0gzXSlbQ0gzXQ==

> <s_epik_cmdline>
J2VwaWtfcHl0aG9uJywgJy1waCcsICc3LjAnLCAnLXRuJywgJzgnLCAnLW1hJywgJzIwMCcsICctbWV0YWxfYmluZGluZycsICctaW1hZScsICc8aW5maWxlLm1hZT4nLCAnLW9tYWUnLCAnPG91dGZpbGUubWFlPic=

> <r_lp_tautomer_probability>
1

> <r_epik_Ionization_Penalty>
0.00315488

> <r_epik_Ionization_Penalty_Charging>
0

> <r_epik_Ionization_Penalty_Neutral>
0.00315488

> <r_epik_State_Penalty>
0.00222269

> <r_epik_Charging_Adjusted_Penalty>
0.00222269

> <i_epik_Tot_Q>
0

> <i_epik_Tot_abs_Q>
0

> <r_epik_Metal_State_Penalty>
-0

> <b_epik_Metal_Only>
0

> <s_lp_Force_Field>
OPLS_2005

> <r_lp_Energy>
16.6838

> <b_lp_Chiralities_Consistent>
1

> <s_lp_Variant>
AV-unprocessed.smi:667-2

> <Gold.Version>
5.8.1

> <Gold.Id.Protein>
6NUR|6NUR_protein|mol2

> <Gold.PLP.Fitness>
42.2593

> <Gold.PLP.PLP>
-40.3251

> <Gold.PLP.part.hbond>
-1.9047

> <Gold.PLP.part.metal>
0.0000

> <Gold.PLP.part.buried>
-5.4162

> <Gold.PLP.part.nonpolar>
-33.0011

> <Gold.PLP.part.repulsive>
0.1761

> <Gold.PLP.ligand.clash>
0.0000

> <Gold.PLP.ligand.torsion>
0.7232

> <Gold.PLP.Chemscore.Hbond>
1.1114

> <Gold.PLP.Chemscore.CHOScore>
0.0000

> <Gold.PLP.Chemscore.Metal>
0.0000

> <Gold.Chemscore.Hbonds>
donor molecule, donor type, donor heavy atom, donor atom, acceptor molecule, acceptor atom, score
      L1  H    12    33       P1  8028  1.00

> <Gold.PLP.Chemscore.Internal.Correction>
0.0466

> <Gold.Rescore>
     Score         DG    S(hbond)    S(metal)    S(lipo)     H(rot)  DE(clash)    DE(int)     intcor
     14.90     -16.86       0.98        0.00     102.69       1.52       0.08       1.88       ----

> <Gold.Chemscore.Fitness>
14.9045

> <Gold.Chemscore.DG>
-16.8583

> <Gold.Chemscore.ZeroCoef>
-5.4800

> <Gold.Chemscore.Hbond>
0.9754

> <Gold.Chemscore.Metal>
0.0000

> <Gold.Chemscore.Lipo>
102.6904

> <Gold.Chemscore.Internal_Hbond>
0.0000

> <Gold.Chemscore.DEClash>
0.0763

> <Gold.Chemscore.DEInternal>
1.8774

> <Gold.Chemscore.Rot>
1.5213

> <Gold.Chemscore.Internal.Correction>
   9.000000E+99

> <Gold.Chemscore.Hbonds>
donor molecule, donor type, donor heavy atom, donor atom, acceptor molecule, acceptor atom, score
      L1  H    12    33       P1  8028  0.82

> <Gold.Chemscore.Hbond.Weighted>
-3.2580

> <Gold.Chemscore.Metal.Weighted>
-0.0000

> <Gold.Chemscore.Lipo.Weighted>
-12.0148

> <Gold.Chemscore.Internal_Hbond.Weighted>
0.0000

> <Gold.Chemscore.DEClash.Weighted>
0.0763

> <Gold.Chemscore.DEInternal.Weighted>
1.8774

> <Gold.Chemscore.Rot.Weighted>
3.8945

> <Gold.Chemscore.Internal.Correction.Weighted>
   9.000000E+99

> <Gold.Protein.RotatedTorsions>
[ 6907 6896 6895 6894 ] final -164.94 input  -60.11 | X-H torsion
[ 7974 7965 7964 7962 ] final   48.38 input  175.53 | X-H torsion
[ 8008 7997 7996 7995 ] final    0.70 input   59.86 | X-H torsion
[ 10167 10162 10161 10158 ] final -130.46 input  -65.29 | X-H torsion
[ 10718 10713 10712 10709 ] final  -49.57 input   66.30 | X-H torsion
[ 10763 10752 10751 10750 ] final  157.39 input  -60.55 | X-H torsion
[ 11005 11000 10999 10996 ] final -176.88 input  -57.11 | X-H torsion

> <Gold.Protein.ActiveResidues>
 VAL166  LYS551  ARG553  GLY616  TRP617  ASP618  TYR619  PRO620  LYS621  CYS622 
 ASP623  PHE694  ASN695  SER759  ASP760  ASP761  ALA762  ILE779  LEU786  VAL792 
 PHE793  MET794  SER795  GLU796  ALA797  LYS798  CYS799  TRP800  GLU811  SER814 

> <Gold.Protein.RotatedAtoms>
  151.4197  133.3702  159.2754 H   0  0  0  0  0  0  0  0  0  0  0  0  # atno 6907 bound_to 6896
  150.9302  134.8719  159.7557 H   0  0  0  0  0  0  0  0  0  0  0  0  # atno 6908 bound_to 6896
  152.5024  134.4141  159.9511 H   0  0  0  0  0  0  0  0  0  0  0  0  # atno 6909 bound_to 6896
  146.0209  139.4650  142.9897 H   0  0  0  0  0  0  0  0  0  0  0  0  # atno 7974 bound_to 7965
  154.6712  140.2612  155.7005 H   0  0  0  0  0  0  0  0  0  0  0  0  # atno 8008 bound_to 7997
  156.2659  140.2829  156.1143 H   0  0  0  0  0  0  0  0  0  0  0  0  # atno 8009 bound_to 7997
  155.1166  140.0376  157.2729 H   0  0  0  0  0  0  0  0  0  0  0  0  # atno 8010 bound_to 7997
  139.9291  143.6293  152.2534 H   0  0  0  0  0  0  0  0  0  0  0  0  # atno 10167 bound_to 10162
  156.1881  130.4152  149.9410 H   0  0  0  0  0  0  0  0  0  0  0  0  # atno 10718 bound_to 10713
  154.1995  135.2791  155.2995 H   0  0  0  0  0  0  0  0  0  0  0  0  # atno 10763 bound_to 10752
  154.5865  135.5573  153.7240 H   0  0  0  0  0  0  0  0  0  0  0  0  # atno 10764 bound_to 10752
  153.0091  135.6357  154.2134 H   0  0  0  0  0  0  0  0  0  0  0  0  # atno 10765 bound_to 10752
  140.4471  134.6378  157.4784 H   0  0  0  0  0  0  0  0  0  0  0  0  # atno 11005 bound_to 11000
  145.7194  141.0080  143.1411 LP  0  0  0  0  0  0  0  0  0  0  0  0  # atno 17320 bound_to 7965
  144.6990  139.8852  143.7449 LP  0  0  0  0  0  0  0  0  0  0  0  0  # atno 17321 bound_to 7965
  139.6797  144.7656  151.1630 LP  0  0  0  0  0  0  0  0  0  0  0  0  # atno 17342 bound_to 10162
  140.7642  143.5742  150.8963 LP  0  0  0  0  0  0  0  0  0  0  0  0  # atno 17343 bound_to 10162
  156.7159  130.8988  151.3614 LP  0  0  0  0  0  0  0  0  0  0  0  0  # atno 17370 bound_to 10713
  157.6912  130.9235  150.0518 LP  0  0  0  0  0  0  0  0  0  0  0  0  # atno 17371 bound_to 10713
  140.0031  134.6805  155.9498 LP  0  0  0  0  0  0  0  0  0  0  0  0  # atno 17394 bound_to 11000
  141.1680  133.6537  156.4549 LP  0  0  0  0  0  0  0  0  0  0  0  0  # atno 17395 bound_to 11000

$$$$
