AV-unprocessed.smi:3032|AV-procd|sdf|11557|dock7
  -GOLD-   2272016523D 1   1.00000     0.00000
 Structure written by MMmdl.
 37 38  0  0  0  0  0  0  0  0  1 V2000
  152.7379  143.2377  162.0125 C   0  0  0  0  0  0  0  0  0  0  0  0
  152.0798  143.3904  160.6340 C   0  0  2  0  0  0  0  0  0  0  0  0
  153.1101  143.7781  159.5572 C   0  0  0  0  0  0  0  0  0  0  0  0
  152.4577  143.9089  158.1724 C   0  0  0  0  0  0  0  0  0  0  0  0
  151.2710  144.8936  158.1898 C   0  0  0  0  0  0  0  0  0  0  0  0
  150.2353  144.6029  159.3039 C   0  0  1  0  0  0  0  0  0  0  0  0
  149.2973  143.4217  158.9933 C   0  0  0  0  0  0  0  0  0  0  0  0
  148.3277  143.1687  159.7081 O   0  0  0  0  0  0  0  0  0  0  0  0
  149.5995  142.7063  157.8991 N   0  0  0  0  0  0  0  0  0  0  0  0
  148.8053  141.6037  157.3643 C   0  0  0  0  0  0  0  0  0  0  0  0
  149.2645  141.1467  155.9635 C   0  0  0  0  0  0  0  0  0  0  0  0
  150.5274  140.3428  155.9689 C   0  0  0  0  0  0  0  0  0  0  0  0
  151.4184  140.4226  156.9598 N   0  0  0  0  0  0  0  0  0  0  0  0
  152.4376  139.5738  156.7126 N   0  0  0  0  0  0  0  0  0  0  0  0
  152.0738  139.0333  155.5512 C   0  0  0  0  0  0  0  0  0  0  0  0
  150.8875  139.4720  155.0323 N   0  0  0  0  0  0  0  0  0  0  0  0
  150.9383  144.4274  160.6691 C   0  0  0  0  0  0  0  0  0  0  0  0
  151.3701  141.0027  157.7854 H   0  0  0  0  0  0  0  0  0  0  0  0
  153.1863  144.1745  162.3446 H   0  0  0  0  0  0  0  0  0  0  0  0
  153.5227  142.4813  161.9913 H   0  0  0  0  0  0  0  0  0  0  0  0
  152.0087  142.9331  162.7638 H   0  0  0  0  0  0  0  0  0  0  0  0
  151.6597  142.4195  160.3683 H   0  0  0  0  0  0  0  0  0  0  0  0
  153.5853  144.7228  159.8251 H   0  0  0  0  0  0  0  0  0  0  0  0
  153.9060  143.0337  159.5153 H   0  0  0  0  0  0  0  0  0  0  0  0
  153.2000  144.2455  157.4482 H   0  0  0  0  0  0  0  0  0  0  0  0
  152.1342  142.9265  157.8300 H   0  0  0  0  0  0  0  0  0  0  0  0
  151.6595  145.9026  158.3332 H   0  0  0  0  0  0  0  0  0  0  0  0
  150.7853  144.9012  157.2131 H   0  0  0  0  0  0  0  0  0  0  0  0
  149.5944  145.4833  159.3757 H   0  0  0  0  0  0  0  0  0  0  0  0
  150.4162  142.9753  157.3696 H   0  0  0  0  0  0  0  0  0  0  0  0
  148.9073  140.7720  158.0617 H   0  0  0  0  0  0  0  0  0  0  0  0
  147.7474  141.8688  157.3532 H   0  0  0  0  0  0  0  0  0  0  0  0
  148.4771  140.5571  155.4927 H   0  0  0  0  0  0  0  0  0  0  0  0
  149.4109  142.0173  155.3229 H   0  0  0  0  0  0  0  0  0  0  0  0
  152.6856  138.2924  155.0581 H   0  0  0  0  0  0  0  0  0  0  0  0
  150.2097  144.1486  161.4321 H   0  0  0  0  0  0  0  0  0  0  0  0
  151.3387  145.3915  160.9854 H   0  0  0  0  0  0  0  0  0  0  0  0
  1  2  1  0  0  0  0
  1 19  1  0  0  0  0
  1 20  1  0  0  0  0
  1 21  1  0  0  0  0
  2 17  1  0  0  0  0
  2  3  1  0  0  0  0
  2 22  1  0  0  0  0
  3  4  1  0  0  0  0
  3 23  1  0  0  0  0
  3 24  1  0  0  0  0
  4  5  1  0  0  0  0
  4 25  1  0  0  0  0
  4 26  1  0  0  0  0
  5  6  1  0  0  0  0
  5 27  1  0  0  0  0
  5 28  1  0  0  0  0
  6  7  1  0  0  0  0
  6 17  1  0  0  0  0
  6 29  1  0  0  0  0
  7  8  2  0  0  0  0
  7  9  1  0  0  0  0
  9 10  1  0  0  0  0
  9 30  1  0  0  0  0
 10 11  1  0  0  0  0
 10 31  1  0  0  0  0
 10 32  1  0  0  0  0
 11 33  1  0  0  0  0
 11 34  1  0  0  0  0
 11 12  1  0  0  0  0
 12 16  2  0  0  0  0
 12 13  1  0  0  0  0
 13 18  1  0  0  0  0
 13 14  1  0  0  0  0
 14 15  2  0  0  0  0
 15 16  1  0  0  0  0
 15 35  1  0  0  0  0
 17 36  1  0  0  0  0
 17 37  1  0  0  0  0
M  END
> <s_m_source_file>
AV-unprocessed.smi

> <i_m_source_file_index>
3032

> <i_lp_mmshare_version>
43012

> <i_f3d_flags>
0

> <s_epik_input>
W0NIM11bQ0BASF0xW0NIMl1bQ0gyXVtDSDJdW0NASF0oW0NIMl0xKUMoPU8pW05IXVtDSDJdW0NIMl1jMm5uW2NIXVtuSF0y

> <s_epik_cmdline>
J2VwaWtfcHl0aG9uJywgJy1waCcsICc3LjAnLCAnLXRuJywgJzgnLCAnLW1hJywgJzIwMCcsICctbWV0YWxfYmluZGluZycsICctaW1hZScsICc8aW5maWxlLm1hZT4nLCAnLW9tYWUnLCAnPG91dGZpbGUubWFlPic=

> <r_lp_tautomer_probability>
0.948284

> <r_epik_Ionization_Penalty>
0.000474052

> <r_epik_Ionization_Penalty_Charging>
0

> <r_epik_Ionization_Penalty_Neutral>
0.000474052

> <r_epik_State_Penalty>
0.271807

> <r_epik_Charging_Adjusted_Penalty>
0.271807

> <i_epik_Tot_Q>
0

> <i_epik_Tot_abs_Q>
0

> <r_epik_Metal_State_Penalty>
0.397201

> <b_epik_Metal_Only>
0

> <s_lp_Force_Field>
OPLS_2005

> <r_lp_Energy>
8.45965

> <b_lp_Chiralities_Consistent>
1

> <s_lp_Variant>
AV-unprocessed.smi:3032-1

> <Gold.Version>
5.8.1

> <Gold.Id.Protein>
6NUR|6NUR_protein|mol2

> <Gold.PLP.Fitness>
45.2060

> <Gold.PLP.PLP>
-38.3775

> <Gold.PLP.part.hbond>
-4.0000

> <Gold.PLP.part.metal>
0.0000

> <Gold.PLP.part.buried>
-6.0348

> <Gold.PLP.part.nonpolar>
-28.7101

> <Gold.PLP.part.repulsive>
0.3432

> <Gold.PLP.ligand.clash>
0.0000

> <Gold.PLP.ligand.torsion>
0.5144

> <Gold.PLP.Chemscore.Hbond>
2.6032

> <Gold.PLP.Chemscore.CHOScore>
0.0000

> <Gold.PLP.Chemscore.Metal>
0.0000

> <Gold.Chemscore.Hbonds>
donor molecule, donor type, donor heavy atom, donor atom, acceptor molecule, acceptor atom, score
      P1  H  6933  6944       L1     8  0.64
      P1  H  7989  7998       L1    16  0.57
      P1  H  7997  8010       L1    14  0.96

> <Gold.PLP.Chemscore.Internal.Correction>
0.0476

> <Gold.Rescore>
     Score         DG    S(hbond)    S(metal)    S(lipo)     H(rot)  DE(clash)    DE(int)     intcor
     15.91     -16.23       1.70        0.00      92.61       2.25       0.07       0.25       ----

> <Gold.Chemscore.Fitness>
15.9072

> <Gold.Chemscore.DG>
-16.2305

> <Gold.Chemscore.ZeroCoef>
-5.4800

> <Gold.Chemscore.Hbond>
1.6991

> <Gold.Chemscore.Metal>
0.0000

> <Gold.Chemscore.Lipo>
92.6149

> <Gold.Chemscore.Internal_Hbond>
0.0000

> <Gold.Chemscore.DEClash>
0.0712

> <Gold.Chemscore.DEInternal>
0.2522

> <Gold.Chemscore.Rot>
2.2501

> <Gold.Chemscore.Internal.Correction>
   9.000000E+99

> <Gold.Chemscore.Hbonds>
donor molecule, donor type, donor heavy atom, donor atom, acceptor molecule, acceptor atom, score
      P1  H  6933  6944       L1     8  0.63
      P1  H  7989  7998       L1    16  0.04
      P1  H  7997  8010       L1    14  0.23

> <Gold.Chemscore.Hbond.Weighted>
-5.6749

> <Gold.Chemscore.Metal.Weighted>
-0.0000

> <Gold.Chemscore.Lipo.Weighted>
-10.8359

> <Gold.Chemscore.Internal_Hbond.Weighted>
0.0000

> <Gold.Chemscore.DEClash.Weighted>
0.0712

> <Gold.Chemscore.DEInternal.Weighted>
0.2522

> <Gold.Chemscore.Rot.Weighted>
5.7603

> <Gold.Chemscore.Internal.Correction.Weighted>
   9.000000E+99

> <Gold.Protein.RotatedTorsions>
[ 6907 6896 6895 6894 ] final  -74.29 input  -60.11 | X-H torsion
[ 7974 7965 7964 7962 ] final  -67.69 input  175.53 | X-H torsion
[ 8008 7997 7996 7995 ] final   84.59 input   59.86 | X-H torsion
[ 10167 10162 10161 10158 ] final  116.93 input  -65.29 | X-H torsion
[ 10718 10713 10712 10709 ] final -110.86 input   66.30 | X-H torsion
[ 10763 10752 10751 10750 ] final  -65.36 input  -60.55 | X-H torsion
[ 11005 11000 10999 10996 ] final   16.77 input  -57.11 | X-H torsion

> <Gold.Protein.ActiveResidues>
 VAL166  LYS551  ARG553  GLY616  TRP617  ASP618  TYR619  PRO620  LYS621  CYS622 
 ASP623  PHE694  ASN695  SER759  ASP760  ASP761  ALA762  ILE779  LEU786  VAL792 
 PHE793  MET794  SER795  GLU796  ALA797  LYS798  CYS799  TRP800  GLU811  SER814 

> <Gold.Protein.RotatedAtoms>
  150.7098  134.4890  159.5506 H   0  0  0  0  0  0  0  0  0  0  0  0  # atno 6907 bound_to 6896
  152.2512  134.8128  160.0455 H   0  0  0  0  0  0  0  0  0  0  0  0  # atno 6908 bound_to 6896
  151.8875  133.3473  159.3824 H   0  0  0  0  0  0  0  0  0  0  0  0  # atno 6909 bound_to 6896
  145.7260  140.9018  143.0605 H   0  0  0  0  0  0  0  0  0  0  0  0  # atno 7974 bound_to 7965
  155.9390  140.3409  155.6312 H   0  0  0  0  0  0  0  0  0  0  0  0  # atno 8008 bound_to 7997
  155.7063  140.0766  157.2408 H   0  0  0  0  0  0  0  0  0  0  0  0  # atno 8009 bound_to 7997
  154.4099  140.1631  156.2234 H   0  0  0  0  0  0  0  0  0  0  0  0  # atno 8010 bound_to 7997
  139.6213  144.7101  151.2628 H   0  0  0  0  0  0  0  0  0  0  0  0  # atno 10167 bound_to 10162
  156.0614  130.5837  150.8294 H   0  0  0  0  0  0  0  0  0  0  0  0  # atno 10718 bound_to 10713
  154.3438  135.6151  153.5609 H   0  0  0  0  0  0  0  0  0  0  0  0  # atno 10763 bound_to 10752
  152.9802  135.5776  154.4822 H   0  0  0  0  0  0  0  0  0  0  0  0  # atno 10764 bound_to 10752
  154.4531  135.2853  155.1744 H   0  0  0  0  0  0  0  0  0  0  0  0  # atno 10765 bound_to 10752
  140.4434  134.1298  155.7693 H   0  0  0  0  0  0  0  0  0  0  0  0  # atno 11005 bound_to 11000
  144.6904  139.9267  143.7470 LP  0  0  0  0  0  0  0  0  0  0  0  0  # atno 17320 bound_to 7965
  146.0581  139.3577  143.0598 LP  0  0  0  0  0  0  0  0  0  0  0  0  # atno 17321 bound_to 7965
  140.7384  143.6650  150.8131 LP  0  0  0  0  0  0  0  0  0  0  0  0  # atno 17342 bound_to 10162
  140.0261  143.5492  152.2780 LP  0  0  0  0  0  0  0  0  0  0  0  0  # atno 17343 bound_to 10162
  157.5625  131.0946  150.9538 LP  0  0  0  0  0  0  0  0  0  0  0  0  # atno 17370 bound_to 10713
  156.9772  130.5513  149.5294 LP  0  0  0  0  0  0  0  0  0  0  0  0  # atno 17371 bound_to 10713
  141.1695  133.8636  157.1612 LP  0  0  0  0  0  0  0  0  0  0  0  0  # atno 17394 bound_to 11000
  140.0054  135.0010  157.0282 LP  0  0  0  0  0  0  0  0  0  0  0  0  # atno 17395 bound_to 11000

$$$$
