AV-unprocessed.smi:2784|AV-procd|sdf|10734|dock1
  -GOLD-   2272015173D 1   1.00000     0.00000
 Structure written by MMmdl.
 31 32  0  0  0  0  0  0  0  0  1 V2000
  151.1150  138.0534  154.6828 C   0  0  0  0  0  0  0  0  0  0  0  0
  150.9760  139.4433  154.4333 O   0  0  0  0  0  0  0  0  0  0  0  0
  149.7565  139.9887  154.9178 C   0  0  2  0  0  0  0  0  0  0  0  0
  148.5789  139.3200  154.2034 C   0  0  0  0  0  0  0  0  0  0  0  0
  147.4739  140.3697  154.2309 C   0  0  0  0  0  0  0  0  0  0  0  0
  148.2143  141.6874  154.0041 C   0  0  0  0  0  0  0  0  0  0  0  0
  149.6124  141.5004  154.6266 C   0  0  1  0  0  0  0  0  0  0  0  0
  149.7466  142.2745  155.8584 N   0  0  0  0  0  0  0  0  0  0  0  0
  150.6427  142.0458  156.8295 C   0  0  0  0  0  0  0  0  0  0  0  0
  151.4648  141.1276  156.7504 O   0  0  0  0  0  0  0  0  0  0  0  0
  150.4595  142.9435  157.8705 N   0  0  0  0  0  0  0  0  0  0  0  0
  151.4273  143.1572  158.7085 C   0  0  0  0  0  0  0  0  0  0  0  0
  152.7115  142.6321  158.8265 N   0  0  0  0  0  0  0  0  0  0  0  0
  153.3098  143.2097  159.9111 C   0  0  0  0  0  0  0  0  0  0  0  0
  152.4442  144.0600  160.4548 C   0  0  0  0  0  0  0  0  0  0  0  0
  151.2835  144.0492  159.7410 O   0  0  0  0  0  0  0  0  0  0  0  0
  152.0577  137.7012  154.2643 H   0  0  0  0  0  0  0  0  0  0  0  0
  150.3089  137.4863  154.2159 H   0  0  0  0  0  0  0  0  0  0  0  0
  151.1225  137.8342  155.7508 H   0  0  0  0  0  0  0  0  0  0  0  0
  149.6535  139.7886  155.9867 H   0  0  0  0  0  0  0  0  0  0  0  0
  148.8447  139.1050  153.1673 H   0  0  0  0  0  0  0  0  0  0  0  0
  148.2828  138.3809  154.6717 H   0  0  0  0  0  0  0  0  0  0  0  0
  146.7012  140.1877  153.4836 H   0  0  0  0  0  0  0  0  0  0  0  0
  146.9971  140.3776  155.2120 H   0  0  0  0  0  0  0  0  0  0  0  0
  148.3209  141.8582  152.9319 H   0  0  0  0  0  0  0  0  0  0  0  0
  147.6662  142.5392  154.4093 H   0  0  0  0  0  0  0  0  0  0  0  0
  150.3686  141.8129  153.9039 H   0  0  0  0  0  0  0  0  0  0  0  0
  149.0970  143.0364  155.9884 H   0  0  0  0  0  0  0  0  0  0  0  0
  153.1620  141.9453  158.2385 H   0  0  0  0  0  0  0  0  0  0  0  0
  154.3197  142.9426  160.1857 H   0  0  0  0  0  0  0  0  0  0  0  0
  152.4997  144.7160  161.3110 H   0  0  0  0  0  0  0  0  0  0  0  0
  1  2  1  0  0  0  0
  1 17  1  0  0  0  0
  1 18  1  0  0  0  0
  1 19  1  0  0  0  0
  2  3  1  0  0  0  0
  3  7  1  0  0  0  0
  3  4  1  0  0  0  0
  3 20  1  0  0  0  0
  4  5  1  0  0  0  0
  4 21  1  0  0  0  0
  4 22  1  0  0  0  0
  5  6  1  0  0  0  0
  5 23  1  0  0  0  0
  5 24  1  0  0  0  0
  6  7  1  0  0  0  0
  6 25  1  0  0  0  0
  6 26  1  0  0  0  0
  7  8  1  0  0  0  0
  7 27  1  0  0  0  0
  8 28  1  0  0  0  0
  8  9  1  0  0  0  0
  9 11  1  0  0  0  0
  9 10  2  0  0  0  0
 11 12  2  0  0  0  0
 12 16  1  0  0  0  0
 12 13  1  0  0  0  0
 13 29  1  0  0  0  0
 13 14  1  0  0  0  0
 14 30  1  0  0  0  0
 14 15  2  0  0  0  0
 15 31  1  0  0  0  0
 15 16  1  0  0  0  0
M  END
> <s_m_source_file>
AV-unprocessed.smi

> <i_m_source_file_index>
2784

> <i_lp_mmshare_version>
43012

> <i_f3d_flags>
0

> <s_epik_input>
W0NIM11PW0NAQEhdMVtDSDJdW0NIMl1bQ0gyXVtDQEhdMVtOSF1DKD1PKVtOSF1jMm5bY0hdW2NIXW8y

> <s_epik_cmdline>
J2VwaWtfcHl0aG9uJywgJy1waCcsICc3LjAnLCAnLXRuJywgJzgnLCAnLW1hJywgJzIwMCcsICctbWV0YWxfYmluZGluZycsICctaW1hZScsICc8aW5maWxlLm1hZT4nLCAnLW9tYWUnLCAnPG91dGZpbGUubWFlPic=

> <r_lp_tautomer_probability>
0.107061

> <r_epik_Ionization_Penalty>
1.29244

> <r_epik_Ionization_Penalty_Charging>
1.29208

> <r_epik_Ionization_Penalty_Neutral>
0.000359742

> <r_epik_State_Penalty>
2.59896

> <r_epik_Charging_Adjusted_Penalty>
3.89105

> <i_epik_Tot_Q>
0

> <i_epik_Tot_abs_Q>
0

> <r_epik_Metal_State_Penalty>
3.62496

> <b_epik_Metal_Only>
0

> <s_lp_Force_Field>
OPLS_2005

> <r_lp_Energy>
42.7812

> <b_lp_Chiralities_Consistent>
1

> <s_lp_Variant>
AV-unprocessed.smi:2784-9

> <Gold.Version>
5.8.1

> <Gold.Id.Protein>
6NUR|6NUR_protein|mol2

> <Gold.PLP.Fitness>
35.9730

> <Gold.PLP.PLP>
-31.5429

> <Gold.PLP.part.hbond>
-2.6021

> <Gold.PLP.part.metal>
0.0000

> <Gold.PLP.part.buried>
-2.8359

> <Gold.PLP.part.nonpolar>
-24.5223

> <Gold.PLP.part.repulsive>
0.4966

> <Gold.PLP.ligand.clash>
0.0000

> <Gold.PLP.ligand.torsion>
0.3683

> <Gold.PLP.Chemscore.Hbond>
1.7200

> <Gold.PLP.Chemscore.CHOScore>
0.0000

> <Gold.PLP.Chemscore.Metal>
0.0000

> <Gold.Chemscore.Hbonds>
donor molecule, donor type, donor heavy atom, donor atom, acceptor molecule, acceptor atom, score
      L1  H     8    28       P1  8028  0.85
      P1  H  7989  7998       L1     2  1.00

> <Gold.PLP.Chemscore.Internal.Correction>
0.0067

> <Gold.Rescore>
     Score         DG    S(hbond)    S(metal)    S(lipo)     H(rot)  DE(clash)    DE(int)     intcor
     11.56     -14.59       1.41        0.00      66.57       1.32       0.05       2.99       ----

> <Gold.Chemscore.Fitness>
11.5557

> <Gold.Chemscore.DG>
-14.5907

> <Gold.Chemscore.ZeroCoef>
-5.4800

> <Gold.Chemscore.Hbond>
1.4102

> <Gold.Chemscore.Metal>
0.0000

> <Gold.Chemscore.Lipo>
66.5714

> <Gold.Chemscore.Internal_Hbond>
0.0000

> <Gold.Chemscore.DEClash>
0.0488

> <Gold.Chemscore.DEInternal>
2.9862

> <Gold.Chemscore.Rot>
1.3235

> <Gold.Chemscore.Internal.Correction>
   9.000000E+99

> <Gold.Chemscore.Hbonds>
donor molecule, donor type, donor heavy atom, donor atom, acceptor molecule, acceptor atom, score
      L1  H     8    28       P1  8028  0.83
      P1  H  7989  7998       L1     2  0.30

> <Gold.Chemscore.Hbond.Weighted>
-4.7100

> <Gold.Chemscore.Metal.Weighted>
-0.0000

> <Gold.Chemscore.Lipo.Weighted>
-7.7889

> <Gold.Chemscore.Internal_Hbond.Weighted>
0.0000

> <Gold.Chemscore.DEClash.Weighted>
0.0488

> <Gold.Chemscore.DEInternal.Weighted>
2.9862

> <Gold.Chemscore.Rot.Weighted>
3.3882

> <Gold.Chemscore.Internal.Correction.Weighted>
   9.000000E+99

> <Gold.Protein.RotatedTorsions>
[ 6907 6896 6895 6894 ] final   21.67 input  -60.11 | X-H torsion
[ 7974 7965 7964 7962 ] final  -45.70 input  175.53 | X-H torsion
[ 8008 7997 7996 7995 ] final  -77.52 input   59.86 | X-H torsion
[ 10167 10162 10161 10158 ] final   16.71 input  -65.29 | X-H torsion
[ 10718 10713 10712 10709 ] final -179.59 input   66.30 | X-H torsion
[ 10763 10752 10751 10750 ] final  120.20 input  -60.55 | X-H torsion
[ 11005 11000 10999 10996 ] final  -95.27 input  -57.11 | X-H torsion

> <Gold.Protein.ActiveResidues>
 VAL166  LYS551  ARG553  GLY616  TRP617  ASP618  TYR619  PRO620  LYS621  CYS622 
 ASP623  PHE694  ASN695  SER759  ASP760  ASP761  ALA762  ILE779  LEU786  VAL792 
 PHE793  MET794  SER795  GLU796  ALA797  LYS798  CYS799  TRP800  GLU811  SER814 

> <Gold.Protein.RotatedAtoms>
  151.9153  135.0321  160.0517 H   0  0  0  0  0  0  0  0  0  0  0  0  # atno 6907 bound_to 6896
  152.2245  133.5005  159.5189 H   0  0  0  0  0  0  0  0  0  0  0  0  # atno 6908 bound_to 6896
  150.7008  134.1215  159.4079 H   0  0  0  0  0  0  0  0  0  0  0  0  # atno 6909 bound_to 6896
  145.9794  140.7300  142.9371 H   0  0  0  0  0  0  0  0  0  0  0  0  # atno 7974 bound_to 7965
  154.5604  140.0709  156.8810 H   0  0  0  0  0  0  0  0  0  0  0  0  # atno 8008 bound_to 7997
  155.2822  140.3372  155.4239 H   0  0  0  0  0  0  0  0  0  0  0  0  # atno 8009 bound_to 7997
  156.2037  140.1732  156.7830 H   0  0  0  0  0  0  0  0  0  0  0  0  # atno 8010 bound_to 7997
  140.5778  143.9039  150.6764 H   0  0  0  0  0  0  0  0  0  0  0  0  # atno 10167 bound_to 10162
  156.8613  130.9752  151.3083 H   0  0  0  0  0  0  0  0  0  0  0  0  # atno 10718 bound_to 10713
  153.5948  135.3459  155.2924 H   0  0  0  0  0  0  0  0  0  0  0  0  # atno 10763 bound_to 10752
  154.8646  135.4213  154.2477 H   0  0  0  0  0  0  0  0  0  0  0  0  # atno 10764 bound_to 10752
  153.3292  135.7043  153.7033 H   0  0  0  0  0  0  0  0  0  0  0  0  # atno 10765 bound_to 10752
  141.1446  133.8014  157.0412 H   0  0  0  0  0  0  0  0  0  0  0  0  # atno 11005 bound_to 11000
  144.6857  140.2882  143.7282 LP  0  0  0  0  0  0  0  0  0  0  0  0  # atno 17320 bound_to 7965
  145.7792  139.1885  143.2168 LP  0  0  0  0  0  0  0  0  0  0  0  0  # atno 17321 bound_to 7965
  140.2531  143.3579  152.1389 LP  0  0  0  0  0  0  0  0  0  0  0  0  # atno 17342 bound_to 10162
  139.5152  144.6960  151.5629 LP  0  0  0  0  0  0  0  0  0  0  0  0  # atno 17343 bound_to 10162
  157.6248  130.8683  149.9171 LP  0  0  0  0  0  0  0  0  0  0  0  0  # atno 17370 bound_to 10713
  156.0775  130.3677  150.0647 LP  0  0  0  0  0  0  0  0  0  0  0  0  # atno 17371 bound_to 10713
  140.0691  134.9712  157.1437 LP  0  0  0  0  0  0  0  0  0  0  0  0  # atno 17394 bound_to 11000
  140.3736  134.2363  155.7176 LP  0  0  0  0  0  0  0  0  0  0  0  0  # atno 17395 bound_to 11000

$$$$
