AV-unprocessed.smi:1813|AV-procd|sdf|7342|dock1
  -GOLD-   22720 9 03D 1   1.00000     0.00000
 Structure written by MMmdl.
 40 41  0  0  0  0  0  0  0  0  2 V2000
  141.5983  138.8891  155.2893 C   0  0  0  0  0  0  0  0  0  0  0  0
  142.4908  140.0172  155.0701 N   0  0  0  0  0  0  0  0  0  0  0  0
  143.1625  140.6473  156.0441 C   0  0  0  0  0  0  0  0  0  0  0  0
  143.0833  140.3318  157.2319 O   0  0  0  0  0  0  0  0  0  0  0  0
  144.0431  141.8233  155.6096 C   0  0  0  0  0  0  0  0  0  0  0  0
  145.2562  141.3964  154.8658 N   0  3  2  0  0  0  0  0  0  0  0  0
  146.0816  140.4295  155.6334 C   0  0  0  0  0  0  0  0  0  0  0  0
  147.2464  139.8910  154.7823 C   0  0  0  0  0  0  0  0  0  0  0  0
  148.1187  141.0223  154.2100 C   0  0  2  0  0  0  0  0  0  0  0  0
  148.9163  141.6415  155.2687 N   0  0  0  0  0  0  0  0  0  0  0  0
  149.9346  141.0531  155.9138 C   0  0  0  0  0  0  0  0  0  0  0  0
  150.3205  139.9099  155.6688 O   0  0  0  0  0  0  0  0  0  0  0  0
  150.4627  141.8707  156.8415 N   0  0  0  0  0  0  0  0  0  0  0  0
  151.5566  141.6188  157.7109 C   0  0  0  0  0  0  0  0  0  0  0  0
  151.8423  140.4218  158.2366 N   0  0  0  0  0  0  0  0  0  0  0  0
  152.9754  140.4646  159.0529 C   0  0  0  0  0  0  0  0  0  0  0  0
  153.5443  141.7111  159.1372 C   0  0  0  0  0  0  0  0  0  0  0  0
  152.6735  142.8882  158.1909 S   0  0  0  0  0  0  0  0  0  0  0  0
  147.2270  142.0499  153.4839 C   0  0  0  0  0  0  0  0  0  0  0  0
  146.0706  142.5390  154.3726 C   0  0  0  0  0  0  0  0  0  0  0  0
  141.2496  138.4994  154.3331 H   0  0  0  0  0  0  0  0  0  0  0  0
  140.7276  139.1928  155.8717 H   0  0  0  0  0  0  0  0  0  0  0  0
  142.1077  138.0829  155.8189 H   0  0  0  0  0  0  0  0  0  0  0  0
  142.6002  140.3396  154.1190 H   0  0  0  0  0  0  0  0  0  0  0  0
  143.4688  142.5345  155.0135 H   0  0  0  0  0  0  0  0  0  0  0  0
  144.3362  142.3441  156.5220 H   0  0  0  0  0  0  0  0  0  0  0  0
  146.4592  140.9091  156.5376 H   0  0  0  0  0  0  0  0  0  0  0  0
  145.4621  139.5918  155.9556 H   0  0  0  0  0  0  0  0  0  0  0  0
  147.8552  139.2034  155.3707 H   0  0  0  0  0  0  0  0  0  0  0  0
  146.8399  139.3037  153.9577 H   0  0  0  0  0  0  0  0  0  0  0  0
  148.8089  140.5827  153.4874 H   0  0  0  0  0  0  0  0  0  0  0  0
  148.6637  142.5799  155.5416 H   0  0  0  0  0  0  0  0  0  0  0  0
  150.0378  142.7812  156.9349 H   0  0  0  0  0  0  0  0  0  0  0  0
  153.3084  139.5580  159.5359 H   0  0  0  0  0  0  0  0  0  0  0  0
  154.4193  142.0064  159.6970 H   0  0  0  0  0  0  0  0  0  0  0  0
  147.8177  142.8988  153.1381 H   0  0  0  0  0  0  0  0  0  0  0  0
  146.8120  141.5901  152.5861 H   0  0  0  0  0  0  0  0  0  0  0  0
  145.4475  143.2241  153.7974 H   0  0  0  0  0  0  0  0  0  0  0  0
  146.4583  143.1063  155.2202 H   0  0  0  0  0  0  0  0  0  0  0  0
  144.9232  140.9002  154.0509 H   0  0  0  0  0  0  0  0  0  0  0  0
  1  2  1  0  0  0  0
  1 21  1  0  0  0  0
  1 22  1  0  0  0  0
  1 23  1  0  0  0  0
  2  3  1  0  0  0  0
  2 24  1  0  0  0  0
  3  4  2  0  0  0  0
  3  5  1  0  0  0  0
  5  6  1  0  0  0  0
  5 25  1  0  0  0  0
  5 26  1  0  0  0  0
  6 20  1  0  0  0  0
  6  7  1  0  0  0  0
  6 40  1  0  0  0  0
  7  8  1  0  0  0  0
  7 27  1  0  0  0  0
  7 28  1  0  0  0  0
  8  9  1  0  0  0  0
  8 29  1  0  0  0  0
  8 30  1  0  0  0  0
  9 10  1  0  0  0  0
  9 19  1  0  0  0  0
  9 31  1  0  0  0  0
 10 11  1  0  0  0  0
 10 32  1  0  0  0  0
 11 12  2  0  0  0  0
 11 13  1  0  0  0  0
 13 14  1  0  0  0  0
 13 33  1  0  0  0  0
 14 18  1  0  0  0  0
 14 15  2  0  0  0  0
 15 16  1  0  0  0  0
 16 17  2  0  0  0  0
 16 34  1  0  0  0  0
 17 18  1  0  0  0  0
 17 35  1  0  0  0  0
 19 20  1  0  0  0  0
 19 36  1  0  0  0  0
 19 37  1  0  0  0  0
 20 38  1  0  0  0  0
 20 39  1  0  0  0  0
M  CHG  1   6   1
M  END
> <s_m_source_file>
AV-unprocessed.smi

> <i_m_source_file_index>
1813

> <i_lp_mmshare_version>
43012

> <i_f3d_flags>
0

> <s_epik_input>
W0NIM11bTkhdQyg9TylbQ0gyXU4xW0NIMl1bQ0gyXVtDSF0oW0NIMl1bQ0gyXTEpW05IXUMoPU8pW05IXWMybltjSF1bY0hdczI=

> <s_epik_cmdline>
J2VwaWtfcHl0aG9uJywgJy1waCcsICc3LjAnLCAnLXRuJywgJzgnLCAnLW1hJywgJzIwMCcsICctbWV0YWxfYmluZGluZycsICctaW1hZScsICc8aW5maWxlLm1hZT4nLCAnLW9tYWUnLCAnPG91dGZpbGUubWFlPic=

> <r_lp_tautomer_probability>
0.999

> <r_epik_Ionization_Penalty>
0.862509

> <r_epik_Ionization_Penalty_Charging>
0.862349

> <r_epik_Ionization_Penalty_Neutral>
0.000159522

> <r_epik_State_Penalty>
0.898939

> <r_epik_Charging_Adjusted_Penalty>
1.76129

> <i_epik_Tot_Q>
1

> <i_epik_Tot_abs_Q>
1

> <r_epik_Metal_State_Penalty>
0.936827

> <b_epik_Metal_Only>
0

> <s_lp_Force_Field>
OPLS_2005

> <r_lp_Energy>
11.766

> <b_lp_Chiralities_Consistent>
1

> <s_lp_Variant>
AV-unprocessed.smi:1813-3

> <Gold.Version>
5.8.1

> <Gold.Id.Protein>
6NUR|6NUR_protein|mol2

> <Gold.PLP.Fitness>
31.2664

> <Gold.PLP.PLP>
-21.0024

> <Gold.PLP.part.hbond>
-2.7828

> <Gold.PLP.part.metal>
0.0000

> <Gold.PLP.part.buried>
-6.2483

> <Gold.PLP.part.nonpolar>
-11.5843

> <Gold.PLP.part.repulsive>
0.2072

> <Gold.PLP.ligand.clash>
0.0000

> <Gold.PLP.ligand.torsion>
0.4581

> <Gold.PLP.Chemscore.Hbond>
3.6975

> <Gold.PLP.Chemscore.CHOScore>
0.0000

> <Gold.PLP.Chemscore.Metal>
0.0000

> <Gold.Chemscore.Hbonds>
donor molecule, donor type, donor heavy atom, donor atom, acceptor molecule, acceptor atom, score
      L1  H     2    24       P1 10175  1.00
      L1  H     6    40       P1 10175  1.98
      L1  H    10    32       P1  8028  0.71

> <Gold.PLP.Chemscore.Internal.Correction>
0.0877

> <Gold.Rescore>
     Score         DG    S(hbond)    S(metal)    S(lipo)     H(rot)  DE(clash)    DE(int)     intcor
     17.78     -20.55       3.53        0.00      67.04       1.79       1.40       1.37       ----

> <Gold.Chemscore.Fitness>
17.7751

> <Gold.Chemscore.DG>
-20.5481

> <Gold.Chemscore.ZeroCoef>
-5.4800

> <Gold.Chemscore.Hbond>
3.5321

> <Gold.Chemscore.Metal>
0.0000

> <Gold.Chemscore.Lipo>
67.0379

> <Gold.Chemscore.Internal_Hbond>
0.0000

> <Gold.Chemscore.DEClash>
1.4021

> <Gold.Chemscore.DEInternal>
1.3709

> <Gold.Chemscore.Rot>
1.7862

> <Gold.Chemscore.Internal.Correction>
   9.000000E+99

> <Gold.Chemscore.Hbonds>
donor molecule, donor type, donor heavy atom, donor atom, acceptor molecule, acceptor atom, score
      L1  H     2    24       P1 10175  0.89
      L1  H     6    40       P1 10175  0.84
      L1  H    10    32       P1  8028  0.70

> <Gold.Chemscore.Hbond.Weighted>
-11.7973

> <Gold.Chemscore.Metal.Weighted>
-0.0000

> <Gold.Chemscore.Lipo.Weighted>
-7.8434

> <Gold.Chemscore.Internal_Hbond.Weighted>
0.0000

> <Gold.Chemscore.DEClash.Weighted>
1.4021

> <Gold.Chemscore.DEInternal.Weighted>
1.3709

> <Gold.Chemscore.Rot.Weighted>
4.5726

> <Gold.Chemscore.Internal.Correction.Weighted>
   9.000000E+99

> <Gold.Protein.RotatedTorsions>
[ 6907 6896 6895 6894 ] final -175.43 input  -60.11 | X-H torsion
[ 7974 7965 7964 7962 ] final -129.63 input  175.53 | X-H torsion
[ 8008 7997 7996 7995 ] final   34.55 input   59.86 | X-H torsion
[ 10167 10162 10161 10158 ] final  175.18 input  -65.29 | X-H torsion
[ 10718 10713 10712 10709 ] final  136.61 input   66.30 | X-H torsion
[ 10763 10752 10751 10750 ] final  -35.24 input  -60.55 | X-H torsion
[ 11005 11000 10999 10996 ] final -106.33 input  -57.11 | X-H torsion

> <Gold.Protein.ActiveResidues>
 VAL166  LYS551  ARG553  GLY616  TRP617  ASP618  TYR619  PRO620  LYS621  CYS622 
 ASP623  PHE694  ASN695  SER759  ASP760  ASP761  ALA762  ILE779  LEU786  VAL792 
 PHE793  MET794  SER795  GLU796  ALA797  LYS798  CYS799  TRP800  GLU811  SER814 

> <Gold.Protein.RotatedAtoms>
  151.5884  133.3369  159.3022 H   0  0  0  0  0  0  0  0  0  0  0  0  # atno 6907 bound_to 6896
  150.8274  134.7515  159.6836 H   0  0  0  0  0  0  0  0  0  0  0  0  # atno 6908 bound_to 6896
  152.4362  134.5688  159.9967 H   0  0  0  0  0  0  0  0  0  0  0  0  # atno 6909 bound_to 6896
  144.9553  140.7389  143.4762 H   0  0  0  0  0  0  0  0  0  0  0  0  # atno 7974 bound_to 7965
  155.1566  140.3279  155.4420 H   0  0  0  0  0  0  0  0  0  0  0  0  # atno 8008 bound_to 7997
  156.2556  140.1967  156.6626 H   0  0  0  0  0  0  0  0  0  0  0  0  # atno 8009 bound_to 7997
  154.6435  140.0567  156.9859 H   0  0  0  0  0  0  0  0  0  0  0  0  # atno 8010 bound_to 7997
  139.5168  144.3061  152.0334 H   0  0  0  0  0  0  0  0  0  0  0  0  # atno 10167 bound_to 10162
  157.4448  131.1061  151.0101 H   0  0  0  0  0  0  0  0  0  0  0  0  # atno 10718 bound_to 10713
  153.8600  135.6841  153.4784 H   0  0  0  0  0  0  0  0  0  0  0  0  # atno 10763 bound_to 10752
  153.1347  135.4683  154.9402 H   0  0  0  0  0  0  0  0  0  0  0  0  # atno 10764 bound_to 10752
  154.7763  135.3254  154.8034 H   0  0  0  0  0  0  0  0  0  0  0  0  # atno 10765 bound_to 10752
  141.1010  133.8884  157.1842 H   0  0  0  0  0  0  0  0  0  0  0  0  # atno 11005 bound_to 11000
  145.2781  139.1928  143.4805 LP  0  0  0  0  0  0  0  0  0  0  0  0  # atno 17320 bound_to 7965
  146.3335  140.2739  142.8607 LP  0  0  0  0  0  0  0  0  0  0  0  0  # atno 17321 bound_to 7965
  140.2507  144.4172  150.6223 LP  0  0  0  0  0  0  0  0  0  0  0  0  # atno 17342 bound_to 10162
  140.6226  143.2178  151.6662 LP  0  0  0  0  0  0  0  0  0  0  0  0  # atno 17343 bound_to 10162
  157.0951  130.5958  149.5448 LP  0  0  0  0  0  0  0  0  0  0  0  0  # atno 17370 bound_to 10713
  155.9963  130.5032  150.7492 LP  0  0  0  0  0  0  0  0  0  0  0  0  # atno 17371 bound_to 10713
  139.9861  135.0081  156.9867 LP  0  0  0  0  0  0  0  0  0  0  0  0  # atno 17394 bound_to 11000
  140.5022  134.1086  155.7253 LP  0  0  0  0  0  0  0  0  0  0  0  0  # atno 17395 bound_to 11000

$$$$
