AV-unprocessed.smi:99|AV-procd|sdf|868|dock5
  -GOLD-   2262017323D 1   1.00000     0.00000
 Structure written by MMmdl.
 53 56  0  0  0  0  0  0  0  0  1 V2000
  149.5109  132.7523  158.3707 O   0  0  0  0  0  0  0  0  0  0  0  0
  148.4268  133.1929  158.7589 C   0  0  0  0  0  0  0  0  0  0  0  0
  147.3062  133.1795  158.0112 O   0  0  0  0  0  0  0  0  0  0  0  0
  147.4001  133.1482  156.5970 C   0  0  0  0  0  0  0  0  0  0  0  0
  147.7080  134.5647  156.0802 C   0  0  1  0  0  0  0  0  0  0  0  0
  148.8448  135.0719  156.7759 O   0  0  0  0  0  0  0  0  0  0  0  0
  150.0207  134.8324  156.0528 C   0  0  2  0  0  0  0  0  0  0  0  0
  150.7760  136.1339  155.9106 N   0  0  0  0  0  0  0  0  0  0  0  0
  150.8916  136.7680  154.6805 C   0  0  0  0  0  0  0  0  0  0  0  0
  151.5710  137.9262  154.5075 C   0  0  0  0  0  0  0  0  0  0  0  0
  152.2326  138.5717  155.6366 C   0  0  0  0  0  0  0  0  0  0  0  0
  152.8664  139.6231  155.5798 O   0  0  0  0  0  0  0  0  0  0  0  0
  152.1029  137.8919  156.8511 N   0  0  0  0  0  0  0  0  0  0  0  0
  151.4106  136.6949  157.0407 C   0  0  0  0  0  0  0  0  0  0  0  0
  151.3809  136.1725  158.1542 O   0  0  0  0  0  0  0  0  0  0  0  0
  149.6379  134.2866  154.6673 C   0  0  1  0  0  0  0  0  0  0  0  0
  149.8789  132.8936  154.5933 O   0  0  0  0  0  0  0  0  0  0  0  0
  148.1537  134.6273  154.6189 C   0  0  1  0  0  0  0  0  0  0  0  0
  147.3900  133.8202  153.7285 O   0  0  0  0  0  0  0  0  0  0  0  0
  146.0473  133.9425  153.6608 C   0  0  0  0  0  0  0  0  0  0  0  0
  145.3676  134.4980  154.5260 O   0  0  0  0  0  0  0  0  0  0  0  0
  145.4734  133.3410  152.4229 C   0  0  0  0  0  0  0  0  0  0  0  0
  146.3226  132.6392  151.5359 C   0  0  0  0  0  0  0  0  0  0  0  0
  145.8096  132.0594  150.3593 C   0  0  0  0  0  0  0  0  0  0  0  0
  144.4407  132.1753  150.0548 C   0  0  0  0  0  0  0  0  0  0  0  0
  143.5855  132.8712  150.9288 C   0  0  0  0  0  0  0  0  0  0  0  0
  144.0964  133.4509  152.1064 C   0  0  0  0  0  0  0  0  0  0  0  0
  148.2200  133.8002  160.1056 C   0  0  0  0  0  0  0  0  0  0  0  0
  148.3250  135.2028  160.2561 C   0  0  0  0  0  0  0  0  0  0  0  0
  148.1311  135.8059  161.5141 C   0  0  0  0  0  0  0  0  0  0  0  0
  147.8313  135.0135  162.6374 C   0  0  0  0  0  0  0  0  0  0  0  0
  147.7260  133.6170  162.5012 C   0  0  0  0  0  0  0  0  0  0  0  0
  147.9186  133.0120  161.2437 C   0  0  0  0  0  0  0  0  0  0  0  0
  152.5524  138.2987  157.6585 H   0  0  0  0  0  0  0  0  0  0  0  0
  148.1683  132.4397  156.2854 H   0  0  0  0  0  0  0  0  0  0  0  0
  146.4480  132.8005  156.1941 H   0  0  0  0  0  0  0  0  0  0  0  0
  146.8438  135.2105  156.2388 H   0  0  0  0  0  0  0  0  0  0  0  0
  150.6518  134.1603  156.6376 H   0  0  0  0  0  0  0  0  0  0  0  0
  150.4267  136.3286  153.8103 H   0  0  0  0  0  0  0  0  0  0  0  0
  151.6267  138.3779  153.5274 H   0  0  0  0  0  0  0  0  0  0  0  0
  150.1996  134.7832  153.8745 H   0  0  0  0  0  0  0  0  0  0  0  0
  150.6908  132.7543  154.1298 H   0  0  0  0  0  0  0  0  0  0  0  0
  148.0592  135.6709  154.3137 H   0  0  0  0  0  0  0  0  0  0  0  0
  147.3772  132.5372  151.7482 H   0  0  0  0  0  0  0  0  0  0  0  0
  146.4676  131.5250  149.6899 H   0  0  0  0  0  0  0  0  0  0  0  0
  144.0477  131.7306  149.1524 H   0  0  0  0  0  0  0  0  0  0  0  0
  142.5346  132.9609  150.6961 H   0  0  0  0  0  0  0  0  0  0  0  0
  143.4116  133.9778  152.7550 H   0  0  0  0  0  0  0  0  0  0  0  0
  148.5533  135.8319  159.4078 H   0  0  0  0  0  0  0  0  0  0  0  0
  148.2123  136.8780  161.6162 H   0  0  0  0  0  0  0  0  0  0  0  0
  147.6825  135.4762  163.6019 H   0  0  0  0  0  0  0  0  0  0  0  0
  147.4970  133.0078  163.3631 H   0  0  0  0  0  0  0  0  0  0  0  0
  147.8305  131.9376  161.1740 H   0  0  0  0  0  0  0  0  0  0  0  0
  1  2  2  0  0  0  0
  2  3  1  0  0  0  0
  2 28  1  0  0  0  0
  3  4  1  0  0  0  0
  4  5  1  0  0  0  0
  4 35  1  0  0  0  0
  4 36  1  0  0  0  0
  5 18  1  0  0  0  0
  5  6  1  0  0  0  0
  5 37  1  0  0  0  0
  6  7  1  0  0  0  0
  7  8  1  0  0  0  0
  7 16  1  0  0  0  0
  7 38  1  0  0  0  0
  8 14  1  0  0  0  0
  8  9  1  0  0  0  0
  9 10  2  0  0  0  0
  9 39  1  0  0  0  0
 10 11  1  0  0  0  0
 10 40  1  0  0  0  0
 11 12  2  0  0  0  0
 11 13  1  0  0  0  0
 13 34  1  0  0  0  0
 13 14  1  0  0  0  0
 14 15  2  0  0  0  0
 16 17  1  0  0  0  0
 16 18  1  0  0  0  0
 16 41  1  0  0  0  0
 17 42  1  0  0  0  0
 18 19  1  0  0  0  0
 18 43  1  0  0  0  0
 19 20  1  0  0  0  0
 20 21  2  0  0  0  0
 20 22  1  0  0  0  0
 22 27  1  0  0  0  0
 22 23  2  0  0  0  0
 23 24  1  0  0  0  0
 23 44  1  0  0  0  0
 24 25  2  0  0  0  0
 24 45  1  0  0  0  0
 25 26  1  0  0  0  0
 25 46  1  0  0  0  0
 26 27  2  0  0  0  0
 26 47  1  0  0  0  0
 27 48  1  0  0  0  0
 28 33  1  0  0  0  0
 28 29  2  0  0  0  0
 29 30  1  0  0  0  0
 29 49  1  0  0  0  0
 30 31  2  0  0  0  0
 30 50  1  0  0  0  0
 31 32  1  0  0  0  0
 31 51  1  0  0  0  0
 32 33  2  0  0  0  0
 32 52  1  0  0  0  0
 33 53  1  0  0  0  0
M  END
> <s_m_source_file>
AV-unprocessed.smi

> <i_m_source_file_index>
99

> <i_lp_mmshare_version>
43012

> <i_f3d_flags>
0

> <s_epik_input>
W2NIXTFbY0hdW2NIXVtjSF1bY0hdYzFDKD1PKU9bQ0gyXVtDQEBIXTJPW0NAQEhdKG4zW2NIXVtjSF1jKD1PKVtuSF1jMz1PKVtDQEBIXShbT0hdKVtDQEhdMk9DKD1PKWM0W2NIXVtjSF1bY0hdW2NIXVtjSF00

> <s_epik_cmdline>
J2VwaWtfcHl0aG9uJywgJy1waCcsICc3LjAnLCAnLXRuJywgJzgnLCAnLW1hJywgJzIwMCcsICctbWV0YWxfYmluZGluZycsICctaW1hZScsICc8aW5maWxlLm1hZT4nLCAnLW9tYWUnLCAnPG91dGZpbGUubWFlPic=

> <r_lp_tautomer_probability>
1

> <r_epik_Ionization_Penalty>
0.00454555

> <r_epik_Ionization_Penalty_Charging>
0.0045191

> <r_epik_Ionization_Penalty_Neutral>
2.64449e-05

> <r_epik_State_Penalty>
-0

> <r_epik_Charging_Adjusted_Penalty>
0.0045191

> <i_epik_Tot_Q>
0

> <i_epik_Tot_abs_Q>
0

> <r_epik_Metal_State_Penalty>
1.27877

> <b_epik_Metal_Only>
0

> <s_epik_Chemistry_Notes>
This compound has an ester and may undergo hydrolysis at high or low pH. This compound contains an acetal/aminal-like group ( X-CH(R)-Y where X, Y are N, S, or O) that may be acid/base labile, releasing an aldehyde.

> <s_lp_Force_Field>
OPLS_2005

> <r_lp_Energy>
39.5306

> <b_lp_Chiralities_Consistent>
1

> <s_lp_Variant>
AV-unprocessed.smi:99-4

> <Gold.Version>
5.8.1

> <Gold.Id.Protein>
6NUR|6NUR_protein|mol2

> <Gold.PLP.Fitness>
57.5058

> <Gold.PLP.PLP>
-51.9884

> <Gold.PLP.part.hbond>
-3.0000

> <Gold.PLP.part.metal>
0.0000

> <Gold.PLP.part.buried>
-7.5841

> <Gold.PLP.part.nonpolar>
-42.8811

> <Gold.PLP.part.repulsive>
0.2517

> <Gold.PLP.ligand.clash>
0.0000

> <Gold.PLP.ligand.torsion>
2.4264

> <Gold.PLP.Chemscore.Hbond>
2.5710

> <Gold.PLP.Chemscore.CHOScore>
0.8293

> <Gold.PLP.Chemscore.Metal>
0.0000

> <Gold.Chemscore.Hbonds>
donor molecule, donor type, donor heavy atom, donor atom, acceptor molecule, acceptor atom, score
      P1  H  6896  6907       L1     1  1.00
      P1  H  6896  6908       L1    15  0.45
      P1  H  7997  8010       L1    12  1.00
      L1  C     9    39       P1  7948  0.47
      L1  C     9    39       P1  7949  0.33

> <Gold.PLP.Chemscore.Internal.Correction>
0.1695

> <Gold.Rescore>
     Score         DG    S(hbond)    S(metal)    S(lipo)     H(rot)  DE(clash)    DE(int)     intcor
     13.91     -19.21       2.48        0.00     116.26       3.19       0.14       5.16       ----

> <Gold.Chemscore.Fitness>
13.9099

> <Gold.Chemscore.DG>
-19.2056

> <Gold.Chemscore.ZeroCoef>
-5.4800

> <Gold.Chemscore.Hbond>
2.4823

> <Gold.Chemscore.Metal>
0.0000

> <Gold.Chemscore.Lipo>
116.2555

> <Gold.Chemscore.Internal_Hbond>
0.0000

> <Gold.Chemscore.DEClash>
0.1396

> <Gold.Chemscore.DEInternal>
5.1561

> <Gold.Chemscore.Rot>
3.1903

> <Gold.Chemscore.Internal.Correction>
   9.000000E+99

> <Gold.Chemscore.Hbonds>
donor molecule, donor type, donor heavy atom, donor atom, acceptor molecule, acceptor atom, score
      P1  H  6896  6907       L1     1  0.82
      P1  H  6896  6908       L1    15  0.42
      P1  H  7997  8010       L1    12  1.00

> <Gold.Chemscore.Hbond.Weighted>
-8.2908

> <Gold.Chemscore.Metal.Weighted>
-0.0000

> <Gold.Chemscore.Lipo.Weighted>
-13.6019

> <Gold.Chemscore.Internal_Hbond.Weighted>
0.0000

> <Gold.Chemscore.DEClash.Weighted>
0.1396

> <Gold.Chemscore.DEInternal.Weighted>
5.1561

> <Gold.Chemscore.Rot.Weighted>
8.1671

> <Gold.Chemscore.Internal.Correction.Weighted>
   9.000000E+99

> <Gold.Protein.RotatedTorsions>
[ 6907 6896 6895 6894 ] final -136.83 input  -60.11 | X-H torsion
[ 7974 7965 7964 7962 ] final -147.01 input  175.53 | X-H torsion
[ 8008 7997 7996 7995 ] final   93.67 input   59.86 | X-H torsion
[ 10167 10162 10161 10158 ] final  159.25 input  -65.29 | X-H torsion
[ 10718 10713 10712 10709 ] final   53.19 input   66.30 | X-H torsion
[ 10763 10752 10751 10750 ] final -168.31 input  -60.55 | X-H torsion
[ 11005 11000 10999 10996 ] final  141.08 input  -57.11 | X-H torsion

> <Gold.Protein.ActiveResidues>
 VAL166  LYS551  ARG553  GLY616  TRP617  ASP618  TYR619  PRO620  LYS621  CYS622 
 ASP623  PHE694  ASN695  SER759  ASP760  ASP761  ALA762  ILE779  LEU786  VAL792 
 PHE793  MET794  SER795  GLU796  ALA797  LYS798  CYS799  TRP800  GLU811  SER814 

> <Gold.Protein.RotatedAtoms>
  151.0149  133.5930  159.2677 H   0  0  0  0  0  0  0  0  0  0  0  0  # atno 6907 bound_to 6896
  151.3068  135.0782  159.9268 H   0  0  0  0  0  0  0  0  0  0  0  0  # atno 6908 bound_to 6896
  152.5309  133.9821  159.7865 H   0  0  0  0  0  0  0  0  0  0  0  0  # atno 6909 bound_to 6896
  144.8121  140.5382  143.5635 H   0  0  0  0  0  0  0  0  0  0  0  0  # atno 7974 bound_to 7965
  156.0494  140.3310  155.7333 H   0  0  0  0  0  0  0  0  0  0  0  0  # atno 8008 bound_to 7997
  155.5624  140.0620  157.2843 H   0  0  0  0  0  0  0  0  0  0  0  0  # atno 8009 bound_to 7997
  154.4429  140.1875  156.0784 H   0  0  0  0  0  0  0  0  0  0  0  0  # atno 8010 bound_to 7997
  139.4831  144.4748  151.8526 H   0  0  0  0  0  0  0  0  0  0  0  0  # atno 10167 bound_to 10162
  157.5144  130.8522  149.8477 H   0  0  0  0  0  0  0  0  0  0  0  0  # atno 10718 bound_to 10713
  154.6641  135.2929  154.9828 H   0  0  0  0  0  0  0  0  0  0  0  0  # atno 10763 bound_to 10752
  154.0877  135.6595  153.4851 H   0  0  0  0  0  0  0  0  0  0  0  0  # atno 10764 bound_to 10752
  153.0447  135.5212  154.7606 H   0  0  0  0  0  0  0  0  0  0  0  0  # atno 10765 bound_to 10752
  140.0375  134.9321  157.0780 H   0  0  0  0  0  0  0  0  0  0  0  0  # atno 11005 bound_to 11000
  145.5299  139.1475  143.3505 LP  0  0  0  0  0  0  0  0  0  0  0  0  # atno 17320 bound_to 7965
  146.2421  140.5439  142.8929 LP  0  0  0  0  0  0  0  0  0  0  0  0  # atno 17321 bound_to 7965
  140.4219  144.2231  150.5887 LP  0  0  0  0  0  0  0  0  0  0  0  0  # atno 17342 bound_to 10162
  140.4865  143.2361  151.8880 LP  0  0  0  0  0  0  0  0  0  0  0  0  # atno 17343 bound_to 10162
  156.0310  130.3764  150.1687 LP  0  0  0  0  0  0  0  0  0  0  0  0  # atno 17370 bound_to 10713
  156.9876  130.9883  151.3422 LP  0  0  0  0  0  0  0  0  0  0  0  0  # atno 17371 bound_to 10713
  140.4124  134.1967  155.7163 LP  0  0  0  0  0  0  0  0  0  0  0  0  # atno 17394 bound_to 11000
  141.1865  133.8301  157.1066 LP  0  0  0  0  0  0  0  0  0  0  0  0  # atno 17395 bound_to 11000

$$$$
