AV-unprocessed.smi:107|AV-procd|sdf|1018|dock6
  -GOLD-   2262018 23D 1   1.00000     0.00000
 Structure written by MMmdl.
 31 32  0  0  0  0  0  0  0  0  1 V2000
  140.8101  137.7617  153.3445 C   0  0  0  0  0  0  0  0  0  0  0  0
  141.9266  136.7310  153.3273 C   0  0  0  0  0  0  0  0  0  0  0  0
  143.2201  137.0638  153.0846 C   0  0  0  0  0  0  0  0  0  0  0  0
  144.2616  136.1466  153.0622 N   0  0  0  0  0  0  0  0  0  0  0  0
  145.6816  136.5836  152.7820 C   0  0  1  0  0  0  0  0  0  0  0  0
  145.7933  137.2138  151.3930 C   0  0  0  0  0  0  0  0  0  0  0  0
  146.7664  138.3435  151.6567 C   0  0  1  0  0  0  0  0  0  0  0  0
  146.6106  139.3776  150.7067 O   0  0  0  0  0  0  0  0  0  0  0  0
  146.3720  138.7815  153.0693 C   0  0  2  0  0  0  0  0  0  0  0  0
  147.5017  139.4947  153.8274 C   0  0  0  0  0  0  0  0  0  0  0  0
  148.0456  140.5236  153.0285 O   0  0  0  0  0  0  0  0  0  0  0  0
  146.0549  137.5508  153.7198 O   0  0  0  0  0  0  0  0  0  0  0  0
  143.9845  134.7816  153.2851 C   0  0  0  0  0  0  0  0  0  0  0  0
  144.8489  133.9064  153.2564 O   0  0  0  0  0  0  0  0  0  0  0  0
  142.6569  134.4395  153.5376 N   0  0  0  0  0  0  0  0  0  0  0  0
  141.5809  135.3293  153.5791 C   0  0  0  0  0  0  0  0  0  0  0  0
  140.4504  134.9046  153.8119 O   0  0  0  0  0  0  0  0  0  0  0  0
  142.4547  133.4639  153.7010 H   0  0  0  0  0  0  0  0  0  0  0  0
  141.1862  138.7691  153.1637 H   0  0  0  0  0  0  0  0  0  0  0  0
  140.3065  137.7627  154.3118 H   0  0  0  0  0  0  0  0  0  0  0  0
  140.0720  137.5368  152.5737 H   0  0  0  0  0  0  0  0  0  0  0  0
  143.4468  138.1019  152.8950 H   0  0  0  0  0  0  0  0  0  0  0  0
  146.3379  135.7235  152.9222 H   0  0  0  0  0  0  0  0  0  0  0  0
  146.1404  136.4904  150.6546 H   0  0  0  0  0  0  0  0  0  0  0  0
  144.8208  137.6016  151.0839 H   0  0  0  0  0  0  0  0  0  0  0  0
  147.7904  137.9666  151.6402 H   0  0  0  0  0  0  0  0  0  0  0  0
  145.7465  139.3123  150.3294 H   0  0  0  0  0  0  0  0  0  0  0  0
  145.4773  139.4053  153.0197 H   0  0  0  0  0  0  0  0  0  0  0  0
  147.1503  139.8955  154.7787 H   0  0  0  0  0  0  0  0  0  0  0  0
  148.3069  138.7933  154.0483 H   0  0  0  0  0  0  0  0  0  0  0  0
  148.6079  140.1327  152.3773 H   0  0  0  0  0  0  0  0  0  0  0  0
  1  2  1  0  0  0  0
  1 19  1  0  0  0  0
  1 20  1  0  0  0  0
  1 21  1  0  0  0  0
  2 16  1  0  0  0  0
  2  3  2  0  0  0  0
  3  4  1  0  0  0  0
  3 22  1  0  0  0  0
  4  5  1  0  0  0  0
  4 13  1  0  0  0  0
  5 12  1  0  0  0  0
  5  6  1  0  0  0  0
  5 23  1  0  0  0  0
  6  7  1  0  0  0  0
  6 24  1  0  0  0  0
  6 25  1  0  0  0  0
  7  8  1  0  0  0  0
  7  9  1  0  0  0  0
  7 26  1  0  0  0  0
  8 27  1  0  0  0  0
  9 10  1  0  0  0  0
  9 12  1  0  0  0  0
  9 28  1  0  0  0  0
 10 11  1  0  0  0  0
 10 29  1  0  0  0  0
 10 30  1  0  0  0  0
 11 31  1  0  0  0  0
 13 14  2  0  0  0  0
 13 15  1  0  0  0  0
 15 18  1  0  0  0  0
 15 16  1  0  0  0  0
 16 17  2  0  0  0  0
M  END
> <s_m_source_file>
AV-unprocessed.smi

> <i_m_source_file_index>
107

> <i_lp_mmshare_version>
43012

> <i_f3d_flags>
0

> <s_epik_input>
Tz1jMVtuSF1jKD1PKW4oW2NIXWMxW0NIM10pW0NAQEhdMltDSDJdW0NAQEhdKFtPSF0pW0NASF0oTzIpW0NIMl1bT0hd

> <s_epik_cmdline>
J2VwaWtfcHl0aG9uJywgJy1waCcsICc3LjAnLCAnLXRuJywgJzgnLCAnLW1hJywgJzIwMCcsICctbWV0YWxfYmluZGluZycsICctaW1hZScsICc8aW5maWxlLm1hZT4nLCAnLW9tYWUnLCAnPG91dGZpbGUubWFlPic=

> <r_lp_tautomer_probability>
0.999537

> <r_epik_Ionization_Penalty>
0.00121888

> <r_epik_Ionization_Penalty_Charging>
0.00121876

> <r_epik_Ionization_Penalty_Neutral>
1.19946e-07

> <r_epik_State_Penalty>
0.000805124

> <r_epik_Charging_Adjusted_Penalty>
0.00202389

> <i_epik_Tot_Q>
0

> <i_epik_Tot_abs_Q>
0

> <r_epik_Metal_State_Penalty>
0.662472

> <b_epik_Metal_Only>
0

> <s_epik_Chemistry_Notes>
This compound contains an acetal/aminal-like group ( X-CH(R)-Y where X, Y are N, S, or O) that may be acid/base labile, releasing an aldehyde.

> <s_lp_Force_Field>
OPLS_2005

> <r_lp_Energy>
25.0544

> <b_lp_Chiralities_Consistent>
1

> <s_lp_Variant>
AV-unprocessed.smi:107-6

> <Gold.Version>
5.8.1

> <Gold.Id.Protein>
6NUR|6NUR_protein|mol2

> <Gold.PLP.Fitness>
40.0965

> <Gold.PLP.PLP>
-25.2972

> <Gold.PLP.part.hbond>
-6.8222

> <Gold.PLP.part.metal>
0.0000

> <Gold.PLP.part.buried>
0.9156

> <Gold.PLP.part.nonpolar>
-21.2726

> <Gold.PLP.part.repulsive>
0.4715

> <Gold.PLP.ligand.clash>
0.0000

> <Gold.PLP.ligand.torsion>
0.0884

> <Gold.PLP.Chemscore.Hbond>
3.9887

> <Gold.PLP.Chemscore.CHOScore>
1.0000

> <Gold.PLP.Chemscore.Metal>
0.0000

> <Gold.Chemscore.Hbonds>
donor molecule, donor type, donor heavy atom, donor atom, acceptor molecule, acceptor atom, score
      L1  H     8    27       P1 10171  0.98
      L1  H    11    31       P1  7957  1.00
      L1  H    15    18       P1 10957  1.00
      P1  H 11000 11005       L1    17  0.93
      L1  C     3    22       P1 10175  1.00

> <Gold.PLP.Chemscore.Internal.Correction>
0.0098

> <Gold.Rescore>
     Score         DG    S(hbond)    S(metal)    S(lipo)     H(rot)  DE(clash)    DE(int)     intcor
     15.29     -16.65       3.96        0.00      42.23       2.73       1.27       0.09       ----

> <Gold.Chemscore.Fitness>
15.2948

> <Gold.Chemscore.DG>
-16.6546

> <Gold.Chemscore.ZeroCoef>
-5.4800

> <Gold.Chemscore.Hbond>
3.9553

> <Gold.Chemscore.Metal>
0.0000

> <Gold.Chemscore.Lipo>
42.2278

> <Gold.Chemscore.Internal_Hbond>
0.0000

> <Gold.Chemscore.DEClash>
1.2695

> <Gold.Chemscore.DEInternal>
0.0903

> <Gold.Chemscore.Rot>
2.7253

> <Gold.Chemscore.Internal.Correction>
   9.000000E+99

> <Gold.Chemscore.Hbonds>
donor molecule, donor type, donor heavy atom, donor atom, acceptor molecule, acceptor atom, score
      L1  H     8    27       P1 10171  0.92
      L1  H    11    31       P1  7957  0.96
      L1  H    15    18       P1 10957  0.91
      P1  H 10995 11001       L1    17  0.01
      P1  H 11000 11005       L1    17  0.52

> <Gold.Chemscore.Hbond.Weighted>
-13.2109

> <Gold.Chemscore.Metal.Weighted>
-0.0000

> <Gold.Chemscore.Lipo.Weighted>
-4.9406

> <Gold.Chemscore.Internal_Hbond.Weighted>
0.0000

> <Gold.Chemscore.DEClash.Weighted>
1.2695

> <Gold.Chemscore.DEInternal.Weighted>
0.0903

> <Gold.Chemscore.Rot.Weighted>
6.9769

> <Gold.Chemscore.Internal.Correction.Weighted>
   9.000000E+99

> <Gold.Protein.RotatedTorsions>
[ 6907 6896 6895 6894 ] final -168.01 input  -60.11 | X-H torsion
[ 7974 7965 7964 7962 ] final  -69.43 input  175.53 | X-H torsion
[ 8008 7997 7996 7995 ] final  122.30 input   59.86 | X-H torsion
[ 10167 10162 10161 10158 ] final -132.26 input  -65.29 | X-H torsion
[ 10718 10713 10712 10709 ] final -154.35 input   66.30 | X-H torsion
[ 10763 10752 10751 10750 ] final  -23.07 input  -60.55 | X-H torsion
[ 11005 11000 10999 10996 ] final   12.96 input  -57.11 | X-H torsion

> <Gold.Protein.ActiveResidues>
 VAL166  LYS551  ARG553  GLY616  TRP617  ASP618  TYR619  PRO620  LYS621  CYS622 
 ASP623  PHE694  ASN695  SER759  ASP760  ASP761  ALA762  ILE779  LEU786  VAL792 
 PHE793  MET794  SER795  GLU796  ALA797  LYS798  CYS799  TRP800  GLU811  SER814 

> <Gold.Protein.RotatedAtoms>
  151.4687  133.3574  159.2819 H   0  0  0  0  0  0  0  0  0  0  0  0  # atno 6907 bound_to 6896
  150.8976  134.8387  159.7348 H   0  0  0  0  0  0  0  0  0  0  0  0  # atno 6908 bound_to 6896
  152.4860  134.4603  159.9655 H   0  0  0  0  0  0  0  0  0  0  0  0  # atno 6909 bound_to 6896
  145.7038  140.9106  143.0717 H   0  0  0  0  0  0  0  0  0  0  0  0  # atno 7974 bound_to 7965
  156.2722  140.2789  156.1445 H   0  0  0  0  0  0  0  0  0  0  0  0  # atno 8008 bound_to 7997
  155.0918  140.0388  157.2688 H   0  0  0  0  0  0  0  0  0  0  0  0  # atno 8009 bound_to 7997
  154.6883  140.2623  155.6844 H   0  0  0  0  0  0  0  0  0  0  0  0  # atno 8010 bound_to 7997
  139.9104  143.6501  152.2576 H   0  0  0  0  0  0  0  0  0  0  0  0  # atno 10167 bound_to 10162
  156.4981  130.8378  151.2598 H   0  0  0  0  0  0  0  0  0  0  0  0  # atno 10718 bound_to 10713
  153.6620  135.6976  153.5174 H   0  0  0  0  0  0  0  0  0  0  0  0  # atno 10763 bound_to 10752
  153.2624  135.4240  155.0906 H   0  0  0  0  0  0  0  0  0  0  0  0  # atno 10764 bound_to 10752
  154.8449  135.3558  154.6165 H   0  0  0  0  0  0  0  0  0  0  0  0  # atno 10765 bound_to 10752
  140.4861  134.0887  155.7761 H   0  0  0  0  0  0  0  0  0  0  0  0  # atno 11005 bound_to 11000
  144.6961  139.8983  143.7457 LP  0  0  0  0  0  0  0  0  0  0  0  0  # atno 17320 bound_to 7965
  146.0774  139.3762  143.0485 LP  0  0  0  0  0  0  0  0  0  0  0  0  # atno 17321 bound_to 7965
  139.6947  144.7642  151.1376 LP  0  0  0  0  0  0  0  0  0  0  0  0  # atno 17342 bound_to 10162
  140.7686  143.5539  150.9173 LP  0  0  0  0  0  0  0  0  0  0  0  0  # atno 17343 bound_to 10162
  157.7466  130.9991  150.2876 LP  0  0  0  0  0  0  0  0  0  0  0  0  # atno 17370 bound_to 10713
  156.3360  130.3808  149.7450 LP  0  0  0  0  0  0  0  0  0  0  0  0  # atno 17371 bound_to 10713
  141.1507  133.8973  157.2104 LP  0  0  0  0  0  0  0  0  0  0  0  0  # atno 17394 bound_to 11000
  139.9797  135.0102  156.9719 LP  0  0  0  0  0  0  0  0  0  0  0  0  # atno 17395 bound_to 11000

$$$$
