AV-unprocessed.smi:2712|AV-procd|sdf|10477|dock6
  -GOLD-   2272014513D 1   1.00000     0.00000
 Structure written by MMmdl.
 52 53  0  0  0  0  0  0  0  0  1 V2000
  155.0234  141.2611  160.0420 C   0  0  0  0  0  0  0  0  0  0  0  0
  153.8940  142.2427  160.1442 C   0  0  0  0  0  0  0  0  0  0  0  0
  153.5634  142.9375  161.3738 C   0  0  0  0  0  0  0  0  0  0  0  0
  152.5293  143.8057  161.3856 C   0  0  0  0  0  0  0  0  0  0  0  0
  151.7317  144.0669  160.1893 C   0  0  0  0  0  0  0  0  0  0  0  0
  150.7811  144.8487  160.1686 O   0  0  0  0  0  0  0  0  0  0  0  0
  152.1399  143.3622  159.0922 N   0  0  0  0  0  0  0  0  0  0  0  0
  151.4612  143.5121  157.7968 C   0  0  0  0  0  0  0  0  0  0  0  0
  150.9279  142.1866  157.2339 C   0  0  0  0  0  0  0  0  0  0  0  0
  151.3337  141.1083  157.6699 O   0  0  0  0  0  0  0  0  0  0  0  0
  150.0010  142.2880  156.2682 N   0  0  0  0  0  0  0  0  0  0  0  0
  149.3575  141.1656  155.5883 C   0  0  1  0  0  0  0  0  0  0  0  0
  148.3357  141.7307  154.5839 C   0  0  0  0  0  0  0  0  0  0  0  0
  147.8434  140.7600  153.4984 C   0  0  0  0  0  0  0  0  0  0  0  0
  147.6287  139.3067  153.9539 C   0  0  0  0  0  0  0  0  0  0  0  0
  148.8921  138.4115  153.8093 C   0  0  2  0  0  0  0  0  0  0  0  0
  148.5570  136.8741  153.7546 C   0  0  0  0  0  0  0  0  0  0  0  0
  149.8324  136.0109  153.6400 C   0  0  0  0  0  0  0  0  0  0  0  0
  147.6393  136.5438  152.5544 C   0  0  0  0  0  0  0  0  0  0  0  0
  147.7795  136.4388  155.0197 C   0  0  0  0  0  0  0  0  0  0  0  0
  149.9670  138.7664  154.8734 C   0  0  0  0  0  0  0  0  0  0  0  0
  150.4119  140.2397  154.9468 C   0  0  0  0  0  0  0  0  0  0  0  0
  153.1968  142.4668  159.0788 N   0  0  0  0  0  0  0  0  0  0  0  0
  155.4609  141.0599  161.0202 H   0  0  0  0  0  0  0  0  0  0  0  0
  155.8128  141.6456  159.3954 H   0  0  0  0  0  0  0  0  0  0  0  0
  154.6799  140.3120  159.6294 H   0  0  0  0  0  0  0  0  0  0  0  0
  154.1436  142.7562  162.2666 H   0  0  0  0  0  0  0  0  0  0  0  0
  152.2844  144.3224  162.3018 H   0  0  0  0  0  0  0  0  0  0  0  0
  150.6204  144.2022  157.8878 H   0  0  0  0  0  0  0  0  0  0  0  0
  152.1398  143.9714  157.0752 H   0  0  0  0  0  0  0  0  0  0  0  0
  149.7257  143.2140  155.9744 H   0  0  0  0  0  0  0  0  0  0  0  0
  148.8054  140.5951  156.3375 H   0  0  0  0  0  0  0  0  0  0  0  0
  147.4761  142.0981  155.1460 H   0  0  0  0  0  0  0  0  0  0  0  0
  148.7514  142.6055  154.0814 H   0  0  0  0  0  0  0  0  0  0  0  0
  146.9025  141.1507  153.1091 H   0  0  0  0  0  0  0  0  0  0  0  0
  148.5279  140.7804  152.6498 H   0  0  0  0  0  0  0  0  0  0  0  0
  147.2387  139.2772  154.9719 H   0  0  0  0  0  0  0  0  0  0  0  0
  146.8267  138.9188  153.3313 H   0  0  0  0  0  0  0  0  0  0  0  0
  149.3393  138.6482  152.8427 H   0  0  0  0  0  0  0  0  0  0  0  0
  149.5842  134.9499  153.5916 H   0  0  0  0  0  0  0  0  0  0  0  0
  150.4930  136.1423  154.4966 H   0  0  0  0  0  0  0  0  0  0  0  0
  150.4043  136.2450  152.7426 H   0  0  0  0  0  0  0  0  0  0  0  0
  148.1550  136.6455  151.5997 H   0  0  0  0  0  0  0  0  0  0  0  0
  146.7613  137.1902  152.5336 H   0  0  0  0  0  0  0  0  0  0  0  0
  147.2829  135.5138  152.5959 H   0  0  0  0  0  0  0  0  0  0  0  0
  147.4240  135.4116  154.9316 H   0  0  0  0  0  0  0  0  0  0  0  0
  146.9049  137.0684  155.1870 H   0  0  0  0  0  0  0  0  0  0  0  0
  148.3873  136.4672  155.9224 H   0  0  0  0  0  0  0  0  0  0  0  0
  149.6394  138.4474  155.8626 H   0  0  0  0  0  0  0  0  0  0  0  0
  150.8739  138.2007  154.6675 H   0  0  0  0  0  0  0  0  0  0  0  0
  150.7124  140.6078  153.9651 H   0  0  0  0  0  0  0  0  0  0  0  0
  151.3189  140.2603  155.5530 H   0  0  0  0  0  0  0  0  0  0  0  0
  1  2  1  0  0  0  0
  1 24  1  0  0  0  0
  1 25  1  0  0  0  0
  1 26  1  0  0  0  0
  2 23  2  0  0  0  0
  2  3  1  0  0  0  0
  3  4  2  0  0  0  0
  3 27  1  0  0  0  0
  4  5  1  0  0  0  0
  4 28  1  0  0  0  0
  5  6  2  0  0  0  0
  5  7  1  0  0  0  0
  7  8  1  0  0  0  0
  7 23  1  0  0  0  0
  8  9  1  0  0  0  0
  8 29  1  0  0  0  0
  8 30  1  0  0  0  0
  9 10  2  0  0  0  0
  9 11  1  0  0  0  0
 11 12  1  0  0  0  0
 11 31  1  0  0  0  0
 12 22  1  0  0  0  0
 12 13  1  0  0  0  0
 12 32  1  0  0  0  0
 13 14  1  0  0  0  0
 13 33  1  0  0  0  0
 13 34  1  0  0  0  0
 14 15  1  0  0  0  0
 14 35  1  0  0  0  0
 14 36  1  0  0  0  0
 15 16  1  0  0  0  0
 15 37  1  0  0  0  0
 15 38  1  0  0  0  0
 16 17  1  0  0  0  0
 16 21  1  0  0  0  0
 16 39  1  0  0  0  0
 17 18  1  0  0  0  0
 17 19  1  0  0  0  0
 17 20  1  0  0  0  0
 18 40  1  0  0  0  0
 18 41  1  0  0  0  0
 18 42  1  0  0  0  0
 19 43  1  0  0  0  0
 19 44  1  0  0  0  0
 19 45  1  0  0  0  0
 20 46  1  0  0  0  0
 20 47  1  0  0  0  0
 20 48  1  0  0  0  0
 21 22  1  0  0  0  0
 21 49  1  0  0  0  0
 21 50  1  0  0  0  0
 22 51  1  0  0  0  0
 22 52  1  0  0  0  0
M  END
> <s_m_source_file>
AV-unprocessed.smi

> <i_m_source_file_index>
2712

> <i_lp_mmshare_version>
43012

> <i_f3d_flags>
0

> <s_epik_input>
W0NIM11jMVtjSF1bY0hdYyg9TyluKG4xKVtDSDJdQyg9TylbTkhdW0NAQEhdMltDSDJdW0NIMl1bQ0gyXVtDQEBIXShDKFtDSDNdKShbQ0gzXSlbQ0gzXSlbQ0gyXVtDSDJdMg==

> <s_epik_cmdline>
J2VwaWtfcHl0aG9uJywgJy1waCcsICc3LjAnLCAnLXRuJywgJzgnLCAnLW1hJywgJzIwMCcsICctbWV0YWxfYmluZGluZycsICctaW1hZScsICc8aW5maWxlLm1hZT4nLCAnLW9tYWUnLCAnPG91dGZpbGUubWFlPic=

> <r_lp_tautomer_probability>
1

> <r_epik_Ionization_Penalty>
8.71758e-07

> <r_epik_Ionization_Penalty_Charging>
8.50442e-07

> <r_epik_Ionization_Penalty_Neutral>
2.13165e-08

> <r_epik_State_Penalty>
-0

> <r_epik_Charging_Adjusted_Penalty>
8.50442e-07

> <i_epik_Tot_Q>
0

> <i_epik_Tot_abs_Q>
0

> <r_epik_Metal_State_Penalty>
-0

> <b_epik_Metal_Only>
0

> <s_lp_Force_Field>
OPLS_2005

> <r_lp_Energy>
38.5576

> <b_lp_Chiralities_Consistent>
1

> <s_lp_Variant>
AV-unprocessed.smi:2712-4

> <Gold.Version>
5.8.1

> <Gold.Id.Protein>
6NUR|6NUR_protein|mol2

> <Gold.PLP.Fitness>
42.6275

> <Gold.PLP.PLP>
-41.3016

> <Gold.PLP.part.hbond>
-1.5477

> <Gold.PLP.part.metal>
0.0000

> <Gold.PLP.part.buried>
-5.8694

> <Gold.PLP.part.nonpolar>
-35.5941

> <Gold.PLP.part.repulsive>
0.3286

> <Gold.PLP.ligand.clash>
0.0000

> <Gold.PLP.ligand.torsion>
0.3153

> <Gold.PLP.Chemscore.Hbond>
0.6240

> <Gold.PLP.Chemscore.CHOScore>
0.0000

> <Gold.PLP.Chemscore.Metal>
0.0000

> <Gold.Chemscore.Hbonds>
donor molecule, donor type, donor heavy atom, donor atom, acceptor molecule, acceptor atom, score
      L1  H    11    31       P1  8028  1.00

> <Gold.PLP.Chemscore.Internal.Correction>
0.0844

> <Gold.Rescore>
     Score         DG    S(hbond)    S(metal)    S(lipo)     H(rot)  DE(clash)    DE(int)     intcor
     13.60     -15.46       0.78        0.00      96.18       1.52       0.07       1.79       ----

> <Gold.Chemscore.Fitness>
13.6030

> <Gold.Chemscore.DG>
-15.4628

> <Gold.Chemscore.ZeroCoef>
-5.4800

> <Gold.Chemscore.Hbond>
0.7817

> <Gold.Chemscore.Metal>
0.0000

> <Gold.Chemscore.Lipo>
96.1813

> <Gold.Chemscore.Internal_Hbond>
0.0000

> <Gold.Chemscore.DEClash>
0.0727

> <Gold.Chemscore.DEInternal>
1.7870

> <Gold.Chemscore.Rot>
1.5162

> <Gold.Chemscore.Internal.Correction>
   9.000000E+99

> <Gold.Chemscore.Hbonds>
donor molecule, donor type, donor heavy atom, donor atom, acceptor molecule, acceptor atom, score
      L1  H    11    31       P1  8028  1.00

> <Gold.Chemscore.Hbond.Weighted>
-2.6110

> <Gold.Chemscore.Metal.Weighted>
-0.0000

> <Gold.Chemscore.Lipo.Weighted>
-11.2532

> <Gold.Chemscore.Internal_Hbond.Weighted>
0.0000

> <Gold.Chemscore.DEClash.Weighted>
0.0727

> <Gold.Chemscore.DEInternal.Weighted>
1.7870

> <Gold.Chemscore.Rot.Weighted>
3.8814

> <Gold.Chemscore.Internal.Correction.Weighted>
   9.000000E+99

> <Gold.Protein.RotatedTorsions>
[ 6907 6896 6895 6894 ] final -174.03 input  -60.11 | X-H torsion
[ 7974 7965 7964 7962 ] final  100.68 input  175.53 | X-H torsion
[ 8008 7997 7996 7995 ] final  -96.66 input   59.86 | X-H torsion
[ 10167 10162 10161 10158 ] final  -52.54 input  -65.29 | X-H torsion
[ 10718 10713 10712 10709 ] final   26.21 input   66.30 | X-H torsion
[ 10763 10752 10751 10750 ] final -165.56 input  -60.55 | X-H torsion
[ 11005 11000 10999 10996 ] final  131.97 input  -57.11 | X-H torsion

> <Gold.Protein.ActiveResidues>
 VAL166  LYS551  ARG553  GLY616  TRP617  ASP618  TYR619  PRO620  LYS621  CYS622 
 ASP623  PHE694  ASN695  SER759  ASP760  ASP761  ALA762  ILE779  LEU786  VAL792 
 PHE793  MET794  SER795  GLU796  ALA797  LYS798  CYS799  TRP800  GLU811  SER814 

> <Gold.Protein.RotatedAtoms>
  151.5657  133.3397  159.2979 H   0  0  0  0  0  0  0  0  0  0  0  0  # atno 6907 bound_to 6896
  150.8396  134.7686  159.6933 H   0  0  0  0  0  0  0  0  0  0  0  0  # atno 6908 bound_to 6896
  152.4466  134.5488  159.9912 H   0  0  0  0  0  0  0  0  0  0  0  0  # atno 6909 bound_to 6896
  145.3823  139.2377  143.3397 H   0  0  0  0  0  0  0  0  0  0  0  0  # atno 7974 bound_to 7965
  154.7774  140.0469  157.1100 H   0  0  0  0  0  0  0  0  0  0  0  0  # atno 8008 bound_to 7997
  154.9746  140.3094  155.4953 H   0  0  0  0  0  0  0  0  0  0  0  0  # atno 8009 bound_to 7997
  156.2931  140.2247  156.4841 H   0  0  0  0  0  0  0  0  0  0  0  0  # atno 8010 bound_to 7997
  140.6532  143.2580  151.4663 H   0  0  0  0  0  0  0  0  0  0  0  0  # atno 10167 bound_to 10162
  157.2037  130.6902  149.6199 H   0  0  0  0  0  0  0  0  0  0  0  0  # atno 10718 bound_to 10713
  154.6919  135.2972  154.9466 H   0  0  0  0  0  0  0  0  0  0  0  0  # atno 10763 bound_to 10752
  154.0427  135.6655  153.4796 H   0  0  0  0  0  0  0  0  0  0  0  0  # atno 10764 bound_to 10752
  153.0618  135.5111  154.8017 H   0  0  0  0  0  0  0  0  0  0  0  0  # atno 10765 bound_to 10752
  139.9762  134.9563  156.9515 H   0  0  0  0  0  0  0  0  0  0  0  0  # atno 11005 bound_to 11000
  146.2836  140.4493  142.8766 LP  0  0  0  0  0  0  0  0  0  0  0  0  # atno 17320 bound_to 7965
  144.8499  140.6985  143.6175 LP  0  0  0  0  0  0  0  0  0  0  0  0  # atno 17321 bound_to 7965
  139.5750  144.1840  152.1890 LP  0  0  0  0  0  0  0  0  0  0  0  0  # atno 17342 bound_to 10162
  140.1148  144.5425  150.6901 LP  0  0  0  0  0  0  0  0  0  0  0  0  # atno 17343 bound_to 10162
  155.9698  130.4574  150.5961 LP  0  0  0  0  0  0  0  0  0  0  0  0  # atno 17370 bound_to 10713
  157.3741  131.0770  151.1532 LP  0  0  0  0  0  0  0  0  0  0  0  0  # atno 17371 bound_to 10713
  140.5190  134.0926  155.7287 LP  0  0  0  0  0  0  0  0  0  0  0  0  # atno 17394 bound_to 11000
  141.1438  133.9090  157.2263 LP  0  0  0  0  0  0  0  0  0  0  0  0  # atno 17395 bound_to 11000

$$$$
