AV-unprocessed.smi:937|AV-procd|sdf|4210|dock6
  -GOLD-   22720 2113D 1   1.00000     0.00000
 Structure written by MMmdl.
 45 46  0  0  0  0  0  0  0  0  1 V2000
  154.1061  133.3366  165.5222 C   0  0  0  0  0  0  0  0  0  0  0  0
  154.3470  134.1549  164.2709 C   0  0  0  0  0  0  0  0  0  0  0  0
  154.2299  135.5606  164.2959 C   0  0  0  0  0  0  0  0  0  0  0  0
  154.4705  136.2751  163.1064 C   0  0  0  0  0  0  0  0  0  0  0  0
  154.8186  135.5593  161.9427 C   0  0  0  0  0  0  0  0  0  0  0  0
  155.0864  136.2784  160.6357 C   0  0  0  0  0  0  0  0  0  0  0  0
  156.2766  137.2452  160.7405 C   0  0  0  0  0  0  0  0  0  0  0  0
  155.8721  138.6171  160.4592 N   0  0  0  0  0  0  0  0  0  0  0  0
  154.7193  139.1780  160.8620 C   0  0  0  0  0  0  0  0  0  0  0  0
  153.8801  138.5874  161.5394 O   0  0  0  0  0  0  0  0  0  0  0  0
  154.5406  140.4511  160.4658 N   0  0  0  0  0  0  0  0  0  0  0  0
  153.4065  141.3381  160.7324 C   0  0  1  0  0  0  0  0  0  0  0  0
  153.6900  142.2334  161.9560 C   0  0  0  0  0  0  0  0  0  0  0  0
  152.5430  143.2251  162.1979 C   0  0  0  0  0  0  0  0  0  0  0  0
  152.2697  144.0769  160.9488 C   0  0  0  0  0  0  0  0  0  0  0  0
  151.9758  143.1996  159.7136 C   0  0  1  0  0  0  0  0  0  0  0  0
  151.6902  144.0491  158.4578 C   0  0  0  0  0  0  0  0  0  0  0  0
  150.7376  144.9499  158.7008 F   0  0  0  0  0  0  0  0  0  0  0  0
  152.7972  144.6853  158.0750 F   0  0  0  0  0  0  0  0  0  0  0  0
  151.2948  143.2641  157.4556 F   0  0  0  0  0  0  0  0  0  0  0  0
  153.1302  142.1996  159.4853 C   0  0  0  0  0  0  0  0  0  0  0  0
  154.9083  134.1535  162.0240 C   0  0  0  0  0  0  0  0  0  0  0  0
  154.6800  133.4602  163.1602 N   0  0  0  0  0  0  0  0  0  0  0  0
  153.4425  133.8622  166.2094 H   0  0  0  0  0  0  0  0  0  0  0  0
  155.0499  133.1470  166.0341 H   0  0  0  0  0  0  0  0  0  0  0  0
  153.6481  132.3772  165.2790 H   0  0  0  0  0  0  0  0  0  0  0  0
  153.9630  136.0808  165.2043 H   0  0  0  0  0  0  0  0  0  0  0  0
  154.3882  137.3519  163.0899 H   0  0  0  0  0  0  0  0  0  0  0  0
  155.2708  135.5400  159.8540 H   0  0  0  0  0  0  0  0  0  0  0  0
  154.1845  136.8177  160.3425 H   0  0  0  0  0  0  0  0  0  0  0  0
  156.7339  137.1848  161.7298 H   0  0  0  0  0  0  0  0  0  0  0  0
  157.0489  136.9648  160.0237 H   0  0  0  0  0  0  0  0  0  0  0  0
  156.5070  139.1772  159.9095 H   0  0  0  0  0  0  0  0  0  0  0  0
  155.2920  140.8571  159.9271 H   0  0  0  0  0  0  0  0  0  0  0  0
  152.5145  140.7393  160.9251 H   0  0  0  0  0  0  0  0  0  0  0  0
  153.8378  141.6253  162.8491 H   0  0  0  0  0  0  0  0  0  0  0  0
  154.6186  142.7853  161.8024 H   0  0  0  0  0  0  0  0  0  0  0  0
  151.6399  142.6792  162.4742 H   0  0  0  0  0  0  0  0  0  0  0  0
  152.7834  143.8718  163.0423 H   0  0  0  0  0  0  0  0  0  0  0  0
  151.4299  144.7440  161.1438 H   0  0  0  0  0  0  0  0  0  0  0  0
  153.1309  144.7164  160.7515 H   0  0  0  0  0  0  0  0  0  0  0  0
  151.0751  142.6212  159.9261 H   0  0  0  0  0  0  0  0  0  0  0  0
  154.0343  142.7446  159.2090 H   0  0  0  0  0  0  0  0  0  0  0  0
  152.8943  141.5502  158.6415 H   0  0  0  0  0  0  0  0  0  0  0  0
  155.1690  133.5681  161.1544 H   0  0  0  0  0  0  0  0  0  0  0  0
  1  2  1  0  0  0  0
  1 24  1  0  0  0  0
  1 25  1  0  0  0  0
  1 26  1  0  0  0  0
  2 23  1  0  0  0  0
  2  3  2  0  0  0  0
  3  4  1  0  0  0  0
  3 27  1  0  0  0  0
  4  5  2  0  0  0  0
  4 28  1  0  0  0  0
  5  6  1  0  0  0  0
  5 22  1  0  0  0  0
  6  7  1  0  0  0  0
  6 29  1  0  0  0  0
  6 30  1  0  0  0  0
  7  8  1  0  0  0  0
  7 31  1  0  0  0  0
  7 32  1  0  0  0  0
  8  9  1  0  0  0  0
  8 33  1  0  0  0  0
  9 10  2  0  0  0  0
  9 11  1  0  0  0  0
 11 12  1  0  0  0  0
 11 34  1  0  0  0  0
 12 21  1  0  0  0  0
 12 13  1  0  0  0  0
 12 35  1  0  0  0  0
 13 14  1  0  0  0  0
 13 36  1  0  0  0  0
 13 37  1  0  0  0  0
 14 15  1  0  0  0  0
 14 38  1  0  0  0  0
 14 39  1  0  0  0  0
 15 16  1  0  0  0  0
 15 40  1  0  0  0  0
 15 41  1  0  0  0  0
 16 17  1  0  0  0  0
 16 21  1  0  0  0  0
 16 42  1  0  0  0  0
 17 18  1  0  0  0  0
 17 19  1  0  0  0  0
 17 20  1  0  0  0  0
 21 43  1  0  0  0  0
 21 44  1  0  0  0  0
 22 23  2  0  0  0  0
 22 45  1  0  0  0  0
M  END
> <s_m_source_file>
AV-unprocessed.smi

> <i_m_source_file_index>
937

> <i_lp_mmshare_version>
43012

> <i_f3d_flags>
0

> <s_epik_input>
W0NIM11jMVtjSF1bY0hdYyhbY0hdbjEpW0NIMl1bQ0gyXVtOSF1DKD1PKVtOSF1bQ0BASF0yW0NIMl1bQ0gyXVtDSDJdW0NAQEhdKEMoRikoRilGKVtDSDJdMg==

> <s_epik_cmdline>
J2VwaWtfcHl0aG9uJywgJy1waCcsICc3LjAnLCAnLXRuJywgJzgnLCAnLW1hJywgJzIwMCcsICctbWV0YWxfYmluZGluZycsICctaW1hZScsICc8aW5maWxlLm1hZT4nLCAnLW9tYWUnLCAnPG91dGZpbGUubWFlPic=

> <r_epik_Ionization_Penalty>
0.0563445

> <r_epik_Ionization_Penalty_Charging>
0

> <r_epik_Ionization_Penalty_Neutral>
0.0563445

> <r_epik_State_Penalty>
0.0485409

> <r_epik_Charging_Adjusted_Penalty>
0.0485409

> <i_epik_Tot_Q>
0

> <i_epik_Tot_abs_Q>
0

> <r_epik_Metal_State_Penalty>
0.0443056

> <b_epik_Metal_Only>
0

> <s_lp_Force_Field>
OPLS_2005

> <r_lp_Energy>
17.7613

> <b_lp_Chiralities_Consistent>
1

> <s_lp_Variant>
AV-unprocessed.smi:937-2

> <Gold.Version>
5.8.1

> <Gold.Id.Protein>
6NUR|6NUR_protein|mol2

> <Gold.PLP.Fitness>
51.8352

> <Gold.PLP.PLP>
-53.6231

> <Gold.PLP.part.hbond>
0.0000

> <Gold.PLP.part.metal>
0.0000

> <Gold.PLP.part.buried>
-4.1450

> <Gold.PLP.part.nonpolar>
-49.3592

> <Gold.PLP.part.repulsive>
0.0761

> <Gold.PLP.ligand.clash>
0.0000

> <Gold.PLP.ligand.torsion>
0.9038

> <Gold.PLP.Chemscore.Hbond>
0.0000

> <Gold.PLP.Chemscore.CHOScore>
0.0000

> <Gold.PLP.Chemscore.Metal>
0.0000

> <Gold.PLP.Chemscore.Internal.Correction>
0.0197

> <Gold.Rescore>
     Score         DG    S(hbond)    S(metal)    S(lipo)     H(rot)  DE(clash)    DE(int)     intcor
     13.69     -17.32       0.00        0.00     135.87       1.58       0.06       3.58       ----

> <Gold.Chemscore.Fitness>
13.6869

> <Gold.Chemscore.DG>
-17.3188

> <Gold.Chemscore.ZeroCoef>
-5.4800

> <Gold.Chemscore.Hbond>
0.0000

> <Gold.Chemscore.Metal>
0.0000

> <Gold.Chemscore.Lipo>
135.8651

> <Gold.Chemscore.Internal_Hbond>
0.0000

> <Gold.Chemscore.DEClash>
0.0558

> <Gold.Chemscore.DEInternal>
3.5761

> <Gold.Chemscore.Rot>
1.5849

> <Gold.Chemscore.Internal.Correction>
   9.000000E+99

> <Gold.Chemscore.Hbond.Weighted>
-0.0000

> <Gold.Chemscore.Metal.Weighted>
-0.0000

> <Gold.Chemscore.Lipo.Weighted>
-15.8962

> <Gold.Chemscore.Internal_Hbond.Weighted>
0.0000

> <Gold.Chemscore.DEClash.Weighted>
0.0558

> <Gold.Chemscore.DEInternal.Weighted>
3.5761

> <Gold.Chemscore.Rot.Weighted>
4.0574

> <Gold.Chemscore.Internal.Correction.Weighted>
   9.000000E+99

> <Gold.Protein.RotatedTorsions>
[ 6907 6896 6895 6894 ] final -114.22 input  -60.11 | X-H torsion
[ 7974 7965 7964 7962 ] final  -73.96 input  175.53 | X-H torsion
[ 8008 7997 7996 7995 ] final  125.78 input   59.86 | X-H torsion
[ 10167 10162 10161 10158 ] final  -94.68 input  -65.29 | X-H torsion
[ 10718 10713 10712 10709 ] final   44.51 input   66.30 | X-H torsion
[ 10763 10752 10751 10750 ] final  -79.54 input  -60.55 | X-H torsion
[ 11005 11000 10999 10996 ] final   27.38 input  -57.11 | X-H torsion

> <Gold.Protein.ActiveResidues>
 VAL166  LYS551  ARG553  GLY616  TRP617  ASP618  TYR619  PRO620  LYS621  CYS622 
 ASP623  PHE694  ASN695  SER759  ASP760  ASP761  ALA762  ILE779  LEU786  VAL792 
 PHE793  MET794  SER795  GLU796  ALA797  LYS798  CYS799  TRP800  GLU811  SER814 

> <Gold.Protein.RotatedAtoms>
  150.7886  133.8832  159.3291 H   0  0  0  0  0  0  0  0  0  0  0  0  # atno 6907 bound_to 6896
  151.6676  135.0979  160.0201 H   0  0  0  0  0  0  0  0  0  0  0  0  # atno 6908 bound_to 6896
  152.3956  133.6703  159.6308 H   0  0  0  0  0  0  0  0  0  0  0  0  # atno 6909 bound_to 6896
  145.6453  140.9299  143.1014 H   0  0  0  0  0  0  0  0  0  0  0  0  # atno 7974 bound_to 7965
  156.2844  140.2708  156.2004 H   0  0  0  0  0  0  0  0  0  0  0  0  # atno 8008 bound_to 7997
  155.0367  140.0386  157.2512 H   0  0  0  0  0  0  0  0  0  0  0  0  # atno 8009 bound_to 7997
  154.7309  140.2706  155.6462 H   0  0  0  0  0  0  0  0  0  0  0  0  # atno 8010 bound_to 7997
  140.3119  143.3100  152.0139 H   0  0  0  0  0  0  0  0  0  0  0  0  # atno 10167 bound_to 10162
  157.4276  130.8006  149.7573 H   0  0  0  0  0  0  0  0  0  0  0  0  # atno 10718 bound_to 10713
  154.5399  135.5692  153.6830 H   0  0  0  0  0  0  0  0  0  0  0  0  # atno 10763 bound_to 10752
  152.9961  135.6225  154.2516 H   0  0  0  0  0  0  0  0  0  0  0  0  # atno 10764 bound_to 10752
  154.2446  135.2861  155.2820 H   0  0  0  0  0  0  0  0  0  0  0  0  # atno 10765 bound_to 10752
  140.3269  134.2481  155.7708 H   0  0  0  0  0  0  0  0  0  0  0  0  # atno 11005 bound_to 11000
  144.7142  139.8257  143.7404 LP  0  0  0  0  0  0  0  0  0  0  0  0  # atno 17320 bound_to 7965
  146.1248  139.4272  143.0206 LP  0  0  0  0  0  0  0  0  0  0  0  0  # atno 17321 bound_to 7965
  139.4892  144.6378  151.6940 LP  0  0  0  0  0  0  0  0  0  0  0  0  # atno 17342 bound_to 10162
  140.5561  144.0346  150.6148 LP  0  0  0  0  0  0  0  0  0  0  0  0  # atno 17343 bound_to 10162
  155.9902  130.3946  150.3040 LP  0  0  0  0  0  0  0  0  0  0  0  0  # atno 17370 bound_to 10713
  157.1193  131.0242  151.3016 LP  0  0  0  0  0  0  0  0  0  0  0  0  # atno 17371 bound_to 10713
  141.2073  133.7809  157.0127 LP  0  0  0  0  0  0  0  0  0  0  0  0  # atno 17394 bound_to 11000
  140.0894  134.9601  157.1752 LP  0  0  0  0  0  0  0  0  0  0  0  0  # atno 17395 bound_to 11000

$$$$
