AV-unprocessed.smi:676|AV-procd|sdf|3309|dock4
  -GOLD-   22720 0273D 1   1.00000     0.00000
 Structure written by MMmdl.
 42 43  0  0  0  0  0  0  0  0  1 V2000
  145.7414  138.4983  154.9346 C   0  0  0  0  0  0  0  0  0  0  0  0
  146.0992  139.8658  155.0921 O   0  0  0  0  0  0  0  0  0  0  0  0
  147.2129  140.3474  154.3271 C   0  0  1  0  0  0  0  0  0  0  0  0
  147.1106  139.8752  152.8713 C   0  0  0  0  0  0  0  0  0  0  0  0
  147.4551  141.8402  154.6225 C   0  0  0  0  0  0  0  0  0  0  0  0
  148.2367  141.3930  155.8561 C   0  0  2  0  0  0  0  0  0  0  0  0
  149.4090  142.2229  156.1118 N   0  0  0  0  0  0  0  0  0  0  0  0
  150.5163  141.7972  156.7362 C   0  0  0  0  0  0  0  0  0  0  0  0
  150.6542  140.6453  157.1505 O   0  0  0  0  0  0  0  0  0  0  0  0
  151.6403  142.8317  156.8893 C   0  0  0  0  0  0  0  0  0  0  0  0
  151.9184  143.1897  158.2901 N   0  0  0  0  0  0  0  0  0  0  0  0
  151.7622  144.5434  158.6491 C   0  0  0  0  0  0  0  0  0  0  0  0
  151.9926  144.9777  159.8982 C   0  0  0  0  0  0  0  0  0  0  0  0
  152.4116  144.0150  160.8891 C   0  0  0  0  0  0  0  0  0  0  0  0
  152.5675  142.7185  160.5555 C   0  0  0  0  0  0  0  0  0  0  0  0
  152.3189  142.2397  159.1907 C   0  0  0  0  0  0  0  0  0  0  0  0
  152.4613  141.0577  158.8767 O   0  0  0  0  0  0  0  0  0  0  0  0
  148.5250  140.0552  155.1270 C   0  0  0  0  0  0  0  0  0  0  0  0
  148.5269  138.7997  156.0060 C   0  0  0  0  0  0  0  0  0  0  0  0
  149.8201  139.9848  154.2957 C   0  0  0  0  0  0  0  0  0  0  0  0
  144.7937  138.3187  155.4417 H   0  0  0  0  0  0  0  0  0  0  0  0
  146.4783  137.8358  155.3882 H   0  0  0  0  0  0  0  0  0  0  0  0
  145.6144  138.2183  153.8895 H   0  0  0  0  0  0  0  0  0  0  0  0
  147.9940  140.1462  152.2943 H   0  0  0  0  0  0  0  0  0  0  0  0
  146.2638  140.3256  152.3543 H   0  0  0  0  0  0  0  0  0  0  0  0
  147.0019  138.7921  152.8137 H   0  0  0  0  0  0  0  0  0  0  0  0
  148.0731  142.3267  153.8658 H   0  0  0  0  0  0  0  0  0  0  0  0
  146.5712  142.4364  154.8460 H   0  0  0  0  0  0  0  0  0  0  0  0
  147.5831  141.2726  156.7236 H   0  0  0  0  0  0  0  0  0  0  0  0
  149.3737  143.1813  155.7961 H   0  0  0  0  0  0  0  0  0  0  0  0
  152.5360  142.4308  156.4129 H   0  0  0  0  0  0  0  0  0  0  0  0
  151.3890  143.7264  156.3166 H   0  0  0  0  0  0  0  0  0  0  0  0
  151.4537  145.1998  157.8484 H   0  0  0  0  0  0  0  0  0  0  0  0
  151.8721  146.0200  160.1542 H   0  0  0  0  0  0  0  0  0  0  0  0
  152.6018  144.3360  161.9027 H   0  0  0  0  0  0  0  0  0  0  0  0
  152.8827  142.0126  161.3098 H   0  0  0  0  0  0  0  0  0  0  0  0
  149.4483  138.7150  156.5833 H   0  0  0  0  0  0  0  0  0  0  0  0
  148.4277  137.8941  155.4070 H   0  0  0  0  0  0  0  0  0  0  0  0
  147.7087  138.8038  156.7263 H   0  0  0  0  0  0  0  0  0  0  0  0
  150.7058  139.9549  154.9313 H   0  0  0  0  0  0  0  0  0  0  0  0
  149.9332  140.8438  153.6342 H   0  0  0  0  0  0  0  0  0  0  0  0
  149.8446  139.0921  153.6699 H   0  0  0  0  0  0  0  0  0  0  0  0
  1  2  1  0  0  0  0
  1 21  1  0  0  0  0
  1 22  1  0  0  0  0
  1 23  1  0  0  0  0
  2  3  1  0  0  0  0
  3 18  1  0  0  0  0
  3  4  1  0  0  0  0
  3  5  1  0  0  0  0
  4 24  1  0  0  0  0
  4 25  1  0  0  0  0
  4 26  1  0  0  0  0
  5  6  1  0  0  0  0
  5 27  1  0  0  0  0
  5 28  1  0  0  0  0
  6  7  1  0  0  0  0
  6 18  1  0  0  0  0
  6 29  1  0  0  0  0
  7  8  1  0  0  0  0
  7 30  1  0  0  0  0
  8  9  2  0  0  0  0
  8 10  1  0  0  0  0
 10 11  1  0  0  0  0
 10 31  1  0  0  0  0
 10 32  1  0  0  0  0
 11 16  1  0  0  0  0
 11 12  1  0  0  0  0
 12 13  2  0  0  0  0
 12 33  1  0  0  0  0
 13 14  1  0  0  0  0
 13 34  1  0  0  0  0
 14 15  2  0  0  0  0
 14 35  1  0  0  0  0
 15 16  1  0  0  0  0
 15 36  1  0  0  0  0
 16 17  2  0  0  0  0
 18 19  1  0  0  0  0
 18 20  1  0  0  0  0
 19 37  1  0  0  0  0
 19 38  1  0  0  0  0
 19 39  1  0  0  0  0
 20 40  1  0  0  0  0
 20 41  1  0  0  0  0
 20 42  1  0  0  0  0
M  END
> <s_m_source_file>
AV-unprocessed.smi

> <i_m_source_file_index>
676

> <i_lp_mmshare_version>
43012

> <i_f3d_flags>
0

> <s_epik_input>
W0NIM11PW0NAQF0xKFtDSDNdKVtDSDJdW0NASF0oQzEoW0NIM10pW0NIM10pW05IXUMoPU8pW0NIMl1uMltjSF1bY0hdW2NIXVtjSF1jMj1P

> <s_epik_cmdline>
J2VwaWtfcHl0aG9uJywgJy1waCcsICc3LjAnLCAnLXRuJywgJzgnLCAnLW1hJywgJzIwMCcsICctbWV0YWxfYmluZGluZycsICctaW1hZScsICc8aW5maWxlLm1hZT4nLCAnLW9tYWUnLCAnPG91dGZpbGUubWFlPic=

> <r_lp_tautomer_probability>
1

> <r_epik_Ionization_Penalty>
4.09771e-07

> <r_epik_Ionization_Penalty_Charging>
3.90712e-07

> <r_epik_Ionization_Penalty_Neutral>
1.90591e-08

> <r_epik_State_Penalty>
-0

> <r_epik_Charging_Adjusted_Penalty>
3.90712e-07

> <i_epik_Tot_Q>
0

> <i_epik_Tot_abs_Q>
0

> <r_epik_Metal_State_Penalty>
-0

> <b_epik_Metal_Only>
0

> <s_lp_Force_Field>
OPLS_2005

> <r_lp_Energy>
31.664

> <b_lp_Chiralities_Consistent>
1

> <s_lp_Variant>
AV-unprocessed.smi:676-3

> <Gold.Version>
5.8.1

> <Gold.Id.Protein>
6NUR|6NUR_protein|mol2

> <Gold.PLP.Fitness>
40.5519

> <Gold.PLP.PLP>
-38.0608

> <Gold.PLP.part.hbond>
-0.8097

> <Gold.PLP.part.metal>
0.0000

> <Gold.PLP.part.buried>
-3.8760

> <Gold.PLP.part.nonpolar>
-33.7436

> <Gold.PLP.part.repulsive>
0.2032

> <Gold.PLP.ligand.clash>
0.0115

> <Gold.PLP.ligand.torsion>
0.4362

> <Gold.PLP.Chemscore.Hbond>
1.0000

> <Gold.PLP.Chemscore.CHOScore>
0.0000

> <Gold.PLP.Chemscore.Metal>
0.0000

> <Gold.Chemscore.Hbonds>
donor molecule, donor type, donor heavy atom, donor atom, acceptor molecule, acceptor atom, score
      L1  H     7    30       P1  8028  1.00

> <Gold.PLP.Chemscore.Internal.Correction>
0.3751

> <Gold.Rescore>
     Score         DG    S(hbond)    S(metal)    S(lipo)     H(rot)  DE(clash)    DE(int)     intcor
     12.67     -14.86       0.98        0.00      87.73       1.62       0.17       2.02       ----

> <Gold.Chemscore.Fitness>
12.6677

> <Gold.Chemscore.DG>
-14.8616

> <Gold.Chemscore.ZeroCoef>
-5.4800

> <Gold.Chemscore.Hbond>
0.9755

> <Gold.Chemscore.Metal>
0.0000

> <Gold.Chemscore.Lipo>
87.7284

> <Gold.Chemscore.Internal_Hbond>
0.0000

> <Gold.Chemscore.DEClash>
0.1722

> <Gold.Chemscore.DEInternal>
2.0217

> <Gold.Chemscore.Rot>
1.6175

> <Gold.Chemscore.Internal.Correction>
   9.000000E+99

> <Gold.Chemscore.Hbonds>
donor molecule, donor type, donor heavy atom, donor atom, acceptor molecule, acceptor atom, score
      L1  H     7    30       P1  8028  0.99

> <Gold.Chemscore.Hbond.Weighted>
-3.2581

> <Gold.Chemscore.Metal.Weighted>
-0.0000

> <Gold.Chemscore.Lipo.Weighted>
-10.2642

> <Gold.Chemscore.Internal_Hbond.Weighted>
0.0000

> <Gold.Chemscore.DEClash.Weighted>
0.1722

> <Gold.Chemscore.DEInternal.Weighted>
2.0217

> <Gold.Chemscore.Rot.Weighted>
4.1408

> <Gold.Chemscore.Internal.Correction.Weighted>
   9.000000E+99

> <Gold.Protein.RotatedTorsions>
[ 6907 6896 6895 6894 ] final    4.35 input  -60.11 | X-H torsion
[ 7974 7965 7964 7962 ] final -103.46 input  175.53 | X-H torsion
[ 8008 7997 7996 7995 ] final  -63.34 input   59.86 | X-H torsion
[ 10167 10162 10161 10158 ] final  -21.29 input  -65.29 | X-H torsion
[ 10718 10713 10712 10709 ] final -172.93 input   66.30 | X-H torsion
[ 10763 10752 10751 10750 ] final    1.29 input  -60.55 | X-H torsion
[ 11005 11000 10999 10996 ] final  -74.91 input  -57.11 | X-H torsion

> <Gold.Protein.ActiveResidues>
 VAL166  LYS551  ARG553  GLY616  TRP617  ASP618  TYR619  PRO620  LYS621  CYS622 
 ASP623  PHE694  ASN695  SER759  ASP760  ASP761  ALA762  ILE779  LEU786  VAL792 
 PHE793  MET794  SER795  GLU796  ALA797  LYS798  CYS799  TRP800  GLU811  SER814 

> <Gold.Protein.RotatedAtoms>
  151.6399  135.1014  160.0138 H   0  0  0  0  0  0  0  0  0  0  0  0  # atno 6907 bound_to 6896
  152.4060  133.6885  159.6365 H   0  0  0  0  0  0  0  0  0  0  0  0  # atno 6908 bound_to 6896
  150.7954  133.8626  159.3277 H   0  0  0  0  0  0  0  0  0  0  0  0  # atno 6909 bound_to 6896
  145.2556  140.9252  143.3070 H   0  0  0  0  0  0  0  0  0  0  0  0  # atno 7974 bound_to 7965
  154.4549  140.0977  156.6727 H   0  0  0  0  0  0  0  0  0  0  0  0  # atno 8008 bound_to 7997
  155.5170  140.3478  155.4381 H   0  0  0  0  0  0  0  0  0  0  0  0  # atno 8009 bound_to 7997
  156.0757  140.1360  156.9763 H   0  0  0  0  0  0  0  0  0  0  0  0  # atno 8010 bound_to 7997
  140.7281  143.4642  151.0337 H   0  0  0  0  0  0  0  0  0  0  0  0  # atno 10167 bound_to 10162
  156.7629  130.9420  151.3118 H   0  0  0  0  0  0  0  0  0  0  0  0  # atno 10718 bound_to 10713
  153.3099  135.6962  153.7125 H   0  0  0  0  0  0  0  0  0  0  0  0  # atno 10763 bound_to 10752
  153.6006  135.3462  155.2945 H   0  0  0  0  0  0  0  0  0  0  0  0  # atno 10764 bound_to 10752
  154.8572  135.4340  154.2234 H   0  0  0  0  0  0  0  0  0  0  0  0  # atno 10765 bound_to 10752
  141.1640  133.6928  156.7437 H   0  0  0  0  0  0  0  0  0  0  0  0  # atno 11005 bound_to 11000
  144.9464  139.4132  143.6424 LP  0  0  0  0  0  0  0  0  0  0  0  0  # atno 17320 bound_to 7965
  146.3290  139.8449  142.8883 LP  0  0  0  0  0  0  0  0  0  0  0  0  # atno 17321 bound_to 7965
  139.8329  143.7667  152.3180 LP  0  0  0  0  0  0  0  0  0  0  0  0  # atno 17342 bound_to 10162
  139.7789  144.7451  151.0117 LP  0  0  0  0  0  0  0  0  0  0  0  0  # atno 17343 bound_to 10162
  157.6726  130.9065  150.0076 LP  0  0  0  0  0  0  0  0  0  0  0  0  # atno 17370 bound_to 10713
  156.1327  130.3643  149.9706 LP  0  0  0  0  0  0  0  0  0  0  0  0  # atno 17371 bound_to 10713
  140.2655  134.8433  157.3799 LP  0  0  0  0  0  0  0  0  0  0  0  0  # atno 17394 bound_to 11000
  140.1570  134.4777  155.7921 LP  0  0  0  0  0  0  0  0  0  0  0  0  # atno 17395 bound_to 11000

$$$$
