AV-unprocessed.smi:2895|AV-procd|sdf|11133|dock9
  -GOLD-   2272016 03D 1   1.00000     0.00000
 Structure written by MMmdl.
 54 57  0  0  0  0  0  0  0  0  3 V2000
  150.6210  139.9049  155.1877 O   0  0  0  0  0  0  0  0  0  0  0  0
  149.6118  139.8500  155.8927 C   0  0  0  0  0  0  0  0  0  0  0  0
  149.6668  139.4368  157.1719 N   0  0  0  0  0  0  0  0  0  0  0  0
  150.8765  139.0186  157.8704 C   0  0  0  0  0  0  0  0  0  0  0  0
  151.0187  139.7267  159.2272 C   0  0  0  0  0  0  0  0  0  0  0  0
  151.5206  141.1500  159.0780 C   0  0  0  0  0  0  0  0  0  0  0  0
  150.9224  142.0267  158.1460 C   0  0  0  0  0  0  0  0  0  0  0  0
  151.4096  143.3449  158.0311 C   0  0  0  0  0  0  0  0  0  0  0  0
  152.4355  143.7536  158.8098 N   0  3  0  0  0  0  0  0  0  0  0  0
  153.0335  142.9479  159.7148 C   0  0  0  0  0  0  0  0  0  0  0  0
  152.5895  141.6192  159.8734 C   0  0  0  0  0  0  0  0  0  0  0  0
  148.3772  140.2205  155.4576 N   0  0  0  0  0  0  0  0  0  0  0  0
  147.1368  139.9469  156.2215 C   0  0  0  0  0  0  0  0  0  0  0  0
  145.8510  139.9601  155.3774 C   0  0  0  0  0  0  0  0  0  0  0  0
  145.7774  141.1359  154.4802 N   0  3  0  0  0  0  0  0  0  0  0  0
  145.6222  142.4611  155.1600 C   0  0  1  0  0  0  0  0  0  0  0  0
  145.3270  143.6067  154.1555 C   0  0  0  0  0  0  0  0  0  0  0  0
  144.0504  144.2574  154.7127 C   0  0  2  0  0  0  0  0  0  0  0  0
  144.3697  144.9812  156.0320 C   0  0  0  0  0  0  0  0  0  0  0  0
  144.5832  143.8129  157.0101 C   0  0  0  0  0  0  0  0  0  0  0  0
  144.3989  142.5732  156.1127 C   0  0  1  0  0  0  0  0  0  0  0  0
  143.2773  143.0359  155.1895 C   0  0  0  0  0  0  0  0  0  0  0  0
  146.9218  141.0755  153.5409 C   0  0  0  0  0  0  0  0  0  0  0  0
  148.2840  141.0859  154.2619 C   0  0  0  0  0  0  0  0  0  0  0  0
  148.8079  139.4244  157.7027 H   0  0  0  0  0  0  0  0  0  0  0  0
  150.8788  137.9352  158.0019 H   0  0  0  0  0  0  0  0  0  0  0  0
  151.7310  139.2548  157.2356 H   0  0  0  0  0  0  0  0  0  0  0  0
  150.0583  139.7422  159.7443 H   0  0  0  0  0  0  0  0  0  0  0  0
  151.7048  139.1755  159.8720 H   0  0  0  0  0  0  0  0  0  0  0  0
  150.1006  141.6957  157.5273 H   0  0  0  0  0  0  0  0  0  0  0  0
  151.0125  144.0791  157.3453 H   0  0  0  0  0  0  0  0  0  0  0  0
  153.8425  143.3869  160.2803 H   0  0  0  0  0  0  0  0  0  0  0  0
  153.0628  140.9708  160.5965 H   0  0  0  0  0  0  0  0  0  0  0  0
  147.1757  138.9735  156.7128 H   0  0  0  0  0  0  0  0  0  0  0  0
  147.0602  140.6893  157.0171 H   0  0  0  0  0  0  0  0  0  0  0  0
  145.8326  139.0635  154.7558 H   0  0  0  0  0  0  0  0  0  0  0  0
  144.9714  139.8688  156.0102 H   0  0  0  0  0  0  0  0  0  0  0  0
  146.5337  142.6784  155.7177 H   0  0  0  0  0  0  0  0  0  0  0  0
  146.1543  144.3132  154.0763 H   0  0  0  0  0  0  0  0  0  0  0  0
  145.1187  143.2288  153.1539 H   0  0  0  0  0  0  0  0  0  0  0  0
  143.5256  144.8801  153.9877 H   0  0  0  0  0  0  0  0  0  0  0  0
  145.2480  145.6228  155.9495 H   0  0  0  0  0  0  0  0  0  0  0  0
  143.5301  145.6004  156.3510 H   0  0  0  0  0  0  0  0  0  0  0  0
  145.5618  143.8431  157.4904 H   0  0  0  0  0  0  0  0  0  0  0  0
  143.8285  143.8339  157.7975 H   0  0  0  0  0  0  0  0  0  0  0  0
  144.1660  141.6899  156.7029 H   0  0  0  0  0  0  0  0  0  0  0  0
  142.3563  143.2867  155.7189 H   0  0  0  0  0  0  0  0  0  0  0  0
  143.0502  142.3258  154.3925 H   0  0  0  0  0  0  0  0  0  0  0  0
  146.8352  140.1554  152.9612 H   0  0  0  0  0  0  0  0  0  0  0  0
  146.8826  141.8804  152.8079 H   0  0  0  0  0  0  0  0  0  0  0  0
  148.5174  142.1044  154.5753 H   0  0  0  0  0  0  0  0  0  0  0  0
  149.0420  140.8205  153.5226 H   0  0  0  0  0  0  0  0  0  0  0  0
  144.9428  141.0149  153.9241 H   0  0  0  0  0  0  0  0  0  0  0  0
  152.7726  144.7115  158.7101 H   0  0  0  0  0  0  0  0  0  0  0  0
  1  2  2  0  0  0  0
  2  3  1  0  0  0  0
  2 12  1  0  0  0  0
  3  4  1  0  0  0  0
  3 25  1  0  0  0  0
  4  5  1  0  0  0  0
  4 26  1  0  0  0  0
  4 27  1  0  0  0  0
  5  6  1  0  0  0  0
  5 28  1  0  0  0  0
  5 29  1  0  0  0  0
  6 11  1  0  0  0  0
  6  7  2  0  0  0  0
  7  8  1  0  0  0  0
  7 30  1  0  0  0  0
  8  9  2  0  0  0  0
  8 31  1  0  0  0  0
  9 10  1  0  0  0  0
  9 54  1  0  0  0  0
 10 11  2  0  0  0  0
 10 32  1  0  0  0  0
 11 33  1  0  0  0  0
 12 24  1  0  0  0  0
 12 13  1  0  0  0  0
 13 14  1  0  0  0  0
 13 34  1  0  0  0  0
 13 35  1  0  0  0  0
 14 15  1  0  0  0  0
 14 36  1  0  0  0  0
 14 37  1  0  0  0  0
 15 16  1  0  0  0  0
 15 23  1  0  0  0  0
 15 53  1  0  0  0  0
 16 21  1  0  0  0  0
 16 17  1  0  0  0  0
 16 38  1  0  0  0  0
 17 18  1  0  0  0  0
 17 39  1  0  0  0  0
 17 40  1  0  0  0  0
 18 22  1  0  0  0  0
 18 19  1  0  0  0  0
 18 41  1  0  0  0  0
 19 20  1  0  0  0  0
 19 42  1  0  0  0  0
 19 43  1  0  0  0  0
 20 21  1  0  0  0  0
 20 44  1  0  0  0  0
 20 45  1  0  0  0  0
 21 22  1  0  0  0  0
 21 46  1  0  0  0  0
 22 47  1  0  0  0  0
 22 48  1  0  0  0  0
 23 24  1  0  0  0  0
 23 49  1  0  0  0  0
 23 50  1  0  0  0  0
 24 51  1  0  0  0  0
 24 52  1  0  0  0  0
M  CHG  1   9   1
M  CHG  1  15   1
M  END
> <s_m_source_file>
AV-unprocessed.smi

> <i_m_source_file_index>
2895

> <i_lp_mmshare_version>
43012

> <i_f3d_flags>
0

> <s_epik_input>
W0NIMl0xW0NIMl1bQ0BASF0oW0NIMl0yKVtDQEBIXShbQ0gyXVtDQEhdMTIpTihbQ0gyXVtDSDJdMylbQ0gyXVtDSDJdTjNDKD1PKVtOSF1bQ0gyXVtDSDJdYzRbY0hdW2NIXW5bY0hdW2NIXTQ=

> <s_epik_cmdline>
J2VwaWtfcHl0aG9uJywgJy1waCcsICc3LjAnLCAnLXRuJywgJzgnLCAnLW1hJywgJzIwMCcsICctbWV0YWxfYmluZGluZycsICctaW1hZScsICc8aW5maWxlLm1hZT4nLCAnLW9tYWUnLCAnPG91dGZpbGUubWFlPic=

> <r_epik_Ionization_Penalty>
1.44916

> <r_epik_Ionization_Penalty_Charging>
1.44913

> <r_epik_Ionization_Penalty_Neutral>
2.64641e-05

> <r_epik_State_Penalty>
1.53218

> <r_epik_Charging_Adjusted_Penalty>
2.98131

> <i_epik_Tot_Q>
2

> <i_epik_Tot_abs_Q>
2

> <r_epik_Metal_State_Penalty>
1.58241

> <b_epik_Metal_Only>
0

> <s_lp_Force_Field>
OPLS_2005

> <r_lp_Energy>
108.8

> <b_lp_Chiralities_Consistent>
1

> <s_lp_Variant>
AV-unprocessed.smi:2895-6

> <Gold.Version>
5.8.1

> <Gold.Id.Protein>
6NUR|6NUR_protein|mol2

> <Gold.PLP.Fitness>
50.0389

> <Gold.PLP.PLP>
-41.7045

> <Gold.PLP.part.hbond>
-2.0000

> <Gold.PLP.part.metal>
0.0000

> <Gold.PLP.part.buried>
-7.2674

> <Gold.PLP.part.nonpolar>
-32.9294

> <Gold.PLP.part.repulsive>
0.1135

> <Gold.PLP.ligand.clash>
0.0000

> <Gold.PLP.ligand.torsion>
0.3802

> <Gold.PLP.Chemscore.Hbond>
2.9825

> <Gold.PLP.Chemscore.CHOScore>
0.0000

> <Gold.PLP.Chemscore.Metal>
0.0000

> <Gold.Chemscore.Hbonds>
donor molecule, donor type, donor heavy atom, donor atom, acceptor molecule, acceptor atom, score
      L1  H    15    53       P1 10175  2.00
      P1  H  7989  7998       L1     1  0.60

> <Gold.PLP.Chemscore.Internal.Correction>
0.1473

> <Gold.Rescore>
     Score         DG    S(hbond)    S(metal)    S(lipo)     H(rot)  DE(clash)    DE(int)     intcor
     20.59     -21.07       1.88        0.00     111.37       1.46       0.11       0.37       ----

> <Gold.Chemscore.Fitness>
20.5932

> <Gold.Chemscore.DG>
-21.0689

> <Gold.Chemscore.ZeroCoef>
-5.4800

> <Gold.Chemscore.Hbond>
1.8829

> <Gold.Chemscore.Metal>
0.0000

> <Gold.Chemscore.Lipo>
111.3734

> <Gold.Chemscore.Internal_Hbond>
0.0000

> <Gold.Chemscore.DEClash>
0.1078

> <Gold.Chemscore.DEInternal>
0.3679

> <Gold.Chemscore.Rot>
1.4572

> <Gold.Chemscore.Internal.Correction>
   9.000000E+99

> <Gold.Chemscore.Hbonds>
donor molecule, donor type, donor heavy atom, donor atom, acceptor molecule, acceptor atom, score
      L1  H    15    53       P1 10175  0.80
      P1  H  7989  7998       L1     1  0.60

> <Gold.Chemscore.Hbond.Weighted>
-6.2888

> <Gold.Chemscore.Metal.Weighted>
-0.0000

> <Gold.Chemscore.Lipo.Weighted>
-13.0307

> <Gold.Chemscore.Internal_Hbond.Weighted>
0.0000

> <Gold.Chemscore.DEClash.Weighted>
0.1078

> <Gold.Chemscore.DEInternal.Weighted>
0.3679

> <Gold.Chemscore.Rot.Weighted>
3.7305

> <Gold.Chemscore.Internal.Correction.Weighted>
   9.000000E+99

> <Gold.Protein.RotatedTorsions>
[ 6907 6896 6895 6894 ] final -153.18 input  -60.11 | X-H torsion
[ 7974 7965 7964 7962 ] final  -73.66 input  175.53 | X-H torsion
[ 8008 7997 7996 7995 ] final  -49.71 input   59.86 | X-H torsion
[ 10167 10162 10161 10158 ] final -158.71 input  -65.29 | X-H torsion
[ 10718 10713 10712 10709 ] final   79.99 input   66.30 | X-H torsion
[ 10763 10752 10751 10750 ] final   23.46 input  -60.55 | X-H torsion
[ 11005 11000 10999 10996 ] final   22.13 input  -57.11 | X-H torsion

> <Gold.Protein.ActiveResidues>
 VAL166  LYS551  ARG553  GLY616  TRP617  ASP618  TYR619  PRO620  LYS621  CYS622 
 ASP623  PHE694  ASN695  SER759  ASP760  ASP761  ALA762  ILE779  LEU786  VAL792 
 PHE793  MET794  SER795  GLU796  ALA797  LYS798  CYS799  TRP800  GLU811  SER814 

> <Gold.Protein.RotatedAtoms>
  151.2388  133.4411  159.2606 H   0  0  0  0  0  0  0  0  0  0  0  0  # atno 6907 bound_to 6896
  151.0725  134.9807  159.8326 H   0  0  0  0  0  0  0  0  0  0  0  0  # atno 6908 bound_to 6896
  152.5414  134.2332  159.8886 H   0  0  0  0  0  0  0  0  0  0  0  0  # atno 6909 bound_to 6896
  145.6492  140.9287  143.0994 H   0  0  0  0  0  0  0  0  0  0  0  0  # atno 7974 bound_to 7965
  154.4049  140.1290  156.4547 H   0  0  0  0  0  0  0  0  0  0  0  0  # atno 8008 bound_to 7997
  155.7331  140.3491  155.5049 H   0  0  0  0  0  0  0  0  0  0  0  0  # atno 8009 bound_to 7997
  155.9109  140.1035  157.1270 H   0  0  0  0  0  0  0  0  0  0  0  0  # atno 8010 bound_to 7997
  139.6671  143.9810  152.2261 H   0  0  0  0  0  0  0  0  0  0  0  0  # atno 10167 bound_to 10162
  157.6793  130.9939  150.2013 H   0  0  0  0  0  0  0  0  0  0  0  0  # atno 10718 bound_to 10713
  153.0836  135.6626  153.9994 H   0  0  0  0  0  0  0  0  0  0  0  0  # atno 10763 bound_to 10752
  153.9609  135.2974  155.3435 H   0  0  0  0  0  0  0  0  0  0  0  0  # atno 10764 bound_to 10752
  154.7240  135.5152  153.8929 H   0  0  0  0  0  0  0  0  0  0  0  0  # atno 10765 bound_to 10752
  140.3839  134.1891  155.7663 H   0  0  0  0  0  0  0  0  0  0  0  0  # atno 11005 bound_to 11000
  144.7129  139.8305  143.7408 LP  0  0  0  0  0  0  0  0  0  0  0  0  # atno 17320 bound_to 7965
  146.1217  139.4236  143.0224 LP  0  0  0  0  0  0  0  0  0  0  0  0  # atno 17321 bound_to 7965
  139.9565  144.6586  150.8121 LP  0  0  0  0  0  0  0  0  0  0  0  0  # atno 17342 bound_to 10162
  140.7603  143.3149  151.2757 LP  0  0  0  0  0  0  0  0  0  0  0  0  # atno 17343 bound_to 10162
  156.2703  130.3721  149.8038 LP  0  0  0  0  0  0  0  0  0  0  0  0  # atno 17370 bound_to 10713
  156.5757  130.8444  151.3369 LP  0  0  0  0  0  0  0  0  0  0  0  0  # atno 17371 bound_to 10713
  141.1914  133.8196  157.0881 LP  0  0  0  0  0  0  0  0  0  0  0  0  # atno 17394 bound_to 11000
  140.0457  134.9831  157.1045 LP  0  0  0  0  0  0  0  0  0  0  0  0  # atno 17395 bound_to 11000

$$$$
