AV-unprocessed.smi:2199|AV-procd|sdf|8923|dock5
  -GOLD-   2272012143D 1   1.00000     0.00000
 Structure written by MMmdl.
 26 27  0  0  0  0  0  0  0  0  1 V2000
  151.3379  141.7449  158.1836 O   0  0  0  0  0  0  0  0  0  0  0  0
  150.8984  142.4330  157.2625 C   0  0  0  0  0  0  0  0  0  0  0  0
  149.9952  141.8018  156.1969 C   0  0  0  0  0  0  0  0  0  0  0  0
  150.5800  140.5731  155.6425 N   0  0  0  0  0  0  0  0  0  0  0  0
  151.8802  140.2106  155.9657 C   0  0  0  0  0  0  0  0  0  0  0  0
  152.4807  139.0903  155.4985 C   0  0  0  0  0  0  0  0  0  0  0  0
  151.7640  138.1851  154.6069 C   0  0  0  0  0  0  0  0  0  0  0  0
  152.2211  137.1475  154.1329 O   0  0  0  0  0  0  0  0  0  0  0  0
  150.4590  138.5834  154.3056 N   0  0  0  0  0  0  0  0  0  0  0  0
  149.8342  139.7366  154.7827 C   0  0  0  0  0  0  0  0  0  0  0  0
  148.6770  139.9927  154.4532 O   0  0  0  0  0  0  0  0  0  0  0  0
  151.1665  143.7397  157.1197 N   0  0  0  0  0  0  0  0  0  0  0  0
  151.9873  144.5172  157.9901 C   0  0  0  0  0  0  0  0  0  0  0  0
  153.0783  143.7984  158.7534 C   0  0  0  0  0  0  0  0  0  0  0  0
  151.8531  144.2819  159.4790 C   0  0  0  0  0  0  0  0  0  0  0  0
  149.9226  137.9872  153.6921 H   0  0  0  0  0  0  0  0  0  0  0  0
  149.0121  141.5970  156.6251 H   0  0  0  0  0  0  0  0  0  0  0  0
  149.8124  142.5318  155.4066 H   0  0  0  0  0  0  0  0  0  0  0  0
  152.4490  140.8492  156.6267 H   0  0  0  0  0  0  0  0  0  0  0  0
  153.4967  138.8620  155.7868 H   0  0  0  0  0  0  0  0  0  0  0  0
  150.7603  144.2205  156.3302 H   0  0  0  0  0  0  0  0  0  0  0  0
  152.2116  145.5389  157.6867 H   0  0  0  0  0  0  0  0  0  0  0  0
  153.1823  142.7250  158.6052 H   0  0  0  0  0  0  0  0  0  0  0  0
  154.0086  144.3370  158.9223 H   0  0  0  0  0  0  0  0  0  0  0  0
  151.9643  145.1435  160.1344 H   0  0  0  0  0  0  0  0  0  0  0  0
  151.1387  143.5322  159.8141 H   0  0  0  0  0  0  0  0  0  0  0  0
  1  2  2  0  0  0  0
  2  3  1  0  0  0  0
  2 12  1  0  0  0  0
  3  4  1  0  0  0  0
  3 17  1  0  0  0  0
  3 18  1  0  0  0  0
  4 10  1  0  0  0  0
  4  5  1  0  0  0  0
  5  6  2  0  0  0  0
  5 19  1  0  0  0  0
  6  7  1  0  0  0  0
  6 20  1  0  0  0  0
  7  8  2  0  0  0  0
  7  9  1  0  0  0  0
  9 16  1  0  0  0  0
  9 10  1  0  0  0  0
 10 11  2  0  0  0  0
 12 13  1  0  0  0  0
 12 21  1  0  0  0  0
 13 15  1  0  0  0  0
 13 14  1  0  0  0  0
 13 22  1  0  0  0  0
 14 15  1  0  0  0  0
 14 23  1  0  0  0  0
 14 24  1  0  0  0  0
 15 25  1  0  0  0  0
 15 26  1  0  0  0  0
M  END
> <s_m_source_file>
AV-unprocessed.smi

> <i_m_source_file_index>
2199

> <i_lp_mmshare_version>
43012

> <i_f3d_flags>
0

> <s_epik_input>
W0NIMl0xW0NIMl1bQ0hdMVtOSF1DKD1PKVtDSDJdbjJbY0hdW2NIXWMoPU8pW25IXWMyPU8=

> <s_epik_cmdline>
J2VwaWtfcHl0aG9uJywgJy1waCcsICc3LjAnLCAnLXRuJywgJzgnLCAnLW1hJywgJzIwMCcsICctbWV0YWxfYmluZGluZycsICctaW1hZScsICc8aW5maWxlLm1hZT4nLCAnLW9tYWUnLCAnPG91dGZpbGUubWFlPic=

> <r_lp_tautomer_probability>
0.999537

> <r_epik_Ionization_Penalty>
0.00328918

> <r_epik_Ionization_Penalty_Charging>
0.00328916

> <r_epik_Ionization_Penalty_Neutral>
2.06703e-08

> <r_epik_State_Penalty>
0.00232387

> <r_epik_Charging_Adjusted_Penalty>
0.00561303

> <i_epik_Tot_Q>
0

> <i_epik_Tot_abs_Q>
0

> <r_epik_Metal_State_Penalty>
0.365273

> <b_epik_Metal_Only>
0

> <s_lp_Force_Field>
OPLS_2005

> <r_lp_Energy>
17.907

> <b_lp_Chiralities_Consistent>
1

> <s_lp_Variant>
AV-unprocessed.smi:2199-1

> <Gold.Version>
5.8.1

> <Gold.Id.Protein>
6NUR|6NUR_protein|mol2

> <Gold.PLP.Fitness>
39.6433

> <Gold.PLP.PLP>
-35.5620

> <Gold.PLP.part.hbond>
-2.0000

> <Gold.PLP.part.metal>
0.0000

> <Gold.PLP.part.buried>
-4.5138

> <Gold.PLP.part.nonpolar>
-30.2213

> <Gold.PLP.part.repulsive>
1.0183

> <Gold.PLP.ligand.clash>
0.0000

> <Gold.PLP.ligand.torsion>
0.4727

> <Gold.PLP.Chemscore.Hbond>
1.6640

> <Gold.PLP.Chemscore.CHOScore>
0.0000

> <Gold.PLP.Chemscore.Metal>
0.0000

> <Gold.Chemscore.Hbonds>
donor molecule, donor type, donor heavy atom, donor atom, acceptor molecule, acceptor atom, score
      L1  H    12    21       P1  8028  0.77
      P1  H 10752 10763       L1     8  0.90

> <Gold.PLP.Chemscore.Internal.Correction>
0.0346

> <Gold.Rescore>
     Score         DG    S(hbond)    S(metal)    S(lipo)     H(rot)  DE(clash)    DE(int)     intcor
      9.85     -14.63       1.90        0.00      63.02       1.78       0.06       4.72       ----

> <Gold.Chemscore.Fitness>
9.8483

> <Gold.Chemscore.DG>
-14.6271

> <Gold.Chemscore.ZeroCoef>
-5.4800

> <Gold.Chemscore.Hbond>
1.8971

> <Gold.Chemscore.Metal>
0.0000

> <Gold.Chemscore.Lipo>
63.0246

> <Gold.Chemscore.Internal_Hbond>
0.0000

> <Gold.Chemscore.DEClash>
0.0609

> <Gold.Chemscore.DEInternal>
4.7179

> <Gold.Chemscore.Rot>
1.7825

> <Gold.Chemscore.Internal.Correction>
   9.000000E+99

> <Gold.Chemscore.Hbonds>
donor molecule, donor type, donor heavy atom, donor atom, acceptor molecule, acceptor atom, score
      L1  H    12    21       P1  8028  0.71
      P1  H 10752 10763       L1     8  0.88

> <Gold.Chemscore.Hbond.Weighted>
-6.3364

> <Gold.Chemscore.Metal.Weighted>
-0.0000

> <Gold.Chemscore.Lipo.Weighted>
-7.3739

> <Gold.Chemscore.Internal_Hbond.Weighted>
0.0000

> <Gold.Chemscore.DEClash.Weighted>
0.0609

> <Gold.Chemscore.DEInternal.Weighted>
4.7179

> <Gold.Chemscore.Rot.Weighted>
4.5632

> <Gold.Chemscore.Internal.Correction.Weighted>
   9.000000E+99

> <Gold.Protein.RotatedTorsions>
[ 6907 6896 6895 6894 ] final  -57.92 input  -60.11 | X-H torsion
[ 7974 7965 7964 7962 ] final  -71.91 input  175.53 | X-H torsion
[ 8008 7997 7996 7995 ] final   98.60 input   59.86 | X-H torsion
[ 10167 10162 10161 10158 ] final  -29.28 input  -65.29 | X-H torsion
[ 10718 10713 10712 10709 ] final   -8.65 input   66.30 | X-H torsion
[ 10763 10752 10751 10750 ] final   32.49 input  -60.55 | X-H torsion
[ 11005 11000 10999 10996 ] final   54.46 input  -57.11 | X-H torsion

> <Gold.Protein.ActiveResidues>
 VAL166  LYS551  ARG553  GLY616  TRP617  ASP618  TYR619  PRO620  LYS621  CYS622 
 ASP623  PHE694  ASN695  SER759  ASP760  ASP761  ALA762  ILE779  LEU786  VAL792 
 PHE793  MET794  SER795  GLU796  ALA797  LYS798  CYS799  TRP800  GLU811  SER814 

> <Gold.Protein.RotatedAtoms>
  150.8048  134.7165  159.6633 H   0  0  0  0  0  0  0  0  0  0  0  0  # atno 6907 bound_to 6896
  152.4167  134.6026  160.0014 H   0  0  0  0  0  0  0  0  0  0  0  0  # atno 6908 bound_to 6896
  151.6253  133.3299  159.3133 H   0  0  0  0  0  0  0  0  0  0  0  0  # atno 6909 bound_to 6896
  145.6719  140.9218  143.0878 H   0  0  0  0  0  0  0  0  0  0  0  0  # atno 7974 bound_to 7965
  156.1021  140.3241  155.7956 H   0  0  0  0  0  0  0  0  0  0  0  0  # atno 8008 bound_to 7997
  155.4819  140.0554  157.2983 H   0  0  0  0  0  0  0  0  0  0  0  0  # atno 8009 bound_to 7997
  154.4703  140.2008  156.0026 H   0  0  0  0  0  0  0  0  0  0  0  0  # atno 8010 bound_to 7997
  140.7262  143.3941  151.1378 H   0  0  0  0  0  0  0  0  0  0  0  0  # atno 10167 bound_to 10162
  156.6995  130.5089  149.5921 H   0  0  0  0  0  0  0  0  0  0  0  0  # atno 10718 bound_to 10713
  153.0260  135.6412  154.1363 H   0  0  0  0  0  0  0  0  0  0  0  0  # atno 10763 bound_to 10752
  154.1091  135.2854  155.3236 H   0  0  0  0  0  0  0  0  0  0  0  0  # atno 10764 bound_to 10752
  154.6344  135.5481  153.7780 H   0  0  0  0  0  0  0  0  0  0  0  0  # atno 10765 bound_to 10752
  140.0685  134.5503  155.9073 H   0  0  0  0  0  0  0  0  0  0  0  0  # atno 11005 bound_to 11000
  144.7054  139.8584  143.7431 LP  0  0  0  0  0  0  0  0  0  0  0  0  # atno 17320 bound_to 7965
  146.1038  139.4035  143.0330 LP  0  0  0  0  0  0  0  0  0  0  0  0  # atno 17321 bound_to 7965
  139.7551  143.8720  152.3086 LP  0  0  0  0  0  0  0  0  0  0  0  0  # atno 17342 bound_to 10162
  139.8586  144.7128  150.9126 LP  0  0  0  0  0  0  0  0  0  0  0  0  # atno 17343 bound_to 10162
  156.1739  130.6455  151.0870 LP  0  0  0  0  0  0  0  0  0  0  0  0  # atno 17370 bound_to 10713
  157.6978  131.0787  150.6914 LP  0  0  0  0  0  0  0  0  0  0  0  0  # atno 17371 bound_to 10713
  141.2002  133.6611  156.5885 LP  0  0  0  0  0  0  0  0  0  0  0  0  # atno 17394 bound_to 11000
  140.3663  134.7644  157.4568 LP  0  0  0  0  0  0  0  0  0  0  0  0  # atno 17395 bound_to 11000

$$$$
