AV-unprocessed.smi:1563|AV-procd|sdf|6289|dock3
  -GOLD-   22720 6483D 1   1.00000     0.00000
 Structure written by MMmdl.
 43 44  0  0  0  0  0  0  0  0  1 V2000
  147.0401  141.8439  154.4850 C   0  0  0  0  0  0  0  0  0  0  0  0
  148.4955  141.3897  154.4695 C   0  0  0  0  0  0  0  0  0  0  0  0
  149.2543  141.7783  153.5822 O   0  0  0  0  0  0  0  0  0  0  0  0
  148.8693  140.5652  155.4598 N   0  0  0  0  0  0  0  0  0  0  0  0
  150.2066  140.0057  155.6325 C   0  0  2  0  0  0  0  0  0  0  0  0
  150.5232  139.0499  154.4623 C   0  0  0  0  0  0  0  0  0  0  0  0
  151.8382  138.2795  154.6853 C   0  0  0  0  0  0  0  0  0  0  0  0
  151.8602  137.6253  156.0770 C   0  0  0  0  0  0  0  0  0  0  0  0
  151.6597  138.6737  157.0922 N   0  0  0  0  0  0  0  0  0  0  0  0
  152.5928  139.1477  157.9566 C   0  0  0  0  0  0  0  0  0  0  0  0
  153.8037  138.9944  157.7917 O   0  0  0  0  0  0  0  0  0  0  0  0
  152.0896  139.7896  159.0251 N   0  0  0  0  0  0  0  0  0  0  0  0
  152.8588  140.4479  160.0779 C   0  0  0  0  0  0  0  0  0  0  0  0
  153.6808  141.6299  159.5325 C   0  0  0  0  0  0  0  0  0  0  0  0
  153.0335  142.9853  159.7663 C   0  0  0  0  0  0  0  0  0  0  0  0
  152.6255  143.3698  161.0613 C   0  0  0  0  0  0  0  0  0  0  0  0
  152.0439  144.6410  161.2323 C   0  0  0  0  0  0  0  0  0  0  0  0
  151.8936  145.4752  160.1078 C   0  0  0  0  0  0  0  0  0  0  0  0
  152.3346  144.9993  158.8570 C   0  0  0  0  0  0  0  0  0  0  0  0
  152.8919  143.7818  158.6817 N   0  0  0  0  0  0  0  0  0  0  0  0
  150.3202  139.2668  156.9853 C   0  0  0  0  0  0  0  0  0  0  0  0
  146.7936  142.3062  155.4413 H   0  0  0  0  0  0  0  0  0  0  0  0
  146.3750  140.9939  154.3295 H   0  0  0  0  0  0  0  0  0  0  0  0
  146.8530  142.5730  153.6958 H   0  0  0  0  0  0  0  0  0  0  0  0
  148.1747  140.3030  156.1439 H   0  0  0  0  0  0  0  0  0  0  0  0
  150.9380  140.8163  155.6131 H   0  0  0  0  0  0  0  0  0  0  0  0
  149.7116  138.3287  154.3553 H   0  0  0  0  0  0  0  0  0  0  0  0
  150.5693  139.6025  153.5233 H   0  0  0  0  0  0  0  0  0  0  0  0
  151.9618  137.5219  153.9113 H   0  0  0  0  0  0  0  0  0  0  0  0
  152.6836  138.9623  154.5902 H   0  0  0  0  0  0  0  0  0  0  0  0
  151.0545  136.8942  156.1558 H   0  0  0  0  0  0  0  0  0  0  0  0
  152.7779  137.0513  156.2058 H   0  0  0  0  0  0  0  0  0  0  0  0
  151.0849  139.8624  159.0909 H   0  0  0  0  0  0  0  0  0  0  0  0
  152.1600  140.8062  160.8341 H   0  0  0  0  0  0  0  0  0  0  0  0
  153.5242  139.7473  160.5845 H   0  0  0  0  0  0  0  0  0  0  0  0
  154.6724  141.6285  159.9875 H   0  0  0  0  0  0  0  0  0  0  0  0
  153.8433  141.4964  158.4622 H   0  0  0  0  0  0  0  0  0  0  0  0
  152.7585  142.7091  161.9055 H   0  0  0  0  0  0  0  0  0  0  0  0
  151.7201  144.9706  162.2086 H   0  0  0  0  0  0  0  0  0  0  0  0
  151.4525  146.4564  160.2014 H   0  0  0  0  0  0  0  0  0  0  0  0
  152.2365  145.6125  157.9734 H   0  0  0  0  0  0  0  0  0  0  0  0
  150.0994  139.9504  157.8066 H   0  0  0  0  0  0  0  0  0  0  0  0
  149.5704  138.4768  157.0517 H   0  0  0  0  0  0  0  0  0  0  0  0
  1  2  1  0  0  0  0
  1 22  1  0  0  0  0
  1 23  1  0  0  0  0
  1 24  1  0  0  0  0
  2  3  2  0  0  0  0
  2  4  1  0  0  0  0
  4  5  1  0  0  0  0
  4 25  1  0  0  0  0
  5 21  1  0  0  0  0
  5  6  1  0  0  0  0
  5 26  1  0  0  0  0
  6  7  1  0  0  0  0
  6 27  1  0  0  0  0
  6 28  1  0  0  0  0
  7  8  1  0  0  0  0
  7 29  1  0  0  0  0
  7 30  1  0  0  0  0
  8  9  1  0  0  0  0
  8 31  1  0  0  0  0
  8 32  1  0  0  0  0
  9 10  1  0  0  0  0
  9 21  1  0  0  0  0
 10 11  2  0  0  0  0
 10 12  1  0  0  0  0
 12 13  1  0  0  0  0
 12 33  1  0  0  0  0
 13 14  1  0  0  0  0
 13 34  1  0  0  0  0
 13 35  1  0  0  0  0
 14 15  1  0  0  0  0
 14 36  1  0  0  0  0
 14 37  1  0  0  0  0
 15 20  1  0  0  0  0
 15 16  2  0  0  0  0
 16 17  1  0  0  0  0
 16 38  1  0  0  0  0
 17 18  2  0  0  0  0
 17 39  1  0  0  0  0
 18 19  1  0  0  0  0
 18 40  1  0  0  0  0
 19 20  2  0  0  0  0
 19 41  1  0  0  0  0
 21 42  1  0  0  0  0
 21 43  1  0  0  0  0
M  END
> <s_m_source_file>
AV-unprocessed.smi

> <i_m_source_file_index>
1563

> <i_lp_mmshare_version>
43012

> <i_f3d_flags>
0

> <s_epik_input>
W0NIM11DKD1PKVtOSF1bQ0BASF0xW0NIMl1bQ0gyXVtDSDJdTihbQ0gyXTEpQyg9TylbTkhdW0NIMl1bQ0gyXWMyW2NIXVtjSF1bY0hdW2NIXW4y

> <s_epik_cmdline>
J2VwaWtfcHl0aG9uJywgJy1waCcsICc3LjAnLCAnLXRuJywgJzgnLCAnLW1hJywgJzIwMCcsICctbWV0YWxfYmluZGluZycsICctaW1hZScsICc8aW5maWxlLm1hZT4nLCAnLW9tYWUnLCAnPG91dGZpbGUubWFlPic=

> <r_epik_Ionization_Penalty>
0.0442074

> <r_epik_Ionization_Penalty_Charging>
0

> <r_epik_Ionization_Penalty_Neutral>
0.0442074

> <r_epik_State_Penalty>
0.0374027

> <r_epik_Charging_Adjusted_Penalty>
0.0374027

> <i_epik_Tot_Q>
0

> <i_epik_Tot_abs_Q>
0

> <r_epik_Metal_State_Penalty>
0.0347963

> <b_epik_Metal_Only>
0

> <s_lp_Force_Field>
OPLS_2005

> <r_lp_Energy>
29.1558

> <b_lp_Chiralities_Consistent>
1

> <s_lp_Variant>
AV-unprocessed.smi:1563-1

> <Gold.Version>
5.8.1

> <Gold.Id.Protein>
6NUR|6NUR_protein|mol2

> <Gold.PLP.Fitness>
48.3730

> <Gold.PLP.PLP>
-44.3780

> <Gold.PLP.part.hbond>
-2.3259

> <Gold.PLP.part.metal>
0.0000

> <Gold.PLP.part.buried>
-4.3569

> <Gold.PLP.part.nonpolar>
-38.8491

> <Gold.PLP.part.repulsive>
1.7062

> <Gold.PLP.ligand.clash>
0.0000

> <Gold.PLP.ligand.torsion>
0.5903

> <Gold.PLP.Chemscore.Hbond>
1.7200

> <Gold.PLP.Chemscore.CHOScore>
0.0000

> <Gold.PLP.Chemscore.Metal>
0.0000

> <Gold.Chemscore.Hbonds>
donor molecule, donor type, donor heavy atom, donor atom, acceptor molecule, acceptor atom, score
      P1  H  7997  8009       L1    11  1.00
      P1  H  8011  8017       L1     3  0.61

> <Gold.PLP.Chemscore.Internal.Correction>
0.0157

> <Gold.Rescore>
     Score         DG    S(hbond)    S(metal)    S(lipo)     H(rot)  DE(clash)    DE(int)     intcor
     19.07     -20.04       1.60        0.00     115.57       1.68       0.41       0.56       ----

> <Gold.Chemscore.Fitness>
19.0680

> <Gold.Chemscore.DG>
-20.0374

> <Gold.Chemscore.ZeroCoef>
-5.4800

> <Gold.Chemscore.Hbond>
1.5987

> <Gold.Chemscore.Metal>
0.0000

> <Gold.Chemscore.Lipo>
115.5734

> <Gold.Chemscore.Internal_Hbond>
0.0000

> <Gold.Chemscore.DEClash>
0.4111

> <Gold.Chemscore.DEInternal>
0.5583

> <Gold.Chemscore.Rot>
1.6813

> <Gold.Chemscore.Internal.Correction>
   9.000000E+99

> <Gold.Chemscore.Hbonds>
donor molecule, donor type, donor heavy atom, donor atom, acceptor molecule, acceptor atom, score
      P1  H  7997  8009       L1    11  0.86
      P1  H  8011  8017       L1     3  0.58

> <Gold.Chemscore.Hbond.Weighted>
-5.3396

> <Gold.Chemscore.Metal.Weighted>
-0.0000

> <Gold.Chemscore.Lipo.Weighted>
-13.5221

> <Gold.Chemscore.Internal_Hbond.Weighted>
0.0000

> <Gold.Chemscore.DEClash.Weighted>
0.4111

> <Gold.Chemscore.DEInternal.Weighted>
0.5583

> <Gold.Chemscore.Rot.Weighted>
4.3042

> <Gold.Chemscore.Internal.Correction.Weighted>
   9.000000E+99

> <Gold.Protein.RotatedTorsions>
[ 6907 6896 6895 6894 ] final  -63.85 input  -60.11 | X-H torsion
[ 7974 7965 7964 7962 ] final -167.04 input  175.53 | X-H torsion
[ 8008 7997 7996 7995 ] final  165.75 input   59.86 | X-H torsion
[ 10167 10162 10161 10158 ] final   79.18 input  -65.29 | X-H torsion
[ 10718 10713 10712 10709 ] final  -60.38 input   66.30 | X-H torsion
[ 10763 10752 10751 10750 ] final  136.71 input  -60.55 | X-H torsion
[ 11005 11000 10999 10996 ] final  164.22 input  -57.11 | X-H torsion

> <Gold.Protein.ActiveResidues>
 VAL166  LYS551  ARG553  GLY616  TRP617  ASP618  TYR619  PRO620  LYS621  CYS622 
 ASP623  PHE694  ASN695  SER759  ASP760  ASP761  ALA762  ILE779  LEU786  VAL792 
 PHE793  MET794  SER795  GLU796  ALA797  LYS798  CYS799  TRP800  GLU811  SER814 

> <Gold.Protein.RotatedAtoms>
  150.7622  134.6378  159.6220 H   0  0  0  0  0  0  0  0  0  0  0  0  # atno 6907 bound_to 6896
  152.3636  134.6834  160.0208 H   0  0  0  0  0  0  0  0  0  0  0  0  # atno 6908 bound_to 6896
  151.7216  133.3278  159.3353 H   0  0  0  0  0  0  0  0  0  0  0  0  # atno 6909 bound_to 6896
  144.7232  140.2577  143.6269 H   0  0  0  0  0  0  0  0  0  0  0  0  # atno 7974 bound_to 7965
  156.1775  140.1661  156.8336 H   0  0  0  0  0  0  0  0  0  0  0  0  # atno 8008 bound_to 7997
  154.5323  140.0754  156.8400 H   0  0  0  0  0  0  0  0  0  0  0  0  # atno 8009 bound_to 7997
  155.3382  140.3383  155.4241 H   0  0  0  0  0  0  0  0  0  0  0  0  # atno 8010 bound_to 7997
  139.9631  144.5947  150.8054 H   0  0  0  0  0  0  0  0  0  0  0  0  # atno 10167 bound_to 10162
  156.0995  130.4188  150.0846 H   0  0  0  0  0  0  0  0  0  0  0  0  # atno 10718 bound_to 10713
  153.8610  135.3067  155.3438 H   0  0  0  0  0  0  0  0  0  0  0  0  # atno 10763 bound_to 10752
  154.7849  135.4815  153.9926 H   0  0  0  0  0  0  0  0  0  0  0  0  # atno 10764 bound_to 10752
  153.1462  135.6834  153.9046 H   0  0  0  0  0  0  0  0  0  0  0  0  # atno 10765 bound_to 10752
  140.2437  134.8031  157.3436 H   0  0  0  0  0  0  0  0  0  0  0  0  # atno 11005 bound_to 11000
  145.8166  139.2026  143.1962 LP  0  0  0  0  0  0  0  0  0  0  0  0  # atno 17320 bound_to 7965
  146.0550  140.8030  142.9763 LP  0  0  0  0  0  0  0  0  0  0  0  0  # atno 17321 bound_to 7965
  140.7547  143.3031  151.3029 LP  0  0  0  0  0  0  0  0  0  0  0  0  # atno 17342 bound_to 10162
  139.6539  144.0313  152.2645 LP  0  0  0  0  0  0  0  0  0  0  0  0  # atno 17343 bound_to 10162
  156.8837  130.9565  151.3596 LP  0  0  0  0  0  0  0  0  0  0  0  0  # atno 17370 bound_to 10713
  157.6162  130.8620  149.9033 LP  0  0  0  0  0  0  0  0  0  0  0  0  # atno 17371 bound_to 10713
  140.1627  134.4708  155.7884 LP  0  0  0  0  0  0  0  0  0  0  0  0  # atno 17394 bound_to 11000
  141.2208  133.6908  156.7572 LP  0  0  0  0  0  0  0  0  0  0  0  0  # atno 17395 bound_to 11000

$$$$
