AV-unprocessed.smi:261|AV-procd|sdf|1987|dock3
  -GOLD-   2262021163D 1   1.00000     0.00000
 Structure written by MMmdl.
 51 54  0  0  0  0  0  0  0  0  1 V2000
  152.1631  143.5746  160.3247 C   0  0  0  0  0  0  0  0  0  0  0  0
  152.7114  142.3124  159.9812 O   0  0  0  0  0  0  0  0  0  0  0  0
  151.7643  141.4249  159.4057 C   0  0  1  0  0  0  0  0  0  0  0  0
  151.1704  142.0152  158.1330 C   0  0  0  0  0  0  0  0  0  0  0  0
  150.6369  140.7794  157.3955 C   0  0  1  0  0  0  0  0  0  0  0  0
  150.5421  141.0104  155.8805 C   0  0  0  0  0  0  0  0  0  0  0  0
  149.7855  142.0327  155.4748 N   0  0  0  0  0  0  0  0  0  0  0  0
  151.1500  140.2928  155.0877 O   0  0  0  0  0  0  0  0  0  0  0  0
  151.5889  139.7185  157.7369 N   0  0  0  0  0  0  0  0  0  0  0  0
  151.0692  138.4717  157.7796 C   0  0  0  0  0  0  0  0  0  0  0  0
  150.6176  138.0275  158.9776 N   0  0  0  0  0  0  0  0  0  0  0  0
  150.0977  136.8005  159.0813 C   0  0  0  0  0  0  0  0  0  0  0  0
  149.9405  135.8760  158.1305 N   0  0  0  0  0  0  0  0  0  0  0  0
  150.3980  136.3220  156.9251 C   0  0  0  0  0  0  0  0  0  0  0  0
  150.9739  137.5959  156.6617 C   0  0  0  0  0  0  0  0  0  0  0  0
  151.3268  137.6908  155.3206 N   0  0  0  0  0  0  0  0  0  0  0  0
  150.9786  136.5370  154.8192 C   0  0  0  0  0  0  0  0  0  0  0  0
  150.4137  135.6557  155.7128 N   0  0  0  0  0  0  0  0  0  0  0  0
  149.9429  134.3123  155.4261 C   0  0  0  0  0  0  0  0  0  0  0  0
  150.7663  133.2304  156.1525 C   0  0  1  0  0  0  0  0  0  0  0  0
  150.6096  133.3791  157.5509 O   0  0  0  0  0  0  0  0  0  0  0  0
  150.3346  131.8079  155.7514 C   0  0  2  0  0  0  0  0  0  0  0  0
  151.4149  130.7412  155.9262 C   0  0  0  0  0  0  0  0  0  0  0  0
  150.9680  129.6417  154.9789 C   0  0  0  0  0  0  0  0  0  0  0  0
  150.0587  130.3638  153.9798 C   0  0  0  0  0  0  0  0  0  0  0  0
  150.0870  131.7352  154.3557 O   0  0  0  0  0  0  0  0  0  0  0  0
  152.3802  140.1177  158.8975 C   0  0  0  0  0  0  0  0  0  0  0  0
  150.9538  141.2141  160.1061 H   0  0  0  0  0  0  0  0  0  0  0  0
  149.6467  140.5334  157.7853 H   0  0  0  0  0  0  0  0  0  0  0  0
  152.9456  144.2117  160.7366 H   0  0  0  0  0  0  0  0  0  0  0  0
  151.3800  143.4800  161.0775 H   0  0  0  0  0  0  0  0  0  0  0  0
  151.7488  144.0757  159.4490 H   0  0  0  0  0  0  0  0  0  0  0  0
  150.3933  142.7518  158.3392 H   0  0  0  0  0  0  0  0  0  0  0  0
  151.9542  142.5071  157.5532 H   0  0  0  0  0  0  0  0  0  0  0  0
  149.6890  142.2300  154.4893 H   0  0  0  0  0  0  0  0  0  0  0  0
  149.3122  142.6062  156.1579 H   0  0  0  0  0  0  0  0  0  0  0  0
  149.7595  136.5190  160.0675 H   0  0  0  0  0  0  0  0  0  0  0  0
  151.1276  136.2936  153.7772 H   0  0  0  0  0  0  0  0  0  0  0  0
  148.8903  134.2430  155.7033 H   0  0  0  0  0  0  0  0  0  0  0  0
  149.9888  134.1614  154.3470 H   0  0  0  0  0  0  0  0  0  0  0  0
  151.8232  133.3659  155.9190 H   0  0  0  0  0  0  0  0  0  0  0  0
  149.7189  133.1595  157.7781 H   0  0  0  0  0  0  0  0  0  0  0  0
  149.4298  131.5142  156.2874 H   0  0  0  0  0  0  0  0  0  0  0  0
  152.3829  131.1295  155.6068 H   0  0  0  0  0  0  0  0  0  0  0  0
  151.5120  130.3992  156.9568 H   0  0  0  0  0  0  0  0  0  0  0  0
  151.8168  129.1596  154.4935 H   0  0  0  0  0  0  0  0  0  0  0  0
  150.4057  128.8751  155.5130 H   0  0  0  0  0  0  0  0  0  0  0  0
  150.3954  130.2438  152.9499 H   0  0  0  0  0  0  0  0  0  0  0  0
  149.0369  129.9886  154.0493 H   0  0  0  0  0  0  0  0  0  0  0  0
  153.4005  140.2890  158.5525 H   0  0  0  0  0  0  0  0  0  0  0  0
  152.4282  139.3617  159.6830 H   0  0  0  0  0  0  0  0  0  0  0  0
  1  2  1  0  0  0  0
  1 30  1  0  0  0  0
  1 31  1  0  0  0  0
  1 32  1  0  0  0  0
  2  3  1  0  0  0  0
  3 28  1  0  0  0  0
  3 27  1  0  0  0  0
  3  4  1  0  0  0  0
  4  5  1  0  0  0  0
  4 33  1  0  0  0  0
  4 34  1  0  0  0  0
  5 29  1  0  0  0  0
  5  6  1  0  0  0  0
  5  9  1  0  0  0  0
  6  7  1  0  0  0  0
  6  8  2  0  0  0  0
  7 35  1  0  0  0  0
  7 36  1  0  0  0  0
  9 10  1  0  0  0  0
  9 27  1  0  0  0  0
 10 15  1  0  0  0  0
 10 11  2  0  0  0  0
 11 12  1  0  0  0  0
 12 13  2  0  0  0  0
 12 37  1  0  0  0  0
 13 14  1  0  0  0  0
 14 18  1  0  0  0  0
 14 15  2  0  0  0  0
 15 16  1  0  0  0  0
 16 17  2  0  0  0  0
 17 18  1  0  0  0  0
 17 38  1  0  0  0  0
 18 19  1  0  0  0  0
 19 20  1  0  0  0  0
 19 39  1  0  0  0  0
 19 40  1  0  0  0  0
 20 21  1  0  0  0  0
 20 22  1  0  0  0  0
 20 41  1  0  0  0  0
 21 42  1  0  0  0  0
 22 26  1  0  0  0  0
 22 23  1  0  0  0  0
 22 43  1  0  0  0  0
 23 24  1  0  0  0  0
 23 44  1  0  0  0  0
 23 45  1  0  0  0  0
 24 25  1  0  0  0  0
 24 46  1  0  0  0  0
 24 47  1  0  0  0  0
 25 26  1  0  0  0  0
 25 48  1  0  0  0  0
 25 49  1  0  0  0  0
 27 50  1  0  0  0  0
 27 51  1  0  0  0  0
M  END
> <s_m_source_file>
AV-unprocessed.smi

> <i_m_source_file_index>
261

> <i_lp_mmshare_version>
43012

> <i_f3d_flags>
0

> <s_epik_input>
W0NIM11PW0NASF0xW0NIMl1bQ0BASF0oQyg9TylbTkgyXSlOKFtDSDJdMSljKG5bY0hdbjIpYyhjMjMpbltjSF1uM1tDSDJdW0NASF0oW09IXSlbQ0BASF00W0NIMl1bQ0gyXVtDSDJdTzQ=

> <s_epik_cmdline>
J2VwaWtfcHl0aG9uJywgJy1waCcsICc3LjAnLCAnLXRuJywgJzgnLCAnLW1hJywgJzIwMCcsICctbWV0YWxfYmluZGluZycsICctaW1hZScsICc8aW5maWxlLm1hZT4nLCAnLW9tYWUnLCAnPG91dGZpbGUubWFlPic=

> <r_lp_tautomer_probability>
1

> <r_epik_Ionization_Penalty>
0.000713824

> <r_epik_Ionization_Penalty_Charging>
0

> <r_epik_Ionization_Penalty_Neutral>
0.000713824

> <r_epik_State_Penalty>
0.000402132

> <r_epik_Charging_Adjusted_Penalty>
0.000402132

> <i_epik_Tot_Q>
0

> <i_epik_Tot_abs_Q>
0

> <r_epik_Metal_State_Penalty>
-0

> <b_epik_Metal_Only>
0

> <s_lp_Force_Field>
OPLS_2005

> <r_lp_Energy>
45.3763

> <b_lp_Chiralities_Consistent>
1

> <s_lp_Variant>
AV-unprocessed.smi:261-5

> <Gold.Version>
5.8.1

> <Gold.Id.Protein>
6NUR|6NUR_protein|mol2

> <Gold.PLP.Fitness>
46.3354

> <Gold.PLP.PLP>
-38.5642

> <Gold.PLP.part.hbond>
-3.5614

> <Gold.PLP.part.metal>
0.0000

> <Gold.PLP.part.buried>
-7.4496

> <Gold.PLP.part.nonpolar>
-27.6406

> <Gold.PLP.part.repulsive>
0.3284

> <Gold.PLP.ligand.clash>
0.0000

> <Gold.PLP.ligand.torsion>
1.1812

> <Gold.PLP.Chemscore.Hbond>
2.3169

> <Gold.PLP.Chemscore.CHOScore>
1.0076

> <Gold.PLP.Chemscore.Metal>
0.0000

> <Gold.Chemscore.Hbonds>
donor molecule, donor type, donor heavy atom, donor atom, acceptor molecule, acceptor atom, score
      L1  H     7    36       P1  8028  0.20
      P1  H  6896  6907       L1    21  0.48
      P1  H  7989  7998       L1     8  1.00
      L1  C    17    38       P1  7949  1.00

> <Gold.PLP.Chemscore.Internal.Correction>
0.1602

> <Gold.Rescore>
     Score         DG    S(hbond)    S(metal)    S(lipo)     H(rot)  DE(clash)    DE(int)     intcor
     10.53     -12.82       2.45        0.00      70.89       3.57       0.01       2.28       ----

> <Gold.Chemscore.Fitness>
10.5283

> <Gold.Chemscore.DG>
-12.8205

> <Gold.Chemscore.ZeroCoef>
-5.4800

> <Gold.Chemscore.Hbond>
2.4539

> <Gold.Chemscore.Metal>
0.0000

> <Gold.Chemscore.Lipo>
70.8875

> <Gold.Chemscore.Internal_Hbond>
0.0000

> <Gold.Chemscore.DEClash>
0.0141

> <Gold.Chemscore.DEInternal>
2.2781

> <Gold.Chemscore.Rot>
3.5740

> <Gold.Chemscore.Internal.Correction>
   9.000000E+99

> <Gold.Chemscore.Hbonds>
donor molecule, donor type, donor heavy atom, donor atom, acceptor molecule, acceptor atom, score
      L1  H     7    36       P1  8028  0.21
      P1  H  6896  6907       L1    21  0.02
      P1  H  7989  7998       L1     8  0.97

> <Gold.Chemscore.Hbond.Weighted>
-8.1961

> <Gold.Chemscore.Metal.Weighted>
-0.0000

> <Gold.Chemscore.Lipo.Weighted>
-8.2938

> <Gold.Chemscore.Internal_Hbond.Weighted>
0.0000

> <Gold.Chemscore.DEClash.Weighted>
0.0141

> <Gold.Chemscore.DEInternal.Weighted>
2.2781

> <Gold.Chemscore.Rot.Weighted>
9.1495

> <Gold.Chemscore.Internal.Correction.Weighted>
   9.000000E+99

> <Gold.Protein.RotatedTorsions>
[ 6907 6896 6895 6894 ] final -134.28 input  -60.11 | X-H torsion
[ 7974 7965 7964 7962 ] final  -20.36 input  175.53 | X-H torsion
[ 8008 7997 7996 7995 ] final -143.54 input   59.86 | X-H torsion
[ 10167 10162 10161 10158 ] final   10.79 input  -65.29 | X-H torsion
[ 10718 10713 10712 10709 ] final  118.04 input   66.30 | X-H torsion
[ 10763 10752 10751 10750 ] final  -15.31 input  -60.55 | X-H torsion
[ 11005 11000 10999 10996 ] final  151.28 input  -57.11 | X-H torsion

> <Gold.Protein.ActiveResidues>
 VAL166  LYS551  ARG553  GLY616  TRP617  ASP618  TYR619  PRO620  LYS621  CYS622 
 ASP623  PHE694  ASN695  SER759  ASP760  ASP761  ALA762  ILE779  LEU786  VAL792 
 PHE793  MET794  SER795  GLU796  ALA797  LYS798  CYS799  TRP800  GLU811  SER814 

> <Gold.Protein.RotatedAtoms>
  150.9839  133.6217  159.2718 H   0  0  0  0  0  0  0  0  0  0  0  0  # atno 6907 bound_to 6896
  151.3462  135.0873  159.9397 H   0  0  0  0  0  0  0  0  0  0  0  0  # atno 6908 bound_to 6896
  152.5224  133.9441  159.7695 H   0  0  0  0  0  0  0  0  0  0  0  0  # atno 6909 bound_to 6896
  146.1792  140.4191  142.8501 H   0  0  0  0  0  0  0  0  0  0  0  0  # atno 7974 bound_to 7965
  155.5123  140.0584  157.2921 H   0  0  0  0  0  0  0  0  0  0  0  0  # atno 8008 bound_to 7997
  154.4547  140.1967  156.0362 H   0  0  0  0  0  0  0  0  0  0  0  0  # atno 8009 bound_to 7997
  156.0775  140.3251  155.7657 H   0  0  0  0  0  0  0  0  0  0  0  0  # atno 8010 bound_to 7997
  140.6172  143.8282  150.7132 H   0  0  0  0  0  0  0  0  0  0  0  0  # atno 10167 bound_to 10162
  157.6057  131.1044  150.7700 H   0  0  0  0  0  0  0  0  0  0  0  0  # atno 10718 bound_to 10713
  153.5414  135.7013  153.5635 H   0  0  0  0  0  0  0  0  0  0  0  0  # atno 10763 bound_to 10752
  153.3599  135.3972  155.1710 H   0  0  0  0  0  0  0  0  0  0  0  0  # atno 10764 bound_to 10752
  154.8673  135.3786  154.4919 H   0  0  0  0  0  0  0  0  0  0  0  0  # atno 10765 bound_to 10752
  140.1205  134.8867  157.2065 H   0  0  0  0  0  0  0  0  0  0  0  0  # atno 11005 bound_to 11000
  144.8287  140.6671  143.6305 LP  0  0  0  0  0  0  0  0  0  0  0  0  # atno 17320 bound_to 7965
  145.4124  139.1578  143.4119 LP  0  0  0  0  0  0  0  0  0  0  0  0  # atno 17321 bound_to 7965
  140.1864  143.4072  152.1895 LP  0  0  0  0  0  0  0  0  0  0  0  0  # atno 17342 bound_to 10162
  139.5408  144.7255  151.4739 LP  0  0  0  0  0  0  0  0  0  0  0  0  # atno 17343 bound_to 10162
  156.8089  130.4946  149.5359 LP  0  0  0  0  0  0  0  0  0  0  0  0  # atno 17370 bound_to 10713
  156.1142  130.6063  151.0095 LP  0  0  0  0  0  0  0  0  0  0  0  0  # atno 17371 bound_to 10713
  140.2971  134.3173  155.7299 LP  0  0  0  0  0  0  0  0  0  0  0  0  # atno 17394 bound_to 11000
  141.2150  133.7570  156.9588 LP  0  0  0  0  0  0  0  0  0  0  0  0  # atno 17395 bound_to 11000

$$$$
