AV-unprocessed.smi:414|AV-procd|sdf|2515|dock9
  -GOLD-   2262022463D 1   1.00000     0.00000
 Structure written by MMmdl.
 38 39  0  0  0  0  0  0  0  0  1 V2000
  143.4641  134.5814  162.6441 C   0  0  0  0  0  0  0  0  0  0  0  0
  144.9596  134.9236  162.7026 C   0  0  2  0  0  0  0  0  0  0  0  0
  145.2176  136.3872  162.2971 C   0  0  0  0  0  0  0  0  0  0  0  0
  146.7160  136.7335  162.3476 C   0  0  0  0  0  0  0  0  0  0  0  0
  147.5650  135.7766  161.4829 C   0  0  2  0  0  0  0  0  0  0  0  0
  147.3160  135.9750  160.0559 N   0  0  0  0  0  0  0  0  0  0  0  0
  148.2535  136.1916  159.1211 C   0  0  0  0  0  0  0  0  0  0  0  0
  149.4578  136.2464  159.3749 O   0  0  0  0  0  0  0  0  0  0  0  0
  147.7332  136.3853  157.6891 C   0  0  0  0  0  0  0  0  0  0  0  0
  148.5989  137.2379  156.8609 N   0  0  0  0  0  0  0  0  0  0  0  0
  149.0624  136.7793  155.6360 C   0  0  0  0  0  0  0  0  0  0  0  0
  149.8529  137.5114  154.8158 C   0  0  0  0  0  0  0  0  0  0  0  0
  150.2644  138.8585  155.1959 C   0  0  0  0  0  0  0  0  0  0  0  0
  150.9790  139.5981  154.5230 O   0  0  0  0  0  0  0  0  0  0  0  0
  149.7755  139.2853  156.4336 N   0  0  0  0  0  0  0  0  0  0  0  0
  148.9591  138.5364  157.2828 C   0  0  0  0  0  0  0  0  0  0  0  0
  148.5782  139.0116  158.3520 O   0  0  0  0  0  0  0  0  0  0  0  0
  147.2911  134.3106  161.8698 C   0  0  0  0  0  0  0  0  0  0  0  0
  145.7909  133.9662  161.8272 C   0  0  0  0  0  0  0  0  0  0  0  0
  150.0313  140.2136  156.7375 H   0  0  0  0  0  0  0  0  0  0  0  0
  143.0731  134.6834  161.6312 H   0  0  0  0  0  0  0  0  0  0  0  0
  142.8850  135.2397  163.2923 H   0  0  0  0  0  0  0  0  0  0  0  0
  143.2829  133.5566  162.9691 H   0  0  0  0  0  0  0  0  0  0  0  0
  145.2841  134.8000  163.7368 H   0  0  0  0  0  0  0  0  0  0  0  0
  144.8337  136.5669  161.2921 H   0  0  0  0  0  0  0  0  0  0  0  0
  144.6687  137.0585  162.9583 H   0  0  0  0  0  0  0  0  0  0  0  0
  146.8698  137.7688  162.0417 H   0  0  0  0  0  0  0  0  0  0  0  0
  147.0580  136.6743  163.3815 H   0  0  0  0  0  0  0  0  0  0  0  0
  148.6209  135.9807  161.6695 H   0  0  0  0  0  0  0  0  0  0  0  0
  146.3517  135.9481  159.7582 H   0  0  0  0  0  0  0  0  0  0  0  0
  147.6001  135.4071  157.2230 H   0  0  0  0  0  0  0  0  0  0  0  0
  146.7316  136.8153  157.7429 H   0  0  0  0  0  0  0  0  0  0  0  0
  148.7789  135.7880  155.3117 H   0  0  0  0  0  0  0  0  0  0  0  0
  150.1814  137.0986  153.8730 H   0  0  0  0  0  0  0  0  0  0  0  0
  147.8478  133.6371  161.2171 H   0  0  0  0  0  0  0  0  0  0  0  0
  147.6670  134.1320  162.8781 H   0  0  0  0  0  0  0  0  0  0  0  0
  145.6455  132.9381  162.1605 H   0  0  0  0  0  0  0  0  0  0  0  0
  145.4348  134.0056  160.7969 H   0  0  0  0  0  0  0  0  0  0  0  0
  1  2  1  0  0  0  0
  1 21  1  0  0  0  0
  1 22  1  0  0  0  0
  1 23  1  0  0  0  0
  2 19  1  0  0  0  0
  2  3  1  0  0  0  0
  2 24  1  0  0  0  0
  3  4  1  0  0  0  0
  3 25  1  0  0  0  0
  3 26  1  0  0  0  0
  4  5  1  0  0  0  0
  4 27  1  0  0  0  0
  4 28  1  0  0  0  0
  5  6  1  0  0  0  0
  5 18  1  0  0  0  0
  5 29  1  0  0  0  0
  6  7  1  0  0  0  0
  6 30  1  0  0  0  0
  7  8  2  0  0  0  0
  7  9  1  0  0  0  0
  9 10  1  0  0  0  0
  9 31  1  0  0  0  0
  9 32  1  0  0  0  0
 10 16  1  0  0  0  0
 10 11  1  0  0  0  0
 11 12  2  0  0  0  0
 11 33  1  0  0  0  0
 12 13  1  0  0  0  0
 12 34  1  0  0  0  0
 13 14  2  0  0  0  0
 13 15  1  0  0  0  0
 15 20  1  0  0  0  0
 15 16  1  0  0  0  0
 16 17  2  0  0  0  0
 18 19  1  0  0  0  0
 18 35  1  0  0  0  0
 18 36  1  0  0  0  0
 19 37  1  0  0  0  0
 19 38  1  0  0  0  0
M  END
> <s_m_source_file>
AV-unprocessed.smi

> <i_m_source_file_index>
414

> <i_lp_mmshare_version>
43012

> <i_f3d_flags>
0

> <s_epik_input>
W0NIM11bQ0BASF0xW0NIMl1bQ0gyXVtDQEhdKFtDSDJdW0NIMl0xKVtOSF1DKD1PKVtDSDJdbjJbY0hdW2NIXWMoPU8pW25IXWMyPU8=

> <s_epik_cmdline>
J2VwaWtfcHl0aG9uJywgJy1waCcsICc3LjAnLCAnLXRuJywgJzgnLCAnLW1hJywgJzIwMCcsICctbWV0YWxfYmluZGluZycsICctaW1hZScsICc8aW5maWxlLm1hZT4nLCAnLW9tYWUnLCAnPG91dGZpbGUubWFlPic=

> <r_lp_tautomer_probability>
0.999537

> <r_epik_Ionization_Penalty>
0.00309124

> <r_epik_Ionization_Penalty_Charging>
0.00309122

> <r_epik_Ionization_Penalty_Neutral>
1.90469e-08

> <r_epik_State_Penalty>
0.00217484

> <r_epik_Charging_Adjusted_Penalty>
0.00526606

> <i_epik_Tot_Q>
0

> <i_epik_Tot_abs_Q>
0

> <r_epik_Metal_State_Penalty>
0.362537

> <b_epik_Metal_Only>
0

> <s_lp_Force_Field>
OPLS_2005

> <r_lp_Energy>
7.68142

> <b_lp_Chiralities_Consistent>
1

> <s_lp_Variant>
AV-unprocessed.smi:414-2

> <Gold.Version>
5.8.1

> <Gold.Id.Protein>
6NUR|6NUR_protein|mol2

> <Gold.PLP.Fitness>
35.1710

> <Gold.PLP.PLP>
-30.1357

> <Gold.PLP.part.hbond>
-2.8163

> <Gold.PLP.part.metal>
0.0000

> <Gold.PLP.part.buried>
-6.0979

> <Gold.PLP.part.nonpolar>
-21.4803

> <Gold.PLP.part.repulsive>
0.2439

> <Gold.PLP.ligand.clash>
0.0000

> <Gold.PLP.ligand.torsion>
0.4861

> <Gold.PLP.Chemscore.Hbond>
2.0000

> <Gold.PLP.Chemscore.CHOScore>
0.0000

> <Gold.PLP.Chemscore.Metal>
0.0000

> <Gold.Chemscore.Hbonds>
donor molecule, donor type, donor heavy atom, donor atom, acceptor molecule, acceptor atom, score
      P1  H  6896  6908       L1     8  1.00
      P1  H  7989  7998       L1    14  1.00

> <Gold.PLP.Chemscore.Internal.Correction>
0.0075

> <Gold.Rescore>
     Score         DG    S(hbond)    S(metal)    S(lipo)     H(rot)  DE(clash)    DE(int)     intcor
     15.26     -15.66       2.00        0.00      66.90       1.69       0.00       0.40       ----

> <Gold.Chemscore.Fitness>
15.2601

> <Gold.Chemscore.DG>
-15.6600

> <Gold.Chemscore.ZeroCoef>
-5.4800

> <Gold.Chemscore.Hbond>
1.9979

> <Gold.Chemscore.Metal>
0.0000

> <Gold.Chemscore.Lipo>
66.8970

> <Gold.Chemscore.Internal_Hbond>
0.0000

> <Gold.Chemscore.DEClash>
0.0034

> <Gold.Chemscore.DEInternal>
0.3965

> <Gold.Chemscore.Rot>
1.6874

> <Gold.Chemscore.Internal.Correction>
   9.000000E+99

> <Gold.Chemscore.Hbonds>
donor molecule, donor type, donor heavy atom, donor atom, acceptor molecule, acceptor atom, score
      P1  H  6896  6908       L1     8  0.98
      P1  H  7989  7998       L1    14  1.00

> <Gold.Chemscore.Hbond.Weighted>
-6.6729

> <Gold.Chemscore.Metal.Weighted>
-0.0000

> <Gold.Chemscore.Lipo.Weighted>
-7.8269

> <Gold.Chemscore.Internal_Hbond.Weighted>
0.0000

> <Gold.Chemscore.DEClash.Weighted>
0.0034

> <Gold.Chemscore.DEInternal.Weighted>
0.3965

> <Gold.Chemscore.Rot.Weighted>
4.3198

> <Gold.Chemscore.Internal.Correction.Weighted>
   9.000000E+99

> <Gold.Protein.RotatedTorsions>
[ 6907 6896 6895 6894 ] final -171.62 input  -60.11 | X-H torsion
[ 7974 7965 7964 7962 ] final   98.88 input  175.53 | X-H torsion
[ 8008 7997 7996 7995 ] final  172.92 input   59.86 | X-H torsion
[ 10167 10162 10161 10158 ] final  118.86 input  -65.29 | X-H torsion
[ 10718 10713 10712 10709 ] final   -1.95 input   66.30 | X-H torsion
[ 10763 10752 10751 10750 ] final  152.70 input  -60.55 | X-H torsion
[ 11005 11000 10999 10996 ] final  156.39 input  -57.11 | X-H torsion

> <Gold.Protein.ActiveResidues>
 VAL166  LYS551  ARG553  GLY616  TRP617  ASP618  TYR619  PRO620  LYS621  CYS622 
 ASP623  PHE694  ASN695  SER759  ASP760  ASP761  ALA762  ILE779  LEU786  VAL792 
 PHE793  MET794  SER795  GLU796  ALA797  LYS798  CYS799  TRP800  GLU811  SER814 

> <Gold.Protein.RotatedAtoms>
  151.5268  133.3456  159.2910 H   0  0  0  0  0  0  0  0  0  0  0  0  # atno 6907 bound_to 6896
  150.8618  134.7974  159.7100 H   0  0  0  0  0  0  0  0  0  0  0  0  # atno 6908 bound_to 6896
  152.4635  134.5138  159.9813 H   0  0  0  0  0  0  0  0  0  0  0  0  # atno 6909 bound_to 6896
  145.4063  139.2340  143.3272 H   0  0  0  0  0  0  0  0  0  0  0  0  # atno 7974 bound_to 7965
  156.1127  140.1473  156.9316 H   0  0  0  0  0  0  0  0  0  0  0  0  # atno 8008 bound_to 7997
  154.4778  140.0889  156.7347 H   0  0  0  0  0  0  0  0  0  0  0  0  # atno 8009 bound_to 7997
  155.4568  140.3437  155.4310 H   0  0  0  0  0  0  0  0  0  0  0  0  # atno 8010 bound_to 7997
  139.6084  144.7076  151.2900 H   0  0  0  0  0  0  0  0  0  0  0  0  # atno 10167 bound_to 10162
  156.7981  130.5384  149.5725 H   0  0  0  0  0  0  0  0  0  0  0  0  # atno 10718 bound_to 10713
  154.1243  135.2831  155.3201 H   0  0  0  0  0  0  0  0  0  0  0  0  # atno 10763 bound_to 10752
  154.6401  135.5405  153.7783 H   0  0  0  0  0  0  0  0  0  0  0  0  # atno 10764 bound_to 10752
  153.0302  135.6484  154.1396 H   0  0  0  0  0  0  0  0  0  0  0  0  # atno 10765 bound_to 10752
  140.1671  134.8569  157.2645 H   0  0  0  0  0  0  0  0  0  0  0  0  # atno 11005 bound_to 11000
  146.2727  140.4768  142.8808 LP  0  0  0  0  0  0  0  0  0  0  0  0  # atno 17320 bound_to 7965
  144.8339  140.6751  143.6273 LP  0  0  0  0  0  0  0  0  0  0  0  0  # atno 17321 bound_to 7965
  140.7301  143.6888  150.7939 LP  0  0  0  0  0  0  0  0  0  0  0  0  # atno 17342 bound_to 10162
  140.0478  143.5280  152.2688 LP  0  0  0  0  0  0  0  0  0  0  0  0  # atno 17343 bound_to 10162
  156.1118  130.6046  151.0059 LP  0  0  0  0  0  0  0  0  0  0  0  0  # atno 17370 bound_to 10713
  157.6567  131.0888  150.7930 LP  0  0  0  0  0  0  0  0  0  0  0  0  # atno 17371 bound_to 10713
  140.2421  134.3783  155.7476 LP  0  0  0  0  0  0  0  0  0  0  0  0  # atno 17394 bound_to 11000
  141.2214  133.7271  156.8805 LP  0  0  0  0  0  0  0  0  0  0  0  0  # atno 17395 bound_to 11000

$$$$
