AV-unprocessed.smi:1750|AV-procd|sdf|7053|dock4
  -GOLD-   22720 8273D 1   1.00000     0.00000
 Structure written by MMmdl.
 36 37  0  0  0  0  0  0  0  0  1 V2000
  151.1612  143.1300  157.9771 C   0  0  0  0  0  0  0  0  0  0  0  0
  150.3116  142.0171  157.3538 C   0  0  0  0  0  0  0  0  0  0  0  0
  150.7542  141.6694  155.9256 C   0  0  0  0  0  0  0  0  0  0  0  0
  149.7245  140.8888  155.1785 C   0  0  0  0  0  0  0  0  0  0  0  0
  148.4438  141.2715  155.0991 N   0  0  0  0  0  0  0  0  0  0  0  0
  147.6717  140.3779  154.3703 N   0  0  0  0  0  0  0  0  0  0  0  0
  148.3916  139.3355  153.9332 C   0  0  0  0  0  0  0  0  0  0  0  0
  147.8521  138.2719  153.1620 N   0  0  0  0  0  0  0  0  0  0  0  0
  146.5668  137.8931  153.0503 C   0  0  0  0  0  0  0  0  0  0  0  0
  145.6145  138.4208  153.6259 O   0  0  0  0  0  0  0  0  0  0  0  0
  146.4374  136.8516  152.2181 N   0  0  0  0  0  0  0  0  0  0  0  0
  145.1665  136.2264  151.8793 C   0  0  0  0  0  0  0  0  0  0  0  0
  145.3570  135.1665  150.7861 C   0  0  1  0  0  0  0  0  0  0  0  0
  146.3023  134.0354  151.1858 C   0  0  0  0  0  0  0  0  0  0  0  0
  145.8451  132.9212  150.2726 C   0  0  0  0  0  0  0  0  0  0  0  0
  144.3330  133.1281  150.2599 C   0  0  0  0  0  0  0  0  0  0  0  0
  144.1217  134.5196  150.4883 O   0  0  0  0  0  0  0  0  0  0  0  0
  150.0872  139.3593  154.3870 S   0  0  0  0  0  0  0  0  0  0  0  0
  150.8285  143.3502  158.9915 H   0  0  0  0  0  0  0  0  0  0  0  0
  151.0909  144.0505  157.3970 H   0  0  0  0  0  0  0  0  0  0  0  0
  152.2120  142.8435  158.0263 H   0  0  0  0  0  0  0  0  0  0  0  0
  150.3684  141.1269  157.9811 H   0  0  0  0  0  0  0  0  0  0  0  0
  149.2653  142.3253  157.3486 H   0  0  0  0  0  0  0  0  0  0  0  0
  150.9742  142.5812  155.3690 H   0  0  0  0  0  0  0  0  0  0  0  0
  151.6777  141.0898  155.9505 H   0  0  0  0  0  0  0  0  0  0  0  0
  148.5227  137.7435  152.6235 H   0  0  0  0  0  0  0  0  0  0  0  0
  147.2649  136.4747  151.7793 H   0  0  0  0  0  0  0  0  0  0  0  0
  144.7475  135.7623  152.7735 H   0  0  0  0  0  0  0  0  0  0  0  0
  144.4592  136.9887  151.5490 H   0  0  0  0  0  0  0  0  0  0  0  0
  145.7252  135.6294  149.8687 H   0  0  0  0  0  0  0  0  0  0  0  0
  147.3536  134.2929  151.0550 H   0  0  0  0  0  0  0  0  0  0  0  0
  146.1463  133.7509  152.2275 H   0  0  0  0  0  0  0  0  0  0  0  0
  146.2535  133.0670  149.2716 H   0  0  0  0  0  0  0  0  0  0  0  0
  146.1373  131.9304  150.6214 H   0  0  0  0  0  0  0  0  0  0  0  0
  143.8797  132.8053  149.3225 H   0  0  0  0  0  0  0  0  0  0  0  0
  143.8649  132.5705  151.0717 H   0  0  0  0  0  0  0  0  0  0  0  0
  1  2  1  0  0  0  0
  1 19  1  0  0  0  0
  1 20  1  0  0  0  0
  1 21  1  0  0  0  0
  2  3  1  0  0  0  0
  2 22  1  0  0  0  0
  2 23  1  0  0  0  0
  3  4  1  0  0  0  0
  3 24  1  0  0  0  0
  3 25  1  0  0  0  0
  4 18  1  0  0  0  0
  4  5  2  0  0  0  0
  5  6  1  0  0  0  0
  6  7  2  0  0  0  0
  7  8  1  0  0  0  0
  7 18  1  0  0  0  0
  8  9  1  0  0  0  0
  8 26  1  0  0  0  0
  9 10  2  0  0  0  0
  9 11  1  0  0  0  0
 11 12  1  0  0  0  0
 11 27  1  0  0  0  0
 12 13  1  0  0  0  0
 12 28  1  0  0  0  0
 12 29  1  0  0  0  0
 13 17  1  0  0  0  0
 13 14  1  0  0  0  0
 13 30  1  0  0  0  0
 14 15  1  0  0  0  0
 14 31  1  0  0  0  0
 14 32  1  0  0  0  0
 15 16  1  0  0  0  0
 15 33  1  0  0  0  0
 15 34  1  0  0  0  0
 16 17  1  0  0  0  0
 16 35  1  0  0  0  0
 16 36  1  0  0  0  0
M  END
> <s_m_source_file>
AV-unprocessed.smi

> <i_m_source_file_index>
1750

> <i_lp_mmshare_version>
43012

> <i_f3d_flags>
0

> <s_epik_input>
W0NIM11bQ0gyXVtDSDJdYzFubmMoczEpW05IXUMoPU8pW05IXVtDSDJdW0NAQEhdMltDSDJdW0NIMl1bQ0gyXU8y

> <s_epik_cmdline>
J2VwaWtfcHl0aG9uJywgJy1waCcsICc3LjAnLCAnLXRuJywgJzgnLCAnLW1hJywgJzIwMCcsICctbWV0YWxfYmluZGluZycsICctaW1hZScsICc8aW5maWxlLm1hZT4nLCAnLW9tYWUnLCAnPG91dGZpbGUubWFlPic=

> <r_lp_tautomer_probability>
1

> <r_epik_Ionization_Penalty>
0.000503051

> <r_epik_Ionization_Penalty_Charging>
0

> <r_epik_Ionization_Penalty_Neutral>
0.000503051

> <r_epik_State_Penalty>
-0

> <r_epik_Charging_Adjusted_Penalty>
0

> <i_epik_Tot_Q>
0

> <i_epik_Tot_abs_Q>
0

> <r_epik_Metal_State_Penalty>
0.219912

> <b_epik_Metal_Only>
0

> <s_lp_Force_Field>
OPLS_2005

> <r_lp_Energy>
11.8885

> <b_lp_Chiralities_Consistent>
1

> <s_lp_Variant>
AV-unprocessed.smi:1750-2

> <Gold.Version>
5.8.1

> <Gold.Id.Protein>
6NUR|6NUR_protein|mol2

> <Gold.PLP.Fitness>
36.1539

> <Gold.PLP.PLP>
-30.6555

> <Gold.PLP.part.hbond>
-2.4410

> <Gold.PLP.part.metal>
0.0000

> <Gold.PLP.part.buried>
-4.3807

> <Gold.PLP.part.nonpolar>
-25.2270

> <Gold.PLP.part.repulsive>
1.2271

> <Gold.PLP.ligand.clash>
0.0000

> <Gold.PLP.ligand.torsion>
0.2442

> <Gold.PLP.Chemscore.Hbond>
1.9920

> <Gold.PLP.Chemscore.CHOScore>
0.0000

> <Gold.PLP.Chemscore.Metal>
0.0000

> <Gold.Chemscore.Hbonds>
donor molecule, donor type, donor heavy atom, donor atom, acceptor molecule, acceptor atom, score
      L1  H     8    26       P1  7948  0.99
      L1  H    11    27       P1  7948  0.98

> <Gold.PLP.Chemscore.Internal.Correction>
0.0107

> <Gold.Rescore>
     Score         DG    S(hbond)    S(metal)    S(lipo)     H(rot)  DE(clash)    DE(int)     intcor
     14.57     -16.15       1.91        0.00      72.23       1.63       0.13       1.46       ----

> <Gold.Chemscore.Fitness>
14.5664

> <Gold.Chemscore.DG>
-16.1489

> <Gold.Chemscore.ZeroCoef>
-5.4800

> <Gold.Chemscore.Hbond>
1.9144

> <Gold.Chemscore.Metal>
0.0000

> <Gold.Chemscore.Lipo>
72.2264

> <Gold.Chemscore.Internal_Hbond>
0.0000

> <Gold.Chemscore.DEClash>
0.1264

> <Gold.Chemscore.DEInternal>
1.4561

> <Gold.Chemscore.Rot>
1.6311

> <Gold.Chemscore.Internal.Correction>
   9.000000E+99

> <Gold.Chemscore.Hbonds>
donor molecule, donor type, donor heavy atom, donor atom, acceptor molecule, acceptor atom, score
      L1  H     8    26       P1  7948  0.94
      L1  H    11    27       P1  7948  0.93

> <Gold.Chemscore.Hbond.Weighted>
-6.3941

> <Gold.Chemscore.Metal.Weighted>
-0.0000

> <Gold.Chemscore.Lipo.Weighted>
-8.4505

> <Gold.Chemscore.Internal_Hbond.Weighted>
0.0000

> <Gold.Chemscore.DEClash.Weighted>
0.1264

> <Gold.Chemscore.DEInternal.Weighted>
1.4561

> <Gold.Chemscore.Rot.Weighted>
4.1757

> <Gold.Chemscore.Internal.Correction.Weighted>
   9.000000E+99

> <Gold.Protein.RotatedTorsions>
[ 6907 6896 6895 6894 ] final -151.65 input  -60.11 | X-H torsion
[ 7974 7965 7964 7962 ] final  -74.09 input  175.53 | X-H torsion
[ 8008 7997 7996 7995 ] final  -25.41 input   59.86 | X-H torsion
[ 10167 10162 10161 10158 ] final -131.57 input  -65.29 | X-H torsion
[ 10718 10713 10712 10709 ] final  -67.30 input   66.30 | X-H torsion
[ 10763 10752 10751 10750 ] final  -64.82 input  -60.55 | X-H torsion
[ 11005 11000 10999 10996 ] final  155.05 input  -57.11 | X-H torsion

> <Gold.Protein.ActiveResidues>
 VAL166  LYS551  ARG553  GLY616  TRP617  ASP618  TYR619  PRO620  LYS621  CYS622 
 ASP623  PHE694  ASN695  SER759  ASP760  ASP761  ALA762  ILE779  LEU786  VAL792 
 PHE793  MET794  SER795  GLU796  ALA797  LYS798  CYS799  TRP800  GLU811  SER814 

> <Gold.Protein.RotatedAtoms>
  151.2162  133.4528  159.2599 H   0  0  0  0  0  0  0  0  0  0  0  0  # atno 6907 bound_to 6896
  151.0928  134.9926  159.8421 H   0  0  0  0  0  0  0  0  0  0  0  0  # atno 6908 bound_to 6896
  152.5436  134.2095  159.8797 H   0  0  0  0  0  0  0  0  0  0  0  0  # atno 6909 bound_to 6896
  145.6436  140.9304  143.1022 H   0  0  0  0  0  0  0  0  0  0  0  0  # atno 7974 bound_to 7965
  154.4477  140.1927  156.0616 H   0  0  0  0  0  0  0  0  0  0  0  0  # atno 8008 bound_to 7997
  156.0579  140.3300  155.7400 H   0  0  0  0  0  0  0  0  0  0  0  0  # atno 8009 bound_to 7997
  155.5457  140.0590  157.2851 H   0  0  0  0  0  0  0  0  0  0  0  0  # atno 8010 bound_to 7997
  139.9175  143.6421  152.2561 H   0  0  0  0  0  0  0  0  0  0  0  0  # atno 10167 bound_to 10162
  156.0565  130.4276  150.1834 H   0  0  0  0  0  0  0  0  0  0  0  0  # atno 10718 bound_to 10713
  154.3358  135.6167  153.5572 H   0  0  0  0  0  0  0  0  0  0  0  0  # atno 10763 bound_to 10752
  152.9808  135.5757  154.4910 H   0  0  0  0  0  0  0  0  0  0  0  0  # atno 10764 bound_to 10752
  154.4605  135.2856  155.1693 H   0  0  0  0  0  0  0  0  0  0  0  0  # atno 10765 bound_to 10752
  140.1545  134.8652  157.2497 H   0  0  0  0  0  0  0  0  0  0  0  0  # atno 11005 bound_to 11000
  144.7148  139.8236  143.7402 LP  0  0  0  0  0  0  0  0  0  0  0  0  # atno 17320 bound_to 7965
  146.1261  139.4287  143.0198 LP  0  0  0  0  0  0  0  0  0  0  0  0  # atno 17321 bound_to 7965
  139.6890  144.7649  151.1473 LP  0  0  0  0  0  0  0  0  0  0  0  0  # atno 17342 bound_to 10162
  140.7670  143.5616  150.9092 LP  0  0  0  0  0  0  0  0  0  0  0  0  # atno 17343 bound_to 10162
  156.9910  130.9893  151.3415 LP  0  0  0  0  0  0  0  0  0  0  0  0  # atno 17370 bound_to 10713
  157.5539  130.8200  149.8180 LP  0  0  0  0  0  0  0  0  0  0  0  0  # atno 17371 bound_to 10713
  140.2564  134.3623  155.7423 LP  0  0  0  0  0  0  0  0  0  0  0  0  # atno 17394 bound_to 11000
  141.2203  133.7345  156.9013 LP  0  0  0  0  0  0  0  0  0  0  0  0  # atno 17395 bound_to 11000

$$$$
