AV-unprocessed.smi:927|AV-procd|sdf|4188|dock2
  -GOLD-   22720 2 93D 1   1.00000     0.00000
 Structure written by MMmdl.
 21 21  0  0  0  0  0  0  0  0  2 V2000
  146.2110  137.2449  151.4847 N   0  3  0  0  0  0  0  0  0  0  0  0
  145.2289  136.2051  151.8402 C   0  0  0  0  0  0  0  0  0  0  0  0
  144.5861  135.5744  150.5919 C   0  0  1  0  0  0  0  0  0  0  0  0
  145.1648  136.1553  149.4392 O   0  0  0  0  0  0  0  0  0  0  0  0
  144.7410  134.0617  150.5977 C   0  0  0  0  0  0  0  0  0  0  0  0
  146.0156  133.4578  150.6629 C   0  0  0  0  0  0  0  0  0  0  0  0
  146.0954  132.0508  150.6699 C   0  0  0  0  0  0  0  0  0  0  0  0
  145.0118  131.2469  150.6204 N   0  0  0  0  0  0  0  0  0  0  0  0
  143.7952  131.8293  150.5608 C   0  0  0  0  0  0  0  0  0  0  0  0
  143.6055  133.2259  150.5482 C   0  0  0  0  0  0  0  0  0  0  0  0
  146.2855  137.9122  152.2390 H   0  0  0  0  0  0  0  0  0  0  0  0
  145.9146  137.7172  150.6427 H   0  0  0  0  0  0  0  0  0  0  0  0
  145.7198  135.4449  152.4492 H   0  0  0  0  0  0  0  0  0  0  0  0
  144.4616  136.6660  152.4633 H   0  0  0  0  0  0  0  0  0  0  0  0
  143.5212  135.8116  150.5756 H   0  0  0  0  0  0  0  0  0  0  0  0
  145.3789  135.4638  148.8305 H   0  0  0  0  0  0  0  0  0  0  0  0
  146.9147  134.0548  150.7073 H   0  0  0  0  0  0  0  0  0  0  0  0
  147.0555  131.5584  150.7183 H   0  0  0  0  0  0  0  0  0  0  0  0
  142.9465  131.1625  150.5232 H   0  0  0  0  0  0  0  0  0  0  0  0
  142.6089  133.6395  150.5009 H   0  0  0  0  0  0  0  0  0  0  0  0
  147.1099  136.8113  151.3276 H   0  0  0  0  0  0  0  0  0  0  0  0
  1  2  1  0  0  0  0
  1 11  1  0  0  0  0
  1 12  1  0  0  0  0
  1 21  1  0  0  0  0
  2  3  1  0  0  0  0
  2 13  1  0  0  0  0
  2 14  1  0  0  0  0
  3  4  1  0  0  0  0
  3  5  1  0  0  0  0
  3 15  1  0  0  0  0
  4 16  1  0  0  0  0
  5 10  1  0  0  0  0
  5  6  2  0  0  0  0
  6  7  1  0  0  0  0
  6 17  1  0  0  0  0
  7  8  2  0  0  0  0
  7 18  1  0  0  0  0
  8  9  1  0  0  0  0
  9 10  2  0  0  0  0
  9 19  1  0  0  0  0
 10 20  1  0  0  0  0
M  CHG  1   1   1
M  END
> <s_m_source_file>
AV-unprocessed.smi

> <i_m_source_file_index>
927

> <i_lp_mmshare_version>
43012

> <i_f3d_flags>
0

> <s_epik_input>
W05IMl1bQ0gyXVtDQEhdKFtPSF0pYzFbY0hdW2NIXW5bY0hdW2NIXTE=

> <s_epik_cmdline>
J2VwaWtfcHl0aG9uJywgJy1waCcsICc3LjAnLCAnLXRuJywgJzgnLCAnLW1hJywgJzIwMCcsICctbWV0YWxfYmluZGluZycsICctaW1hZScsICc8aW5maWxlLm1hZT4nLCAnLW9tYWUnLCAnPG91dGZpbGUubWFlPic=

> <r_epik_Ionization_Penalty>
0.0159363

> <r_epik_Ionization_Penalty_Charging>
0.0140431

> <r_epik_Ionization_Penalty_Neutral>
0.00189321

> <r_epik_State_Penalty>
0.0109628

> <r_epik_Charging_Adjusted_Penalty>
0.0250059

> <i_epik_Tot_Q>
1

> <i_epik_Tot_abs_Q>
1

> <r_epik_Metal_State_Penalty>
0.0113463

> <b_epik_Metal_Only>
0

> <s_lp_Force_Field>
OPLS_2005

> <r_lp_Energy>
4.52461

> <b_lp_Chiralities_Consistent>
1

> <s_lp_Variant>
AV-unprocessed.smi:927-2

> <Gold.Version>
5.8.1

> <Gold.Id.Protein>
6NUR|6NUR_protein|mol2

> <Gold.PLP.Fitness>
36.0632

> <Gold.PLP.PLP>
-21.6865

> <Gold.PLP.part.hbond>
-3.4814

> <Gold.PLP.part.metal>
0.0000

> <Gold.PLP.part.buried>
-1.4584

> <Gold.PLP.part.nonpolar>
-17.2224

> <Gold.PLP.part.repulsive>
0.1909

> <Gold.PLP.ligand.clash>
0.0000

> <Gold.PLP.ligand.torsion>
0.7605

> <Gold.PLP.Chemscore.Hbond>
3.2995

> <Gold.PLP.Chemscore.CHOScore>
1.9976

> <Gold.PLP.Chemscore.Metal>
0.0000

> <Gold.Chemscore.Hbonds>
donor molecule, donor type, donor heavy atom, donor atom, acceptor molecule, acceptor atom, score
      L1  H     1    12       P1 10171  0.13
      L1  H     1    21       P1  7948  2.00
      L1  H     4    16       P1  7921  1.00
      L1  C     7    18       P1 10747  1.00
      L1  C     9    19       P1 10952  1.00

> <Gold.PLP.Chemscore.Internal.Correction>
0.0065

> <Gold.Rescore>
     Score         DG    S(hbond)    S(metal)    S(lipo)     H(rot)  DE(clash)    DE(int)     intcor
     13.34     -14.31       2.27        0.00      52.05       1.90       0.25       0.72       ----

> <Gold.Chemscore.Fitness>
13.3398

> <Gold.Chemscore.DG>
-14.3063

> <Gold.Chemscore.ZeroCoef>
-5.4800

> <Gold.Chemscore.Hbond>
2.2740

> <Gold.Chemscore.Metal>
0.0000

> <Gold.Chemscore.Lipo>
52.0542

> <Gold.Chemscore.Internal_Hbond>
0.0000

> <Gold.Chemscore.DEClash>
0.2481

> <Gold.Chemscore.DEInternal>
0.7184

> <Gold.Chemscore.Rot>
1.8981

> <Gold.Chemscore.Internal.Correction>
   9.000000E+99

> <Gold.Chemscore.Hbonds>
donor molecule, donor type, donor heavy atom, donor atom, acceptor molecule, acceptor atom, score
      L1  H     1    12       P1 10171  0.14
      L1  H     1    21       P1  7948  0.97
      L1  H     4    16       P1  7921  0.92

> <Gold.Chemscore.Hbond.Weighted>
-7.5952

> <Gold.Chemscore.Metal.Weighted>
-0.0000

> <Gold.Chemscore.Lipo.Weighted>
-6.0903

> <Gold.Chemscore.Internal_Hbond.Weighted>
0.0000

> <Gold.Chemscore.DEClash.Weighted>
0.2481

> <Gold.Chemscore.DEInternal.Weighted>
0.7184

> <Gold.Chemscore.Rot.Weighted>
4.8592

> <Gold.Chemscore.Internal.Correction.Weighted>
   9.000000E+99

> <Gold.Protein.RotatedTorsions>
[ 6907 6896 6895 6894 ] final   58.25 input  -60.11 | X-H torsion
[ 7974 7965 7964 7962 ] final  -45.28 input  175.53 | X-H torsion
[ 8008 7997 7996 7995 ] final   48.79 input   59.86 | X-H torsion
[ 10167 10162 10161 10158 ] final  -55.32 input  -65.29 | X-H torsion
[ 10718 10713 10712 10709 ] final  -39.18 input   66.30 | X-H torsion
[ 10763 10752 10751 10750 ] final   21.77 input  -60.55 | X-H torsion
[ 11005 11000 10999 10996 ] final  -17.90 input  -57.11 | X-H torsion

> <Gold.Protein.ActiveResidues>
 VAL166  LYS551  ARG553  GLY616  TRP617  ASP618  TYR619  PRO620  LYS621  CYS622 
 ASP623  PHE694  ASN695  SER759  ASP760  ASP761  ALA762  ILE779  LEU786  VAL792 
 PHE793  MET794  SER795  GLU796  ALA797  LYS798  CYS799  TRP800  GLU811  SER814 

> <Gold.Protein.RotatedAtoms>
  152.3807  134.6595  160.0143 H   0  0  0  0  0  0  0  0  0  0  0  0  # atno 6907 bound_to 6896
  151.6859  133.3306  159.3239 H   0  0  0  0  0  0  0  0  0  0  0  0  # atno 6908 bound_to 6896
  150.7745  134.6676  159.6419 H   0  0  0  0  0  0  0  0  0  0  0  0  # atno 6909 bound_to 6896
  145.9836  140.7257  142.9351 H   0  0  0  0  0  0  0  0  0  0  0  0  # atno 7974 bound_to 7965
  155.3915  140.3433  155.4251 H   0  0  0  0  0  0  0  0  0  0  0  0  # atno 8008 bound_to 7997
  156.1554  140.1584  156.8733 H   0  0  0  0  0  0  0  0  0  0  0  0  # atno 8009 bound_to 7997
  154.5090  140.0795  156.7934 H   0  0  0  0  0  0  0  0  0  0  0  0  # atno 8010 bound_to 7997
  140.6381  143.2493  151.5063 H   0  0  0  0  0  0  0  0  0  0  0  0  # atno 10167 bound_to 10162
  156.2953  130.4233  149.8197 H   0  0  0  0  0  0  0  0  0  0  0  0  # atno 10718 bound_to 10713
  153.0969  135.6662  153.9747 H   0  0  0  0  0  0  0  0  0  0  0  0  # atno 10763 bound_to 10752
  153.9328  135.3002  155.3446 H   0  0  0  0  0  0  0  0  0  0  0  0  # atno 10764 bound_to 10752
  154.7388  135.5089  153.9161 H   0  0  0  0  0  0  0  0  0  0  0  0  # atno 10765 bound_to 10752
  140.8214  133.8065  155.9663 H   0  0  0  0  0  0  0  0  0  0  0  0  # atno 11005 bound_to 11000
  144.6868  140.2950  143.7272 LP  0  0  0  0  0  0  0  0  0  0  0  0  # atno 17320 bound_to 7965
  145.7733  139.1865  143.2200 LP  0  0  0  0  0  0  0  0  0  0  0  0  # atno 17321 bound_to 7965
  139.5591  144.2201  152.1661 LP  0  0  0  0  0  0  0  0  0  0  0  0  # atno 17342 bound_to 10162
  140.1464  144.5155  150.6713 LP  0  0  0  0  0  0  0  0  0  0  0  0  # atno 17343 bound_to 10162
  156.5595  130.8377  151.3324 LP  0  0  0  0  0  0  0  0  0  0  0  0  # atno 17370 bound_to 10713
  157.7353  130.9761  150.2077 LP  0  0  0  0  0  0  0  0  0  0  0  0  # atno 17371 bound_to 10713
  140.9095  134.2278  157.4994 LP  0  0  0  0  0  0  0  0  0  0  0  0  # atno 17394 bound_to 11000
  139.8708  134.9743  156.4843 LP  0  0  0  0  0  0  0  0  0  0  0  0  # atno 17395 bound_to 11000

$$$$
