AV-unprocessed.smi:2711|AV-procd|sdf|10472|dock9
  -GOLD-   2272014513D 1   1.00000     0.00000
 Structure written by MMmdl.
 34 35  0  0  0  0  0  0  0  0  1 V2000
  146.9660  133.1389  161.7076 C   0  0  0  0  0  0  0  0  0  0  0  0
  147.3638  134.5186  161.3052 C   0  0  0  0  0  0  0  0  0  0  0  0
  147.2447  135.6738  162.0396 C   0  0  0  0  0  0  0  0  0  0  0  0
  147.7105  136.8139  161.3807 N   0  0  0  0  0  0  0  0  0  0  0  0
  148.1802  136.5310  160.1610 C   0  0  0  0  0  0  0  0  0  0  0  0
  148.7162  137.4934  159.2653 N   0  0  0  0  0  0  0  0  0  0  0  0
  149.8349  137.4069  158.5245 C   0  0  0  0  0  0  0  0  0  0  0  0
  150.6040  136.4454  158.5053 O   0  0  0  0  0  0  0  0  0  0  0  0
  150.0183  138.5143  157.7897 N   0  0  0  0  0  0  0  0  0  0  0  0
  151.1234  138.7303  156.8572 C   0  0  0  0  0  0  0  0  0  0  0  0
  151.0938  140.1153  156.1837 C   0  0  0  0  0  0  0  0  0  0  0  0
  150.9374  140.2033  154.9643 O   0  0  0  0  0  0  0  0  0  0  0  0
  151.2273  141.2061  156.9666 N   0  0  0  0  0  0  0  0  0  0  0  0
  151.2236  142.5951  156.5071 C   0  0  0  0  0  0  0  0  0  0  0  0
  151.2172  143.4523  157.7738 C   0  0  0  0  0  0  0  0  0  0  0  0
  151.8287  142.5529  158.8389 C   0  0  0  0  0  0  0  0  0  0  0  0
  151.4228  141.1418  158.4138 C   0  0  0  0  0  0  0  0  0  0  0  0
  148.0768  134.8282  159.7423 S   0  0  0  0  0  0  0  0  0  0  0  0
  146.3211  133.1574  162.5867 H   0  0  0  0  0  0  0  0  0  0  0  0
  147.8439  132.5381  161.9458 H   0  0  0  0  0  0  0  0  0  0  0  0
  146.4233  132.6410  160.9039 H   0  0  0  0  0  0  0  0  0  0  0  0
  146.8410  135.7762  163.0360 H   0  0  0  0  0  0  0  0  0  0  0  0
  148.1815  138.3444  159.1730 H   0  0  0  0  0  0  0  0  0  0  0  0
  149.3348  139.2534  157.8621 H   0  0  0  0  0  0  0  0  0  0  0  0
  152.0567  138.6293  157.4113 H   0  0  0  0  0  0  0  0  0  0  0  0
  151.1186  137.9453  156.0994 H   0  0  0  0  0  0  0  0  0  0  0  0
  152.1267  142.7819  155.9246 H   0  0  0  0  0  0  0  0  0  0  0  0
  150.3595  142.8245  155.8824 H   0  0  0  0  0  0  0  0  0  0  0  0
  151.7577  144.3914  157.6521 H   0  0  0  0  0  0  0  0  0  0  0  0
  150.1887  143.6923  158.0468 H   0  0  0  0  0  0  0  0  0  0  0  0
  152.9155  142.6437  158.8118 H   0  0  0  0  0  0  0  0  0  0  0  0
  151.4974  142.8033  159.8471 H   0  0  0  0  0  0  0  0  0  0  0  0
  150.4816  140.8543  158.8846 H   0  0  0  0  0  0  0  0  0  0  0  0
  152.1811  140.4100  158.6971 H   0  0  0  0  0  0  0  0  0  0  0  0
  1  2  1  0  0  0  0
  1 19  1  0  0  0  0
  1 20  1  0  0  0  0
  1 21  1  0  0  0  0
  2 18  1  0  0  0  0
  2  3  2  0  0  0  0
  3  4  1  0  0  0  0
  3 22  1  0  0  0  0
  4  5  2  0  0  0  0
  5  6  1  0  0  0  0
  5 18  1  0  0  0  0
  6  7  1  0  0  0  0
  6 23  1  0  0  0  0
  7  8  2  0  0  0  0
  7  9  1  0  0  0  0
  9 10  1  0  0  0  0
  9 24  1  0  0  0  0
 10 11  1  0  0  0  0
 10 25  1  0  0  0  0
 10 26  1  0  0  0  0
 11 12  2  0  0  0  0
 11 13  1  0  0  0  0
 13 17  1  0  0  0  0
 13 14  1  0  0  0  0
 14 15  1  0  0  0  0
 14 27  1  0  0  0  0
 14 28  1  0  0  0  0
 15 16  1  0  0  0  0
 15 29  1  0  0  0  0
 15 30  1  0  0  0  0
 16 17  1  0  0  0  0
 16 31  1  0  0  0  0
 16 32  1  0  0  0  0
 17 33  1  0  0  0  0
 17 34  1  0  0  0  0
M  END
> <s_m_source_file>
AV-unprocessed.smi

> <i_m_source_file_index>
2711

> <i_lp_mmshare_version>
43012

> <i_f3d_flags>
0

> <s_epik_input>
W0NIM11jMVtjSF1uYyhzMSlbTkhdQyg9TylbTkhdW0NIMl1DKD1PKU4yW0NIMl1bQ0gyXVtDSDJdW0NIMl0y

> <s_epik_cmdline>
J2VwaWtfcHl0aG9uJywgJy1waCcsICc3LjAnLCAnLXRuJywgJzgnLCAnLW1hJywgJzIwMCcsICctbWV0YWxfYmluZGluZycsICctaW1hZScsICc8aW5maWxlLm1hZT4nLCAnLW9tYWUnLCAnPG91dGZpbGUubWFlPic=

> <r_lp_tautomer_probability>
1

> <r_epik_Ionization_Penalty>
0.000145478

> <r_epik_Ionization_Penalty_Charging>
0

> <r_epik_Ionization_Penalty_Neutral>
0.000145478

> <r_epik_State_Penalty>
-0

> <r_epik_Charging_Adjusted_Penalty>
0

> <i_epik_Tot_Q>
0

> <i_epik_Tot_abs_Q>
0

> <r_epik_Metal_State_Penalty>
0.0331427

> <b_epik_Metal_Only>
0

> <s_lp_Force_Field>
OPLS_2005

> <r_lp_Energy>
22.8553

> <b_lp_Chiralities_Consistent>
1

> <s_lp_Variant>
AV-unprocessed.smi:2711-1

> <Gold.Version>
5.8.1

> <Gold.Id.Protein>
6NUR|6NUR_protein|mol2

> <Gold.PLP.Fitness>
40.3712

> <Gold.PLP.PLP>
-31.9920

> <Gold.PLP.part.hbond>
-3.6656

> <Gold.PLP.part.metal>
0.0000

> <Gold.PLP.part.buried>
-5.7115

> <Gold.PLP.part.nonpolar>
-23.2393

> <Gold.PLP.part.repulsive>
0.3705

> <Gold.PLP.ligand.clash>
0.0000

> <Gold.PLP.ligand.torsion>
0.3890

> <Gold.PLP.Chemscore.Hbond>
3.0519

> <Gold.PLP.Chemscore.CHOScore>
0.0000

> <Gold.PLP.Chemscore.Metal>
0.0000

> <Gold.Chemscore.Hbonds>
donor molecule, donor type, donor heavy atom, donor atom, acceptor molecule, acceptor atom, score
      P1  H  6896  6909       L1     8  0.91
      P1  H  6931  6943       L1     4  0.95
      P1  H  6934  6947       L1     4  0.20
      P1  H  7989  7998       L1    12  1.00

> <Gold.PLP.Chemscore.Internal.Correction>
0.0014

> <Gold.Rescore>
     Score         DG    S(hbond)    S(metal)    S(lipo)     H(rot)  DE(clash)    DE(int)     intcor
     16.95     -17.89       2.23        0.00      71.32       1.32       0.43       0.51       ----

> <Gold.Chemscore.Fitness>
16.9539

> <Gold.Chemscore.DG>
-17.8862

> <Gold.Chemscore.ZeroCoef>
-5.4800

> <Gold.Chemscore.Hbond>
2.2293

> <Gold.Chemscore.Metal>
0.0000

> <Gold.Chemscore.Lipo>
71.3212

> <Gold.Chemscore.Internal_Hbond>
0.0000

> <Gold.Chemscore.DEClash>
0.4272

> <Gold.Chemscore.DEInternal>
0.5051

> <Gold.Chemscore.Rot>
1.3219

> <Gold.Chemscore.Internal.Correction>
   9.000000E+99

> <Gold.Chemscore.Hbonds>
donor molecule, donor type, donor heavy atom, donor atom, acceptor molecule, acceptor atom, score
      P1  H  6896  6909       L1     8  0.88
      P1  H  6931  6943       L1     4  0.20
      P1  H  6934  6947       L1     4  0.03
      P1  H  7989  7998       L1    12  1.00

> <Gold.Chemscore.Hbond.Weighted>
-7.4458

> <Gold.Chemscore.Metal.Weighted>
-0.0000

> <Gold.Chemscore.Lipo.Weighted>
-8.3446

> <Gold.Chemscore.Internal_Hbond.Weighted>
0.0000

> <Gold.Chemscore.DEClash.Weighted>
0.4272

> <Gold.Chemscore.DEInternal.Weighted>
0.5051

> <Gold.Chemscore.Rot.Weighted>
3.3841

> <Gold.Chemscore.Internal.Correction.Weighted>
   9.000000E+99

> <Gold.Protein.RotatedTorsions>
[ 6907 6896 6895 6894 ] final   82.22 input  -60.11 | X-H torsion
[ 7974 7965 7964 7962 ] final  -47.32 input  175.53 | X-H torsion
[ 8008 7997 7996 7995 ] final  114.06 input   59.86 | X-H torsion
[ 10167 10162 10161 10158 ] final   34.07 input  -65.29 | X-H torsion
[ 10718 10713 10712 10709 ] final -146.55 input   66.30 | X-H torsion
[ 10763 10752 10751 10750 ] final  -40.46 input  -60.55 | X-H torsion
[ 11005 11000 10999 10996 ] final   25.67 input  -57.11 | X-H torsion

> <Gold.Protein.ActiveResidues>
 VAL166  LYS551  ARG553  GLY616  TRP617  ASP618  TYR619  PRO620  LYS621  CYS622 
 ASP623  PHE694  ASN695  SER759  ASP760  ASP761  ALA762  ILE779  LEU786  VAL792 
 PHE793  MET794  SER795  GLU796  ALA797  LYS798  CYS799  TRP800  GLU811  SER814 

> <Gold.Protein.RotatedAtoms>
  152.5292  134.3083  159.9103 H   0  0  0  0  0  0  0  0  0  0  0  0  # atno 6907 bound_to 6896
  151.3033  133.4106  159.2649 H   0  0  0  0  0  0  0  0  0  0  0  0  # atno 6908 bound_to 6896
  151.0100  134.9406  159.8059 H   0  0  0  0  0  0  0  0  0  0  0  0  # atno 6909 bound_to 6896
  145.9628  140.7462  142.9449 H   0  0  0  0  0  0  0  0  0  0  0  0  # atno 7974 bound_to 7965
  156.2297  140.2967  156.0157 H   0  0  0  0  0  0  0  0  0  0  0  0  # atno 8008 bound_to 7997
  155.2258  140.0417  157.2972 H   0  0  0  0  0  0  0  0  0  0  0  0  # atno 8009 bound_to 7997
  154.5975  140.2418  155.7845 H   0  0  0  0  0  0  0  0  0  0  0  0  # atno 8010 bound_to 7997
  140.4349  144.1271  150.6165 H   0  0  0  0  0  0  0  0  0  0  0  0  # atno 10167 bound_to 10162
  156.3964  130.7911  151.2118 H   0  0  0  0  0  0  0  0  0  0  0  0  # atno 10718 bound_to 10713
  153.9462  135.6756  153.4744 H   0  0  0  0  0  0  0  0  0  0  0  0  # atno 10763 bound_to 10752
  153.0907  135.4876  154.8680 H   0  0  0  0  0  0  0  0  0  0  0  0  # atno 10764 bound_to 10752
  154.7350  135.3147  154.8786 H   0  0  0  0  0  0  0  0  0  0  0  0  # atno 10765 bound_to 10752
  140.3453  134.2288  155.7685 H   0  0  0  0  0  0  0  0  0  0  0  0  # atno 11005 bound_to 11000
  144.6819  140.2620  143.7318 LP  0  0  0  0  0  0  0  0  0  0  0  0  # atno 17320 bound_to 7965
  145.8016  139.1966  143.2045 LP  0  0  0  0  0  0  0  0  0  0  0  0  # atno 17321 bound_to 7965
  140.4385  143.2537  151.9504 LP  0  0  0  0  0  0  0  0  0  0  0  0  # atno 17342 bound_to 10162
  139.4786  144.5677  151.8139 LP  0  0  0  0  0  0  0  0  0  0  0  0  # atno 17343 bound_to 10162
  157.7502  131.0300  150.4118 LP  0  0  0  0  0  0  0  0  0  0  0  0  # atno 17370 bound_to 10713
  156.4389  130.3987  149.6710 LP  0  0  0  0  0  0  0  0  0  0  0  0  # atno 17371 bound_to 10713
  141.2027  133.7930  157.0376 LP  0  0  0  0  0  0  0  0  0  0  0  0  # atno 17394 bound_to 11000
  140.0747  134.9682  157.1526 LP  0  0  0  0  0  0  0  0  0  0  0  0  # atno 17395 bound_to 11000

$$$$
