AV-unprocessed.smi:2511|AV-procd|sdf|9886|dock10
  -GOLD-   2272013523D 1   1.00000     0.00000
 Structure written by MMmdl.
 40 41  0  0  0  0  0  0  0  0  1 V2000
  149.1718  134.5694  154.2599 N   0  0  0  0  0  0  0  0  0  0  0  0
  149.4453  134.3719  155.5540 C   0  0  0  0  0  0  0  0  0  0  0  0
  149.2444  133.2922  156.1081 O   0  0  0  0  0  0  0  0  0  0  0  0
  149.9743  135.5597  156.3133 C   0  0  0  0  0  0  0  0  0  0  0  0
  150.8483  136.4710  155.6780 C   0  0  0  0  0  0  0  0  0  0  0  0
  151.3278  137.5797  156.4013 C   0  0  0  0  0  0  0  0  0  0  0  0
  150.9223  137.7469  157.7462 C   0  0  0  0  0  0  0  0  0  0  0  0
  151.3222  138.8269  158.5788 N   0  0  0  0  0  0  0  0  0  0  0  0
  152.3160  139.7172  158.3897 C   0  0  0  0  0  0  0  0  0  0  0  0
  153.0623  139.7374  157.4136 O   0  0  0  0  0  0  0  0  0  0  0  0
  152.4587  140.6070  159.3890 N   0  0  0  0  0  0  0  0  0  0  0  0
  153.4264  141.7025  159.5128 C   0  0  2  0  0  0  0  0  0  0  0  0
  153.9634  141.7704  160.9554 C   0  0  0  0  0  0  0  0  0  0  0  0
  152.8998  142.2701  161.9478 C   0  0  0  0  0  0  0  0  0  0  0  0
  152.3171  143.6232  161.5109 C   0  0  0  0  0  0  0  0  0  0  0  0
  151.7362  143.5598  160.0825 C   0  0  1  0  0  0  0  0  0  0  0  0
  151.1342  144.9102  159.6417 C   0  0  0  0  0  0  0  0  0  0  0  0
  149.9707  145.1336  160.2534 F   0  0  0  0  0  0  0  0  0  0  0  0
  151.9741  145.9022  159.9374 F   0  0  0  0  0  0  0  0  0  0  0  0
  150.9351  144.9132  158.3235 F   0  0  0  0  0  0  0  0  0  0  0  0
  152.8135  143.0581  159.0943 C   0  0  0  0  0  0  0  0  0  0  0  0
  150.0317  136.7959  158.2835 C   0  0  0  0  0  0  0  0  0  0  0  0
  149.5703  135.7304  157.5957 N   0  0  0  0  0  0  0  0  0  0  0  0
  148.8177  133.8100  153.6971 H   0  0  0  0  0  0  0  0  0  0  0  0
  149.3263  135.4811  153.8539 H   0  0  0  0  0  0  0  0  0  0  0  0
  151.1521  136.3311  154.6506 H   0  0  0  0  0  0  0  0  0  0  0  0
  151.9822  138.2794  155.9058 H   0  0  0  0  0  0  0  0  0  0  0  0
  150.8380  138.8920  159.4625 H   0  0  0  0  0  0  0  0  0  0  0  0
  151.8197  140.5065  160.1646 H   0  0  0  0  0  0  0  0  0  0  0  0
  154.2760  141.4861  158.8629 H   0  0  0  0  0  0  0  0  0  0  0  0
  154.3363  140.7938  161.2667 H   0  0  0  0  0  0  0  0  0  0  0  0
  154.8206  142.4444  160.9854 H   0  0  0  0  0  0  0  0  0  0  0  0
  152.0972  141.5365  162.0316 H   0  0  0  0  0  0  0  0  0  0  0  0
  153.3370  142.3596  162.9426 H   0  0  0  0  0  0  0  0  0  0  0  0
  151.5438  143.9266  162.2172 H   0  0  0  0  0  0  0  0  0  0  0  0
  153.0951  144.3861  161.5610 H   0  0  0  0  0  0  0  0  0  0  0  0
  150.9222  142.8332  160.0885 H   0  0  0  0  0  0  0  0  0  0  0  0
  153.6122  143.7983  159.0317 H   0  0  0  0  0  0  0  0  0  0  0  0
  152.3963  142.9887  158.0895 H   0  0  0  0  0  0  0  0  0  0  0  0
  149.6807  136.8876  159.3010 H   0  0  0  0  0  0  0  0  0  0  0  0
  1  2  1  0  0  0  0
  1 24  1  0  0  0  0
  1 25  1  0  0  0  0
  2  3  2  0  0  0  0
  2  4  1  0  0  0  0
  4 23  1  0  0  0  0
  4  5  2  0  0  0  0
  5  6  1  0  0  0  0
  5 26  1  0  0  0  0
  6  7  2  0  0  0  0
  6 27  1  0  0  0  0
  7  8  1  0  0  0  0
  7 22  1  0  0  0  0
  8  9  1  0  0  0  0
  8 28  1  0  0  0  0
  9 10  2  0  0  0  0
  9 11  1  0  0  0  0
 11 12  1  0  0  0  0
 11 29  1  0  0  0  0
 12 21  1  0  0  0  0
 12 13  1  0  0  0  0
 12 30  1  0  0  0  0
 13 14  1  0  0  0  0
 13 31  1  0  0  0  0
 13 32  1  0  0  0  0
 14 15  1  0  0  0  0
 14 33  1  0  0  0  0
 14 34  1  0  0  0  0
 15 16  1  0  0  0  0
 15 35  1  0  0  0  0
 15 36  1  0  0  0  0
 16 17  1  0  0  0  0
 16 21  1  0  0  0  0
 16 37  1  0  0  0  0
 17 18  1  0  0  0  0
 17 19  1  0  0  0  0
 17 20  1  0  0  0  0
 21 38  1  0  0  0  0
 21 39  1  0  0  0  0
 22 23  2  0  0  0  0
 22 40  1  0  0  0  0
M  END
> <s_m_source_file>
AV-unprocessed.smi

> <i_m_source_file_index>
2511

> <i_lp_mmshare_version>
43012

> <i_f3d_flags>
0

> <s_epik_input>
W05IMl1DKD1PKWMxW2NIXVtjSF1jKFtjSF1uMSlbTkhdQyg9TylbTkhdW0NAQEhdMltDSDJdW0NIMl1bQ0gyXVtDQEBIXShDKEYpKEYpRilbQ0gyXTI=

> <s_epik_cmdline>
J2VwaWtfcHl0aG9uJywgJy1waCcsICc3LjAnLCAnLXRuJywgJzgnLCAnLW1hJywgJzIwMCcsICctbWV0YWxfYmluZGluZycsICctaW1hZScsICc8aW5maWxlLm1hZT4nLCAnLW9tYWUnLCAnPG91dGZpbGUubWFlPic=

> <r_lp_tautomer_probability>
1

> <r_epik_Ionization_Penalty>
4.28758e-05

> <r_epik_Ionization_Penalty_Charging>
0

> <r_epik_Ionization_Penalty_Neutral>
4.28758e-05

> <r_epik_State_Penalty>
-0

> <r_epik_Charging_Adjusted_Penalty>
0

> <i_epik_Tot_Q>
0

> <i_epik_Tot_abs_Q>
0

> <r_epik_Metal_State_Penalty>
-0

> <b_epik_Metal_Only>
0

> <s_lp_Force_Field>
OPLS_2005

> <r_lp_Energy>
27.7433

> <b_lp_Chiralities_Consistent>
1

> <s_lp_Variant>
AV-unprocessed.smi:2511-1

> <Gold.Version>
5.8.1

> <Gold.Id.Protein>
6NUR|6NUR_protein|mol2

> <Gold.PLP.Fitness>
47.5735

> <Gold.PLP.PLP>
-45.6302

> <Gold.PLP.part.hbond>
-2.0000

> <Gold.PLP.part.metal>
0.0000

> <Gold.PLP.part.buried>
-5.5518

> <Gold.PLP.part.nonpolar>
-38.2082

> <Gold.PLP.part.repulsive>
0.2618

> <Gold.PLP.ligand.clash>
0.0000

> <Gold.PLP.ligand.torsion>
1.2274

> <Gold.PLP.Chemscore.Hbond>
1.4586

> <Gold.PLP.Chemscore.CHOScore>
0.0000

> <Gold.PLP.Chemscore.Metal>
0.0000

> <Gold.Chemscore.Hbonds>
donor molecule, donor type, donor heavy atom, donor atom, acceptor molecule, acceptor atom, score
      L1  H     1    25       P1  7948  0.45
      P1  H  7997  8009       L1    10  1.00

> <Gold.PLP.Chemscore.Internal.Correction>
0.0222

> <Gold.Rescore>
     Score         DG    S(hbond)    S(metal)    S(lipo)     H(rot)  DE(clash)    DE(int)     intcor
     17.34     -19.42       1.65        0.00      94.05       1.00       0.03       2.06       ----

> <Gold.Chemscore.Fitness>
17.3374

> <Gold.Chemscore.DG>
-19.4207

> <Gold.Chemscore.ZeroCoef>
-5.4800

> <Gold.Chemscore.Hbond>
1.6459

> <Gold.Chemscore.Metal>
0.0000

> <Gold.Chemscore.Lipo>
94.0477

> <Gold.Chemscore.Internal_Hbond>
0.0000

> <Gold.Chemscore.DEClash>
0.0267

> <Gold.Chemscore.DEInternal>
2.0566

> <Gold.Chemscore.Rot>
1.0000

> <Gold.Chemscore.Internal.Correction>
   9.000000E+99

> <Gold.Chemscore.Hbonds>
donor molecule, donor type, donor heavy atom, donor atom, acceptor molecule, acceptor atom, score
      L1  H     1    25       P1  7948  0.21
      P1  H  7997  8009       L1    10  0.96

> <Gold.Chemscore.Hbond.Weighted>
-5.4971

> <Gold.Chemscore.Metal.Weighted>
-0.0000

> <Gold.Chemscore.Lipo.Weighted>
-11.0036

> <Gold.Chemscore.Internal_Hbond.Weighted>
0.0000

> <Gold.Chemscore.DEClash.Weighted>
0.0267

> <Gold.Chemscore.DEInternal.Weighted>
2.0566

> <Gold.Chemscore.Rot.Weighted>
2.5600

> <Gold.Chemscore.Internal.Correction.Weighted>
   9.000000E+99

> <Gold.Protein.RotatedTorsions>
[ 6907 6896 6895 6894 ] final   32.19 input  -60.11 | X-H torsion
[ 7974 7965 7964 7962 ] final  -18.44 input  175.53 | X-H torsion
[ 8008 7997 7996 7995 ] final -177.66 input   59.86 | X-H torsion
[ 10167 10162 10161 10158 ] final  -39.62 input  -65.29 | X-H torsion
[ 10718 10713 10712 10709 ] final  117.81 input   66.30 | X-H torsion
[ 10763 10752 10751 10750 ] final  110.26 input  -60.55 | X-H torsion
[ 11005 11000 10999 10996 ] final  118.66 input  -57.11 | X-H torsion

> <Gold.Protein.ActiveResidues>
 VAL166  LYS551  ARG553  GLY616  TRP617  ASP618  TYR619  PRO620  LYS621  CYS622 
 ASP623  PHE694  ASN695  SER759  ASP760  ASP761  ALA762  ILE779  LEU786  VAL792 
 PHE793  MET794  SER795  GLU796  ALA797  LYS798  CYS799  TRP800  GLU811  SER814 

> <Gold.Protein.RotatedAtoms>
  152.0709  134.9534  160.0574 H   0  0  0  0  0  0  0  0  0  0  0  0  # atno 6907 bound_to 6896
  152.0860  133.4171  159.4530 H   0  0  0  0  0  0  0  0  0  0  0  0  # atno 6908 bound_to 6896
  150.6836  134.2846  159.4685 H   0  0  0  0  0  0  0  0  0  0  0  0  # atno 6909 bound_to 6896
  146.1892  140.3921  142.8464 H   0  0  0  0  0  0  0  0  0  0  0  0  # atno 7974 bound_to 7965
  156.0096  140.1238  157.0467 H   0  0  0  0  0  0  0  0  0  0  0  0  # atno 8008 bound_to 7997
  154.4271  140.1090  156.5881 H   0  0  0  0  0  0  0  0  0  0  0  0  # atno 8009 bound_to 7997
  155.6098  140.3471  155.4621 H   0  0  0  0  0  0  0  0  0  0  0  0  # atno 8010 bound_to 7997
  140.7058  143.3203  151.2809 H   0  0  0  0  0  0  0  0  0  0  0  0  # atno 10167 bound_to 10162
  157.6072  131.1041  150.7668 H   0  0  0  0  0  0  0  0  0  0  0  0  # atno 10718 bound_to 10713
  153.4465  135.3754  155.2259 H   0  0  0  0  0  0  0  0  0  0  0  0  # atno 10763 bound_to 10752
  154.8755  135.3875  154.4090 H   0  0  0  0  0  0  0  0  0  0  0  0  # atno 10764 bound_to 10752
  153.4643  135.7087  153.6095 H   0  0  0  0  0  0  0  0  0  0  0  0  # atno 10765 bound_to 10752
  139.9117  134.9622  156.7537 H   0  0  0  0  0  0  0  0  0  0  0  0  # atno 11005 bound_to 11000
  144.8454  140.6921  143.6202 LP  0  0  0  0  0  0  0  0  0  0  0  0  # atno 17320 bound_to 7965
  145.3845  139.1629  143.4262 LP  0  0  0  0  0  0  0  0  0  0  0  0  # atno 17321 bound_to 7965
  139.6655  144.0113  152.2720 LP  0  0  0  0  0  0  0  0  0  0  0  0  # atno 17342 bound_to 10162
  139.9695  144.6503  150.8003 LP  0  0  0  0  0  0  0  0  0  0  0  0  # atno 17343 bound_to 10162
  156.8053  130.4934  149.5363 LP  0  0  0  0  0  0  0  0  0  0  0  0  # atno 17370 bound_to 10713
  156.1162  130.6076  151.0124 LP  0  0  0  0  0  0  0  0  0  0  0  0  # atno 17371 bound_to 10713
  140.6753  133.9523  155.7879 LP  0  0  0  0  0  0  0  0  0  0  0  0  # atno 17394 bound_to 11000
  141.0548  134.0432  157.3736 LP  0  0  0  0  0  0  0  0  0  0  0  0  # atno 17395 bound_to 11000

$$$$
