AV-unprocessed.smi:1198|AV-procd|sdf|5011|dock5
  -GOLD-   22720 4 23D 1   1.00000     0.00000
 Structure written by MMmdl.
 40 41  0  0  0  0  0  0  0  0  2 V2000
  150.5500  142.2260  157.6071 C   0  0  0  0  0  0  0  0  0  0  0  0
  151.1906  141.4127  156.6301 O   0  0  0  0  0  0  0  0  0  0  0  0
  150.4089  140.5776  155.8587 C   0  0  0  0  0  0  0  0  0  0  0  0
  149.0905  140.3117  156.2763 C   0  0  0  0  0  0  0  0  0  0  0  0
  148.2900  139.4612  155.4909 C   0  0  0  0  0  0  0  0  0  0  0  0
  148.8241  138.9014  154.3125 C   0  0  0  0  0  0  0  0  0  0  0  0
  147.9791  138.0446  153.5533 N   0  0  0  0  0  0  0  0  0  0  0  0
  146.6366  137.9892  153.5050 C   0  0  0  0  0  0  0  0  0  0  0  0
  145.8645  138.7075  154.1383 O   0  0  0  0  0  0  0  0  0  0  0  0
  146.2247  137.0239  152.6701 N   0  0  0  0  0  0  0  0  0  0  0  0
  144.8324  136.6952  152.3772 C   0  0  0  0  0  0  0  0  0  0  0  0
  144.6486  135.2066  152.0230 C   0  0  1  0  0  0  0  0  0  0  0  0
  143.4026  134.5412  152.6087 C   0  0  0  0  0  0  0  0  0  0  0  0
  143.2248  133.3183  151.7145 C   0  0  0  0  0  0  0  0  0  0  0  0
  143.6265  133.7634  150.3635 N   0  3  2  0  0  0  0  0  0  0  0  0
  144.1808  132.6903  149.5117 C   0  0  0  0  0  0  0  0  0  0  0  0
  144.5078  134.9455  150.5156 C   0  0  0  0  0  0  0  0  0  0  0  0
  150.1634  139.2266  153.9818 C   0  0  0  0  0  0  0  0  0  0  0  0
  150.9359  140.0423  154.7304 N   0  0  0  0  0  0  0  0  0  0  0  0
  151.2994  142.8218  158.1278 H   0  0  0  0  0  0  0  0  0  0  0  0
  150.0319  141.6208  158.3527 H   0  0  0  0  0  0  0  0  0  0  0  0
  149.8396  142.9155  157.1487 H   0  0  0  0  0  0  0  0  0  0  0  0
  148.7004  140.7516  157.1821 H   0  0  0  0  0  0  0  0  0  0  0  0
  147.2757  139.2438  155.7932 H   0  0  0  0  0  0  0  0  0  0  0  0
  148.4646  137.3681  152.9824 H   0  0  0  0  0  0  0  0  0  0  0  0
  146.9286  136.4805  152.1921 H   0  0  0  0  0  0  0  0  0  0  0  0
  144.1855  136.9754  153.2105 H   0  0  0  0  0  0  0  0  0  0  0  0
  144.5206  137.3100  151.5326 H   0  0  0  0  0  0  0  0  0  0  0  0
  145.5196  134.6518  152.3764 H   0  0  0  0  0  0  0  0  0  0  0  0
  143.5133  134.2793  153.6615 H   0  0  0  0  0  0  0  0  0  0  0  0
  142.5384  135.2004  152.5123 H   0  0  0  0  0  0  0  0  0  0  0  0
  143.8868  132.5208  152.0567 H   0  0  0  0  0  0  0  0  0  0  0  0
  142.2040  132.9352  151.7243 H   0  0  0  0  0  0  0  0  0  0  0  0
  145.0955  132.2799  149.9414 H   0  0  0  0  0  0  0  0  0  0  0  0
  144.4105  133.0737  148.5172 H   0  0  0  0  0  0  0  0  0  0  0  0
  143.4588  131.8803  149.4024 H   0  0  0  0  0  0  0  0  0  0  0  0
  144.0255  135.7866  150.0161 H   0  0  0  0  0  0  0  0  0  0  0  0
  145.4834  134.8042  150.0478 H   0  0  0  0  0  0  0  0  0  0  0  0
  150.6582  138.8359  153.1080 H   0  0  0  0  0  0  0  0  0  0  0  0
  142.7878  134.0992  149.9113 H   0  0  0  0  0  0  0  0  0  0  0  0
  1  2  1  0  0  0  0
  1 20  1  0  0  0  0
  1 21  1  0  0  0  0
  1 22  1  0  0  0  0
  2  3  1  0  0  0  0
  3 19  1  0  0  0  0
  3  4  2  0  0  0  0
  4  5  1  0  0  0  0
  4 23  1  0  0  0  0
  5  6  2  0  0  0  0
  5 24  1  0  0  0  0
  6  7  1  0  0  0  0
  6 18  1  0  0  0  0
  7  8  1  0  0  0  0
  7 25  1  0  0  0  0
  8  9  2  0  0  0  0
  8 10  1  0  0  0  0
 10 11  1  0  0  0  0
 10 26  1  0  0  0  0
 11 12  1  0  0  0  0
 11 27  1  0  0  0  0
 11 28  1  0  0  0  0
 12 17  1  0  0  0  0
 12 13  1  0  0  0  0
 12 29  1  0  0  0  0
 13 14  1  0  0  0  0
 13 30  1  0  0  0  0
 13 31  1  0  0  0  0
 14 15  1  0  0  0  0
 14 32  1  0  0  0  0
 14 33  1  0  0  0  0
 15 16  1  0  0  0  0
 15 17  1  0  0  0  0
 15 40  1  0  0  0  0
 16 34  1  0  0  0  0
 16 35  1  0  0  0  0
 16 36  1  0  0  0  0
 17 37  1  0  0  0  0
 17 38  1  0  0  0  0
 18 19  2  0  0  0  0
 18 39  1  0  0  0  0
M  CHG  1  15   1
M  END
> <s_m_source_file>
AV-unprocessed.smi

> <i_m_source_file_index>
1198

> <i_lp_mmshare_version>
43012

> <i_f3d_flags>
0

> <s_epik_input>
W0NIM11PYzFbY0hdW2NIXWMoW2NIXW4xKVtOSF1DKD1PKVtOSF1bQ0gyXVtDQEBIXTJbQ0gyXVtDSDJdTihbQ0gzXSlbQ0gyXTI=

> <s_epik_cmdline>
J2VwaWtfcHl0aG9uJywgJy1waCcsICc3LjAnLCAnLXRuJywgJzgnLCAnLW1hJywgJzIwMCcsICctbWV0YWxfYmluZGluZycsICctaW1hZScsICc8aW5maWxlLm1hZT4nLCAnLW9tYWUnLCAnPG91dGZpbGUubWFlPic=

> <r_lp_tautomer_probability>
1

> <r_epik_Ionization_Penalty>
0.00131396

> <r_epik_Ionization_Penalty_Charging>
0.0012301

> <r_epik_Ionization_Penalty_Neutral>
8.38549e-05

> <r_epik_State_Penalty>
0.00081314

> <r_epik_Charging_Adjusted_Penalty>
0.00204324

> <i_epik_Tot_Q>
1

> <i_epik_Tot_abs_Q>
1

> <r_epik_Metal_State_Penalty>
-0

> <b_epik_Metal_Only>
0

> <s_lp_Force_Field>
OPLS_2005

> <r_lp_Energy>
29.7758

> <b_lp_Chiralities_Consistent>
1

> <s_lp_Variant>
AV-unprocessed.smi:1198-2

> <Gold.Version>
5.8.1

> <Gold.Id.Protein>
6NUR|6NUR_protein|mol2

> <Gold.PLP.Fitness>
43.3559

> <Gold.PLP.PLP>
-29.5926

> <Gold.PLP.part.hbond>
-4.0000

> <Gold.PLP.part.metal>
0.0000

> <Gold.PLP.part.buried>
-3.5707

> <Gold.PLP.part.nonpolar>
-22.1417

> <Gold.PLP.part.repulsive>
0.3113

> <Gold.PLP.ligand.clash>
0.0000

> <Gold.PLP.ligand.torsion>
1.0885

> <Gold.PLP.Chemscore.Hbond>
4.8199

> <Gold.PLP.Chemscore.CHOScore>
0.4913

> <Gold.PLP.Chemscore.Metal>
0.0000

> <Gold.Chemscore.Hbonds>
donor molecule, donor type, donor heavy atom, donor atom, acceptor molecule, acceptor atom, score
      L1  H     7    25       P1  7948  1.00
      L1  H    10    26       P1  7948  0.89
      L1  H    15    40       P1 10186  2.00
      P1  H  7989  7998       L1    19  0.90
      L1  C    18    39       P1  7957  0.53

> <Gold.PLP.Chemscore.Internal.Correction>
0.0068

> <Gold.Rescore>
     Score         DG    S(hbond)    S(metal)    S(lipo)     H(rot)  DE(clash)    DE(int)     intcor
     16.95     -19.47       3.08        0.00      64.71       1.51       0.26       2.26       ----

> <Gold.Chemscore.Fitness>
16.9469

> <Gold.Chemscore.DG>
-19.4679

> <Gold.Chemscore.ZeroCoef>
-5.4800

> <Gold.Chemscore.Hbond>
3.0822

> <Gold.Chemscore.Metal>
0.0000

> <Gold.Chemscore.Lipo>
64.7148

> <Gold.Chemscore.Internal_Hbond>
0.0000

> <Gold.Chemscore.DEClash>
0.2566

> <Gold.Chemscore.DEInternal>
2.2644

> <Gold.Chemscore.Rot>
1.5149

> <Gold.Chemscore.Internal.Correction>
   9.000000E+99

> <Gold.Chemscore.Hbonds>
donor molecule, donor type, donor heavy atom, donor atom, acceptor molecule, acceptor atom, score
      L1  H     7    25       P1  7948  1.00
      L1  H    10    26       P1  7948  0.81
      L1  H    15    40       P1 10186  0.99
      P1  H  7989  7998       L1    19  0.18

> <Gold.Chemscore.Hbond.Weighted>
-10.2944

> <Gold.Chemscore.Metal.Weighted>
-0.0000

> <Gold.Chemscore.Lipo.Weighted>
-7.5716

> <Gold.Chemscore.Internal_Hbond.Weighted>
0.0000

> <Gold.Chemscore.DEClash.Weighted>
0.2566

> <Gold.Chemscore.DEInternal.Weighted>
2.2644

> <Gold.Chemscore.Rot.Weighted>
3.8781

> <Gold.Chemscore.Internal.Correction.Weighted>
   9.000000E+99

> <Gold.Protein.RotatedTorsions>
[ 6907 6896 6895 6894 ] final  -45.96 input  -60.11 | X-H torsion
[ 7974 7965 7964 7962 ] final   27.98 input  175.53 | X-H torsion
[ 8008 7997 7996 7995 ] final -161.59 input   59.86 | X-H torsion
[ 10167 10162 10161 10158 ] final   35.23 input  -65.29 | X-H torsion
[ 10718 10713 10712 10709 ] final   -4.45 input   66.30 | X-H torsion
[ 10763 10752 10751 10750 ] final -170.11 input  -60.55 | X-H torsion
[ 11005 11000 10999 10996 ] final -122.17 input  -57.11 | X-H torsion

> <Gold.Protein.ActiveResidues>
 VAL166  LYS551  ARG553  GLY616  TRP617  ASP618  TYR619  PRO620  LYS621  CYS622 
 ASP623  PHE694  ASN695  SER759  ASP760  ASP761  ALA762  ILE779  LEU786  VAL792 
 PHE793  MET794  SER795  GLU796  ALA797  LYS798  CYS799  TRP800  GLU811  SER814 

> <Gold.Protein.RotatedAtoms>
  150.9163  134.8581  159.7459 H   0  0  0  0  0  0  0  0  0  0  0  0  # atno 6907 bound_to 6896
  152.4970  134.4284  159.9514 H   0  0  0  0  0  0  0  0  0  0  0  0  # atno 6908 bound_to 6896
  151.4321  133.3627  159.2805 H   0  0  0  0  0  0  0  0  0  0  0  0  # atno 6909 bound_to 6896
  146.1754  139.7118  142.8938 H   0  0  0  0  0  0  0  0  0  0  0  0  # atno 7974 bound_to 7965
  155.7945  140.0883  157.1991 H   0  0  0  0  0  0  0  0  0  0  0  0  # atno 8008 bound_to 7997
  154.3984  140.1484  156.3260 H   0  0  0  0  0  0  0  0  0  0  0  0  # atno 8009 bound_to 7997
  155.8526  140.3434  155.5705 H   0  0  0  0  0  0  0  0  0  0  0  0  # atno 8010 bound_to 7997
  140.4241  144.1418  150.6151 H   0  0  0  0  0  0  0  0  0  0  0  0  # atno 10167 bound_to 10162
  156.7611  130.5270  149.5785 H   0  0  0  0  0  0  0  0  0  0  0  0  # atno 10718 bound_to 10713
  154.6450  135.2903  155.0057 H   0  0  0  0  0  0  0  0  0  0  0  0  # atno 10763 bound_to 10752
  154.1170  135.6554  153.4899 H   0  0  0  0  0  0  0  0  0  0  0  0  # atno 10764 bound_to 10752
  153.0346  135.5278  154.7334 H   0  0  0  0  0  0  0  0  0  0  0  0  # atno 10765 bound_to 10752
  141.0015  134.0395  157.3531 H   0  0  0  0  0  0  0  0  0  0  0  0  # atno 11005 bound_to 11000
  145.4225  141.0408  143.2956 LP  0  0  0  0  0  0  0  0  0  0  0  0  # atno 17320 bound_to 7965
  144.8228  139.5761  143.6979 LP  0  0  0  0  0  0  0  0  0  0  0  0  # atno 17321 bound_to 7965
  140.4501  143.2490  151.9360 LP  0  0  0  0  0  0  0  0  0  0  0  0  # atno 17342 bound_to 10162
  139.4783  144.5571  151.8297 LP  0  0  0  0  0  0  0  0  0  0  0  0  # atno 17343 bound_to 10162
  156.1339  130.6197  151.0372 LP  0  0  0  0  0  0  0  0  0  0  0  0  # atno 17370 bound_to 10713
  157.6734  131.0856  150.7555 LP  0  0  0  0  0  0  0  0  0  0  0  0  # atno 17371 bound_to 10713
  139.9041  135.0174  156.7407 LP  0  0  0  0  0  0  0  0  0  0  0  0  # atno 17394 bound_to 11000
  140.6881  133.9415  155.7949 LP  0  0  0  0  0  0  0  0  0  0  0  0  # atno 17395 bound_to 11000

$$$$
