AV-unprocessed.smi:539|AV-procd|sdf|2868|dock2
  -GOLD-   2262023363D 1   1.00000     0.00000
 Structure written by MMmdl.
 39 41  0  0  0  0  0  0  0  0  2 V2000
  148.6527  140.2746  154.1014 C   0  0  0  0  0  0  0  0  0  0  0  0
  149.9986  140.5917  154.4059 O   0  0  0  0  0  0  0  0  0  0  0  0
  150.4662  139.9325  155.5711 C   0  0  0  0  0  0  0  0  0  0  0  0
  151.7783  140.5763  156.0449 C   0  0  0  0  0  0  0  0  0  0  0  0
  152.2687  139.9744  157.2852 N   0  0  0  0  0  0  0  0  0  0  0  0
  152.4969  140.5675  158.4958 C   0  0  0  0  0  0  0  0  0  0  0  0
  152.2655  141.9236  158.7745 N   0  0  0  0  0  0  0  0  0  0  0  0
  151.5877  142.9575  157.9904 C   0  0  0  0  0  0  0  0  0  0  0  0
  151.3070  144.1516  158.8997 C   0  0  0  0  0  0  0  0  0  0  0  0
  152.4281  144.0531  159.9103 C   0  0  0  0  0  0  0  0  0  0  0  0
  152.5659  142.5430  160.0643 C   0  0  0  0  0  0  0  0  0  0  0  0
  152.9977  139.7437  159.4194 N   0  0  0  0  0  0  0  0  0  0  0  0
  153.0895  138.5318  158.7593 C   0  0  0  0  0  0  0  0  0  0  0  0
  152.6672  138.6413  157.4718 C   0  0  0  0  0  0  0  0  0  0  0  0
  152.6857  137.5105  156.5109 C   0  0  0  0  0  0  0  0  0  0  0  0
  152.3306  137.6536  155.3431 O   0  0  0  0  0  0  0  0  0  0  0  0
  153.1352  136.3489  157.0829 N   0  5  0  0  0  0  0  0  0  0  0  0
  153.5582  136.1968  158.3846 C   0  0  0  0  0  0  0  0  0  0  0  0
  153.9430  135.1111  158.8209 O   0  0  0  0  0  0  0  0  0  0  0  0
  153.5552  137.2740  159.2299 N   0  0  0  0  0  0  0  0  0  0  0  0
  154.0082  137.1454  160.6181 C   0  0  0  0  0  0  0  0  0  0  0  0
  148.3480  140.8047  153.1992 H   0  0  0  0  0  0  0  0  0  0  0  0
  147.9848  140.5742  154.9100 H   0  0  0  0  0  0  0  0  0  0  0  0
  148.5300  139.2059  153.9221 H   0  0  0  0  0  0  0  0  0  0  0  0
  149.7105  139.9967  156.3549 H   0  0  0  0  0  0  0  0  0  0  0  0
  150.6292  138.8745  155.3610 H   0  0  0  0  0  0  0  0  0  0  0  0
  152.5406  140.5229  155.2747 H   0  0  0  0  0  0  0  0  0  0  0  0
  151.6394  141.6454  156.1793 H   0  0  0  0  0  0  0  0  0  0  0  0
  152.2371  143.2694  157.1731 H   0  0  0  0  0  0  0  0  0  0  0  0
  150.6569  142.5802  157.5665 H   0  0  0  0  0  0  0  0  0  0  0  0
  151.2917  145.1014  158.3645 H   0  0  0  0  0  0  0  0  0  0  0  0
  150.3446  144.0246  159.3980 H   0  0  0  0  0  0  0  0  0  0  0  0
  153.3451  144.4758  159.4970 H   0  0  0  0  0  0  0  0  0  0  0  0
  152.2075  144.5600  160.8500 H   0  0  0  0  0  0  0  0  0  0  0  0
  151.8535  142.1706  160.8017 H   0  0  0  0  0  0  0  0  0  0  0  0
  153.5661  142.2723  160.4049 H   0  0  0  0  0  0  0  0  0  0  0  0
  155.0162  136.7291  160.6579 H   0  0  0  0  0  0  0  0  0  0  0  0
  153.3432  136.4829  161.1737 H   0  0  0  0  0  0  0  0  0  0  0  0
  154.0344  138.1004  161.1428 H   0  0  0  0  0  0  0  0  0  0  0  0
  1  2  1  0  0  0  0
  1 22  1  0  0  0  0
  1 23  1  0  0  0  0
  1 24  1  0  0  0  0
  2  3  1  0  0  0  0
  3  4  1  0  0  0  0
  3 25  1  0  0  0  0
  3 26  1  0  0  0  0
  4  5  1  0  0  0  0
  4 27  1  0  0  0  0
  4 28  1  0  0  0  0
  5 14  1  0  0  0  0
  5  6  1  0  0  0  0
  6  7  1  0  0  0  0
  6 12  2  0  0  0  0
  7 11  1  0  0  0  0
  7  8  1  0  0  0  0
  8  9  1  0  0  0  0
  8 29  1  0  0  0  0
  8 30  1  0  0  0  0
  9 10  1  0  0  0  0
  9 31  1  0  0  0  0
  9 32  1  0  0  0  0
 10 11  1  0  0  0  0
 10 33  1  0  0  0  0
 10 34  1  0  0  0  0
 11 35  1  0  0  0  0
 11 36  1  0  0  0  0
 12 13  1  0  0  0  0
 13 20  1  0  0  0  0
 13 14  2  0  0  0  0
 14 15  1  0  0  0  0
 15 16  2  0  0  0  0
 15 17  1  0  0  0  0
 17 18  1  0  0  0  0
 18 19  2  0  0  0  0
 18 20  1  0  0  0  0
 20 21  1  0  0  0  0
 21 37  1  0  0  0  0
 21 38  1  0  0  0  0
 21 39  1  0  0  0  0
M  CHG  1  17  -1
M  END
> <s_m_source_file>
AV-unprocessed.smi

> <i_m_source_file_index>
539

> <i_lp_mmshare_version>
43012

> <i_f3d_flags>
0

> <s_epik_input>
W0NIM11uMWMoPU8pW25IXWMoPU8pYyhjMTIpbihbQ0gyXVtDSDJdT1tDSDNdKWMobjIpTjNbQ0gyXVtDSDJdW0NIMl1bQ0gyXTM=

> <s_epik_cmdline>
J2VwaWtfcHl0aG9uJywgJy1waCcsICc3LjAnLCAnLXRuJywgJzgnLCAnLW1hJywgJzIwMCcsICctbWV0YWxfYmluZGluZycsICctaW1hZScsICc8aW5maWxlLm1hZT4nLCAnLW9tYWUnLCAnPG91dGZpbGUubWFlPic=

> <r_lp_tautomer_probability>
1

> <r_epik_Ionization_Penalty>
6.13244

> <r_epik_Ionization_Penalty_Charging>
0.078064

> <r_epik_Ionization_Penalty_Neutral>
6.05438

> <r_epik_State_Penalty>
6.05106

> <r_epik_Charging_Adjusted_Penalty>
6.12912

> <i_epik_Tot_Q>
-1

> <i_epik_Tot_abs_Q>
1

> <r_epik_Metal_State_Penalty>
2.00027

> <b_epik_Metal_Only>
1

> <s_lp_Force_Field>
OPLS_2005

> <r_lp_Energy>
49.7723

> <b_lp_Chiralities_Consistent>
1

> <s_lp_Variant>
AV-unprocessed.smi:539-2

> <Gold.Version>
5.8.1

> <Gold.Id.Protein>
6NUR|6NUR_protein|mol2

> <Gold.PLP.Fitness>
45.7561

> <Gold.PLP.PLP>
-34.5992

> <Gold.PLP.part.hbond>
-4.0000

> <Gold.PLP.part.metal>
0.0000

> <Gold.PLP.part.buried>
-3.0282

> <Gold.PLP.part.nonpolar>
-27.9596

> <Gold.PLP.part.repulsive>
0.1518

> <Gold.PLP.ligand.clash>
0.0000

> <Gold.PLP.ligand.torsion>
0.0752

> <Gold.PLP.Chemscore.Hbond>
3.7600

> <Gold.PLP.Chemscore.CHOScore>
0.0000

> <Gold.PLP.Chemscore.Metal>
0.0000

> <Gold.Chemscore.Hbonds>
donor molecule, donor type, donor heavy atom, donor atom, acceptor molecule, acceptor atom, score
      P1  H  6896  6908       L1    19  0.90
      P1  H  7989  7998       L1     2  0.80
      P1  H 10752 10763       L1    17  1.79

> <Gold.PLP.Chemscore.Internal.Correction>
0.0273

> <Gold.Rescore>
     Score         DG    S(hbond)    S(metal)    S(lipo)     H(rot)  DE(clash)    DE(int)     intcor
     14.44     -14.97       1.29        0.00      77.09       1.50       0.36       0.17       ----

> <Gold.Chemscore.Fitness>
14.4368

> <Gold.Chemscore.DG>
-14.9678

> <Gold.Chemscore.ZeroCoef>
-5.4800

> <Gold.Chemscore.Hbond>
1.2866

> <Gold.Chemscore.Metal>
0.0000

> <Gold.Chemscore.Lipo>
77.0908

> <Gold.Chemscore.Internal_Hbond>
0.0000

> <Gold.Chemscore.DEClash>
0.3600

> <Gold.Chemscore.DEInternal>
0.1710

> <Gold.Chemscore.Rot>
1.4957

> <Gold.Chemscore.Internal.Correction>
   9.000000E+99

> <Gold.Chemscore.Hbonds>
donor molecule, donor type, donor heavy atom, donor atom, acceptor molecule, acceptor atom, score
      P1  H  6896  6908       L1    19  0.49
      P1  H  7989  7998       L1     2  0.24
      P1  H 10752 10763       L1    17  0.19

> <Gold.Chemscore.Hbond.Weighted>
-4.2972

> <Gold.Chemscore.Metal.Weighted>
-0.0000

> <Gold.Chemscore.Lipo.Weighted>
-9.0196

> <Gold.Chemscore.Internal_Hbond.Weighted>
0.0000

> <Gold.Chemscore.DEClash.Weighted>
0.3600

> <Gold.Chemscore.DEInternal.Weighted>
0.1710

> <Gold.Chemscore.Rot.Weighted>
3.8290

> <Gold.Chemscore.Internal.Correction.Weighted>
   9.000000E+99

> <Gold.Protein.RotatedTorsions>
[ 6907 6896 6895 6894 ] final  -45.86 input  -60.11 | X-H torsion
[ 7974 7965 7964 7962 ] final   91.40 input  175.53 | X-H torsion
[ 8008 7997 7996 7995 ] final  136.77 input   59.86 | X-H torsion
[ 10167 10162 10161 10158 ] final  -59.42 input  -65.29 | X-H torsion
[ 10718 10713 10712 10709 ] final   75.33 input   66.30 | X-H torsion
[ 10763 10752 10751 10750 ] final  130.82 input  -60.55 | X-H torsion
[ 11005 11000 10999 10996 ] final   81.32 input  -57.11 | X-H torsion

> <Gold.Protein.ActiveResidues>
 VAL166  LYS551  ARG553  GLY616  TRP617  ASP618  TYR619  PRO620  LYS621  CYS622 
 ASP623  PHE694  ASN695  SER759  ASP760  ASP761  ALA762  ILE779  LEU786  VAL792 
 PHE793  MET794  SER795  GLU796  ALA797  LYS798  CYS799  TRP800  GLU811  SER814 

> <Gold.Protein.RotatedAtoms>
  150.9174  134.8592  159.7466 H   0  0  0  0  0  0  0  0  0  0  0  0  # atno 6907 bound_to 6896
  152.4975  134.4268  159.9509 H   0  0  0  0  0  0  0  0  0  0  0  0  # atno 6908 bound_to 6896
  151.4305  133.3632  159.2803 H   0  0  0  0  0  0  0  0  0  0  0  0  # atno 6909 bound_to 6896
  145.5061  139.2276  143.2750 H   0  0  0  0  0  0  0  0  0  0  0  0  # atno 7974 bound_to 7965
  156.3003  140.2436  156.3800 H   0  0  0  0  0  0  0  0  0  0  0  0  # atno 8008 bound_to 7997
  154.8710  140.0416  157.1744 H   0  0  0  0  0  0  0  0  0  0  0  0  # atno 8009 bound_to 7997
  154.8795  140.2947  155.5437 H   0  0  0  0  0  0  0  0  0  0  0  0  # atno 8010 bound_to 7997
  140.6136  143.2395  151.5651 H   0  0  0  0  0  0  0  0  0  0  0  0  # atno 10167 bound_to 10162
  157.6629  130.9721  150.1338 H   0  0  0  0  0  0  0  0  0  0  0  0  # atno 10718 bound_to 10713
  153.7643  135.3191  155.3342 H   0  0  0  0  0  0  0  0  0  0  0  0  # atno 10763 bound_to 10752
  154.8219  135.4597  154.0807 H   0  0  0  0  0  0  0  0  0  0  0  0  # atno 10764 bound_to 10752
  153.2047  135.6927  153.8271 H   0  0  0  0  0  0  0  0  0  0  0  0  # atno 10765 bound_to 10752
  139.9102  134.7988  156.2026 H   0  0  0  0  0  0  0  0  0  0  0  0  # atno 11005 bound_to 11000
  146.2195  140.5865  142.9023 LP  0  0  0  0  0  0  0  0  0  0  0  0  # atno 17320 bound_to 7965
  144.7753  140.5725  143.6642 LP  0  0  0  0  0  0  0  0  0  0  0  0  # atno 17321 bound_to 7965
  139.5380  144.2726  152.1293 LP  0  0  0  0  0  0  0  0  0  0  0  0  # atno 17342 bound_to 10162
  140.1930  144.4733  150.6469 LP  0  0  0  0  0  0  0  0  0  0  0  0  # atno 17343 bound_to 10162
  156.2178  130.3671  149.8592 LP  0  0  0  0  0  0  0  0  0  0  0  0  # atno 17370 bound_to 10713
  156.6453  130.8721  151.3521 LP  0  0  0  0  0  0  0  0  0  0  0  0  # atno 17371 bound_to 10713
  141.0515  133.6886  156.1781 LP  0  0  0  0  0  0  0  0  0  0  0  0  # atno 17394 bound_to 11000
  140.6802  134.4775  157.5589 LP  0  0  0  0  0  0  0  0  0  0  0  0  # atno 17395 bound_to 11000

$$$$
