AV-unprocessed.smi:651|AV-procd|sdf|3191|dock9
  -GOLD-   22720 0113D 1   1.00000     0.00000
 Structure written by MMmdl.
 39 40  0  0  0  0  0  0  0  0  2 V2000
  143.2126  133.4338  151.5778 C   0  0  0  0  0  0  0  0  0  0  0  0
  144.7005  133.3855  151.8535 C   0  0  0  0  0  0  0  0  0  0  0  0
  145.6535  133.8853  150.9403 C   0  0  0  0  0  0  0  0  0  0  0  0
  147.0240  133.8127  151.2658 C   0  0  0  0  0  0  0  0  0  0  0  0
  147.4152  133.2422  152.4974 C   0  0  0  0  0  0  0  0  0  0  0  0
  148.8824  133.1566  152.8812 C   0  0  0  0  0  0  0  0  0  0  0  0
  149.1305  133.9047  154.1911 C   0  0  0  0  0  0  0  0  0  0  0  0
  148.9713  133.3231  155.2634 O   0  0  0  0  0  0  0  0  0  0  0  0
  149.5030  135.1920  154.0833 N   0  0  0  0  0  0  0  0  0  0  0  0
  149.7552  136.1439  155.1699 C   0  0  1  0  0  0  0  0  0  0  0  0
  150.1532  135.4755  156.5027 C   0  0  0  0  0  0  0  0  0  0  0  0
  151.5697  135.9624  156.8101 C   0  0  0  0  0  0  0  0  0  0  0  0
  151.6595  137.3329  156.1423 C   0  0  0  0  0  0  0  0  0  0  0  0
  150.8579  137.1854  154.8396 C   0  0  2  0  0  0  0  0  0  0  0  0
  150.2940  138.5192  154.3275 C   0  0  0  0  0  0  0  0  0  0  0  0
  149.3973  138.4605  153.3399 N   0  0  0  0  0  0  0  0  0  0  0  0
  150.6594  139.5878  154.8142 O   0  0  0  0  0  0  0  0  0  0  0  0
  146.4166  132.7544  153.3691 C   0  0  0  0  0  0  0  0  0  0  0  0
  145.1144  132.8448  153.0214 N   0  3  0  0  0  0  0  0  0  0  0  0
  143.0147  133.7096  150.5416 H   0  0  0  0  0  0  0  0  0  0  0  0
  142.7317  134.1682  152.2248 H   0  0  0  0  0  0  0  0  0  0  0  0
  142.7566  132.4608  151.7625 H   0  0  0  0  0  0  0  0  0  0  0  0
  145.3412  134.3212  150.0023 H   0  0  0  0  0  0  0  0  0  0  0  0
  147.7640  134.1936  150.5769 H   0  0  0  0  0  0  0  0  0  0  0  0
  149.1683  132.1099  152.9946 H   0  0  0  0  0  0  0  0  0  0  0  0
  149.5095  133.5713  152.0905 H   0  0  0  0  0  0  0  0  0  0  0  0
  149.6096  135.5604  153.1492 H   0  0  0  0  0  0  0  0  0  0  0  0
  148.8009  136.6460  155.3372 H   0  0  0  0  0  0  0  0  0  0  0  0
  149.4794  135.8166  157.2897 H   0  0  0  0  0  0  0  0  0  0  0  0
  150.0911  134.3869  156.4842 H   0  0  0  0  0  0  0  0  0  0  0  0
  151.7756  136.0031  157.8800 H   0  0  0  0  0  0  0  0  0  0  0  0
  152.2979  135.2874  156.3590 H   0  0  0  0  0  0  0  0  0  0  0  0
  151.2150  138.0841  156.7973 H   0  0  0  0  0  0  0  0  0  0  0  0
  152.6936  137.6267  155.9586 H   0  0  0  0  0  0  0  0  0  0  0  0
  151.5384  136.7810  154.0887 H   0  0  0  0  0  0  0  0  0  0  0  0
  148.9943  139.3102  152.9724 H   0  0  0  0  0  0  0  0  0  0  0  0
  149.1221  137.5633  152.9670 H   0  0  0  0  0  0  0  0  0  0  0  0
  146.6186  132.3048  154.3306 H   0  0  0  0  0  0  0  0  0  0  0  0
  144.4119  132.4902  153.6709 H   0  0  0  0  0  0  0  0  0  0  0  0
  1  2  1  0  0  0  0
  1 20  1  0  0  0  0
  1 21  1  0  0  0  0
  1 22  1  0  0  0  0
  2 19  1  0  0  0  0
  2  3  2  0  0  0  0
  3  4  1  0  0  0  0
  3 23  1  0  0  0  0
  4  5  2  0  0  0  0
  4 24  1  0  0  0  0
  5  6  1  0  0  0  0
  5 18  1  0  0  0  0
  6  7  1  0  0  0  0
  6 25  1  0  0  0  0
  6 26  1  0  0  0  0
  7  8  2  0  0  0  0
  7  9  1  0  0  0  0
  9 10  1  0  0  0  0
  9 27  1  0  0  0  0
 10 14  1  0  0  0  0
 10 11  1  0  0  0  0
 10 28  1  0  0  0  0
 11 12  1  0  0  0  0
 11 29  1  0  0  0  0
 11 30  1  0  0  0  0
 12 13  1  0  0  0  0
 12 31  1  0  0  0  0
 12 32  1  0  0  0  0
 13 14  1  0  0  0  0
 13 33  1  0  0  0  0
 13 34  1  0  0  0  0
 14 15  1  0  0  0  0
 14 35  1  0  0  0  0
 15 16  1  0  0  0  0
 15 17  2  0  0  0  0
 16 36  1  0  0  0  0
 16 37  1  0  0  0  0
 18 19  2  0  0  0  0
 18 38  1  0  0  0  0
 19 39  1  0  0  0  0
M  CHG  1  19   1
M  END
> <s_m_source_file>
AV-unprocessed.smi

> <i_m_source_file_index>
651

> <i_lp_mmshare_version>
43012

> <i_f3d_flags>
0

> <s_epik_input>
W0NIM11jMVtjSF1bY0hdYyhbY0hdbjEpW0NIMl1DKD1PKVtOSF1bQ0BASF0yW0NIMl1bQ0gyXVtDSDJdW0NASF0yQyg9TylbTkgyXQ==

> <s_epik_cmdline>
J2VwaWtfcHl0aG9uJywgJy1waCcsICc3LjAnLCAnLXRuJywgJzgnLCAnLW1hJywgJzIwMCcsICctbWV0YWxfYmluZGluZycsICctaW1hZScsICc8aW5maWxlLm1hZT4nLCAnLW9tYWUnLCAnPG91dGZpbGUubWFlPic=

> <r_epik_Ionization_Penalty>
2.14971

> <r_epik_Ionization_Penalty_Charging>
2.14971

> <r_epik_Ionization_Penalty_Neutral>
1.65229e-07

> <r_epik_State_Penalty>
2.28946

> <r_epik_Charging_Adjusted_Penalty>
4.43917

> <i_epik_Tot_Q>
1

> <i_epik_Tot_abs_Q>
1

> <r_epik_Metal_State_Penalty>
2.30508

> <b_epik_Metal_Only>
0

> <s_lp_Force_Field>
OPLS_2005

> <r_lp_Energy>
21.472

> <b_lp_Chiralities_Consistent>
1

> <s_lp_Variant>
AV-unprocessed.smi:651-8

> <Gold.Version>
5.8.1

> <Gold.Id.Protein>
6NUR|6NUR_protein|mol2

> <Gold.PLP.Fitness>
44.6374

> <Gold.PLP.PLP>
-30.5884

> <Gold.PLP.part.hbond>
-5.0173

> <Gold.PLP.part.metal>
0.0000

> <Gold.PLP.part.buried>
-4.2919

> <Gold.PLP.part.nonpolar>
-21.2379

> <Gold.PLP.part.repulsive>
0.2352

> <Gold.PLP.ligand.clash>
0.0000

> <Gold.PLP.ligand.torsion>
0.9335

> <Gold.PLP.Chemscore.Hbond>
5.3024

> <Gold.PLP.Chemscore.CHOScore>
0.0000

> <Gold.PLP.Chemscore.Metal>
0.0000

> <Gold.Chemscore.Hbonds>
donor molecule, donor type, donor heavy atom, donor atom, acceptor molecule, acceptor atom, score
      L1  H     9    27       P1  7948  0.45
      L1  H    16    36       P1  7957  0.39
      L1  H    16    37       P1  7948  1.00
      L1  H    19    39       P1 10957  1.27
      P1  H  7989  7998       L1    17  0.88

> <Gold.PLP.Chemscore.Internal.Correction>
0.0088

> <Gold.Rescore>
     Score         DG    S(hbond)    S(metal)    S(lipo)     H(rot)  DE(clash)    DE(int)     intcor
     16.92     -19.23       3.68        0.00      57.05       2.04       0.01       2.30       ----

> <Gold.Chemscore.Fitness>
16.9206

> <Gold.Chemscore.DG>
-19.2318

> <Gold.Chemscore.ZeroCoef>
-5.4800

> <Gold.Chemscore.Hbond>
3.6815

> <Gold.Chemscore.Metal>
0.0000

> <Gold.Chemscore.Lipo>
57.0468

> <Gold.Chemscore.Internal_Hbond>
0.0000

> <Gold.Chemscore.DEClash>
0.0121

> <Gold.Chemscore.DEInternal>
2.2990

> <Gold.Chemscore.Rot>
2.0386

> <Gold.Chemscore.Internal.Correction>
   9.000000E+99

> <Gold.Chemscore.Hbonds>
donor molecule, donor type, donor heavy atom, donor atom, acceptor molecule, acceptor atom, score
      L1  H     9    27       P1  7948  0.01
      L1  H    16    36       P1  7957  0.36
      L1  H    16    37       P1  7948  0.99
      L1  H    19    39       P1 10957  0.22
      P1  H  7989  7998       L1    17  0.78

> <Gold.Chemscore.Hbond.Weighted>
-12.2961

> <Gold.Chemscore.Metal.Weighted>
-0.0000

> <Gold.Chemscore.Lipo.Weighted>
-6.6745

> <Gold.Chemscore.Internal_Hbond.Weighted>
0.0000

> <Gold.Chemscore.DEClash.Weighted>
0.0121

> <Gold.Chemscore.DEInternal.Weighted>
2.2990

> <Gold.Chemscore.Rot.Weighted>
5.2188

> <Gold.Chemscore.Internal.Correction.Weighted>
   9.000000E+99

> <Gold.Protein.RotatedTorsions>
[ 6907 6896 6895 6894 ] final   85.54 input  -60.11 | X-H torsion
[ 7974 7965 7964 7962 ] final   17.67 input  175.53 | X-H torsion
[ 8008 7997 7996 7995 ] final  148.08 input   59.86 | X-H torsion
[ 10167 10162 10161 10158 ] final  120.05 input  -65.29 | X-H torsion
[ 10718 10713 10712 10709 ] final  -98.53 input   66.30 | X-H torsion
[ 10763 10752 10751 10750 ] final  -48.65 input  -60.55 | X-H torsion
[ 11005 11000 10999 10996 ] final  -25.64 input  -57.11 | X-H torsion

> <Gold.Protein.ActiveResidues>
 VAL166  LYS551  ARG553  GLY616  TRP617  ASP618  TYR619  PRO620  LYS621  CYS622 
 ASP623  PHE694  ASN695  SER759  ASP760  ASP761  ALA762  ILE779  LEU786  VAL792 
 PHE793  MET794  SER795  GLU796  ALA797  LYS798  CYS799  TRP800  GLU811  SER814 

> <Gold.Protein.RotatedAtoms>
  152.5377  134.2570  159.8920 H   0  0  0  0  0  0  0  0  0  0  0  0  # atno 6907 bound_to 6896
  151.2531  133.4333  159.2620 H   0  0  0  0  0  0  0  0  0  0  0  0  # atno 6908 bound_to 6896
  151.0521  134.9694  159.8273 H   0  0  0  0  0  0  0  0  0  0  0  0  # atno 6909 bound_to 6896
  146.2210  139.8568  142.8612 H   0  0  0  0  0  0  0  0  0  0  0  0  # atno 7974 bound_to 7965
  156.2803  140.2138  156.5640 H   0  0  0  0  0  0  0  0  0  0  0  0  # atno 8008 bound_to 7997
  154.7189  140.0505  157.0644 H   0  0  0  0  0  0  0  0  0  0  0  0  # atno 8009 bound_to 7997
  155.0505  140.3155  155.4697 H   0  0  0  0  0  0  0  0  0  0  0  0  # atno 8010 bound_to 7997
  139.6006  144.7055  151.3071 H   0  0  0  0  0  0  0  0  0  0  0  0  # atno 10167 bound_to 10162
  156.0110  130.5242  150.6536 H   0  0  0  0  0  0  0  0  0  0  0  0  # atno 10718 bound_to 10713
  154.0813  135.6591  153.4838 H   0  0  0  0  0  0  0  0  0  0  0  0  # atno 10763 bound_to 10752
  153.0355  135.5180  154.7471 H   0  0  0  0  0  0  0  0  0  0  0  0  # atno 10764 bound_to 10752
  154.6567  135.3009  154.9887 H   0  0  0  0  0  0  0  0  0  0  0  0  # atno 10765 bound_to 10752
  140.8956  133.7558  156.0477 H   0  0  0  0  0  0  0  0  0  0  0  0  # atno 11005 bound_to 11000
  145.2745  141.0119  143.3753 LP  0  0  0  0  0  0  0  0  0  0  0  0  # atno 17320 bound_to 7965
  144.9198  139.4426  143.6547 LP  0  0  0  0  0  0  0  0  0  0  0  0  # atno 17321 bound_to 7965
  140.7247  143.7038  150.7824 LP  0  0  0  0  0  0  0  0  0  0  0  0  # atno 17342 bound_to 10162
  140.0613  143.5151  152.2626 LP  0  0  0  0  0  0  0  0  0  0  0  0  # atno 17343 bound_to 10162
  157.4293  131.0847  151.1054 LP  0  0  0  0  0  0  0  0  0  0  0  0  # atno 17370 bound_to 10713
  157.1632  130.6235  149.5617 LP  0  0  0  0  0  0  0  0  0  0  0  0  # atno 17371 bound_to 10713
  140.8293  134.3197  157.5354 LP  0  0  0  0  0  0  0  0  0  0  0  0  # atno 17394 bound_to 11000
  139.8735  134.9354  156.3633 LP  0  0  0  0  0  0  0  0  0  0  0  0  # atno 17395 bound_to 11000

$$$$
