AV-unprocessed.smi:3031|AV-procd|sdf|11548|dock7
  -GOLD-   2272016503D 1   1.00000     0.00000
 Structure written by MMmdl.
 47 48  0  0  0  0  0  0  0  0  2 V2000
  151.6131  143.3148  158.6902 C   0  0  0  0  0  0  0  0  0  0  0  0
  151.3493  142.0450  157.9337 C   0  0  0  0  0  0  0  0  0  0  0  0
  151.5243  140.7062  158.3859 C   0  0  0  0  0  0  0  0  0  0  0  0
  151.1934  139.8077  157.4731 N   0  0  0  0  0  0  0  0  0  0  0  0
  150.7927  140.5386  156.4101 N   0  0  0  0  0  0  0  0  0  0  0  0
  150.3447  139.8709  155.2015 C   0  0  0  0  0  0  0  0  0  0  0  0
  148.8397  140.0621  154.8930 C   0  0  1  0  0  0  0  0  0  0  0  0
  148.5643  141.5274  154.5282 C   0  0  0  0  0  0  0  0  0  0  0  0
  148.3853  139.2070  153.7918 N   0  0  0  0  0  0  0  0  0  0  0  0
  147.0696  139.5387  153.2377 C   0  0  0  0  0  0  0  0  0  0  0  0
  146.5079  138.4090  152.3570 C   0  0  1  0  0  0  0  0  0  0  0  0
  147.4186  138.1338  151.3111 O   0  0  0  0  0  0  0  0  0  0  0  0
  146.1828  137.1233  153.1480 C   0  0  0  0  0  0  0  0  0  0  0  0
  146.0618  135.9310  152.2724 N   0  3  0  0  0  0  0  0  0  0  0  0
  145.8782  134.6775  153.0417 C   0  0  0  0  0  0  0  0  0  0  0  0
  145.8183  133.4678  152.0937 C   0  0  0  0  0  0  0  0  0  0  0  0
  144.7710  133.6518  151.1492 O   0  0  0  0  0  0  0  0  0  0  0  0
  144.9768  134.8063  150.3448 C   0  0  0  0  0  0  0  0  0  0  0  0
  145.0069  136.0590  151.2363 C   0  0  0  0  0  0  0  0  0  0  0  0
  150.8862  141.8918  156.6576 C   0  0  0  0  0  0  0  0  0  0  0  0
  152.3027  143.1564  159.5194 H   0  0  0  0  0  0  0  0  0  0  0  0
  150.6960  143.7288  159.1094 H   0  0  0  0  0  0  0  0  0  0  0  0
  152.0511  144.0823  158.0515 H   0  0  0  0  0  0  0  0  0  0  0  0
  151.8781  140.3626  159.3467 H   0  0  0  0  0  0  0  0  0  0  0  0
  150.9409  140.2659  154.3779 H   0  0  0  0  0  0  0  0  0  0  0  0
  150.5862  138.8084  155.2678 H   0  0  0  0  0  0  0  0  0  0  0  0
  148.2593  139.8416  155.7901 H   0  0  0  0  0  0  0  0  0  0  0  0
  148.8539  142.1955  155.3395 H   0  0  0  0  0  0  0  0  0  0  0  0
  147.5040  141.6918  154.3335 H   0  0  0  0  0  0  0  0  0  0  0  0
  149.1172  141.8277  153.6372 H   0  0  0  0  0  0  0  0  0  0  0  0
  149.0731  139.2213  153.0450 H   0  0  0  0  0  0  0  0  0  0  0  0
  146.3527  139.7298  154.0317 H   0  0  0  0  0  0  0  0  0  0  0  0
  147.1307  140.4632  152.6627 H   0  0  0  0  0  0  0  0  0  0  0  0
  145.6017  138.7942  151.8914 H   0  0  0  0  0  0  0  0  0  0  0  0
  148.2061  138.6356  151.4583 H   0  0  0  0  0  0  0  0  0  0  0  0
  146.9711  136.9547  153.8834 H   0  0  0  0  0  0  0  0  0  0  0  0
  145.2601  137.2470  153.7174 H   0  0  0  0  0  0  0  0  0  0  0  0
  146.7020  134.5491  153.7448 H   0  0  0  0  0  0  0  0  0  0  0  0
  144.9607  134.7390  153.6294 H   0  0  0  0  0  0  0  0  0  0  0  0
  146.7699  133.3292  151.5780 H   0  0  0  0  0  0  0  0  0  0  0  0
  145.6275  132.5561  152.6598 H   0  0  0  0  0  0  0  0  0  0  0  0
  145.9038  134.7095  149.7772 H   0  0  0  0  0  0  0  0  0  0  0  0
  144.1659  134.8810  149.6197 H   0  0  0  0  0  0  0  0  0  0  0  0
  144.0364  136.1950  151.7165 H   0  0  0  0  0  0  0  0  0  0  0  0
  145.1809  136.9376  150.6164 H   0  0  0  0  0  0  0  0  0  0  0  0
  150.6105  142.6258  155.9147 H   0  0  0  0  0  0  0  0  0  0  0  0
  146.9462  135.8412  151.7920 H   0  0  0  0  0  0  0  0  0  0  0  0
  1  2  1  0  0  0  0
  1 21  1  0  0  0  0
  1 22  1  0  0  0  0
  1 23  1  0  0  0  0
  2 20  2  0  0  0  0
  2  3  1  0  0  0  0
  3  4  2  0  0  0  0
  3 24  1  0  0  0  0
  4  5  1  0  0  0  0
  5  6  1  0  0  0  0
  5 20  1  0  0  0  0
  6  7  1  0  0  0  0
  6 25  1  0  0  0  0
  6 26  1  0  0  0  0
  7  8  1  0  0  0  0
  7  9  1  0  0  0  0
  7 27  1  0  0  0  0
  8 28  1  0  0  0  0
  8 29  1  0  0  0  0
  8 30  1  0  0  0  0
  9 10  1  0  0  0  0
  9 31  1  0  0  0  0
 10 11  1  0  0  0  0
 10 32  1  0  0  0  0
 10 33  1  0  0  0  0
 11 12  1  0  0  0  0
 11 13  1  0  0  0  0
 11 34  1  0  0  0  0
 12 35  1  0  0  0  0
 13 14  1  0  0  0  0
 13 36  1  0  0  0  0
 13 37  1  0  0  0  0
 14 19  1  0  0  0  0
 14 15  1  0  0  0  0
 14 47  1  0  0  0  0
 15 16  1  0  0  0  0
 15 38  1  0  0  0  0
 15 39  1  0  0  0  0
 16 17  1  0  0  0  0
 16 40  1  0  0  0  0
 16 41  1  0  0  0  0
 17 18  1  0  0  0  0
 18 19  1  0  0  0  0
 18 42  1  0  0  0  0
 18 43  1  0  0  0  0
 19 44  1  0  0  0  0
 19 45  1  0  0  0  0
 20 46  1  0  0  0  0
M  CHG  1  14   1
M  END
> <s_m_source_file>
AV-unprocessed.smi

> <i_m_source_file_index>
3031

> <i_lp_mmshare_version>
43012

> <i_f3d_flags>
0

> <s_epik_input>
W0NIM11jMVtjSF1ubihbY0hdMSlbQ0gyXVtDQEhdKFtDSDNdKVtOSF1bQ0gyXVtDQEhdKFtPSF0pW0NIMl1OMltDSDJdW0NIMl1PW0NIMl1bQ0gyXTI=

> <s_epik_cmdline>
J2VwaWtfcHl0aG9uJywgJy1waCcsICc3LjAnLCAnLXRuJywgJzgnLCAnLW1hJywgJzIwMCcsICctbWV0YWxfYmluZGluZycsICctaW1hZScsICc8aW5maWxlLm1hZT4nLCAnLW9tYWUnLCAnPG91dGZpbGUubWFlPic=

> <r_epik_Ionization_Penalty>
0.467051

> <r_epik_Ionization_Penalty_Charging>
0.202493

> <r_epik_Ionization_Penalty_Neutral>
0.264558

> <r_epik_State_Penalty>
1.34287

> <r_epik_Charging_Adjusted_Penalty>
1.54537

> <i_epik_Tot_Q>
1

> <i_epik_Tot_abs_Q>
1

> <r_epik_Metal_State_Penalty>
1.34281

> <b_epik_Metal_Only>
0

> <s_lp_Force_Field>
OPLS_2005

> <r_lp_Energy>
30.2263

> <b_lp_Chiralities_Consistent>
1

> <s_lp_Variant>
AV-unprocessed.smi:3031-8

> <Gold.Version>
5.8.1

> <Gold.Id.Protein>
6NUR|6NUR_protein|mol2

> <Gold.PLP.Fitness>
53.1539

> <Gold.PLP.PLP>
-39.0282

> <Gold.PLP.part.hbond>
-4.8517

> <Gold.PLP.part.metal>
0.0000

> <Gold.PLP.part.buried>
-0.9004

> <Gold.PLP.part.nonpolar>
-33.6669

> <Gold.PLP.part.repulsive>
0.1196

> <Gold.PLP.ligand.clash>
0.0000

> <Gold.PLP.ligand.torsion>
0.4435

> <Gold.PLP.Chemscore.Hbond>
3.9840

> <Gold.PLP.Chemscore.CHOScore>
0.9857

> <Gold.PLP.Chemscore.Metal>
0.0000

> <Gold.Chemscore.Hbonds>
donor molecule, donor type, donor heavy atom, donor atom, acceptor molecule, acceptor atom, score
      L1  H     9    31       P1  7957  0.72
      L1  H    12    35       P1  7957  1.00
      L1  H    14    47       P1  7948  1.89
      L1  C    20    46       P1  8028  0.52

> <Gold.PLP.Chemscore.Internal.Correction>
0.1037

> <Gold.Rescore>
     Score         DG    S(hbond)    S(metal)    S(lipo)     H(rot)  DE(clash)    DE(int)     intcor
     16.61     -17.90       2.55        0.00      91.51       2.65       0.50       0.79       ----

> <Gold.Chemscore.Fitness>
16.6109

> <Gold.Chemscore.DG>
-17.9017

> <Gold.Chemscore.ZeroCoef>
-5.4800

> <Gold.Chemscore.Hbond>
2.5463

> <Gold.Chemscore.Metal>
0.0000

> <Gold.Chemscore.Lipo>
91.5089

> <Gold.Chemscore.Internal_Hbond>
0.0000

> <Gold.Chemscore.DEClash>
0.5010

> <Gold.Chemscore.DEInternal>
0.7898

> <Gold.Chemscore.Rot>
2.6521

> <Gold.Chemscore.Internal.Correction>
   9.000000E+99

> <Gold.Chemscore.Hbonds>
donor molecule, donor type, donor heavy atom, donor atom, acceptor molecule, acceptor atom, score
      L1  H     9    31       P1  7957  0.69
      L1  H    12    35       P1  7957  0.34
      L1  H    14    47       P1  7948  0.86

> <Gold.Chemscore.Hbond.Weighted>
-8.5045

> <Gold.Chemscore.Metal.Weighted>
-0.0000

> <Gold.Chemscore.Lipo.Weighted>
-10.7065

> <Gold.Chemscore.Internal_Hbond.Weighted>
0.0000

> <Gold.Chemscore.DEClash.Weighted>
0.5010

> <Gold.Chemscore.DEInternal.Weighted>
0.7898

> <Gold.Chemscore.Rot.Weighted>
6.7894

> <Gold.Chemscore.Internal.Correction.Weighted>
   9.000000E+99

> <Gold.Protein.RotatedTorsions>
[ 6907 6896 6895 6894 ] final  137.56 input  -60.11 | X-H torsion
[ 7974 7965 7964 7962 ] final -138.80 input  175.53 | X-H torsion
[ 8008 7997 7996 7995 ] final   24.94 input   59.86 | X-H torsion
[ 10167 10162 10161 10158 ] final   65.28 input  -65.29 | X-H torsion
[ 10718 10713 10712 10709 ] final  -39.24 input   66.30 | X-H torsion
[ 10763 10752 10751 10750 ] final  155.18 input  -60.55 | X-H torsion
[ 11005 11000 10999 10996 ] final -136.15 input  -57.11 | X-H torsion

> <Gold.Protein.ActiveResidues>
 VAL166  LYS551  ARG553  GLY616  TRP617  ASP618  TYR619  PRO620  LYS621  CYS622 
 ASP623  PHE694  ASN695  SER759  ASP760  ASP761  ALA762  ILE779  LEU786  VAL792 
 PHE793  MET794  SER795  GLU796  ALA797  LYS798  CYS799  TRP800  GLU811  SER814 

> <Gold.Protein.RotatedAtoms>
  152.2767  133.5432  159.5472 H   0  0  0  0  0  0  0  0  0  0  0  0  # atno 6907 bound_to 6896
  150.7180  134.0621  159.3844 H   0  0  0  0  0  0  0  0  0  0  0  0  # atno 6908 bound_to 6896
  151.8534  135.0550  160.0512 H   0  0  0  0  0  0  0  0  0  0  0  0  # atno 6909 bound_to 6896
  144.8728  140.6393  143.5256 H   0  0  0  0  0  0  0  0  0  0  0  0  # atno 7974 bound_to 7965
  155.0040  140.3128  155.4856 H   0  0  0  0  0  0  0  0  0  0  0  0  # atno 8008 bound_to 7997
  156.2920  140.2227  156.5092 H   0  0  0  0  0  0  0  0  0  0  0  0  # atno 8009 bound_to 7997
  154.7593  140.0460  157.0948 H   0  0  0  0  0  0  0  0  0  0  0  0  # atno 8010 bound_to 7997
  140.1130  144.4800  150.6966 H   0  0  0  0  0  0  0  0  0  0  0  0  # atno 10167 bound_to 10162
  156.2946  130.4232  149.8203 H   0  0  0  0  0  0  0  0  0  0  0  0  # atno 10718 bound_to 10713
  154.1642  135.2808  155.3100 H   0  0  0  0  0  0  0  0  0  0  0  0  # atno 10763 bound_to 10752
  154.6124  135.5494  153.7491 H   0  0  0  0  0  0  0  0  0  0  0  0  # atno 10764 bound_to 10752
  153.0183  135.6418  154.1783 H   0  0  0  0  0  0  0  0  0  0  0  0  # atno 10765 bound_to 10752
  140.8832  134.1906  157.4577 H   0  0  0  0  0  0  0  0  0  0  0  0  # atno 11005 bound_to 11000
  145.4098  139.1582  143.4132 LP  0  0  0  0  0  0  0  0  0  0  0  0  # atno 17320 bound_to 7965
  146.2942  140.4201  142.8728 LP  0  0  0  0  0  0  0  0  0  0  0  0  # atno 17321 bound_to 7965
  140.6915  143.2378  151.5119 LP  0  0  0  0  0  0  0  0  0  0  0  0  # atno 17342 bound_to 10162
  139.5609  144.2159  152.1689 LP  0  0  0  0  0  0  0  0  0  0  0  0  # atno 17343 bound_to 10162
  156.5604  130.8381  151.3327 LP  0  0  0  0  0  0  0  0  0  0  0  0  # atno 17370 bound_to 10713
  157.7352  130.9758  150.2068 LP  0  0  0  0  0  0  0  0  0  0  0  0  # atno 17371 bound_to 10713
  139.8721  134.9826  156.5164 LP  0  0  0  0  0  0  0  0  0  0  0  0  # atno 17394 bound_to 11000
  140.8437  133.8185  155.9100 LP  0  0  0  0  0  0  0  0  0  0  0  0  # atno 17395 bound_to 11000

$$$$
