AV-unprocessed.smi:657|AV-procd|sdf|3224|dock3
  -GOLD-   22720 0163D 1   1.00000     0.00000
 Structure written by MMmdl.
 46 47  0  0  0  0  0  0  0  0  1 V2000
  151.3476  145.1299  158.6105 C   0  0  0  0  0  0  0  0  0  0  0  0
  150.8396  144.2069  159.7371 C   0  0  0  0  0  0  0  0  0  0  0  0
  150.5106  145.0000  161.0158 C   0  0  0  0  0  0  0  0  0  0  0  0
  151.7438  143.0694  160.0216 N   0  0  0  0  0  0  0  0  0  0  0  0
  153.0215  143.4755  160.6334 C   0  0  0  0  0  0  0  0  0  0  0  0
  153.7887  142.2566  161.1732 C   0  0  0  0  0  0  0  0  0  0  0  0
  154.0762  141.2524  160.0556 C   0  0  0  0  0  0  0  0  0  0  0  0
  152.7608  140.8735  159.3720 C   0  0  0  0  0  0  0  0  0  0  0  0
  152.0024  142.1291  158.8813 C   0  0  1  0  0  0  0  0  0  0  0  0
  150.7454  141.6907  158.1042 C   0  0  0  0  0  0  0  0  0  0  0  0
  149.6326  142.0985  158.4386 O   0  0  0  0  0  0  0  0  0  0  0  0
  150.9448  140.8809  157.0535 N   0  0  0  0  0  0  0  0  0  0  0  0
  149.8974  140.3805  156.1737 C   0  0  0  0  0  0  0  0  0  0  0  0
  149.5075  141.4471  155.1418 C   0  0  0  0  0  0  0  0  0  0  0  0
  148.0562  141.8206  155.2581 C   0  0  0  0  0  0  0  0  0  0  0  0
  146.9195  141.0135  154.9670 C   0  0  0  0  0  0  0  0  0  0  0  0
  145.7743  141.6448  155.1698 N   0  0  0  0  0  0  0  0  0  0  0  0
  146.1383  142.8720  155.5948 N   0  0  0  0  0  0  0  0  0  0  0  0
  145.1184  143.8481  155.9128 C   0  0  0  0  0  0  0  0  0  0  0  0
  147.5085  143.0064  155.6594 C   0  0  0  0  0  0  0  0  0  0  0  0
  150.6039  145.8923  158.3778 H   0  0  0  0  0  0  0  0  0  0  0  0
  151.5405  144.5821  157.6888 H   0  0  0  0  0  0  0  0  0  0  0  0
  152.2628  145.6514  158.8904 H   0  0  0  0  0  0  0  0  0  0  0  0
  149.8734  143.8151  159.4237 H   0  0  0  0  0  0  0  0  0  0  0  0
  149.6802  145.6836  160.8368 H   0  0  0  0  0  0  0  0  0  0  0  0
  151.3467  145.6076  161.3609 H   0  0  0  0  0  0  0  0  0  0  0  0
  150.2139  144.3365  161.8286 H   0  0  0  0  0  0  0  0  0  0  0  0
  153.6413  144.0037  159.9077 H   0  0  0  0  0  0  0  0  0  0  0  0
  152.8639  144.1583  161.4659 H   0  0  0  0  0  0  0  0  0  0  0  0
  154.7260  142.5795  161.6275 H   0  0  0  0  0  0  0  0  0  0  0  0
  153.2100  141.7771  161.9639 H   0  0  0  0  0  0  0  0  0  0  0  0
  154.7606  141.6910  159.3284 H   0  0  0  0  0  0  0  0  0  0  0  0
  154.5658  140.3647  160.4573 H   0  0  0  0  0  0  0  0  0  0  0  0
  152.9682  140.2021  158.5374 H   0  0  0  0  0  0  0  0  0  0  0  0
  152.1429  140.3112  160.0744 H   0  0  0  0  0  0  0  0  0  0  0  0
  152.6527  142.6382  158.1672 H   0  0  0  0  0  0  0  0  0  0  0  0
  151.8916  140.5984  156.8455 H   0  0  0  0  0  0  0  0  0  0  0  0
  150.2599  139.4819  155.6725 H   0  0  0  0  0  0  0  0  0  0  0  0
  149.0182  140.0934  156.7533 H   0  0  0  0  0  0  0  0  0  0  0  0
  150.1385  142.3263  155.2788 H   0  0  0  0  0  0  0  0  0  0  0  0
  149.7266  141.0785  154.1388 H   0  0  0  0  0  0  0  0  0  0  0  0
  146.8935  139.9931  154.6136 H   0  0  0  0  0  0  0  0  0  0  0  0
  145.5816  144.7809  156.2357 H   0  0  0  0  0  0  0  0  0  0  0  0
  144.4833  143.4711  156.7150 H   0  0  0  0  0  0  0  0  0  0  0  0
  144.5067  144.0429  155.0313 H   0  0  0  0  0  0  0  0  0  0  0  0
  147.9769  143.9256  155.9795 H   0  0  0  0  0  0  0  0  0  0  0  0
  1  2  1  0  0  0  0
  1 21  1  0  0  0  0
  1 22  1  0  0  0  0
  1 23  1  0  0  0  0
  2  3  1  0  0  0  0
  2  4  1  0  0  0  0
  2 24  1  0  0  0  0
  3 25  1  0  0  0  0
  3 26  1  0  0  0  0
  3 27  1  0  0  0  0
  4  9  1  0  0  0  0
  4  5  1  0  0  0  0
  5  6  1  0  0  0  0
  5 28  1  0  0  0  0
  5 29  1  0  0  0  0
  6  7  1  0  0  0  0
  6 30  1  0  0  0  0
  6 31  1  0  0  0  0
  7  8  1  0  0  0  0
  7 32  1  0  0  0  0
  7 33  1  0  0  0  0
  8  9  1  0  0  0  0
  8 34  1  0  0  0  0
  8 35  1  0  0  0  0
  9 10  1  0  0  0  0
  9 36  1  0  0  0  0
 10 11  2  0  0  0  0
 10 12  1  0  0  0  0
 12 13  1  0  0  0  0
 12 37  1  0  0  0  0
 13 14  1  0  0  0  0
 13 38  1  0  0  0  0
 13 39  1  0  0  0  0
 14 15  1  0  0  0  0
 14 40  1  0  0  0  0
 14 41  1  0  0  0  0
 15 20  2  0  0  0  0
 15 16  1  0  0  0  0
 16 17  2  0  0  0  0
 16 42  1  0  0  0  0
 17 18  1  0  0  0  0
 18 19  1  0  0  0  0
 18 20  1  0  0  0  0
 19 43  1  0  0  0  0
 19 44  1  0  0  0  0
 19 45  1  0  0  0  0
 20 46  1  0  0  0  0
M  END
> <s_m_source_file>
AV-unprocessed.smi

> <i_m_source_file_index>
657

> <i_lp_mmshare_version>
43012

> <i_f3d_flags>
0

> <s_epik_input>
W0NIM11bQ0hdKFtDSDNdKU4xW0NIMl1bQ0gyXVtDSDJdW0NIMl1bQ0BIXTFDKD1PKVtOSF1bQ0gyXVtDSDJdYzJbY0hdbm4oW0NIM10pW2NIXTI=

> <s_epik_cmdline>
J2VwaWtfcHl0aG9uJywgJy1waCcsICc3LjAnLCAnLXRuJywgJzgnLCAnLW1hJywgJzIwMCcsICctbWV0YWxfYmluZGluZycsICctaW1hZScsICc8aW5maWxlLm1hZT4nLCAnLW9tYWUnLCAnPG91dGZpbGUubWFlPic=

> <r_lp_tautomer_probability>
1

> <r_epik_Ionization_Penalty>
1.91154

> <r_epik_Ionization_Penalty_Charging>
0

> <r_epik_Ionization_Penalty_Neutral>
1.91154

> <r_epik_State_Penalty>
2.0331

> <r_epik_Charging_Adjusted_Penalty>
2.0331

> <i_epik_Tot_Q>
0

> <i_epik_Tot_abs_Q>
0

> <r_epik_Metal_State_Penalty>
2.04973

> <b_epik_Metal_Only>
0

> <s_lp_Force_Field>
OPLS_2005

> <r_lp_Energy>
17.3109

> <b_lp_Chiralities_Consistent>
1

> <s_lp_Variant>
AV-unprocessed.smi:657-5

> <Gold.Version>
5.8.1

> <Gold.Id.Protein>
6NUR|6NUR_protein|mol2

> <Gold.PLP.Fitness>
46.7094

> <Gold.PLP.PLP>
-44.8427

> <Gold.PLP.part.hbond>
0.0000

> <Gold.PLP.part.metal>
0.0000

> <Gold.PLP.part.buried>
-4.4329

> <Gold.PLP.part.nonpolar>
-39.8507

> <Gold.PLP.part.repulsive>
0.2777

> <Gold.PLP.ligand.clash>
0.0000

> <Gold.PLP.ligand.torsion>
0.6223

> <Gold.PLP.Chemscore.Hbond>
0.0000

> <Gold.PLP.Chemscore.CHOScore>
1.0000

> <Gold.PLP.Chemscore.Metal>
0.0000

> <Gold.PLP.Chemscore.Internal.Correction>
0.1113

> <Gold.Rescore>
     Score         DG    S(hbond)    S(metal)    S(lipo)     H(rot)  DE(clash)    DE(int)     intcor
     12.46     -15.41       0.00        0.00     119.29       1.57       0.38       2.56       ----

> <Gold.Chemscore.Fitness>
12.4611

> <Gold.Chemscore.DG>
-15.4082

> <Gold.Chemscore.ZeroCoef>
-5.4800

> <Gold.Chemscore.Hbond>
0.0000

> <Gold.Chemscore.Metal>
0.0000

> <Gold.Chemscore.Lipo>
119.2870

> <Gold.Chemscore.Internal_Hbond>
0.0000

> <Gold.Chemscore.DEClash>
0.3831

> <Gold.Chemscore.DEInternal>
2.5639

> <Gold.Chemscore.Rot>
1.5736

> <Gold.Chemscore.Internal.Correction>
   9.000000E+99

> <Gold.Chemscore.Hbond.Weighted>
-0.0000

> <Gold.Chemscore.Metal.Weighted>
-0.0000

> <Gold.Chemscore.Lipo.Weighted>
-13.9566

> <Gold.Chemscore.Internal_Hbond.Weighted>
0.0000

> <Gold.Chemscore.DEClash.Weighted>
0.3831

> <Gold.Chemscore.DEInternal.Weighted>
2.5639

> <Gold.Chemscore.Rot.Weighted>
4.0284

> <Gold.Chemscore.Internal.Correction.Weighted>
   9.000000E+99

> <Gold.Protein.RotatedTorsions>
[ 6907 6896 6895 6894 ] final   48.40 input  -60.11 | X-H torsion
[ 7974 7965 7964 7962 ] final   58.05 input  175.53 | X-H torsion
[ 8008 7997 7996 7995 ] final   -3.47 input   59.86 | X-H torsion
[ 10167 10162 10161 10158 ] final -142.09 input  -65.29 | X-H torsion
[ 10718 10713 10712 10709 ] final -150.09 input   66.30 | X-H torsion
[ 10763 10752 10751 10750 ] final  139.67 input  -60.55 | X-H torsion
[ 11005 11000 10999 10996 ] final   63.34 input  -57.11 | X-H torsion

> <Gold.Protein.ActiveResidues>
 VAL166  LYS551  ARG553  GLY616  TRP617  ASP618  TYR619  PRO620  LYS621  CYS622 
 ASP623  PHE694  ASN695  SER759  ASP760  ASP761  ALA762  ILE779  LEU786  VAL792 
 PHE793  MET794  SER795  GLU796  ALA797  LYS798  CYS799  TRP800  GLU811  SER814 

> <Gold.Protein.RotatedAtoms>
  152.2791  134.7848  160.0399 H   0  0  0  0  0  0  0  0  0  0  0  0  # atno 6907 bound_to 6896
  151.8434  133.3422  159.3658 H   0  0  0  0  0  0  0  0  0  0  0  0  # atno 6908 bound_to 6896
  150.7182  134.5298  159.5739 H   0  0  0  0  0  0  0  0  0  0  0  0  # atno 6909 bound_to 6896
  145.9224  139.3740  143.0470 H   0  0  0  0  0  0  0  0  0  0  0  0  # atno 7974 bound_to 7965
  154.6246  140.2508  155.7507 H   0  0  0  0  0  0  0  0  0  0  0  0  # atno 8008 bound_to 7997
  156.2446  140.2919  156.0489 H   0  0  0  0  0  0  0  0  0  0  0  0  # atno 8009 bound_to 7997
  155.1842  140.0390  157.2878 H   0  0  0  0  0  0  0  0  0  0  0  0  # atno 8010 bound_to 7997
  139.8121  143.7688  152.2664 H   0  0  0  0  0  0  0  0  0  0  0  0  # atno 10167 bound_to 10162
  156.4417  130.8125  151.2354 H   0  0  0  0  0  0  0  0  0  0  0  0  # atno 10718 bound_to 10713
  153.9100  135.3012  155.3448 H   0  0  0  0  0  0  0  0  0  0  0  0  # atno 10763 bound_to 10752
  154.7628  135.4925  153.9499 H   0  0  0  0  0  0  0  0  0  0  0  0  # atno 10764 bound_to 10752
  153.1198  135.6779  153.9457 H   0  0  0  0  0  0  0  0  0  0  0  0  # atno 10765 bound_to 10752
  140.0031  134.6412  155.9899 H   0  0  0  0  0  0  0  0  0  0  0  0  # atno 11005 bound_to 11000
  145.8532  140.9517  143.0738 LP  0  0  0  0  0  0  0  0  0  0  0  0  # atno 17320 bound_to 7965
  144.6754  140.0434  143.7480 LP  0  0  0  0  0  0  0  0  0  0  0  0  # atno 17321 bound_to 7965
  139.7840  144.7434  151.0048 LP  0  0  0  0  0  0  0  0  0  0  0  0  # atno 17342 bound_to 10162
  140.7817  143.4511  151.0411 LP  0  0  0  0  0  0  0  0  0  0  0  0  # atno 17343 bound_to 10162
  157.7506  131.0166  150.3552 LP  0  0  0  0  0  0  0  0  0  0  0  0  # atno 17370 bound_to 10713
  156.3911  130.3898  149.7029 LP  0  0  0  0  0  0  0  0  0  0  0  0  # atno 17371 bound_to 10713
  141.1657  133.6537  156.4470 LP  0  0  0  0  0  0  0  0  0  0  0  0  # atno 17394 bound_to 11000
  140.4691  134.6770  157.5121 LP  0  0  0  0  0  0  0  0  0  0  0  0  # atno 17395 bound_to 11000

$$$$
