AV-unprocessed.smi:2524|AV-procd|sdf|9923|dock10
  -GOLD-   2272013563D 1   1.00000     0.00000
 Structure written by MMmdl.
 37 38  0  0  0  0  0  0  0  0  2 V2000
  152.1679  145.0062  158.8296 C   0  0  0  0  0  0  0  0  0  0  0  0
  152.2229  143.9991  159.7139 C   0  0  0  0  0  0  0  0  0  0  0  0
  152.9044  142.6707  159.4612 C   0  0  0  0  0  0  0  0  0  0  0  0
  151.8935  141.5275  159.3140 C   0  0  0  0  0  0  0  0  0  0  0  0
  150.6311  141.9279  158.0356 S   0  0  0  0  0  0  0  0  0  0  0  0
  149.3307  142.0970  158.7017 O   0  0  0  0  0  0  0  0  0  0  0  0
  151.1495  142.9933  157.1648 O   0  0  0  0  0  0  0  0  0  0  0  0
  150.5699  140.4776  157.1023 N   0  0  0  0  0  0  0  0  0  0  0  0
  150.9143  140.5331  155.6789 C   0  0  0  0  0  0  0  0  0  0  0  0
  150.3016  139.3734  154.9021 C   0  0  0  0  0  0  0  0  0  0  0  0
  148.9674  139.7373  154.3127 C   0  0  0  0  0  0  0  0  0  0  0  0
  148.5695  141.0885  154.1903 C   0  0  0  0  0  0  0  0  0  0  0  0
  147.3218  141.3968  153.6114 C   0  0  0  0  0  0  0  0  0  0  0  0
  146.5159  140.4017  153.1826 N   0  3  0  0  0  0  0  0  0  0  0  0
  146.8505  139.0974  153.2825 C   0  0  0  0  0  0  0  0  0  0  0  0
  148.0871  138.7322  153.8520 C   0  0  0  0  0  0  0  0  0  0  0  0
  151.2160  138.4719  154.0978 C   0  0  0  0  0  0  0  0  0  0  0  0
  150.5593  137.9488  155.3490 C   0  0  0  0  0  0  0  0  0  0  0  0
  152.6220  144.9228  157.8531 H   0  0  0  0  0  0  0  0  0  0  0  0
  151.6657  145.9309  159.0736 H   0  0  0  0  0  0  0  0  0  0  0  0
  151.7574  144.1218  160.6812 H   0  0  0  0  0  0  0  0  0  0  0  0
  153.5232  142.7390  158.5656 H   0  0  0  0  0  0  0  0  0  0  0  0
  153.5773  142.4670  160.2946 H   0  0  0  0  0  0  0  0  0  0  0  0
  152.3935  140.6045  159.0199 H   0  0  0  0  0  0  0  0  0  0  0  0
  151.3775  141.3424  160.2564 H   0  0  0  0  0  0  0  0  0  0  0  0
  151.0582  139.7146  157.5711 H   0  0  0  0  0  0  0  0  0  0  0  0
  150.5836  141.4794  155.2484 H   0  0  0  0  0  0  0  0  0  0  0  0
  152.0002  140.5054  155.5849 H   0  0  0  0  0  0  0  0  0  0  0  0
  149.2210  141.8822  154.5258 H   0  0  0  0  0  0  0  0  0  0  0  0
  146.9488  142.4015  153.4763 H   0  0  0  0  0  0  0  0  0  0  0  0
  146.1264  138.3908  152.9040 H   0  0  0  0  0  0  0  0  0  0  0  0
  148.3612  137.6899  153.9271 H   0  0  0  0  0  0  0  0  0  0  0  0
  150.8515  138.0868  153.1474 H   0  0  0  0  0  0  0  0  0  0  0  0
  152.2887  138.6492  154.1472 H   0  0  0  0  0  0  0  0  0  0  0  0
  151.2054  137.7905  156.2104 H   0  0  0  0  0  0  0  0  0  0  0  0
  149.7610  137.2196  155.2259 H   0  0  0  0  0  0  0  0  0  0  0  0
  145.6177  140.6452  152.7642 H   0  0  0  0  0  0  0  0  0  0  0  0
  1  2  2  0  0  0  0
  1 19  1  0  0  0  0
  1 20  1  0  0  0  0
  2  3  1  0  0  0  0
  2 21  1  0  0  0  0
  3  4  1  0  0  0  0
  3 22  1  0  0  0  0
  3 23  1  0  0  0  0
  4  5  1  0  0  0  0
  4 24  1  0  0  0  0
  4 25  1  0  0  0  0
  5  6  2  0  0  0  0
  5  7  2  0  0  0  0
  5  8  1  0  0  0  0
  8  9  1  0  0  0  0
  8 26  1  0  0  0  0
  9 10  1  0  0  0  0
  9 27  1  0  0  0  0
  9 28  1  0  0  0  0
 10 18  1  0  0  0  0
 10 11  1  0  0  0  0
 10 17  1  0  0  0  0
 11 16  1  0  0  0  0
 11 12  2  0  0  0  0
 12 13  1  0  0  0  0
 12 29  1  0  0  0  0
 13 14  2  0  0  0  0
 13 30  1  0  0  0  0
 14 15  1  0  0  0  0
 14 37  1  0  0  0  0
 15 16  2  0  0  0  0
 15 31  1  0  0  0  0
 16 32  1  0  0  0  0
 17 18  1  0  0  0  0
 17 33  1  0  0  0  0
 17 34  1  0  0  0  0
 18 35  1  0  0  0  0
 18 36  1  0  0  0  0
M  CHG  1  14   1
M  END
> <s_m_source_file>
AV-unprocessed.smi

> <i_m_source_file_index>
2524

> <i_lp_mmshare_version>
43012

> <i_f3d_flags>
0

> <s_epik_input>
W0NIMl09W0NIXVtDSDJdW0NIMl1TKD1PKSg9TylbTkhdW0NIMl1DMShbQ0gyXVtDSDJdMSljMltjSF1bY0hdbltjSF1bY0hdMg==

> <s_epik_cmdline>
J2VwaWtfcHl0aG9uJywgJy1waCcsICc3LjAnLCAnLXRuJywgJzgnLCAnLW1hJywgJzIwMCcsICctbWV0YWxfYmluZGluZycsICctaW1hZScsICc8aW5maWxlLm1hZT4nLCAnLW9tYWUnLCAnPG91dGZpbGUubWFlPic=

> <r_epik_Ionization_Penalty>
1.70311

> <r_epik_Ionization_Penalty_Charging>
1.7031

> <r_epik_Ionization_Penalty_Neutral>
1.31612e-05

> <r_epik_State_Penalty>
1.80925

> <r_epik_Charging_Adjusted_Penalty>
3.51235

> <i_epik_Tot_Q>
1

> <i_epik_Tot_abs_Q>
1

> <r_epik_Metal_State_Penalty>
1.86078

> <b_epik_Metal_Only>
0

> <s_lp_Force_Field>
OPLS_2005

> <r_lp_Energy>
15.9515

> <b_lp_Chiralities_Consistent>
1

> <s_lp_Variant>
AV-unprocessed.smi:2524-2

> <Gold.Version>
5.8.1

> <Gold.Id.Protein>
6NUR|6NUR_protein|mol2

> <Gold.PLP.Fitness>
44.4165

> <Gold.PLP.PLP>
-39.8615

> <Gold.PLP.part.hbond>
-1.6563

> <Gold.PLP.part.metal>
0.0000

> <Gold.PLP.part.buried>
-4.3737

> <Gold.PLP.part.nonpolar>
-33.7602

> <Gold.PLP.part.repulsive>
0.2311

> <Gold.PLP.ligand.clash>
0.0000

> <Gold.PLP.ligand.torsion>
1.5089

> <Gold.PLP.Chemscore.Hbond>
2.0000

> <Gold.PLP.Chemscore.CHOScore>
0.0000

> <Gold.PLP.Chemscore.Metal>
0.0000

> <Gold.Chemscore.Hbonds>
donor molecule, donor type, donor heavy atom, donor atom, acceptor molecule, acceptor atom, score
      L1  H    14    37       P1 10175  2.00

> <Gold.PLP.Chemscore.Internal.Correction>
1.5728

> <Gold.Rescore>
     Score         DG    S(hbond)    S(metal)    S(lipo)     H(rot)  DE(clash)    DE(int)     intcor
     14.64     -16.08       0.99        0.00     105.43       1.97       0.10       1.34       ----

> <Gold.Chemscore.Fitness>
14.6419

> <Gold.Chemscore.DG>
-16.0775

> <Gold.Chemscore.ZeroCoef>
-5.4800

> <Gold.Chemscore.Hbond>
0.9930

> <Gold.Chemscore.Metal>
0.0000

> <Gold.Chemscore.Lipo>
105.4320

> <Gold.Chemscore.Internal_Hbond>
0.0000

> <Gold.Chemscore.DEClash>
0.0993

> <Gold.Chemscore.DEInternal>
1.3363

> <Gold.Chemscore.Rot>
1.9744

> <Gold.Chemscore.Internal.Correction>
   9.000000E+99

> <Gold.Chemscore.Hbonds>
donor molecule, donor type, donor heavy atom, donor atom, acceptor molecule, acceptor atom, score
      L1  H    14    37       P1 10175  0.54

> <Gold.Chemscore.Hbond.Weighted>
-3.3165

> <Gold.Chemscore.Metal.Weighted>
-0.0000

> <Gold.Chemscore.Lipo.Weighted>
-12.3355

> <Gold.Chemscore.Internal_Hbond.Weighted>
0.0000

> <Gold.Chemscore.DEClash.Weighted>
0.0993

> <Gold.Chemscore.DEInternal.Weighted>
1.3363

> <Gold.Chemscore.Rot.Weighted>
5.0546

> <Gold.Chemscore.Internal.Correction.Weighted>
   9.000000E+99

> <Gold.Protein.RotatedTorsions>
[ 6907 6896 6895 6894 ] final   -5.71 input  -60.11 | X-H torsion
[ 7974 7965 7964 7962 ] final   89.36 input  175.53 | X-H torsion
[ 8008 7997 7996 7995 ] final  129.31 input   59.86 | X-H torsion
[ 10167 10162 10161 10158 ] final   22.92 input  -65.29 | X-H torsion
[ 10718 10713 10712 10709 ] final  118.23 input   66.30 | X-H torsion
[ 10763 10752 10751 10750 ] final -130.03 input  -60.55 | X-H torsion
[ 11005 11000 10999 10996 ] final  -85.75 input  -57.11 | X-H torsion

> <Gold.Protein.ActiveResidues>
 VAL166  LYS551  ARG553  GLY616  TRP617  ASP618  TYR619  PRO620  LYS621  CYS622 
 ASP623  PHE694  ASN695  SER759  ASP760  ASP761  ALA762  ILE779  LEU786  VAL792 
 PHE793  MET794  SER795  GLU796  ALA797  LYS798  CYS799  TRP800  GLU811  SER814 

> <Gold.Protein.RotatedAtoms>
  151.4773  135.1050  159.9767 H   0  0  0  0  0  0  0  0  0  0  0  0  # atno 6907 bound_to 6896
  152.4793  133.8211  159.7064 H   0  0  0  0  0  0  0  0  0  0  0  0  # atno 6908 bound_to 6896
  150.8853  133.7255  159.2946 H   0  0  0  0  0  0  0  0  0  0  0  0  # atno 6909 bound_to 6896
  145.5334  139.2284  143.2606 H   0  0  0  0  0  0  0  0  0  0  0  0  # atno 7974 bound_to 7965
  156.2933  140.2623  156.2578 H   0  0  0  0  0  0  0  0  0  0  0  0  # atno 8008 bound_to 7997
  154.9818  140.0389  157.2299 H   0  0  0  0  0  0  0  0  0  0  0  0  # atno 8009 bound_to 7997
  154.7765  140.2787  155.6102 H   0  0  0  0  0  0  0  0  0  0  0  0  # atno 8010 bound_to 7997
  140.5310  143.9841  150.6466 H   0  0  0  0  0  0  0  0  0  0  0  0  # atno 10167 bound_to 10162
  157.6044  131.1046  150.7727 H   0  0  0  0  0  0  0  0  0  0  0  0  # atno 10718 bound_to 10713
  154.8756  135.3876  154.4016 H   0  0  0  0  0  0  0  0  0  0  0  0  # atno 10763 bound_to 10752
  153.4740  135.7030  153.5982 H   0  0  0  0  0  0  0  0  0  0  0  0  # atno 10764 bound_to 10752
  153.4427  135.3852  155.2205 H   0  0  0  0  0  0  0  0  0  0  0  0  # atno 10765 bound_to 10752
  141.1638  133.7416  156.9061 H   0  0  0  0  0  0  0  0  0  0  0  0  # atno 11005 bound_to 11000
  146.2029  140.6151  142.9094 LP  0  0  0  0  0  0  0  0  0  0  0  0  # atno 17320 bound_to 7965
  144.7614  140.5430  143.6733 LP  0  0  0  0  0  0  0  0  0  0  0  0  # atno 17321 bound_to 7965
  140.3216  143.3133  152.0778 LP  0  0  0  0  0  0  0  0  0  0  0  0  # atno 17342 bound_to 10162
  139.4954  144.6570  151.6551 LP  0  0  0  0  0  0  0  0  0  0  0  0  # atno 17343 bound_to 10162
  156.8118  130.4955  149.5355 LP  0  0  0  0  0  0  0  0  0  0  0  0  # atno 17370 bound_to 10713
  156.1126  130.6051  151.0071 LP  0  0  0  0  0  0  0  0  0  0  0  0  # atno 17371 bound_to 10713
  140.1549  134.9205  157.2640 LP  0  0  0  0  0  0  0  0  0  0  0  0  # atno 17394 bound_to 11000
  140.2679  134.3494  155.7383 LP  0  0  0  0  0  0  0  0  0  0  0  0  # atno 17395 bound_to 11000

$$$$
