AV-unprocessed.smi:1369|AV-procd|sdf|5579|dock4
  -GOLD-   22720 5173D 1   1.00000     0.00000
 Structure written by MMmdl.
 39 41  0  0  0  0  0  0  0  0  1 V2000
  152.0000  138.5285  155.0051 C   0  0  0  0  0  0  0  0  0  0  0  0
  151.6526  139.8302  155.7191 C   0  0  0  0  0  0  0  0  0  0  0  0
  150.8954  140.6338  155.1765 O   0  0  0  0  0  0  0  0  0  0  0  0
  152.2419  140.0113  156.9149 N   0  0  0  0  0  0  0  0  0  0  0  0
  152.1170  141.1087  157.8131 C   0  0  0  0  0  0  0  0  0  0  0  0
  151.2439  142.1980  157.5734 C   0  0  0  0  0  0  0  0  0  0  0  0
  151.1401  143.2454  158.5061 C   0  0  0  0  0  0  0  0  0  0  0  0
  151.8976  143.2092  159.6891 C   0  0  0  0  0  0  0  0  0  0  0  0
  152.7546  142.1228  159.9437 C   0  0  0  0  0  0  0  0  0  0  0  0
  152.8688  141.0600  159.0118 C   0  0  0  0  0  0  0  0  0  0  0  0
  153.6889  139.9666  159.2021 O   0  0  0  0  0  0  0  0  0  0  0  0
  154.5299  139.9359  160.3473 C   0  0  0  0  0  0  0  0  0  0  0  0
  155.3018  138.6096  160.3538 C   0  0  0  0  0  0  0  0  0  0  0  0
  154.9450  137.7935  161.5110 N   0  0  0  0  0  0  0  0  0  0  0  0
  154.5101  136.4666  161.4602 C   0  0  0  0  0  0  0  0  0  0  0  0
  154.3357  135.7623  160.4674 O   0  0  0  0  0  0  0  0  0  0  0  0
  154.3089  136.0665  162.7561 O   0  0  0  0  0  0  0  0  0  0  0  0
  154.6156  137.1012  163.5907 C   0  0  0  0  0  0  0  0  0  0  0  0
  154.5710  137.1560  164.9938 C   0  0  0  0  0  0  0  0  0  0  0  0
  154.9514  138.3682  165.6161 C   0  0  0  0  0  0  0  0  0  0  0  0
  155.3633  139.4828  164.8417 C   0  0  0  0  0  0  0  0  0  0  0  0
  155.4059  139.4055  163.4308 C   0  0  0  0  0  0  0  0  0  0  0  0
  155.0170  138.1888  162.8444 C   0  0  0  0  0  0  0  0  0  0  0  0
  151.8700  137.6769  155.6735 H   0  0  0  0  0  0  0  0  0  0  0  0
  153.0354  138.5496  154.6652 H   0  0  0  0  0  0  0  0  0  0  0  0
  151.3584  138.3791  154.1361 H   0  0  0  0  0  0  0  0  0  0  0  0
  152.9175  139.3109  157.1849 H   0  0  0  0  0  0  0  0  0  0  0  0
  150.6313  142.2445  156.6864 H   0  0  0  0  0  0  0  0  0  0  0  0
  150.4741  144.0741  158.3159 H   0  0  0  0  0  0  0  0  0  0  0  0
  151.8176  144.0131  160.4060 H   0  0  0  0  0  0  0  0  0  0  0  0
  153.3164  142.1299  160.8651 H   0  0  0  0  0  0  0  0  0  0  0  0
  155.2375  140.7653  160.3112 H   0  0  0  0  0  0  0  0  0  0  0  0
  153.9429  140.0315  161.2624 H   0  0  0  0  0  0  0  0  0  0  0  0
  155.1115  138.0579  159.4330 H   0  0  0  0  0  0  0  0  0  0  0  0
  156.3744  138.8079  160.3724 H   0  0  0  0  0  0  0  0  0  0  0  0
  154.2573  136.3025  165.5765 H   0  0  0  0  0  0  0  0  0  0  0  0
  154.9284  138.4455  166.6932 H   0  0  0  0  0  0  0  0  0  0  0  0
  155.6503  140.3996  165.3355 H   0  0  0  0  0  0  0  0  0  0  0  0
  155.7246  140.2475  162.8341 H   0  0  0  0  0  0  0  0  0  0  0  0
  1  2  1  0  0  0  0
  1 24  1  0  0  0  0
  1 25  1  0  0  0  0
  1 26  1  0  0  0  0
  2  3  2  0  0  0  0
  2  4  1  0  0  0  0
  4  5  1  0  0  0  0
  4 27  1  0  0  0  0
  5 10  1  0  0  0  0
  5  6  2  0  0  0  0
  6  7  1  0  0  0  0
  6 28  1  0  0  0  0
  7  8  2  0  0  0  0
  7 29  1  0  0  0  0
  8  9  1  0  0  0  0
  8 30  1  0  0  0  0
  9 10  2  0  0  0  0
  9 31  1  0  0  0  0
 10 11  1  0  0  0  0
 11 12  1  0  0  0  0
 12 13  1  0  0  0  0
 12 32  1  0  0  0  0
 12 33  1  0  0  0  0
 13 14  1  0  0  0  0
 13 34  1  0  0  0  0
 13 35  1  0  0  0  0
 14 23  1  0  0  0  0
 14 15  1  0  0  0  0
 15 16  2  0  0  0  0
 15 17  1  0  0  0  0
 17 18  1  0  0  0  0
 18 23  2  0  0  0  0
 18 19  1  0  0  0  0
 19 20  2  0  0  0  0
 19 36  1  0  0  0  0
 20 21  1  0  0  0  0
 20 37  1  0  0  0  0
 21 22  2  0  0  0  0
 21 38  1  0  0  0  0
 22 23  1  0  0  0  0
 22 39  1  0  0  0  0
M  END
> <s_m_source_file>
AV-unprocessed.smi

> <i_m_source_file_index>
1369

> <i_lp_mmshare_version>
43012

> <i_f3d_flags>
0

> <s_epik_input>
W0NIM11DKD1PKVtOSF1jMVtjSF1bY0hdW2NIXVtjSF1jMU9bQ0gyXVtDSDJdbihjKD1PKW8yKWMoYzIzKVtjSF1bY0hdW2NIXVtjSF0z

> <s_epik_cmdline>
J2VwaWtfcHl0aG9uJywgJy1waCcsICc3LjAnLCAnLXRuJywgJzgnLCAnLW1hJywgJzIwMCcsICctbWV0YWxfYmluZGluZycsICctaW1hZScsICc8aW5maWxlLm1hZT4nLCAnLW9tYWUnLCAnPG91dGZpbGUubWFlPic=

> <r_lp_tautomer_probability>
1

> <r_epik_Ionization_Penalty>
9.24277e-08

> <r_epik_Ionization_Penalty_Charging>
1.02615e-14

> <r_epik_Ionization_Penalty_Neutral>
9.24277e-08

> <r_epik_State_Penalty>
-0

> <r_epik_Charging_Adjusted_Penalty>
1.02615e-14

> <i_epik_Tot_Q>
0

> <i_epik_Tot_abs_Q>
0

> <r_epik_Metal_State_Penalty>
-0

> <b_epik_Metal_Only>
0

> <s_lp_Force_Field>
OPLS_2005

> <r_lp_Energy>
36.4772

> <b_lp_Chiralities_Consistent>
1

> <s_lp_Variant>
AV-unprocessed.smi:1369-1

> <Gold.Version>
5.8.1

> <Gold.Id.Protein>
6NUR|6NUR_protein|mol2

> <Gold.PLP.Fitness>
48.4376

> <Gold.PLP.PLP>
-42.0099

> <Gold.PLP.part.hbond>
-3.0000

> <Gold.PLP.part.metal>
0.0000

> <Gold.PLP.part.buried>
-5.0028

> <Gold.PLP.part.nonpolar>
-33.2821

> <Gold.PLP.part.repulsive>
0.2126

> <Gold.PLP.ligand.clash>
0.0000

> <Gold.PLP.ligand.torsion>
0.4250

> <Gold.PLP.Chemscore.Hbond>
2.4092

> <Gold.PLP.Chemscore.CHOScore>
0.0000

> <Gold.PLP.Chemscore.Metal>
0.0000

> <Gold.Chemscore.Hbonds>
donor molecule, donor type, donor heavy atom, donor atom, acceptor molecule, acceptor atom, score
      P1  H  6896  6907       L1    16  0.52
      P1  H  7989  7998       L1     3  0.93
      P1  H  7997  8010       L1    11  0.34

> <Gold.PLP.Chemscore.Internal.Correction>
0.0501

> <Gold.Rescore>
     Score         DG    S(hbond)    S(metal)    S(lipo)     H(rot)  DE(clash)    DE(int)     intcor
     16.62     -18.63       1.07        0.00     119.20       1.70       0.18       1.83       ----

> <Gold.Chemscore.Fitness>
16.6172

> <Gold.Chemscore.DG>
-18.6328

> <Gold.Chemscore.ZeroCoef>
-5.4800

> <Gold.Chemscore.Hbond>
1.0669

> <Gold.Chemscore.Metal>
0.0000

> <Gold.Chemscore.Lipo>
119.1984

> <Gold.Chemscore.Internal_Hbond>
0.0000

> <Gold.Chemscore.DEClash>
0.1841

> <Gold.Chemscore.DEInternal>
1.8316

> <Gold.Chemscore.Rot>
1.7019

> <Gold.Chemscore.Internal.Correction>
   9.000000E+99

> <Gold.Chemscore.Hbonds>
donor molecule, donor type, donor heavy atom, donor atom, acceptor molecule, acceptor atom, score
      P1  H  6896  6907       L1    16  0.52
      P1  H  7989  7998       L1     3  0.40
      P1  H  7997  8010       L1    11  0.06

> <Gold.Chemscore.Hbond.Weighted>
-3.5635

> <Gold.Chemscore.Metal.Weighted>
-0.0000

> <Gold.Chemscore.Lipo.Weighted>
-13.9462

> <Gold.Chemscore.Internal_Hbond.Weighted>
0.0000

> <Gold.Chemscore.DEClash.Weighted>
0.1841

> <Gold.Chemscore.DEInternal.Weighted>
1.8316

> <Gold.Chemscore.Rot.Weighted>
4.3569

> <Gold.Chemscore.Internal.Correction.Weighted>
   9.000000E+99

> <Gold.Protein.RotatedTorsions>
[ 6907 6896 6895 6894 ] final   56.73 input  -60.11 | X-H torsion
[ 7974 7965 7964 7962 ] final  -25.94 input  175.53 | X-H torsion
[ 8008 7997 7996 7995 ] final   19.25 input   59.86 | X-H torsion
[ 10167 10162 10161 10158 ] final   -7.06 input  -65.29 | X-H torsion
[ 10718 10713 10712 10709 ] final -104.79 input   66.30 | X-H torsion
[ 10763 10752 10751 10750 ] final  -19.14 input  -60.55 | X-H torsion
[ 11005 11000 10999 10996 ] final -101.26 input  -57.11 | X-H torsion

> <Gold.Protein.ActiveResidues>
 VAL166  LYS551  ARG553  GLY616  TRP617  ASP618  TYR619  PRO620  LYS621  CYS622 
 ASP623  PHE694  ASN695  SER759  ASP760  ASP761  ALA762  ILE779  LEU786  VAL792 
 PHE793  MET794  SER795  GLU796  ALA797  LYS798  CYS799  TRP800  GLU811  SER814 

> <Gold.Protein.RotatedAtoms>
  152.3664  134.6798  160.0190 H   0  0  0  0  0  0  0  0  0  0  0  0  # atno 6907 bound_to 6896
  151.7105  133.3307  159.3297 H   0  0  0  0  0  0  0  0  0  0  0  0  # atno 6908 bound_to 6896
  150.7641  134.6471  159.6312 H   0  0  0  0  0  0  0  0  0  0  0  0  # atno 6909 bound_to 6896
  146.1458  140.4953  142.8632 H   0  0  0  0  0  0  0  0  0  0  0  0  # atno 7974 bound_to 7965
  154.9179  140.3023  155.5231 H   0  0  0  0  0  0  0  0  0  0  0  0  # atno 8008 bound_to 7997
  156.3011  140.2377  156.4162 H   0  0  0  0  0  0  0  0  0  0  0  0  # atno 8009 bound_to 7997
  154.8360  140.0416  157.1498 H   0  0  0  0  0  0  0  0  0  0  0  0  # atno 8010 bound_to 7997
  140.7017  143.6124  150.8691 H   0  0  0  0  0  0  0  0  0  0  0  0  # atno 10167 bound_to 10162
  156.0319  130.5532  150.7447 H   0  0  0  0  0  0  0  0  0  0  0  0  # atno 10718 bound_to 10713
  153.6002  135.6999  153.5387 H   0  0  0  0  0  0  0  0  0  0  0  0  # atno 10763 bound_to 10752
  153.3103  135.4103  155.1330 H   0  0  0  0  0  0  0  0  0  0  0  0  # atno 10764 bound_to 10752
  154.8584  135.3670  154.5537 H   0  0  0  0  0  0  0  0  0  0  0  0  # atno 10765 bound_to 10752
  141.1238  133.8463  157.1208 H   0  0  0  0  0  0  0  0  0  0  0  0  # atno 11005 bound_to 11000
  144.7845  140.5908  143.6583 LP  0  0  0  0  0  0  0  0  0  0  0  0  # atno 17320 bound_to 7965
  145.4940  139.1487  143.3694 LP  0  0  0  0  0  0  0  0  0  0  0  0  # atno 17321 bound_to 7965
  139.9846  143.5913  152.2931 LP  0  0  0  0  0  0  0  0  0  0  0  0  # atno 17342 bound_to 10162
  139.6546  144.7662  151.2080 LP  0  0  0  0  0  0  0  0  0  0  0  0  # atno 17343 bound_to 10162
  157.5007  131.0918  151.0318 LP  0  0  0  0  0  0  0  0  0  0  0  0  # atno 17370 bound_to 10713
  157.0700  130.5860  149.5401 LP  0  0  0  0  0  0  0  0  0  0  0  0  # atno 17371 bound_to 10713
  140.0218  134.9942  157.0607 LP  0  0  0  0  0  0  0  0  0  0  0  0  # atno 17394 bound_to 11000
  140.4427  134.1664  155.7175 LP  0  0  0  0  0  0  0  0  0  0  0  0  # atno 17395 bound_to 11000

$$$$
