AV-unprocessed.smi:470|AV-procd|sdf|2657|dock2
  -GOLD-   2262023 73D 1   1.00000     0.00000
 Structure written by MMmdl.
 32 33  0  0  0  0  0  0  0  0  2 V2000
  149.9413  138.3627  153.3807 N   0  0  0  0  0  0  0  0  0  0  0  0
  150.8182  138.5308  154.3749 C   0  0  0  0  0  0  0  0  0  0  0  0
  151.1989  139.6437  154.7327 O   0  0  0  0  0  0  0  0  0  0  0  0
  151.3337  137.2718  155.0769 C   0  0  0  0  0  0  0  0  0  0  0  0
  150.2329  136.6175  155.8606 C   0  0  0  0  0  0  0  0  0  0  0  0
  149.1013  136.0268  155.3608 C   0  0  0  0  0  0  0  0  0  0  0  0
  148.0861  135.4050  156.6298 S   0  0  0  0  0  0  0  0  0  0  0  0
  149.2402  135.9931  157.8281 C   0  0  0  0  0  0  0  0  0  0  0  0
  149.1092  135.8571  159.1590 N   0  5  0  0  0  0  0  0  0  0  0  0
  148.0152  135.3307  159.7804 C   0  0  0  0  0  0  0  0  0  0  0  0
  147.4005  134.3436  159.3812 O   0  0  0  0  0  0  0  0  0  0  0  0
  147.5240  136.0430  161.0769 C   0  0  1  0  0  0  0  0  0  0  0  0
  146.0849  136.5969  160.9253 C   0  0  0  0  0  0  0  0  0  0  0  0
  145.0072  135.5644  161.2046 C   0  0  0  0  0  0  0  0  0  0  0  0
  145.2281  134.4200  161.8717 C   0  0  0  0  0  0  0  0  0  0  0  0
  146.5831  134.0142  162.4203 C   0  0  0  0  0  0  0  0  0  0  0  0
  147.6258  135.1517  162.3412 C   0  0  0  0  0  0  0  0  0  0  0  0
  150.3049  136.5659  157.2555 N   0  0  0  0  0  0  0  0  0  0  0  0
  149.5910  139.1644  152.8773 H   0  0  0  0  0  0  0  0  0  0  0  0
  149.6480  137.4308  153.1239 H   0  0  0  0  0  0  0  0  0  0  0  0
  151.7345  136.5815  154.3337 H   0  0  0  0  0  0  0  0  0  0  0  0
  152.1672  137.5422  155.7265 H   0  0  0  0  0  0  0  0  0  0  0  0
  148.8027  135.9236  154.3284 H   0  0  0  0  0  0  0  0  0  0  0  0
  148.1777  136.8867  161.2923 H   0  0  0  0  0  0  0  0  0  0  0  0
  145.9342  137.4362  161.6045 H   0  0  0  0  0  0  0  0  0  0  0  0
  145.9252  136.9857  159.9198 H   0  0  0  0  0  0  0  0  0  0  0  0
  144.0116  135.7972  160.8563 H   0  0  0  0  0  0  0  0  0  0  0  0
  144.4140  133.7286  162.0315 H   0  0  0  0  0  0  0  0  0  0  0  0
  146.4668  133.6942  163.4559 H   0  0  0  0  0  0  0  0  0  0  0  0
  146.9235  133.1388  161.8674 H   0  0  0  0  0  0  0  0  0  0  0  0
  148.6303  134.7367  162.4346 H   0  0  0  0  0  0  0  0  0  0  0  0
  147.4943  135.7943  163.2125 H   0  0  0  0  0  0  0  0  0  0  0  0
  1  2  1  0  0  0  0
  1 19  1  0  0  0  0
  1 20  1  0  0  0  0
  2  3  2  0  0  0  0
  2  4  1  0  0  0  0
  4  5  1  0  0  0  0
  4 21  1  0  0  0  0
  4 22  1  0  0  0  0
  5 18  1  0  0  0  0
  5  6  2  0  0  0  0
  6  7  1  0  0  0  0
  6 23  1  0  0  0  0
  7  8  1  0  0  0  0
  8  9  1  0  0  0  0
  8 18  2  0  0  0  0
  9 10  1  0  0  0  0
 10 11  2  0  0  0  0
 10 12  1  0  0  0  0
 12 17  1  0  0  0  0
 12 13  1  0  0  0  0
 12 24  1  0  0  0  0
 13 14  1  0  0  0  0
 13 25  1  0  0  0  0
 13 26  1  0  0  0  0
 14 15  2  0  0  0  0
 14 27  1  0  0  0  0
 15 16  1  0  0  0  0
 15 28  1  0  0  0  0
 16 17  1  0  0  0  0
 16 29  1  0  0  0  0
 16 30  1  0  0  0  0
 17 31  1  0  0  0  0
 17 32  1  0  0  0  0
M  CHG  1   9  -1
M  END
> <s_m_source_file>
AV-unprocessed.smi

> <i_m_source_file_index>
470

> <i_lp_mmshare_version>
43012

> <i_f3d_flags>
0

> <s_epik_input>
W05IMl1DKD1PKVtDSDJdYzFbY0hdc2MobjEpW05IXUMoPU8pW0NAQEhdMltDSDJdW0NIXT1bQ0hdW0NIMl1bQ0gyXTI=

> <s_epik_cmdline>
J2VwaWtfcHl0aG9uJywgJy1waCcsICc3LjAnLCAnLXRuJywgJzgnLCAnLW1hJywgJzIwMCcsICctbWV0YWxfYmluZGluZycsICctaW1hZScsICc8aW5maWxlLm1hZT4nLCAnLW9tYWUnLCAnPG91dGZpbGUubWFlPic=

> <r_lp_tautomer_probability>
1

> <r_epik_Ionization_Penalty>
4.98985

> <r_epik_Ionization_Penalty_Charging>
4.63309

> <r_epik_Ionization_Penalty_Neutral>
0.356756

> <r_epik_State_Penalty>
4.63286

> <r_epik_Charging_Adjusted_Penalty>
9.26595

> <i_epik_Tot_Q>
-1

> <i_epik_Tot_abs_Q>
1

> <r_epik_Metal_State_Penalty>
0.88943

> <b_epik_Metal_Only>
1

> <s_lp_Force_Field>
OPLS_2005

> <r_lp_Energy>
8.68361

> <b_lp_Chiralities_Consistent>
1

> <s_lp_Variant>
AV-unprocessed.smi:470-4

> <Gold.Version>
5.8.1

> <Gold.Id.Protein>
6NUR|6NUR_protein|mol2

> <Gold.PLP.Fitness>
44.7807

> <Gold.PLP.PLP>
-28.3117

> <Gold.PLP.part.hbond>
-4.0000

> <Gold.PLP.part.metal>
0.0000

> <Gold.PLP.part.buried>
-5.4203

> <Gold.PLP.part.nonpolar>
-19.4456

> <Gold.PLP.part.repulsive>
0.1521

> <Gold.PLP.ligand.clash>
0.0000

> <Gold.PLP.ligand.torsion>
0.4544

> <Gold.PLP.Chemscore.Hbond>
4.7600

> <Gold.PLP.Chemscore.CHOScore>
1.0000

> <Gold.PLP.Chemscore.Metal>
0.0000

> <Gold.Chemscore.Hbonds>
donor molecule, donor type, donor heavy atom, donor atom, acceptor molecule, acceptor atom, score
      L1  H     1    19       P1  7957  0.85
      L1  H     1    20       P1  7948  0.99
      P1  H  6896  6907       L1     9  1.89
      P1  H  7989  7998       L1     3  1.00
      L1  C     6    23       P1  7948  1.00

> <Gold.PLP.Chemscore.Internal.Correction>
0.0978

> <Gold.Rescore>
     Score         DG    S(hbond)    S(metal)    S(lipo)     H(rot)  DE(clash)    DE(int)     intcor
     17.57     -18.21       3.29        0.00      55.91       1.87       0.00       0.64       ----

> <Gold.Chemscore.Fitness>
17.5719

> <Gold.Chemscore.DG>
-18.2109

> <Gold.Chemscore.ZeroCoef>
-5.4800

> <Gold.Chemscore.Hbond>
3.2854

> <Gold.Chemscore.Metal>
0.0000

> <Gold.Chemscore.Lipo>
55.9145

> <Gold.Chemscore.Internal_Hbond>
0.0000

> <Gold.Chemscore.DEClash>
0.0038

> <Gold.Chemscore.DEInternal>
0.6352

> <Gold.Chemscore.Rot>
1.8689

> <Gold.Chemscore.Internal.Correction>
   9.000000E+99

> <Gold.Chemscore.Hbonds>
donor molecule, donor type, donor heavy atom, donor atom, acceptor molecule, acceptor atom, score
      L1  H     1    19       P1  7957  0.82
      L1  H     1    20       P1  7948  0.66
      P1  H  6896  6907       L1     9  0.13
      P1  H  7989  7998       L1     3  0.97

> <Gold.Chemscore.Hbond.Weighted>
-10.9734

> <Gold.Chemscore.Metal.Weighted>
-0.0000

> <Gold.Chemscore.Lipo.Weighted>
-6.5420

> <Gold.Chemscore.Internal_Hbond.Weighted>
0.0000

> <Gold.Chemscore.DEClash.Weighted>
0.0038

> <Gold.Chemscore.DEInternal.Weighted>
0.6352

> <Gold.Chemscore.Rot.Weighted>
4.7844

> <Gold.Chemscore.Internal.Correction.Weighted>
   9.000000E+99

> <Gold.Protein.RotatedTorsions>
[ 6907 6896 6895 6894 ] final  -71.07 input  -60.11 | X-H torsion
[ 7974 7965 7964 7962 ] final   91.41 input  175.53 | X-H torsion
[ 8008 7997 7996 7995 ] final -109.10 input   59.86 | X-H torsion
[ 10167 10162 10161 10158 ] final    8.92 input  -65.29 | X-H torsion
[ 10718 10713 10712 10709 ] final   15.11 input   66.30 | X-H torsion
[ 10763 10752 10751 10750 ] final   59.55 input  -60.55 | X-H torsion
[ 11005 11000 10999 10996 ] final  148.23 input  -57.11 | X-H torsion

> <Gold.Protein.ActiveResidues>
 VAL166  LYS551  ARG553  GLY616  TRP617  ASP618  TYR619  PRO620  LYS621  CYS622 
 ASP623  PHE694  ASN695  SER759  ASP760  ASP761  ALA762  ILE779  LEU786  VAL792 
 PHE793  MET794  SER795  GLU796  ALA797  LYS798  CYS799  TRP800  GLU811  SER814 

> <Gold.Protein.RotatedAtoms>
  150.7229  134.5361  159.5724 H   0  0  0  0  0  0  0  0  0  0  0  0  # atno 6907 bound_to 6896
  152.2883  134.7748  160.0392 H   0  0  0  0  0  0  0  0  0  0  0  0  # atno 6908 bound_to 6896
  151.8370  133.3382  159.3668 H   0  0  0  0  0  0  0  0  0  0  0  0  # atno 6909 bound_to 6896
  145.5060  139.2276  143.2751 H   0  0  0  0  0  0  0  0  0  0  0  0  # atno 7974 bound_to 7965
  154.9542  140.0400  157.2159 H   0  0  0  0  0  0  0  0  0  0  0  0  # atno 8008 bound_to 7997
  154.7949  140.2842  155.5942 H   0  0  0  0  0  0  0  0  0  0  0  0  # atno 8009 bound_to 7997
  156.2954  140.2566  156.2805 H   0  0  0  0  0  0  0  0  0  0  0  0  # atno 8010 bound_to 7997
  140.6285  143.8046  150.7265 H   0  0  0  0  0  0  0  0  0  0  0  0  # atno 10167 bound_to 10162
  157.0488  130.6261  149.5764 H   0  0  0  0  0  0  0  0  0  0  0  0  # atno 10718 bound_to 10713
  152.9897  135.5568  154.5731 H   0  0  0  0  0  0  0  0  0  0  0  0  # atno 10763 bound_to 10752
  154.5127  135.2803  155.1331 H   0  0  0  0  0  0  0  0  0  0  0  0  # atno 10764 bound_to 10752
  154.2716  135.6362  153.5365 H   0  0  0  0  0  0  0  0  0  0  0  0  # atno 10765 bound_to 10752
  140.0942  134.9022  157.1697 H   0  0  0  0  0  0  0  0  0  0  0  0  # atno 11005 bound_to 11000
  146.2196  140.5864  142.9023 LP  0  0  0  0  0  0  0  0  0  0  0  0  # atno 17320 bound_to 7965
  144.7753  140.5727  143.6642 LP  0  0  0  0  0  0  0  0  0  0  0  0  # atno 17321 bound_to 7965
  140.1652  143.4241  152.2039 LP  0  0  0  0  0  0  0  0  0  0  0  0  # atno 17342 bound_to 10162
  139.5502  144.7332  151.4457 LP  0  0  0  0  0  0  0  0  0  0  0  0  # atno 17343 bound_to 10162
  156.0014  130.5094  150.7677 LP  0  0  0  0  0  0  0  0  0  0  0  0  # atno 17370 bound_to 10713
  157.5047  131.0921  151.0272 LP  0  0  0  0  0  0  0  0  0  0  0  0  # atno 17371 bound_to 10713
  140.3310  134.2810  155.7228 LP  0  0  0  0  0  0  0  0  0  0  0  0  # atno 17394 bound_to 11000
  141.2087  133.7770  157.0043 LP  0  0  0  0  0  0  0  0  0  0  0  0  # atno 17395 bound_to 11000

$$$$
