AV-unprocessed.smi:1560|AV-procd|sdf|6280|dock5
  -GOLD-   22720 6473D 1   1.00000     0.00000
 Structure written by MMmdl.
 46 47  0  0  0  0  0  0  0  0  2 V2000
  142.3966  135.0203  152.9449 C   0  0  0  0  0  0  0  0  0  0  0  0
  143.4951  135.9111  152.3370 C   0  0  0  0  0  0  0  0  0  0  0  0
  144.8874  135.2310  152.1349 C   0  0  2  0  0  0  0  0  0  0  0  0
  145.3584  134.7789  153.5437 C   0  0  0  0  0  0  0  0  0  0  0  0
  145.9005  136.2977  151.6035 C   0  0  0  0  0  0  0  0  0  0  0  0
  146.2025  137.3526  152.5699 N   0  0  0  0  0  0  0  0  0  0  0  0
  146.5020  138.6260  152.2734 C   0  0  0  0  0  0  0  0  0  0  0  0
  146.6240  139.0462  151.1225 O   0  0  0  0  0  0  0  0  0  0  0  0
  146.6953  139.5712  153.4639 C   0  0  0  0  0  0  0  0  0  0  0  0
  148.0993  139.6110  153.9007 N   0  0  0  0  0  0  0  0  0  0  0  0
  148.7214  138.3922  154.2232 C   0  0  0  0  0  0  0  0  0  0  0  0
  150.0080  138.3344  154.6168 C   0  0  0  0  0  0  0  0  0  0  0  0
  150.7600  139.5803  154.7048 C   0  0  0  0  0  0  0  0  0  0  0  0
  151.9351  139.5469  155.0648 O   0  0  0  0  0  0  0  0  0  0  0  0
  150.1124  140.7370  154.3786 N   0  5  0  0  0  0  0  0  0  0  0  0
  148.8044  140.7806  153.9773 C   0  0  0  0  0  0  0  0  0  0  0  0
  148.2407  141.8355  153.6824 O   0  0  0  0  0  0  0  0  0  0  0  0
  144.7792  134.0600  151.2189 N   0  0  0  0  0  0  0  0  0  0  0  0
  144.1294  134.3293  149.9308 C   0  0  0  0  0  0  0  0  0  0  0  0
  144.1872  133.1131  148.9905 C   0  0  0  0  0  0  0  0  0  0  0  0
  143.5957  131.9856  149.6251 O   0  0  0  0  0  0  0  0  0  0  0  0
  144.2345  131.6567  150.8530 C   0  0  0  0  0  0  0  0  0  0  0  0
  144.1702  132.8608  151.8075 C   0  0  0  0  0  0  0  0  0  0  0  0
  141.4661  135.5800  153.0422 H   0  0  0  0  0  0  0  0  0  0  0  0
  142.6667  134.6685  153.9402 H   0  0  0  0  0  0  0  0  0  0  0  0
  142.1874  134.1491  152.3246 H   0  0  0  0  0  0  0  0  0  0  0  0
  143.1347  136.3214  151.3936 H   0  0  0  0  0  0  0  0  0  0  0  0
  143.5951  136.7790  152.9889 H   0  0  0  0  0  0  0  0  0  0  0  0
  145.2216  135.5607  154.2921 H   0  0  0  0  0  0  0  0  0  0  0  0
  146.4179  134.5230  153.5578 H   0  0  0  0  0  0  0  0  0  0  0  0
  144.8082  133.9042  153.8913 H   0  0  0  0  0  0  0  0  0  0  0  0
  146.8555  135.8319  151.3646 H   0  0  0  0  0  0  0  0  0  0  0  0
  145.5482  136.7421  150.6725 H   0  0  0  0  0  0  0  0  0  0  0  0
  146.1215  137.1073  153.5461 H   0  0  0  0  0  0  0  0  0  0  0  0
  146.3474  140.5760  153.2155 H   0  0  0  0  0  0  0  0  0  0  0  0
  146.0485  139.2358  154.2757 H   0  0  0  0  0  0  0  0  0  0  0  0
  148.0973  137.5162  154.1239 H   0  0  0  0  0  0  0  0  0  0  0  0
  150.4726  137.3895  154.8574 H   0  0  0  0  0  0  0  0  0  0  0  0
  143.0850  134.6016  150.0825 H   0  0  0  0  0  0  0  0  0  0  0  0
  144.6045  135.1660  149.4219 H   0  0  0  0  0  0  0  0  0  0  0  0
  143.6487  133.3236  148.0663 H   0  0  0  0  0  0  0  0  0  0  0  0
  145.2185  132.8862  148.7159 H   0  0  0  0  0  0  0  0  0  0  0  0
  143.7337  130.7955  151.2954 H   0  0  0  0  0  0  0  0  0  0  0  0
  145.2698  131.3654  150.6678 H   0  0  0  0  0  0  0  0  0  0  0  0
  144.6716  132.5799  152.7316 H   0  0  0  0  0  0  0  0  0  0  0  0
  143.1270  133.0501  152.0591 H   0  0  0  0  0  0  0  0  0  0  0  0
  1  2  1  0  0  0  0
  1 24  1  0  0  0  0
  1 25  1  0  0  0  0
  1 26  1  0  0  0  0
  2  3  1  0  0  0  0
  2 27  1  0  0  0  0
  2 28  1  0  0  0  0
  3  4  1  0  0  0  0
  3  5  1  0  0  0  0
  3 18  1  0  0  0  0
  4 29  1  0  0  0  0
  4 30  1  0  0  0  0
  4 31  1  0  0  0  0
  5  6  1  0  0  0  0
  5 32  1  0  0  0  0
  5 33  1  0  0  0  0
  6  7  1  0  0  0  0
  6 34  1  0  0  0  0
  7  8  2  0  0  0  0
  7  9  1  0  0  0  0
  9 10  1  0  0  0  0
  9 35  1  0  0  0  0
  9 36  1  0  0  0  0
 10 16  1  0  0  0  0
 10 11  1  0  0  0  0
 11 12  2  0  0  0  0
 11 37  1  0  0  0  0
 12 13  1  0  0  0  0
 12 38  1  0  0  0  0
 13 14  2  0  0  0  0
 13 15  1  0  0  0  0
 15 16  1  0  0  0  0
 16 17  2  0  0  0  0
 18 23  1  0  0  0  0
 18 19  1  0  0  0  0
 19 20  1  0  0  0  0
 19 39  1  0  0  0  0
 19 40  1  0  0  0  0
 20 21  1  0  0  0  0
 20 41  1  0  0  0  0
 20 42  1  0  0  0  0
 21 22  1  0  0  0  0
 22 23  1  0  0  0  0
 22 43  1  0  0  0  0
 22 44  1  0  0  0  0
 23 45  1  0  0  0  0
 23 46  1  0  0  0  0
M  CHG  1  15  -1
M  END
> <s_m_source_file>
AV-unprocessed.smi

> <i_m_source_file_index>
1560

> <i_lp_mmshare_version>
43012

> <i_f3d_flags>
0

> <s_epik_input>
W0NIMl0xW0NIMl1PW0NIMl1bQ0gyXU4xW0NAQF0oW0NIM10pKFtDSDJdW0NIM10pW0NIMl1bTkhdQyg9TylbQ0gyXW4yW2NIXVtjSF1jKD1PKVtuSF1jMj1P

> <s_epik_cmdline>
J2VwaWtfcHl0aG9uJywgJy1waCcsICc3LjAnLCAnLXRuJywgJzgnLCAnLW1hJywgJzIwMCcsICctbWV0YWxfYmluZGluZycsICctaW1hZScsICc8aW5maWxlLm1hZT4nLCAnLW9tYWUnLCAnPG91dGZpbGUubWFlPic=

> <r_lp_tautomer_probability>
0.999537

> <r_epik_Ionization_Penalty>
3.35108

> <r_epik_Ionization_Penalty_Charging>
2.65778e-08

> <r_epik_Ionization_Penalty_Neutral>
3.35108

> <r_epik_State_Penalty>
3.36199

> <r_epik_Charging_Adjusted_Penalty>
3.36199

> <i_epik_Tot_Q>
-1

> <i_epik_Tot_abs_Q>
1

> <r_epik_Metal_State_Penalty>
0.748914

> <b_epik_Metal_Only>
1

> <s_lp_Force_Field>
OPLS_2005

> <r_lp_Energy>
50.983

> <b_lp_Chiralities_Consistent>
1

> <s_lp_Variant>
AV-unprocessed.smi:1560-6

> <Gold.Version>
5.8.1

> <Gold.Id.Protein>
6NUR|6NUR_protein|mol2

> <Gold.PLP.Fitness>
44.4012

> <Gold.PLP.PLP>
-34.3204

> <Gold.PLP.part.hbond>
-5.0000

> <Gold.PLP.part.metal>
0.0000

> <Gold.PLP.part.buried>
1.0276

> <Gold.PLP.part.nonpolar>
-32.9057

> <Gold.PLP.part.repulsive>
2.3364

> <Gold.PLP.ligand.clash>
0.0000

> <Gold.PLP.ligand.torsion>
0.9104

> <Gold.PLP.Chemscore.Hbond>
3.5567

> <Gold.PLP.Chemscore.CHOScore>
0.3676

> <Gold.PLP.Chemscore.Metal>
0.0000

> <Gold.Chemscore.Hbonds>
donor molecule, donor type, donor heavy atom, donor atom, acceptor molecule, acceptor atom, score
      P1  H  7954  7966       L1     8  0.30
      P1  H  8011  8017       L1    17  0.27
      P1  H 10785 10796       L1    21  0.86
      L1  C    11    37       P1  7948  0.25

> <Gold.PLP.Chemscore.Internal.Correction>
0.1285

> <Gold.Rescore>
     Score         DG    S(hbond)    S(metal)    S(lipo)     H(rot)  DE(clash)    DE(int)     intcor
      9.55     -11.66       1.30        0.00      68.61       2.42       1.00       1.11       ----

> <Gold.Chemscore.Fitness>
9.5519

> <Gold.Chemscore.DG>
-11.6637

> <Gold.Chemscore.ZeroCoef>
-5.4800

> <Gold.Chemscore.Hbond>
1.3026

> <Gold.Chemscore.Metal>
0.0000

> <Gold.Chemscore.Lipo>
68.6093

> <Gold.Chemscore.Internal_Hbond>
0.0000

> <Gold.Chemscore.DEClash>
0.9994

> <Gold.Chemscore.DEInternal>
1.1124

> <Gold.Chemscore.Rot>
2.4197

> <Gold.Chemscore.Internal.Correction>
   9.000000E+99

> <Gold.Chemscore.Hbonds>
donor molecule, donor type, donor heavy atom, donor atom, acceptor molecule, acceptor atom, score
      P1  H  7954  7966       L1     8  0.26
      P1  H  8011  8017       L1    17  0.03
      P1  H 10785 10796       L1    21  0.36

> <Gold.Chemscore.Hbond.Weighted>
-4.3507

> <Gold.Chemscore.Metal.Weighted>
-0.0000

> <Gold.Chemscore.Lipo.Weighted>
-8.0273

> <Gold.Chemscore.Internal_Hbond.Weighted>
0.0000

> <Gold.Chemscore.DEClash.Weighted>
0.9994

> <Gold.Chemscore.DEInternal.Weighted>
1.1124

> <Gold.Chemscore.Rot.Weighted>
6.1943

> <Gold.Chemscore.Internal.Correction.Weighted>
   9.000000E+99

> <Gold.Protein.RotatedTorsions>
[ 6907 6896 6895 6894 ] final  143.62 input  -60.11 | X-H torsion
[ 7974 7965 7964 7962 ] final  -82.83 input  175.53 | X-H torsion
[ 8008 7997 7996 7995 ] final  -55.52 input   59.86 | X-H torsion
[ 10167 10162 10161 10158 ] final   67.72 input  -65.29 | X-H torsion
[ 10718 10713 10712 10709 ] final -114.88 input   66.30 | X-H torsion
[ 10763 10752 10751 10750 ] final   24.08 input  -60.55 | X-H torsion
[ 11005 11000 10999 10996 ] final  125.72 input  -57.11 | X-H torsion

> <Gold.Protein.ActiveResidues>
 VAL166  LYS551  ARG553  GLY616  TRP617  ASP618  TYR619  PRO620  LYS621  CYS622 
 ASP623  PHE694  ASN695  SER759  ASP760  ASP761  ALA762  ILE779  LEU786  VAL792 
 PHE793  MET794  SER795  GLU796  ALA797  LYS798  CYS799  TRP800  GLU811  SER814 

> <Gold.Protein.RotatedAtoms>
  152.2040  133.4861  159.5073 H   0  0  0  0  0  0  0  0  0  0  0  0  # atno 6907 bound_to 6896
  150.6975  134.1554  159.4165 H   0  0  0  0  0  0  0  0  0  0  0  0  # atno 6908 bound_to 6896
  151.9472  135.0186  160.0590 H   0  0  0  0  0  0  0  0  0  0  0  0  # atno 6909 bound_to 6896
  145.5281  140.9524  143.1618 H   0  0  0  0  0  0  0  0  0  0  0  0  # atno 7974 bound_to 7965
  154.4198  140.1151  156.5490 H   0  0  0  0  0  0  0  0  0  0  0  0  # atno 8008 bound_to 7997
  155.6429  140.3496  155.4702 H   0  0  0  0  0  0  0  0  0  0  0  0  # atno 8009 bound_to 7997
  155.9856  140.1169  157.0676 H   0  0  0  0  0  0  0  0  0  0  0  0  # atno 8010 bound_to 7997
  140.0865  144.5025  150.7127 H   0  0  0  0  0  0  0  0  0  0  0  0  # atno 10167 bound_to 10162
  156.0859  130.6050  150.8833 H   0  0  0  0  0  0  0  0  0  0  0  0  # atno 10718 bound_to 10713
  153.0790  135.6613  154.0084 H   0  0  0  0  0  0  0  0  0  0  0  0  # atno 10763 bound_to 10752
  153.9710  135.2964  155.3428 H   0  0  0  0  0  0  0  0  0  0  0  0  # atno 10764 bound_to 10752
  154.7186  135.5174  153.8847 H   0  0  0  0  0  0  0  0  0  0  0  0  # atno 10765 bound_to 10752
  139.9420  134.9634  156.8601 H   0  0  0  0  0  0  0  0  0  0  0  0  # atno 11005 bound_to 11000
  144.7640  139.6889  143.7222 LP  0  0  0  0  0  0  0  0  0  0  0  0  # atno 17320 bound_to 7965
  146.2062  139.5388  142.9711 LP  0  0  0  0  0  0  0  0  0  0  0  0  # atno 17321 bound_to 7965
  140.7051  143.2462  151.4751 LP  0  0  0  0  0  0  0  0  0  0  0  0  # atno 17342 bound_to 10162
  139.5749  144.1842  152.1889 LP  0  0  0  0  0  0  0  0  0  0  0  0  # atno 17343 bound_to 10162
  157.5993  131.0942  150.8988 LP  0  0  0  0  0  0  0  0  0  0  0  0  # atno 17370 bound_to 10713
  156.9149  130.5294  149.5280 LP  0  0  0  0  0  0  0  0  0  0  0  0  # atno 17371 bound_to 10713
  140.5927  134.0246  155.7506 LP  0  0  0  0  0  0  0  0  0  0  0  0  # atno 17394 bound_to 11000
  141.1058  133.9695  157.2998 LP  0  0  0  0  0  0  0  0  0  0  0  0  # atno 17395 bound_to 11000

$$$$
