AV-unprocessed.smi:1809|AV-procd|sdf|7331|dock8
  -GOLD-   22720 8593D 1   1.00000     0.00000
 Structure written by MMmdl.
 38 40  0  0  0  0  0  0  0  0  2 V2000
  152.2357  130.4666  157.2996 C   0  0  0  0  0  0  0  0  0  0  0  0
  151.7011  131.7821  156.8470 C   0  0  0  0  0  0  0  0  0  0  0  0
  152.0910  132.9428  157.3797 N   0  0  0  0  0  0  0  0  0  0  0  0
  151.4547  134.0270  156.7928 N   0  0  0  0  0  0  0  0  0  0  0  0
  150.6045  133.6737  155.8181 C   0  0  0  0  0  0  0  0  0  0  0  0
  149.8868  134.5745  155.1270 N   0  5  0  0  0  0  0  0  0  0  0  0
  149.8163  135.8557  155.5552 C   0  0  0  0  0  0  0  0  0  0  0  0
  150.0696  136.2619  156.6917 O   0  0  0  0  0  0  0  0  0  0  0  0
  149.4302  136.7214  154.6092 N   0  0  0  0  0  0  0  0  0  0  0  0
  149.2679  138.1562  154.8021 C   0  0  0  0  0  0  0  0  0  0  0  0
  150.6074  138.8903  154.5991 C   0  0  2  0  0  0  0  0  0  0  0  0
  151.4728  138.9235  155.8814 C   0  0  0  0  0  0  0  0  0  0  0  0
  150.9470  139.8865  156.8312 N   0  0  0  0  0  0  0  0  0  0  0  0
  151.7108  140.0927  158.0396 C   0  0  0  0  0  0  0  0  0  0  0  0
  151.1602  141.4082  158.6171 C   0  0  0  0  0  0  0  0  0  0  0  0
  150.4854  142.1041  157.4144 C   0  0  0  0  0  0  0  0  0  0  0  0
  150.8583  141.1946  156.2421 C   0  0  2  0  0  0  0  0  0  0  0  0
  149.9179  141.1826  155.0296 C   0  0  0  0  0  0  0  0  0  0  0  0
  150.4088  140.2201  154.0913 O   0  0  0  0  0  0  0  0  0  0  0  0
  150.5114  131.9308  155.5648 S   0  0  0  0  0  0  0  0  0  0  0  0
  153.1848  130.2607  156.8044 H   0  0  0  0  0  0  0  0  0  0  0  0
  151.5331  129.6696  157.0563 H   0  0  0  0  0  0  0  0  0  0  0  0
  152.3950  130.4725  158.3783 H   0  0  0  0  0  0  0  0  0  0  0  0
  149.2261  136.3546  153.6911 H   0  0  0  0  0  0  0  0  0  0  0  0
  148.5049  138.5326  154.1199 H   0  0  0  0  0  0  0  0  0  0  0  0
  148.9019  138.3371  155.8137 H   0  0  0  0  0  0  0  0  0  0  0  0
  151.1648  138.3445  153.8371 H   0  0  0  0  0  0  0  0  0  0  0  0
  151.5215  137.9333  156.3356 H   0  0  0  0  0  0  0  0  0  0  0  0
  152.4954  139.1950  155.6154 H   0  0  0  0  0  0  0  0  0  0  0  0
  151.6080  139.2545  158.7292 H   0  0  0  0  0  0  0  0  0  0  0  0
  152.7694  140.2077  157.8008 H   0  0  0  0  0  0  0  0  0  0  0  0
  150.4281  141.2139  159.4019 H   0  0  0  0  0  0  0  0  0  0  0  0
  151.9594  142.0139  159.0454 H   0  0  0  0  0  0  0  0  0  0  0  0
  149.4038  142.1307  157.5539 H   0  0  0  0  0  0  0  0  0  0  0  0
  150.8345  143.1265  157.2684 H   0  0  0  0  0  0  0  0  0  0  0  0
  151.8504  141.4921  155.8957 H   0  0  0  0  0  0  0  0  0  0  0  0
  148.8957  140.9417  155.3230 H   0  0  0  0  0  0  0  0  0  0  0  0
  149.8914  142.1634  154.5547 H   0  0  0  0  0  0  0  0  0  0  0  0
  1  2  1  0  0  0  0
  1 21  1  0  0  0  0
  1 22  1  0  0  0  0
  1 23  1  0  0  0  0
  2 20  1  0  0  0  0
  2  3  2  0  0  0  0
  3  4  1  0  0  0  0
  4  5  2  0  0  0  0
  5  6  1  0  0  0  0
  5 20  1  0  0  0  0
  6  7  1  0  0  0  0
  7  8  2  0  0  0  0
  7  9  1  0  0  0  0
  9 10  1  0  0  0  0
  9 24  1  0  0  0  0
 10 11  1  0  0  0  0
 10 25  1  0  0  0  0
 10 26  1  0  0  0  0
 11 19  1  0  0  0  0
 11 12  1  0  0  0  0
 11 27  1  0  0  0  0
 12 13  1  0  0  0  0
 12 28  1  0  0  0  0
 12 29  1  0  0  0  0
 13 17  1  0  0  0  0
 13 14  1  0  0  0  0
 14 15  1  0  0  0  0
 14 30  1  0  0  0  0
 14 31  1  0  0  0  0
 15 16  1  0  0  0  0
 15 32  1  0  0  0  0
 15 33  1  0  0  0  0
 16 17  1  0  0  0  0
 16 34  1  0  0  0  0
 16 35  1  0  0  0  0
 17 18  1  0  0  0  0
 17 36  1  0  0  0  0
 18 19  1  0  0  0  0
 18 37  1  0  0  0  0
 18 38  1  0  0  0  0
M  CHG  1   6  -1
M  END
> <s_m_source_file>
AV-unprocessed.smi

> <i_m_source_file_index>
1809

> <i_lp_mmshare_version>
43012

> <i_f3d_flags>
0

> <s_epik_input>
W0NIM11jMW5uYyhzMSlbTkhdQyg9TylbTkhdW0NIMl1bQ0BIXShbQ0gyXTIpT1tDSDJdW0NAQEhdKE4yMylbQ0gyXVtDSDJdW0NIMl0z

> <s_epik_cmdline>
J2VwaWtfcHl0aG9uJywgJy1waCcsICc3LjAnLCAnLXRuJywgJzgnLCAnLW1hJywgJzIwMCcsICctbWV0YWxfYmluZGluZycsICctaW1hZScsICc8aW5maWxlLm1hZT4nLCAnLW9tYWUnLCAnPG91dGZpbGUubWFlPic=

> <r_lp_tautomer_probability>
1

> <r_epik_Ionization_Penalty>
4.48809

> <r_epik_Ionization_Penalty_Charging>
3.27284

> <r_epik_Ionization_Penalty_Neutral>
1.21525

> <r_epik_State_Penalty>
4.69427

> <r_epik_Charging_Adjusted_Penalty>
7.96711

> <i_epik_Tot_Q>
-1

> <i_epik_Tot_abs_Q>
1

> <r_epik_Metal_State_Penalty>
1.91976

> <b_epik_Metal_Only>
1

> <s_lp_Force_Field>
OPLS_2005

> <r_lp_Energy>
48.824

> <b_lp_Chiralities_Consistent>
1

> <s_lp_Variant>
AV-unprocessed.smi:1809-23

> <Gold.Version>
5.8.1

> <Gold.Id.Protein>
6NUR|6NUR_protein|mol2

> <Gold.PLP.Fitness>
36.9127

> <Gold.PLP.PLP>
-29.6086

> <Gold.PLP.part.hbond>
-3.5681

> <Gold.PLP.part.metal>
0.0000

> <Gold.PLP.part.buried>
-4.8098

> <Gold.PLP.part.nonpolar>
-22.2397

> <Gold.PLP.part.repulsive>
0.8731

> <Gold.PLP.ligand.clash>
0.0000

> <Gold.PLP.ligand.torsion>
0.6275

> <Gold.PLP.Chemscore.Hbond>
2.8480

> <Gold.PLP.Chemscore.CHOScore>
0.0000

> <Gold.PLP.Chemscore.Metal>
0.0000

> <Gold.Chemscore.Hbonds>
donor molecule, donor type, donor heavy atom, donor atom, acceptor molecule, acceptor atom, score
      L1  H     9    24       P1  7948  1.00
      P1  H  6896  6908       L1     3  0.79
      P1  H  7989  7998       L1    19  0.93

> <Gold.PLP.Chemscore.Internal.Correction>
0.0150

> <Gold.Rescore>
     Score         DG    S(hbond)    S(metal)    S(lipo)     H(rot)  DE(clash)    DE(int)     intcor
     14.49     -16.71       2.27        0.00      59.77       1.31       0.00       2.22       ----

> <Gold.Chemscore.Fitness>
14.4936

> <Gold.Chemscore.DG>
-16.7099

> <Gold.Chemscore.ZeroCoef>
-5.4800

> <Gold.Chemscore.Hbond>
2.2690

> <Gold.Chemscore.Metal>
0.0000

> <Gold.Chemscore.Lipo>
59.7651

> <Gold.Chemscore.Internal_Hbond>
0.0000

> <Gold.Chemscore.DEClash>
0.0009

> <Gold.Chemscore.DEInternal>
2.2154

> <Gold.Chemscore.Rot>
1.3051

> <Gold.Chemscore.Internal.Correction>
   9.000000E+99

> <Gold.Chemscore.Hbonds>
donor molecule, donor type, donor heavy atom, donor atom, acceptor molecule, acceptor atom, score
      L1  H     9    24       P1  7948  0.92
      P1  H  6896  6908       L1     3  0.17
      P1  H  7989  7998       L1    19  0.39

> <Gold.Chemscore.Hbond.Weighted>
-7.5786

> <Gold.Chemscore.Metal.Weighted>
-0.0000

> <Gold.Chemscore.Lipo.Weighted>
-6.9925

> <Gold.Chemscore.Internal_Hbond.Weighted>
0.0000

> <Gold.Chemscore.DEClash.Weighted>
0.0009

> <Gold.Chemscore.DEInternal.Weighted>
2.2154

> <Gold.Chemscore.Rot.Weighted>
3.3412

> <Gold.Chemscore.Internal.Correction.Weighted>
   9.000000E+99

> <Gold.Protein.RotatedTorsions>
[ 6907 6896 6895 6894 ] final   59.42 input  -60.11 | X-H torsion
[ 7974 7965 7964 7962 ] final -152.02 input  175.53 | X-H torsion
[ 8008 7997 7996 7995 ] final   96.24 input   59.86 | X-H torsion
[ 10167 10162 10161 10158 ] final -162.37 input  -65.29 | X-H torsion
[ 10718 10713 10712 10709 ] final   15.08 input   66.30 | X-H torsion
[ 10763 10752 10751 10750 ] final  -62.01 input  -60.55 | X-H torsion
[ 11005 11000 10999 10996 ] final  -52.48 input  -57.11 | X-H torsion

> <Gold.Protein.ActiveResidues>
 VAL166  LYS551  ARG553  GLY616  TRP617  ASP618  TYR619  PRO620  LYS621  CYS622 
 ASP623  PHE694  ASN695  SER759  ASP760  ASP761  ALA762  ILE779  LEU786  VAL792 
 PHE793  MET794  SER795  GLU796  ALA797  LYS798  CYS799  TRP800  GLU811  SER814 

> <Gold.Protein.RotatedAtoms>
  152.3913  134.6437  160.0106 H   0  0  0  0  0  0  0  0  0  0  0  0  # atno 6907 bound_to 6896
  151.6670  133.3309  159.3195 H   0  0  0  0  0  0  0  0  0  0  0  0  # atno 6908 bound_to 6896
  150.7828  134.6832  159.6500 H   0  0  0  0  0  0  0  0  0  0  0  0  # atno 6909 bound_to 6896
  144.7817  140.4719  143.5834 H   0  0  0  0  0  0  0  0  0  0  0  0  # atno 7974 bound_to 7965
  156.0775  140.3275  155.7652 H   0  0  0  0  0  0  0  0  0  0  0  0  # atno 8008 bound_to 7997
  155.5206  140.0585  157.2925 H   0  0  0  0  0  0  0  0  0  0  0  0  # atno 8009 bound_to 7997
  154.4564  140.1944  156.0386 H   0  0  0  0  0  0  0  0  0  0  0  0  # atno 8010 bound_to 7997
  139.6397  144.0283  152.2082 H   0  0  0  0  0  0  0  0  0  0  0  0  # atno 10167 bound_to 10162
  157.0484  130.6260  149.5763 H   0  0  0  0  0  0  0  0  0  0  0  0  # atno 10718 bound_to 10713
  154.2934  135.6249  153.5395 H   0  0  0  0  0  0  0  0  0  0  0  0  # atno 10763 bound_to 10752
  152.9849  135.5661  154.5364 H   0  0  0  0  0  0  0  0  0  0  0  0  # atno 10764 bound_to 10752
  154.4980  135.2870  155.1420 H   0  0  0  0  0  0  0  0  0  0  0  0  # atno 10765 bound_to 10752
  141.0926  133.6630  156.4030 H   0  0  0  0  0  0  0  0  0  0  0  0  # atno 11005 bound_to 11000
  145.6032  139.1506  143.3117 LP  0  0  0  0  0  0  0  0  0  0  0  0  # atno 17320 bound_to 7965
  146.2029  140.6152  142.9094 LP  0  0  0  0  0  0  0  0  0  0  0  0  # atno 17321 bound_to 7965
  139.9969  144.6321  150.7764 LP  0  0  0  0  0  0  0  0  0  0  0  0  # atno 17342 bound_to 10162
  140.7484  143.2922  151.3300 LP  0  0  0  0  0  0  0  0  0  0  0  0  # atno 17343 bound_to 10162
  156.0015  130.5095  150.7681 LP  0  0  0  0  0  0  0  0  0  0  0  0  # atno 17370 bound_to 10713
  157.5049  131.0921  151.0269 LP  0  0  0  0  0  0  0  0  0  0  0  0  # atno 17371 bound_to 10713
  140.5216  134.6299  157.5320 LP  0  0  0  0  0  0  0  0  0  0  0  0  # atno 17394 bound_to 11000
  139.9755  134.7222  155.9957 LP  0  0  0  0  0  0  0  0  0  0  0  0  # atno 17395 bound_to 11000

$$$$
