AV-unprocessed.smi:196|AV-procd|sdf|1540|dock7
  -GOLD-   2262019393D 1   1.00000     0.00000
 Structure written by MMmdl.
 47 50  0  0  0  0  0  0  0  0  1 V2000
  144.0235  132.7319  148.5830 C   0  0  0  0  0  0  0  0  0  0  0  0
  145.0709  132.4706  149.6766 C   0  0  2  0  0  0  0  0  0  0  0  0
  144.6176  131.3581  150.4443 O   0  0  0  0  0  0  0  0  0  0  0  0
  145.0581  131.5104  151.7820 C   0  0  0  0  0  0  0  0  0  0  0  0
  144.8731  133.0011  152.0201 C   0  0  0  0  0  0  0  0  0  0  0  0
  145.3188  133.6178  150.6973 C   0  0  1  0  0  0  0  0  0  0  0  0
  146.7191  133.8322  150.7686 O   0  0  0  0  0  0  0  0  0  0  0  0
  144.6420  134.9791  150.3857 C   0  0  0  0  0  0  0  0  0  0  0  0
  145.4220  136.1267  150.8253 N   0  0  0  0  0  0  0  0  0  0  0  0
  146.0707  137.0391  150.0224 C   0  0  0  0  0  0  0  0  0  0  0  0
  146.7120  137.9840  150.6549 N   0  0  0  0  0  0  0  0  0  0  0  0
  146.4822  137.7033  151.9951 C   0  0  0  0  0  0  0  0  0  0  0  0
  146.8863  138.3116  153.2112 C   0  0  0  0  0  0  0  0  0  0  0  0
  147.6565  139.4234  153.2275 N   0  0  0  0  0  0  0  0  0  0  0  0
  146.9905  140.6325  152.7525 C   0  0  0  0  0  0  0  0  0  0  0  0
  147.3107  141.7266  153.7722 C   0  0  1  0  0  0  0  0  0  0  0  0
  146.3441  141.7736  154.6906 F   0  0  0  0  0  0  0  0  0  0  0  0
  148.6026  141.2350  154.4155 C   0  0  0  0  0  0  0  0  0  0  0  0
  148.4205  139.7110  154.4478 C   0  0  2  0  0  0  0  0  0  0  0  0
  149.7718  138.9774  154.5383 C   0  0  0  0  0  0  0  0  0  0  0  0
  149.7886  137.6422  154.4628 N   0  0  0  0  0  0  0  0  0  0  0  0
  150.8062  139.6248  154.6842 O   0  0  0  0  0  0  0  0  0  0  0  0
  146.4576  137.7568  154.3748 N   0  0  0  0  0  0  0  0  0  0  0  0
  145.6868  136.6652  154.3478 C   0  0  0  0  0  0  0  0  0  0  0  0
  145.2375  135.9857  153.2899 N   0  0  0  0  0  0  0  0  0  0  0  0
  145.6666  136.5448  152.1218 C   0  0  0  0  0  0  0  0  0  0  0  0
  147.3938  142.7194  153.3298 H   0  0  0  0  0  0  0  0  0  0  0  0
  147.8374  139.4524  155.3333 H   0  0  0  0  0  0  0  0  0  0  0  0
  144.3132  133.5654  147.9432 H   0  0  0  0  0  0  0  0  0  0  0  0
  143.0448  132.9511  149.0106 H   0  0  0  0  0  0  0  0  0  0  0  0
  143.9104  131.8557  147.9443 H   0  0  0  0  0  0  0  0  0  0  0  0
  146.0064  132.1810  149.1940 H   0  0  0  0  0  0  0  0  0  0  0  0
  144.4767  130.8965  152.4699 H   0  0  0  0  0  0  0  0  0  0  0  0
  146.1080  131.2246  151.8618 H   0  0  0  0  0  0  0  0  0  0  0  0
  143.8133  133.1967  152.1866 H   0  0  0  0  0  0  0  0  0  0  0  0
  145.4203  133.3710  152.8883 H   0  0  0  0  0  0  0  0  0  0  0  0
  147.0811  133.2383  151.4082 H   0  0  0  0  0  0  0  0  0  0  0  0
  144.4651  135.0804  149.3142 H   0  0  0  0  0  0  0  0  0  0  0  0
  143.6654  135.0402  150.8665 H   0  0  0  0  0  0  0  0  0  0  0  0
  146.0581  136.9769  148.9440 H   0  0  0  0  0  0  0  0  0  0  0  0
  147.4191  140.8868  151.7827 H   0  0  0  0  0  0  0  0  0  0  0  0
  145.9141  140.5147  152.6116 H   0  0  0  0  0  0  0  0  0  0  0  0
  149.4503  141.5109  153.7853 H   0  0  0  0  0  0  0  0  0  0  0  0
  148.7689  141.6627  155.4050 H   0  0  0  0  0  0  0  0  0  0  0  0
  150.6669  137.1465  154.5198 H   0  0  0  0  0  0  0  0  0  0  0  0
  148.9233  137.1347  154.3483 H   0  0  0  0  0  0  0  0  0  0  0  0
  145.3868  136.2815  155.3117 H   0  0  0  0  0  0  0  0  0  0  0  0
  1  2  1  0  0  0  0
  1 29  1  0  0  0  0
  1 30  1  0  0  0  0
  1 31  1  0  0  0  0
  2  6  1  0  0  0  0
  2  3  1  0  0  0  0
  2 32  1  0  0  0  0
  3  4  1  0  0  0  0
  4  5  1  0  0  0  0
  4 33  1  0  0  0  0
  4 34  1  0  0  0  0
  5  6  1  0  0  0  0
  5 35  1  0  0  0  0
  5 36  1  0  0  0  0
  6  7  1  0  0  0  0
  6  8  1  0  0  0  0
  7 37  1  0  0  0  0
  8  9  1  0  0  0  0
  8 38  1  0  0  0  0
  8 39  1  0  0  0  0
  9 26  1  0  0  0  0
  9 10  1  0  0  0  0
 10 11  2  0  0  0  0
 10 40  1  0  0  0  0
 11 12  1  0  0  0  0
 12 26  2  0  0  0  0
 12 13  1  0  0  0  0
 13 14  1  0  0  0  0
 13 23  2  0  0  0  0
 14 19  1  0  0  0  0
 14 15  1  0  0  0  0
 15 16  1  0  0  0  0
 15 41  1  0  0  0  0
 15 42  1  0  0  0  0
 16 27  1  0  0  0  0
 16 17  1  0  0  0  0
 16 18  1  0  0  0  0
 18 19  1  0  0  0  0
 18 43  1  0  0  0  0
 18 44  1  0  0  0  0
 19 28  1  0  0  0  0
 19 20  1  0  0  0  0
 20 21  1  0  0  0  0
 20 22  2  0  0  0  0
 21 45  1  0  0  0  0
 21 46  1  0  0  0  0
 23 24  1  0  0  0  0
 24 25  2  0  0  0  0
 24 47  1  0  0  0  0
 25 26  1  0  0  0  0
M  END
> <s_m_source_file>
AV-unprocessed.smi

> <i_m_source_file_index>
196

> <i_lp_mmshare_version>
43012

> <i_f3d_flags>
0

> <s_epik_input>
W0NIMl0xW0NIMl1PW0NAQEhdKFtDSDNdKVtDQEBdMShbT0hdKVtDSDJdbihbY0hdbjIpYyhjMjMpbltjSF1uYzNONFtDSDJdW0NASF0oRilbQ0gyXVtDQEhdNEMoPU8pW05IMl0=

> <s_epik_cmdline>
J2VwaWtfcHl0aG9uJywgJy1waCcsICc3LjAnLCAnLXRuJywgJzgnLCAnLW1hJywgJzIwMCcsICctbWV0YWxfYmluZGluZycsICctaW1hZScsICc8aW5maWxlLm1hZT4nLCAnLW9tYWUnLCAnPG91dGZpbGUubWFlPic=

> <r_lp_tautomer_probability>
1

> <r_epik_Ionization_Penalty>
0.000857933

> <r_epik_Ionization_Penalty_Charging>
0

> <r_epik_Ionization_Penalty_Neutral>
0.000857933

> <r_epik_State_Penalty>
0.000462053

> <r_epik_Charging_Adjusted_Penalty>
0.000462053

> <i_epik_Tot_Q>
0

> <i_epik_Tot_abs_Q>
0

> <r_epik_Metal_State_Penalty>
-0

> <b_epik_Metal_Only>
0

> <s_lp_Force_Field>
OPLS_2005

> <r_lp_Energy>
46.05

> <b_lp_Chiralities_Consistent>
1

> <s_lp_Variant>
AV-unprocessed.smi:196-13

> <Gold.Version>
5.8.1

> <Gold.Id.Protein>
6NUR|6NUR_protein|mol2

> <Gold.PLP.Fitness>
45.7803

> <Gold.PLP.PLP>
-39.4111

> <Gold.PLP.part.hbond>
-3.2784

> <Gold.PLP.part.metal>
0.0000

> <Gold.PLP.part.buried>
0.7814

> <Gold.PLP.part.nonpolar>
-40.2795

> <Gold.PLP.part.repulsive>
4.0957

> <Gold.PLP.ligand.clash>
0.0000

> <Gold.PLP.ligand.torsion>
1.2127

> <Gold.PLP.Chemscore.Hbond>
2.0000

> <Gold.PLP.Chemscore.CHOScore>
0.8768

> <Gold.PLP.Chemscore.Metal>
0.0000

> <Gold.Chemscore.Hbonds>
donor molecule, donor type, donor heavy atom, donor atom, acceptor molecule, acceptor atom, score
      P1  H  7954  7966       L1    11  0.95
      P1  H  7989  7998       L1    22  1.00
      L1  C    10    40       P1  7921  0.91

> <Gold.PLP.Chemscore.Internal.Correction>
0.1643

> <Gold.Rescore>
     Score         DG    S(hbond)    S(metal)    S(lipo)     H(rot)  DE(clash)    DE(int)     intcor
      7.72     -12.44       1.50        0.00      83.27       3.04       3.49       1.24       ----

> <Gold.Chemscore.Fitness>
7.7155

> <Gold.Chemscore.DG>
-12.4416

> <Gold.Chemscore.ZeroCoef>
-5.4800

> <Gold.Chemscore.Hbond>
1.4985

> <Gold.Chemscore.Metal>
0.0000

> <Gold.Chemscore.Lipo>
83.2675

> <Gold.Chemscore.Internal_Hbond>
0.0000

> <Gold.Chemscore.DEClash>
3.4872

> <Gold.Chemscore.DEInternal>
1.2390

> <Gold.Chemscore.Rot>
3.0413

> <Gold.Chemscore.Internal.Correction>
   9.000000E+99

> <Gold.Chemscore.Hbonds>
donor molecule, donor type, donor heavy atom, donor atom, acceptor molecule, acceptor atom, score
      P1  H  7954  7966       L1    11  0.21
      P1  H  7989  7998       L1    22  1.00

> <Gold.Chemscore.Hbond.Weighted>
-5.0050

> <Gold.Chemscore.Metal.Weighted>
-0.0000

> <Gold.Chemscore.Lipo.Weighted>
-9.7423

> <Gold.Chemscore.Internal_Hbond.Weighted>
0.0000

> <Gold.Chemscore.DEClash.Weighted>
3.4872

> <Gold.Chemscore.DEInternal.Weighted>
1.2390

> <Gold.Chemscore.Rot.Weighted>
7.7856

> <Gold.Chemscore.Internal.Correction.Weighted>
   9.000000E+99

> <Gold.Protein.RotatedTorsions>
[ 6907 6896 6895 6894 ] final  105.23 input  -60.11 | X-H torsion
[ 7974 7965 7964 7962 ] final  -87.89 input  175.53 | X-H torsion
[ 8008 7997 7996 7995 ] final  117.00 input   59.86 | X-H torsion
[ 10167 10162 10161 10158 ] final -116.47 input  -65.29 | X-H torsion
[ 10718 10713 10712 10709 ] final   58.89 input   66.30 | X-H torsion
[ 10763 10752 10751 10750 ] final   99.99 input  -60.55 | X-H torsion
[ 11005 11000 10999 10996 ] final   96.46 input  -57.11 | X-H torsion

> <Gold.Protein.ActiveResidues>
 VAL166  LYS551  ARG553  GLY616  TRP617  ASP618  TYR619  PRO620  LYS621  CYS622 
 ASP623  PHE694  ASN695  SER759  ASP760  ASP761  ALA762  ILE779  LEU786  VAL792 
 PHE793  MET794  SER795  GLU796  ALA797  LYS798  CYS799  TRP800  GLU811  SER814 

> <Gold.Protein.RotatedAtoms>
  152.5237  133.9559  159.7693 H   0  0  0  0  0  0  0  0  0  0  0  0  # atno 6907 bound_to 6896
  150.9860  133.6189  159.2722 H   0  0  0  0  0  0  0  0  0  0  0  0  # atno 6908 bound_to 6896
  151.3350  135.0856  159.9404 H   0  0  0  0  0  0  0  0  0  0  0  0  # atno 6909 bound_to 6896
  145.4605  140.9561  143.1972 H   0  0  0  0  0  0  0  0  0  0  0  0  # atno 7974 bound_to 7965
  156.2470  140.2905  156.0611 H   0  0  0  0  0  0  0  0  0  0  0  0  # atno 8008 bound_to 7997
  155.1775  140.0403  157.2893 H   0  0  0  0  0  0  0  0  0  0  0  0  # atno 8009 bound_to 7997
  154.6283  140.2493  155.7472 H   0  0  0  0  0  0  0  0  0  0  0  0  # atno 8010 bound_to 7997
  140.0789  143.4806  152.1937 H   0  0  0  0  0  0  0  0  0  0  0  0  # atno 10167 bound_to 10162
  157.5633  130.8852  149.9146 H   0  0  0  0  0  0  0  0  0  0  0  0  # atno 10718 bound_to 10713
  153.3083  135.4094  155.1314 H   0  0  0  0  0  0  0  0  0  0  0  0  # atno 10763 bound_to 10752
  154.8569  135.3558  154.5757 H   0  0  0  0  0  0  0  0  0  0  0  0  # atno 10764 bound_to 10752
  153.6185  135.7065  153.5378 H   0  0  0  0  0  0  0  0  0  0  0  0  # atno 10765 bound_to 10752
  139.8781  134.8951  156.4161 H   0  0  0  0  0  0  0  0  0  0  0  0  # atno 11005 bound_to 11000
  144.8006  139.6149  143.7073 LP  0  0  0  0  0  0  0  0  0  0  0  0  # atno 17320 bound_to 7965
  146.2454  139.6087  142.9463 LP  0  0  0  0  0  0  0  0  0  0  0  0  # atno 17321 bound_to 7965
  139.5791  144.7502  151.3686 LP  0  0  0  0  0  0  0  0  0  0  0  0  # atno 17342 bound_to 10162
  140.7088  143.7445  150.7529 LP  0  0  0  0  0  0  0  0  0  0  0  0  # atno 17343 bound_to 10162
  156.0683  130.3689  150.0830 LP  0  0  0  0  0  0  0  0  0  0  0  0  # atno 17370 bound_to 10713
  156.8992  130.9614  151.3578 LP  0  0  0  0  0  0  0  0  0  0  0  0  # atno 17371 bound_to 10713
  140.9166  133.7674  155.9856 LP  0  0  0  0  0  0  0  0  0  0  0  0  # atno 17394 bound_to 11000
  140.8486  134.2980  157.5284 LP  0  0  0  0  0  0  0  0  0  0  0  0  # atno 17395 bound_to 11000

$$$$
