AV-unprocessed.smi:772|AV-procd|sdf|3688|dock5
  -GOLD-   22720 1103D 1   1.00000     0.00000
 Structure written by MMmdl.
 47 48  0  0  0  0  0  0  0  0  2 V2000
  144.0593  132.8290  149.6472 C   0  0  0  0  0  0  0  0  0  0  0  0
  144.3528  134.0281  150.5237 C   0  0  0  0  0  0  0  0  0  0  0  0
  143.7141  134.2292  151.7660 C   0  0  0  0  0  0  0  0  0  0  0  0
  144.0337  135.3727  152.5268 C   0  0  0  0  0  0  0  0  0  0  0  0
  144.9835  136.2926  152.0303 C   0  0  0  0  0  0  0  0  0  0  0  0
  145.3276  137.5508  152.8082 C   0  0  0  0  0  0  0  0  0  0  0  0
  146.3735  138.4409  152.1097 C   0  0  0  0  0  0  0  0  0  0  0  0
  146.7385  139.6053  152.9135 N   0  0  0  0  0  0  0  0  0  0  0  0
  147.8801  139.7576  153.6084 C   0  0  0  0  0  0  0  0  0  0  0  0
  148.7577  138.8928  153.6241 O   0  0  0  0  0  0  0  0  0  0  0  0
  147.9926  140.9407  154.2643 N   0  0  0  0  0  0  0  0  0  0  0  0
  146.8959  141.8792  154.5508 C   0  0  0  0  0  0  0  0  0  0  0  0
  146.3954  141.6391  155.9831 C   0  0  0  0  0  0  0  0  0  0  0  0
  147.7100  141.9756  157.1948 S   0  0  0  0  0  0  0  0  0  0  0  0
  149.0739  140.9944  156.4732 C   0  0  2  0  0  0  0  0  0  0  0  0
  150.3976  141.1556  157.2627 C   0  0  0  0  0  0  0  0  0  0  0  0
  150.8938  142.6116  157.2617 C   0  0  0  0  0  0  0  0  0  0  0  0
  151.5150  140.1952  156.8138 C   0  0  0  0  0  0  0  0  0  0  0  0
  149.2246  141.3155  154.9690 C   0  0  0  0  0  0  0  0  0  0  0  0
  145.5938  136.0357  150.7840 C   0  0  0  0  0  0  0  0  0  0  0  0
  145.2602  134.9290  150.0853 N   0  3  0  0  0  0  0  0  0  0  0  0
  143.2772  132.2063  150.0824 H   0  0  0  0  0  0  0  0  0  0  0  0
  144.9542  132.2181  149.5274 H   0  0  0  0  0  0  0  0  0  0  0  0
  143.7271  133.1516  148.6599 H   0  0  0  0  0  0  0  0  0  0  0  0
  142.9853  133.5208  152.1320 H   0  0  0  0  0  0  0  0  0  0  0  0
  143.5455  135.5446  153.4752 H   0  0  0  0  0  0  0  0  0  0  0  0
  144.4172  138.1252  152.9848 H   0  0  0  0  0  0  0  0  0  0  0  0
  145.6962  137.2599  153.7924 H   0  0  0  0  0  0  0  0  0  0  0  0
  147.2791  137.8618  151.9282 H   0  0  0  0  0  0  0  0  0  0  0  0
  146.0118  138.7491  151.1273 H   0  0  0  0  0  0  0  0  0  0  0  0
  146.0669  140.3586  152.9489 H   0  0  0  0  0  0  0  0  0  0  0  0
  147.2486  142.9065  154.4488 H   0  0  0  0  0  0  0  0  0  0  0  0
  146.0674  141.7988  153.8469 H   0  0  0  0  0  0  0  0  0  0  0  0
  145.5452  142.2850  156.2023 H   0  0  0  0  0  0  0  0  0  0  0  0
  146.0552  140.6100  156.1020 H   0  0  0  0  0  0  0  0  0  0  0  0
  148.7755  139.9480  156.5541 H   0  0  0  0  0  0  0  0  0  0  0  0
  150.1749  140.9132  158.3026 H   0  0  0  0  0  0  0  0  0  0  0  0
  151.1852  142.9385  156.2634 H   0  0  0  0  0  0  0  0  0  0  0  0
  151.7618  142.7286  157.9112 H   0  0  0  0  0  0  0  0  0  0  0  0
  150.1222  143.2919  157.6231 H   0  0  0  0  0  0  0  0  0  0  0  0
  151.8180  140.3797  155.7831 H   0  0  0  0  0  0  0  0  0  0  0  0
  151.2075  139.1529  156.8913 H   0  0  0  0  0  0  0  0  0  0  0  0
  152.4006  140.3135  157.4385 H   0  0  0  0  0  0  0  0  0  0  0  0
  150.0944  140.8001  154.5586 H   0  0  0  0  0  0  0  0  0  0  0  0
  149.4232  142.3769  154.8185 H   0  0  0  0  0  0  0  0  0  0  0  0
  146.3241  136.6841  150.3222 H   0  0  0  0  0  0  0  0  0  0  0  0
  145.7107  134.7682  149.1841 H   0  0  0  0  0  0  0  0  0  0  0  0
  1  2  1  0  0  0  0
  1 22  1  0  0  0  0
  1 23  1  0  0  0  0
  1 24  1  0  0  0  0
  2 21  1  0  0  0  0
  2  3  2  0  0  0  0
  3  4  1  0  0  0  0
  3 25  1  0  0  0  0
  4  5  2  0  0  0  0
  4 26  1  0  0  0  0
  5  6  1  0  0  0  0
  5 20  1  0  0  0  0
  6  7  1  0  0  0  0
  6 27  1  0  0  0  0
  6 28  1  0  0  0  0
  7  8  1  0  0  0  0
  7 29  1  0  0  0  0
  7 30  1  0  0  0  0
  8  9  1  0  0  0  0
  8 31  1  0  0  0  0
  9 10  2  0  0  0  0
  9 11  1  0  0  0  0
 11 19  1  0  0  0  0
 11 12  1  0  0  0  0
 12 13  1  0  0  0  0
 12 32  1  0  0  0  0
 12 33  1  0  0  0  0
 13 14  1  0  0  0  0
 13 34  1  0  0  0  0
 13 35  1  0  0  0  0
 14 15  1  0  0  0  0
 15 16  1  0  0  0  0
 15 19  1  0  0  0  0
 15 36  1  0  0  0  0
 16 17  1  0  0  0  0
 16 18  1  0  0  0  0
 16 37  1  0  0  0  0
 17 38  1  0  0  0  0
 17 39  1  0  0  0  0
 17 40  1  0  0  0  0
 18 41  1  0  0  0  0
 18 42  1  0  0  0  0
 18 43  1  0  0  0  0
 19 44  1  0  0  0  0
 19 45  1  0  0  0  0
 20 21  2  0  0  0  0
 20 46  1  0  0  0  0
 21 47  1  0  0  0  0
M  CHG  1  21   1
M  END
> <s_m_source_file>
AV-unprocessed.smi

> <i_m_source_file_index>
772

> <i_lp_mmshare_version>
43012

> <i_f3d_flags>
0

> <s_epik_input>
W0NIM11jMVtjSF1bY0hdYyhbY0hdbjEpW0NIMl1bQ0gyXVtOSF1DKD1PKU4yW0NIMl1bQ0gyXVNbQ0BIXShbQ0gyXTIpW0NIXShbQ0gzXSlbQ0gzXQ==

> <s_epik_cmdline>
J2VwaWtfcHl0aG9uJywgJy1waCcsICc3LjAnLCAnLXRuJywgJzgnLCAnLW1hJywgJzIwMCcsICctbWV0YWxfYmluZGluZycsICctaW1hZScsICc8aW5maWxlLm1hZT4nLCAnLW9tYWUnLCAnPG91dGZpbGUubWFlPic=

> <r_epik_Ionization_Penalty>
1.41908

> <r_epik_Ionization_Penalty_Charging>
1.41903

> <r_epik_Ionization_Penalty_Neutral>
4.72921e-05

> <r_epik_State_Penalty>
1.50265

> <r_epik_Charging_Adjusted_Penalty>
2.92168

> <i_epik_Tot_Q>
1

> <i_epik_Tot_abs_Q>
1

> <r_epik_Metal_State_Penalty>
1.55496

> <b_epik_Metal_Only>
0

> <s_lp_Force_Field>
OPLS_2005

> <r_lp_Energy>
32.4452

> <b_lp_Chiralities_Consistent>
1

> <s_lp_Variant>
AV-unprocessed.smi:772-4

> <Gold.Version>
5.8.1

> <Gold.Id.Protein>
6NUR|6NUR_protein|mol2

> <Gold.PLP.Fitness>
42.6381

> <Gold.PLP.PLP>
-39.9308

> <Gold.PLP.part.hbond>
-1.4145

> <Gold.PLP.part.metal>
0.0000

> <Gold.PLP.part.buried>
-4.8449

> <Gold.PLP.part.nonpolar>
-36.7805

> <Gold.PLP.part.repulsive>
2.2065

> <Gold.PLP.ligand.clash>
0.0000

> <Gold.PLP.ligand.torsion>
0.1870

> <Gold.PLP.Chemscore.Hbond>
1.0000

> <Gold.PLP.Chemscore.CHOScore>
0.0000

> <Gold.PLP.Chemscore.Metal>
0.0000

> <Gold.Chemscore.Hbonds>
donor molecule, donor type, donor heavy atom, donor atom, acceptor molecule, acceptor atom, score
      L1  H    21    47       P1  7921  1.00

> <Gold.PLP.Chemscore.Internal.Correction>
0.0814

> <Gold.Rescore>
     Score         DG    S(hbond)    S(metal)    S(lipo)     H(rot)  DE(clash)    DE(int)     intcor
     15.80     -16.56       1.12        0.00      93.18       1.39       0.38       0.37       ----

> <Gold.Chemscore.Fitness>
15.8019

> <Gold.Chemscore.DG>
-16.5582

> <Gold.Chemscore.ZeroCoef>
-5.4800

> <Gold.Chemscore.Hbond>
1.1218

> <Gold.Chemscore.Metal>
0.0000

> <Gold.Chemscore.Lipo>
93.1829

> <Gold.Chemscore.Internal_Hbond>
0.0000

> <Gold.Chemscore.DEClash>
0.3825

> <Gold.Chemscore.DEInternal>
0.3738

> <Gold.Chemscore.Rot>
1.3949

> <Gold.Chemscore.Internal.Correction>
   9.000000E+99

> <Gold.Chemscore.Hbonds>
donor molecule, donor type, donor heavy atom, donor atom, acceptor molecule, acceptor atom, score
      L1  H     8    31       P1 10175  0.04
      L1  H    21    47       P1  7921  0.94

> <Gold.Chemscore.Hbond.Weighted>
-3.7467

> <Gold.Chemscore.Metal.Weighted>
-0.0000

> <Gold.Chemscore.Lipo.Weighted>
-10.9024

> <Gold.Chemscore.Internal_Hbond.Weighted>
0.0000

> <Gold.Chemscore.DEClash.Weighted>
0.3825

> <Gold.Chemscore.DEInternal.Weighted>
0.3738

> <Gold.Chemscore.Rot.Weighted>
3.5709

> <Gold.Chemscore.Internal.Correction.Weighted>
   9.000000E+99

> <Gold.Protein.RotatedTorsions>
[ 6907 6896 6895 6894 ] final -104.31 input  -60.11 | X-H torsion
[ 7974 7965 7964 7962 ] final   -4.19 input  175.53 | X-H torsion
[ 8008 7997 7996 7995 ] final  152.96 input   59.86 | X-H torsion
[ 10167 10162 10161 10158 ] final -114.57 input  -65.29 | X-H torsion
[ 10718 10713 10712 10709 ] final  -30.15 input   66.30 | X-H torsion
[ 10763 10752 10751 10750 ] final -134.54 input  -60.55 | X-H torsion
[ 11005 11000 10999 10996 ] final -115.66 input  -57.11 | X-H torsion

> <Gold.Protein.ActiveResidues>
 VAL166  LYS551  ARG553  GLY616  TRP617  ASP618  TYR619  PRO620  LYS621  CYS622 
 ASP623  PHE694  ASN695  SER759  ASP760  ASP761  ALA762  ILE779  LEU786  VAL792 
 PHE793  MET794  SER795  GLU796  ALA797  LYS798  CYS799  TRP800  GLU811  SER814 

> <Gold.Protein.RotatedAtoms>
  150.7281  134.0297  159.3729 H   0  0  0  0  0  0  0  0  0  0  0  0  # atno 6907 bound_to 6896
  151.8266  135.0632  160.0441 H   0  0  0  0  0  0  0  0  0  0  0  0  # atno 6908 bound_to 6896
  152.2964  133.5576  159.5627 H   0  0  0  0  0  0  0  0  0  0  0  0  # atno 6909 bound_to 6896
  146.2377  140.1833  142.8332 H   0  0  0  0  0  0  0  0  0  0  0  0  # atno 7974 bound_to 7965
  156.2604  140.2007  156.6415 H   0  0  0  0  0  0  0  0  0  0  0  0  # atno 8008 bound_to 7997
  154.6606  140.0561  157.0082 H   0  0  0  0  0  0  0  0  0  0  0  0  # atno 8009 bound_to 7997
  155.1282  140.3231  155.4483 H   0  0  0  0  0  0  0  0  0  0  0  0  # atno 8010 bound_to 7997
  140.0995  143.4626  152.1821 H   0  0  0  0  0  0  0  0  0  0  0  0  # atno 10167 bound_to 10162
  156.4035  130.4394  149.7305 H   0  0  0  0  0  0  0  0  0  0  0  0  # atno 10718 bound_to 10713
  154.8717  135.3731  154.4752 H   0  0  0  0  0  0  0  0  0  0  0  0  # atno 10763 bound_to 10752
  153.5410  135.7026  153.5642 H   0  0  0  0  0  0  0  0  0  0  0  0  # atno 10764 bound_to 10752
  153.3803  135.3998  155.1817 H   0  0  0  0  0  0  0  0  0  0  0  0  # atno 10765 bound_to 10752
  141.0473  133.9742  157.2895 H   0  0  0  0  0  0  0  0  0  0  0  0  # atno 11005 bound_to 11000
  144.9916  140.8552  143.5336 LP  0  0  0  0  0  0  0  0  0  0  0  0  # atno 17320 bound_to 7965
  145.1840  139.2336  143.5277 LP  0  0  0  0  0  0  0  0  0  0  0  0  # atno 17321 bound_to 7965
  139.5679  144.7446  151.3971 LP  0  0  0  0  0  0  0  0  0  0  0  0  # atno 17342 bound_to 10162
  140.6985  143.7689  150.7365 LP  0  0  0  0  0  0  0  0  0  0  0  0  # atno 17343 bound_to 10162
  156.4312  130.7816  151.2836 LP  0  0  0  0  0  0  0  0  0  0  0  0  # atno 17370 bound_to 10713
  157.7505  131.0153  150.3500 LP  0  0  0  0  0  0  0  0  0  0  0  0  # atno 17371 bound_to 10713
  139.9322  135.0199  156.8438 LP  0  0  0  0  0  0  0  0  0  0  0  0  # atno 17394 bound_to 11000
  140.6122  134.0072  155.7581 LP  0  0  0  0  0  0  0  0  0  0  0  0  # atno 17395 bound_to 11000

$$$$
