AV-unprocessed.smi:2428|AV-procd|sdf|9580|dock4
  -GOLD-   2272013213D 1   1.00000     0.00000
 Structure written by MMmdl.
 30 31  0  0  0  0  0  0  0  0  1 V2000
  151.8741  145.4115  159.2192 F   0  0  0  0  0  0  0  0  0  0  0  0
  151.2718  144.4133  159.8660 C   0  0  0  0  0  0  0  0  0  0  0  0
  151.8617  144.2640  161.0524 F   0  0  0  0  0  0  0  0  0  0  0  0
  149.9941  144.7372  160.0612 F   0  0  0  0  0  0  0  0  0  0  0  0
  151.3464  143.1407  159.0382 C   0  0  0  0  0  0  0  0  0  0  0  0
  152.1258  142.0498  159.4741 C   0  0  0  0  0  0  0  0  0  0  0  0
  152.1778  140.8859  158.6831 C   0  0  0  0  0  0  0  0  0  0  0  0
  151.4463  140.8493  157.4779 C   0  0  0  0  0  0  0  0  0  0  0  0
  151.5024  139.6862  156.6961 N   0  0  0  0  0  0  0  0  0  0  0  0
  151.5248  139.7579  155.2400 C   0  0  0  0  0  0  0  0  0  0  0  0
  150.1114  139.7714  154.6345 C   0  0  2  0  0  0  0  0  0  0  0  0
  149.4443  141.1434  154.6798 C   0  0  0  0  0  0  0  0  0  0  0  0
  147.9637  140.8135  154.5926 C   0  0  0  0  0  0  0  0  0  0  0  0
  147.8862  139.3451  155.0218 C   0  0  0  0  0  0  0  0  0  0  0  0
  149.2091  138.9897  155.4016 O   0  0  0  0  0  0  0  0  0  0  0  0
  150.7048  141.8979  157.0491 N   0  0  0  0  0  0  0  0  0  0  0  0
  150.6575  143.0103  157.8129 C   0  0  0  0  0  0  0  0  0  0  0  0
  152.6770  142.1030  160.4015 H   0  0  0  0  0  0  0  0  0  0  0  0
  152.7676  140.0383  159.0008 H   0  0  0  0  0  0  0  0  0  0  0  0
  151.2231  138.8125  157.1178 H   0  0  0  0  0  0  0  0  0  0  0  0
  152.1093  140.6100  154.8917 H   0  0  0  0  0  0  0  0  0  0  0  0
  152.0512  138.8698  154.8900 H   0  0  0  0  0  0  0  0  0  0  0  0
  150.1271  139.4046  153.6061 H   0  0  0  0  0  0  0  0  0  0  0  0
  149.6549  141.6317  155.6323 H   0  0  0  0  0  0  0  0  0  0  0  0
  149.7808  141.8038  153.8804 H   0  0  0  0  0  0  0  0  0  0  0  0
  147.3718  141.4632  155.2378 H   0  0  0  0  0  0  0  0  0  0  0  0
  147.5972  140.9284  153.5721 H   0  0  0  0  0  0  0  0  0  0  0  0
  147.1939  139.1885  155.8491 H   0  0  0  0  0  0  0  0  0  0  0  0
  147.5682  138.7178  154.1881 H   0  0  0  0  0  0  0  0  0  0  0  0
  150.0523  143.8165  157.4259 H   0  0  0  0  0  0  0  0  0  0  0  0
  1  2  1  0  0  0  0
  2  3  1  0  0  0  0
  2  4  1  0  0  0  0
  2  5  1  0  0  0  0
  5 17  1  0  0  0  0
  5  6  2  0  0  0  0
  6  7  1  0  0  0  0
  6 18  1  0  0  0  0
  7  8  2  0  0  0  0
  7 19  1  0  0  0  0
  8  9  1  0  0  0  0
  8 16  1  0  0  0  0
  9 10  1  0  0  0  0
  9 20  1  0  0  0  0
 10 11  1  0  0  0  0
 10 21  1  0  0  0  0
 10 22  1  0  0  0  0
 11 15  1  0  0  0  0
 11 12  1  0  0  0  0
 11 23  1  0  0  0  0
 12 13  1  0  0  0  0
 12 24  1  0  0  0  0
 12 25  1  0  0  0  0
 13 14  1  0  0  0  0
 13 26  1  0  0  0  0
 13 27  1  0  0  0  0
 14 15  1  0  0  0  0
 14 28  1  0  0  0  0
 14 29  1  0  0  0  0
 16 17  2  0  0  0  0
 17 30  1  0  0  0  0
M  END
> <s_m_source_file>
AV-unprocessed.smi

> <i_m_source_file_index>
2428

> <i_lp_mmshare_version>
43012

> <i_f3d_flags>
0

> <s_epik_input>
RkMoRikoRiljMVtjSF1bY0hdYyhuW2NIXTEpW05IXVtDSDJdW0NAQEhdMltDSDJdW0NIMl1bQ0gyXU8y

> <s_epik_cmdline>
J2VwaWtfcHl0aG9uJywgJy1waCcsICc3LjAnLCAnLXRuJywgJzgnLCAnLW1hJywgJzIwMCcsICctbWV0YWxfYmluZGluZycsICctaW1hZScsICc8aW5maWxlLm1hZT4nLCAnLW9tYWUnLCAnPG91dGZpbGUubWFlPic=

> <r_lp_tautomer_probability>
1

> <r_epik_Ionization_Penalty>
0.000819842

> <r_epik_Ionization_Penalty_Charging>
0

> <r_epik_Ionization_Penalty_Neutral>
0.000819842

> <r_epik_State_Penalty>
0.000527207

> <r_epik_Charging_Adjusted_Penalty>
0.000527207

> <i_epik_Tot_Q>
0

> <i_epik_Tot_abs_Q>
0

> <r_epik_Metal_State_Penalty>
-0

> <b_epik_Metal_Only>
0

> <s_lp_Force_Field>
OPLS_2005

> <r_lp_Energy>
19.3564

> <b_lp_Chiralities_Consistent>
1

> <s_lp_Variant>
AV-unprocessed.smi:2428-1

> <Gold.Version>
5.8.1

> <Gold.Id.Protein>
6NUR|6NUR_protein|mol2

> <Gold.PLP.Fitness>
37.5142

> <Gold.PLP.PLP>
-36.8999

> <Gold.PLP.part.hbond>
0.0000

> <Gold.PLP.part.metal>
0.0000

> <Gold.PLP.part.buried>
-4.1304

> <Gold.PLP.part.nonpolar>
-32.9119

> <Gold.PLP.part.repulsive>
0.2004

> <Gold.PLP.ligand.clash>
0.6572

> <Gold.PLP.ligand.torsion>
0.8805

> <Gold.PLP.Chemscore.Hbond>
0.0000

> <Gold.PLP.Chemscore.CHOScore>
1.0000

> <Gold.PLP.Chemscore.Metal>
0.0000

> <Gold.Chemscore.Hbonds>
donor molecule, donor type, donor heavy atom, donor atom, acceptor molecule, acceptor atom, score
      L1  C    17    30       P1  8028  1.00

> <Gold.PLP.Chemscore.Internal.Correction>
0.0324

> <Gold.Rescore>
     Score         DG    S(hbond)    S(metal)    S(lipo)     H(rot)  DE(clash)    DE(int)     intcor
      9.24     -11.55       0.00        0.00      79.23       1.25       0.04       2.27       ----

> <Gold.Chemscore.Fitness>
9.2395

> <Gold.Chemscore.DG>
-11.5460

> <Gold.Chemscore.ZeroCoef>
-5.4800

> <Gold.Chemscore.Hbond>
0.0000

> <Gold.Chemscore.Metal>
0.0000

> <Gold.Chemscore.Lipo>
79.2267

> <Gold.Chemscore.Internal_Hbond>
0.0000

> <Gold.Chemscore.DEClash>
0.0387

> <Gold.Chemscore.DEInternal>
2.2678

> <Gold.Chemscore.Rot>
1.2514

> <Gold.Chemscore.Internal.Correction>
   9.000000E+99

> <Gold.Chemscore.Hbond.Weighted>
-0.0000

> <Gold.Chemscore.Metal.Weighted>
-0.0000

> <Gold.Chemscore.Lipo.Weighted>
-9.2695

> <Gold.Chemscore.Internal_Hbond.Weighted>
0.0000

> <Gold.Chemscore.DEClash.Weighted>
0.0387

> <Gold.Chemscore.DEInternal.Weighted>
2.2678

> <Gold.Chemscore.Rot.Weighted>
3.2036

> <Gold.Chemscore.Internal.Correction.Weighted>
   9.000000E+99

> <Gold.Protein.RotatedTorsions>
[ 6907 6896 6895 6894 ] final   94.04 input  -60.11 | X-H torsion
[ 7974 7965 7964 7962 ] final   57.36 input  175.53 | X-H torsion
[ 8008 7997 7996 7995 ] final  121.25 input   59.86 | X-H torsion
[ 10167 10162 10161 10158 ] final  163.82 input  -65.29 | X-H torsion
[ 10718 10713 10712 10709 ] final   59.04 input   66.30 | X-H torsion
[ 10763 10752 10751 10750 ] final   76.92 input  -60.55 | X-H torsion
[ 11005 11000 10999 10996 ] final  140.99 input  -57.11 | X-H torsion

> <Gold.Protein.ActiveResidues>
 VAL166  LYS551  ARG553  GLY616  TRP617  ASP618  TYR619  PRO620  LYS621  CYS622 
 ASP623  PHE694  ASN695  SER759  ASP760  ASP761  ALA762  ILE779  LEU786  VAL792 
 PHE793  MET794  SER795  GLU796  ALA797  LYS798  CYS799  TRP800  GLU811  SER814 

> <Gold.Protein.RotatedAtoms>
  152.5451  134.1255  159.8416 H   0  0  0  0  0  0  0  0  0  0  0  0  # atno 6907 bound_to 6896
  151.1306  133.5032  159.2606 H   0  0  0  0  0  0  0  0  0  0  0  0  # atno 6908 bound_to 6896
  151.1679  135.0314  159.8793 H   0  0  0  0  0  0  0  0  0  0  0  0  # atno 6909 bound_to 6896
  145.9298  139.3798  143.0428 H   0  0  0  0  0  0  0  0  0  0  0  0  # atno 7974 bound_to 7965
  156.2678  140.2812  156.1279 H   0  0  0  0  0  0  0  0  0  0  0  0  # atno 8008 bound_to 7997
  155.1086  140.0390  157.2735 H   0  0  0  0  0  0  0  0  0  0  0  0  # atno 8009 bound_to 7997
  154.6760  140.2598  155.6963 H   0  0  0  0  0  0  0  0  0  0  0  0  # atno 8010 bound_to 7997
  139.4879  144.4298  151.9085 H   0  0  0  0  0  0  0  0  0  0  0  0  # atno 10167 bound_to 10162
  157.5644  130.8860  149.9164 H   0  0  0  0  0  0  0  0  0  0  0  0  # atno 10718 bound_to 10713
  153.0761  135.4933  154.8406 H   0  0  0  0  0  0  0  0  0  0  0  0  # atno 10763 bound_to 10752
  154.7088  135.3016  154.9231 H   0  0  0  0  0  0  0  0  0  0  0  0  # atno 10764 bound_to 10752
  153.9931  135.6775  153.4808 H   0  0  0  0  0  0  0  0  0  0  0  0  # atno 10765 bound_to 10752
  140.0368  134.9325  157.0768 H   0  0  0  0  0  0  0  0  0  0  0  0  # atno 11005 bound_to 11000
  145.8440  140.9565  143.0784 LP  0  0  0  0  0  0  0  0  0  0  0  0  # atno 17320 bound_to 7965
  144.6763  140.0322  143.7482 LP  0  0  0  0  0  0  0  0  0  0  0  0  # atno 17321 bound_to 7965
  140.3745  144.2814  150.5916 LP  0  0  0  0  0  0  0  0  0  0  0  0  # atno 17342 bound_to 10162
  140.5289  143.2248  151.8270 LP  0  0  0  0  0  0  0  0  0  0  0  0  # atno 17343 bound_to 10162
  156.0694  130.3687  150.0809 LP  0  0  0  0  0  0  0  0  0  0  0  0  # atno 17370 bound_to 10713
  156.8969  130.9607  151.3581 LP  0  0  0  0  0  0  0  0  0  0  0  0  # atno 17371 bound_to 10713
  140.4134  134.1957  155.7163 LP  0  0  0  0  0  0  0  0  0  0  0  0  # atno 17394 bound_to 11000
  141.1862  133.8308  157.1078 LP  0  0  0  0  0  0  0  0  0  0  0  0  # atno 17395 bound_to 11000

$$$$
