AV-unprocessed.smi:1762|AV-procd|sdf|7109|dock1
  -GOLD-   22720 8333D 1   1.00000     0.00000
 Structure written by MMmdl.
 53 54  0  0  0  0  0  0  0  0  2 V2000
  145.5145  136.3032  155.4276 C   0  0  0  0  0  0  0  0  0  0  0  0
  146.4847  136.2242  154.2354 C   0  0  1  0  0  0  0  0  0  0  0  0
  146.9829  137.6038  153.7607 C   0  0  0  0  0  0  0  0  0  0  0  0
  147.9619  138.2165  154.6678 N   0  0  0  0  0  0  0  0  0  0  0  0
  148.4105  139.5631  154.2136 C   0  0  2  0  0  0  0  0  0  0  0  0
  149.6113  140.1088  155.0218 C   0  0  0  0  0  0  0  0  0  0  0  0
  150.7079  140.2639  154.4832 O   0  0  0  0  0  0  0  0  0  0  0  0
  149.3788  140.4260  156.3055 N   0  0  0  0  0  0  0  0  0  0  0  0
  150.3673  140.9860  157.2184 C   0  0  0  0  0  0  0  0  0  0  0  0
  150.8319  142.3790  156.7604 C   0  0  0  0  0  0  0  0  0  0  0  0
  151.1507  143.2907  157.9288 C   0  0  0  0  0  0  0  0  0  0  0  0
  152.1255  142.9590  158.8947 C   0  0  0  0  0  0  0  0  0  0  0  0
  152.3697  143.8495  159.9611 C   0  0  0  0  0  0  0  0  0  0  0  0
  151.6337  145.0499  160.0402 C   0  0  0  0  0  0  0  0  0  0  0  0
  150.6707  145.3301  159.0495 C   0  0  0  0  0  0  0  0  0  0  0  0
  150.4661  144.4520  158.0430 N   0  3  0  0  0  0  0  0  0  0  0  0
  147.2770  140.6387  154.1092 C   0  0  0  0  0  0  0  0  0  0  0  0
  147.8010  142.0889  154.1362 C   0  0  0  0  0  0  0  0  0  0  0  0
  146.1465  140.4578  155.1414 C   0  0  0  0  0  0  0  0  0  0  0  0
  149.0539  137.2543  154.8927 C   0  0  0  0  0  0  0  0  0  0  0  0
  148.5522  135.8929  155.4077 C   0  0  2  0  0  0  0  0  0  0  0  0
  149.6863  134.8702  155.5411 C   0  0  0  0  0  0  0  0  0  0  0  0
  147.5890  135.3637  154.5032 O   0  0  0  0  0  0  0  0  0  0  0  0
  144.6162  136.8595  155.1593 H   0  0  0  0  0  0  0  0  0  0  0  0
  145.9593  136.8037  156.2876 H   0  0  0  0  0  0  0  0  0  0  0  0
  145.2039  135.3070  155.7429 H   0  0  0  0  0  0  0  0  0  0  0  0
  145.9361  135.7657  153.4120 H   0  0  0  0  0  0  0  0  0  0  0  0
  147.4235  137.4975  152.7680 H   0  0  0  0  0  0  0  0  0  0  0  0
  146.1055  138.2360  153.6418 H   0  0  0  0  0  0  0  0  0  0  0  0
  148.7825  139.4356  153.1946 H   0  0  0  0  0  0  0  0  0  0  0  0
  148.4498  140.2728  156.6707 H   0  0  0  0  0  0  0  0  0  0  0  0
  149.9158  141.0482  158.2089 H   0  0  0  0  0  0  0  0  0  0  0  0
  151.2180  140.3079  157.3064 H   0  0  0  0  0  0  0  0  0  0  0  0
  151.7176  142.2947  156.1290 H   0  0  0  0  0  0  0  0  0  0  0  0
  150.0616  142.8468  156.1453 H   0  0  0  0  0  0  0  0  0  0  0  0
  152.6796  142.0342  158.8212 H   0  0  0  0  0  0  0  0  0  0  0  0
  153.1124  143.6143  160.7094 H   0  0  0  0  0  0  0  0  0  0  0  0
  151.8060  145.7454  160.8489 H   0  0  0  0  0  0  0  0  0  0  0  0
  150.0631  146.2231  159.0316 H   0  0  0  0  0  0  0  0  0  0  0  0
  146.8226  140.5455  153.1243 H   0  0  0  0  0  0  0  0  0  0  0  0
  148.1847  142.3695  155.1175 H   0  0  0  0  0  0  0  0  0  0  0  0
  147.0060  142.7930  153.8889 H   0  0  0  0  0  0  0  0  0  0  0  0
  148.6007  142.2326  153.4091 H   0  0  0  0  0  0  0  0  0  0  0  0
  146.4913  140.6366  156.1594 H   0  0  0  0  0  0  0  0  0  0  0  0
  145.7249  139.4534  155.1034 H   0  0  0  0  0  0  0  0  0  0  0  0
  145.3317  141.1560  154.9487 H   0  0  0  0  0  0  0  0  0  0  0  0
  149.6151  137.1133  153.9672 H   0  0  0  0  0  0  0  0  0  0  0  0
  149.7631  137.6209  155.6337 H   0  0  0  0  0  0  0  0  0  0  0  0
  148.0960  136.0225  156.3896 H   0  0  0  0  0  0  0  0  0  0  0  0
  150.4509  135.2190  156.2358 H   0  0  0  0  0  0  0  0  0  0  0  0
  150.1661  134.6842  154.5798 H   0  0  0  0  0  0  0  0  0  0  0  0
  149.3088  133.9182  155.9145 H   0  0  0  0  0  0  0  0  0  0  0  0
  149.7643  144.6751  157.3369 H   0  0  0  0  0  0  0  0  0  0  0  0
  1  2  1  0  0  0  0
  1 24  1  0  0  0  0
  1 25  1  0  0  0  0
  1 26  1  0  0  0  0
  2 23  1  0  0  0  0
  2  3  1  0  0  0  0
  2 27  1  0  0  0  0
  3  4  1  0  0  0  0
  3 28  1  0  0  0  0
  3 29  1  0  0  0  0
  4  5  1  0  0  0  0
  4 20  1  0  0  0  0
  5  6  1  0  0  0  0
  5 17  1  0  0  0  0
  5 30  1  0  0  0  0
  6  7  2  0  0  0  0
  6  8  1  0  0  0  0
  8  9  1  0  0  0  0
  8 31  1  0  0  0  0
  9 10  1  0  0  0  0
  9 32  1  0  0  0  0
  9 33  1  0  0  0  0
 10 11  1  0  0  0  0
 10 34  1  0  0  0  0
 10 35  1  0  0  0  0
 11 16  1  0  0  0  0
 11 12  2  0  0  0  0
 12 13  1  0  0  0  0
 12 36  1  0  0  0  0
 13 14  2  0  0  0  0
 13 37  1  0  0  0  0
 14 15  1  0  0  0  0
 14 38  1  0  0  0  0
 15 16  2  0  0  0  0
 15 39  1  0  0  0  0
 16 53  1  0  0  0  0
 17 18  1  0  0  0  0
 17 19  1  0  0  0  0
 17 40  1  0  0  0  0
 18 41  1  0  0  0  0
 18 42  1  0  0  0  0
 18 43  1  0  0  0  0
 19 44  1  0  0  0  0
 19 45  1  0  0  0  0
 19 46  1  0  0  0  0
 20 21  1  0  0  0  0
 20 47  1  0  0  0  0
 20 48  1  0  0  0  0
 21 22  1  0  0  0  0
 21 23  1  0  0  0  0
 21 49  1  0  0  0  0
 22 50  1  0  0  0  0
 22 51  1  0  0  0  0
 22 52  1  0  0  0  0
M  CHG  1  16   1
M  END
> <s_m_source_file>
AV-unprocessed.smi

> <i_m_source_file_index>
1762

> <i_lp_mmshare_version>
43012

> <i_f3d_flags>
0

> <s_epik_input>
W0NIM11bQ0BASF0xW0NIMl1OKFtDSDJdW0NASF0oTzEpW0NIM10pW0NAQEhdKFtDSF0oW0NIM10pW0NIM10pQyg9TylbTkhdW0NIMl1bQ0gyXWMyW2NIXVtjSF1bY0hdW2NIXW4y

> <s_epik_cmdline>
J2VwaWtfcHl0aG9uJywgJy1waCcsICc3LjAnLCAnLXRuJywgJzgnLCAnLW1hJywgJzIwMCcsICctbWV0YWxfYmluZGluZycsICctaW1hZScsICc8aW5maWxlLm1hZT4nLCAnLW9tYWUnLCAnPG91dGZpbGUubWFlPic=

> <r_epik_Ionization_Penalty>
1.86475

> <r_epik_Ionization_Penalty_Charging>
1.85347

> <r_epik_Ionization_Penalty_Neutral>
0.0112771

> <r_epik_State_Penalty>
1.99714

> <r_epik_Charging_Adjusted_Penalty>
3.85061

> <i_epik_Tot_Q>
1

> <i_epik_Tot_abs_Q>
1

> <r_epik_Metal_State_Penalty>
2.02271

> <b_epik_Metal_Only>
0

> <s_lp_Force_Field>
OPLS_2005

> <r_lp_Energy>
35.2583

> <b_lp_Chiralities_Consistent>
1

> <s_lp_Variant>
AV-unprocessed.smi:1762-11

> <Gold.Version>
5.8.1

> <Gold.Id.Protein>
6NUR|6NUR_protein|mol2

> <Gold.PLP.Fitness>
44.2015

> <Gold.PLP.PLP>
-36.9965

> <Gold.PLP.part.hbond>
-2.2449

> <Gold.PLP.part.metal>
0.0000

> <Gold.PLP.part.buried>
-4.8870

> <Gold.PLP.part.nonpolar>
-29.7296

> <Gold.PLP.part.repulsive>
0.3841

> <Gold.PLP.ligand.clash>
0.0000

> <Gold.PLP.ligand.torsion>
1.1078

> <Gold.PLP.Chemscore.Hbond>
3.0000

> <Gold.PLP.Chemscore.CHOScore>
0.0000

> <Gold.PLP.Chemscore.Metal>
0.0000

> <Gold.Chemscore.Hbonds>
donor molecule, donor type, donor heavy atom, donor atom, acceptor molecule, acceptor atom, score
      L1  H    16    53       P1  8028  1.40
      P1  H  7989  7998       L1     7  0.88

> <Gold.PLP.Chemscore.Internal.Correction>
0.4206

> <Gold.Rescore>
     Score         DG    S(hbond)    S(metal)    S(lipo)     H(rot)  DE(clash)    DE(int)     intcor
     18.17     -19.65       1.93        0.00     103.56       1.72       0.18       1.30       ----

> <Gold.Chemscore.Fitness>
18.1670

> <Gold.Chemscore.DG>
-19.6487

> <Gold.Chemscore.ZeroCoef>
-5.4800

> <Gold.Chemscore.Hbond>
1.9307

> <Gold.Chemscore.Metal>
0.0000

> <Gold.Chemscore.Lipo>
103.5608

> <Gold.Chemscore.Internal_Hbond>
0.0000

> <Gold.Chemscore.DEClash>
0.1777

> <Gold.Chemscore.DEInternal>
1.3040

> <Gold.Chemscore.Rot>
1.7174

> <Gold.Chemscore.Internal.Correction>
   9.000000E+99

> <Gold.Chemscore.Hbonds>
donor molecule, donor type, donor heavy atom, donor atom, acceptor molecule, acceptor atom, score
      L1  H    16    53       P1  8028  0.07
      P1  H  7989  7998       L1     7  0.85

> <Gold.Chemscore.Hbond.Weighted>
-6.4487

> <Gold.Chemscore.Metal.Weighted>
-0.0000

> <Gold.Chemscore.Lipo.Weighted>
-12.1166

> <Gold.Chemscore.Internal_Hbond.Weighted>
0.0000

> <Gold.Chemscore.DEClash.Weighted>
0.1777

> <Gold.Chemscore.DEInternal.Weighted>
1.3040

> <Gold.Chemscore.Rot.Weighted>
4.3966

> <Gold.Chemscore.Internal.Correction.Weighted>
   9.000000E+99

> <Gold.Protein.RotatedTorsions>
[ 6907 6896 6895 6894 ] final -126.58 input  -60.11 | X-H torsion
[ 7974 7965 7964 7962 ] final  170.54 input  175.53 | X-H torsion
[ 8008 7997 7996 7995 ] final  134.47 input   59.86 | X-H torsion
[ 10167 10162 10161 10158 ] final  -93.75 input  -65.29 | X-H torsion
[ 10718 10713 10712 10709 ] final   92.20 input   66.30 | X-H torsion
[ 10763 10752 10751 10750 ] final  172.02 input  -60.55 | X-H torsion
[ 11005 11000 10999 10996 ] final   17.60 input  -57.11 | X-H torsion

> <Gold.Protein.ActiveResidues>
 VAL166  LYS551  ARG553  GLY616  TRP617  ASP618  TYR619  PRO620  LYS621  CYS622 
 ASP623  PHE694  ASN695  SER759  ASP760  ASP761  ALA762  ILE779  LEU786  VAL792 
 PHE793  MET794  SER795  GLU796  ALA797  LYS798  CYS799  TRP800  GLU811  SER814 

> <Gold.Protein.RotatedAtoms>
  150.8984  133.7151  159.2885 H   0  0  0  0  0  0  0  0  0  0  0  0  # atno 6907 bound_to 6896
  151.4678  135.1042  159.9752 H   0  0  0  0  0  0  0  0  0  0  0  0  # atno 6908 bound_to 6896
  152.4862  133.8331  159.7169 H   0  0  0  0  0  0  0  0  0  0  0  0  # atno 6909 bound_to 6896
  144.7320  139.9218  143.6420 H   0  0  0  0  0  0  0  0  0  0  0  0  # atno 7974 bound_to 7965
  156.2999  140.2495  156.3423 H   0  0  0  0  0  0  0  0  0  0  0  0  # atno 8008 bound_to 7997
  154.9044  140.0405  157.1930 H   0  0  0  0  0  0  0  0  0  0  0  0  # atno 8009 bound_to 7997
  154.8468  140.2899  155.5628 H   0  0  0  0  0  0  0  0  0  0  0  0  # atno 8010 bound_to 7997
  140.3215  143.3046  152.0041 H   0  0  0  0  0  0  0  0  0  0  0  0  # atno 10167 bound_to 10162
  157.6959  131.0435  150.3845 H   0  0  0  0  0  0  0  0  0  0  0  0  # atno 10718 bound_to 10713
  154.4202  135.2757  155.1980 H   0  0  0  0  0  0  0  0  0  0  0  0  # atno 10763 bound_to 10752
  154.3929  135.6062  153.5857 H   0  0  0  0  0  0  0  0  0  0  0  0  # atno 10764 bound_to 10752
  152.9833  135.5908  154.4497 H   0  0  0  0  0  0  0  0  0  0  0  0  # atno 10765 bound_to 10752
  140.4341  134.1389  155.7683 H   0  0  0  0  0  0  0  0  0  0  0  0  # atno 11005 bound_to 11000
  146.0924  139.3914  143.0397 LP  0  0  0  0  0  0  0  0  0  0  0  0  # atno 17320 bound_to 7965
  145.7693  140.9903  143.1158 LP  0  0  0  0  0  0  0  0  0  0  0  0  # atno 17321 bound_to 7965
  139.4873  144.6307  151.7075 LP  0  0  0  0  0  0  0  0  0  0  0  0  # atno 17342 bound_to 10162
  140.5479  144.0473  150.6115 LP  0  0  0  0  0  0  0  0  0  0  0  0  # atno 17343 bound_to 10162
  156.4255  130.3961  149.6795 LP  0  0  0  0  0  0  0  0  0  0  0  0  # atno 17370 bound_to 10713
  156.4031  130.7685  151.2693 LP  0  0  0  0  0  0  0  0  0  0  0  0  # atno 17371 bound_to 10713
  141.1733  133.8565  157.1502 LP  0  0  0  0  0  0  0  0  0  0  0  0  # atno 17394 bound_to 11000
  140.0114  134.9986  157.0402 LP  0  0  0  0  0  0  0  0  0  0  0  0  # atno 17395 bound_to 11000

$$$$
