AV-unprocessed.smi:745|AV-procd|sdf|3573|dock8
  -GOLD-   22720 0563D 1   1.00000     0.00000
 Structure written by MMmdl.
 42 43  0  0  0  0  0  0  0  0  2 V2000
  152.2889  138.4579  154.4480 C   0  0  0  0  0  0  0  0  0  0  0  0
  151.6246  138.3219  155.8292 C   0  0  1  0  0  0  0  0  0  0  0  0
  151.2460  139.6639  156.2744 N   0  0  0  0  0  0  0  0  0  0  0  0
  151.7919  140.3374  157.2990 C   0  0  0  0  0  0  0  0  0  0  0  0
  152.6699  139.8736  158.0271 O   0  0  0  0  0  0  0  0  0  0  0  0
  151.2490  141.5617  157.4186 N   0  0  0  0  0  0  0  0  0  0  0  0
  151.5507  142.5660  158.3768 C   0  0  0  0  0  0  0  0  0  0  0  0
  151.5684  143.8866  157.8741 C   0  0  0  0  0  0  0  0  0  0  0  0
  151.8570  144.9556  158.7445 C   0  0  0  0  0  0  0  0  0  0  0  0
  152.1205  144.6761  160.0973 C   0  0  0  0  0  0  0  0  0  0  0  0
  152.0819  143.3335  160.5163 C   0  0  0  0  0  0  0  0  0  0  0  0
  151.8049  142.3075  159.6840 N   0  0  0  0  0  0  0  0  0  0  0  0
  150.3996  137.3651  155.8344 C   0  0  2  0  0  0  0  0  0  0  0  0
  150.7384  135.9636  155.2734 C   0  0  0  0  0  0  0  0  0  0  0  0
  149.5099  135.0405  155.2332 C   0  0  0  0  0  0  0  0  0  0  0  0
  148.4125  135.6518  154.4475 N   0  3  1  0  0  0  0  0  0  0  0  0
  147.2618  134.7389  154.2784 C   0  0  0  0  0  0  0  0  0  0  0  0
  148.0148  136.9678  155.0000 C   0  0  0  0  0  0  0  0  0  0  0  0
  149.2090  137.9357  155.0316 C   0  0  0  0  0  0  0  0  0  0  0  0
  152.7361  137.5210  154.1177 H   0  0  0  0  0  0  0  0  0  0  0  0
  153.0925  139.1950  154.4732 H   0  0  0  0  0  0  0  0  0  0  0  0
  151.5724  138.7755  153.6899 H   0  0  0  0  0  0  0  0  0  0  0  0
  152.3774  137.9142  156.5064 H   0  0  0  0  0  0  0  0  0  0  0  0
  150.5263  140.1276  155.7393 H   0  0  0  0  0  0  0  0  0  0  0  0
  150.5393  141.8061  156.7441 H   0  0  0  0  0  0  0  0  0  0  0  0
  151.3637  144.0837  156.8317 H   0  0  0  0  0  0  0  0  0  0  0  0
  151.8758  145.9718  158.3793 H   0  0  0  0  0  0  0  0  0  0  0  0
  152.3457  145.4691  160.7950 H   0  0  0  0  0  0  0  0  0  0  0  0
  152.2775  143.0758  161.5467 H   0  0  0  0  0  0  0  0  0  0  0  0
  150.0756  137.2389  156.8690 H   0  0  0  0  0  0  0  0  0  0  0  0
  151.1536  136.0602  154.2691 H   0  0  0  0  0  0  0  0  0  0  0  0
  151.5068  135.4823  155.8781 H   0  0  0  0  0  0  0  0  0  0  0  0
  149.7894  134.0848  154.7876 H   0  0  0  0  0  0  0  0  0  0  0  0
  149.1635  134.8298  156.2463 H   0  0  0  0  0  0  0  0  0  0  0  0
  146.8063  134.5008  155.2406 H   0  0  0  0  0  0  0  0  0  0  0  0
  147.5762  133.8069  153.8077 H   0  0  0  0  0  0  0  0  0  0  0  0
  146.5012  135.1925  153.6421 H   0  0  0  0  0  0  0  0  0  0  0  0
  147.2182  137.3946  154.3893 H   0  0  0  0  0  0  0  0  0  0  0  0
  147.6090  136.8371  156.0046 H   0  0  0  0  0  0  0  0  0  0  0  0
  148.8721  138.8784  155.4617 H   0  0  0  0  0  0  0  0  0  0  0  0
  149.5249  138.1569  154.0109 H   0  0  0  0  0  0  0  0  0  0  0  0
  148.7804  135.8248  153.5228 H   0  0  0  0  0  0  0  0  0  0  0  0
  1  2  1  0  0  0  0
  1 20  1  0  0  0  0
  1 21  1  0  0  0  0
  1 22  1  0  0  0  0
  2  3  1  0  0  0  0
  2 13  1  0  0  0  0
  2 23  1  0  0  0  0
  3  4  1  0  0  0  0
  3 24  1  0  0  0  0
  4  5  2  0  0  0  0
  4  6  1  0  0  0  0
  6  7  1  0  0  0  0
  6 25  1  0  0  0  0
  7 12  1  0  0  0  0
  7  8  2  0  0  0  0
  8  9  1  0  0  0  0
  8 26  1  0  0  0  0
  9 10  2  0  0  0  0
  9 27  1  0  0  0  0
 10 11  1  0  0  0  0
 10 28  1  0  0  0  0
 11 12  2  0  0  0  0
 11 29  1  0  0  0  0
 13 19  1  0  0  0  0
 13 14  1  0  0  0  0
 13 30  1  0  0  0  0
 14 15  1  0  0  0  0
 14 31  1  0  0  0  0
 14 32  1  0  0  0  0
 15 16  1  0  0  0  0
 15 33  1  0  0  0  0
 15 34  1  0  0  0  0
 16 17  1  0  0  0  0
 16 18  1  0  0  0  0
 16 42  1  0  0  0  0
 17 35  1  0  0  0  0
 17 36  1  0  0  0  0
 17 37  1  0  0  0  0
 18 19  1  0  0  0  0
 18 38  1  0  0  0  0
 18 39  1  0  0  0  0
 19 40  1  0  0  0  0
 19 41  1  0  0  0  0
M  CHG  1  16   1
M  END
> <s_m_source_file>
AV-unprocessed.smi

> <i_m_source_file_index>
745

> <i_lp_mmshare_version>
43012

> <i_f3d_flags>
0

> <s_epik_input>
W0NIMl0xW0NIMl1OKFtDSDNdKVtDSDJdW0NIMl1bQ0hdMVtDQEhdKFtDSDNdKVtOSF1DKD1PKVtOSF1jMltjSF1bY0hdW2NIXVtjSF1uMg==

> <s_epik_cmdline>
J2VwaWtfcHl0aG9uJywgJy1waCcsICc3LjAnLCAnLXRuJywgJzgnLCAnLW1hJywgJzIwMCcsICctbWV0YWxfYmluZGluZycsICctaW1hZScsICc8aW5maWxlLm1hZT4nLCAnLW9tYWUnLCAnPG91dGZpbGUubWFlPic=

> <r_epik_Ionization_Penalty>
0.0011087

> <r_epik_Ionization_Penalty_Charging>
0.00106265

> <r_epik_Ionization_Penalty_Neutral>
4.60506e-05

> <r_epik_State_Penalty>
0.000695551

> <r_epik_Charging_Adjusted_Penalty>
0.0017582

> <i_epik_Tot_Q>
1

> <i_epik_Tot_abs_Q>
1

> <r_epik_Metal_State_Penalty>
-0

> <b_epik_Metal_Only>
0

> <s_lp_Force_Field>
OPLS_2005

> <r_lp_Energy>
20.1287

> <b_lp_Chiralities_Consistent>
1

> <s_lp_Variant>
AV-unprocessed.smi:745-2

> <Gold.Version>
5.8.1

> <Gold.Id.Protein>
6NUR|6NUR_protein|mol2

> <Gold.PLP.Fitness>
41.8783

> <Gold.PLP.PLP>
-33.6180

> <Gold.PLP.part.hbond>
-2.0000

> <Gold.PLP.part.metal>
0.0000

> <Gold.PLP.part.buried>
-5.4435

> <Gold.PLP.part.nonpolar>
-26.4051

> <Gold.PLP.part.repulsive>
0.1759

> <Gold.PLP.ligand.clash>
0.0000

> <Gold.PLP.ligand.torsion>
0.3782

> <Gold.PLP.Chemscore.Hbond>
3.0000

> <Gold.PLP.Chemscore.CHOScore>
0.0000

> <Gold.PLP.Chemscore.Metal>
0.0000

> <Gold.Chemscore.Hbonds>
donor molecule, donor type, donor heavy atom, donor atom, acceptor molecule, acceptor atom, score
      L1  H    16    42       P1  7948  2.00
      P1  H  7997  8009       L1     5  0.70

> <Gold.PLP.Chemscore.Internal.Correction>
0.0166

> <Gold.Rescore>
     Score         DG    S(hbond)    S(metal)    S(lipo)     H(rot)  DE(clash)    DE(int)     intcor
     17.18     -18.58       1.87        0.00      86.29       1.26       0.26       1.14       ----

> <Gold.Chemscore.Fitness>
17.1832

> <Gold.Chemscore.DG>
-18.5803

> <Gold.Chemscore.ZeroCoef>
-5.4800

> <Gold.Chemscore.Hbond>
1.8655

> <Gold.Chemscore.Metal>
0.0000

> <Gold.Chemscore.Lipo>
86.2866

> <Gold.Chemscore.Internal_Hbond>
0.0000

> <Gold.Chemscore.DEClash>
0.2604

> <Gold.Chemscore.DEInternal>
1.1368

> <Gold.Chemscore.Rot>
1.2601

> <Gold.Chemscore.Internal.Correction>
   9.000000E+99

> <Gold.Chemscore.Hbonds>
donor molecule, donor type, donor heavy atom, donor atom, acceptor molecule, acceptor atom, score
      L1  H    16    42       P1  7948  0.98
      P1  H  7997  8009       L1     5  0.39

> <Gold.Chemscore.Hbond.Weighted>
-6.2307

> <Gold.Chemscore.Metal.Weighted>
-0.0000

> <Gold.Chemscore.Lipo.Weighted>
-10.0955

> <Gold.Chemscore.Internal_Hbond.Weighted>
0.0000

> <Gold.Chemscore.DEClash.Weighted>
0.2604

> <Gold.Chemscore.DEInternal.Weighted>
1.1368

> <Gold.Chemscore.Rot.Weighted>
3.2260

> <Gold.Chemscore.Internal.Correction.Weighted>
   9.000000E+99

> <Gold.Protein.RotatedTorsions>
[ 6907 6896 6895 6894 ] final  -14.88 input  -60.11 | X-H torsion
[ 7974 7965 7964 7962 ] final  -99.29 input  175.53 | X-H torsion
[ 8008 7997 7996 7995 ] final  161.55 input   59.86 | X-H torsion
[ 10167 10162 10161 10158 ] final  178.54 input  -65.29 | X-H torsion
[ 10718 10713 10712 10709 ] final  -37.45 input   66.30 | X-H torsion
[ 10763 10752 10751 10750 ] final -167.42 input  -60.55 | X-H torsion
[ 11005 11000 10999 10996 ] final -132.61 input  -57.11 | X-H torsion

> <Gold.Protein.ActiveResidues>
 VAL166  LYS551  ARG553  GLY616  TRP617  ASP618  TYR619  PRO620  LYS621  CYS622 
 ASP623  PHE694  ASN695  SER759  ASP760  ASP761  ALA762  ILE779  LEU786  VAL792 
 PHE793  MET794  SER795  GLU796  ALA797  LYS798  CYS799  TRP800  GLU811  SER814 

> <Gold.Protein.RotatedAtoms>
  151.3325  135.0845  159.9343 H   0  0  0  0  0  0  0  0  0  0  0  0  # atno 6907 bound_to 6896
  152.5231  133.9528  159.7690 H   0  0  0  0  0  0  0  0  0  0  0  0  # atno 6908 bound_to 6896
  150.9869  133.6135  159.2744 H   0  0  0  0  0  0  0  0  0  0  0  0  # atno 6909 bound_to 6896
  145.3095  140.9397  143.2777 H   0  0  0  0  0  0  0  0  0  0  0  0  # atno 7974 bound_to 7965
  156.2095  140.1774  156.7726 H   0  0  0  0  0  0  0  0  0  0  0  0  # atno 8008 bound_to 7997
  154.5702  140.0684  156.8983 H   0  0  0  0  0  0  0  0  0  0  0  0  # atno 8009 bound_to 7997
  155.2686  140.3341  155.4269 H   0  0  0  0  0  0  0  0  0  0  0  0  # atno 8010 bound_to 7997
  139.5298  144.2668  152.0661 H   0  0  0  0  0  0  0  0  0  0  0  0  # atno 10167 bound_to 10162
  156.3151  130.4258  149.8013 H   0  0  0  0  0  0  0  0  0  0  0  0  # atno 10718 bound_to 10713
  154.6734  135.2943  154.9711 H   0  0  0  0  0  0  0  0  0  0  0  0  # atno 10763 bound_to 10752
  154.0731  135.6615  153.4831 H   0  0  0  0  0  0  0  0  0  0  0  0  # atno 10764 bound_to 10752
  153.0501  135.5179  154.7741 H   0  0  0  0  0  0  0  0  0  0  0  0  # atno 10765 bound_to 10752
  140.9154  134.1513  157.4356 H   0  0  0  0  0  0  0  0  0  0  0  0  # atno 11005 bound_to 11000
  144.9027  139.4629  143.6625 LP  0  0  0  0  0  0  0  0  0  0  0  0  # atno 17320 bound_to 7965
  146.3123  139.7790  142.9010 LP  0  0  0  0  0  0  0  0  0  0  0  0  # atno 17321 bound_to 7965
  140.2130  144.4544  150.6377 LP  0  0  0  0  0  0  0  0  0  0  0  0  # atno 17342 bound_to 10162
  140.6468  143.2215  151.6167 LP  0  0  0  0  0  0  0  0  0  0  0  0  # atno 17343 bound_to 10162
  156.5342  130.8271  151.3247 LP  0  0  0  0  0  0  0  0  0  0  0  0  # atno 17370 bound_to 10713
  157.7400  130.9841  150.2347 LP  0  0  0  0  0  0  0  0  0  0  0  0  # atno 17371 bound_to 10713
  139.8765  134.9951  156.5730 LP  0  0  0  0  0  0  0  0  0  0  0  0  # atno 17394 bound_to 11000
  140.8056  133.8470  155.8765 LP  0  0  0  0  0  0  0  0  0  0  0  0  # atno 17395 bound_to 11000

$$$$
