AV-unprocessed.smi:3282|AV-procd|sdf|12562|dock1
  -GOLD-   2272018483D 1   1.00000     0.00000
 Structure written by MMmdl.
 34 35  0  0  0  0  0  0  0  0  1 V2000
  149.2313  141.8012  154.4414 C   0  0  0  0  0  0  0  0  0  0  0  0
  147.9822  141.5941  155.3134 C   0  0  0  0  0  0  0  0  0  0  0  0
  147.5161  140.1304  155.3893 C   0  0  0  0  0  0  0  0  0  0  0  0
  147.5308  139.5373  156.4692 O   0  0  0  0  0  0  0  0  0  0  0  0
  147.0988  139.5350  154.2527 N   0  0  0  0  0  0  0  0  0  0  0  0
  147.0843  140.2015  152.9533 C   0  0  0  0  0  0  0  0  0  0  0  0
  146.7830  139.1115  151.9251 C   0  0  0  0  0  0  0  0  0  0  0  0
  146.0520  138.0288  152.7140 C   0  0  1  0  0  0  0  0  0  0  0  0
  146.2872  136.7027  152.1515 N   0  0  0  0  0  0  0  0  0  0  0  0
  145.3317  135.8227  151.8178 C   0  0  0  0  0  0  0  0  0  0  0  0
  144.1321  136.0799  151.9596 O   0  0  0  0  0  0  0  0  0  0  0  0
  145.8968  134.6765  151.2808 N   0  0  0  0  0  0  0  0  0  0  0  0
  145.1183  133.7252  150.8648 C   0  0  0  0  0  0  0  0  0  0  0  0
  143.7331  133.5926  150.8077 N   0  0  0  0  0  0  0  0  0  0  0  0
  143.4448  132.3741  150.2594 C   0  0  0  0  0  0  0  0  0  0  0  0
  144.5935  131.7644  149.9826 C   0  0  0  0  0  0  0  0  0  0  0  0
  145.6348  132.5668  150.3416 O   0  0  0  0  0  0  0  0  0  0  0  0
  146.6058  138.1636  154.1390 C   0  0  0  0  0  0  0  0  0  0  0  0
  149.5256  142.8509  154.4340 H   0  0  0  0  0  0  0  0  0  0  0  0
  149.0500  141.5041  153.4077 H   0  0  0  0  0  0  0  0  0  0  0  0
  150.0787  141.2253  154.8154 H   0  0  0  0  0  0  0  0  0  0  0  0
  148.1914  141.9535  156.3215 H   0  0  0  0  0  0  0  0  0  0  0  0
  147.1670  142.2023  154.9205 H   0  0  0  0  0  0  0  0  0  0  0  0
  146.2963  140.9560  152.9517 H   0  0  0  0  0  0  0  0  0  0  0  0
  148.0307  140.6994  152.7363 H   0  0  0  0  0  0  0  0  0  0  0  0
  146.2027  139.4802  151.0787 H   0  0  0  0  0  0  0  0  0  0  0  0
  147.7254  138.7228  151.5352 H   0  0  0  0  0  0  0  0  0  0  0  0
  144.9850  138.2601  152.7155 H   0  0  0  0  0  0  0  0  0  0  0  0
  147.2488  136.4356  151.9979 H   0  0  0  0  0  0  0  0  0  0  0  0
  143.0285  134.2513  151.1069 H   0  0  0  0  0  0  0  0  0  0  0  0
  142.4192  132.0651  150.1225 H   0  0  0  0  0  0  0  0  0  0  0  0
  144.8279  130.8034  149.5493 H   0  0  0  0  0  0  0  0  0  0  0  0
  147.4399  137.4790  154.3032 H   0  0  0  0  0  0  0  0  0  0  0  0
  145.8341  137.9407  154.8772 H   0  0  0  0  0  0  0  0  0  0  0  0
  1  2  1  0  0  0  0
  1 19  1  0  0  0  0
  1 20  1  0  0  0  0
  1 21  1  0  0  0  0
  2  3  1  0  0  0  0
  2 22  1  0  0  0  0
  2 23  1  0  0  0  0
  3  4  2  0  0  0  0
  3  5  1  0  0  0  0
  5 18  1  0  0  0  0
  5  6  1  0  0  0  0
  6  7  1  0  0  0  0
  6 24  1  0  0  0  0
  6 25  1  0  0  0  0
  7  8  1  0  0  0  0
  7 26  1  0  0  0  0
  7 27  1  0  0  0  0
  8  9  1  0  0  0  0
  8 18  1  0  0  0  0
  8 28  1  0  0  0  0
  9 29  1  0  0  0  0
  9 10  1  0  0  0  0
 10 12  1  0  0  0  0
 10 11  2  0  0  0  0
 12 13  2  0  0  0  0
 13 17  1  0  0  0  0
 13 14  1  0  0  0  0
 14 30  1  0  0  0  0
 14 15  1  0  0  0  0
 15 31  1  0  0  0  0
 15 16  2  0  0  0  0
 16 32  1  0  0  0  0
 16 17  1  0  0  0  0
 18 33  1  0  0  0  0
 18 34  1  0  0  0  0
M  END
> <s_m_source_file>
AV-unprocessed.smi

> <i_m_source_file_index>
3282

> <i_lp_mmshare_version>
43012

> <i_f3d_flags>
0

> <s_epik_input>
W0NIM11bQ0gyXUMoPU8pTjFbQ0gyXVtDSDJdW0NASF0oW0NIMl0xKVtOSF1DKD1PKVtOSF1jMm5bY0hdW2NIXW8y

> <s_epik_cmdline>
J2VwaWtfcHl0aG9uJywgJy1waCcsICc3LjAnLCAnLXRuJywgJzgnLCAnLW1hJywgJzIwMCcsICctbWV0YWxfYmluZGluZycsICctaW1hZScsICc8aW5maWxlLm1hZT4nLCAnLW9tYWUnLCAnPG91dGZpbGUubWFlPic=

> <r_lp_tautomer_probability>
0.107061

> <r_epik_Ionization_Penalty>
0.434703

> <r_epik_Ionization_Penalty_Charging>
0.434345

> <r_epik_Ionization_Penalty_Neutral>
0.000358141

> <r_epik_State_Penalty>
2.49584

> <r_epik_Charging_Adjusted_Penalty>
2.93019

> <i_epik_Tot_Q>
0

> <i_epik_Tot_abs_Q>
0

> <r_epik_Metal_State_Penalty>
4.06361

> <b_epik_Metal_Only>
0

> <s_lp_Force_Field>
OPLS_2005

> <r_lp_Energy>
50.3275

> <b_lp_Chiralities_Consistent>
1

> <s_lp_Variant>
AV-unprocessed.smi:3282-3

> <Gold.Version>
5.8.1

> <Gold.Id.Protein>
6NUR|6NUR_protein|mol2

> <Gold.PLP.Fitness>
33.7469

> <Gold.PLP.PLP>
-25.6149

> <Gold.PLP.part.hbond>
-2.0000

> <Gold.PLP.part.metal>
0.0000

> <Gold.PLP.part.buried>
1.6631

> <Gold.PLP.part.nonpolar>
-26.4152

> <Gold.PLP.part.repulsive>
1.5420

> <Gold.PLP.ligand.clash>
0.0000

> <Gold.PLP.ligand.torsion>
0.0545

> <Gold.PLP.Chemscore.Hbond>
1.1560

> <Gold.PLP.Chemscore.CHOScore>
1.5869

> <Gold.PLP.Chemscore.Metal>
0.0000

> <Gold.Chemscore.Hbonds>
donor molecule, donor type, donor heavy atom, donor atom, acceptor molecule, acceptor atom, score
      L1  H     9    29       P1  7948  1.00
      L1  C    15    31       P1 10186  0.18
      L1  C    15    31       P1 10952  1.00

> <Gold.PLP.Chemscore.Internal.Correction>
0.0122

> <Gold.Rescore>
     Score         DG    S(hbond)    S(metal)    S(lipo)     H(rot)  DE(clash)    DE(int)     intcor
     12.27     -12.70       1.00        0.00      62.06       1.32       0.34       0.10       ----

> <Gold.Chemscore.Fitness>
12.2651

> <Gold.Chemscore.DG>
-12.7016

> <Gold.Chemscore.ZeroCoef>
-5.4800

> <Gold.Chemscore.Hbond>
1.0000

> <Gold.Chemscore.Metal>
0.0000

> <Gold.Chemscore.Lipo>
62.0552

> <Gold.Chemscore.Internal_Hbond>
0.0000

> <Gold.Chemscore.DEClash>
0.3404

> <Gold.Chemscore.DEInternal>
0.0961

> <Gold.Chemscore.Rot>
1.3199

> <Gold.Chemscore.Internal.Correction>
   9.000000E+99

> <Gold.Chemscore.Hbonds>
donor molecule, donor type, donor heavy atom, donor atom, acceptor molecule, acceptor atom, score
      L1  H     9    29       P1  7948  1.00

> <Gold.Chemscore.Hbond.Weighted>
-3.3400

> <Gold.Chemscore.Metal.Weighted>
-0.0000

> <Gold.Chemscore.Lipo.Weighted>
-7.2605

> <Gold.Chemscore.Internal_Hbond.Weighted>
0.0000

> <Gold.Chemscore.DEClash.Weighted>
0.3404

> <Gold.Chemscore.DEInternal.Weighted>
0.0961

> <Gold.Chemscore.Rot.Weighted>
3.3789

> <Gold.Chemscore.Internal.Correction.Weighted>
   9.000000E+99

> <Gold.Protein.RotatedTorsions>
[ 6907 6896 6895 6894 ] final   64.00 input  -60.11 | X-H torsion
[ 7974 7965 7964 7962 ] final   89.79 input  175.53 | X-H torsion
[ 8008 7997 7996 7995 ] final  158.13 input   59.86 | X-H torsion
[ 10167 10162 10161 10158 ] final  -48.04 input  -65.29 | X-H torsion
[ 10718 10713 10712 10709 ] final -125.55 input   66.30 | X-H torsion
[ 10763 10752 10751 10750 ] final -150.25 input  -60.55 | X-H torsion
[ 11005 11000 10999 10996 ] final -161.35 input  -57.11 | X-H torsion

> <Gold.Protein.ActiveResidues>
 VAL166  LYS551  ARG553  GLY616  TRP617  ASP618  TYR619  PRO620  LYS621  CYS622 
 ASP623  PHE694  ASN695  SER759  ASP760  ASP761  ALA762  ILE779  LEU786  VAL792 
 PHE793  MET794  SER795  GLU796  ALA797  LYS798  CYS799  TRP800  GLU811  SER814 

> <Gold.Protein.RotatedAtoms>
  152.4297  134.5800  159.9944 H   0  0  0  0  0  0  0  0  0  0  0  0  # atno 6907 bound_to 6896
  151.5927  133.3359  159.3039 H   0  0  0  0  0  0  0  0  0  0  0  0  # atno 6908 bound_to 6896
  150.8189  134.7423  159.6820 H   0  0  0  0  0  0  0  0  0  0  0  0  # atno 6909 bound_to 6896
  145.5277  139.2282  143.2636 H   0  0  0  0  0  0  0  0  0  0  0  0  # atno 7974 bound_to 7965
  156.2322  140.1866  156.7214 H   0  0  0  0  0  0  0  0  0  0  0  0  # atno 8008 bound_to 7997
  154.6042  140.0631  156.9436 H   0  0  0  0  0  0  0  0  0  0  0  0  # atno 8009 bound_to 7997
  155.2124  140.3301  155.4329 H   0  0  0  0  0  0  0  0  0  0  0  0  # atno 8010 bound_to 7997
  140.6749  143.2757  151.4013 H   0  0  0  0  0  0  0  0  0  0  0  0  # atno 10167 bound_to 10162
  156.1685  130.6651  151.0148 H   0  0  0  0  0  0  0  0  0  0  0  0  # atno 10718 bound_to 10713
  154.8130  135.3289  154.7254 H   0  0  0  0  0  0  0  0  0  0  0  0  # atno 10763 bound_to 10752
  153.7900  135.6912  153.4877 H   0  0  0  0  0  0  0  0  0  0  0  0  # atno 10764 bound_to 10752
  153.1923  135.4546  155.0111 H   0  0  0  0  0  0  0  0  0  0  0  0  # atno 10765 bound_to 10752
  140.6214  134.4746  157.5224 H   0  0  0  0  0  0  0  0  0  0  0  0  # atno 11005 bound_to 11000
  146.2064  140.6092  142.9079 LP  0  0  0  0  0  0  0  0  0  0  0  0  # atno 17320 bound_to 7965
  144.7642  140.5493  143.6714 LP  0  0  0  0  0  0  0  0  0  0  0  0  # atno 17321 bound_to 7965
  139.6035  144.1245  152.2224 LP  0  0  0  0  0  0  0  0  0  0  0  0  # atno 17342 bound_to 10162
  140.0637  144.5836  150.7244 LP  0  0  0  0  0  0  0  0  0  0  0  0  # atno 17343 bound_to 10162
  157.6785  131.0844  150.7431 LP  0  0  0  0  0  0  0  0  0  0  0  0  # atno 17370 bound_to 10713
  156.7491  130.4763  149.5460 LP  0  0  0  0  0  0  0  0  0  0  0  0  # atno 17371 bound_to 10713
  139.9152  134.8262  156.1391 LP  0  0  0  0  0  0  0  0  0  0  0  0  # atno 17394 bound_to 11000
  141.0739  133.6784  156.2197 LP  0  0  0  0  0  0  0  0  0  0  0  0  # atno 17395 bound_to 11000

$$$$
