AV-unprocessed.smi:527|AV-procd|sdf|2826|dock3
  -GOLD-   2262023313D 1   1.00000     0.00000
 Structure written by MMmdl.
 43 44  0  0  0  0  0  0  0  0  2 V2000
  146.8044  141.9325  154.5499 C   0  0  0  0  0  0  0  0  0  0  0  0
  148.0508  141.3638  153.8408 C   0  0  1  0  0  0  0  0  0  0  0  0
  149.2851  141.3762  154.7651 C   0  0  0  0  0  0  0  0  0  0  0  0
  149.2002  140.3019  155.8607 C   0  0  0  0  0  0  0  0  0  0  0  0
  148.9947  138.9065  155.2551 C   0  0  0  0  0  0  0  0  0  0  0  0
  147.7637  138.8563  154.3252 C   0  0  2  0  0  0  0  0  0  0  0  0
  147.6622  137.5318  153.7142 N   0  0  0  0  0  0  0  0  0  0  0  0
  146.6939  136.6362  153.9578 C   0  0  0  0  0  0  0  0  0  0  0  0
  145.7889  136.8224  154.7742 O   0  0  0  0  0  0  0  0  0  0  0  0
  146.8528  135.5337  153.1998 N   0  0  0  0  0  0  0  0  0  0  0  0
  146.0736  134.4330  153.1775 C   0  0  0  0  0  0  0  0  0  0  0  0
  145.0659  134.2672  153.8698 O   0  0  0  0  0  0  0  0  0  0  0  0
  146.5277  133.3415  152.1994 C   0  0  0  0  0  0  0  0  0  0  0  0
  145.5825  133.1285  151.0954 N   0  0  0  0  0  0  0  0  0  0  0  0
  145.7404  132.3003  150.0132 C   0  0  0  0  0  0  0  0  0  0  0  0
  144.6122  132.4393  149.2464 C   0  0  0  0  0  0  0  0  0  0  0  0
  143.8136  133.3447  149.8923 N   0  3  0  0  0  0  0  0  0  0  0  0
  144.4050  133.7629  151.0161 C   0  0  0  0  0  0  0  0  0  0  0  0
  147.8466  139.9514  153.2299 C   0  0  1  0  0  0  0  0  0  0  0  0
  146.6648  139.9048  152.2410 C   0  0  0  0  0  0  0  0  0  0  0  0
  146.4666  141.2951  155.3663 H   0  0  0  0  0  0  0  0  0  0  0  0
  145.9705  142.0544  153.8591 H   0  0  0  0  0  0  0  0  0  0  0  0
  147.0128  142.9171  154.9692 H   0  0  0  0  0  0  0  0  0  0  0  0
  148.2690  142.0456  153.0177 H   0  0  0  0  0  0  0  0  0  0  0  0
  150.1816  141.2036  154.1680 H   0  0  0  0  0  0  0  0  0  0  0  0
  149.4100  142.3607  155.2170 H   0  0  0  0  0  0  0  0  0  0  0  0
  150.1111  140.3129  156.4596 H   0  0  0  0  0  0  0  0  0  0  0  0
  148.3834  140.5295  156.5461 H   0  0  0  0  0  0  0  0  0  0  0  0
  149.8887  138.6237  154.6971 H   0  0  0  0  0  0  0  0  0  0  0  0
  148.8910  138.1757  156.0581 H   0  0  0  0  0  0  0  0  0  0  0  0
  146.8668  139.0344  154.9207 H   0  0  0  0  0  0  0  0  0  0  0  0
  148.3796  137.2885  153.0470 H   0  0  0  0  0  0  0  0  0  0  0  0
  147.6471  135.5317  152.5768 H   0  0  0  0  0  0  0  0  0  0  0  0
  147.4931  133.6111  151.7688 H   0  0  0  0  0  0  0  0  0  0  0  0
  146.6566  132.3967  152.7298 H   0  0  0  0  0  0  0  0  0  0  0  0
  146.6225  131.6925  149.8706 H   0  0  0  0  0  0  0  0  0  0  0  0
  144.3261  131.9754  148.3136 H   0  0  0  0  0  0  0  0  0  0  0  0
  144.0107  134.4765  151.7175 H   0  0  0  0  0  0  0  0  0  0  0  0
  148.7411  139.7430  152.6401 H   0  0  0  0  0  0  0  0  0  0  0  0
  145.7068  139.9750  152.7563 H   0  0  0  0  0  0  0  0  0  0  0  0
  146.6590  138.9776  151.6679 H   0  0  0  0  0  0  0  0  0  0  0  0
  146.7207  140.7243  151.5240 H   0  0  0  0  0  0  0  0  0  0  0  0
  142.9074  133.6575  149.5667 H   0  0  0  0  0  0  0  0  0  0  0  0
  1  2  1  0  0  0  0
  1 21  1  0  0  0  0
  1 22  1  0  0  0  0
  1 23  1  0  0  0  0
  2 19  1  0  0  0  0
  2  3  1  0  0  0  0
  2 24  1  0  0  0  0
  3  4  1  0  0  0  0
  3 25  1  0  0  0  0
  3 26  1  0  0  0  0
  4  5  1  0  0  0  0
  4 27  1  0  0  0  0
  4 28  1  0  0  0  0
  5  6  1  0  0  0  0
  5 29  1  0  0  0  0
  5 30  1  0  0  0  0
  6  7  1  0  0  0  0
  6 19  1  0  0  0  0
  6 31  1  0  0  0  0
  7  8  1  0  0  0  0
  7 32  1  0  0  0  0
  8  9  2  0  0  0  0
  8 10  1  0  0  0  0
 10 11  1  0  0  0  0
 10 33  1  0  0  0  0
 11 12  2  0  0  0  0
 11 13  1  0  0  0  0
 13 14  1  0  0  0  0
 13 34  1  0  0  0  0
 13 35  1  0  0  0  0
 14 18  1  0  0  0  0
 14 15  1  0  0  0  0
 15 16  2  0  0  0  0
 15 36  1  0  0  0  0
 16 17  1  0  0  0  0
 16 37  1  0  0  0  0
 17 18  2  0  0  0  0
 17 43  1  0  0  0  0
 18 38  1  0  0  0  0
 19 20  1  0  0  0  0
 19 39  1  0  0  0  0
 20 40  1  0  0  0  0
 20 41  1  0  0  0  0
 20 42  1  0  0  0  0
M  CHG  1  17   1
M  END
> <s_m_source_file>
AV-unprocessed.smi

> <i_m_source_file_index>
527

> <i_lp_mmshare_version>
43012

> <i_f3d_flags>
0

> <s_epik_input>
W0NIM11bQ0BASF0xW0NIMl1bQ0gyXVtDSDJdW0NASF0oW0NASF0xW0NIM10pW05IXUMoPU8pW05IXUMoPU8pW0NIMl1uMltjSF1bY0hdbltjSF0y

> <s_epik_cmdline>
J2VwaWtfcHl0aG9uJywgJy1waCcsICc3LjAnLCAnLXRuJywgJzgnLCAnLW1hJywgJzIwMCcsICctbWV0YWxfYmluZGluZycsICctaW1hZScsICc8aW5maWxlLm1hZT4nLCAnLW9tYWUnLCAnPG91dGZpbGUubWFlPic=

> <r_lp_tautomer_probability>
1

> <r_epik_Ionization_Penalty>
0.816441

> <r_epik_Ionization_Penalty_Charging>
0

> <r_epik_Ionization_Penalty_Neutral>
0.816441

> <r_epik_State_Penalty>
0.849034

> <r_epik_Charging_Adjusted_Penalty>
0.849034

> <i_epik_Tot_Q>
1

> <i_epik_Tot_abs_Q>
1

> <r_epik_Metal_State_Penalty>
0.984327

> <b_epik_Metal_Only>
0

> <s_lp_Force_Field>
OPLS_2005

> <r_lp_Energy>
18.63

> <b_lp_Chiralities_Consistent>
1

> <s_lp_Variant>
AV-unprocessed.smi:527-12

> <Gold.Version>
5.8.1

> <Gold.Id.Protein>
6NUR|6NUR_protein|mol2

> <Gold.PLP.Fitness>
45.6103

> <Gold.PLP.PLP>
-30.7939

> <Gold.PLP.part.hbond>
-3.0000

> <Gold.PLP.part.metal>
0.0000

> <Gold.PLP.part.buried>
1.2784

> <Gold.PLP.part.nonpolar>
-29.6819

> <Gold.PLP.part.repulsive>
0.1897

> <Gold.PLP.ligand.clash>
0.0000

> <Gold.PLP.ligand.torsion>
0.1004

> <Gold.PLP.Chemscore.Hbond>
4.0000

> <Gold.PLP.Chemscore.CHOScore>
1.0000

> <Gold.PLP.Chemscore.Metal>
0.0000

> <Gold.Chemscore.Hbonds>
donor molecule, donor type, donor heavy atom, donor atom, acceptor molecule, acceptor atom, score
      L1  H     7    32       P1  7948  0.99
      L1  H    10    33       P1  7948  1.00
      L1  H    17    43       P1 10186  1.92
      L1  C    15    36       P1 10747  1.00

> <Gold.PLP.Chemscore.Internal.Correction>
0.0171

> <Gold.Rescore>
     Score         DG    S(hbond)    S(metal)    S(lipo)     H(rot)  DE(clash)    DE(int)     intcor
     16.44     -20.25       2.94        0.00      79.45       1.71       2.21       1.60       ----

> <Gold.Chemscore.Fitness>
16.4435

> <Gold.Chemscore.DG>
-20.2461

> <Gold.Chemscore.ZeroCoef>
-5.4800

> <Gold.Chemscore.Hbond>
2.9448

> <Gold.Chemscore.Metal>
0.0000

> <Gold.Chemscore.Lipo>
79.4524

> <Gold.Chemscore.Internal_Hbond>
0.0000

> <Gold.Chemscore.DEClash>
2.2068

> <Gold.Chemscore.DEInternal>
1.5958

> <Gold.Chemscore.Rot>
1.7052

> <Gold.Chemscore.Internal.Correction>
   9.000000E+99

> <Gold.Chemscore.Hbonds>
donor molecule, donor type, donor heavy atom, donor atom, acceptor molecule, acceptor atom, score
      L1  H     7    32       P1  7948  0.94
      L1  H    10    33       P1  7948  0.97
      L1  H    17    43       P1 10186  0.91

> <Gold.Chemscore.Hbond.Weighted>
-9.8355

> <Gold.Chemscore.Metal.Weighted>
-0.0000

> <Gold.Chemscore.Lipo.Weighted>
-9.2959

> <Gold.Chemscore.Internal_Hbond.Weighted>
0.0000

> <Gold.Chemscore.DEClash.Weighted>
2.2068

> <Gold.Chemscore.DEInternal.Weighted>
1.5958

> <Gold.Chemscore.Rot.Weighted>
4.3653

> <Gold.Chemscore.Internal.Correction.Weighted>
   9.000000E+99

> <Gold.Protein.RotatedTorsions>
[ 6907 6896 6895 6894 ] final -145.84 input  -60.11 | X-H torsion
[ 7974 7965 7964 7962 ] final  -51.90 input  175.53 | X-H torsion
[ 8008 7997 7996 7995 ] final  -43.62 input   59.86 | X-H torsion
[ 10167 10162 10161 10158 ] final  170.85 input  -65.29 | X-H torsion
[ 10718 10713 10712 10709 ] final  -70.25 input   66.30 | X-H torsion
[ 10763 10752 10751 10750 ] final  -67.00 input  -60.55 | X-H torsion
[ 11005 11000 10999 10996 ] final  118.15 input  -57.11 | X-H torsion

> <Gold.Protein.ActiveResidues>
 VAL166  LYS551  ARG553  GLY616  TRP617  ASP618  TYR619  PRO620  LYS621  CYS622 
 ASP623  PHE694  ASN695  SER759  ASP760  ASP761  ALA762  ILE779  LEU786  VAL792 
 PHE793  MET794  SER795  GLU796  ALA797  LYS798  CYS799  TRP800  GLU811  SER814 

> <Gold.Protein.RotatedAtoms>
  151.1333  133.5021  159.2598 H   0  0  0  0  0  0  0  0  0  0  0  0  # atno 6907 bound_to 6896
  151.1733  135.0327  159.8771 H   0  0  0  0  0  0  0  0  0  0  0  0  # atno 6908 bound_to 6896
  152.5460  134.1194  159.8446 H   0  0  0  0  0  0  0  0  0  0  0  0  # atno 6909 bound_to 6896
  145.9139  140.7891  142.9681 H   0  0  0  0  0  0  0  0  0  0  0  0  # atno 7974 bound_to 7965
  154.3997  140.1443  156.3548 H   0  0  0  0  0  0  0  0  0  0  0  0  # atno 8008 bound_to 7997
  155.8235  140.3468  155.5508 H   0  0  0  0  0  0  0  0  0  0  0  0  # atno 8009 bound_to 7997
  155.8263  140.0905  157.1810 H   0  0  0  0  0  0  0  0  0  0  0  0  # atno 8010 bound_to 7997
  139.5030  144.3551  151.9883 H   0  0  0  0  0  0  0  0  0  0  0  0  # atno 10167 bound_to 10162
  156.0417  130.4328  150.2267 H   0  0  0  0  0  0  0  0  0  0  0  0  # atno 10718 bound_to 10713
  154.3681  135.6101  153.5725 H   0  0  0  0  0  0  0  0  0  0  0  0  # atno 10763 bound_to 10752
  152.9791  135.5831  154.4555 H   0  0  0  0  0  0  0  0  0  0  0  0  # atno 10764 bound_to 10752
  154.4304  135.2847  155.1894 H   0  0  0  0  0  0  0  0  0  0  0  0  # atno 10765 bound_to 10752
  139.9099  134.9617  156.7460 H   0  0  0  0  0  0  0  0  0  0  0  0  # atno 11005 bound_to 11000
  144.6746  140.1869  143.7400 LP  0  0  0  0  0  0  0  0  0  0  0  0  # atno 17320 bound_to 7965
  145.8636  139.2235  143.1702 LP  0  0  0  0  0  0  0  0  0  0  0  0  # atno 17321 bound_to 7965
  140.2987  144.3671  150.6066 LP  0  0  0  0  0  0  0  0  0  0  0  0  # atno 17342 bound_to 10162
  140.5890  143.2169  151.7288 LP  0  0  0  0  0  0  0  0  0  0  0  0  # atno 17343 bound_to 10162
  157.0362  131.0022  151.3297 LP  0  0  0  0  0  0  0  0  0  0  0  0  # atno 17370 bound_to 10713
  157.5242  130.8017  149.7843 LP  0  0  0  0  0  0  0  0  0  0  0  0  # atno 17371 bound_to 10713
  140.6812  133.9473  155.7911 LP  0  0  0  0  0  0  0  0  0  0  0  0  # atno 17394 bound_to 11000
  141.0509  134.0486  157.3785 LP  0  0  0  0  0  0  0  0  0  0  0  0  # atno 17395 bound_to 11000

$$$$
