AV-unprocessed.smi:568|AV-procd|sdf|2958|dock7
  -GOLD-   2262023463D 1   1.00000     0.00000
 Structure written by MMmdl.
 35 36  0  0  0  0  0  0  0  0  1 V2000
  150.1817  135.4863  156.4239 C   0  0  0  0  0  0  0  0  0  0  0  0
  150.0621  133.9897  156.3835 C   0  0  0  0  0  0  0  0  0  0  0  0
  150.3717  133.2888  157.4611 N   0  0  0  0  0  0  0  0  0  0  0  0
  150.1623  131.9493  157.1207 O   0  0  0  0  0  0  0  0  0  0  0  0
  149.7307  131.8948  155.8355 C   0  0  0  0  0  0  0  0  0  0  0  0
  149.4487  130.5365  155.2885 C   0  0  0  0  0  0  0  0  0  0  0  0
  149.6460  133.1538  155.3064 C   0  0  0  0  0  0  0  0  0  0  0  0
  149.2152  133.5680  153.9228 C   0  0  0  0  0  0  0  0  0  0  0  0
  147.7063  133.3703  153.7762 C   0  0  0  0  0  0  0  0  0  0  0  0
  147.1250  132.5391  154.4735 O   0  0  0  0  0  0  0  0  0  0  0  0
  147.0876  134.1354  152.8632 N   0  0  0  0  0  0  0  0  0  0  0  0
  145.6629  134.0962  152.5483 C   0  0  0  0  0  0  0  0  0  0  0  0
  145.4038  133.6414  151.0994 C   0  0  1  0  0  0  0  0  0  0  0  0
  145.8623  132.2265  150.8111 C   0  0  0  0  0  0  0  0  0  0  0  0
  145.0956  131.8942  149.5337 C   0  0  0  0  0  0  0  0  0  0  0  0
  143.8929  132.6564  149.5880 O   0  0  0  0  0  0  0  0  0  0  0  0
  143.9308  133.5485  150.6973 C   0  0  0  0  0  0  0  0  0  0  0  0
  149.6571  135.9519  155.5898 H   0  0  0  0  0  0  0  0  0  0  0  0
  151.2257  135.7958  156.3728 H   0  0  0  0  0  0  0  0  0  0  0  0
  149.7580  135.8913  157.3431 H   0  0  0  0  0  0  0  0  0  0  0  0
  148.9220  130.5974  154.3363 H   0  0  0  0  0  0  0  0  0  0  0  0
  148.8294  129.9631  155.9786 H   0  0  0  0  0  0  0  0  0  0  0  0
  150.3755  129.9859  155.1275 H   0  0  0  0  0  0  0  0  0  0  0  0
  149.4530  134.6145  153.7294 H   0  0  0  0  0  0  0  0  0  0  0  0
  149.7375  132.9971  153.1541 H   0  0  0  0  0  0  0  0  0  0  0  0
  147.6497  134.7899  152.3389 H   0  0  0  0  0  0  0  0  0  0  0  0
  145.1947  133.3931  153.2375 H   0  0  0  0  0  0  0  0  0  0  0  0
  145.1959  135.0640  152.7395 H   0  0  0  0  0  0  0  0  0  0  0  0
  145.9140  134.3164  150.4099 H   0  0  0  0  0  0  0  0  0  0  0  0
  146.9424  132.1408  150.6908 H   0  0  0  0  0  0  0  0  0  0  0  0
  145.5543  131.5557  151.6147 H   0  0  0  0  0  0  0  0  0  0  0  0
  145.6635  132.2058  148.6562 H   0  0  0  0  0  0  0  0  0  0  0  0
  144.8873  130.8281  149.4408 H   0  0  0  0  0  0  0  0  0  0  0  0
  143.3367  133.1176  151.5046 H   0  0  0  0  0  0  0  0  0  0  0  0
  143.5023  134.5179  150.4419 H   0  0  0  0  0  0  0  0  0  0  0  0
  1  2  1  0  0  0  0
  1 18  1  0  0  0  0
  1 19  1  0  0  0  0
  1 20  1  0  0  0  0
  2  7  1  0  0  0  0
  2  3  2  0  0  0  0
  3  4  1  0  0  0  0
  4  5  1  0  0  0  0
  5  6  1  0  0  0  0
  5  7  2  0  0  0  0
  6 21  1  0  0  0  0
  6 22  1  0  0  0  0
  6 23  1  0  0  0  0
  7  8  1  0  0  0  0
  8  9  1  0  0  0  0
  8 24  1  0  0  0  0
  8 25  1  0  0  0  0
  9 10  2  0  0  0  0
  9 11  1  0  0  0  0
 11 12  1  0  0  0  0
 11 26  1  0  0  0  0
 12 13  1  0  0  0  0
 12 27  1  0  0  0  0
 12 28  1  0  0  0  0
 13 17  1  0  0  0  0
 13 14  1  0  0  0  0
 13 29  1  0  0  0  0
 14 15  1  0  0  0  0
 14 30  1  0  0  0  0
 14 31  1  0  0  0  0
 15 16  1  0  0  0  0
 15 32  1  0  0  0  0
 15 33  1  0  0  0  0
 16 17  1  0  0  0  0
 17 34  1  0  0  0  0
 17 35  1  0  0  0  0
M  END
> <s_m_source_file>
AV-unprocessed.smi

> <i_m_source_file_index>
568

> <i_lp_mmshare_version>
43012

> <i_f3d_flags>
0

> <s_epik_input>
W0NIM11jMW5vYyhbQ0gzXSljMVtDSDJdQyg9TylbTkhdW0NIMl1bQ0BASF0yW0NIMl1bQ0gyXU9bQ0gyXTI=

> <s_epik_cmdline>
J2VwaWtfcHl0aG9uJywgJy1waCcsICc3LjAnLCAnLXRuJywgJzgnLCAnLW1hJywgJzIwMCcsICctbWV0YWxfYmluZGluZycsICctaW1hZScsICc8aW5maWxlLm1hZT4nLCAnLW9tYWUnLCAnPG91dGZpbGUubWFlPic=

> <r_lp_tautomer_probability>
1

> <r_epik_Ionization_Penalty>
2.07075e-08

> <r_epik_Ionization_Penalty_Charging>
0

> <r_epik_Ionization_Penalty_Neutral>
2.07075e-08

> <r_epik_State_Penalty>
-0

> <r_epik_Charging_Adjusted_Penalty>
0

> <i_epik_Tot_Q>
0

> <i_epik_Tot_abs_Q>
0

> <r_epik_Metal_State_Penalty>
-0

> <b_epik_Metal_Only>
0

> <s_lp_Force_Field>
OPLS_2005

> <r_lp_Energy>
12.1953

> <b_lp_Chiralities_Consistent>
1

> <s_lp_Variant>
AV-unprocessed.smi:568-2

> <Gold.Version>
5.8.1

> <Gold.Id.Protein>
6NUR|6NUR_protein|mol2

> <Gold.PLP.Fitness>
34.4547

> <Gold.PLP.PLP>
-29.4719

> <Gold.PLP.part.hbond>
-2.0000

> <Gold.PLP.part.metal>
0.0000

> <Gold.PLP.part.buried>
-4.4319

> <Gold.PLP.part.nonpolar>
-23.2266

> <Gold.PLP.part.repulsive>
0.2530

> <Gold.PLP.ligand.clash>
0.0000

> <Gold.PLP.ligand.torsion>
0.4911

> <Gold.PLP.Chemscore.Hbond>
1.9833

> <Gold.PLP.Chemscore.CHOScore>
0.0000

> <Gold.PLP.Chemscore.Metal>
0.0000

> <Gold.Chemscore.Hbonds>
donor molecule, donor type, donor heavy atom, donor atom, acceptor molecule, acceptor atom, score
      L1  H    11    26       P1  7948  1.00
      P1  H  6896  6909       L1     3  0.93

> <Gold.PLP.Chemscore.Internal.Correction>
0.0150

> <Gold.Rescore>
     Score         DG    S(hbond)    S(metal)    S(lipo)     H(rot)  DE(clash)    DE(int)     intcor
     14.31     -15.19       1.78        0.00      66.20       1.56       0.00       0.89       ----

> <Gold.Chemscore.Fitness>
14.3064

> <Gold.Chemscore.DG>
-15.1938

> <Gold.Chemscore.ZeroCoef>
-5.4800

> <Gold.Chemscore.Hbond>
1.7814

> <Gold.Chemscore.Metal>
0.0000

> <Gold.Chemscore.Lipo>
66.1963

> <Gold.Chemscore.Internal_Hbond>
0.0000

> <Gold.Chemscore.DEClash>
0.0015

> <Gold.Chemscore.DEInternal>
0.8859

> <Gold.Chemscore.Rot>
1.5551

> <Gold.Chemscore.Internal.Correction>
   9.000000E+99

> <Gold.Chemscore.Hbonds>
donor molecule, donor type, donor heavy atom, donor atom, acceptor molecule, acceptor atom, score
      L1  H    11    26       P1  7948  0.84
      P1  H  6896  6909       L1     3  0.73

> <Gold.Chemscore.Hbond.Weighted>
-5.9498

> <Gold.Chemscore.Metal.Weighted>
-0.0000

> <Gold.Chemscore.Lipo.Weighted>
-7.7450

> <Gold.Chemscore.Internal_Hbond.Weighted>
0.0000

> <Gold.Chemscore.DEClash.Weighted>
0.0015

> <Gold.Chemscore.DEInternal.Weighted>
0.8859

> <Gold.Chemscore.Rot.Weighted>
3.9809

> <Gold.Chemscore.Internal.Correction.Weighted>
   9.000000E+99

> <Gold.Protein.RotatedTorsions>
[ 6907 6896 6895 6894 ] final  -29.97 input  -60.11 | X-H torsion
[ 7974 7965 7964 7962 ] final   66.02 input  175.53 | X-H torsion
[ 8008 7997 7996 7995 ] final -153.25 input   59.86 | X-H torsion
[ 10167 10162 10161 10158 ] final  -13.79 input  -65.29 | X-H torsion
[ 10718 10713 10712 10709 ] final -100.33 input   66.30 | X-H torsion
[ 10763 10752 10751 10750 ] final   68.43 input  -60.55 | X-H torsion
[ 11005 11000 10999 10996 ] final  -67.33 input  -57.11 | X-H torsion

> <Gold.Protein.ActiveResidues>
 VAL166  LYS551  ARG553  GLY616  TRP617  ASP618  TYR619  PRO620  LYS621  CYS622 
 ASP623  PHE694  ASN695  SER759  ASP760  ASP761  ALA762  ILE779  LEU786  VAL792 
 PHE793  MET794  SER795  GLU796  ALA797  LYS798  CYS799  TRP800  GLU811  SER814 

> <Gold.Protein.RotatedAtoms>
  151.1119  135.0031  159.8497 H   0  0  0  0  0  0  0  0  0  0  0  0  # atno 6907 bound_to 6896
  152.5443  134.1826  159.8651 H   0  0  0  0  0  0  0  0  0  0  0  0  # atno 6908 bound_to 6896
  151.1877  133.4642  159.2627 H   0  0  0  0  0  0  0  0  0  0  0  0  # atno 6909 bound_to 6896
  145.8316  139.3142  143.0984 H   0  0  0  0  0  0  0  0  0  0  0  0  # atno 7974 bound_to 7965
  155.6679  140.0730  157.2531 H   0  0  0  0  0  0  0  0  0  0  0  0  # atno 8008 bound_to 7997
  154.4129  140.1704  156.1898 H   0  0  0  0  0  0  0  0  0  0  0  0  # atno 8009 bound_to 7997
  155.9642  140.3367  155.6520 H   0  0  0  0  0  0  0  0  0  0  0  0  # atno 8010 bound_to 7997
  140.7189  143.5389  150.9432 H   0  0  0  0  0  0  0  0  0  0  0  0  # atno 10167 bound_to 10162
  156.0160  130.5323  150.6802 H   0  0  0  0  0  0  0  0  0  0  0  0  # atno 10718 bound_to 10713
  153.0235  135.5247  154.7134 H   0  0  0  0  0  0  0  0  0  0  0  0  # atno 10763 bound_to 10752
  154.6210  135.2889  155.0328 H   0  0  0  0  0  0  0  0  0  0  0  0  # atno 10764 bound_to 10752
  154.1315  135.6592  153.4975 H   0  0  0  0  0  0  0  0  0  0  0  0  # atno 10765 bound_to 10752
  141.1505  133.6717  156.6276 H   0  0  0  0  0  0  0  0  0  0  0  0  # atno 11005 bound_to 11000
  145.9565  140.8869  143.0232 LP  0  0  0  0  0  0  0  0  0  0  0  0  # atno 17320 bound_to 7965
  144.6739  140.1752  143.7410 LP  0  0  0  0  0  0  0  0  0  0  0  0  # atno 17321 bound_to 7965
  139.9111  143.6718  152.3115 LP  0  0  0  0  0  0  0  0  0  0  0  0  # atno 17342 bound_to 10162
  139.7102  144.7621  151.1125 LP  0  0  0  0  0  0  0  0  0  0  0  0  # atno 17343 bound_to 10162
  157.4506  131.0872  151.0850 LP  0  0  0  0  0  0  0  0  0  0  0  0  # atno 17370 bound_to 10713
  157.1367  130.6125  149.5544 LP  0  0  0  0  0  0  0  0  0  0  0  0  # atno 17371 bound_to 10713
  140.3492  134.7783  157.4454 LP  0  0  0  0  0  0  0  0  0  0  0  0  # atno 17394 bound_to 11000
  140.0875  134.5647  155.8478 LP  0  0  0  0  0  0  0  0  0  0  0  0  # atno 17395 bound_to 11000

$$$$
