AV-unprocessed.smi:285|AV-procd|sdf|2166|dock9
  -GOLD-   2262021523D 1   1.00000     0.00000
 Structure written by MMmdl.
 31 33  0  0  0  0  0  0  0  0  1 V2000
  154.9451  141.1933  160.7165 N   0  0  0  0  0  0  0  0  0  0  0  0
  153.7815  141.6009  160.1908 C   0  0  0  0  0  0  0  0  0  0  0  0
  153.2392  142.7542  160.6465 N   0  0  0  0  0  0  0  0  0  0  0  0
  152.0788  143.1826  160.1390 C   0  0  0  0  0  0  0  0  0  0  0  0
  151.3212  142.6192  159.1943 N   0  0  0  0  0  0  0  0  0  0  0  0
  151.8691  141.4568  158.7328 C   0  0  0  0  0  0  0  0  0  0  0  0
  153.0942  140.8810  159.1811 C   0  0  0  0  0  0  0  0  0  0  0  0
  153.3460  139.6968  158.5001 N   0  0  0  0  0  0  0  0  0  0  0  0
  152.3194  139.6012  157.7022 C   0  0  0  0  0  0  0  0  0  0  0  0
  152.1520  138.1142  156.5236 Br  0  0  0  0  0  0  0  0  0  0  0  0
  151.3788  140.6049  157.7626 N   0  0  0  0  0  0  0  0  0  0  0  0
  150.1189  140.7611  156.9733 C   0  0  1  0  0  0  0  0  0  0  0  0
  150.3622  141.5043  155.6717 C   0  0  0  0  0  0  0  0  0  0  0  0
  149.1427  141.0503  154.8997 C   0  0  1  0  0  0  0  0  0  0  0  0
  149.3079  141.2435  153.5087 O   0  0  0  0  0  0  0  0  0  0  0  0
  148.9664  139.5815  155.3523 C   0  0  1  0  0  0  0  0  0  0  0  0
  149.6036  138.5254  154.4263 C   0  0  0  0  0  0  0  0  0  0  0  0
  148.9242  138.4986  153.1893 O   0  0  0  0  0  0  0  0  0  0  0  0
  149.6448  139.5042  156.6121 O   0  0  0  0  0  0  0  0  0  0  0  0
  155.3703  140.3361  160.3931 H   0  0  0  0  0  0  0  0  0  0  0  0
  155.3960  141.7454  161.4315 H   0  0  0  0  0  0  0  0  0  0  0  0
  151.7033  144.1092  160.5475 H   0  0  0  0  0  0  0  0  0  0  0  0
  149.4029  141.2569  157.6287 H   0  0  0  0  0  0  0  0  0  0  0  0
  150.4177  142.5817  155.8298 H   0  0  0  0  0  0  0  0  0  0  0  0
  151.2833  141.1515  155.2053 H   0  0  0  0  0  0  0  0  0  0  0  0
  148.2801  141.6318  155.2291 H   0  0  0  0  0  0  0  0  0  0  0  0
  149.3509  140.3972  153.0900 H   0  0  0  0  0  0  0  0  0  0  0  0
  147.9038  139.3714  155.4824 H   0  0  0  0  0  0  0  0  0  0  0  0
  150.6401  138.7759  154.2019 H   0  0  0  0  0  0  0  0  0  0  0  0
  149.6033  137.5362  154.8829 H   0  0  0  0  0  0  0  0  0  0  0  0
  148.8130  137.5975  152.9279 H   0  0  0  0  0  0  0  0  0  0  0  0
  1  2  1  0  0  0  0
  1 20  1  0  0  0  0
  1 21  1  0  0  0  0
  2  7  1  0  0  0  0
  2  3  2  0  0  0  0
  3  4  1  0  0  0  0
  4  5  2  0  0  0  0
  4 22  1  0  0  0  0
  5  6  1  0  0  0  0
  6 11  1  0  0  0  0
  6  7  2  0  0  0  0
  7  8  1  0  0  0  0
  8  9  2  0  0  0  0
  9 10  1  0  0  0  0
  9 11  1  0  0  0  0
 11 12  1  0  0  0  0
 12 19  1  0  0  0  0
 12 13  1  0  0  0  0
 12 23  1  0  0  0  0
 13 14  1  0  0  0  0
 13 24  1  0  0  0  0
 13 25  1  0  0  0  0
 14 15  1  0  0  0  0
 14 16  1  0  0  0  0
 14 26  1  0  0  0  0
 15 27  1  0  0  0  0
 16 17  1  0  0  0  0
 16 19  1  0  0  0  0
 16 28  1  0  0  0  0
 17 18  1  0  0  0  0
 17 29  1  0  0  0  0
 17 30  1  0  0  0  0
 18 31  1  0  0  0  0
M  END
> <s_m_source_file>
AV-unprocessed.smi

> <i_m_source_file_index>
285

> <i_lp_mmshare_version>
43012

> <i_f3d_flags>
0

> <s_epik_input>
bjFbY0hdbmMoW05IMl0pYyhjMTIpbmMoQnIpbjJbQ0BASF0zW0NIMl1bQ0BASF0oW09IXSlbQ0BIXShPMylbQ0gyXVtPSF0=

> <s_epik_cmdline>
J2VwaWtfcHl0aG9uJywgJy1waCcsICc3LjAnLCAnLXRuJywgJzgnLCAnLW1hJywgJzIwMCcsICctbWV0YWxfYmluZGluZycsICctaW1hZScsICc8aW5maWxlLm1hZT4nLCAnLW9tYWUnLCAnPG91dGZpbGUubWFlPic=

> <r_lp_tautomer_probability>
1

> <r_epik_Ionization_Penalty>
0.000103242

> <r_epik_Ionization_Penalty_Charging>
0

> <r_epik_Ionization_Penalty_Neutral>
0.000103242

> <r_epik_State_Penalty>
-0

> <r_epik_Charging_Adjusted_Penalty>
0

> <i_epik_Tot_Q>
0

> <i_epik_Tot_abs_Q>
0

> <r_epik_Metal_State_Penalty>
-0

> <b_epik_Metal_Only>
0

> <s_epik_Chemistry_Notes>
This compound contains an acetal/aminal-like group ( X-CH(R)-Y where X, Y are N, S, or O) that may be acid/base labile, releasing an aldehyde.

> <s_lp_Force_Field>
OPLS_2005

> <r_lp_Energy>
35.0354

> <b_lp_Chiralities_Consistent>
1

> <s_lp_Variant>
AV-unprocessed.smi:285-2

> <Gold.Version>
5.8.1

> <Gold.Id.Protein>
6NUR|6NUR_protein|mol2

> <Gold.PLP.Fitness>
43.1577

> <Gold.PLP.PLP>
-33.8175

> <Gold.PLP.part.hbond>
-6.4014

> <Gold.PLP.part.metal>
0.0000

> <Gold.PLP.part.buried>
-6.1454

> <Gold.PLP.part.nonpolar>
-21.6493

> <Gold.PLP.part.repulsive>
0.0518

> <Gold.PLP.ligand.clash>
0.0000

> <Gold.PLP.ligand.torsion>
0.7611

> <Gold.PLP.Chemscore.Hbond>
3.6160

> <Gold.PLP.Chemscore.CHOScore>
0.0000

> <Gold.PLP.Chemscore.Metal>
0.0000

> <Gold.Chemscore.Hbonds>
donor molecule, donor type, donor heavy atom, donor atom, acceptor molecule, acceptor atom, score
      L1  H    15    27       P1  7957  0.53
      L1  H    18    31       P1  7948  1.00
      P1  H  7997  8009       L1     8  0.80
      P1  H  8011  8017       L1    15  0.99

> <Gold.PLP.Chemscore.Internal.Correction>
0.0145

> <Gold.Rescore>
     Score         DG    S(hbond)    S(metal)    S(lipo)     H(rot)  DE(clash)    DE(int)     intcor
     10.18     -12.04       2.92        0.00      39.79       3.06       0.08       1.79       ----

> <Gold.Chemscore.Fitness>
10.1768

> <Gold.Chemscore.DG>
-12.0443

> <Gold.Chemscore.ZeroCoef>
-5.4800

> <Gold.Chemscore.Hbond>
2.9173

> <Gold.Chemscore.Metal>
0.0000

> <Gold.Chemscore.Lipo>
39.7948

> <Gold.Chemscore.Internal_Hbond>
0.0000

> <Gold.Chemscore.DEClash>
0.0768

> <Gold.Chemscore.DEInternal>
1.7907

> <Gold.Chemscore.Rot>
3.0607

> <Gold.Chemscore.Internal.Correction>
   9.000000E+99

> <Gold.Chemscore.Hbonds>
donor molecule, donor type, donor heavy atom, donor atom, acceptor molecule, acceptor atom, score
      L1  H    15    27       P1  7957  0.51
      L1  H    18    31       P1  7948  0.98
      P1  H  7997  8009       L1     8  0.08
      P1  H  8011  8017       L1    15  0.56

> <Gold.Chemscore.Hbond.Weighted>
-9.7437

> <Gold.Chemscore.Metal.Weighted>
-0.0000

> <Gold.Chemscore.Lipo.Weighted>
-4.6560

> <Gold.Chemscore.Internal_Hbond.Weighted>
0.0000

> <Gold.Chemscore.DEClash.Weighted>
0.0768

> <Gold.Chemscore.DEInternal.Weighted>
1.7907

> <Gold.Chemscore.Rot.Weighted>
7.8354

> <Gold.Chemscore.Internal.Correction.Weighted>
   9.000000E+99

> <Gold.Protein.RotatedTorsions>
[ 6907 6896 6895 6894 ] final  -37.23 input  -60.11 | X-H torsion
[ 7974 7965 7964 7962 ] final  -77.36 input  175.53 | X-H torsion
[ 8008 7997 7996 7995 ] final  148.29 input   59.86 | X-H torsion
[ 10167 10162 10161 10158 ] final  122.61 input  -65.29 | X-H torsion
[ 10718 10713 10712 10709 ] final  -69.53 input   66.30 | X-H torsion
[ 10763 10752 10751 10750 ] final  158.04 input  -60.55 | X-H torsion
[ 11005 11000 10999 10996 ] final  136.14 input  -57.11 | X-H torsion

> <Gold.Protein.ActiveResidues>
 VAL166  LYS551  ARG553  GLY616  TRP617  ASP618  TYR619  PRO620  LYS621  CYS622 
 ASP623  PHE694  ASN695  SER759  ASP760  ASP761  ALA762  ILE779  LEU786  VAL792 
 PHE793  MET794  SER795  GLU796  ALA797  LYS798  CYS799  TRP800  GLU811  SER814 

> <Gold.Protein.RotatedAtoms>
  151.0173  134.9442  159.8039 H   0  0  0  0  0  0  0  0  0  0  0  0  # atno 6907 bound_to 6896
  152.5317  134.2950  159.9067 H   0  0  0  0  0  0  0  0  0  0  0  0  # atno 6908 bound_to 6896
  151.2957  133.4103  159.2670 H   0  0  0  0  0  0  0  0  0  0  0  0  # atno 6909 bound_to 6896
  145.6008  140.9409  143.1242 H   0  0  0  0  0  0  0  0  0  0  0  0  # atno 7974 bound_to 7965
  156.2796  140.2132  156.5675 H   0  0  0  0  0  0  0  0  0  0  0  0  # atno 8008 bound_to 7997
  154.7163  140.0507  157.0620 H   0  0  0  0  0  0  0  0  0  0  0  0  # atno 8009 bound_to 7997
  155.0538  140.3159  155.4686 H   0  0  0  0  0  0  0  0  0  0  0  0  # atno 8010 bound_to 7997
  139.5849  144.7002  151.3435 H   0  0  0  0  0  0  0  0  0  0  0  0  # atno 10167 bound_to 10162
  156.0451  130.4314  150.2161 H   0  0  0  0  0  0  0  0  0  0  0  0  # atno 10718 bound_to 10713
  154.2097  135.2786  155.2962 H   0  0  0  0  0  0  0  0  0  0  0  0  # atno 10763 bound_to 10752
  154.5788  135.5596  153.7169 H   0  0  0  0  0  0  0  0  0  0  0  0  # atno 10764 bound_to 10752
  153.0067  135.6339  154.2236 H   0  0  0  0  0  0  0  0  0  0  0  0  # atno 10765 bound_to 10752
  140.0026  134.9472  157.0105 H   0  0  0  0  0  0  0  0  0  0  0  0  # atno 11005 bound_to 11000
  144.7311  139.7724  143.7347 LP  0  0  0  0  0  0  0  0  0  0  0  0  # atno 17320 bound_to 7965
  146.1578  139.4681  143.0008 LP  0  0  0  0  0  0  0  0  0  0  0  0  # atno 17321 bound_to 7965
  140.7122  143.7361  150.7588 LP  0  0  0  0  0  0  0  0  0  0  0  0  # atno 17342 bound_to 10162
  140.0903  143.4884  152.2482 LP  0  0  0  0  0  0  0  0  0  0  0  0  # atno 17343 bound_to 10162
  157.0251  130.9991  151.3328 LP  0  0  0  0  0  0  0  0  0  0  0  0  # atno 17370 bound_to 10713
  157.5317  130.8062  149.7924 LP  0  0  0  0  0  0  0  0  0  0  0  0  # atno 17371 bound_to 10713
  140.4700  134.1397  155.7202 LP  0  0  0  0  0  0  0  0  0  0  0  0  # atno 17394 bound_to 11000
  141.1653  133.8714  157.1731 LP  0  0  0  0  0  0  0  0  0  0  0  0  # atno 17395 bound_to 11000

$$$$
