AV-unprocessed.smi:2684|AV-procd|sdf|10378|dock3
  -GOLD-   2272014403D 1   1.00000     0.00000
 Structure written by MMmdl.
 45 46  0  0  0  0  0  0  0  0  2 V2000
  146.2102  130.7913  151.9879 C   0  0  0  0  0  0  0  0  0  0  0  0
  145.5918  132.1013  151.5933 C   0  0  0  0  0  0  0  0  0  0  0  0
  144.2136  132.3906  151.3823 C   0  0  0  0  0  0  0  0  0  0  0  0
  143.9981  133.6550  151.0565 N   0  0  0  0  0  0  0  0  0  0  0  0
  145.2258  134.2159  151.0500 N   0  0  0  0  0  0  0  0  0  0  0  0
  145.3730  135.6291  150.7507 C   0  0  0  0  0  0  0  0  0  0  0  0
  145.7075  136.4878  151.9927 C   0  0  2  0  0  0  0  0  0  0  0  0
  144.4241  137.0485  152.6198 C   0  0  0  0  0  0  0  0  0  0  0  0
  146.6128  137.6086  151.6478 N   0  3  0  0  0  0  0  0  0  0  0  0
  146.4886  138.8055  152.5075 C   0  0  0  0  0  0  0  0  0  0  0  0
  147.4728  138.7621  153.6842 C   0  0  0  0  0  0  0  0  0  0  0  0
  147.0550  138.4756  154.8046 O   0  0  0  0  0  0  0  0  0  0  0  0
  148.7795  139.0128  153.4833 N   0  0  0  0  0  0  0  0  0  0  0  0
  149.8656  139.0206  154.4629 C   0  0  0  0  0  0  0  0  0  0  0  0
  150.1833  140.4447  154.9529 C   0  0  0  0  0  0  0  0  0  0  0  0
  151.4168  140.4349  155.8703 C   0  0  0  0  0  0  0  0  0  0  0  0
  152.5280  139.8667  155.1863 O   0  0  0  0  0  0  0  0  0  0  0  0
  152.3161  138.5092  154.8138 C   0  0  0  0  0  0  0  0  0  0  0  0
  151.1300  138.4104  153.8401 C   0  0  0  0  0  0  0  0  0  0  0  0
  146.2075  133.2979  151.3593 C   0  0  0  0  0  0  0  0  0  0  0  0
  145.4619  130.0065  152.0983 H   0  0  0  0  0  0  0  0  0  0  0  0
  146.7379  130.8671  152.9390 H   0  0  0  0  0  0  0  0  0  0  0  0
  146.9310  130.4466  151.2462 H   0  0  0  0  0  0  0  0  0  0  0  0
  143.3678  131.7236  151.4627 H   0  0  0  0  0  0  0  0  0  0  0  0
  146.1464  135.7438  149.9898 H   0  0  0  0  0  0  0  0  0  0  0  0
  144.4421  135.9730  150.2974 H   0  0  0  0  0  0  0  0  0  0  0  0
  146.1871  135.8627  152.7482 H   0  0  0  0  0  0  0  0  0  0  0  0
  143.7490  136.2453  152.9171 H   0  0  0  0  0  0  0  0  0  0  0  0
  143.8872  137.6923  151.9219 H   0  0  0  0  0  0  0  0  0  0  0  0
  144.6459  137.6356  153.5116 H   0  0  0  0  0  0  0  0  0  0  0  0
  147.5654  137.2749  151.6802 H   0  0  0  0  0  0  0  0  0  0  0  0
  146.6954  139.6937  151.9099 H   0  0  0  0  0  0  0  0  0  0  0  0
  145.4640  138.8943  152.8530 H   0  0  0  0  0  0  0  0  0  0  0  0
  149.0570  139.1970  152.5296 H   0  0  0  0  0  0  0  0  0  0  0  0
  149.5938  138.3949  155.3120 H   0  0  0  0  0  0  0  0  0  0  0  0
  150.3743  141.0971  154.0998 H   0  0  0  0  0  0  0  0  0  0  0  0
  149.3354  140.8724  155.4874 H   0  0  0  0  0  0  0  0  0  0  0  0
  151.6699  141.4525  156.1683 H   0  0  0  0  0  0  0  0  0  0  0  0
  151.2154  139.8764  156.7860 H   0  0  0  0  0  0  0  0  0  0  0  0
  153.2216  138.1288  154.3408 H   0  0  0  0  0  0  0  0  0  0  0  0
  152.1429  137.9010  155.7028 H   0  0  0  0  0  0  0  0  0  0  0  0
  150.9552  137.3676  153.5731 H   0  0  0  0  0  0  0  0  0  0  0  0
  151.3807  138.9330  152.9156 H   0  0  0  0  0  0  0  0  0  0  0  0
  147.2518  133.5713  151.4003 H   0  0  0  0  0  0  0  0  0  0  0  0
  146.4126  137.9013  150.7019 H   0  0  0  0  0  0  0  0  0  0  0  0
  1  2  1  0  0  0  0
  1 21  1  0  0  0  0
  1 22  1  0  0  0  0
  1 23  1  0  0  0  0
  2 20  2  0  0  0  0
  2  3  1  0  0  0  0
  3  4  2  0  0  0  0
  3 24  1  0  0  0  0
  4  5  1  0  0  0  0
  5  6  1  0  0  0  0
  5 20  1  0  0  0  0
  6  7  1  0  0  0  0
  6 25  1  0  0  0  0
  6 26  1  0  0  0  0
  7  8  1  0  0  0  0
  7  9  1  0  0  0  0
  7 27  1  0  0  0  0
  8 28  1  0  0  0  0
  8 29  1  0  0  0  0
  8 30  1  0  0  0  0
  9 10  1  0  0  0  0
  9 31  1  0  0  0  0
  9 45  1  0  0  0  0
 10 11  1  0  0  0  0
 10 32  1  0  0  0  0
 10 33  1  0  0  0  0
 11 12  2  0  0  0  0
 11 13  1  0  0  0  0
 13 14  1  0  0  0  0
 13 34  1  0  0  0  0
 14 19  1  0  0  0  0
 14 15  1  0  0  0  0
 14 35  1  0  0  0  0
 15 16  1  0  0  0  0
 15 36  1  0  0  0  0
 15 37  1  0  0  0  0
 16 17  1  0  0  0  0
 16 38  1  0  0  0  0
 16 39  1  0  0  0  0
 17 18  1  0  0  0  0
 18 19  1  0  0  0  0
 18 40  1  0  0  0  0
 18 41  1  0  0  0  0
 19 42  1  0  0  0  0
 19 43  1  0  0  0  0
 20 44  1  0  0  0  0
M  CHG  1   9   1
M  END
> <s_m_source_file>
AV-unprocessed.smi

> <i_m_source_file_index>
2684

> <i_lp_mmshare_version>
43012

> <i_f3d_flags>
0

> <s_epik_input>
W0NIM11jMVtjSF1ubihbY0hdMSlbQ0gyXVtDQEhdKFtDSDNdKVtOSF1bQ0gyXUMoPU8pW05IXVtDSF0yW0NIMl1bQ0gyXU9bQ0gyXVtDSDJdMg==

> <s_epik_cmdline>
J2VwaWtfcHl0aG9uJywgJy1waCcsICc3LjAnLCAnLXRuJywgJzgnLCAnLW1hJywgJzIwMCcsICctbWV0YWxfYmluZGluZycsICctaW1hZScsICc8aW5maWxlLm1hZT4nLCAnLW9tYWUnLCAnPG91dGZpbGUubWFlPic=

> <r_lp_tautomer_probability>
1

> <r_epik_Ionization_Penalty>
0.128576

> <r_epik_Ionization_Penalty_Charging>
0.128567

> <r_epik_Ionization_Penalty_Neutral>
8.60003e-06

> <r_epik_State_Penalty>
0.117991

> <r_epik_Charging_Adjusted_Penalty>
0.246558

> <i_epik_Tot_Q>
1

> <i_epik_Tot_abs_Q>
1

> <r_epik_Metal_State_Penalty>
0.118015

> <b_epik_Metal_Only>
0

> <s_lp_Force_Field>
OPLS_2005

> <r_lp_Energy>
10.3737

> <b_lp_Chiralities_Consistent>
1

> <s_lp_Variant>
AV-unprocessed.smi:2684-1

> <Gold.Version>
5.8.1

> <Gold.Id.Protein>
6NUR|6NUR_protein|mol2

> <Gold.PLP.Fitness>
48.5900

> <Gold.PLP.PLP>
-41.2377

> <Gold.PLP.part.hbond>
-4.3115

> <Gold.PLP.part.metal>
0.0000

> <Gold.PLP.part.buried>
-4.4422

> <Gold.PLP.part.nonpolar>
-32.4763

> <Gold.PLP.part.repulsive>
0.4070

> <Gold.PLP.ligand.clash>
1.3242

> <Gold.PLP.ligand.torsion>
1.6895

> <Gold.PLP.Chemscore.Hbond>
3.9931

> <Gold.PLP.Chemscore.CHOScore>
0.0000

> <Gold.PLP.Chemscore.Metal>
0.0000

> <Gold.Chemscore.Hbonds>
donor molecule, donor type, donor heavy atom, donor atom, acceptor molecule, acceptor atom, score
      L1  H     9    31       P1  7948  2.00
      L1  H    13    34       P1  7957  1.00
      P1  H  7989  7998       L1    17  0.07
      P1  H  7997  8009       L1    17  0.93

> <Gold.PLP.Chemscore.Internal.Correction>
0.0761

> <Gold.Rescore>
     Score         DG    S(hbond)    S(metal)    S(lipo)     H(rot)  DE(clash)    DE(int)     intcor
     18.93     -20.70       2.93        0.00      91.31       2.04       0.05       1.73       ----

> <Gold.Chemscore.Fitness>
18.9310

> <Gold.Chemscore.DG>
-20.7038

> <Gold.Chemscore.ZeroCoef>
-5.4800

> <Gold.Chemscore.Hbond>
2.9258

> <Gold.Chemscore.Metal>
0.0000

> <Gold.Chemscore.Lipo>
91.3106

> <Gold.Chemscore.Internal_Hbond>
0.0000

> <Gold.Chemscore.DEClash>
0.0460

> <Gold.Chemscore.DEInternal>
1.7268

> <Gold.Chemscore.Rot>
2.0437

> <Gold.Chemscore.Internal.Correction>
   9.000000E+99

> <Gold.Chemscore.Hbonds>
donor molecule, donor type, donor heavy atom, donor atom, acceptor molecule, acceptor atom, score
      L1  H     9    31       P1  7948  1.00
      L1  H    13    34       P1  7957  1.00
      P1  H  7997  8009       L1    17  0.72

> <Gold.Chemscore.Hbond.Weighted>
-9.7723

> <Gold.Chemscore.Metal.Weighted>
-0.0000

> <Gold.Chemscore.Lipo.Weighted>
-10.6833

> <Gold.Chemscore.Internal_Hbond.Weighted>
0.0000

> <Gold.Chemscore.DEClash.Weighted>
0.0460

> <Gold.Chemscore.DEInternal.Weighted>
1.7268

> <Gold.Chemscore.Rot.Weighted>
5.2318

> <Gold.Chemscore.Internal.Correction.Weighted>
   9.000000E+99

> <Gold.Protein.RotatedTorsions>
[ 6907 6896 6895 6894 ] final  -51.25 input  -60.11 | X-H torsion
[ 7974 7965 7964 7962 ] final  -94.44 input  175.53 | X-H torsion
[ 8008 7997 7996 7995 ] final -140.95 input   59.86 | X-H torsion
[ 10167 10162 10161 10158 ] final  -60.14 input  -65.29 | X-H torsion
[ 10718 10713 10712 10709 ] final -154.06 input   66.30 | X-H torsion
[ 10763 10752 10751 10750 ] final -135.23 input  -60.55 | X-H torsion
[ 11005 11000 10999 10996 ] final   53.76 input  -57.11 | X-H torsion

> <Gold.Protein.ActiveResidues>
 VAL166  LYS551  ARG553  GLY616  TRP617  ASP618  TYR619  PRO620  LYS621  CYS622 
 ASP623  PHE694  ASN695  SER759  ASP760  ASP761  ALA762  ILE779  LEU786  VAL792 
 PHE793  MET794  SER795  GLU796  ALA797  LYS798  CYS799  TRP800  GLU811  SER814 

> <Gold.Protein.RotatedAtoms>
  150.8629  134.7985  159.7096 H   0  0  0  0  0  0  0  0  0  0  0  0  # atno 6907 bound_to 6896
  152.4660  134.5071  159.9752 H   0  0  0  0  0  0  0  0  0  0  0  0  # atno 6908 bound_to 6896
  151.5171  133.3435  159.2930 H   0  0  0  0  0  0  0  0  0  0  0  0  # atno 6909 bound_to 6896
  145.3732  140.9508  143.2435 H   0  0  0  0  0  0  0  0  0  0  0  0  # atno 7974 bound_to 7965
  155.4698  140.0552  157.2981 H   0  0  0  0  0  0  0  0  0  0  0  0  # atno 8008 bound_to 7997
  154.4703  140.2037  155.9965 H   0  0  0  0  0  0  0  0  0  0  0  0  # atno 8009 bound_to 7997
  156.1045  140.3214  155.7991 H   0  0  0  0  0  0  0  0  0  0  0  0  # atno 8010 bound_to 7997
  140.6090  143.2381  151.5754 H   0  0  0  0  0  0  0  0  0  0  0  0  # atno 10167 bound_to 10162
  156.4942  130.8361  151.2583 H   0  0  0  0  0  0  0  0  0  0  0  0  # atno 10718 bound_to 10713
  154.8706  135.3710  154.4865 H   0  0  0  0  0  0  0  0  0  0  0  0  # atno 10763 bound_to 10752
  153.5515  135.7024  153.5594 H   0  0  0  0  0  0  0  0  0  0  0  0  # atno 10764 bound_to 10752
  153.3711  135.4021  155.1753 H   0  0  0  0  0  0  0  0  0  0  0  0  # atno 10765 bound_to 10752
  140.0741  134.5429  155.9015 H   0  0  0  0  0  0  0  0  0  0  0  0  # atno 11005 bound_to 11000
  144.8561  139.5248  143.6834 LP  0  0  0  0  0  0  0  0  0  0  0  0  # atno 17320 bound_to 7965
  146.2876  139.7047  142.9184 LP  0  0  0  0  0  0  0  0  0  0  0  0  # atno 17321 bound_to 7965
  139.5347  144.2816  152.1225 LP  0  0  0  0  0  0  0  0  0  0  0  0  # atno 17342 bound_to 10162
  140.2011  144.4657  150.6431 LP  0  0  0  0  0  0  0  0  0  0  0  0  # atno 17343 bound_to 10162
  157.7470  131.0003  150.2922 LP  0  0  0  0  0  0  0  0  0  0  0  0  # atno 17370 bound_to 10713
  156.3397  130.3813  149.7420 LP  0  0  0  0  0  0  0  0  0  0  0  0  # atno 17371 bound_to 10713
  141.2023  133.6624  156.5997 LP  0  0  0  0  0  0  0  0  0  0  0  0  # atno 17394 bound_to 11000
  140.3584  134.7709  157.4516 LP  0  0  0  0  0  0  0  0  0  0  0  0  # atno 17395 bound_to 11000

$$$$
