AV-unprocessed.smi:532|AV-procd|sdf|2853|dock1
  -GOLD-   2262023343D 1   1.00000     0.00000
 Structure written by MMmdl.
 48 50  0  0  0  0  0  0  0  0  2 V2000
  150.5804  132.8722  156.9211 C   0  0  0  0  0  0  0  0  0  0  0  0
  149.7241  133.6294  157.7578 O   0  0  0  0  0  0  0  0  0  0  0  0
  148.5572  134.0663  157.0825 C   0  0  0  0  0  0  0  0  0  0  0  0
  147.8775  135.1586  157.9165 C   0  0  0  0  0  0  0  0  0  0  0  0
  148.8447  136.1228  158.4237 N   0  0  0  0  0  0  0  0  0  0  0  0
  149.0443  136.4948  159.7135 C   0  0  0  0  0  0  0  0  0  0  0  0
  148.2802  135.9618  160.7483 N   0  0  0  0  0  0  0  0  0  0  0  0
  148.1569  136.6143  162.0523 C   0  0  0  0  0  0  0  0  0  0  0  0
  146.7958  136.3762  162.7444 C   0  0  1  0  0  0  0  0  0  0  0  0
  145.6539  137.2053  162.1342 C   0  0  0  0  0  0  0  0  0  0  0  0
  146.4719  134.8735  162.8042 C   0  0  0  0  0  0  0  0  0  0  0  0
  146.6357  134.2141  161.4252 C   0  0  2  0  0  0  0  0  0  0  0  0
  146.3867  132.7014  161.4938 C   0  0  0  0  0  0  0  0  0  0  0  0
  148.0351  134.5269  160.8655 C   0  0  0  0  0  0  0  0  0  0  0  0
  150.0171  137.3894  159.8967 N   0  0  0  0  0  0  0  0  0  0  0  0
  150.4649  137.6180  158.6036 C   0  0  0  0  0  0  0  0  0  0  0  0
  149.7733  136.8743  157.6998 C   0  0  0  0  0  0  0  0  0  0  0  0
  150.0174  136.9125  156.2429 C   0  0  0  0  0  0  0  0  0  0  0  0
  149.3487  136.2294  155.4698 O   0  0  0  0  0  0  0  0  0  0  0  0
  151.0327  137.7729  155.9137 N   0  5  0  0  0  0  0  0  0  0  0  0
  151.7625  138.5432  156.7950 C   0  0  0  0  0  0  0  0  0  0  0  0
  152.6588  139.2921  156.4059 O   0  0  0  0  0  0  0  0  0  0  0  0
  151.4915  138.4815  158.1388 N   0  0  0  0  0  0  0  0  0  0  0  0
  152.2172  139.2694  159.1398 C   0  0  0  0  0  0  0  0  0  0  0  0
  151.4611  132.5609  157.4825 H   0  0  0  0  0  0  0  0  0  0  0  0
  150.9165  133.4604  156.0661 H   0  0  0  0  0  0  0  0  0  0  0  0
  150.0807  131.9745  156.5549 H   0  0  0  0  0  0  0  0  0  0  0  0
  148.8144  134.4500  156.0943 H   0  0  0  0  0  0  0  0  0  0  0  0
  147.8758  133.2273  156.9374 H   0  0  0  0  0  0  0  0  0  0  0  0
  147.1303  135.6840  157.3236 H   0  0  0  0  0  0  0  0  0  0  0  0
  147.3281  134.7234  158.7504 H   0  0  0  0  0  0  0  0  0  0  0  0
  148.9587  136.2403  162.6903 H   0  0  0  0  0  0  0  0  0  0  0  0
  148.3352  137.6843  161.9397 H   0  0  0  0  0  0  0  0  0  0  0  0
  146.8973  136.7244  163.7730 H   0  0  0  0  0  0  0  0  0  0  0  0
  145.4562  136.9310  161.1000 H   0  0  0  0  0  0  0  0  0  0  0  0
  145.8864  138.2698  162.1585 H   0  0  0  0  0  0  0  0  0  0  0  0
  144.7279  137.0631  162.6916 H   0  0  0  0  0  0  0  0  0  0  0  0
  147.1490  134.3934  163.5123 H   0  0  0  0  0  0  0  0  0  0  0  0
  145.4642  134.7146  163.1898 H   0  0  0  0  0  0  0  0  0  0  0  0
  145.8948  134.6362  160.7450 H   0  0  0  0  0  0  0  0  0  0  0  0
  147.1067  132.2095  162.1486 H   0  0  0  0  0  0  0  0  0  0  0  0
  146.4686  132.2460  160.5065 H   0  0  0  0  0  0  0  0  0  0  0  0
  145.3880  132.4851  161.8741 H   0  0  0  0  0  0  0  0  0  0  0  0
  148.1464  134.0704  159.8809 H   0  0  0  0  0  0  0  0  0  0  0  0
  148.8056  134.0866  161.5000 H   0  0  0  0  0  0  0  0  0  0  0  0
  152.9995  139.9090  158.7307 H   0  0  0  0  0  0  0  0  0  0  0  0
  152.6886  138.6038  159.8635 H   0  0  0  0  0  0  0  0  0  0  0  0
  151.5216  139.9124  159.6796 H   0  0  0  0  0  0  0  0  0  0  0  0
  1  2  1  0  0  0  0
  1 25  1  0  0  0  0
  1 26  1  0  0  0  0
  1 27  1  0  0  0  0
  2  3  1  0  0  0  0
  3  4  1  0  0  0  0
  3 28  1  0  0  0  0
  3 29  1  0  0  0  0
  4  5  1  0  0  0  0
  4 30  1  0  0  0  0
  4 31  1  0  0  0  0
  5 17  1  0  0  0  0
  5  6  1  0  0  0  0
  6  7  1  0  0  0  0
  6 15  2  0  0  0  0
  7 14  1  0  0  0  0
  7  8  1  0  0  0  0
  8  9  1  0  0  0  0
  8 32  1  0  0  0  0
  8 33  1  0  0  0  0
  9 10  1  0  0  0  0
  9 11  1  0  0  0  0
  9 34  1  0  0  0  0
 10 35  1  0  0  0  0
 10 36  1  0  0  0  0
 10 37  1  0  0  0  0
 11 12  1  0  0  0  0
 11 38  1  0  0  0  0
 11 39  1  0  0  0  0
 12 13  1  0  0  0  0
 12 14  1  0  0  0  0
 12 40  1  0  0  0  0
 13 41  1  0  0  0  0
 13 42  1  0  0  0  0
 13 43  1  0  0  0  0
 14 44  1  0  0  0  0
 14 45  1  0  0  0  0
 15 16  1  0  0  0  0
 16 23  1  0  0  0  0
 16 17  2  0  0  0  0
 17 18  1  0  0  0  0
 18 19  2  0  0  0  0
 18 20  1  0  0  0  0
 20 21  1  0  0  0  0
 21 22  2  0  0  0  0
 21 23  1  0  0  0  0
 23 24  1  0  0  0  0
 24 46  1  0  0  0  0
 24 47  1  0  0  0  0
 24 48  1  0  0  0  0
M  CHG  1  20  -1
M  END
> <s_m_source_file>
AV-unprocessed.smi

> <i_m_source_file_index>
532

> <i_lp_mmshare_version>
43012

> <i_f3d_flags>
0

> <s_epik_input>
W0NIM11uMWMoPU8pW25IXWMoPU8pYyhjMTIpbihbQ0gyXVtDSDJdT1tDSDNdKWMobjIpTjNbQ0gyXVtDQEBIXShbQ0gzXSlbQ0gyXVtDQEBIXShbQ0gzXSlbQ0gyXTM=

> <s_epik_cmdline>
J2VwaWtfcHl0aG9uJywgJy1waCcsICc3LjAnLCAnLXRuJywgJzgnLCAnLW1hJywgJzIwMCcsICctbWV0YWxfYmluZGluZycsICctaW1hZScsICc8aW5maWxlLm1hZT4nLCAnLW9tYWUnLCAnPG91dGZpbGUubWFlPic=

> <r_lp_tautomer_probability>
1

> <r_epik_Ionization_Penalty>
5.12128

> <r_epik_Ionization_Penalty_Charging>
0.0789629

> <r_epik_Ionization_Penalty_Neutral>
5.04232

> <r_epik_State_Penalty>
5.03111

> <r_epik_Charging_Adjusted_Penalty>
5.11007

> <i_epik_Tot_Q>
-1

> <i_epik_Tot_abs_Q>
1

> <r_epik_Metal_State_Penalty>
1.14201

> <b_epik_Metal_Only>
1

> <s_lp_Force_Field>
OPLS_2005

> <r_lp_Energy>
48.0239

> <b_lp_Chiralities_Consistent>
1

> <s_lp_Variant>
AV-unprocessed.smi:532-6

> <Gold.Version>
5.8.1

> <Gold.Id.Protein>
6NUR|6NUR_protein|mol2

> <Gold.PLP.Fitness>
37.5069

> <Gold.PLP.PLP>
-31.8132

> <Gold.PLP.part.hbond>
-3.0000

> <Gold.PLP.part.metal>
0.0000

> <Gold.PLP.part.buried>
-3.4519

> <Gold.PLP.part.nonpolar>
-26.1766

> <Gold.PLP.part.repulsive>
0.1241

> <Gold.PLP.ligand.clash>
0.0000

> <Gold.PLP.ligand.torsion>
0.6273

> <Gold.PLP.Chemscore.Hbond>
2.0131

> <Gold.PLP.Chemscore.CHOScore>
0.0000

> <Gold.PLP.Chemscore.Metal>
0.0000

> <Gold.Chemscore.Hbonds>
donor molecule, donor type, donor heavy atom, donor atom, acceptor molecule, acceptor atom, score
      P1  H  6896  6908       L1     2  1.00
      P1  H  6931  6943       L1    15  0.02
      P1  H  7997  8010       L1    22  1.00

> <Gold.PLP.Chemscore.Internal.Correction>
0.9090

> <Gold.Rescore>
     Score         DG    S(hbond)    S(metal)    S(lipo)     H(rot)  DE(clash)    DE(int)     intcor
     13.45     -15.82       1.88        0.00      65.54       1.41       0.03       2.33       ----

> <Gold.Chemscore.Fitness>
13.4539

> <Gold.Chemscore.DG>
-15.8160

> <Gold.Chemscore.ZeroCoef>
-5.4800

> <Gold.Chemscore.Hbond>
1.8829

> <Gold.Chemscore.Metal>
0.0000

> <Gold.Chemscore.Lipo>
65.5441

> <Gold.Chemscore.Internal_Hbond>
0.0000

> <Gold.Chemscore.DEClash>
0.0339

> <Gold.Chemscore.DEInternal>
2.3283

> <Gold.Chemscore.Rot>
1.4147

> <Gold.Chemscore.Internal.Correction>
   9.000000E+99

> <Gold.Chemscore.Hbonds>
donor molecule, donor type, donor heavy atom, donor atom, acceptor molecule, acceptor atom, score
      P1  H  6896  6908       L1     2  0.26
      P1  H  7997  8010       L1    22  1.00

> <Gold.Chemscore.Hbond.Weighted>
-6.2890

> <Gold.Chemscore.Metal.Weighted>
-0.0000

> <Gold.Chemscore.Lipo.Weighted>
-7.6687

> <Gold.Chemscore.Internal_Hbond.Weighted>
0.0000

> <Gold.Chemscore.DEClash.Weighted>
0.0339

> <Gold.Chemscore.DEInternal.Weighted>
2.3283

> <Gold.Chemscore.Rot.Weighted>
3.6216

> <Gold.Chemscore.Internal.Correction.Weighted>
   9.000000E+99

> <Gold.Protein.RotatedTorsions>
[ 6907 6896 6895 6894 ] final  118.33 input  -60.11 | X-H torsion
[ 7974 7965 7964 7962 ] final  154.22 input  175.53 | X-H torsion
[ 8008 7997 7996 7995 ] final   59.45 input   59.86 | X-H torsion
[ 10167 10162 10161 10158 ] final  -41.18 input  -65.29 | X-H torsion
[ 10718 10713 10712 10709 ] final -110.08 input   66.30 | X-H torsion
[ 10763 10752 10751 10750 ] final -116.60 input  -60.55 | X-H torsion
[ 11005 11000 10999 10996 ] final  -73.29 input  -57.11 | X-H torsion

> <Gold.Protein.ActiveResidues>
 VAL166  LYS551  ARG553  GLY616  TRP617  ASP618  TYR619  PRO620  LYS621  CYS622 
 ASP623  PHE694  ASN695  SER759  ASP760  ASP761  ALA762  ILE779  LEU786  VAL792 
 PHE793  MET794  SER795  GLU796  ALA797  LYS798  CYS799  TRP800  GLU811  SER814 

> <Gold.Protein.RotatedAtoms>
  152.4550  133.7706  159.6796 H   0  0  0  0  0  0  0  0  0  0  0  0  # atno 6907 bound_to 6896
  150.8474  133.7830  159.3044 H   0  0  0  0  0  0  0  0  0  0  0  0  # atno 6908 bound_to 6896
  151.5436  135.1071  159.9984 H   0  0  0  0  0  0  0  0  0  0  0  0  # atno 6909 bound_to 6896
  144.8103  139.6905  143.6144 H   0  0  0  0  0  0  0  0  0  0  0  0  # atno 7974 bound_to 7965
  155.5664  140.3489  155.4504 H   0  0  0  0  0  0  0  0  0  0  0  0  # atno 8008 bound_to 7997
  156.0476  140.1310  157.0111 H   0  0  0  0  0  0  0  0  0  0  0  0  # atno 8009 bound_to 7997
  154.4420  140.1011  156.6314 H   0  0  0  0  0  0  0  0  0  0  0  0  # atno 8010 bound_to 7997
  140.7011  143.3109  151.3030 H   0  0  0  0  0  0  0  0  0  0  0  0  # atno 10167 bound_to 10162
  156.0571  130.5797  150.8187 H   0  0  0  0  0  0  0  0  0  0  0  0  # atno 10718 bound_to 10713
  154.8525  135.4340  154.1846 H   0  0  0  0  0  0  0  0  0  0  0  0  # atno 10763 bound_to 10752
  153.2929  135.6963  153.7282 H   0  0  0  0  0  0  0  0  0  0  0  0  # atno 10764 bound_to 10752
  153.6442  135.3462  155.3055 H   0  0  0  0  0  0  0  0  0  0  0  0  # atno 10765 bound_to 10752
  141.1621  133.6873  156.7189 H   0  0  0  0  0  0  0  0  0  0  0  0  # atno 11005 bound_to 11000
  146.2400  139.5982  142.9498 LP  0  0  0  0  0  0  0  0  0  0  0  0  # atno 17320 bound_to 7965
  145.5340  141.0425  143.2367 LP  0  0  0  0  0  0  0  0  0  0  0  0  # atno 17321 bound_to 7965
  139.6532  144.0324  152.2641 LP  0  0  0  0  0  0  0  0  0  0  0  0  # atno 17342 bound_to 10162
  139.9867  144.6390  150.7851 LP  0  0  0  0  0  0  0  0  0  0  0  0  # atno 17343 bound_to 10162
  157.5550  131.0945  150.9641 LP  0  0  0  0  0  0  0  0  0  0  0  0  # atno 17370 bound_to 10713
  156.9892  130.5557  149.5302 LP  0  0  0  0  0  0  0  0  0  0  0  0  # atno 17371 bound_to 10713
  140.2831  134.8301  157.3951 LP  0  0  0  0  0  0  0  0  0  0  0  0  # atno 17394 bound_to 11000
  140.1415  134.4966  155.8028 LP  0  0  0  0  0  0  0  0  0  0  0  0  # atno 17395 bound_to 11000

$$$$
