AV-unprocessed.smi:15|AV-procd|sdf|80|dock2
  -GOLD-   2262015213D 1   1.00000     0.00000
 Structure written by MMmdl.
 53 56  0  0  0  0  0  0  0  0  1 V2000
  151.5186  142.0027  156.3614 C   0  0  0  0  0  0  0  0  0  0  0  0
  150.5886  141.6553  157.5309 C   0  0  0  0  0  0  0  0  0  0  0  0
  151.3112  141.1573  158.7014 N   0  0  0  0  0  0  0  0  0  0  0  0
  152.5543  141.8033  159.1276 C   0  0  0  0  0  0  0  0  0  0  0  0
  152.3369  142.8868  160.2008 C   0  0  1  0  0  0  0  0  0  0  0  0
  152.6501  144.2998  159.7144 C   0  0  0  0  0  0  0  0  0  0  0  0
  151.8082  145.1845  160.6216 C   0  0  0  0  0  0  0  0  0  0  0  0
  150.8017  144.2191  161.2544 C   0  0  0  0  0  0  0  0  0  0  0  0
  150.9640  143.0013  160.5433 O   0  0  0  0  0  0  0  0  0  0  0  0
  151.2711  139.8223  158.9326 C   0  0  0  0  0  0  0  0  0  0  0  0
  150.4295  139.0804  158.1681 N   0  0  0  0  0  0  0  0  0  0  0  0
  150.3258  137.7631  158.3649 C   0  0  0  0  0  0  0  0  0  0  0  0
  150.9538  137.0016  159.2625 N   0  0  0  0  0  0  0  0  0  0  0  0
  151.7917  137.7437  160.0417 C   0  0  0  0  0  0  0  0  0  0  0  0
  152.0143  139.1466  159.9444 C   0  0  0  0  0  0  0  0  0  0  0  0
  152.9247  139.5452  160.9173 N   0  0  0  0  0  0  0  0  0  0  0  0
  153.2286  138.4426  161.5449 C   0  0  0  0  0  0  0  0  0  0  0  0
  152.5840  137.3144  161.0917 N   0  0  0  0  0  0  0  0  0  0  0  0
  152.7243  135.9625  161.6087 C   0  0  0  0  0  0  0  0  0  0  0  0
  153.3819  135.8914  163.0140 C   0  0  1  0  0  0  0  0  0  0  0  0
  154.7497  136.2412  162.9134 O   0  0  0  0  0  0  0  0  0  0  0  0
  152.7195  136.7858  164.0554 C   0  0  0  0  0  0  0  0  0  0  0  0
  151.5446  135.9331  164.5241 C   0  0  0  0  0  0  0  0  0  0  0  0
  151.9721  134.5808  164.3868 O   0  0  0  0  0  0  0  0  0  0  0  0
  153.2262  134.5258  163.7109 C   0  0  1  0  0  0  0  0  0  0  0  0
  153.3070  133.2801  162.8162 C   0  0  0  0  0  0  0  0  0  0  0  0
  150.9520  142.4401  155.5393 H   0  0  0  0  0  0  0  0  0  0  0  0
  152.0263  141.1211  155.9711 H   0  0  0  0  0  0  0  0  0  0  0  0
  152.2769  142.7260  156.6626 H   0  0  0  0  0  0  0  0  0  0  0  0
  150.0345  142.5547  157.8033 H   0  0  0  0  0  0  0  0  0  0  0  0
  149.8517  140.9194  157.2098 H   0  0  0  0  0  0  0  0  0  0  0  0
  153.2220  141.0384  159.5224 H   0  0  0  0  0  0  0  0  0  0  0  0
  153.0768  142.2281  158.2695 H   0  0  0  0  0  0  0  0  0  0  0  0
  152.9192  142.6756  161.0991 H   0  0  0  0  0  0  0  0  0  0  0  0
  153.7141  144.5336  159.7610 H   0  0  0  0  0  0  0  0  0  0  0  0
  152.3236  144.4229  158.6808 H   0  0  0  0  0  0  0  0  0  0  0  0
  152.4171  145.6614  161.3904 H   0  0  0  0  0  0  0  0  0  0  0  0
  151.3123  145.9697  160.0498 H   0  0  0  0  0  0  0  0  0  0  0  0
  151.0370  144.0529  162.3067 H   0  0  0  0  0  0  0  0  0  0  0  0
  149.7744  144.5778  161.1871 H   0  0  0  0  0  0  0  0  0  0  0  0
  149.6380  137.2459  157.7123 H   0  0  0  0  0  0  0  0  0  0  0  0
  153.9301  138.4231  162.3663 H   0  0  0  0  0  0  0  0  0  0  0  0
  151.7354  135.5034  161.6289 H   0  0  0  0  0  0  0  0  0  0  0  0
  153.3082  135.3901  160.8869 H   0  0  0  0  0  0  0  0  0  0  0  0
  155.0217  136.6214  163.7346 H   0  0  0  0  0  0  0  0  0  0  0  0
  153.3940  136.9460  164.8985 H   0  0  0  0  0  0  0  0  0  0  0  0
  152.4203  137.7689  163.6935 H   0  0  0  0  0  0  0  0  0  0  0  0
  151.2538  136.1569  165.5506 H   0  0  0  0  0  0  0  0  0  0  0  0
  150.6753  136.0917  163.8851 H   0  0  0  0  0  0  0  0  0  0  0  0
  153.9856  134.4409  164.4908 H   0  0  0  0  0  0  0  0  0  0  0  0
  154.2515  133.2491  162.2730 H   0  0  0  0  0  0  0  0  0  0  0  0
  152.4960  133.2508  162.0884 H   0  0  0  0  0  0  0  0  0  0  0  0
  153.2394  132.3714  163.4146 H   0  0  0  0  0  0  0  0  0  0  0  0
  1  2  1  0  0  0  0
  1 27  1  0  0  0  0
  1 28  1  0  0  0  0
  1 29  1  0  0  0  0
  2  3  1  0  0  0  0
  2 30  1  0  0  0  0
  2 31  1  0  0  0  0
  3  4  1  0  0  0  0
  3 10  1  0  0  0  0
  4  5  1  0  0  0  0
  4 32  1  0  0  0  0
  4 33  1  0  0  0  0
  5  9  1  0  0  0  0
  5  6  1  0  0  0  0
  5 34  1  0  0  0  0
  6  7  1  0  0  0  0
  6 35  1  0  0  0  0
  6 36  1  0  0  0  0
  7  8  1  0  0  0  0
  7 37  1  0  0  0  0
  7 38  1  0  0  0  0
  8  9  1  0  0  0  0
  8 39  1  0  0  0  0
  8 40  1  0  0  0  0
 10 15  1  0  0  0  0
 10 11  2  0  0  0  0
 11 12  1  0  0  0  0
 12 13  2  0  0  0  0
 12 41  1  0  0  0  0
 13 14  1  0  0  0  0
 14 18  1  0  0  0  0
 14 15  2  0  0  0  0
 15 16  1  0  0  0  0
 16 17  2  0  0  0  0
 17 18  1  0  0  0  0
 17 42  1  0  0  0  0
 18 19  1  0  0  0  0
 19 20  1  0  0  0  0
 19 43  1  0  0  0  0
 19 44  1  0  0  0  0
 20 25  1  0  0  0  0
 20 21  1  0  0  0  0
 20 22  1  0  0  0  0
 21 45  1  0  0  0  0
 22 23  1  0  0  0  0
 22 46  1  0  0  0  0
 22 47  1  0  0  0  0
 23 24  1  0  0  0  0
 23 48  1  0  0  0  0
 23 49  1  0  0  0  0
 24 25  1  0  0  0  0
 25 26  1  0  0  0  0
 25 50  1  0  0  0  0
 26 51  1  0  0  0  0
 26 52  1  0  0  0  0
 26 53  1  0  0  0  0
M  END
> <s_m_source_file>
AV-unprocessed.smi

> <i_m_source_file_index>
15

> <i_lp_mmshare_version>
43012

> <i_f3d_flags>
0

> <s_epik_input>
TzFbQ0gyXVtDSDJdW0NIMl1bQ0BIXTFbQ0gyXU4oW0NIMl1bQ0gzXSljKG5bY0hdbjIpYyhjMjMpbltjSF1uM1tDSDJdW0NAQF00KFtPSF0pW0NIMl1bQ0gyXU9bQ0BIXTRbQ0gzXQ==

> <s_epik_cmdline>
J2VwaWtfcHl0aG9uJywgJy1waCcsICc3LjAnLCAnLXRuJywgJzgnLCAnLW1hJywgJzIwMCcsICctbWV0YWxfYmluZGluZycsICctaW1hZScsICc8aW5maWxlLm1hZT4nLCAnLW9tYWUnLCAnPG91dGZpbGUubWFlPic=

> <r_lp_tautomer_probability>
1

> <r_epik_Ionization_Penalty>
0.00360814

> <r_epik_Ionization_Penalty_Charging>
0

> <r_epik_Ionization_Penalty_Neutral>
0.00360814

> <r_epik_State_Penalty>
0.00237482

> <r_epik_Charging_Adjusted_Penalty>
0.00237482

> <i_epik_Tot_Q>
0

> <i_epik_Tot_abs_Q>
0

> <r_epik_Metal_State_Penalty>
-0

> <b_epik_Metal_Only>
0

> <s_lp_Force_Field>
OPLS_2005

> <r_lp_Energy>
45.9982

> <b_lp_Chiralities_Consistent>
1

> <s_lp_Variant>
AV-unprocessed.smi:15-2

> <Gold.Version>
5.8.1

> <Gold.Id.Protein>
6NUR|6NUR_protein|mol2

> <Gold.PLP.Fitness>
51.6223

> <Gold.PLP.PLP>
-50.7421

> <Gold.PLP.part.hbond>
-1.7389

> <Gold.PLP.part.metal>
0.0000

> <Gold.PLP.part.buried>
-7.7678

> <Gold.PLP.part.nonpolar>
-40.4838

> <Gold.PLP.part.repulsive>
0.1146

> <Gold.PLP.ligand.clash>
0.0000

> <Gold.PLP.ligand.torsion>
1.5824

> <Gold.PLP.Chemscore.Hbond>
1.0000

> <Gold.PLP.Chemscore.CHOScore>
0.0000

> <Gold.PLP.Chemscore.Metal>
0.0000

> <Gold.Chemscore.Hbonds>
donor molecule, donor type, donor heavy atom, donor atom, acceptor molecule, acceptor atom, score
      P1  H  6896  6907       L1    13  1.00

> <Gold.PLP.Chemscore.Internal.Correction>
1.0450

> <Gold.Rescore>
     Score         DG    S(hbond)    S(metal)    S(lipo)     H(rot)  DE(clash)    DE(int)     intcor
     12.14     -15.69       0.99        0.00     112.56       2.44       0.05       3.50       ----

> <Gold.Chemscore.Fitness>
12.1429

> <Gold.Chemscore.DG>
-15.6923

> <Gold.Chemscore.ZeroCoef>
-5.4800

> <Gold.Chemscore.Hbond>
0.9871

> <Gold.Chemscore.Metal>
0.0000

> <Gold.Chemscore.Lipo>
112.5626

> <Gold.Chemscore.Internal_Hbond>
0.0000

> <Gold.Chemscore.DEClash>
0.0462

> <Gold.Chemscore.DEInternal>
3.5032

> <Gold.Chemscore.Rot>
2.4431

> <Gold.Chemscore.Internal.Correction>
   9.000000E+99

> <Gold.Chemscore.Hbonds>
donor molecule, donor type, donor heavy atom, donor atom, acceptor molecule, acceptor atom, score
      P1  H  6896  6907       L1    13  0.43

> <Gold.Chemscore.Hbond.Weighted>
-3.2969

> <Gold.Chemscore.Metal.Weighted>
-0.0000

> <Gold.Chemscore.Lipo.Weighted>
-13.1698

> <Gold.Chemscore.Internal_Hbond.Weighted>
0.0000

> <Gold.Chemscore.DEClash.Weighted>
0.0462

> <Gold.Chemscore.DEInternal.Weighted>
3.5032

> <Gold.Chemscore.Rot.Weighted>
6.2544

> <Gold.Chemscore.Internal.Correction.Weighted>
   9.000000E+99

> <Gold.Protein.RotatedTorsions>
[ 6907 6896 6895 6894 ] final  -19.12 input  -60.11 | X-H torsion
[ 7974 7965 7964 7962 ] final  -61.62 input  175.53 | X-H torsion
[ 8008 7997 7996 7995 ] final   52.84 input   59.86 | X-H torsion
[ 10167 10162 10161 10158 ] final -138.16 input  -65.29 | X-H torsion
[ 10718 10713 10712 10709 ] final   37.90 input   66.30 | X-H torsion
[ 10763 10752 10751 10750 ] final -139.28 input  -60.55 | X-H torsion
[ 11005 11000 10999 10996 ] final -172.52 input  -57.11 | X-H torsion

> <Gold.Protein.ActiveResidues>
 VAL166  LYS551  ARG553  GLY616  TRP617  ASP618  TYR619  PRO620  LYS621  CYS622 
 ASP623  PHE694  ASN695  SER759  ASP760  ASP761  ALA762  ILE779  LEU786  VAL792 
 PHE793  MET794  SER795  GLU796  ALA797  LYS798  CYS799  TRP800  GLU811  SER814 

> <Gold.Protein.RotatedAtoms>
  151.2678  135.0675  159.9122 H   0  0  0  0  0  0  0  0  0  0  0  0  # atno 6907 bound_to 6896
  152.5355  134.0162  159.7971 H   0  0  0  0  0  0  0  0  0  0  0  0  # atno 6908 bound_to 6896
  151.0395  133.5668  159.2683 H   0  0  0  0  0  0  0  0  0  0  0  0  # atno 6909 bound_to 6896
  145.8013  140.8653  143.0230 H   0  0  0  0  0  0  0  0  0  0  0  0  # atno 7974 bound_to 7965
  155.4584  140.3461  155.4309 H   0  0  0  0  0  0  0  0  0  0  0  0  # atno 8008 bound_to 7997
  156.1176  140.1478  156.9279 H   0  0  0  0  0  0  0  0  0  0  0  0  # atno 8009 bound_to 7997
  154.4800  140.0872  156.7334 H   0  0  0  0  0  0  0  0  0  0  0  0  # atno 8010 bound_to 7997
  139.8506  143.7203  152.2658 H   0  0  0  0  0  0  0  0  0  0  0  0  # atno 10167 bound_to 10162
  157.3524  130.7605  149.6988 H   0  0  0  0  0  0  0  0  0  0  0  0  # atno 10718 bound_to 10713
  154.8613  135.3587  154.5522 H   0  0  0  0  0  0  0  0  0  0  0  0  # atno 10763 bound_to 10752
  153.6139  135.7008  153.5341 H   0  0  0  0  0  0  0  0  0  0  0  0  # atno 10764 bound_to 10752
  153.3186  135.4158  155.1357 H   0  0  0  0  0  0  0  0  0  0  0  0  # atno 10765 bound_to 10752
  140.4960  134.5939  157.4971 H   0  0  0  0  0  0  0  0  0  0  0  0  # atno 11005 bound_to 11000
  144.6768  140.0263  143.7483 LP  0  0  0  0  0  0  0  0  0  0  0  0  # atno 17320 bound_to 7965
  145.9875  139.2989  143.1005 LP  0  0  0  0  0  0  0  0  0  0  0  0  # atno 17321 bound_to 7965
  139.7469  144.7545  151.0566 LP  0  0  0  0  0  0  0  0  0  0  0  0  # atno 17342 bound_to 10162
  140.7788  143.4906  150.9899 LP  0  0  0  0  0  0  0  0  0  0  0  0  # atno 17343 bound_to 10162
  155.9723  130.4137  150.4094 LP  0  0  0  0  0  0  0  0  0  0  0  0  # atno 17370 bound_to 10713
  157.2159  131.0471  151.2574 LP  0  0  0  0  0  0  0  0  0  0  0  0  # atno 17371 bound_to 10713
  139.9741  134.7245  155.9984 LP  0  0  0  0  0  0  0  0  0  0  0  0  # atno 17394 bound_to 11000
  141.1460  133.6556  156.3868 LP  0  0  0  0  0  0  0  0  0  0  0  0  # atno 17395 bound_to 11000

$$$$
