AV-unprocessed.smi:528|AV-procd|sdf|2831|dock8
  -GOLD-   2262023323D 1   1.00000     0.00000
 Structure written by MMmdl.
 45 47  0  0  0  0  0  0  0  0  1 V2000
  151.1778  136.9098  156.3856 C   0  0  0  0  0  0  0  0  0  0  0  0
  150.3741  138.0129  157.0915 C   0  0  2  0  0  0  0  0  0  0  0  0
  149.1462  137.4313  157.6304 N   0  0  0  0  0  0  0  0  0  0  0  0
  148.9156  137.1286  158.9175 C   0  0  0  0  0  0  0  0  0  0  0  0
  149.7567  137.2628  159.8072 O   0  0  0  0  0  0  0  0  0  0  0  0
  147.5163  136.5865  159.2375 C   0  0  0  0  0  0  0  0  0  0  0  0
  147.5193  135.6430  160.3671 N   0  0  0  0  0  0  0  0  0  0  0  0
  147.6089  134.2748  160.0440 C   0  0  0  0  0  0  0  0  0  0  0  0
  147.6192  133.3004  160.9732 C   0  0  0  0  0  0  0  0  0  0  0  0
  147.6516  131.8301  160.5863 C   0  0  0  0  0  0  0  0  0  0  0  0
  148.7697  131.5305  159.9251 F   0  0  0  0  0  0  0  0  0  0  0  0
  147.5798  131.0484  161.6645 F   0  0  0  0  0  0  0  0  0  0  0  0
  146.6145  131.5464  159.7995 F   0  0  0  0  0  0  0  0  0  0  0  0
  147.5032  133.7257  162.3542 C   0  0  0  0  0  0  0  0  0  0  0  0
  147.4021  135.0295  162.6797 C   0  0  0  0  0  0  0  0  0  0  0  0
  147.4040  136.0786  161.6572 C   0  0  0  0  0  0  0  0  0  0  0  0
  147.3053  137.2717  161.9438 O   0  0  0  0  0  0  0  0  0  0  0  0
  150.0247  139.1816  156.1396 C   0  0  2  0  0  0  0  0  0  0  0  0
  151.2354  140.0007  155.6377 C   0  0  0  0  0  0  0  0  0  0  0  0
  150.8017  141.4561  155.8967 C   0  0  2  0  0  0  0  0  0  0  0  0
  150.8817  141.7437  157.4068 C   0  0  0  0  0  0  0  0  0  0  0  0
  149.6874  140.9493  157.9645 C   0  0  0  0  0  0  0  0  0  0  0  0
  149.0952  140.2875  156.7025 C   0  0  1  0  0  0  0  0  0  0  0  0
  149.2955  141.3917  155.6694 C   0  0  0  0  0  0  0  0  0  0  0  0
  152.1216  137.2924  155.9967 H   0  0  0  0  0  0  0  0  0  0  0  0
  150.6218  136.4851  155.5492 H   0  0  0  0  0  0  0  0  0  0  0  0
  151.4154  136.0977  157.0737 H   0  0  0  0  0  0  0  0  0  0  0  0
  150.9971  138.3966  157.9003 H   0  0  0  0  0  0  0  0  0  0  0  0
  148.3972  137.2753  156.9716 H   0  0  0  0  0  0  0  0  0  0  0  0
  146.8475  137.4190  159.4643 H   0  0  0  0  0  0  0  0  0  0  0  0
  147.1059  136.1310  158.3349 H   0  0  0  0  0  0  0  0  0  0  0  0
  147.6561  134.0681  158.9842 H   0  0  0  0  0  0  0  0  0  0  0  0
  147.5003  132.9874  163.1424 H   0  0  0  0  0  0  0  0  0  0  0  0
  147.3188  135.3103  163.7194 H   0  0  0  0  0  0  0  0  0  0  0  0
  149.5229  138.7560  155.2683 H   0  0  0  0  0  0  0  0  0  0  0  0
  152.1619  139.7589  156.1600 H   0  0  0  0  0  0  0  0  0  0  0  0
  151.4009  139.8239  154.5742 H   0  0  0  0  0  0  0  0  0  0  0  0
  151.3316  142.1863  155.2846 H   0  0  0  0  0  0  0  0  0  0  0  0
  151.8309  141.4264  157.8400 H   0  0  0  0  0  0  0  0  0  0  0  0
  150.7610  142.8088  157.6084 H   0  0  0  0  0  0  0  0  0  0  0  0
  149.9803  140.2361  158.7333 H   0  0  0  0  0  0  0  0  0  0  0  0
  148.9603  141.6270  158.4142 H   0  0  0  0  0  0  0  0  0  0  0  0
  148.0598  139.9679  156.8250 H   0  0  0  0  0  0  0  0  0  0  0  0
  148.7796  142.3204  155.9206 H   0  0  0  0  0  0  0  0  0  0  0  0
  149.0230  141.0949  154.6550 H   0  0  0  0  0  0  0  0  0  0  0  0
  1  2  1  0  0  0  0
  1 25  1  0  0  0  0
  1 26  1  0  0  0  0
  1 27  1  0  0  0  0
  2  3  1  0  0  0  0
  2 18  1  0  0  0  0
  2 28  1  0  0  0  0
  3  4  1  0  0  0  0
  3 29  1  0  0  0  0
  4  5  2  0  0  0  0
  4  6  1  0  0  0  0
  6  7  1  0  0  0  0
  6 30  1  0  0  0  0
  6 31  1  0  0  0  0
  7 16  1  0  0  0  0
  7  8  1  0  0  0  0
  8  9  2  0  0  0  0
  8 32  1  0  0  0  0
  9 10  1  0  0  0  0
  9 14  1  0  0  0  0
 10 11  1  0  0  0  0
 10 12  1  0  0  0  0
 10 13  1  0  0  0  0
 14 15  2  0  0  0  0
 14 33  1  0  0  0  0
 15 16  1  0  0  0  0
 15 34  1  0  0  0  0
 16 17  2  0  0  0  0
 18 23  1  0  0  0  0
 18 19  1  0  0  0  0
 18 35  1  0  0  0  0
 19 20  1  0  0  0  0
 19 36  1  0  0  0  0
 19 37  1  0  0  0  0
 20 24  1  0  0  0  0
 20 21  1  0  0  0  0
 20 38  1  0  0  0  0
 21 22  1  0  0  0  0
 21 39  1  0  0  0  0
 21 40  1  0  0  0  0
 22 23  1  0  0  0  0
 22 41  1  0  0  0  0
 22 42  1  0  0  0  0
 23 24  1  0  0  0  0
 23 43  1  0  0  0  0
 24 44  1  0  0  0  0
 24 45  1  0  0  0  0
M  END
> <s_m_source_file>
AV-unprocessed.smi

> <i_m_source_file_index>
528

> <i_lp_mmshare_version>
43012

> <i_f3d_flags>
0

> <s_epik_input>
W0NIMl0xW0NIMl1bQ0BASF0oW0NIMl0yKVtDQEBIXShbQ0gyXVtDQEhdMTIpW0NASF0oW0NIM10pW05IXUMoPU8pW0NIMl1uM1tjSF1jKEMoRikoRilGKVtjSF1bY0hdYzM9Tw==

> <s_epik_cmdline>
J2VwaWtfcHl0aG9uJywgJy1waCcsICc3LjAnLCAnLXRuJywgJzgnLCAnLW1hJywgJzIwMCcsICctbWV0YWxfYmluZGluZycsICctaW1hZScsICc8aW5maWxlLm1hZT4nLCAnLW9tYWUnLCAnPG91dGZpbGUubWFlPic=

> <r_lp_tautomer_probability>
1

> <r_epik_Ionization_Penalty>
4.09479e-08

> <r_epik_Ionization_Penalty_Charging>
1.9321e-08

> <r_epik_Ionization_Penalty_Neutral>
2.16269e-08

> <r_epik_State_Penalty>
-0

> <r_epik_Charging_Adjusted_Penalty>
1.9321e-08

> <i_epik_Tot_Q>
0

> <i_epik_Tot_abs_Q>
0

> <r_epik_Metal_State_Penalty>
-0

> <b_epik_Metal_Only>
0

> <s_lp_Force_Field>
OPLS_2005

> <r_lp_Energy>
62.8802

> <b_lp_Chiralities_Consistent>
1

> <s_lp_Variant>
AV-unprocessed.smi:528-1

> <Gold.Version>
5.8.1

> <Gold.Id.Protein>
6NUR|6NUR_protein|mol2

> <Gold.PLP.Fitness>
41.7180

> <Gold.PLP.PLP>
-38.7344

> <Gold.PLP.part.hbond>
-3.0000

> <Gold.PLP.part.metal>
0.0000

> <Gold.PLP.part.buried>
-5.2172

> <Gold.PLP.part.nonpolar>
-30.6845

> <Gold.PLP.part.repulsive>
0.0484

> <Gold.PLP.ligand.clash>
0.0000

> <Gold.PLP.ligand.torsion>
0.9829

> <Gold.PLP.Chemscore.Hbond>
1.6320

> <Gold.PLP.Chemscore.CHOScore>
0.0000

> <Gold.PLP.Chemscore.Metal>
0.0000

> <Gold.Chemscore.Hbonds>
donor molecule, donor type, donor heavy atom, donor atom, acceptor molecule, acceptor atom, score
      P1  H  6931  6943       L1    17  0.83
      P1  H  6934  6947       L1    17  0.74

> <Gold.PLP.Chemscore.Internal.Correction>
0.0534

> <Gold.Rescore>
     Score         DG    S(hbond)    S(metal)    S(lipo)     H(rot)  DE(clash)    DE(int)     intcor
     15.81     -16.74       1.89        0.00      79.78       1.71       0.00       0.93       ----

> <Gold.Chemscore.Fitness>
15.8088

> <Gold.Chemscore.DG>
-16.7439

> <Gold.Chemscore.ZeroCoef>
-5.4800

> <Gold.Chemscore.Hbond>
1.8904

> <Gold.Chemscore.Metal>
0.0000

> <Gold.Chemscore.Lipo>
79.7782

> <Gold.Chemscore.Internal_Hbond>
0.0000

> <Gold.Chemscore.DEClash>
0.0044

> <Gold.Chemscore.DEInternal>
0.9307

> <Gold.Chemscore.Rot>
1.7125

> <Gold.Chemscore.Internal.Correction>
   9.000000E+99

> <Gold.Chemscore.Hbonds>
donor molecule, donor type, donor heavy atom, donor atom, acceptor molecule, acceptor atom, score
      P1  H  6931  6943       L1    17  0.74
      P1  H  6934  6947       L1    17  0.70

> <Gold.Chemscore.Hbond.Weighted>
-6.3138

> <Gold.Chemscore.Metal.Weighted>
-0.0000

> <Gold.Chemscore.Lipo.Weighted>
-9.3340

> <Gold.Chemscore.Internal_Hbond.Weighted>
0.0000

> <Gold.Chemscore.DEClash.Weighted>
0.0044

> <Gold.Chemscore.DEInternal.Weighted>
0.9307

> <Gold.Chemscore.Rot.Weighted>
4.3840

> <Gold.Chemscore.Internal.Correction.Weighted>
   9.000000E+99

> <Gold.Protein.RotatedTorsions>
[ 6907 6896 6895 6894 ] final -139.55 input  -60.11 | X-H torsion
[ 7974 7965 7964 7962 ] final   -7.61 input  175.53 | X-H torsion
[ 8008 7997 7996 7995 ] final  -56.15 input   59.86 | X-H torsion
[ 10167 10162 10161 10158 ] final  -91.99 input  -65.29 | X-H torsion
[ 10718 10713 10712 10709 ] final  -16.56 input   66.30 | X-H torsion
[ 10763 10752 10751 10750 ] final   -9.68 input  -60.55 | X-H torsion
[ 11005 11000 10999 10996 ] final   81.51 input  -57.11 | X-H torsion

> <Gold.Protein.ActiveResidues>
 VAL166  LYS551  ARG553  GLY616  TRP617  ASP618  TYR619  PRO620  LYS621  CYS622 
 ASP623  PHE694  ASN695  SER759  ASP760  ASP761  ALA762  ILE779  LEU786  VAL792 
 PHE793  MET794  SER795  GLU796  ALA797  LYS798  CYS799  TRP800  GLU811  SER814 

> <Gold.Protein.RotatedAtoms>
  151.0492  133.5638  159.2643 H   0  0  0  0  0  0  0  0  0  0  0  0  # atno 6907 bound_to 6896
  151.2656  135.0667  159.9124 H   0  0  0  0  0  0  0  0  0  0  0  0  # atno 6908 bound_to 6896
  152.5379  134.0231  159.8044 H   0  0  0  0  0  0  0  0  0  0  0  0  # atno 6909 bound_to 6896
  146.2302  140.2345  142.8341 H   0  0  0  0  0  0  0  0  0  0  0  0  # atno 7974 bound_to 7965
  154.4220  140.1136  156.5591 H   0  0  0  0  0  0  0  0  0  0  0  0  # atno 8008 bound_to 7997
  155.6330  140.3496  155.4670 H   0  0  0  0  0  0  0  0  0  0  0  0  # atno 8009 bound_to 7997
  155.9933  140.1184  157.0607 H   0  0  0  0  0  0  0  0  0  0  0  0  # atno 8010 bound_to 7997
  140.3393  143.2951  151.9853 H   0  0  0  0  0  0  0  0  0  0  0  0  # atno 10167 bound_to 10162
  156.5859  130.4786  149.6300 H   0  0  0  0  0  0  0  0  0  0  0  0  # atno 10718 bound_to 10713
  153.4582  135.7016  153.6067 H   0  0  0  0  0  0  0  0  0  0  0  0  # atno 10763 bound_to 10752
  153.4372  135.3788  155.2206 H   0  0  0  0  0  0  0  0  0  0  0  0  # atno 10764 bound_to 10752
  154.8727  135.3965  154.4004 H   0  0  0  0  0  0  0  0  0  0  0  0  # atno 10765 bound_to 10752
  139.9095  134.8002  156.2051 H   0  0  0  0  0  0  0  0  0  0  0  0  # atno 11005 bound_to 11000
  144.9532  140.8200  143.5559 LP  0  0  0  0  0  0  0  0  0  0  0  0  # atno 17320 bound_to 7965
  145.2308  139.2116  143.5044 LP  0  0  0  0  0  0  0  0  0  0  0  0  # atno 17321 bound_to 7965
  139.4843  144.6170  151.7328 LP  0  0  0  0  0  0  0  0  0  0  0  0  # atno 17342 bound_to 10162
  140.5324  144.0710  150.6058 LP  0  0  0  0  0  0  0  0  0  0  0  0  # atno 17343 bound_to 10162
  156.2591  130.6952  151.1715 LP  0  0  0  0  0  0  0  0  0  0  0  0  # atno 17370 bound_to 10713
  157.7315  131.0607  150.5673 LP  0  0  0  0  0  0  0  0  0  0  0  0  # atno 17371 bound_to 10713
  141.0500  133.6893  156.1755 LP  0  0  0  0  0  0  0  0  0  0  0  0  # atno 17394 bound_to 11000
  140.6824  134.4753  157.5589 LP  0  0  0  0  0  0  0  0  0  0  0  0  # atno 17395 bound_to 11000

$$$$
