AV-unprocessed.smi:2623|AV-procd|sdf|10232|dock9
  -GOLD-   2272014243D 1   1.00000     0.00000
 Structure written by MMmdl.
 41 43  0  0  0  0  0  0  0  0  2 V2000
  146.9130  139.6656  151.8809 O   0  0  0  0  0  0  0  0  0  0  0  0
  147.0646  140.0171  153.2402 C   0  0  0  0  0  0  0  0  0  0  0  0
  148.4202  139.6954  153.7852 C   0  0  0  0  0  0  0  0  0  0  0  0
  149.1984  138.6297  153.4398 N   0  3  0  0  0  0  0  0  0  0  0  0
  150.3919  138.6593  154.1618 C   0  0  0  0  0  0  0  0  0  0  0  0
  151.4845  137.7977  154.1545 C   0  0  0  0  0  0  0  0  0  0  0  0
  152.5489  138.1187  155.0227 C   0  0  0  0  0  0  0  0  0  0  0  0
  152.5011  139.2571  155.8538 C   0  0  0  0  0  0  0  0  0  0  0  0
  151.3879  140.1232  155.8521 C   0  0  0  0  0  0  0  0  0  0  0  0
  150.3407  139.7988  154.9904 C   0  0  0  0  0  0  0  0  0  0  0  0
  149.1099  140.4079  154.7225 N   0  0  0  0  0  0  0  0  0  0  0  0
  148.7497  141.6409  155.4403 C   0  0  0  0  0  0  0  0  0  0  0  0
  147.9993  141.3731  156.7608 C   0  0  1  0  0  0  0  0  0  0  0  0
  148.2851  140.0563  157.1902 O   0  0  0  0  0  0  0  0  0  0  0  0
  148.4184  142.3546  157.8668 C   0  0  0  0  0  0  0  0  0  0  0  0
  149.7221  142.0096  158.3166 O   0  0  0  0  0  0  0  0  0  0  0  0
  150.5054  142.9991  158.8715 C   0  0  0  0  0  0  0  0  0  0  0  0
  151.7936  142.6255  159.3081 C   0  0  0  0  0  0  0  0  0  0  0  0
  152.6616  143.5710  159.8875 C   0  0  0  0  0  0  0  0  0  0  0  0
  152.2471  144.9071  160.0369 C   0  0  0  0  0  0  0  0  0  0  0  0
  150.9642  145.2941  159.6067 C   0  0  0  0  0  0  0  0  0  0  0  0
  150.0963  144.3482  159.0266 C   0  0  0  0  0  0  0  0  0  0  0  0
  147.6639  139.9848  151.4034 H   0  0  0  0  0  0  0  0  0  0  0  0
  146.8757  141.0853  153.3491 H   0  0  0  0  0  0  0  0  0  0  0  0
  146.3113  139.4922  153.8284 H   0  0  0  0  0  0  0  0  0  0  0  0
  151.5226  136.9250  153.5193 H   0  0  0  0  0  0  0  0  0  0  0  0
  153.4190  137.4789  155.0520 H   0  0  0  0  0  0  0  0  0  0  0  0
  153.3356  139.4707  156.5060 H   0  0  0  0  0  0  0  0  0  0  0  0
  151.3612  140.9931  156.4919 H   0  0  0  0  0  0  0  0  0  0  0  0
  149.6691  142.1953  155.6327 H   0  0  0  0  0  0  0  0  0  0  0  0
  148.1529  142.2631  154.7719 H   0  0  0  0  0  0  0  0  0  0  0  0
  146.9260  141.4589  156.5875 H   0  0  0  0  0  0  0  0  0  0  0  0
  147.7920  139.4531  156.6557 H   0  0  0  0  0  0  0  0  0  0  0  0
  148.3729  143.3850  157.5096 H   0  0  0  0  0  0  0  0  0  0  0  0
  147.7302  142.2623  158.7088 H   0  0  0  0  0  0  0  0  0  0  0  0
  152.1205  141.6020  159.1969 H   0  0  0  0  0  0  0  0  0  0  0  0
  153.6453  143.2705  160.2170 H   0  0  0  0  0  0  0  0  0  0  0  0
  152.9117  145.6337  160.4807 H   0  0  0  0  0  0  0  0  0  0  0  0
  150.6441  146.3192  159.7213 H   0  0  0  0  0  0  0  0  0  0  0  0
  149.1210  144.6840  158.7091 H   0  0  0  0  0  0  0  0  0  0  0  0
  148.9248  137.9351  152.7566 H   0  0  0  0  0  0  0  0  0  0  0  0
  1  2  1  0  0  0  0
  1 23  1  0  0  0  0
  2  3  1  0  0  0  0
  2 24  1  0  0  0  0
  2 25  1  0  0  0  0
  3 11  1  0  0  0  0
  3  4  2  0  0  0  0
  4  5  1  0  0  0  0
  4 41  1  0  0  0  0
  5 10  2  0  0  0  0
  5  6  1  0  0  0  0
  6  7  2  0  0  0  0
  6 26  1  0  0  0  0
  7  8  1  0  0  0  0
  7 27  1  0  0  0  0
  8  9  2  0  0  0  0
  8 28  1  0  0  0  0
  9 10  1  0  0  0  0
  9 29  1  0  0  0  0
 10 11  1  0  0  0  0
 11 12  1  0  0  0  0
 12 13  1  0  0  0  0
 12 30  1  0  0  0  0
 12 31  1  0  0  0  0
 13 14  1  0  0  0  0
 13 15  1  0  0  0  0
 13 32  1  0  0  0  0
 14 33  1  0  0  0  0
 15 16  1  0  0  0  0
 15 34  1  0  0  0  0
 15 35  1  0  0  0  0
 16 17  1  0  0  0  0
 17 22  1  0  0  0  0
 17 18  2  0  0  0  0
 18 19  1  0  0  0  0
 18 36  1  0  0  0  0
 19 20  2  0  0  0  0
 19 37  1  0  0  0  0
 20 21  1  0  0  0  0
 20 38  1  0  0  0  0
 21 22  2  0  0  0  0
 21 39  1  0  0  0  0
 22 40  1  0  0  0  0
M  CHG  1   4   1
M  END
> <s_m_source_file>
AV-unprocessed.smi

> <i_m_source_file_index>
2623

> <i_lp_mmshare_version>
43012

> <i_f3d_flags>
0

> <s_epik_input>
W2NIXTFbY0hdW2NIXVtjSF1jKGMxMiluKGMobjIpW0NIMl1bT0hdKVtDSDJdW0NASF0oW09IXSlbQ0gyXU9jM1tjSF1bY0hdW2NIXVtjSF1bY0hdMw==

> <s_epik_cmdline>
J2VwaWtfcHl0aG9uJywgJy1waCcsICc3LjAnLCAnLXRuJywgJzgnLCAnLW1hJywgJzIwMCcsICctbWV0YWxfYmluZGluZycsICctaW1hZScsICc8aW5maWxlLm1hZT4nLCAnLW9tYWUnLCAnPG91dGZpbGUubWFlPic=

> <r_lp_tautomer_probability>
1

> <r_epik_Ionization_Penalty>
1.40416

> <r_epik_Ionization_Penalty_Charging>
1.4033

> <r_epik_Ionization_Penalty_Neutral>
0.000858184

> <r_epik_State_Penalty>
1.48564

> <r_epik_Charging_Adjusted_Penalty>
2.88894

> <i_epik_Tot_Q>
1

> <i_epik_Tot_abs_Q>
1

> <r_epik_Metal_State_Penalty>
5.52809

> <b_epik_Metal_Only>
0

> <s_lp_Force_Field>
OPLS_2005

> <r_lp_Energy>
19.2357

> <b_lp_Chiralities_Consistent>
1

> <s_lp_Variant>
AV-unprocessed.smi:2623-4

> <Gold.Version>
5.8.1

> <Gold.Id.Protein>
6NUR|6NUR_protein|mol2

> <Gold.PLP.Fitness>
52.5055

> <Gold.PLP.PLP>
-46.4887

> <Gold.PLP.part.hbond>
-3.0939

> <Gold.PLP.part.metal>
0.0000

> <Gold.PLP.part.buried>
-1.8065

> <Gold.PLP.part.nonpolar>
-41.6099

> <Gold.PLP.part.repulsive>
0.1586

> <Gold.PLP.ligand.clash>
0.0000

> <Gold.PLP.ligand.torsion>
1.4939

> <Gold.PLP.Chemscore.Hbond>
2.9920

> <Gold.PLP.Chemscore.CHOScore>
0.0000

> <Gold.PLP.Chemscore.Metal>
0.0000

> <Gold.Chemscore.Hbonds>
donor molecule, donor type, donor heavy atom, donor atom, acceptor molecule, acceptor atom, score
      L1  H     1    23       P1  7957  1.00
      L1  H     4    41       P1  7948  2.00

> <Gold.PLP.Chemscore.Internal.Correction>
0.0286

> <Gold.Rescore>
     Score         DG    S(hbond)    S(metal)    S(lipo)     H(rot)  DE(clash)    DE(int)     intcor
     14.72     -19.18       1.92        0.00     130.69       3.13       2.35       2.11       ----

> <Gold.Chemscore.Fitness>
14.7213

> <Gold.Chemscore.DG>
-19.1774

> <Gold.Chemscore.ZeroCoef>
-5.4800

> <Gold.Chemscore.Hbond>
1.9224

> <Gold.Chemscore.Metal>
0.0000

> <Gold.Chemscore.Lipo>
130.6890

> <Gold.Chemscore.Internal_Hbond>
0.0000

> <Gold.Chemscore.DEClash>
2.3509

> <Gold.Chemscore.DEInternal>
2.1053

> <Gold.Chemscore.Rot>
3.1305

> <Gold.Chemscore.Internal.Correction>
   9.000000E+99

> <Gold.Chemscore.Hbonds>
donor molecule, donor type, donor heavy atom, donor atom, acceptor molecule, acceptor atom, score
      L1  H     1    23       P1  7957  0.95
      L1  H     4    41       P1  7948  0.98

> <Gold.Chemscore.Hbond.Weighted>
-6.4209

> <Gold.Chemscore.Metal.Weighted>
-0.0000

> <Gold.Chemscore.Lipo.Weighted>
-15.2906

> <Gold.Chemscore.Internal_Hbond.Weighted>
0.0000

> <Gold.Chemscore.DEClash.Weighted>
2.3509

> <Gold.Chemscore.DEInternal.Weighted>
2.1053

> <Gold.Chemscore.Rot.Weighted>
8.0141

> <Gold.Chemscore.Internal.Correction.Weighted>
   9.000000E+99

> <Gold.Protein.RotatedTorsions>
[ 6907 6896 6895 6894 ] final  -51.40 input  -60.11 | X-H torsion
[ 7974 7965 7964 7962 ] final  -82.39 input  175.53 | X-H torsion
[ 8008 7997 7996 7995 ] final -160.78 input   59.86 | X-H torsion
[ 10167 10162 10161 10158 ] final   82.64 input  -65.29 | X-H torsion
[ 10718 10713 10712 10709 ] final  118.92 input   66.30 | X-H torsion
[ 10763 10752 10751 10750 ] final   52.80 input  -60.55 | X-H torsion
[ 11005 11000 10999 10996 ] final  143.07 input  -57.11 | X-H torsion

> <Gold.Protein.ActiveResidues>
 VAL166  LYS551  ARG553  GLY616  TRP617  ASP618  TYR619  PRO620  LYS621  CYS622 
 ASP623  PHE694  ASN695  SER759  ASP760  ASP761  ALA762  ILE779  LEU786  VAL792 
 PHE793  MET794  SER795  GLU796  ALA797  LYS798  CYS799  TRP800  GLU811  SER814 

> <Gold.Protein.RotatedAtoms>
  150.8615  134.7968  159.7086 H   0  0  0  0  0  0  0  0  0  0  0  0  # atno 6907 bound_to 6896
  152.4650  134.5092  159.9758 H   0  0  0  0  0  0  0  0  0  0  0  0  # atno 6908 bound_to 6896
  151.5195  133.3431  159.2934 H   0  0  0  0  0  0  0  0  0  0  0  0  # atno 6909 bound_to 6896
  145.5339  140.9518  143.1588 H   0  0  0  0  0  0  0  0  0  0  0  0  # atno 7974 bound_to 7965
  155.7826  140.0867  157.2051 H   0  0  0  0  0  0  0  0  0  0  0  0  # atno 8008 bound_to 7997
  154.3989  140.1505  156.3127 H   0  0  0  0  0  0  0  0  0  0  0  0  # atno 8009 bound_to 7997
  155.8639  140.3429  155.5777 H   0  0  0  0  0  0  0  0  0  0  0  0  # atno 8010 bound_to 7997
  139.9267  144.6178  150.8386 H   0  0  0  0  0  0  0  0  0  0  0  0  # atno 10167 bound_to 10162
  157.5997  131.1053  150.7824 H   0  0  0  0  0  0  0  0  0  0  0  0  # atno 10718 bound_to 10713
  152.9791  135.5800  154.4637 H   0  0  0  0  0  0  0  0  0  0  0  0  # atno 10763 bound_to 10752
  154.4210  135.2771  155.1977 H   0  0  0  0  0  0  0  0  0  0  0  0  # atno 10764 bound_to 10752
  154.3727  135.6164  153.5802 H   0  0  0  0  0  0  0  0  0  0  0  0  # atno 10765 bound_to 10752
  140.0525  134.9248  157.1043 H   0  0  0  0  0  0  0  0  0  0  0  0  # atno 11005 bound_to 11000
  144.7612  139.6953  143.7234 LP  0  0  0  0  0  0  0  0  0  0  0  0  # atno 17320 bound_to 7965
  146.2026  139.5330  142.9733 LP  0  0  0  0  0  0  0  0  0  0  0  0  # atno 17321 bound_to 7965
  140.7648  143.3259  151.2517 LP  0  0  0  0  0  0  0  0  0  0  0  0  # atno 17342 bound_to 10162
  139.6816  143.9844  152.2812 LP  0  0  0  0  0  0  0  0  0  0  0  0  # atno 17343 bound_to 10162
  156.8226  130.4989  149.5341 LP  0  0  0  0  0  0  0  0  0  0  0  0  # atno 17370 bound_to 10713
  156.1067  130.6010  150.9982 LP  0  0  0  0  0  0  0  0  0  0  0  0  # atno 17371 bound_to 10713
  140.3895  134.2200  155.7167 LP  0  0  0  0  0  0  0  0  0  0  0  0  # atno 17394 bound_to 11000
  141.1937  133.8145  157.0788 LP  0  0  0  0  0  0  0  0  0  0  0  0  # atno 17395 bound_to 11000

$$$$
