AV-unprocessed.smi:198|AV-procd|sdf|1554|dock5
  -GOLD-   2262019423D 1   1.00000     0.00000
 Structure written by MMmdl.
 59 63  0  0  0  0  0  0  0  0  2 V2000
  151.7459  140.0960  156.9372 C   0  0  0  0  0  0  0  0  0  0  0  0
  150.9446  140.0443  155.6955 N   0  3  1  0  0  0  0  0  0  0  0  0
  150.3666  138.7010  155.4547 C   0  0  0  0  0  0  0  0  0  0  0  0
  149.6557  138.6515  154.0933 C   0  0  0  0  0  0  0  0  0  0  0  0
  148.5500  139.7285  153.9750 C   0  0  2  0  0  0  0  0  0  0  0  0
  149.1705  141.1137  154.2863 C   0  0  1  0  0  0  0  0  0  0  0  0
  148.1029  142.2224  154.2013 C   0  0  0  0  0  0  0  0  0  0  0  0
  146.8831  141.8962  155.0768 C   0  0  0  0  0  0  0  0  0  0  0  0
  146.3331  140.5008  154.7499 C   0  0  0  0  0  0  0  0  0  0  0  0
  147.3798  139.4834  154.8330 N   0  0  0  0  0  0  0  0  0  0  0  0
  146.8453  138.2433  154.7780 C   0  0  0  0  0  0  0  0  0  0  0  0
  146.7247  137.5005  155.9093 N   0  0  0  0  0  0  0  0  0  0  0  0
  146.1923  136.2761  155.8454 C   0  0  0  0  0  0  0  0  0  0  0  0
  145.7291  135.6214  154.7775 N   0  0  0  0  0  0  0  0  0  0  0  0
  145.8544  136.3673  153.6416 C   0  0  0  0  0  0  0  0  0  0  0  0
  146.3982  137.6786  153.5562 C   0  0  0  0  0  0  0  0  0  0  0  0
  146.3573  138.1323  152.2449 N   0  0  0  0  0  0  0  0  0  0  0  0
  145.8170  137.1418  151.5883 C   0  0  0  0  0  0  0  0  0  0  0  0
  145.4908  136.0382  152.3465 N   0  0  0  0  0  0  0  0  0  0  0  0
  144.8740  134.8279  151.8822 C   0  0  0  0  0  0  0  0  0  0  0  0
  145.5747  133.4730  152.0091 C   0  0  0  0  0  0  0  0  0  0  0  0
  144.9113  133.0176  150.6884 C   0  0  0  0  0  0  0  0  0  0  0  0
  145.8212  132.2386  149.7242 C   0  0  0  0  0  0  0  0  0  0  0  0
  146.4027  131.1194  150.3614 O   0  0  0  0  0  0  0  0  0  0  0  0
  143.5786  132.2590  150.8509 C   0  0  0  0  0  0  0  0  0  0  0  0
  142.9486  132.0484  149.6031 O   0  0  0  0  0  0  0  0  0  0  0  0
  144.7753  134.5273  150.3868 C   0  0  0  0  0  0  0  0  0  0  0  0
  149.9132  141.1091  155.6436 C   0  0  0  0  0  0  0  0  0  0  0  0
  151.1214  139.9201  157.8140 H   0  0  0  0  0  0  0  0  0  0  0  0
  152.2242  141.0699  157.0469 H   0  0  0  0  0  0  0  0  0  0  0  0
  152.5322  139.3406  156.9201 H   0  0  0  0  0  0  0  0  0  0  0  0
  151.1604  137.9533  155.4756 H   0  0  0  0  0  0  0  0  0  0  0  0
  149.6729  138.4473  156.2577 H   0  0  0  0  0  0  0  0  0  0  0  0
  150.3936  138.8200  153.3079 H   0  0  0  0  0  0  0  0  0  0  0  0
  149.2653  137.6505  153.9098 H   0  0  0  0  0  0  0  0  0  0  0  0
  148.1950  139.7386  152.9430 H   0  0  0  0  0  0  0  0  0  0  0  0
  149.9151  141.3255  153.5174 H   0  0  0  0  0  0  0  0  0  0  0  0
  148.5267  143.1859  154.4867 H   0  0  0  0  0  0  0  0  0  0  0  0
  147.7776  142.3269  153.1654 H   0  0  0  0  0  0  0  0  0  0  0  0
  147.1519  141.9469  156.1320 H   0  0  0  0  0  0  0  0  0  0  0  0
  146.1053  142.6449  154.9257 H   0  0  0  0  0  0  0  0  0  0  0  0
  145.5202  140.2594  155.4368 H   0  0  0  0  0  0  0  0  0  0  0  0
  145.9092  140.4993  153.7444 H   0  0  0  0  0  0  0  0  0  0  0  0
  146.1288  135.7449  156.7836 H   0  0  0  0  0  0  0  0  0  0  0  0
  145.6378  137.1924  150.5241 H   0  0  0  0  0  0  0  0  0  0  0  0
  143.8864  134.7782  152.3436 H   0  0  0  0  0  0  0  0  0  0  0  0
  146.6609  133.5444  151.9349 H   0  0  0  0  0  0  0  0  0  0  0  0
  145.2856  132.9013  152.8913 H   0  0  0  0  0  0  0  0  0  0  0  0
  145.2547  131.8745  148.8666 H   0  0  0  0  0  0  0  0  0  0  0  0
  146.6138  132.8690  149.3204 H   0  0  0  0  0  0  0  0  0  0  0  0
  147.3271  131.2827  150.4694 H   0  0  0  0  0  0  0  0  0  0  0  0
  143.7345  131.2838  151.3122 H   0  0  0  0  0  0  0  0  0  0  0  0
  142.8907  132.7949  151.5053 H   0  0  0  0  0  0  0  0  0  0  0  0
  142.3083  132.7309  149.4710 H   0  0  0  0  0  0  0  0  0  0  0  0
  143.8294  134.8199  149.9300 H   0  0  0  0  0  0  0  0  0  0  0  0
  145.6203  134.9260  149.8225 H   0  0  0  0  0  0  0  0  0  0  0  0
  149.2165  140.9636  156.4701 H   0  0  0  0  0  0  0  0  0  0  0  0
  150.3904  142.0771  155.8009 H   0  0  0  0  0  0  0  0  0  0  0  0
  151.5834  140.2243  154.9340 H   0  0  0  0  0  0  0  0  0  0  0  0
  1  2  1  0  0  0  0
  1 29  1  0  0  0  0
  1 30  1  0  0  0  0
  1 31  1  0  0  0  0
  2 28  1  0  0  0  0
  2  3  1  0  0  0  0
  2 59  1  0  0  0  0
  3  4  1  0  0  0  0
  3 32  1  0  0  0  0
  3 33  1  0  0  0  0
  4  5  1  0  0  0  0
  4 34  1  0  0  0  0
  4 35  1  0  0  0  0
  5 10  1  0  0  0  0
  5  6  1  0  0  0  0
  5 36  1  0  0  0  0
  6  7  1  0  0  0  0
  6 28  1  0  0  0  0
  6 37  1  0  0  0  0
  7  8  1  0  0  0  0
  7 38  1  0  0  0  0
  7 39  1  0  0  0  0
  8  9  1  0  0  0  0
  8 40  1  0  0  0  0
  8 41  1  0  0  0  0
  9 10  1  0  0  0  0
  9 42  1  0  0  0  0
  9 43  1  0  0  0  0
 10 11  1  0  0  0  0
 11 16  1  0  0  0  0
 11 12  2  0  0  0  0
 12 13  1  0  0  0  0
 13 14  2  0  0  0  0
 13 44  1  0  0  0  0
 14 15  1  0  0  0  0
 15 19  1  0  0  0  0
 15 16  2  0  0  0  0
 16 17  1  0  0  0  0
 17 18  2  0  0  0  0
 18 19  1  0  0  0  0
 18 45  1  0  0  0  0
 19 20  1  0  0  0  0
 20 27  1  0  0  0  0
 20 21  1  0  0  0  0
 20 46  1  0  0  0  0
 21 22  1  0  0  0  0
 21 47  1  0  0  0  0
 21 48  1  0  0  0  0
 22 23  1  0  0  0  0
 22 25  1  0  0  0  0
 22 27  1  0  0  0  0
 23 24  1  0  0  0  0
 23 49  1  0  0  0  0
 23 50  1  0  0  0  0
 24 51  1  0  0  0  0
 25 26  1  0  0  0  0
 25 52  1  0  0  0  0
 25 53  1  0  0  0  0
 26 54  1  0  0  0  0
 27 55  1  0  0  0  0
 27 56  1  0  0  0  0
 28 57  1  0  0  0  0
 28 58  1  0  0  0  0
M  CHG  1   2   1
M  END
> <s_m_source_file>
AV-unprocessed.smi

> <i_m_source_file_index>
198

> <i_lp_mmshare_version>
43012

> <i_f3d_flags>
0

> <s_epik_input>
W0NIMl0xW0NIMl1OKFtDSDNdKVtDSDJdW0NAQEhdKFtDQEhdMTIpW0NIMl1bQ0gyXVtDSDJdTjJjKG5bY0hdbjMpYyhjMzQpbltjSF1uNFtDSF0oW0NIMl01KVtDSDJdQzUoW0NIMl1bT0hdKVtDSDJdW09IXQ==

> <s_epik_cmdline>
J2VwaWtfcHl0aG9uJywgJy1waCcsICc3LjAnLCAnLXRuJywgJzgnLCAnLW1hJywgJzIwMCcsICctbWV0YWxfYmluZGluZycsICctaW1hZScsICc8aW5maWxlLm1hZT4nLCAnLW9tYWUnLCAnPG91dGZpbGUubWFlPic=

> <r_lp_tautomer_probability>
1

> <r_epik_Ionization_Penalty>
0.00239938

> <r_epik_Ionization_Penalty_Charging>
0.00138697

> <r_epik_Ionization_Penalty_Neutral>
0.00101241

> <r_epik_State_Penalty>
-0

> <r_epik_Charging_Adjusted_Penalty>
0.00138697

> <i_epik_Tot_Q>
1

> <i_epik_Tot_abs_Q>
1

> <r_epik_Metal_State_Penalty>
-0

> <b_epik_Metal_Only>
0

> <s_lp_Force_Field>
OPLS_2005

> <r_lp_Energy>
58.6864

> <b_lp_Chiralities_Consistent>
1

> <s_lp_Variant>
AV-unprocessed.smi:198-3

> <Gold.Version>
5.8.1

> <Gold.Id.Protein>
6NUR|6NUR_protein|mol2

> <Gold.PLP.Fitness>
50.2556

> <Gold.PLP.PLP>
-40.5143

> <Gold.PLP.part.hbond>
-3.6433

> <Gold.PLP.part.metal>
0.0000

> <Gold.PLP.part.buried>
-1.6568

> <Gold.PLP.part.nonpolar>
-35.8604

> <Gold.PLP.part.repulsive>
0.5239

> <Gold.PLP.ligand.clash>
0.0000

> <Gold.PLP.ligand.torsion>
0.6891

> <Gold.PLP.Chemscore.Hbond>
2.6412

> <Gold.PLP.Chemscore.CHOScore>
0.8472

> <Gold.PLP.Chemscore.Metal>
0.0000

> <Gold.Chemscore.Hbonds>
donor molecule, donor type, donor heavy atom, donor atom, acceptor molecule, acceptor atom, score
      L1  H    24    51       P1 10747  1.00
      L1  H    26    54       P1 10186  0.76
      P1  H 10785 10796       L1    26  0.81
      L1  C    18    45       P1 10171  0.75

> <Gold.PLP.Chemscore.Internal.Correction>
0.6542

> <Gold.Rescore>
     Score         DG    S(hbond)    S(metal)    S(lipo)     H(rot)  DE(clash)    DE(int)     intcor
     16.80     -17.49       2.56        0.00      96.98       3.08       0.18       0.52       ----

> <Gold.Chemscore.Fitness>
16.7994

> <Gold.Chemscore.DG>
-17.4920

> <Gold.Chemscore.ZeroCoef>
-5.4800

> <Gold.Chemscore.Hbond>
2.5586

> <Gold.Chemscore.Metal>
0.0000

> <Gold.Chemscore.Lipo>
96.9769

> <Gold.Chemscore.Internal_Hbond>
0.0000

> <Gold.Chemscore.DEClash>
0.1771

> <Gold.Chemscore.DEInternal>
0.5155

> <Gold.Chemscore.Rot>
3.0781

> <Gold.Chemscore.Internal.Correction>
   9.000000E+99

> <Gold.Chemscore.Hbonds>
donor molecule, donor type, donor heavy atom, donor atom, acceptor molecule, acceptor atom, score
      L1  H    24    51       P1 10747  0.96
      L1  H    26    54       P1 10186  0.75
      P1  H 10785 10796       L1    26  0.75

> <Gold.Chemscore.Hbond.Weighted>
-8.5457

> <Gold.Chemscore.Metal.Weighted>
-0.0000

> <Gold.Chemscore.Lipo.Weighted>
-11.3463

> <Gold.Chemscore.Internal_Hbond.Weighted>
0.0000

> <Gold.Chemscore.DEClash.Weighted>
0.1771

> <Gold.Chemscore.DEInternal.Weighted>
0.5155

> <Gold.Chemscore.Rot.Weighted>
7.8800

> <Gold.Chemscore.Internal.Correction.Weighted>
   9.000000E+99

> <Gold.Protein.RotatedTorsions>
[ 6907 6896 6895 6894 ] final -131.43 input  -60.11 | X-H torsion
[ 7974 7965 7964 7962 ] final    5.75 input  175.53 | X-H torsion
[ 8008 7997 7996 7995 ] final   85.67 input   59.86 | X-H torsion
[ 10167 10162 10161 10158 ] final  -51.42 input  -65.29 | X-H torsion
[ 10718 10713 10712 10709 ] final  -65.43 input   66.30 | X-H torsion
[ 10763 10752 10751 10750 ] final  105.67 input  -60.55 | X-H torsion
[ 11005 11000 10999 10996 ] final  125.81 input  -57.11 | X-H torsion

> <Gold.Protein.ActiveResidues>
 VAL166  LYS551  ARG553  GLY616  TRP617  ASP618  TYR619  PRO620  LYS621  CYS622 
 ASP623  PHE694  ASN695  SER759  ASP760  ASP761  ALA762  ILE779  LEU786  VAL792 
 PHE793  MET794  SER795  GLU796  ALA797  LYS798  CYS799  TRP800  GLU811  SER814 

> <Gold.Protein.RotatedAtoms>
  150.9509  133.6550  159.2771 H   0  0  0  0  0  0  0  0  0  0  0  0  # atno 6907 bound_to 6896
  151.3907  135.0954  159.9535 H   0  0  0  0  0  0  0  0  0  0  0  0  # atno 6908 bound_to 6896
  152.5109  133.9024  159.7502 H   0  0  0  0  0  0  0  0  0  0  0  0  # atno 6909 bound_to 6896
  146.2439  140.0337  142.8387 H   0  0  0  0  0  0  0  0  0  0  0  0  # atno 7974 bound_to 7965
  155.9530  140.3399  155.6424 H   0  0  0  0  0  0  0  0  0  0  0  0  # atno 8008 bound_to 7997
  155.6896  140.0747  157.2471 H   0  0  0  0  0  0  0  0  0  0  0  0  # atno 8009 bound_to 7997
  154.4126  140.1659  156.2059 H   0  0  0  0  0  0  0  0  0  0  0  0  # atno 8010 bound_to 7997
  140.6589  143.2620  151.4501 H   0  0  0  0  0  0  0  0  0  0  0  0  # atno 10167 bound_to 10162
  156.0670  130.4247  150.1564 H   0  0  0  0  0  0  0  0  0  0  0  0  # atno 10718 bound_to 10713
  153.3825  135.3902  155.1867 H   0  0  0  0  0  0  0  0  0  0  0  0  # atno 10763 bound_to 10752
  154.8709  135.3729  154.4839 H   0  0  0  0  0  0  0  0  0  0  0  0  # atno 10764 bound_to 10752
  153.5317  135.7085  153.5741 H   0  0  0  0  0  0  0  0  0  0  0  0  # atno 10765 bound_to 10752
  139.9425  134.9634  156.8614 H   0  0  0  0  0  0  0  0  0  0  0  0  # atno 11005 bound_to 11000
  145.1132  140.9418  143.4644 LP  0  0  0  0  0  0  0  0  0  0  0  0  # atno 17320 bound_to 7965
  145.0555  139.3147  143.5907 LP  0  0  0  0  0  0  0  0  0  0  0  0  # atno 17321 bound_to 7965
  139.5818  144.1693  152.1978 LP  0  0  0  0  0  0  0  0  0  0  0  0  # atno 17342 bound_to 10162
  140.1020  144.5531  150.6982 LP  0  0  0  0  0  0  0  0  0  0  0  0  # atno 17343 bound_to 10162
  156.9622  130.9808  151.3477 LP  0  0  0  0  0  0  0  0  0  0  0  0  # atno 17370 bound_to 10713
  157.5717  130.8315  149.8401 LP  0  0  0  0  0  0  0  0  0  0  0  0  # atno 17371 bound_to 10713
  140.5917  134.0256  155.7502 LP  0  0  0  0  0  0  0  0  0  0  0  0  # atno 17394 bound_to 11000
  141.1064  133.9686  157.2989 LP  0  0  0  0  0  0  0  0  0  0  0  0  # atno 17395 bound_to 11000

$$$$
