AV-unprocessed.smi:2083|AV-procd|sdf|8510|dock7
  -GOLD-   2272011223D 1   1.00000     0.00000
 Structure written by MMmdl.
 44 45  0  0  0  0  0  0  0  0  3 V2000
  152.2328  144.9214  160.4286 C   0  0  0  0  0  0  0  0  0  0  0  0
  152.1260  143.8349  159.4146 C   0  0  0  0  0  0  0  0  0  0  0  0
  151.2432  143.5919  158.4003 C   0  0  0  0  0  0  0  0  0  0  0  0
  151.7336  142.3874  157.8290 C   0  0  0  0  0  0  0  0  0  0  0  0
  151.0769  141.7931  156.7190 N   0  0  0  0  0  0  0  0  0  0  0  0
  151.5341  140.8492  155.8756 C   0  0  0  0  0  0  0  0  0  0  0  0
  152.6649  140.3714  156.0266 O   0  0  0  0  0  0  0  0  0  0  0  0
  150.6245  140.5358  154.9127 N   0  5  0  0  0  0  0  0  0  0  0  0
  149.4833  139.6441  155.1121 C   0  0  0  0  0  0  0  0  0  0  0  0
  149.1501  138.8845  153.8011 C   0  0  2  0  0  0  0  0  0  0  0  0
  147.6773  139.0226  153.3384 C   0  0  0  0  0  0  0  0  0  0  0  0
  149.5982  137.4596  153.8949 N   0  3  1  0  0  0  0  0  0  0  0  0
  151.0696  137.2370  154.0139 C   0  0  0  0  0  0  0  0  0  0  0  0
  151.4122  135.7507  153.8337 C   0  0  0  0  0  0  0  0  0  0  0  0
  150.6453  134.8857  154.8445 C   0  0  0  0  0  0  0  0  0  0  0  0
  149.1311  135.1613  154.7839 C   0  0  2  0  0  0  0  0  0  0  0  0
  148.4650  134.5490  153.5389 C   0  0  0  0  0  0  0  0  0  0  0  0
  148.8461  136.6726  154.9102 C   0  0  0  0  0  0  0  0  0  0  0  0
  152.8180  141.9361  158.4418 N   0  0  0  0  0  0  0  0  0  0  0  0
  153.0750  142.8612  159.4604 O   0  0  0  0  0  0  0  0  0  0  0  0
  151.3758  145.5928  160.3725 H   0  0  0  0  0  0  0  0  0  0  0  0
  153.1353  145.5109  160.2677 H   0  0  0  0  0  0  0  0  0  0  0  0
  152.2729  144.5075  161.4363 H   0  0  0  0  0  0  0  0  0  0  0  0
  150.3859  144.1823  158.1131 H   0  0  0  0  0  0  0  0  0  0  0  0
  150.1440  142.1298  156.5341 H   0  0  0  0  0  0  0  0  0  0  0  0
  149.6940  138.9086  155.8902 H   0  0  0  0  0  0  0  0  0  0  0  0
  148.5971  140.1828  155.4498 H   0  0  0  0  0  0  0  0  0  0  0  0
  149.7618  139.3562  153.0302 H   0  0  0  0  0  0  0  0  0  0  0  0
  147.4158  140.0597  153.1215 H   0  0  0  0  0  0  0  0  0  0  0  0
  146.9639  138.6584  154.0798 H   0  0  0  0  0  0  0  0  0  0  0  0
  147.5065  138.4633  152.4182 H   0  0  0  0  0  0  0  0  0  0  0  0
  151.6088  137.8176  153.2648 H   0  0  0  0  0  0  0  0  0  0  0  0
  151.4210  137.5747  154.9897 H   0  0  0  0  0  0  0  0  0  0  0  0
  151.1757  135.4385  152.8160 H   0  0  0  0  0  0  0  0  0  0  0  0
  152.4849  135.5999  153.9575 H   0  0  0  0  0  0  0  0  0  0  0  0
  150.8504  133.8287  154.6719 H   0  0  0  0  0  0  0  0  0  0  0  0
  151.0097  135.1070  155.8485 H   0  0  0  0  0  0  0  0  0  0  0  0
  148.6775  134.6708  155.6459 H   0  0  0  0  0  0  0  0  0  0  0  0
  148.8324  134.9988  152.6164 H   0  0  0  0  0  0  0  0  0  0  0  0
  147.3842  134.6912  153.5645 H   0  0  0  0  0  0  0  0  0  0  0  0
  148.6513  133.4763  153.4819 H   0  0  0  0  0  0  0  0  0  0  0  0
  149.1192  137.0226  155.9068 H   0  0  0  0  0  0  0  0  0  0  0  0
  147.7736  136.8412  154.8040 H   0  0  0  0  0  0  0  0  0  0  0  0
  149.3300  137.0593  153.0070 H   0  0  0  0  0  0  0  0  0  0  0  0
  1  2  1  0  0  0  0
  1 21  1  0  0  0  0
  1 22  1  0  0  0  0
  1 23  1  0  0  0  0
  2 20  1  0  0  0  0
  2  3  2  0  0  0  0
  3  4  1  0  0  0  0
  3 24  1  0  0  0  0
  4  5  1  0  0  0  0
  4 19  2  0  0  0  0
  5  6  1  0  0  0  0
  5 25  1  0  0  0  0
  6  7  2  0  0  0  0
  6  8  1  0  0  0  0
  8  9  1  0  0  0  0
  9 10  1  0  0  0  0
  9 26  1  0  0  0  0
  9 27  1  0  0  0  0
 10 11  1  0  0  0  0
 10 12  1  0  0  0  0
 10 28  1  0  0  0  0
 11 29  1  0  0  0  0
 11 30  1  0  0  0  0
 11 31  1  0  0  0  0
 12 18  1  0  0  0  0
 12 13  1  0  0  0  0
 12 44  1  0  0  0  0
 13 14  1  0  0  0  0
 13 32  1  0  0  0  0
 13 33  1  0  0  0  0
 14 15  1  0  0  0  0
 14 34  1  0  0  0  0
 14 35  1  0  0  0  0
 15 16  1  0  0  0  0
 15 36  1  0  0  0  0
 15 37  1  0  0  0  0
 16 17  1  0  0  0  0
 16 18  1  0  0  0  0
 16 38  1  0  0  0  0
 17 39  1  0  0  0  0
 17 40  1  0  0  0  0
 17 41  1  0  0  0  0
 18 42  1  0  0  0  0
 18 43  1  0  0  0  0
 19 20  1  0  0  0  0
M  CHG  1   8  -1
M  CHG  1  12   1
M  END
> <s_m_source_file>
AV-unprocessed.smi

> <i_m_source_file_index>
2083

> <i_lp_mmshare_version>
43012

> <i_f3d_flags>
0

> <s_epik_input>
W0NIM11jMVtjSF1jKG5vMSlbTkhdQyg9TylbTkhdW0NIMl1bQ0BIXShbQ0gzXSlOMltDSDJdW0NIMl1bQ0gyXVtDQEBIXShbQ0gzXSlbQ0gyXTI=

> <s_epik_cmdline>
J2VwaWtfcHl0aG9uJywgJy1waCcsICc3LjAnLCAnLXRuJywgJzgnLCAnLW1hJywgJzIwMCcsICctbWV0YWxfYmluZGluZycsICctaW1hZScsICc8aW5maWxlLm1hZT4nLCAnLW9tYWUnLCAnPG91dGZpbGUubWFlPic=

> <r_epik_Ionization_Penalty>
6.76934

> <r_epik_Ionization_Penalty_Charging>
6.76934

> <r_epik_Ionization_Penalty_Neutral>
5.77849e-06

> <r_epik_State_Penalty>
6.79457

> <r_epik_Charging_Adjusted_Penalty>
13.5639

> <i_epik_Tot_Q>
0

> <i_epik_Tot_abs_Q>
2

> <r_epik_Metal_State_Penalty>
2.72837

> <b_epik_Metal_Only>
1

> <s_lp_Force_Field>
OPLS_2005

> <r_lp_Energy>
20.9735

> <b_lp_Chiralities_Consistent>
1

> <s_lp_Variant>
AV-unprocessed.smi:2083-21

> <Gold.Version>
5.8.1

> <Gold.Id.Protein>
6NUR|6NUR_protein|mol2

> <Gold.PLP.Fitness>
40.1772

> <Gold.PLP.PLP>
-31.4627

> <Gold.PLP.part.hbond>
-3.0000

> <Gold.PLP.part.metal>
0.0000

> <Gold.PLP.part.buried>
-2.2209

> <Gold.PLP.part.nonpolar>
-25.9355

> <Gold.PLP.part.repulsive>
0.1401

> <Gold.PLP.ligand.clash>
0.0000

> <Gold.PLP.ligand.torsion>
1.7229

> <Gold.PLP.Chemscore.Hbond>
4.0000

> <Gold.PLP.Chemscore.CHOScore>
0.0000

> <Gold.PLP.Chemscore.Metal>
0.0000

> <Gold.Chemscore.Hbonds>
donor molecule, donor type, donor heavy atom, donor atom, acceptor molecule, acceptor atom, score
      L1  H    12    44       P1  7948  1.53
      P1  H  7989  7998       L1     8  0.90
      P1  H  7997  8009       L1     7  0.94

> <Gold.PLP.Chemscore.Internal.Correction>
0.1605

> <Gold.Rescore>
     Score         DG    S(hbond)    S(metal)    S(lipo)     H(rot)  DE(clash)    DE(int)     intcor
     15.64     -19.02       2.63        0.00      74.03       1.52       0.56       2.83       ----

> <Gold.Chemscore.Fitness>
15.6378

> <Gold.Chemscore.DG>
-19.0211

> <Gold.Chemscore.ZeroCoef>
-5.4800

> <Gold.Chemscore.Hbond>
2.6254

> <Gold.Chemscore.Metal>
0.0000

> <Gold.Chemscore.Lipo>
74.0250

> <Gold.Chemscore.Internal_Hbond>
0.0000

> <Gold.Chemscore.DEClash>
0.5550

> <Gold.Chemscore.DEInternal>
2.8283

> <Gold.Chemscore.Rot>
1.5190

> <Gold.Chemscore.Internal.Correction>
   9.000000E+99

> <Gold.Chemscore.Hbonds>
donor molecule, donor type, donor heavy atom, donor atom, acceptor molecule, acceptor atom, score
      L1  H    12    44       P1  7948  0.69
      P1  H  7989  7998       L1     8  0.17
      P1  H  7997  8009       L1     7  0.91

> <Gold.Chemscore.Hbond.Weighted>
-8.7688

> <Gold.Chemscore.Metal.Weighted>
-0.0000

> <Gold.Chemscore.Lipo.Weighted>
-8.6609

> <Gold.Chemscore.Internal_Hbond.Weighted>
0.0000

> <Gold.Chemscore.DEClash.Weighted>
0.5550

> <Gold.Chemscore.DEInternal.Weighted>
2.8283

> <Gold.Chemscore.Rot.Weighted>
3.8886

> <Gold.Chemscore.Internal.Correction.Weighted>
   9.000000E+99

> <Gold.Protein.RotatedTorsions>
[ 6907 6896 6895 6894 ] final -128.78 input  -60.11 | X-H torsion
[ 7974 7965 7964 7962 ] final  115.43 input  175.53 | X-H torsion
[ 8008 7997 7996 7995 ] final -167.04 input   59.86 | X-H torsion
[ 10167 10162 10161 10158 ] final   29.78 input  -65.29 | X-H torsion
[ 10718 10713 10712 10709 ] final -118.35 input   66.30 | X-H torsion
[ 10763 10752 10751 10750 ] final  -31.31 input  -60.55 | X-H torsion
[ 11005 11000 10999 10996 ] final   63.88 input  -57.11 | X-H torsion

> <Gold.Protein.ActiveResidues>
 VAL166  LYS551  ARG553  GLY616  TRP617  ASP618  TYR619  PRO620  LYS621  CYS622 
 ASP623  PHE694  ASN695  SER759  ASP760  ASP761  ALA762  ILE779  LEU786  VAL792 
 PHE793  MET794  SER795  GLU796  ALA797  LYS798  CYS799  TRP800  GLU811  SER814 

> <Gold.Protein.RotatedAtoms>
  150.9216  133.6873  159.2830 H   0  0  0  0  0  0  0  0  0  0  0  0  # atno 6907 bound_to 6896
  151.4326  135.1010  159.9656 H   0  0  0  0  0  0  0  0  0  0  0  0  # atno 6908 bound_to 6896
  152.4982  133.8643  159.7321 H   0  0  0  0  0  0  0  0  0  0  0  0  # atno 6909 bound_to 6896
  145.1921  139.2995  143.4362 H   0  0  0  0  0  0  0  0  0  0  0  0  # atno 7974 bound_to 7965
  155.8721  140.0995  157.1543 H   0  0  0  0  0  0  0  0  0  0  0  0  # atno 8008 bound_to 7997
  154.3998  140.1345  156.4154 H   0  0  0  0  0  0  0  0  0  0  0  0  # atno 8009 bound_to 7997
  155.7738  140.3460  155.5263 H   0  0  0  0  0  0  0  0  0  0  0  0  # atno 8010 bound_to 7997
  140.4736  144.0725  150.6244 H   0  0  0  0  0  0  0  0  0  0  0  0  # atno 10167 bound_to 10162
  156.1100  130.6241  150.9280 H   0  0  0  0  0  0  0  0  0  0  0  0  # atno 10718 bound_to 10713
  153.7953  135.6894  153.4864 H   0  0  0  0  0  0  0  0  0  0  0  0  # atno 10763 bound_to 10752
  153.1723  135.4538  154.9917 H   0  0  0  0  0  0  0  0  0  0  0  0  # atno 10764 bound_to 10752
  154.8028  135.3344  154.7446 H   0  0  0  0  0  0  0  0  0  0  0  0  # atno 10765 bound_to 10752
  139.9995  134.6464  155.9954 H   0  0  0  0  0  0  0  0  0  0  0  0  # atno 11005 bound_to 11000
  146.3434  140.2137  142.8590 LP  0  0  0  0  0  0  0  0  0  0  0  0  # atno 17320 bound_to 7965
  145.0031  140.8649  143.5270 LP  0  0  0  0  0  0  0  0  0  0  0  0  # atno 17321 bound_to 7965
  140.3946  143.2734  152.0019 LP  0  0  0  0  0  0  0  0  0  0  0  0  # atno 17342 bound_to 10162
  139.4822  144.6048  151.7540 LP  0  0  0  0  0  0  0  0  0  0  0  0  # atno 17343 bound_to 10162
  157.6280  131.0924  150.8496 LP  0  0  0  0  0  0  0  0  0  0  0  0  # atno 17370 bound_to 10713
  156.8609  130.5112  149.5304 LP  0  0  0  0  0  0  0  0  0  0  0  0  # atno 17371 bound_to 10713
  141.1631  133.6538  156.4385 LP  0  0  0  0  0  0  0  0  0  0  0  0  # atno 17394 bound_to 11000
  140.4755  134.6714  157.5148 LP  0  0  0  0  0  0  0  0  0  0  0  0  # atno 17395 bound_to 11000

$$$$
