AV-unprocessed.smi:39|AV-procd|sdf|361|dock6
  -GOLD-   2262016203D 1   1.00000     0.00000
 Structure written by MMmdl.
 31 32  0  0  0  0  0  0  0  0  4 V2000
  151.2167  144.8225  158.6287 C   0  0  0  0  0  0  0  0  0  0  0  0
  151.6197  143.3698  158.4455 C   0  0  0  0  0  0  0  0  0  0  0  0
  151.2313  142.6425  157.3749 C   0  0  0  0  0  0  0  0  0  0  0  0
  151.5992  141.3187  157.2043 N   0  0  0  0  0  0  0  0  0  0  0  0
  151.2073  140.5782  155.9408 C   0  0  1  0  0  0  0  0  0  0  0  0
  150.3044  139.3626  156.1792 C   0  0  0  0  0  0  0  0  0  0  0  0
  149.6075  139.2857  154.8326 C   0  0  1  0  0  0  0  0  0  0  0  0
  148.3495  138.5319  154.8478 N   0  0  0  0  0  0  0  0  0  0  0  0
  148.4264  137.3353  155.1552 N   0  3  0  0  0  0  0  0  0  0  0  0
  148.4320  136.2644  155.5402 N   0  5  0  0  0  0  0  0  0  0  0  0
  149.4591  140.7734  154.4520 C   0  0  1  0  0  0  0  0  0  0  0  0
  148.1254  141.4876  154.7686 C   0  0  0  0  0  0  0  0  0  0  0  0
  148.0569  142.7996  154.2486 O   0  0  0  0  0  0  0  0  0  0  0  0
  150.5233  141.4633  155.1078 O   0  0  0  0  0  0  0  0  0  0  0  0
  152.5001  140.7274  158.1330 C   0  0  0  0  0  0  0  0  0  0  0  0
  152.8989  139.5821  157.9217 O   0  0  0  0  0  0  0  0  0  0  0  0
  152.8832  141.4470  159.2265 N   0  5  0  0  0  0  0  0  0  0  0  0
  152.4775  142.7296  159.4480 C   0  0  0  0  0  0  0  0  0  0  0  0
  152.8128  143.3586  160.4515 O   0  0  0  0  0  0  0  0  0  0  0  0
  152.1187  140.2649  155.4325 H   0  0  0  0  0  0  0  0  0  0  0  0
  150.3038  138.8347  154.1217 H   0  0  0  0  0  0  0  0  0  0  0  0
  149.6300  140.8724  153.3793 H   0  0  0  0  0  0  0  0  0  0  0  0
  150.5851  145.1650  157.8084 H   0  0  0  0  0  0  0  0  0  0  0  0
  152.0999  145.4608  158.6639 H   0  0  0  0  0  0  0  0  0  0  0  0
  150.6611  144.9495  159.5583 H   0  0  0  0  0  0  0  0  0  0  0  0
  150.6290  143.1263  156.6232 H   0  0  0  0  0  0  0  0  0  0  0  0
  150.8951  138.4785  156.4202 H   0  0  0  0  0  0  0  0  0  0  0  0
  149.5863  139.5351  156.9784 H   0  0  0  0  0  0  0  0  0  0  0  0
  147.2860  140.9067  154.3859 H   0  0  0  0  0  0  0  0  0  0  0  0
  147.9938  141.5543  155.8487 H   0  0  0  0  0  0  0  0  0  0  0  0
  148.5339  143.3764  154.8253 H   0  0  0  0  0  0  0  0  0  0  0  0
  1  2  1  0  0  0  0
  1 23  1  0  0  0  0
  1 24  1  0  0  0  0
  1 25  1  0  0  0  0
  2 18  1  0  0  0  0
  2  3  2  0  0  0  0
  3  4  1  0  0  0  0
  3 26  1  0  0  0  0
  4  5  1  0  0  0  0
  4 15  1  0  0  0  0
  5 20  1  0  0  0  0
  5 14  1  0  0  0  0
  5  6  1  0  0  0  0
  6  7  1  0  0  0  0
  6 27  1  0  0  0  0
  6 28  1  0  0  0  0
  7 21  1  0  0  0  0
  7  8  1  0  0  0  0
  7 11  1  0  0  0  0
  8  9  2  0  0  0  0
  9 10  2  0  0  0  0
 11 22  1  0  0  0  0
 11 12  1  0  0  0  0
 11 14  1  0  0  0  0
 12 13  1  0  0  0  0
 12 29  1  0  0  0  0
 12 30  1  0  0  0  0
 13 31  1  0  0  0  0
 15 16  2  0  0  0  0
 15 17  1  0  0  0  0
 17 18  1  0  0  0  0
 18 19  2  0  0  0  0
M  CHG  1   9   1
M  CHG  1  10  -1
M  CHG  1  17  -1
M  END
> <s_m_source_file>
AV-unprocessed.smi

> <i_m_source_file_index>
39

> <i_lp_mmshare_version>
43012

> <i_f3d_flags>
0

> <s_epik_input>
Tz1jMVtuSF1jKD1PKW4oW2NIXWMxW0NIM10pW0NASF0yW0NIMl1bQ0BIXShOPVtOK109W04tXSlbQ0BIXShPMilbQ0gyXVtPSF0=

> <s_epik_cmdline>
J2VwaWtfcHl0aG9uJywgJy1waCcsICc3LjAnLCAnLXRuJywgJzgnLCAnLW1hJywgJzIwMCcsICctbWV0YWxfYmluZGluZycsICctaW1hZScsICc8aW5maWxlLm1hZT4nLCAnLW9tYWUnLCAnPG91dGZpbGUubWFlPic=

> <r_lp_tautomer_probability>
0.999537

> <r_epik_Ionization_Penalty>
3.6393

> <r_epik_Ionization_Penalty_Charging>
9.76484e-08

> <r_epik_Ionization_Penalty_Neutral>
3.6393

> <r_epik_State_Penalty>
3.63887

> <r_epik_Charging_Adjusted_Penalty>
3.63887

> <i_epik_Tot_Q>
-1

> <i_epik_Tot_abs_Q>
3

> <r_epik_Metal_State_Penalty>
0.225911

> <b_epik_Metal_Only>
1

> <s_epik_Chemistry_Notes>
This compound contains an acetal/aminal-like group ( X-CH(R)-Y where X, Y are N, S, or O) that may be acid/base labile, releasing an aldehyde.

> <s_lp_Force_Field>
OPLS_2005

> <r_lp_Energy>
41.1751

> <b_lp_Chiralities_Consistent>
1

> <s_lp_Variant>
AV-unprocessed.smi:39-11

> <Gold.Version>
5.8.1

> <Gold.Id.Protein>
6NUR|6NUR_protein|mol2

> <Gold.PLP.Fitness>
39.6336

> <Gold.PLP.PLP>
-30.5500

> <Gold.PLP.part.hbond>
-5.0000

> <Gold.PLP.part.metal>
0.0000

> <Gold.PLP.part.buried>
-0.3508

> <Gold.PLP.part.nonpolar>
-23.8412

> <Gold.PLP.part.repulsive>
0.4063

> <Gold.PLP.ligand.clash>
0.0000

> <Gold.PLP.ligand.torsion>
0.1224

> <Gold.PLP.Chemscore.Hbond>
2.0812

> <Gold.PLP.Chemscore.CHOScore>
1.0000

> <Gold.PLP.Chemscore.Metal>
0.0000

> <Gold.Chemscore.Hbonds>
donor molecule, donor type, donor heavy atom, donor atom, acceptor molecule, acceptor atom, score
      L1  H    13    31       P1  8028  1.00
      P1  H  7989  7998       L1    14  0.07
      P1  H  7997  8009       L1    16  0.95
      L1  C     3    26       P1  8028  0.97

> <Gold.PLP.Chemscore.Internal.Correction>
0.0847

> <Gold.Rescore>
     Score         DG    S(hbond)    S(metal)    S(lipo)     H(rot)  DE(clash)    DE(int)     intcor
      9.84     -10.97       1.79        0.00      55.14       2.72       1.03       0.09       ----

> <Gold.Chemscore.Fitness>
9.8437

> <Gold.Chemscore.DG>
-10.9677

> <Gold.Chemscore.ZeroCoef>
-5.4800

> <Gold.Chemscore.Hbond>
1.7925

> <Gold.Chemscore.Metal>
0.0000

> <Gold.Chemscore.Lipo>
55.1439

> <Gold.Chemscore.Internal_Hbond>
0.0000

> <Gold.Chemscore.DEClash>
1.0322

> <Gold.Chemscore.DEInternal>
0.0918

> <Gold.Chemscore.Rot>
2.7153

> <Gold.Chemscore.Internal.Correction>
   9.000000E+99

> <Gold.Chemscore.Hbonds>
donor molecule, donor type, donor heavy atom, donor atom, acceptor molecule, acceptor atom, score
      L1  H    13    31       P1  8028  0.97
      P1  H  7997  8009       L1    16  0.20

> <Gold.Chemscore.Hbond.Weighted>
-5.9871

> <Gold.Chemscore.Metal.Weighted>
-0.0000

> <Gold.Chemscore.Lipo.Weighted>
-6.4518

> <Gold.Chemscore.Internal_Hbond.Weighted>
0.0000

> <Gold.Chemscore.DEClash.Weighted>
1.0322

> <Gold.Chemscore.DEInternal.Weighted>
0.0918

> <Gold.Chemscore.Rot.Weighted>
6.9512

> <Gold.Chemscore.Internal.Correction.Weighted>
   9.000000E+99

> <Gold.Protein.RotatedTorsions>
[ 6907 6896 6895 6894 ] final   96.11 input  -60.11 | X-H torsion
[ 7974 7965 7964 7962 ] final -159.66 input  175.53 | X-H torsion
[ 8008 7997 7996 7995 ] final  145.19 input   59.86 | X-H torsion
[ 10167 10162 10161 10158 ] final -113.54 input  -65.29 | X-H torsion
[ 10718 10713 10712 10709 ] final   51.54 input   66.30 | X-H torsion
[ 10763 10752 10751 10750 ] final -102.84 input  -60.55 | X-H torsion
[ 11005 11000 10999 10996 ] final   41.64 input  -57.11 | X-H torsion

> <Gold.Protein.ActiveResidues>
 VAL166  LYS551  ARG553  GLY616  TRP617  ASP618  TYR619  PRO620  LYS621  CYS622 
 ASP623  PHE694  ASN695  SER759  ASP760  ASP761  ALA762  ILE779  LEU786  VAL792 
 PHE793  MET794  SER795  GLU796  ALA797  LYS798  CYS799  TRP800  GLU811  SER814 

> <Gold.Protein.RotatedAtoms>
  152.5438  134.0937  159.8287 H   0  0  0  0  0  0  0  0  0  0  0  0  # atno 6907 bound_to 6896
  151.1023  133.5227  159.2616 H   0  0  0  0  0  0  0  0  0  0  0  0  # atno 6908 bound_to 6896
  151.1977  135.0438  159.8913 H   0  0  0  0  0  0  0  0  0  0  0  0  # atno 6909 bound_to 6896
  144.7456  140.3652  143.6087 H   0  0  0  0  0  0  0  0  0  0  0  0  # atno 7974 bound_to 7965
  156.2889  140.2215  156.5176 H   0  0  0  0  0  0  0  0  0  0  0  0  # atno 8008 bound_to 7997
  154.7556  140.0477  157.0952 H   0  0  0  0  0  0  0  0  0  0  0  0  # atno 8009 bound_to 7997
  155.0055  140.3107  155.4853 H   0  0  0  0  0  0  0  0  0  0  0  0  # atno 8010 bound_to 7997
  140.1108  143.4529  152.1754 H   0  0  0  0  0  0  0  0  0  0  0  0  # atno 10167 bound_to 10162
  157.4991  130.8426  149.8294 H   0  0  0  0  0  0  0  0  0  0  0  0  # atno 10718 bound_to 10713
  154.7763  135.4846  153.9752 H   0  0  0  0  0  0  0  0  0  0  0  0  # atno 10763 bound_to 10752
  153.1434  135.6777  153.9000 H   0  0  0  0  0  0  0  0  0  0  0  0  # atno 10764 bound_to 10752
  153.8667  135.3148  155.3418 H   0  0  0  0  0  0  0  0  0  0  0  0  # atno 10765 bound_to 10752
  140.1815  134.4097  155.8197 H   0  0  0  0  0  0  0  0  0  0  0  0  # atno 11005 bound_to 11000
  145.7135  139.1691  143.2525 LP  0  0  0  0  0  0  0  0  0  0  0  0  # atno 17320 bound_to 7965
  146.1329  140.7161  142.9403 LP  0  0  0  0  0  0  0  0  0  0  0  0  # atno 17321 bound_to 7965
  139.5620  144.7412  151.4127 LP  0  0  0  0  0  0  0  0  0  0  0  0  # atno 17342 bound_to 10162
  140.6927  143.7824  150.7279 LP  0  0  0  0  0  0  0  0  0  0  0  0  # atno 17343 bound_to 10162
  156.0218  130.3793  150.1940 LP  0  0  0  0  0  0  0  0  0  0  0  0  # atno 17370 bound_to 10713
  157.0129  130.9956  151.3361 LP  0  0  0  0  0  0  0  0  0  0  0  0  # atno 17371 bound_to 10713
  141.2223  133.7003  156.7939 LP  0  0  0  0  0  0  0  0  0  0  0  0  # atno 17394 bound_to 11000
  140.2261  134.8720  157.3428 LP  0  0  0  0  0  0  0  0  0  0  0  0  # atno 17395 bound_to 11000

$$$$
