AV-unprocessed.smi:2025|AV-procd|sdf|8200|dock6
  -GOLD-   2272010453D 1   1.00000     0.00000
 Structure written by MMmdl.
 39 40  0  0  0  0  0  0  0  0  1 V2000
  152.3150  139.8152  159.1393 C   0  0  0  0  0  0  0  0  0  0  0  0
  151.8749  140.7709  158.0196 C   0  0  1  0  0  0  0  0  0  0  0  0
  150.6288  140.2692  157.4443 N   0  0  0  0  0  0  0  0  0  0  0  0
  150.3401  140.2067  156.1351 C   0  0  0  0  0  0  0  0  0  0  0  0
  151.1142  140.5779  155.2515 O   0  0  0  0  0  0  0  0  0  0  0  0
  148.9494  139.6630  155.7811 C   0  0  0  0  0  0  0  0  0  0  0  0
  148.0531  140.6887  155.2317 N   0  0  0  0  0  0  0  0  0  0  0  0
  147.9706  140.8614  153.8619 C   0  0  0  0  0  0  0  0  0  0  0  0
  147.1592  141.7664  153.2727 C   0  0  0  0  0  0  0  0  0  0  0  0
  146.3067  142.6371  154.0724 C   0  0  0  0  0  0  0  0  0  0  0  0
  145.5378  143.4657  153.5827 O   0  0  0  0  0  0  0  0  0  0  0  0
  146.4200  142.4506  155.4697 N   0  0  0  0  0  0  0  0  0  0  0  0
  145.5826  143.2795  156.3122 C   0  0  0  0  0  0  0  0  0  0  0  0
  147.2571  141.4882  156.0806 C   0  0  0  0  0  0  0  0  0  0  0  0
  147.3000  141.3329  157.3034 O   0  0  0  0  0  0  0  0  0  0  0  0
  151.6754  142.2154  158.5247 C   0  0  1  0  0  0  0  0  0  0  0  0
  152.9141  142.8473  159.1575 C   0  0  0  0  0  0  0  0  0  0  0  0
  152.5898  144.3225  159.0693 C   0  0  0  0  0  0  0  0  0  0  0  0
  151.8031  144.4201  157.7621 C   0  0  0  0  0  0  0  0  0  0  0  0
  151.3876  143.0946  157.4426 O   0  0  0  0  0  0  0  0  0  0  0  0
  153.2774  140.1093  159.5585 H   0  0  0  0  0  0  0  0  0  0  0  0
  152.4239  138.7966  158.7648 H   0  0  0  0  0  0  0  0  0  0  0  0
  151.5894  139.7952  159.9531 H   0  0  0  0  0  0  0  0  0  0  0  0
  152.6579  140.7694  157.2592 H   0  0  0  0  0  0  0  0  0  0  0  0
  149.9267  139.9497  158.0957 H   0  0  0  0  0  0  0  0  0  0  0  0
  149.0448  138.8319  155.0798 H   0  0  0  0  0  0  0  0  0  0  0  0
  148.5125  139.2358  156.6848 H   0  0  0  0  0  0  0  0  0  0  0  0
  148.5806  140.2356  153.2265 H   0  0  0  0  0  0  0  0  0  0  0  0
  147.1383  141.8454  152.1957 H   0  0  0  0  0  0  0  0  0  0  0  0
  145.9615  143.2969  157.3342 H   0  0  0  0  0  0  0  0  0  0  0  0
  144.5775  142.8574  156.2723 H   0  0  0  0  0  0  0  0  0  0  0  0
  145.6041  144.2991  155.9231 H   0  0  0  0  0  0  0  0  0  0  0  0
  150.8441  142.2604  159.2310 H   0  0  0  0  0  0  0  0  0  0  0  0
  153.0896  142.5150  160.1811 H   0  0  0  0  0  0  0  0  0  0  0  0
  153.8031  142.6235  158.5658 H   0  0  0  0  0  0  0  0  0  0  0  0
  151.9561  144.6136  159.9081 H   0  0  0  0  0  0  0  0  0  0  0  0
  153.4780  144.9551  159.0798 H   0  0  0  0  0  0  0  0  0  0  0  0
  150.9419  145.0816  157.8622 H   0  0  0  0  0  0  0  0  0  0  0  0
  152.4279  144.7977  156.9521 H   0  0  0  0  0  0  0  0  0  0  0  0
  1  2  1  0  0  0  0
  1 21  1  0  0  0  0
  1 22  1  0  0  0  0
  1 23  1  0  0  0  0
  2  3  1  0  0  0  0
  2 16  1  0  0  0  0
  2 24  1  0  0  0  0
  3  4  1  0  0  0  0
  3 25  1  0  0  0  0
  4  5  2  0  0  0  0
  4  6  1  0  0  0  0
  6  7  1  0  0  0  0
  6 26  1  0  0  0  0
  6 27  1  0  0  0  0
  7 14  1  0  0  0  0
  7  8  1  0  0  0  0
  8  9  2  0  0  0  0
  8 28  1  0  0  0  0
  9 10  1  0  0  0  0
  9 29  1  0  0  0  0
 10 11  2  0  0  0  0
 10 12  1  0  0  0  0
 12 13  1  0  0  0  0
 12 14  1  0  0  0  0
 13 30  1  0  0  0  0
 13 31  1  0  0  0  0
 13 32  1  0  0  0  0
 14 15  2  0  0  0  0
 16 20  1  0  0  0  0
 16 17  1  0  0  0  0
 16 33  1  0  0  0  0
 17 18  1  0  0  0  0
 17 34  1  0  0  0  0
 17 35  1  0  0  0  0
 18 19  1  0  0  0  0
 18 36  1  0  0  0  0
 18 37  1  0  0  0  0
 19 20  1  0  0  0  0
 19 38  1  0  0  0  0
 19 39  1  0  0  0  0
M  END
> <s_m_source_file>
AV-unprocessed.smi

> <i_m_source_file_index>
2025

> <i_lp_mmshare_version>
43012

> <i_f3d_flags>
0

> <s_epik_input>
TzFbQ0gyXVtDSDJdW0NIMl1bQ0BIXTFbQ0BIXShbQ0gzXSlbTkhdQyg9TylbQ0gyXW4yW2NIXVtjSF1jKD1PKW4oW0NIM10pYzI9Tw==

> <s_epik_cmdline>
J2VwaWtfcHl0aG9uJywgJy1waCcsICc3LjAnLCAnLXRuJywgJzgnLCAnLW1hJywgJzIwMCcsICctbWV0YWxfYmluZGluZycsICctaW1hZScsICc8aW5maWxlLm1hZT4nLCAnLW9tYWUnLCAnPG91dGZpbGUubWFlPic=

> <r_lp_tautomer_probability>
1

> <r_epik_Ionization_Penalty>
3.54787e-08

> <r_epik_Ionization_Penalty_Charging>
1.24654e-08

> <r_epik_Ionization_Penalty_Neutral>
2.30132e-08

> <r_epik_State_Penalty>
-0

> <r_epik_Charging_Adjusted_Penalty>
1.24654e-08

> <i_epik_Tot_Q>
0

> <i_epik_Tot_abs_Q>
0

> <r_epik_Metal_State_Penalty>
-0

> <b_epik_Metal_Only>
0

> <s_lp_Force_Field>
OPLS_2005

> <r_lp_Energy>
25.8508

> <b_lp_Chiralities_Consistent>
1

> <s_lp_Variant>
AV-unprocessed.smi:2025-4

> <Gold.Version>
5.8.1

> <Gold.Id.Protein>
6NUR|6NUR_protein|mol2

> <Gold.PLP.Fitness>
39.7641

> <Gold.PLP.PLP>
-35.4496

> <Gold.PLP.part.hbond>
-1.0000

> <Gold.PLP.part.metal>
0.0000

> <Gold.PLP.part.buried>
-6.3310

> <Gold.PLP.part.nonpolar>
-28.5527

> <Gold.PLP.part.repulsive>
0.4694

> <Gold.PLP.ligand.clash>
0.0000

> <Gold.PLP.ligand.torsion>
0.6974

> <Gold.PLP.Chemscore.Hbond>
0.8960

> <Gold.PLP.Chemscore.CHOScore>
1.0000

> <Gold.PLP.Chemscore.Metal>
0.0000

> <Gold.Chemscore.Hbonds>
donor molecule, donor type, donor heavy atom, donor atom, acceptor molecule, acceptor atom, score
      P1  H  7989  7998       L1     5  0.91
      L1  C     8    28       P1  7957  1.00

> <Gold.PLP.Chemscore.Internal.Correction>
0.0213

> <Gold.Rescore>
     Score         DG    S(hbond)    S(metal)    S(lipo)     H(rot)  DE(clash)    DE(int)     intcor
     12.84     -13.51       0.92        0.00      82.32       1.82       0.07       0.60       ----

> <Gold.Chemscore.Fitness>
12.8368

> <Gold.Chemscore.DG>
-13.5145

> <Gold.Chemscore.ZeroCoef>
-5.4800

> <Gold.Chemscore.Hbond>
0.9189

> <Gold.Chemscore.Metal>
0.0000

> <Gold.Chemscore.Lipo>
82.3235

> <Gold.Chemscore.Internal_Hbond>
0.0000

> <Gold.Chemscore.DEClash>
0.0750

> <Gold.Chemscore.DEInternal>
0.6027

> <Gold.Chemscore.Rot>
1.8228

> <Gold.Chemscore.Internal.Correction>
   9.000000E+99

> <Gold.Chemscore.Hbonds>
donor molecule, donor type, donor heavy atom, donor atom, acceptor molecule, acceptor atom, score
      P1  H  7989  7998       L1     5  0.90

> <Gold.Chemscore.Hbond.Weighted>
-3.0691

> <Gold.Chemscore.Metal.Weighted>
-0.0000

> <Gold.Chemscore.Lipo.Weighted>
-9.6318

> <Gold.Chemscore.Internal_Hbond.Weighted>
0.0000

> <Gold.Chemscore.DEClash.Weighted>
0.0750

> <Gold.Chemscore.DEInternal.Weighted>
0.6027

> <Gold.Chemscore.Rot.Weighted>
4.6665

> <Gold.Chemscore.Internal.Correction.Weighted>
   9.000000E+99

> <Gold.Protein.RotatedTorsions>
[ 6907 6896 6895 6894 ] final   30.42 input  -60.11 | X-H torsion
[ 7974 7965 7964 7962 ] final   82.64 input  175.53 | X-H torsion
[ 8008 7997 7996 7995 ] final   58.43 input   59.86 | X-H torsion
[ 10167 10162 10161 10158 ] final   93.69 input  -65.29 | X-H torsion
[ 10718 10713 10712 10709 ] final  100.37 input   66.30 | X-H torsion
[ 10763 10752 10751 10750 ] final -133.76 input  -60.55 | X-H torsion
[ 11005 11000 10999 10996 ] final  -82.18 input  -57.11 | X-H torsion

> <Gold.Protein.ActiveResidues>
 VAL166  LYS551  ARG553  GLY616  TRP617  ASP618  TYR619  PRO620  LYS621  CYS622 
 ASP623  PHE694  ASN695  SER759  ASP760  ASP761  ALA762  ILE779  LEU786  VAL792 
 PHE793  MET794  SER795  GLU796  ALA797  LYS798  CYS799  TRP800  GLU811  SER814 

> <Gold.Protein.RotatedAtoms>
  152.0458  134.9684  160.0574 H   0  0  0  0  0  0  0  0  0  0  0  0  # atno 6907 bound_to 6896
  152.1105  133.4293  159.4637 H   0  0  0  0  0  0  0  0  0  0  0  0  # atno 6908 bound_to 6896
  150.6843  134.2573  159.4578 H   0  0  0  0  0  0  0  0  0  0  0  0  # atno 6909 bound_to 6896
  145.6224  139.2388  143.2131 H   0  0  0  0  0  0  0  0  0  0  0  0  # atno 7974 bound_to 7965
  155.5498  140.3486  155.4466 H   0  0  0  0  0  0  0  0  0  0  0  0  # atno 8008 bound_to 7997
  156.0591  140.1336  156.9988 H   0  0  0  0  0  0  0  0  0  0  0  0  # atno 8009 bound_to 7997
  154.4471  140.0989  156.6475 H   0  0  0  0  0  0  0  0  0  0  0  0  # atno 8010 bound_to 7997
  139.8155  144.6754  150.9585 H   0  0  0  0  0  0  0  0  0  0  0  0  # atno 10167 bound_to 10162
  157.6855  131.0696  150.5091 H   0  0  0  0  0  0  0  0  0  0  0  0  # atno 10718 bound_to 10713
  154.8728  135.3756  154.4625 H   0  0  0  0  0  0  0  0  0  0  0  0  # atno 10763 bound_to 10752
  153.5292  135.7028  153.5697 H   0  0  0  0  0  0  0  0  0  0  0  0  # atno 10764 bound_to 10752
  153.3909  135.3972  155.1887 H   0  0  0  0  0  0  0  0  0  0  0  0  # atno 10765 bound_to 10752
  141.1664  133.7232  156.8533 H   0  0  0  0  0  0  0  0  0  0  0  0  # atno 11005 bound_to 11000
  146.1421  140.7044  142.9362 LP  0  0  0  0  0  0  0  0  0  0  0  0  # atno 17320 bound_to 7965
  144.7226  140.4421  143.6997 LP  0  0  0  0  0  0  0  0  0  0  0  0  # atno 17321 bound_to 7965
  140.7816  143.4143  151.0943 LP  0  0  0  0  0  0  0  0  0  0  0  0  # atno 17342 bound_to 10162
  139.7807  143.8360  152.3137 LP  0  0  0  0  0  0  0  0  0  0  0  0  # atno 17343 bound_to 10162
  156.5409  130.4208  149.6154 LP  0  0  0  0  0  0  0  0  0  0  0  0  # atno 17370 bound_to 10713
  156.2986  130.7164  151.2031 LP  0  0  0  0  0  0  0  0  0  0  0  0  # atno 17371 bound_to 10713
  140.1900  134.8972  157.3049 LP  0  0  0  0  0  0  0  0  0  0  0  0  # atno 17394 bound_to 11000
  140.2300  134.3920  155.7526 LP  0  0  0  0  0  0  0  0  0  0  0  0  # atno 17395 bound_to 11000

$$$$
