AV-unprocessed.smi:2273|AV-procd|sdf|9164|dock4
  -GOLD-   2272012373D 1   1.00000     0.00000
 Structure written by MMmdl.
 53 54  0  0  0  0  0  0  0  0  1 V2000
  150.7807  141.6568  155.6344 C   0  0  0  0  0  0  0  0  0  0  0  0
  149.7701  140.8272  154.8334 C   0  0  0  0  0  0  0  0  0  0  0  0
  149.8519  139.2868  155.0125 C   0  0  0  0  0  0  0  0  0  0  0  0
  151.0556  138.7227  154.2106 C   0  0  0  0  0  0  0  0  0  0  0  0
  152.4357  139.2278  154.6603 C   0  0  0  0  0  0  0  0  0  0  0  0
  148.5144  138.5836  154.6272 C   0  0  2  0  0  0  0  0  0  0  0  0
  147.7853  139.2648  153.4415 C   0  0  0  0  0  0  0  0  0  0  0  0
  146.4798  138.5325  153.0780 C   0  0  1  0  0  0  0  0  0  0  0  0
  146.7508  137.2220  152.4775 N   0  0  0  0  0  0  0  0  0  0  0  0
  145.9234  136.1688  152.3525 C   0  0  0  0  0  0  0  0  0  0  0  0
  144.7686  136.2103  152.7739 O   0  0  0  0  0  0  0  0  0  0  0  0
  146.4735  135.0956  151.7485 N   0  0  0  0  0  0  0  0  0  0  0  0
  145.8520  133.8613  151.4992 C   0  0  0  0  0  0  0  0  0  0  0  0
  144.6899  133.8441  150.7946 C   0  0  0  0  0  0  0  0  0  0  0  0
  144.0725  135.1155  150.2350 C   0  0  0  0  0  0  0  0  0  0  0  0
  144.0357  132.5767  150.5439 C   0  0  0  0  0  0  0  0  0  0  0  0
  144.5811  131.4485  151.0171 C   0  0  0  0  0  0  0  0  0  0  0  0
  145.7644  131.4620  151.7687 N   0  0  0  0  0  0  0  0  0  0  0  0
  146.2720  130.1769  152.2562 C   0  0  0  0  0  0  0  0  0  0  0  0
  146.4174  132.6184  152.0807 C   0  0  0  0  0  0  0  0  0  0  0  0
  147.4041  132.6041  152.8201 O   0  0  0  0  0  0  0  0  0  0  0  0
  145.6190  138.3732  154.3395 C   0  0  0  0  0  0  0  0  0  0  0  0
  146.4364  137.7932  155.5046 C   0  0  0  0  0  0  0  0  0  0  0  0
  147.5972  138.5883  155.7225 O   0  0  0  0  0  0  0  0  0  0  0  0
  150.7284  142.7066  155.3451 H   0  0  0  0  0  0  0  0  0  0  0  0
  151.8009  141.3170  155.4554 H   0  0  0  0  0  0  0  0  0  0  0  0
  150.5793  141.6129  156.7046 H   0  0  0  0  0  0  0  0  0  0  0  0
  148.7631  141.1702  155.0732 H   0  0  0  0  0  0  0  0  0  0  0  0
  149.9294  141.0787  153.7859 H   0  0  0  0  0  0  0  0  0  0  0  0
  150.0536  139.0748  156.0636 H   0  0  0  0  0  0  0  0  0  0  0  0
  151.0836  137.6376  154.3106 H   0  0  0  0  0  0  0  0  0  0  0  0
  150.9226  138.9268  153.1475 H   0  0  0  0  0  0  0  0  0  0  0  0
  153.2274  138.6769  154.1523 H   0  0  0  0  0  0  0  0  0  0  0  0
  152.5761  139.0928  155.7330 H   0  0  0  0  0  0  0  0  0  0  0  0
  152.5831  140.2816  154.4260 H   0  0  0  0  0  0  0  0  0  0  0  0
  148.7360  137.5422  154.3868 H   0  0  0  0  0  0  0  0  0  0  0  0
  147.5461  140.2925  153.7187 H   0  0  0  0  0  0  0  0  0  0  0  0
  148.4202  139.3421  152.5625 H   0  0  0  0  0  0  0  0  0  0  0  0
  145.9131  139.1374  152.3686 H   0  0  0  0  0  0  0  0  0  0  0  0
  147.6678  137.1155  152.0680 H   0  0  0  0  0  0  0  0  0  0  0  0
  147.4631  135.1357  151.5537 H   0  0  0  0  0  0  0  0  0  0  0  0
  143.1104  134.9134  149.7635 H   0  0  0  0  0  0  0  0  0  0  0  0
  144.7294  135.5517  149.4835 H   0  0  0  0  0  0  0  0  0  0  0  0
  143.9098  135.8497  151.0248 H   0  0  0  0  0  0  0  0  0  0  0  0
  143.1201  132.5338  149.9724 H   0  0  0  0  0  0  0  0  0  0  0  0
  144.1413  130.4745  150.8598 H   0  0  0  0  0  0  0  0  0  0  0  0
  147.3184  130.0435  151.9770 H   0  0  0  0  0  0  0  0  0  0  0  0
  145.7220  129.3265  151.8517 H   0  0  0  0  0  0  0  0  0  0  0  0
  146.2011  130.1278  153.3436 H   0  0  0  0  0  0  0  0  0  0  0  0
  145.2354  139.3510  154.6338 H   0  0  0  0  0  0  0  0  0  0  0  0
  144.7470  137.7503  154.1365 H   0  0  0  0  0  0  0  0  0  0  0  0
  145.8369  137.7908  156.4148 H   0  0  0  0  0  0  0  0  0  0  0  0
  146.7188  136.7573  155.3109 H   0  0  0  0  0  0  0  0  0  0  0  0
  1  2  1  0  0  0  0
  1 25  1  0  0  0  0
  1 26  1  0  0  0  0
  1 27  1  0  0  0  0
  2  3  1  0  0  0  0
  2 28  1  0  0  0  0
  2 29  1  0  0  0  0
  3  4  1  0  0  0  0
  3  6  1  0  0  0  0
  3 30  1  0  0  0  0
  4  5  1  0  0  0  0
  4 31  1  0  0  0  0
  4 32  1  0  0  0  0
  5 33  1  0  0  0  0
  5 34  1  0  0  0  0
  5 35  1  0  0  0  0
  6 24  1  0  0  0  0
  6  7  1  0  0  0  0
  6 36  1  0  0  0  0
  7  8  1  0  0  0  0
  7 37  1  0  0  0  0
  7 38  1  0  0  0  0
  8  9  1  0  0  0  0
  8 22  1  0  0  0  0
  8 39  1  0  0  0  0
  9 10  1  0  0  0  0
  9 40  1  0  0  0  0
 10 11  2  0  0  0  0
 10 12  1  0  0  0  0
 12 13  1  0  0  0  0
 12 41  1  0  0  0  0
 13 20  1  0  0  0  0
 13 14  2  0  0  0  0
 14 15  1  0  0  0  0
 14 16  1  0  0  0  0
 15 42  1  0  0  0  0
 15 43  1  0  0  0  0
 15 44  1  0  0  0  0
 16 17  2  0  0  0  0
 16 45  1  0  0  0  0
 17 18  1  0  0  0  0
 17 46  1  0  0  0  0
 18 19  1  0  0  0  0
 18 20  1  0  0  0  0
 19 47  1  0  0  0  0
 19 48  1  0  0  0  0
 19 49  1  0  0  0  0
 20 21  2  0  0  0  0
 22 23  1  0  0  0  0
 22 50  1  0  0  0  0
 22 51  1  0  0  0  0
 23 24  1  0  0  0  0
 23 52  1  0  0  0  0
 23 53  1  0  0  0  0
M  END
> <s_m_source_file>
AV-unprocessed.smi

> <i_m_source_file_index>
2273

> <i_lp_mmshare_version>
43012

> <i_f3d_flags>
0

> <s_epik_input>
W0NIM11bQ0gyXVtDSF0oW0NIMl1bQ0gzXSlbQ0BASF0xW0NIMl1bQ0BIXShbQ0gyXVtDSDJdTzEpW05IXUMoPU8pW05IXWMyYyhbQ0gzXSlbY0hdW2NIXW4oW0NIM10pYzI9Tw==

> <s_epik_cmdline>
J2VwaWtfcHl0aG9uJywgJy1waCcsICc3LjAnLCAnLXRuJywgJzgnLCAnLW1hJywgJzIwMCcsICctbWV0YWxfYmluZGluZycsICctaW1hZScsICc8aW5maWxlLm1hZT4nLCAnLW9tYWUnLCAnPG91dGZpbGUubWFlPic=

> <r_lp_tautomer_probability>
1

> <r_epik_Ionization_Penalty>
2.66245e-05

> <r_epik_Ionization_Penalty_Charging>
6.91055e-06

> <r_epik_Ionization_Penalty_Neutral>
1.97139e-05

> <r_epik_State_Penalty>
-0

> <r_epik_Charging_Adjusted_Penalty>
6.91055e-06

> <i_epik_Tot_Q>
0

> <i_epik_Tot_abs_Q>
0

> <r_epik_Metal_State_Penalty>
-0

> <b_epik_Metal_Only>
0

> <s_lp_Force_Field>
OPLS_2005

> <r_lp_Energy>
42.8548

> <b_lp_Chiralities_Consistent>
1

> <s_lp_Variant>
AV-unprocessed.smi:2273-1

> <Gold.Version>
5.8.1

> <Gold.Id.Protein>
6NUR|6NUR_protein|mol2

> <Gold.PLP.Fitness>
43.7341

> <Gold.PLP.PLP>
-40.8792

> <Gold.PLP.part.hbond>
-1.8109

> <Gold.PLP.part.metal>
0.0000

> <Gold.PLP.part.buried>
-4.1617

> <Gold.PLP.part.nonpolar>
-35.0840

> <Gold.PLP.part.repulsive>
0.3854

> <Gold.PLP.ligand.clash>
0.0000

> <Gold.PLP.ligand.torsion>
1.6258

> <Gold.PLP.Chemscore.Hbond>
1.8480

> <Gold.PLP.Chemscore.CHOScore>
0.0000

> <Gold.PLP.Chemscore.Metal>
0.0000

> <Gold.Chemscore.Hbonds>
donor molecule, donor type, donor heavy atom, donor atom, acceptor molecule, acceptor atom, score
      L1  H     9    40       P1  7948  0.99
      L1  H    12    41       P1  7948  0.85

> <Gold.PLP.Chemscore.Internal.Correction>
0.5623

> <Gold.Rescore>
     Score         DG    S(hbond)    S(metal)    S(lipo)     H(rot)  DE(clash)    DE(int)     intcor
     15.73     -19.17       1.82        0.00      96.13       1.42       0.15       3.29       ----

> <Gold.Chemscore.Fitness>
15.7290

> <Gold.Chemscore.DG>
-19.1671

> <Gold.Chemscore.ZeroCoef>
-5.4800

> <Gold.Chemscore.Hbond>
1.8218

> <Gold.Chemscore.Metal>
0.0000

> <Gold.Chemscore.Lipo>
96.1275

> <Gold.Chemscore.Internal_Hbond>
0.0000

> <Gold.Chemscore.DEClash>
0.1524

> <Gold.Chemscore.DEInternal>
3.2857

> <Gold.Chemscore.Rot>
1.4236

> <Gold.Chemscore.Internal.Correction>
   9.000000E+99

> <Gold.Chemscore.Hbonds>
donor molecule, donor type, donor heavy atom, donor atom, acceptor molecule, acceptor atom, score
      L1  H     9    40       P1  7948  0.91
      L1  H    12    41       P1  7948  0.62

> <Gold.Chemscore.Hbond.Weighted>
-6.0846

> <Gold.Chemscore.Metal.Weighted>
-0.0000

> <Gold.Chemscore.Lipo.Weighted>
-11.2469

> <Gold.Chemscore.Internal_Hbond.Weighted>
0.0000

> <Gold.Chemscore.DEClash.Weighted>
0.1524

> <Gold.Chemscore.DEInternal.Weighted>
3.2857

> <Gold.Chemscore.Rot.Weighted>
3.6445

> <Gold.Chemscore.Internal.Correction.Weighted>
   9.000000E+99

> <Gold.Protein.RotatedTorsions>
[ 6907 6896 6895 6894 ] final  178.01 input  -60.11 | X-H torsion
[ 7974 7965 7964 7962 ] final  175.89 input  175.53 | X-H torsion
[ 8008 7997 7996 7995 ] final  148.93 input   59.86 | X-H torsion
[ 10167 10162 10161 10158 ] final -109.21 input  -65.29 | X-H torsion
[ 10718 10713 10712 10709 ] final   56.17 input   66.30 | X-H torsion
[ 10763 10752 10751 10750 ] final -143.61 input  -60.55 | X-H torsion
[ 11005 11000 10999 10996 ] final -132.37 input  -57.11 | X-H torsion

> <Gold.Protein.ActiveResidues>
 VAL166  LYS551  ARG553  GLY616  TRP617  ASP618  TYR619  PRO620  LYS621  CYS622 
 ASP623  PHE694  ASN695  SER759  ASP760  ASP761  ALA762  ILE779  LEU786  VAL792 
 PHE793  MET794  SER795  GLU796  ALA797  LYS798  CYS799  TRP800  GLU811  SER814 

> <Gold.Protein.RotatedAtoms>
  151.6948  133.3311  159.3251 H   0  0  0  0  0  0  0  0  0  0  0  0  # atno 6907 bound_to 6896
  150.7763  134.6667  159.6379 H   0  0  0  0  0  0  0  0  0  0  0  0  # atno 6908 bound_to 6896
  152.3805  134.6600  160.0196 H   0  0  0  0  0  0  0  0  0  0  0  0  # atno 6909 bound_to 6896
  144.7193  140.0014  143.6440 H   0  0  0  0  0  0  0  0  0  0  0  0  # atno 7974 bound_to 7965
  156.2773  140.2115  156.5778 H   0  0  0  0  0  0  0  0  0  0  0  0  # atno 8008 bound_to 7997
  154.7083  140.0514  157.0549 H   0  0  0  0  0  0  0  0  0  0  0  0  # atno 8009 bound_to 7997
  155.0640  140.3169  155.4654 H   0  0  0  0  0  0  0  0  0  0  0  0  # atno 8010 bound_to 7997
  140.1578  143.4145  152.1448 H   0  0  0  0  0  0  0  0  0  0  0  0  # atno 10167 bound_to 10162
  157.5408  130.8696  149.8820 H   0  0  0  0  0  0  0  0  0  0  0  0  # atno 10718 bound_to 10713
  154.8462  135.3463  154.6215 H   0  0  0  0  0  0  0  0  0  0  0  0  # atno 10763 bound_to 10752
  153.6824  135.6979  153.5118 H   0  0  0  0  0  0  0  0  0  0  0  0  # atno 10764 bound_to 10752
  153.2658  135.4308  155.0895 H   0  0  0  0  0  0  0  0  0  0  0  0  # atno 10765 bound_to 10752
  140.9176  134.1486  157.4340 H   0  0  0  0  0  0  0  0  0  0  0  0  # atno 11005 bound_to 11000
  146.0332  139.3354  143.0742 LP  0  0  0  0  0  0  0  0  0  0  0  0  # atno 17320 bound_to 7965
  145.8427  140.9572  143.0791 LP  0  0  0  0  0  0  0  0  0  0  0  0  # atno 17321 bound_to 7965
  139.5395  144.7243  151.4780 LP  0  0  0  0  0  0  0  0  0  0  0  0  # atno 17342 bound_to 10162
  140.6662  143.8393  150.6945 LP  0  0  0  0  0  0  0  0  0  0  0  0  # atno 17343 bound_to 10162
  156.0495  130.3720  150.1235 LP  0  0  0  0  0  0  0  0  0  0  0  0  # atno 17370 bound_to 10713
  156.9415  130.9746  151.3515 LP  0  0  0  0  0  0  0  0  0  0  0  0  # atno 17371 bound_to 10713
  139.8769  134.9959  156.5769 LP  0  0  0  0  0  0  0  0  0  0  0  0  # atno 17394 bound_to 11000
  140.8030  133.8490  155.8743 LP  0  0  0  0  0  0  0  0  0  0  0  0  # atno 17395 bound_to 11000

$$$$
