AV-unprocessed.smi:2908|AV-procd|sdf|11168|dock10
  -GOLD-   2272016 63D 1   1.00000     0.00000
 Structure written by MMmdl.
 43 44  0  0  0  0  0  0  0  0  1 V2000
  150.3600  137.4593  159.1391 O   0  0  0  0  0  0  0  0  0  0  0  0
  149.8641  138.2275  158.3137 C   0  0  0  0  0  0  0  0  0  0  0  0
  148.5538  138.2161  158.0239 N   0  0  0  0  0  0  0  0  0  0  0  0
  147.5370  137.4416  158.7253 C   0  0  0  0  0  0  0  0  0  0  0  0
  148.0140  136.0032  158.9991 C   0  0  0  0  0  0  0  0  0  0  0  0
  147.7611  135.5426  160.4263 C   0  0  0  0  0  0  0  0  0  0  0  0
  148.0426  136.3947  161.5149 C   0  0  0  0  0  0  0  0  0  0  0  0
  147.7561  135.9386  162.8162 C   0  0  0  0  0  0  0  0  0  0  0  0
  147.2025  134.6540  162.9785 C   0  0  0  0  0  0  0  0  0  0  0  0
  146.9606  133.8786  161.8276 C   0  0  0  0  0  0  0  0  0  0  0  0
  147.2277  134.3080  160.5755 N   0  0  0  0  0  0  0  0  0  0  0  0
  150.5831  139.1540  157.6305 N   0  0  0  0  0  0  0  0  0  0  0  0
  150.0415  140.1575  156.7004 C   0  0  0  0  0  0  0  0  0  0  0  0
  149.9397  141.4990  157.4461 C   0  0  0  0  0  0  0  0  0  0  0  0
  151.3122  141.9386  158.0143 C   0  0  0  0  0  0  0  0  0  0  0  0
  151.1924  143.2622  158.8145 C   0  0  1  0  0  0  0  0  0  0  0  0
  150.5322  143.0318  160.0453 O   0  0  0  0  0  0  0  0  0  0  0  0
  152.5217  144.0044  159.0764 C   0  0  0  0  0  0  0  0  0  0  0  0
  152.2811  145.1171  159.7705 F   0  0  0  0  0  0  0  0  0  0  0  0
  153.3923  143.2531  159.7503 F   0  0  0  0  0  0  0  0  0  0  0  0
  153.0726  144.3599  157.9158 F   0  0  0  0  0  0  0  0  0  0  0  0
  151.9940  140.7788  158.7870 C   0  0  0  0  0  0  0  0  0  0  0  0
  151.9724  139.4667  157.9794 C   0  0  0  0  0  0  0  0  0  0  0  0
  148.2238  138.8661  157.3251 H   0  0  0  0  0  0  0  0  0  0  0  0
  147.2782  137.9409  159.6593 H   0  0  0  0  0  0  0  0  0  0  0  0
  146.6272  137.4011  158.1236 H   0  0  0  0  0  0  0  0  0  0  0  0
  147.5126  135.3175  158.3141 H   0  0  0  0  0  0  0  0  0  0  0  0
  149.0793  135.9207  158.7804 H   0  0  0  0  0  0  0  0  0  0  0  0
  148.4598  137.3784  161.3567 H   0  0  0  0  0  0  0  0  0  0  0  0
  147.9546  136.5637  163.6741 H   0  0  0  0  0  0  0  0  0  0  0  0
  146.9690  134.2715  163.9610 H   0  0  0  0  0  0  0  0  0  0  0  0
  146.5355  132.8897  161.9135 H   0  0  0  0  0  0  0  0  0  0  0  0
  150.7103  140.2573  155.8443 H   0  0  0  0  0  0  0  0  0  0  0  0
  149.0740  139.8897  156.2758 H   0  0  0  0  0  0  0  0  0  0  0  0
  149.5494  142.2639  156.7740 H   0  0  0  0  0  0  0  0  0  0  0  0
  149.2138  141.4002  158.2544 H   0  0  0  0  0  0  0  0  0  0  0  0
  151.9421  142.1457  157.1481 H   0  0  0  0  0  0  0  0  0  0  0  0
  150.5566  143.9374  158.2400 H   0  0  0  0  0  0  0  0  0  0  0  0
  149.6004  143.0261  159.8891 H   0  0  0  0  0  0  0  0  0  0  0  0
  153.0292  141.0285  159.0161 H   0  0  0  0  0  0  0  0  0  0  0  0
  151.4938  140.6177  159.7428 H   0  0  0  0  0  0  0  0  0  0  0  0
  152.4513  138.6677  158.5471 H   0  0  0  0  0  0  0  0  0  0  0  0
  152.5635  139.5755  157.0690 H   0  0  0  0  0  0  0  0  0  0  0  0
  1  2  2  0  0  0  0
  2  3  1  0  0  0  0
  2 12  1  0  0  0  0
  3  4  1  0  0  0  0
  3 24  1  0  0  0  0
  4  5  1  0  0  0  0
  4 25  1  0  0  0  0
  4 26  1  0  0  0  0
  5  6  1  0  0  0  0
  5 27  1  0  0  0  0
  5 28  1  0  0  0  0
  6 11  1  0  0  0  0
  6  7  2  0  0  0  0
  7  8  1  0  0  0  0
  7 29  1  0  0  0  0
  8  9  2  0  0  0  0
  8 30  1  0  0  0  0
  9 10  1  0  0  0  0
  9 31  1  0  0  0  0
 10 11  2  0  0  0  0
 10 32  1  0  0  0  0
 12 23  1  0  0  0  0
 12 13  1  0  0  0  0
 13 14  1  0  0  0  0
 13 33  1  0  0  0  0
 13 34  1  0  0  0  0
 14 15  1  0  0  0  0
 14 35  1  0  0  0  0
 14 36  1  0  0  0  0
 15 16  1  0  0  0  0
 15 22  1  0  0  0  0
 15 37  1  0  0  0  0
 16 17  1  0  0  0  0
 16 18  1  0  0  0  0
 16 38  1  0  0  0  0
 17 39  1  0  0  0  0
 18 19  1  0  0  0  0
 18 20  1  0  0  0  0
 18 21  1  0  0  0  0
 22 23  1  0  0  0  0
 22 40  1  0  0  0  0
 22 41  1  0  0  0  0
 23 42  1  0  0  0  0
 23 43  1  0  0  0  0
M  END
> <s_m_source_file>
AV-unprocessed.smi

> <i_m_source_file_index>
2908

> <i_lp_mmshare_version>
43012

> <i_f3d_flags>
0

> <s_epik_input>
RkMoRikoRilbQ0BASF0oW09IXSlbQ0hdKFtDSDJdW0NIMl0xKVtDSDJdW0NIMl1OMUMoPU8pW05IXVtDSDJdW0NIMl1jMltjSF1bY0hdW2NIXVtjSF1uMg==

> <s_epik_cmdline>
J2VwaWtfcHl0aG9uJywgJy1waCcsICc3LjAnLCAnLXRuJywgJzgnLCAnLW1hJywgJzIwMCcsICctbWV0YWxfYmluZGluZycsICctaW1hZScsICc8aW5maWxlLm1hZT4nLCAnLW9tYWUnLCAnPG91dGZpbGUubWFlPic=

> <r_epik_Ionization_Penalty>
0.0451198

> <r_epik_Ionization_Penalty_Charging>
0

> <r_epik_Ionization_Penalty_Neutral>
0.0451198

> <r_epik_State_Penalty>
0.0381178

> <r_epik_Charging_Adjusted_Penalty>
0.0381178

> <i_epik_Tot_Q>
0

> <i_epik_Tot_abs_Q>
0

> <r_epik_Metal_State_Penalty>
0.0354176

> <b_epik_Metal_Only>
0

> <s_lp_Force_Field>
OPLS_2005

> <r_lp_Energy>
37.4058

> <b_lp_Chiralities_Consistent>
1

> <s_lp_Variant>
AV-unprocessed.smi:2908-2

> <Gold.Version>
5.8.1

> <Gold.Id.Protein>
6NUR|6NUR_protein|mol2

> <Gold.PLP.Fitness>
49.8662

> <Gold.PLP.PLP>
-51.2147

> <Gold.PLP.part.hbond>
-1.4311

> <Gold.PLP.part.metal>
0.0000

> <Gold.PLP.part.buried>
-6.0768

> <Gold.PLP.part.nonpolar>
-42.9808

> <Gold.PLP.part.repulsive>
0.0894

> <Gold.PLP.ligand.clash>
0.0000

> <Gold.PLP.ligand.torsion>
0.8200

> <Gold.PLP.Chemscore.Hbond>
0.0000

> <Gold.PLP.Chemscore.CHOScore>
0.0000

> <Gold.PLP.Chemscore.Metal>
0.0000

> <Gold.PLP.Chemscore.Internal.Correction>
0.2916

> <Gold.Rescore>
     Score         DG    S(hbond)    S(metal)    S(lipo)     H(rot)  DE(clash)    DE(int)     intcor
     11.36     -13.96       0.95        0.00      95.86       2.30       0.11       2.50       ----

> <Gold.Chemscore.Fitness>
11.3581

> <Gold.Chemscore.DG>
-13.9645

> <Gold.Chemscore.ZeroCoef>
-5.4800

> <Gold.Chemscore.Hbond>
0.9487

> <Gold.Chemscore.Metal>
0.0000

> <Gold.Chemscore.Lipo>
95.8642

> <Gold.Chemscore.Internal_Hbond>
0.0000

> <Gold.Chemscore.DEClash>
0.1114

> <Gold.Chemscore.DEInternal>
2.4950

> <Gold.Chemscore.Rot>
2.3048

> <Gold.Chemscore.Internal.Correction>
   9.000000E+99

> <Gold.Chemscore.Hbond.Weighted>
-3.1688

> <Gold.Chemscore.Metal.Weighted>
-0.0000

> <Gold.Chemscore.Lipo.Weighted>
-11.2161

> <Gold.Chemscore.Internal_Hbond.Weighted>
0.0000

> <Gold.Chemscore.DEClash.Weighted>
0.1114

> <Gold.Chemscore.DEInternal.Weighted>
2.4950

> <Gold.Chemscore.Rot.Weighted>
5.9004

> <Gold.Chemscore.Internal.Correction.Weighted>
   9.000000E+99

> <Gold.Protein.RotatedTorsions>
[ 6907 6896 6895 6894 ] final -166.77 input  -60.11 | X-H torsion
[ 7974 7965 7964 7962 ] final -162.85 input  175.53 | X-H torsion
[ 8008 7997 7996 7995 ] final -170.61 input   59.86 | X-H torsion
[ 10167 10162 10161 10158 ] final  125.91 input  -65.29 | X-H torsion
[ 10718 10713 10712 10709 ] final   16.33 input   66.30 | X-H torsion
[ 10763 10752 10751 10750 ] final -154.15 input  -60.55 | X-H torsion
[ 11005 11000 10999 10996 ] final   41.43 input  -57.11 | X-H torsion

> <Gold.Protein.ActiveResidues>
 VAL166  LYS551  ARG553  GLY616  TRP617  ASP618  TYR619  PRO620  LYS621  CYS622 
 ASP623  PHE694  ASN695  SER759  ASP760  ASP761  ALA762  ILE779  LEU786  VAL792 
 PHE793  MET794  SER795  GLU796  ALA797  LYS798  CYS799  TRP800  GLU811  SER814 

> <Gold.Protein.RotatedAtoms>
  151.4489  133.3623  159.2792 H   0  0  0  0  0  0  0  0  0  0  0  0  # atno 6907 bound_to 6896
  150.9105  134.8523  159.7433 H   0  0  0  0  0  0  0  0  0  0  0  0  # atno 6908 bound_to 6896
  152.4929  134.4418  159.9598 H   0  0  0  0  0  0  0  0  0  0  0  0  # atno 6909 bound_to 6896
  144.7344  140.3192  143.6174 H   0  0  0  0  0  0  0  0  0  0  0  0  # atno 7974 bound_to 7965
  155.9206  140.1073  157.1210 H   0  0  0  0  0  0  0  0  0  0  0  0  # atno 8008 bound_to 7997
  154.4053  140.1256  156.4740 H   0  0  0  0  0  0  0  0  0  0  0  0  # atno 8009 bound_to 7997
  155.7200  140.3470  155.5014 H   0  0  0  0  0  0  0  0  0  0  0  0  # atno 8010 bound_to 7997
  139.5659  144.6911  151.3911 H   0  0  0  0  0  0  0  0  0  0  0  0  # atno 10167 bound_to 10162
  157.0663  130.6329  149.5796 H   0  0  0  0  0  0  0  0  0  0  0  0  # atno 10718 bound_to 10713
  154.7879  135.3196  154.7845 H   0  0  0  0  0  0  0  0  0  0  0  0  # atno 10763 bound_to 10752
  153.8541  135.6859  153.4793 H   0  0  0  0  0  0  0  0  0  0  0  0  # atno 10764 bound_to 10752
  153.1537  135.4689  154.9613 H   0  0  0  0  0  0  0  0  0  0  0  0  # atno 10765 bound_to 10752
  140.1835  134.4074  155.8186 H   0  0  0  0  0  0  0  0  0  0  0  0  # atno 11005 bound_to 11000
  145.7586  139.1817  143.2280 LP  0  0  0  0  0  0  0  0  0  0  0  0  # atno 17320 bound_to 7965
  146.1004  140.7550  142.9552 LP  0  0  0  0  0  0  0  0  0  0  0  0  # atno 17321 bound_to 7965
  140.6943  143.7787  150.7302 LP  0  0  0  0  0  0  0  0  0  0  0  0  # atno 17342 bound_to 10162
  140.1279  143.4553  152.2273 LP  0  0  0  0  0  0  0  0  0  0  0  0  # atno 17343 bound_to 10162
  155.9963  130.5032  150.7493 LP  0  0  0  0  0  0  0  0  0  0  0  0  # atno 17370 bound_to 10713
  157.4914  131.0911  151.0422 LP  0  0  0  0  0  0  0  0  0  0  0  0  # atno 17371 bound_to 10713
  141.2224  133.7012  156.7972 LP  0  0  0  0  0  0  0  0  0  0  0  0  # atno 17394 bound_to 11000
  140.2240  134.8736  157.3407 LP  0  0  0  0  0  0  0  0  0  0  0  0  # atno 17395 bound_to 11000

$$$$
