AV-unprocessed.smi:63|AV-procd|sdf|607|dock9
  -GOLD-   2262016503D 1   1.00000     0.00000
 Structure written by MMmdl.
 29 30  0  0  0  0  0  0  0  0  1 V2000
  153.2296  141.6727  159.9206 C   0  0  0  0  0  0  0  0  0  0  0  0
  152.4701  141.3878  158.6419 C   0  0  0  0  0  0  0  0  0  0  0  0
  151.4997  142.2880  158.1651 C   0  0  0  0  0  0  0  0  0  0  0  0
  150.8360  141.9483  156.9740 C   0  0  0  0  0  0  0  0  0  0  0  0
  151.1859  140.7332  156.3417 C   0  0  0  0  0  0  0  0  0  0  0  0
  150.5429  140.3446  155.1470 N   0  0  0  0  0  0  0  0  0  0  0  0
  149.4109  141.1575  154.7134 C   0  0  0  0  0  0  0  0  0  0  0  0
  148.4008  140.1901  154.0911 C   0  0  0  0  0  0  0  0  0  0  0  0
  149.2455  138.9763  153.7202 C   0  0  0  0  0  0  0  0  0  0  0  0
  150.2954  138.9373  154.8355 C   0  0  1  0  0  0  0  0  0  0  0  0
  151.5738  138.1731  154.4358 C   0  0  0  0  0  0  0  0  0  0  0  0
  151.2698  136.8184  154.1806 O   0  0  0  0  0  0  0  0  0  0  0  0
  152.1364  139.9179  156.8664 N   0  0  0  0  0  0  0  0  0  0  0  0
  152.7708  140.2368  157.9994 N   0  0  0  0  0  0  0  0  0  0  0  0
  153.6258  142.6884  159.9083 H   0  0  0  0  0  0  0  0  0  0  0  0
  154.0655  140.9839  160.0503 H   0  0  0  0  0  0  0  0  0  0  0  0
  152.5675  141.5723  160.7808 H   0  0  0  0  0  0  0  0  0  0  0  0
  151.2724  143.2035  158.6911 H   0  0  0  0  0  0  0  0  0  0  0  0
  150.0863  142.6073  156.5614 H   0  0  0  0  0  0  0  0  0  0  0  0
  148.9577  141.7165  155.5332 H   0  0  0  0  0  0  0  0  0  0  0  0
  149.7623  141.8732  153.9694 H   0  0  0  0  0  0  0  0  0  0  0  0
  147.6590  139.9038  154.8380 H   0  0  0  0  0  0  0  0  0  0  0  0
  147.8723  140.6189  153.2393 H   0  0  0  0  0  0  0  0  0  0  0  0
  148.6620  138.0576  153.6551 H   0  0  0  0  0  0  0  0  0  0  0  0
  149.7210  139.1439  152.7525 H   0  0  0  0  0  0  0  0  0  0  0  0
  149.8495  138.4685  155.7144 H   0  0  0  0  0  0  0  0  0  0  0  0
  152.0289  138.6137  153.5482 H   0  0  0  0  0  0  0  0  0  0  0  0
  152.3224  138.2050  155.2267 H   0  0  0  0  0  0  0  0  0  0  0  0
  151.0336  136.7309  153.2698 H   0  0  0  0  0  0  0  0  0  0  0  0
  1  2  1  0  0  0  0
  1 15  1  0  0  0  0
  1 16  1  0  0  0  0
  1 17  1  0  0  0  0
  2 14  1  0  0  0  0
  2  3  2  0  0  0  0
  3  4  1  0  0  0  0
  3 18  1  0  0  0  0
  4  5  2  0  0  0  0
  4 19  1  0  0  0  0
  5  6  1  0  0  0  0
  5 13  1  0  0  0  0
  6 10  1  0  0  0  0
  6  7  1  0  0  0  0
  7  8  1  0  0  0  0
  7 20  1  0  0  0  0
  7 21  1  0  0  0  0
  8  9  1  0  0  0  0
  8 22  1  0  0  0  0
  8 23  1  0  0  0  0
  9 10  1  0  0  0  0
  9 24  1  0  0  0  0
  9 25  1  0  0  0  0
 10 11  1  0  0  0  0
 10 26  1  0  0  0  0
 11 12  1  0  0  0  0
 11 27  1  0  0  0  0
 11 28  1  0  0  0  0
 12 29  1  0  0  0  0
 13 14  2  0  0  0  0
M  END
> <s_m_source_file>
AV-unprocessed.smi

> <i_m_source_file_index>
63

> <i_lp_mmshare_version>
43012

> <i_f3d_flags>
0

> <s_epik_input>
W0NIM11jMVtjSF1bY0hdYyhubjEpTjJbQ0gyXVtDSDJdW0NIMl1bQ0BIXTJbQ0gyXVtPSF0=

> <s_epik_cmdline>
J2VwaWtfcHl0aG9uJywgJy1waCcsICc3LjAnLCAnLXRuJywgJzgnLCAnLW1hJywgJzIwMCcsICctbWV0YWxfYmluZGluZycsICctaW1hZScsICc8aW5maWxlLm1hZT4nLCAnLW9tYWUnLCAnPG91dGZpbGUubWFlPic=

> <r_lp_tautomer_probability>
1

> <r_epik_Ionization_Penalty>
4.30639e-05

> <r_epik_Ionization_Penalty_Charging>
0

> <r_epik_Ionization_Penalty_Neutral>
4.30639e-05

> <r_epik_State_Penalty>
-0

> <r_epik_Charging_Adjusted_Penalty>
0

> <i_epik_Tot_Q>
0

> <i_epik_Tot_abs_Q>
0

> <r_epik_Metal_State_Penalty>
-0

> <b_epik_Metal_Only>
0

> <s_lp_Force_Field>
OPLS_2005

> <r_lp_Energy>
32.9321

> <b_lp_Chiralities_Consistent>
1

> <s_lp_Variant>
AV-unprocessed.smi:63-1

> <Gold.Version>
5.8.1

> <Gold.Id.Protein>
6NUR|6NUR_protein|mol2

> <Gold.PLP.Fitness>
38.3352

> <Gold.PLP.PLP>
-29.0587

> <Gold.PLP.part.hbond>
-4.8732

> <Gold.PLP.part.metal>
0.0000

> <Gold.PLP.part.buried>
0.0486

> <Gold.PLP.part.nonpolar>
-24.1126

> <Gold.PLP.part.repulsive>
0.0614

> <Gold.PLP.ligand.clash>
0.0000

> <Gold.PLP.ligand.torsion>
0.4257

> <Gold.PLP.Chemscore.Hbond>
3.2579

> <Gold.PLP.Chemscore.CHOScore>
0.0000

> <Gold.PLP.Chemscore.Metal>
0.0000

> <Gold.Chemscore.Hbonds>
donor molecule, donor type, donor heavy atom, donor atom, acceptor molecule, acceptor atom, score
      L1  H    12    29       P1  7949  1.00
      P1  H  7989  7998       L1     6  0.54
      P1  H  7997  8009       L1    14  0.40
      P1  H 10752 10765       L1    12  0.94

> <Gold.PLP.Chemscore.Internal.Correction>
0.3545

> <Gold.Rescore>
     Score         DG    S(hbond)    S(metal)    S(lipo)     H(rot)  DE(clash)    DE(int)     intcor
     12.67     -15.13       1.68        0.00      72.01       1.71       1.15       1.31       ----

> <Gold.Chemscore.Fitness>
12.6740

> <Gold.Chemscore.DG>
-15.1268

> <Gold.Chemscore.ZeroCoef>
-5.4800

> <Gold.Chemscore.Hbond>
1.6795

> <Gold.Chemscore.Metal>
0.0000

> <Gold.Chemscore.Lipo>
72.0053

> <Gold.Chemscore.Internal_Hbond>
0.0000

> <Gold.Chemscore.DEClash>
1.1453

> <Gold.Chemscore.DEInternal>
1.3074

> <Gold.Chemscore.Rot>
1.7138

> <Gold.Chemscore.Internal.Correction>
   9.000000E+99

> <Gold.Chemscore.Hbonds>
donor molecule, donor type, donor heavy atom, donor atom, acceptor molecule, acceptor atom, score
      L1  H    12    29       P1  7949  0.29
      P1  H  7989  7998       L1     6  0.01
      P1  H  7997  8009       L1    14  0.03
      P1  H 10752 10765       L1    12  0.16

> <Gold.Chemscore.Hbond.Weighted>
-5.6094

> <Gold.Chemscore.Metal.Weighted>
-0.0000

> <Gold.Chemscore.Lipo.Weighted>
-8.4246

> <Gold.Chemscore.Internal_Hbond.Weighted>
0.0000

> <Gold.Chemscore.DEClash.Weighted>
1.1453

> <Gold.Chemscore.DEInternal.Weighted>
1.3074

> <Gold.Chemscore.Rot.Weighted>
4.3872

> <Gold.Chemscore.Internal.Correction.Weighted>
   9.000000E+99

> <Gold.Protein.RotatedTorsions>
[ 6907 6896 6895 6894 ] final  -11.75 input  -60.11 | X-H torsion
[ 7974 7965 7964 7962 ] final -117.27 input  175.53 | X-H torsion
[ 8008 7997 7996 7995 ] final  145.16 input   59.86 | X-H torsion
[ 10167 10162 10161 10158 ] final   80.76 input  -65.29 | X-H torsion
[ 10718 10713 10712 10709 ] final   30.73 input   66.30 | X-H torsion
[ 10763 10752 10751 10750 ] final  155.95 input  -60.55 | X-H torsion
[ 11005 11000 10999 10996 ] final -159.39 input  -57.11 | X-H torsion

> <Gold.Protein.ActiveResidues>
 VAL166  LYS551  ARG553  GLY616  TRP617  ASP618  TYR619  PRO620  LYS621  CYS622 
 ASP623  PHE694  ASN695  SER759  ASP760  ASP761  ALA762  ILE779  LEU786  VAL792 
 PHE793  MET794  SER795  GLU796  ALA797  LYS798  CYS799  TRP800  GLU811  SER814 

> <Gold.Protein.RotatedAtoms>
  151.3812  135.0940  159.9496 H   0  0  0  0  0  0  0  0  0  0  0  0  # atno 6907 bound_to 6896
  152.5107  133.9070  159.7479 H   0  0  0  0  0  0  0  0  0  0  0  0  # atno 6908 bound_to 6896
  150.9504  133.6501  159.2802 H   0  0  0  0  0  0  0  0  0  0  0  0  # atno 6909 bound_to 6896
  145.0871  140.8465  143.4004 H   0  0  0  0  0  0  0  0  0  0  0  0  # atno 7974 bound_to 7965
  156.2890  140.2216  156.5170 H   0  0  0  0  0  0  0  0  0  0  0  0  # atno 8008 bound_to 7997
  154.7560  140.0477  157.0955 H   0  0  0  0  0  0  0  0  0  0  0  0  # atno 8009 bound_to 7997
  155.0050  140.3106  155.4855 H   0  0  0  0  0  0  0  0  0  0  0  0  # atno 8010 bound_to 7997
  139.9464  144.6055  150.8203 H   0  0  0  0  0  0  0  0  0  0  0  0  # atno 10167 bound_to 10162
  157.2634  130.7172  149.6466 H   0  0  0  0  0  0  0  0  0  0  0  0  # atno 10718 bound_to 10713
  154.1766  135.2801  155.3065 H   0  0  0  0  0  0  0  0  0  0  0  0  # atno 10763 bound_to 10752
  154.6034  135.5522  153.7401 H   0  0  0  0  0  0  0  0  0  0  0  0  # atno 10764 bound_to 10752
  153.0149  135.6397  154.1906 H   0  0  0  0  0  0  0  0  0  0  0  0  # atno 10765 bound_to 10752
  140.6431  134.4530  157.5234 H   0  0  0  0  0  0  0  0  0  0  0  0  # atno 11005 bound_to 11000
  145.1109  139.2758  143.5638 LP  0  0  0  0  0  0  0  0  0  0  0  0  # atno 17320 bound_to 7965
  146.3531  140.0704  142.8623 LP  0  0  0  0  0  0  0  0  0  0  0  0  # atno 17321 bound_to 7965
  140.7596  143.3132  151.2795 LP  0  0  0  0  0  0  0  0  0  0  0  0  # atno 17342 bound_to 10162
  139.6663  144.0099  152.2725 LP  0  0  0  0  0  0  0  0  0  0  0  0  # atno 17343 bound_to 10162
  155.9664  130.4390  150.5242 LP  0  0  0  0  0  0  0  0  0  0  0  0  # atno 17370 bound_to 10713
  157.3151  131.0671  151.1973 LP  0  0  0  0  0  0  0  0  0  0  0  0  # atno 17371 bound_to 10713
  139.9073  134.8421  156.1658 LP  0  0  0  0  0  0  0  0  0  0  0  0  # atno 17394 bound_to 11000
  141.0592  133.6850  156.1920 LP  0  0  0  0  0  0  0  0  0  0  0  0  # atno 17395 bound_to 11000

$$$$
