AV-unprocessed.smi:594|AV-procd|sdf|3015|dock3
  -GOLD-   2262023523D 1   1.00000     0.00000
 Structure written by MMmdl.
 40 41  0  0  0  0  0  0  0  0  3 V2000
  151.9241  145.1717  159.1960 C   0  0  0  0  0  0  0  0  0  0  0  0
  152.7659  144.1917  160.0311 C   0  0  1  0  0  0  0  0  0  0  0  0
  152.1438  143.9547  161.4234 C   0  0  0  0  0  0  0  0  0  0  0  0
  153.0078  143.0140  162.2785 C   0  0  0  0  0  0  0  0  0  0  0  0
  153.2626  141.6810  161.5597 C   0  0  0  0  0  0  0  0  0  0  0  0
  153.8887  141.9090  160.1734 C   0  0  0  0  0  0  0  0  0  0  0  0
  153.0349  142.8534  159.2983 C   0  0  1  0  0  0  0  0  0  0  0  0
  151.7829  142.2080  158.9020 N   0  0  0  0  0  0  0  0  0  0  0  0
  151.0300  142.5444  157.8443 C   0  0  0  0  0  0  0  0  0  0  0  0
  151.3016  143.4789  157.0894 O   0  0  0  0  0  0  0  0  0  0  0  0
  149.7696  141.6980  157.6204 C   0  0  0  0  0  0  0  0  0  0  0  0
  149.8316  140.8884  156.3920 N   0  0  0  0  0  0  0  0  0  0  0  0
  150.9587  140.0598  156.2242 C   0  0  0  0  0  0  0  0  0  0  0  0
  151.1164  139.2764  155.1393 C   0  0  0  0  0  0  0  0  0  0  0  0
  152.2796  138.4307  154.9841 N   0  3  0  0  0  0  0  0  0  0  0  0
  153.2934  138.7020  155.6194 O   0  0  0  0  0  0  0  0  0  0  0  0
  152.2191  137.4679  154.2250 O   0  5  0  0  0  0  0  0  0  0  0  0
  150.0769  139.3074  154.1286 C   0  0  0  0  0  0  0  0  0  0  0  0
  148.9951  140.0956  154.2842 C   0  0  0  0  0  0  0  0  0  0  0  0
  148.8248  140.9459  155.4668 C   0  0  0  0  0  0  0  0  0  0  0  0
  147.8376  141.6664  155.6164 O   0  0  0  0  0  0  0  0  0  0  0  0
  150.9111  144.8015  159.0369 H   0  0  0  0  0  0  0  0  0  0  0  0
  152.3751  145.3411  158.2179 H   0  0  0  0  0  0  0  0  0  0  0  0
  151.8452  146.1390  159.6929 H   0  0  0  0  0  0  0  0  0  0  0  0
  153.7343  144.6687  160.1892 H   0  0  0  0  0  0  0  0  0  0  0  0
  152.0216  144.9060  161.9427 H   0  0  0  0  0  0  0  0  0  0  0  0
  151.1430  143.5336  161.3181 H   0  0  0  0  0  0  0  0  0  0  0  0
  153.9605  143.4958  162.5021 H   0  0  0  0  0  0  0  0  0  0  0  0
  152.5216  142.8317  163.2373 H   0  0  0  0  0  0  0  0  0  0  0  0
  153.9180  141.0533  162.1637 H   0  0  0  0  0  0  0  0  0  0  0  0
  152.3243  141.1345  161.4559 H   0  0  0  0  0  0  0  0  0  0  0  0
  154.8824  142.3406  160.2993 H   0  0  0  0  0  0  0  0  0  0  0  0
  154.0396  140.9525  159.6717 H   0  0  0  0  0  0  0  0  0  0  0  0
  153.5986  143.0793  158.3911 H   0  0  0  0  0  0  0  0  0  0  0  0
  151.4769  141.4315  159.4702 H   0  0  0  0  0  0  0  0  0  0  0  0
  149.6038  141.0504  158.4838 H   0  0  0  0  0  0  0  0  0  0  0  0
  148.9105  142.3697  157.5996 H   0  0  0  0  0  0  0  0  0  0  0  0
  151.6721  140.1030  157.0346 H   0  0  0  0  0  0  0  0  0  0  0  0
  150.1580  138.6981  153.2403 H   0  0  0  0  0  0  0  0  0  0  0  0
  148.2326  140.1025  153.5192 H   0  0  0  0  0  0  0  0  0  0  0  0
  1  2  1  0  0  0  0
  1 22  1  0  0  0  0
  1 23  1  0  0  0  0
  1 24  1  0  0  0  0
  2  7  1  0  0  0  0
  2  3  1  0  0  0  0
  2 25  1  0  0  0  0
  3  4  1  0  0  0  0
  3 26  1  0  0  0  0
  3 27  1  0  0  0  0
  4  5  1  0  0  0  0
  4 28  1  0  0  0  0
  4 29  1  0  0  0  0
  5  6  1  0  0  0  0
  5 30  1  0  0  0  0
  5 31  1  0  0  0  0
  6  7  1  0  0  0  0
  6 32  1  0  0  0  0
  6 33  1  0  0  0  0
  7  8  1  0  0  0  0
  7 34  1  0  0  0  0
  8  9  1  0  0  0  0
  8 35  1  0  0  0  0
  9 10  2  0  0  0  0
  9 11  1  0  0  0  0
 11 12  1  0  0  0  0
 11 36  1  0  0  0  0
 11 37  1  0  0  0  0
 12 20  1  0  0  0  0
 12 13  1  0  0  0  0
 13 14  2  0  0  0  0
 13 38  1  0  0  0  0
 14 15  1  0  0  0  0
 14 18  1  0  0  0  0
 15 16  2  0  0  0  0
 15 17  1  0  0  0  0
 18 19  2  0  0  0  0
 18 39  1  0  0  0  0
 19 20  1  0  0  0  0
 19 40  1  0  0  0  0
 20 21  2  0  0  0  0
M  CHG  1  15   1
M  CHG  1  17  -1
M  END
> <s_m_source_file>
AV-unprocessed.smi

> <i_m_source_file_index>
594

> <i_lp_mmshare_version>
43012

> <i_f3d_flags>
0

> <s_epik_input>
W0NIM11bQ0BASF0xW0NIMl1bQ0gyXVtDSDJdW0NIMl1bQ0BIXTFbTkhdQyg9TylbQ0gyXW4yW2NIXWMoW04rXSg9TylbTy1dKVtjSF1bY0hdYzI9Tw==

> <s_epik_cmdline>
J2VwaWtfcHl0aG9uJywgJy1waCcsICc3LjAnLCAnLXRuJywgJzgnLCAnLW1hJywgJzIwMCcsICctbWV0YWxfYmluZGluZycsICctaW1hZScsICc8aW5maWxlLm1hZT4nLCAnLW9tYWUnLCAnPG91dGZpbGUubWFlPic=

> <r_lp_tautomer_probability>
1

> <r_epik_Ionization_Penalty>
1.91305e-08

> <r_epik_Ionization_Penalty_Charging>
8.35811e-11

> <r_epik_Ionization_Penalty_Neutral>
1.90469e-08

> <r_epik_State_Penalty>
-0

> <r_epik_Charging_Adjusted_Penalty>
8.35811e-11

> <i_epik_Tot_Q>
0

> <i_epik_Tot_abs_Q>
2

> <r_epik_Metal_State_Penalty>
-0

> <b_epik_Metal_Only>
0

> <s_lp_Force_Field>
OPLS_2005

> <r_lp_Energy>
20.421

> <b_lp_Chiralities_Consistent>
1

> <s_lp_Variant>
AV-unprocessed.smi:594-2

> <Gold.Version>
5.8.1

> <Gold.Id.Protein>
6NUR|6NUR_protein|mol2

> <Gold.PLP.Fitness>
52.6904

> <Gold.PLP.PLP>
-48.5639

> <Gold.PLP.part.hbond>
-2.0000

> <Gold.PLP.part.metal>
0.0000

> <Gold.PLP.part.buried>
-5.3886

> <Gold.PLP.part.nonpolar>
-41.2162

> <Gold.PLP.part.repulsive>
0.9825

> <Gold.PLP.ligand.clash>
0.0000

> <Gold.PLP.ligand.torsion>
0.5835

> <Gold.PLP.Chemscore.Hbond>
1.7600

> <Gold.PLP.Chemscore.CHOScore>
0.0000

> <Gold.PLP.Chemscore.Metal>
0.0000

> <Gold.Chemscore.Hbonds>
donor molecule, donor type, donor heavy atom, donor atom, acceptor molecule, acceptor atom, score
      P1  H  7997  8008       L1    16  0.94
      P1  H 10752 10765       L1    17  0.82

> <Gold.PLP.Chemscore.Internal.Correction>
0.0135

> <Gold.Rescore>
     Score         DG    S(hbond)    S(metal)    S(lipo)     H(rot)  DE(clash)    DE(int)     intcor
     18.42     -20.75       1.73        0.00     115.01       1.55       0.42       1.91       ----

> <Gold.Chemscore.Fitness>
18.4219

> <Gold.Chemscore.DG>
-20.7497

> <Gold.Chemscore.ZeroCoef>
-5.4800

> <Gold.Chemscore.Hbond>
1.7315

> <Gold.Chemscore.Metal>
0.0000

> <Gold.Chemscore.Lipo>
115.0067

> <Gold.Chemscore.Internal_Hbond>
0.0000

> <Gold.Chemscore.DEClash>
0.4220

> <Gold.Chemscore.DEInternal>
1.9058

> <Gold.Chemscore.Rot>
1.5505

> <Gold.Chemscore.Internal.Correction>
   9.000000E+99

> <Gold.Chemscore.Hbonds>
donor molecule, donor type, donor heavy atom, donor atom, acceptor molecule, acceptor atom, score
      P1  H  7997  8008       L1    16  0.91
      P1  H 10752 10765       L1    17  0.81

> <Gold.Chemscore.Hbond.Weighted>
-5.7831

> <Gold.Chemscore.Metal.Weighted>
-0.0000

> <Gold.Chemscore.Lipo.Weighted>
-13.4558

> <Gold.Chemscore.Internal_Hbond.Weighted>
0.0000

> <Gold.Chemscore.DEClash.Weighted>
0.4220

> <Gold.Chemscore.DEInternal.Weighted>
1.9058

> <Gold.Chemscore.Rot.Weighted>
3.9692

> <Gold.Chemscore.Internal.Correction.Weighted>
   9.000000E+99

> <Gold.Protein.RotatedTorsions>
[ 6907 6896 6895 6894 ] final   12.74 input  -60.11 | X-H torsion
[ 7974 7965 7964 7962 ] final -134.18 input  175.53 | X-H torsion
[ 8008 7997 7996 7995 ] final  -39.88 input   59.86 | X-H torsion
[ 10167 10162 10161 10158 ] final  -47.34 input  -65.29 | X-H torsion
[ 10718 10713 10712 10709 ] final  112.26 input   66.30 | X-H torsion
[ 10763 10752 10751 10750 ] final  157.13 input  -60.55 | X-H torsion
[ 11005 11000 10999 10996 ] final   -9.71 input  -57.11 | X-H torsion

> <Gold.Protein.ActiveResidues>
 VAL166  LYS551  ARG553  GLY616  TRP617  ASP618  TYR619  PRO620  LYS621  CYS622 
 ASP623  PHE694  ASN695  SER759  ASP760  ASP761  ALA762  ILE779  LEU786  VAL792 
 PHE793  MET794  SER795  GLU796  ALA797  LYS798  CYS799  TRP800  GLU811  SER814 

> <Gold.Protein.RotatedAtoms>
  151.7752  135.0776  160.0365 H   0  0  0  0  0  0  0  0  0  0  0  0  # atno 6907 bound_to 6896
  152.3261  133.5902  159.5786 H   0  0  0  0  0  0  0  0  0  0  0  0  # atno 6908 bound_to 6896
  150.7396  133.9854  159.3631 H   0  0  0  0  0  0  0  0  0  0  0  0  # atno 6909 bound_to 6896
  144.9125  140.6914  143.5016 H   0  0  0  0  0  0  0  0  0  0  0  0  # atno 7974 bound_to 7965
  154.4018  140.1540  156.2935 H   0  0  0  0  0  0  0  0  0  0  0  0  # atno 8008 bound_to 7997
  155.8764  140.3446  155.5835 H   0  0  0  0  0  0  0  0  0  0  0  0  # atno 8009 bound_to 7997
  155.7716  140.0831  157.2095 H   0  0  0  0  0  0  0  0  0  0  0  0  # atno 8010 bound_to 7997
  140.6779  143.2789  151.3912 H   0  0  0  0  0  0  0  0  0  0  0  0  # atno 10167 bound_to 10162
  157.6402  131.0965  150.6869 H   0  0  0  0  0  0  0  0  0  0  0  0  # atno 10718 bound_to 10713
  154.1954  135.2793  155.3008 H   0  0  0  0  0  0  0  0  0  0  0  0  # atno 10763 bound_to 10752
  154.5896  135.5564  153.7269 H   0  0  0  0  0  0  0  0  0  0  0  0  # atno 10764 bound_to 10752
  153.0101  135.6365  154.2092 H   0  0  0  0  0  0  0  0  0  0  0  0  # atno 10765 bound_to 10752
  140.7370  133.8702  155.8937 H   0  0  0  0  0  0  0  0  0  0  0  0  # atno 11005 bound_to 11000
  145.3430  139.1727  143.4476 LP  0  0  0  0  0  0  0  0  0  0  0  0  # atno 17320 bound_to 7965
  146.3166  140.3473  142.8653 LP  0  0  0  0  0  0  0  0  0  0  0  0  # atno 17321 bound_to 7965
  139.6083  144.1152  152.2272 LP  0  0  0  0  0  0  0  0  0  0  0  0  # atno 17342 bound_to 10162
  140.0557  144.5897  150.7301 LP  0  0  0  0  0  0  0  0  0  0  0  0  # atno 17343 bound_to 10162
  156.7194  130.4676  149.5526 LP  0  0  0  0  0  0  0  0  0  0  0  0  # atno 17370 bound_to 10713
  156.1675  130.6415  151.0797 LP  0  0  0  0  0  0  0  0  0  0  0  0  # atno 17371 bound_to 10713
  140.9870  134.1329  157.4442 LP  0  0  0  0  0  0  0  0  0  0  0  0  # atno 17394 bound_to 11000
  139.8814  135.0029  156.6152 LP  0  0  0  0  0  0  0  0  0  0  0  0  # atno 17395 bound_to 11000

$$$$
