AV-unprocessed.smi:2046|AV-procd|sdf|8313|dock8
  -GOLD-   2272010583D 1   1.00000     0.00000
 Structure written by MMmdl.
 29 30  0  0  0  0  0  0  0  0  2 V2000
  152.7295  138.9910  158.8511 O   0  0  0  0  0  0  0  0  0  0  0  0
  152.6724  139.7073  157.8487 C   0  0  0  0  0  0  0  0  0  0  0  0
  152.7308  139.2922  156.5626 N   0  5  0  0  0  0  0  0  0  0  0  0
  151.7462  139.6138  155.7073 C   0  0  0  0  0  0  0  0  0  0  0  0
  150.8190  140.5413  155.9950 N   0  0  0  0  0  0  0  0  0  0  0  0
  149.8969  140.7269  154.9737 N   0  0  0  0  0  0  0  0  0  0  0  0
  150.1595  139.9369  153.9327 C   0  0  0  0  0  0  0  0  0  0  0  0
  151.5566  138.8960  154.1050 S   0  0  0  0  0  0  0  0  0  0  0  0
  152.5403  141.0362  157.9814 N   0  0  0  0  0  0  0  0  0  0  0  0
  152.4637  141.7793  159.2412 C   0  0  2  0  0  0  0  0  0  0  0  0
  152.1881  143.2663  158.9039 C   0  0  0  0  0  0  0  0  0  0  0  0
  152.4598  144.2894  160.0297 C   0  0  0  0  0  0  0  0  0  0  0  0
  151.9436  143.8826  161.4251 C   0  0  0  0  0  0  0  0  0  0  0  0
  152.5305  142.5825  162.0336 C   0  0  0  0  0  0  0  0  0  0  0  0
  153.7166  142.0648  161.3510 N   0  0  0  0  0  0  0  0  0  0  0  0
  153.7626  141.6595  160.0704 C   0  0  0  0  0  0  0  0  0  0  0  0
  154.8047  141.2382  159.5696 O   0  0  0  0  0  0  0  0  0  0  0  0
  149.5284  139.9692  153.0572 H   0  0  0  0  0  0  0  0  0  0  0  0
  152.5045  141.5808  157.1325 H   0  0  0  0  0  0  0  0  0  0  0  0
  151.6281  141.3807  159.8178 H   0  0  0  0  0  0  0  0  0  0  0  0
  152.7765  143.5647  158.0347 H   0  0  0  0  0  0  0  0  0  0  0  0
  151.1458  143.3547  158.5950 H   0  0  0  0  0  0  0  0  0  0  0  0
  153.5301  144.4921  160.0890 H   0  0  0  0  0  0  0  0  0  0  0  0
  152.0090  145.2417  159.7487 H   0  0  0  0  0  0  0  0  0  0  0  0
  152.1583  144.7047  162.1088 H   0  0  0  0  0  0  0  0  0  0  0  0
  150.8562  143.8051  161.4003 H   0  0  0  0  0  0  0  0  0  0  0  0
  152.7892  142.7555  163.0784 H   0  0  0  0  0  0  0  0  0  0  0  0
  151.7689  141.8018  162.0515 H   0  0  0  0  0  0  0  0  0  0  0  0
  154.5649  141.9991  161.8944 H   0  0  0  0  0  0  0  0  0  0  0  0
  1  2  2  0  0  0  0
  2  3  1  0  0  0  0
  2  9  1  0  0  0  0
  3  4  1  0  0  0  0
  4  8  1  0  0  0  0
  4  5  2  0  0  0  0
  5  6  1  0  0  0  0
  6  7  2  0  0  0  0
  7  8  1  0  0  0  0
  7 18  1  0  0  0  0
  9 10  1  0  0  0  0
  9 19  1  0  0  0  0
 10 16  1  0  0  0  0
 10 11  1  0  0  0  0
 10 20  1  0  0  0  0
 11 12  1  0  0  0  0
 11 21  1  0  0  0  0
 11 22  1  0  0  0  0
 12 13  1  0  0  0  0
 12 23  1  0  0  0  0
 12 24  1  0  0  0  0
 13 14  1  0  0  0  0
 13 25  1  0  0  0  0
 13 26  1  0  0  0  0
 14 15  1  0  0  0  0
 14 27  1  0  0  0  0
 14 28  1  0  0  0  0
 15 16  1  0  0  0  0
 15 29  1  0  0  0  0
 16 17  2  0  0  0  0
M  CHG  1   3  -1
M  END
> <s_m_source_file>
AV-unprocessed.smi

> <i_m_source_file_index>
2046

> <i_lp_mmshare_version>
43012

> <i_f3d_flags>
0

> <s_epik_input>
czFbY0hdbm5jMVtOSF1DKD1PKVtOSF1bQ0BASF0yW0NIMl1bQ0gyXVtDSDJdW0NIMl1bTkhdQzI9Tw==

> <s_epik_cmdline>
J2VwaWtfcHl0aG9uJywgJy1waCcsICc3LjAnLCAnLXRuJywgJzgnLCAnLW1hJywgJzIwMCcsICctbWV0YWxfYmluZGluZycsICctaW1hZScsICc8aW5maWxlLm1hZT4nLCAnLW9tYWUnLCAnPG91dGZpbGUubWFlPic=

> <r_lp_tautomer_probability>
1

> <r_epik_Ionization_Penalty>
4.05949

> <r_epik_Ionization_Penalty_Charging>
4.01916

> <r_epik_Ionization_Penalty_Neutral>
0.0403285

> <r_epik_State_Penalty>
4.01849

> <r_epik_Charging_Adjusted_Penalty>
8.03765

> <i_epik_Tot_Q>
-1

> <i_epik_Tot_abs_Q>
1

> <r_epik_Metal_State_Penalty>
0.626741

> <b_epik_Metal_Only>
1

> <s_lp_Force_Field>
OPLS_2005

> <r_lp_Energy>
13.487

> <b_lp_Chiralities_Consistent>
1

> <s_lp_Variant>
AV-unprocessed.smi:2046-3

> <Gold.Version>
5.8.1

> <Gold.Id.Protein>
6NUR|6NUR_protein|mol2

> <Gold.PLP.Fitness>
41.7756

> <Gold.PLP.PLP>
-33.9023

> <Gold.PLP.part.hbond>
-1.5130

> <Gold.PLP.part.metal>
0.0000

> <Gold.PLP.part.buried>
-2.5353

> <Gold.PLP.part.nonpolar>
-29.5649

> <Gold.PLP.part.repulsive>
0.1622

> <Gold.PLP.ligand.clash>
0.0000

> <Gold.PLP.ligand.torsion>
0.5648

> <Gold.PLP.Chemscore.Hbond>
2.0000

> <Gold.PLP.Chemscore.CHOScore>
1.0000

> <Gold.PLP.Chemscore.Metal>
0.0000

> <Gold.Chemscore.Hbonds>
donor molecule, donor type, donor heavy atom, donor atom, acceptor molecule, acceptor atom, score
      P1  H  7997  8010       L1     3  1.00
      L1  C     7    18       P1  7957  0.67

> <Gold.PLP.Chemscore.Internal.Correction>
0.0028

> <Gold.Rescore>
     Score         DG    S(hbond)    S(metal)    S(lipo)     H(rot)  DE(clash)    DE(int)     intcor
     11.29     -11.93       0.06        0.00      75.19       1.00       0.07       0.57       ----

> <Gold.Chemscore.Fitness>
11.2869

> <Gold.Chemscore.DG>
-11.9323

> <Gold.Chemscore.ZeroCoef>
-5.4800

> <Gold.Chemscore.Hbond>
0.0644

> <Gold.Chemscore.Metal>
0.0000

> <Gold.Chemscore.Lipo>
75.1900

> <Gold.Chemscore.Internal_Hbond>
0.0000

> <Gold.Chemscore.DEClash>
0.0720

> <Gold.Chemscore.DEInternal>
0.5734

> <Gold.Chemscore.Rot>
1.0000

> <Gold.Chemscore.Internal.Correction>
   9.000000E+99

> <Gold.Chemscore.Hbonds>
donor molecule, donor type, donor heavy atom, donor atom, acceptor molecule, acceptor atom, score
      P1  H  7997  8010       L1     3  0.02

> <Gold.Chemscore.Hbond.Weighted>
-0.2151

> <Gold.Chemscore.Metal.Weighted>
-0.0000

> <Gold.Chemscore.Lipo.Weighted>
-8.7972

> <Gold.Chemscore.Internal_Hbond.Weighted>
0.0000

> <Gold.Chemscore.DEClash.Weighted>
0.0720

> <Gold.Chemscore.DEInternal.Weighted>
0.5734

> <Gold.Chemscore.Rot.Weighted>
2.5600

> <Gold.Chemscore.Internal.Correction.Weighted>
   9.000000E+99

> <Gold.Protein.RotatedTorsions>
[ 6907 6896 6895 6894 ] final  -48.35 input  -60.11 | X-H torsion
[ 7974 7965 7964 7962 ] final    2.95 input  175.53 | X-H torsion
[ 8008 7997 7996 7995 ] final   76.40 input   59.86 | X-H torsion
[ 10167 10162 10161 10158 ] final   42.73 input  -65.29 | X-H torsion
[ 10718 10713 10712 10709 ] final  179.25 input   66.30 | X-H torsion
[ 10763 10752 10751 10750 ] final   14.26 input  -60.55 | X-H torsion
[ 11005 11000 10999 10996 ] final -158.23 input  -57.11 | X-H torsion

> <Gold.Protein.ActiveResidues>
 VAL166  LYS551  ARG553  GLY616  TRP617  ASP618  TYR619  PRO620  LYS621  CYS622 
 ASP623  PHE694  ASN695  SER759  ASP760  ASP761  ALA762  ILE779  LEU786  VAL792 
 PHE793  MET794  SER795  GLU796  ALA797  LYS798  CYS799  TRP800  GLU811  SER814 

> <Gold.Protein.RotatedAtoms>
  150.8914  134.8318  159.7295 H   0  0  0  0  0  0  0  0  0  0  0  0  # atno 6907 bound_to 6896
  152.4839  134.4642  159.9625 H   0  0  0  0  0  0  0  0  0  0  0  0  # atno 6908 bound_to 6896
  151.4704  133.3531  159.2858 H   0  0  0  0  0  0  0  0  0  0  0  0  # atno 6909 bound_to 6896
  146.2444  140.0758  142.8360 H   0  0  0  0  0  0  0  0  0  0  0  0  # atno 7974 bound_to 7965
  155.8268  140.3467  155.5548 H   0  0  0  0  0  0  0  0  0  0  0  0  # atno 8008 bound_to 7997
  155.8284  140.0923  157.1827 H   0  0  0  0  0  0  0  0  0  0  0  0  # atno 8009 bound_to 7997
  154.4004  140.1417  156.3571 H   0  0  0  0  0  0  0  0  0  0  0  0  # atno 8010 bound_to 7997
  140.3514  144.2345  150.6145 H   0  0  0  0  0  0  0  0  0  0  0  0  # atno 10167 bound_to 10162
  156.8785  130.9808  151.3065 H   0  0  0  0  0  0  0  0  0  0  0  0  # atno 10718 bound_to 10713
  153.1639  135.6800  153.8703 H   0  0  0  0  0  0  0  0  0  0  0  0  # atno 10763 bound_to 10752
  153.8089  135.3145  155.3400 H   0  0  0  0  0  0  0  0  0  0  0  0  # atno 10764 bound_to 10752
  154.7952  135.4811  154.0233 H   0  0  0  0  0  0  0  0  0  0  0  0  # atno 10765 bound_to 10752
  140.6560  134.4400  157.5235 H   0  0  0  0  0  0  0  0  0  0  0  0  # atno 11005 bound_to 11000
  145.0776  140.9198  143.4845 LP  0  0  0  0  0  0  0  0  0  0  0  0  # atno 17320 bound_to 7965
  145.0905  139.2894  143.5737 LP  0  0  0  0  0  0  0  0  0  0  0  0  # atno 17321 bound_to 7965
  140.5215  143.2264  151.8381 LP  0  0  0  0  0  0  0  0  0  0  0  0  # atno 17342 bound_to 10162
  139.4826  144.4831  151.9281 LP  0  0  0  0  0  0  0  0  0  0  0  0  # atno 17343 bound_to 10162
  157.6154  130.8614  149.9020 LP  0  0  0  0  0  0  0  0  0  0  0  0  # atno 17370 bound_to 10713
  156.0689  130.3688  150.0817 LP  0  0  0  0  0  0  0  0  0  0  0  0  # atno 17371 bound_to 10713
  139.9029  134.8514  156.1821 LP  0  0  0  0  0  0  0  0  0  0  0  0  # atno 17394 bound_to 11000
  141.0501  133.6893  156.1756 LP  0  0  0  0  0  0  0  0  0  0  0  0  # atno 17395 bound_to 11000

$$$$
