AV-unprocessed.smi:1787|AV-procd|sdf|7208|dock3
  -GOLD-   22720 8453D 1   1.00000     0.00000
 Structure written by MMmdl.
 45 47  0  0  0  0  0  0  0  0  2 V2000
  144.6439  136.9080  152.5651 O   0  0  0  0  0  0  0  0  0  0  0  0
  145.8251  136.6020  152.4110 C   0  0  0  0  0  0  0  0  0  0  0  0
  146.8449  137.4178  152.7120 N   0  0  0  0  0  0  0  0  0  0  0  0
  146.7249  138.7688  153.2605 C   0  0  0  0  0  0  0  0  0  0  0  0
  147.8902  139.1574  154.2276 C   0  0  1  0  0  0  0  0  0  0  0  0
  148.9843  138.1215  154.1210 N   0  3  0  0  0  0  0  0  0  0  0  0
  150.3623  138.6728  154.2537 C   0  0  0  0  0  0  0  0  0  0  0  0
  151.4148  137.6005  153.9365 C   0  0  0  0  0  0  0  0  0  0  0  0
  151.2431  136.5047  154.8222 O   0  0  0  0  0  0  0  0  0  0  0  0
  149.9749  135.8905  154.6495 C   0  0  0  0  0  0  0  0  0  0  0  0
  148.8474  136.8935  154.9541 C   0  0  0  0  0  0  0  0  0  0  0  0
  148.3898  140.5852  153.8994 C   0  0  0  0  0  0  0  0  0  0  0  0
  147.3231  141.5966  154.3444 C   0  0  0  0  0  0  0  0  0  0  0  0
  146.4263  140.8862  155.7477 S   0  0  0  0  0  0  0  0  0  0  0  0
  147.3334  139.3227  155.6675 C   0  0  0  0  0  0  0  0  0  0  0  0
  146.2742  135.4339  151.9208 N   0  0  0  0  0  0  0  0  0  0  0  0
  145.5369  134.2928  151.5017 C   0  0  0  0  0  0  0  0  0  0  0  0
  146.0893  133.1771  150.8257 C   0  0  0  0  0  0  0  0  0  0  0  0
  145.2388  132.1174  150.4557 C   0  0  0  0  0  0  0  0  0  0  0  0
  143.8687  132.2125  150.7673 C   0  0  0  0  0  0  0  0  0  0  0  0
  143.3271  133.2737  151.4010 N   0  0  0  0  0  0  0  0  0  0  0  0
  144.1485  134.2846  151.7539 C   0  0  0  0  0  0  0  0  0  0  0  0
  147.7802  137.0866  152.5262 H   0  0  0  0  0  0  0  0  0  0  0  0
  146.7026  139.4484  152.4092 H   0  0  0  0  0  0  0  0  0  0  0  0
  145.7487  138.8952  153.7298 H   0  0  0  0  0  0  0  0  0  0  0  0
  150.5138  139.5158  153.5818 H   0  0  0  0  0  0  0  0  0  0  0  0
  150.5243  139.0389  155.2682 H   0  0  0  0  0  0  0  0  0  0  0  0
  151.3399  137.2705  152.8990 H   0  0  0  0  0  0  0  0  0  0  0  0
  152.4172  138.0076  154.0704 H   0  0  0  0  0  0  0  0  0  0  0  0
  149.8838  135.5031  153.6333 H   0  0  0  0  0  0  0  0  0  0  0  0
  149.9050  135.0343  155.3207 H   0  0  0  0  0  0  0  0  0  0  0  0
  148.8520  137.1548  156.0128 H   0  0  0  0  0  0  0  0  0  0  0  0
  147.9140  136.3753  154.7420 H   0  0  0  0  0  0  0  0  0  0  0  0
  149.3093  140.7903  154.4486 H   0  0  0  0  0  0  0  0  0  0  0  0
  148.6215  140.7161  152.8419 H   0  0  0  0  0  0  0  0  0  0  0  0
  147.7647  142.5565  154.6128 H   0  0  0  0  0  0  0  0  0  0  0  0
  146.6096  141.7766  153.5399 H   0  0  0  0  0  0  0  0  0  0  0  0
  146.7228  138.4857  156.0032 H   0  0  0  0  0  0  0  0  0  0  0  0
  148.1244  139.4609  156.4015 H   0  0  0  0  0  0  0  0  0  0  0  0
  147.2735  135.3630  151.7969 H   0  0  0  0  0  0  0  0  0  0  0  0
  147.1355  133.1115  150.5727 H   0  0  0  0  0  0  0  0  0  0  0  0
  145.6279  131.2515  149.9410 H   0  0  0  0  0  0  0  0  0  0  0  0
  143.1896  131.4178  150.4968 H   0  0  0  0  0  0  0  0  0  0  0  0
  143.6790  135.1169  152.2578 H   0  0  0  0  0  0  0  0  0  0  0  0
  148.9170  137.7864  153.1704 H   0  0  0  0  0  0  0  0  0  0  0  0
  1  2  2  0  0  0  0
  2  3  1  0  0  0  0
  2 16  1  0  0  0  0
  3  4  1  0  0  0  0
  3 23  1  0  0  0  0
  4  5  1  0  0  0  0
  4 24  1  0  0  0  0
  4 25  1  0  0  0  0
  5 15  1  0  0  0  0
  5  6  1  0  0  0  0
  5 12  1  0  0  0  0
  6 11  1  0  0  0  0
  6  7  1  0  0  0  0
  6 45  1  0  0  0  0
  7  8  1  0  0  0  0
  7 26  1  0  0  0  0
  7 27  1  0  0  0  0
  8  9  1  0  0  0  0
  8 28  1  0  0  0  0
  8 29  1  0  0  0  0
  9 10  1  0  0  0  0
 10 11  1  0  0  0  0
 10 30  1  0  0  0  0
 10 31  1  0  0  0  0
 11 32  1  0  0  0  0
 11 33  1  0  0  0  0
 12 13  1  0  0  0  0
 12 34  1  0  0  0  0
 12 35  1  0  0  0  0
 13 14  1  0  0  0  0
 13 36  1  0  0  0  0
 13 37  1  0  0  0  0
 14 15  1  0  0  0  0
 15 38  1  0  0  0  0
 15 39  1  0  0  0  0
 16 17  1  0  0  0  0
 16 40  1  0  0  0  0
 17 22  1  0  0  0  0
 17 18  2  0  0  0  0
 18 19  1  0  0  0  0
 18 41  1  0  0  0  0
 19 20  2  0  0  0  0
 19 42  1  0  0  0  0
 20 21  1  0  0  0  0
 20 43  1  0  0  0  0
 21 22  2  0  0  0  0
 22 44  1  0  0  0  0
M  CHG  1   6   1
M  END
> <s_m_source_file>
AV-unprocessed.smi

> <i_m_source_file_index>
1787

> <i_lp_mmshare_version>
43012

> <i_f3d_flags>
0

> <s_epik_input>
W2NIXTFuW2NIXVtjSF1bY0hdYzFbTkhdQyg9TylbTkhdW0NIMl1bQ0BdMihbQ0gyXVtDSDJdU1tDSDJdMilOM1tDSDJdW0NIMl1PW0NIMl1bQ0gyXTM=

> <s_epik_cmdline>
J2VwaWtfcHl0aG9uJywgJy1waCcsICc3LjAnLCAnLXRuJywgJzgnLCAnLW1hJywgJzIwMCcsICctbWV0YWxfYmluZGluZycsICctaW1hZScsICc8aW5maWxlLm1hZT4nLCAnLW9tYWUnLCAnPG91dGZpbGUubWFlPic=

> <r_epik_Ionization_Penalty>
2.03633

> <r_epik_Ionization_Penalty_Charging>
2.03219

> <r_epik_Ionization_Penalty_Neutral>
0.00414252

> <r_epik_State_Penalty>
2.16328

> <r_epik_Charging_Adjusted_Penalty>
4.19546

> <i_epik_Tot_Q>
1

> <i_epik_Tot_abs_Q>
1

> <r_epik_Metal_State_Penalty>
2.16381

> <b_epik_Metal_Only>
0

> <s_lp_Force_Field>
OPLS_2005

> <r_lp_Energy>
45.3922

> <b_lp_Chiralities_Consistent>
1

> <s_lp_Variant>
AV-unprocessed.smi:1787-3

> <Gold.Version>
5.8.1

> <Gold.Id.Protein>
6NUR|6NUR_protein|mol2

> <Gold.PLP.Fitness>
43.8222

> <Gold.PLP.PLP>
-31.8553

> <Gold.PLP.part.hbond>
-4.0000

> <Gold.PLP.part.metal>
0.0000

> <Gold.PLP.part.buried>
-1.9742

> <Gold.PLP.part.nonpolar>
-27.5136

> <Gold.PLP.part.repulsive>
0.7831

> <Gold.PLP.ligand.clash>
0.0000

> <Gold.PLP.ligand.torsion>
2.3539

> <Gold.PLP.Chemscore.Hbond>
4.9760

> <Gold.PLP.Chemscore.CHOScore>
0.5346

> <Gold.PLP.Chemscore.Metal>
0.0000

> <Gold.Chemscore.Hbonds>
donor molecule, donor type, donor heavy atom, donor atom, acceptor molecule, acceptor atom, score
      L1  H     3    23       P1  7948  1.00
      L1  H     6    45       P1  7948  1.98
      L1  H    16    40       P1  7948  0.98
      P1  H 10752 10763       L1     9  1.00
      L1  C    20    43       P1 10952  0.43

> <Gold.PLP.Chemscore.Internal.Correction>
0.1430

> <Gold.Rescore>
     Score         DG    S(hbond)    S(metal)    S(lipo)     H(rot)  DE(clash)    DE(int)     intcor
     18.34     -23.93       3.59        0.00      87.78       1.49       1.45       4.15       ----

> <Gold.Chemscore.Fitness>
18.3355

> <Gold.Chemscore.DG>
-23.9349

> <Gold.Chemscore.ZeroCoef>
-5.4800

> <Gold.Chemscore.Hbond>
3.5894

> <Gold.Chemscore.Metal>
0.0000

> <Gold.Chemscore.Lipo>
87.7822

> <Gold.Chemscore.Internal_Hbond>
0.0000

> <Gold.Chemscore.DEClash>
1.4513

> <Gold.Chemscore.DEInternal>
4.1481

> <Gold.Chemscore.Rot>
1.4860

> <Gold.Chemscore.Internal.Correction>
   9.000000E+99

> <Gold.Chemscore.Hbonds>
donor molecule, donor type, donor heavy atom, donor atom, acceptor molecule, acceptor atom, score
      L1  H     3    23       P1  7948  0.97
      L1  H     6    45       P1  7948  0.90
      L1  H    16    40       P1  7948  0.92
      P1  H 10752 10763       L1     9  0.43

> <Gold.Chemscore.Hbond.Weighted>
-11.9886

> <Gold.Chemscore.Metal.Weighted>
-0.0000

> <Gold.Chemscore.Lipo.Weighted>
-10.2705

> <Gold.Chemscore.Internal_Hbond.Weighted>
0.0000

> <Gold.Chemscore.DEClash.Weighted>
1.4513

> <Gold.Chemscore.DEInternal.Weighted>
4.1481

> <Gold.Chemscore.Rot.Weighted>
3.8042

> <Gold.Chemscore.Internal.Correction.Weighted>
   9.000000E+99

> <Gold.Protein.RotatedTorsions>
[ 6907 6896 6895 6894 ] final -177.74 input  -60.11 | X-H torsion
[ 7974 7965 7964 7962 ] final   50.30 input  175.53 | X-H torsion
[ 8008 7997 7996 7995 ] final   37.61 input   59.86 | X-H torsion
[ 10167 10162 10161 10158 ] final -164.82 input  -65.29 | X-H torsion
[ 10718 10713 10712 10709 ] final  -44.75 input   66.30 | X-H torsion
[ 10763 10752 10751 10750 ] final   71.17 input  -60.55 | X-H torsion
[ 11005 11000 10999 10996 ] final  -11.85 input  -57.11 | X-H torsion

> <Gold.Protein.ActiveResidues>
 VAL166  LYS551  ARG553  GLY616  TRP617  ASP618  TYR619  PRO620  LYS621  CYS622 
 ASP623  PHE694  ASN695  SER759  ASP760  ASP761  ALA762  ILE779  LEU786  VAL792 
 PHE793  MET794  SER795  GLU796  ALA797  LYS798  CYS799  TRP800  GLU811  SER814 

> <Gold.Protein.RotatedAtoms>
  151.6260  133.3335  159.3098 H   0  0  0  0  0  0  0  0  0  0  0  0  # atno 6907 bound_to 6896
  150.8081  134.7223  159.6674 H   0  0  0  0  0  0  0  0  0  0  0  0  # atno 6908 bound_to 6896
  152.4177  134.6016  160.0053 H   0  0  0  0  0  0  0  0  0  0  0  0  # atno 6909 bound_to 6896
  146.0026  139.4455  143.0006 H   0  0  0  0  0  0  0  0  0  0  0  0  # atno 7974 bound_to 7965
  155.2066  140.3320  155.4335 H   0  0  0  0  0  0  0  0  0  0  0  0  # atno 8008 bound_to 7997
  156.2386  140.1884  156.7099 H   0  0  0  0  0  0  0  0  0  0  0  0  # atno 8009 bound_to 7997
  154.6106  140.0609  156.9474 H   0  0  0  0  0  0  0  0  0  0  0  0  # atno 8010 bound_to 7997
  139.6224  144.0597  152.1945 H   0  0  0  0  0  0  0  0  0  0  0  0  # atno 10167 bound_to 10162
  156.2354  130.4175  149.8824 H   0  0  0  0  0  0  0  0  0  0  0  0  # atno 10718 bound_to 10713
  153.0383  135.5146  154.7553 H   0  0  0  0  0  0  0  0  0  0  0  0  # atno 10763 bound_to 10752
  154.6511  135.2925  154.9988 H   0  0  0  0  0  0  0  0  0  0  0  0  # atno 10764 bound_to 10752
  154.0872  135.6655  153.4899 H   0  0  0  0  0  0  0  0  0  0  0  0  # atno 10765 bound_to 10752
  140.7596  133.8525  155.9113 H   0  0  0  0  0  0  0  0  0  0  0  0  # atno 11005 bound_to 11000
  145.7465  140.9989  143.1273 LP  0  0  0  0  0  0  0  0  0  0  0  0  # atno 17320 bound_to 7965
  144.6924  139.9162  143.7466 LP  0  0  0  0  0  0  0  0  0  0  0  0  # atno 17321 bound_to 7965
  140.0243  144.6129  150.7541 LP  0  0  0  0  0  0  0  0  0  0  0  0  # atno 17342 bound_to 10162
  140.7390  143.2786  151.3666 LP  0  0  0  0  0  0  0  0  0  0  0  0  # atno 17343 bound_to 10162
  156.6424  130.8710  151.3516 LP  0  0  0  0  0  0  0  0  0  0  0  0  # atno 17370 bound_to 10713
  157.7152  130.9488  150.1229 LP  0  0  0  0  0  0  0  0  0  0  0  0  # atno 17371 bound_to 10713
  140.9675  134.1575  157.4604 LP  0  0  0  0  0  0  0  0  0  0  0  0  # atno 17394 bound_to 11000
  139.8773  134.9967  156.5807 LP  0  0  0  0  0  0  0  0  0  0  0  0  # atno 17395 bound_to 11000

$$$$
