AV-unprocessed.smi:125|AV-procd|sdf|1150|dock4
  -GOLD-   2262018283D 1   1.00000     0.00000
 Structure written by MMmdl.
 59 62  0  0  0  0  0  0  0  0  1 V2000
  147.6663  132.8255  157.7876 C   0  0  0  0  0  0  0  0  0  0  0  0
  148.5458  134.0028  157.3996 C   0  0  0  0  0  0  0  0  0  0  0  0
  149.7708  133.7412  156.7501 C   0  0  0  0  0  0  0  0  0  0  0  0
  150.6258  134.7926  156.3705 C   0  0  0  0  0  0  0  0  0  0  0  0
  150.2614  136.1343  156.6279 C   0  0  0  0  0  0  0  0  0  0  0  0
  151.0830  137.2468  156.3015 N   0  0  0  0  0  0  0  0  0  0  0  0
  152.4256  137.3315  156.3136 C   0  0  0  0  0  0  0  0  0  0  0  0
  153.1804  136.3957  156.5817 O   0  0  0  0  0  0  0  0  0  0  0  0
  152.9920  138.7074  155.9282 C   0  0  0  0  0  0  0  0  0  0  0  0
  152.0636  139.8287  156.1938 N   0  0  0  0  0  0  0  0  0  0  0  0
  151.0707  140.1309  155.2289 C   0  0  0  0  0  0  0  0  0  0  0  0
  150.9750  139.4812  154.1866 O   0  0  0  0  0  0  0  0  0  0  0  0
  150.1878  141.2436  155.5602 C   0  0  0  0  0  0  0  0  0  0  0  0
  149.2277  141.6121  154.6953 F   0  0  0  0  0  0  0  0  0  0  0  0
  150.3222  141.9146  156.7226 C   0  0  0  0  0  0  0  0  0  0  0  0
  151.2844  141.5965  157.6639 N   0  0  0  0  0  0  0  0  0  0  0  0
  151.4096  142.3698  158.9587 C   0  0  1  0  0  0  0  0  0  0  0  0
  152.6880  143.2150  158.9481 C   0  0  0  0  0  0  0  0  0  0  0  0
  152.1814  144.5336  158.4062 C   0  0  0  0  0  0  0  0  0  0  0  0
  150.7854  144.6000  159.0159 C   0  0  0  0  0  0  0  0  0  0  0  0
  150.3287  143.2503  159.0753 O   0  0  0  0  0  0  0  0  0  0  0  0
  152.1855  140.5392  157.4116 C   0  0  0  0  0  0  0  0  0  0  0  0
  153.0566  140.2456  158.2333 O   0  0  0  0  0  0  0  0  0  0  0  0
  149.0464  136.4008  157.2891 C   0  0  0  0  0  0  0  0  0  0  0  0
  148.1862  135.3488  157.6694 C   0  0  0  0  0  0  0  0  0  0  0  0
  146.6588  135.7842  158.5193 S   0  0  0  0  0  0  0  0  0  0  0  0
  146.5124  137.2483  158.5427 O   0  0  0  0  0  0  0  0  0  0  0  0
  145.5776  134.9496  157.9725 O   0  0  0  0  0  0  0  0  0  0  0  0
  146.9755  135.2741  160.1434 N   0  0  0  0  0  0  0  0  0  0  0  0
  147.9654  136.0005  160.9546 C   0  0  0  0  0  0  0  0  0  0  0  0
  147.7919  135.6801  162.4484 C   0  0  0  0  0  0  0  0  0  0  0  0
  147.7889  134.2754  162.6560 O   0  0  0  0  0  0  0  0  0  0  0  0
  146.6964  133.6539  161.9958 C   0  0  0  0  0  0  0  0  0  0  0  0
  146.8171  133.8509  160.4768 C   0  0  0  0  0  0  0  0  0  0  0  0
  148.1317  131.8795  157.5101 H   0  0  0  0  0  0  0  0  0  0  0  0
  146.7042  132.8739  157.2792 H   0  0  0  0  0  0  0  0  0  0  0  0
  147.4983  132.7983  158.8628 H   0  0  0  0  0  0  0  0  0  0  0  0
  150.0687  132.7236  156.5430 H   0  0  0  0  0  0  0  0  0  0  0  0
  151.5635  134.5442  155.8981 H   0  0  0  0  0  0  0  0  0  0  0  0
  150.5934  138.0616  155.9609 H   0  0  0  0  0  0  0  0  0  0  0  0
  153.9392  138.8498  156.4509 H   0  0  0  0  0  0  0  0  0  0  0  0
  153.2760  138.6818  154.8749 H   0  0  0  0  0  0  0  0  0  0  0  0
  149.6442  142.7337  156.9100 H   0  0  0  0  0  0  0  0  0  0  0  0
  151.3707  141.6293  159.7593 H   0  0  0  0  0  0  0  0  0  0  0  0
  153.0368  143.3316  159.9749 H   0  0  0  0  0  0  0  0  0  0  0  0
  153.4828  142.7642  158.3529 H   0  0  0  0  0  0  0  0  0  0  0  0
  152.8092  145.3808  158.6831 H   0  0  0  0  0  0  0  0  0  0  0  0
  152.1188  144.4954  157.3180 H   0  0  0  0  0  0  0  0  0  0  0  0
  150.8342  144.9949  160.0315 H   0  0  0  0  0  0  0  0  0  0  0  0
  150.1052  145.2275  158.4397 H   0  0  0  0  0  0  0  0  0  0  0  0
  148.7769  137.4247  157.5012 H   0  0  0  0  0  0  0  0  0  0  0  0
  148.9648  135.7192  160.6213 H   0  0  0  0  0  0  0  0  0  0  0  0
  147.8640  137.0743  160.7990 H   0  0  0  0  0  0  0  0  0  0  0  0
  148.6082  136.1203  163.0212 H   0  0  0  0  0  0  0  0  0  0  0  0
  146.8677  136.1162  162.8313 H   0  0  0  0  0  0  0  0  0  0  0  0
  146.6974  132.5905  162.2353 H   0  0  0  0  0  0  0  0  0  0  0  0
  145.7531  134.0599  162.3649 H   0  0  0  0  0  0  0  0  0  0  0  0
  145.9354  133.4504  159.9760 H   0  0  0  0  0  0  0  0  0  0  0  0
  147.6793  133.3035  160.0943 H   0  0  0  0  0  0  0  0  0  0  0  0
  1  2  1  0  0  0  0
  1 35  1  0  0  0  0
  1 36  1  0  0  0  0
  1 37  1  0  0  0  0
  2 25  1  0  0  0  0
  2  3  2  0  0  0  0
  3  4  1  0  0  0  0
  3 38  1  0  0  0  0
  4  5  2  0  0  0  0
  4 39  1  0  0  0  0
  5  6  1  0  0  0  0
  5 24  1  0  0  0  0
  6  7  1  0  0  0  0
  6 40  1  0  0  0  0
  7  8  2  0  0  0  0
  7  9  1  0  0  0  0
  9 10  1  0  0  0  0
  9 41  1  0  0  0  0
  9 42  1  0  0  0  0
 10 22  1  0  0  0  0
 10 11  1  0  0  0  0
 11 12  2  0  0  0  0
 11 13  1  0  0  0  0
 13 14  1  0  0  0  0
 13 15  2  0  0  0  0
 15 16  1  0  0  0  0
 15 43  1  0  0  0  0
 16 17  1  0  0  0  0
 16 22  1  0  0  0  0
 17 21  1  0  0  0  0
 17 18  1  0  0  0  0
 17 44  1  0  0  0  0
 18 19  1  0  0  0  0
 18 45  1  0  0  0  0
 18 46  1  0  0  0  0
 19 20  1  0  0  0  0
 19 47  1  0  0  0  0
 19 48  1  0  0  0  0
 20 21  1  0  0  0  0
 20 49  1  0  0  0  0
 20 50  1  0  0  0  0
 22 23  2  0  0  0  0
 24 25  2  0  0  0  0
 24 51  1  0  0  0  0
 25 26  1  0  0  0  0
 26 27  2  0  0  0  0
 26 28  2  0  0  0  0
 26 29  1  0  0  0  0
 29 34  1  0  0  0  0
 29 30  1  0  0  0  0
 30 31  1  0  0  0  0
 30 52  1  0  0  0  0
 30 53  1  0  0  0  0
 31 32  1  0  0  0  0
 31 54  1  0  0  0  0
 31 55  1  0  0  0  0
 32 33  1  0  0  0  0
 33 34  1  0  0  0  0
 33 56  1  0  0  0  0
 33 57  1  0  0  0  0
 34 58  1  0  0  0  0
 34 59  1  0  0  0  0
M  END
> <s_m_source_file>
AV-unprocessed.smi

> <i_m_source_file_index>
125

> <i_lp_mmshare_version>
43012

> <i_f3d_flags>
0

> <s_epik_input>
W0NIMl0xW0NIMl1PW0NIMl1bQ0gyXU4xUyg9TykoPU8pYzJbY0hdYyhbY0hdW2NIXWMyW0NIM10pW05IXUMoPU8pW0NIMl1uM2MoPU8pYyhGKVtjSF1uKGMzPU8pW0NAQEhdNFtDSDJdW0NIMl1bQ0gyXU80

> <s_epik_cmdline>
J2VwaWtfcHl0aG9uJywgJy1waCcsICc3LjAnLCAnLXRuJywgJzgnLCAnLW1hJywgJzIwMCcsICctbWV0YWxfYmluZGluZycsICctaW1hZScsICc8aW5maWxlLm1hZT4nLCAnLW9tYWUnLCAnPG91dGZpbGUubWFlPic=

> <r_lp_tautomer_probability>
1

> <r_epik_Ionization_Penalty>
4.12263e-06

> <r_epik_Ionization_Penalty_Charging>
3.88729e-08

> <r_epik_Ionization_Penalty_Neutral>
4.08376e-06

> <r_epik_State_Penalty>
-0

> <r_epik_Charging_Adjusted_Penalty>
3.88729e-08

> <i_epik_Tot_Q>
0

> <i_epik_Tot_abs_Q>
0

> <r_epik_Metal_State_Penalty>
-0

> <b_epik_Metal_Only>
0

> <s_epik_Chemistry_Notes>
This compound contains an acetal/aminal-like group ( X-CH(R)-Y where X, Y are N, S, or O) that may be acid/base labile, releasing an aldehyde.

> <s_lp_Force_Field>
OPLS_2005

> <r_lp_Energy>
38.7063

> <b_lp_Chiralities_Consistent>
1

> <s_lp_Variant>
AV-unprocessed.smi:125-2

> <Gold.Version>
5.8.1

> <Gold.Id.Protein>
6NUR|6NUR_protein|mol2

> <Gold.PLP.Fitness>
61.9910

> <Gold.PLP.PLP>
-54.3581

> <Gold.PLP.part.hbond>
-3.0551

> <Gold.PLP.part.metal>
0.0000

> <Gold.PLP.part.buried>
-3.0017

> <Gold.PLP.part.nonpolar>
-46.9956

> <Gold.PLP.part.repulsive>
0.2982

> <Gold.PLP.ligand.clash>
0.0000

> <Gold.PLP.ligand.torsion>
3.1481

> <Gold.PLP.Chemscore.Hbond>
2.2420

> <Gold.PLP.Chemscore.CHOScore>
1.0000

> <Gold.PLP.Chemscore.Metal>
0.0000

> <Gold.Chemscore.Hbonds>
donor molecule, donor type, donor heavy atom, donor atom, acceptor molecule, acceptor atom, score
      P1  H  7989  7998       L1    12  0.20
      P1  H  7997  8008       L1    23  0.91
      P1  H 10752 10764       L1     8  1.00
      L1  C    15    43       P1  8028  1.00

> <Gold.PLP.Chemscore.Internal.Correction>
4.2032

> <Gold.Rescore>
     Score         DG    S(hbond)    S(metal)    S(lipo)     H(rot)  DE(clash)    DE(int)     intcor
     13.92     -19.45       1.66        0.00     108.07       1.65       0.13       5.40       ----

> <Gold.Chemscore.Fitness>
13.9193

> <Gold.Chemscore.DG>
-19.4501

> <Gold.Chemscore.ZeroCoef>
-5.4800

> <Gold.Chemscore.Hbond>
1.6624

> <Gold.Chemscore.Metal>
0.0000

> <Gold.Chemscore.Lipo>
108.0713

> <Gold.Chemscore.Internal_Hbond>
0.0000

> <Gold.Chemscore.DEClash>
0.1324

> <Gold.Chemscore.DEInternal>
5.3984

> <Gold.Chemscore.Rot>
1.6510

> <Gold.Chemscore.Internal.Correction>
   9.000000E+99

> <Gold.Chemscore.Hbonds>
donor molecule, donor type, donor heavy atom, donor atom, acceptor molecule, acceptor atom, score
      P1  H  7997  8008       L1    23  0.26
      P1  H 10752 10764       L1     8  0.91

> <Gold.Chemscore.Hbond.Weighted>
-5.5523

> <Gold.Chemscore.Metal.Weighted>
-0.0000

> <Gold.Chemscore.Lipo.Weighted>
-12.6443

> <Gold.Chemscore.Internal_Hbond.Weighted>
0.0000

> <Gold.Chemscore.DEClash.Weighted>
0.1324

> <Gold.Chemscore.DEInternal.Weighted>
5.3984

> <Gold.Chemscore.Rot.Weighted>
4.2265

> <Gold.Chemscore.Internal.Correction.Weighted>
   9.000000E+99

> <Gold.Protein.RotatedTorsions>
[ 6907 6896 6895 6894 ] final  -57.28 input  -60.11 | X-H torsion
[ 7974 7965 7964 7962 ] final  -71.92 input  175.53 | X-H torsion
[ 8008 7997 7996 7995 ] final  -89.67 input   59.86 | X-H torsion
[ 10167 10162 10161 10158 ] final   27.64 input  -65.29 | X-H torsion
[ 10718 10713 10712 10709 ] final   16.39 input   66.30 | X-H torsion
[ 10763 10752 10751 10750 ] final    1.45 input  -60.55 | X-H torsion
[ 11005 11000 10999 10996 ] final -103.46 input  -57.11 | X-H torsion

> <Gold.Protein.ActiveResidues>
 VAL166  LYS551  ARG553  GLY616  TRP617  ASP618  TYR619  PRO620  LYS621  CYS622 
 ASP623  PHE694  ASN695  SER759  ASP760  ASP761  ALA762  ILE779  LEU786  VAL792 
 PHE793  MET794  SER795  GLU796  ALA797  LYS798  CYS799  TRP800  GLU811  SER814 

> <Gold.Protein.RotatedAtoms>
  150.8099  134.7247  159.6678 H   0  0  0  0  0  0  0  0  0  0  0  0  # atno 6907 bound_to 6896
  152.4219  134.5936  159.9991 H   0  0  0  0  0  0  0  0  0  0  0  0  # atno 6908 bound_to 6896
  151.6149  133.3307  159.3111 H   0  0  0  0  0  0  0  0  0  0  0  0  # atno 6909 bound_to 6896
  145.6719  140.9218  143.0878 H   0  0  0  0  0  0  0  0  0  0  0  0  # atno 7974 bound_to 7965
  154.6894  140.0539  157.0348 H   0  0  0  0  0  0  0  0  0  0  0  0  # atno 8008 bound_to 7997
  155.0838  140.3212  155.4575 H   0  0  0  0  0  0  0  0  0  0  0  0  # atno 8009 bound_to 7997
  156.2723  140.2060  156.5966 H   0  0  0  0  0  0  0  0  0  0  0  0  # atno 8010 bound_to 7997
  140.4921  144.0451  150.6301 H   0  0  0  0  0  0  0  0  0  0  0  0  # atno 10167 bound_to 10162
  157.0672  130.6333  149.5798 H   0  0  0  0  0  0  0  0  0  0  0  0  # atno 10718 bound_to 10713
  153.3079  135.6960  153.7142 H   0  0  0  0  0  0  0  0  0  0  0  0  # atno 10763 bound_to 10752
  153.6031  135.3458  155.2953 H   0  0  0  0  0  0  0  0  0  0  0  0  # atno 10764 bound_to 10752
  154.8568  135.4345  154.2209 H   0  0  0  0  0  0  0  0  0  0  0  0  # atno 10765 bound_to 10752
  141.1144  133.8642  157.1489 H   0  0  0  0  0  0  0  0  0  0  0  0  # atno 11005 bound_to 11000
  144.7054  139.8583  143.7431 LP  0  0  0  0  0  0  0  0  0  0  0  0  # atno 17320 bound_to 7965
  146.1038  139.4036  143.0330 LP  0  0  0  0  0  0  0  0  0  0  0  0  # atno 17321 bound_to 7965
  140.3723  143.2848  152.0265 LP  0  0  0  0  0  0  0  0  0  0  0  0  # atno 17342 bound_to 10162
  139.4853  144.6220  151.7236 LP  0  0  0  0  0  0  0  0  0  0  0  0  # atno 17343 bound_to 10162
  155.9961  130.5029  150.7484 LP  0  0  0  0  0  0  0  0  0  0  0  0  # atno 17370 bound_to 10713
  157.4907  131.0910  151.0430 LP  0  0  0  0  0  0  0  0  0  0  0  0  # atno 17371 bound_to 10713
  140.0057  135.0009  157.0288 LP  0  0  0  0  0  0  0  0  0  0  0  0  # atno 17394 bound_to 11000
  140.4686  134.1410  155.7200 LP  0  0  0  0  0  0  0  0  0  0  0  0  # atno 17395 bound_to 11000

$$$$
