AV-unprocessed.smi:1764|AV-procd|sdf|7132|dock10
  -GOLD-   22720 8373D 1   1.00000     0.00000
 Structure written by MMmdl.
 31 32  0  0  0  0  0  0  0  0  1 V2000
  150.7062  140.6926  156.6803 O   0  0  0  0  0  0  0  0  0  0  0  0
  150.3167  141.8277  156.4043 C   0  0  0  0  0  0  0  0  0  0  0  0
  149.5490  142.1085  155.3412 N   0  0  0  0  0  0  0  0  0  0  0  0
  149.0813  141.1330  154.3625 C   0  0  0  0  0  0  0  0  0  0  0  0
  147.5468  141.1231  154.2655 C   0  0  2  0  0  0  0  0  0  0  0  0
  146.9378  142.4981  153.9940 C   0  0  0  0  0  0  0  0  0  0  0  0
  145.5403  142.4004  154.5879 C   0  0  0  0  0  0  0  0  0  0  0  0
  145.5784  141.1210  155.4280 C   0  0  0  0  0  0  0  0  0  0  0  0
  146.9531  140.7743  155.5059 O   0  0  0  0  0  0  0  0  0  0  0  0
  150.5947  142.9383  157.1099 N   0  0  0  0  0  0  0  0  0  0  0  0
  151.3588  143.0535  158.3020 C   0  0  0  0  0  0  0  0  0  0  0  0
  151.3500  144.3355  158.8970 C   0  0  0  0  0  0  0  0  0  0  0  0
  152.0752  144.5537  160.0845 C   0  0  0  0  0  0  0  0  0  0  0  0
  152.7913  143.4826  160.6479 C   0  0  0  0  0  0  0  0  0  0  0  0
  152.7474  142.2382  159.9926 C   0  0  0  0  0  0  0  0  0  0  0  0
  152.0530  142.0271  158.8544 N   0  0  0  0  0  0  0  0  0  0  0  0
  149.2737  143.0682  155.1922 H   0  0  0  0  0  0  0  0  0  0  0  0
  149.5307  141.3140  153.3844 H   0  0  0  0  0  0  0  0  0  0  0  0
  149.4309  140.1520  154.6845 H   0  0  0  0  0  0  0  0  0  0  0  0
  147.2170  140.4165  153.5013 H   0  0  0  0  0  0  0  0  0  0  0  0
  147.5011  143.2712  154.5188 H   0  0  0  0  0  0  0  0  0  0  0  0
  146.9315  142.7504  152.9332 H   0  0  0  0  0  0  0  0  0  0  0  0
  145.3199  143.2750  155.2009 H   0  0  0  0  0  0  0  0  0  0  0  0
  144.7757  142.3317  153.8133 H   0  0  0  0  0  0  0  0  0  0  0  0
  145.1496  141.2575  156.4210 H   0  0  0  0  0  0  0  0  0  0  0  0
  145.0346  140.3178  154.9286 H   0  0  0  0  0  0  0  0  0  0  0  0
  150.2112  143.8017  156.7553 H   0  0  0  0  0  0  0  0  0  0  0  0
  150.7938  145.1474  158.4512 H   0  0  0  0  0  0  0  0  0  0  0  0
  152.0813  145.5262  160.5543 H   0  0  0  0  0  0  0  0  0  0  0  0
  153.3588  143.6106  161.5577 H   0  0  0  0  0  0  0  0  0  0  0  0
  153.2828  141.3896  160.3922 H   0  0  0  0  0  0  0  0  0  0  0  0
  1  2  2  0  0  0  0
  2  3  1  0  0  0  0
  2 10  1  0  0  0  0
  3  4  1  0  0  0  0
  3 17  1  0  0  0  0
  4  5  1  0  0  0  0
  4 18  1  0  0  0  0
  4 19  1  0  0  0  0
  5  9  1  0  0  0  0
  5  6  1  0  0  0  0
  5 20  1  0  0  0  0
  6  7  1  0  0  0  0
  6 21  1  0  0  0  0
  6 22  1  0  0  0  0
  7  8  1  0  0  0  0
  7 23  1  0  0  0  0
  7 24  1  0  0  0  0
  8  9  1  0  0  0  0
  8 25  1  0  0  0  0
  8 26  1  0  0  0  0
 10 11  1  0  0  0  0
 10 27  1  0  0  0  0
 11 16  1  0  0  0  0
 11 12  2  0  0  0  0
 12 13  1  0  0  0  0
 12 28  1  0  0  0  0
 13 14  2  0  0  0  0
 13 29  1  0  0  0  0
 14 15  1  0  0  0  0
 14 30  1  0  0  0  0
 15 16  2  0  0  0  0
 15 31  1  0  0  0  0
M  END
> <s_m_source_file>
AV-unprocessed.smi

> <i_m_source_file_index>
1764

> <i_lp_mmshare_version>
43012

> <i_f3d_flags>
0

> <s_epik_input>
bjFbY0hdW2NIXVtjSF1bY0hdYzFbTkhdQyg9TylbTkhdW0NIMl1bQ0BASF0yW0NIMl1bQ0gyXVtDSDJdTzI=

> <s_epik_cmdline>
J2VwaWtfcHl0aG9uJywgJy1waCcsICc3LjAnLCAnLXRuJywgJzgnLCAnLW1hJywgJzIwMCcsICctbWV0YWxfYmluZGluZycsICctaW1hZScsICc8aW5maWxlLm1hZT4nLCAnLW9tYWUnLCAnPG91dGZpbGUubWFlPic=

> <r_lp_tautomer_probability>
1

> <r_epik_Ionization_Penalty>
4.47751e-05

> <r_epik_Ionization_Penalty_Charging>
0

> <r_epik_Ionization_Penalty_Neutral>
4.47751e-05

> <r_epik_State_Penalty>
-0

> <r_epik_Charging_Adjusted_Penalty>
0

> <i_epik_Tot_Q>
0

> <i_epik_Tot_abs_Q>
0

> <r_epik_Metal_State_Penalty>
-0

> <b_epik_Metal_Only>
0

> <s_lp_Force_Field>
OPLS_2005

> <r_lp_Energy>
19.1165

> <b_lp_Chiralities_Consistent>
1

> <s_lp_Variant>
AV-unprocessed.smi:1764-1

> <Gold.Version>
5.8.1

> <Gold.Id.Protein>
6NUR|6NUR_protein|mol2

> <Gold.PLP.Fitness>
41.6745

> <Gold.PLP.PLP>
-35.9300

> <Gold.PLP.part.hbond>
-2.0000

> <Gold.PLP.part.metal>
0.0000

> <Gold.PLP.part.buried>
-6.3479

> <Gold.PLP.part.nonpolar>
-28.5699

> <Gold.PLP.part.repulsive>
0.2995

> <Gold.PLP.ligand.clash>
0.0000

> <Gold.PLP.ligand.torsion>
0.0237

> <Gold.PLP.Chemscore.Hbond>
1.9280

> <Gold.PLP.Chemscore.CHOScore>
0.0000

> <Gold.PLP.Chemscore.Metal>
0.0000

> <Gold.Chemscore.Hbonds>
donor molecule, donor type, donor heavy atom, donor atom, acceptor molecule, acceptor atom, score
      L1  H     3    17       P1  8028  1.00
      L1  H    10    27       P1  8028  1.00

> <Gold.PLP.Chemscore.Internal.Correction>
0.0079

> <Gold.Rescore>
     Score         DG    S(hbond)    S(metal)    S(lipo)     H(rot)  DE(clash)    DE(int)     intcor
     16.32     -17.65       1.95        0.00      76.06       1.27       0.02       1.31       ----

> <Gold.Chemscore.Fitness>
16.3233

> <Gold.Chemscore.DG>
-17.6497

> <Gold.Chemscore.ZeroCoef>
-5.4800

> <Gold.Chemscore.Hbond>
1.9509

> <Gold.Chemscore.Metal>
0.0000

> <Gold.Chemscore.Lipo>
76.0625

> <Gold.Chemscore.Internal_Hbond>
0.0000

> <Gold.Chemscore.DEClash>
0.0212

> <Gold.Chemscore.DEInternal>
1.3052

> <Gold.Chemscore.Rot>
1.2678

> <Gold.Chemscore.Internal.Correction>
   9.000000E+99

> <Gold.Chemscore.Hbonds>
donor molecule, donor type, donor heavy atom, donor atom, acceptor molecule, acceptor atom, score
      L1  H     3    17       P1  8028  0.99
      L1  H    10    27       P1  8028  0.94

> <Gold.Chemscore.Hbond.Weighted>
-6.5159

> <Gold.Chemscore.Metal.Weighted>
-0.0000

> <Gold.Chemscore.Lipo.Weighted>
-8.8993

> <Gold.Chemscore.Internal_Hbond.Weighted>
0.0000

> <Gold.Chemscore.DEClash.Weighted>
0.0212

> <Gold.Chemscore.DEInternal.Weighted>
1.3052

> <Gold.Chemscore.Rot.Weighted>
3.2455

> <Gold.Chemscore.Internal.Correction.Weighted>
   9.000000E+99

> <Gold.Protein.RotatedTorsions>
[ 6907 6896 6895 6894 ] final -146.54 input  -60.11 | X-H torsion
[ 7974 7965 7964 7962 ] final  -94.30 input  175.53 | X-H torsion
[ 8008 7997 7996 7995 ] final  117.72 input   59.86 | X-H torsion
[ 10167 10162 10161 10158 ] final  -58.89 input  -65.29 | X-H torsion
[ 10718 10713 10712 10709 ] final  132.39 input   66.30 | X-H torsion
[ 10763 10752 10751 10750 ] final   74.83 input  -60.55 | X-H torsion
[ 11005 11000 10999 10996 ] final -135.50 input  -57.11 | X-H torsion

> <Gold.Protein.ActiveResidues>
 VAL166  LYS551  ARG553  GLY616  TRP617  ASP618  TYR619  PRO620  LYS621  CYS622 
 ASP623  PHE694  ASN695  SER759  ASP760  ASP761  ALA762  ILE779  LEU786  VAL792 
 PHE793  MET794  SER795  GLU796  ALA797  LYS798  CYS799  TRP800  GLU811  SER814 

> <Gold.Protein.RotatedAtoms>
  151.1431  133.4958  159.2596 H   0  0  0  0  0  0  0  0  0  0  0  0  # atno 6907 bound_to 6896
  151.1634  135.0283  159.8730 H   0  0  0  0  0  0  0  0  0  0  0  0  # atno 6908 bound_to 6896
  152.5462  134.1302  159.8489 H   0  0  0  0  0  0  0  0  0  0  0  0  # atno 6909 bound_to 6896
  145.3750  140.9510  143.2425 H   0  0  0  0  0  0  0  0  0  0  0  0  # atno 7974 bound_to 7965
  156.2509  140.2890  156.0723 H   0  0  0  0  0  0  0  0  0  0  0  0  # atno 8008 bound_to 7997
  155.1657  140.0400  157.2869 H   0  0  0  0  0  0  0  0  0  0  0  0  # atno 8009 bound_to 7997
  154.6361  140.2511  155.7383 H   0  0  0  0  0  0  0  0  0  0  0  0  # atno 8010 bound_to 7997
  140.6169  143.2405  151.5574 H   0  0  0  0  0  0  0  0  0  0  0  0  # atno 10167 bound_to 10162
  157.4875  131.1089  150.9600 H   0  0  0  0  0  0  0  0  0  0  0  0  # atno 10718 bound_to 10713
  153.0613  135.5011  154.8101 H   0  0  0  0  0  0  0  0  0  0  0  0  # atno 10763 bound_to 10752
  154.6887  135.2981  154.9512 H   0  0  0  0  0  0  0  0  0  0  0  0  # atno 10764 bound_to 10752
  154.0274  135.6734  153.4830 H   0  0  0  0  0  0  0  0  0  0  0  0  # atno 10765 bound_to 10752
  140.8892  134.1833  157.4539 H   0  0  0  0  0  0  0  0  0  0  0  0  # atno 11005 bound_to 11000
  144.8548  139.5266  143.6839 LP  0  0  0  0  0  0  0  0  0  0  0  0  # atno 17320 bound_to 7965
  146.2868  139.7026  142.9190 LP  0  0  0  0  0  0  0  0  0  0  0  0  # atno 17321 bound_to 7965
  139.5406  144.2658  152.1343 LP  0  0  0  0  0  0  0  0  0  0  0  0  # atno 17342 bound_to 10162
  140.1869  144.4790  150.6499 LP  0  0  0  0  0  0  0  0  0  0  0  0  # atno 17343 bound_to 10162
  157.0313  130.5712  149.5343 LP  0  0  0  0  0  0  0  0  0  0  0  0  # atno 17370 bound_to 10713
  156.0155  130.5249  150.8121 LP  0  0  0  0  0  0  0  0  0  0  0  0  # atno 17371 bound_to 10713
  139.8728  134.9851  156.5268 LP  0  0  0  0  0  0  0  0  0  0  0  0  # atno 17394 bound_to 11000
  140.8367  133.8236  155.9036 LP  0  0  0  0  0  0  0  0  0  0  0  0  # atno 17395 bound_to 11000

$$$$
