AV-unprocessed.smi:3181|AV-procd|sdf|12137|dock3
  -GOLD-   2272017573D 1   1.00000     0.00000
 Structure written by MMmdl.
 42 43  0  0  0  0  0  0  0  0  2 V2000
  149.1521  141.3950  154.9164 C   0  0  0  0  0  0  0  0  0  0  0  0
  150.3847  141.5223  155.8274 C   0  0  2  0  0  0  0  0  0  0  0  0
  150.7247  140.2046  156.5613 C   0  0  0  0  0  0  0  0  0  0  0  0
  151.2094  139.1704  155.6657 N   0  0  0  0  0  0  0  0  0  0  0  0
  152.3892  138.5497  155.6156 C   0  0  0  0  0  0  0  0  0  0  0  0
  152.4786  137.6481  154.6482 N   0  0  0  0  0  0  0  0  0  0  0  0
  151.2298  137.7688  154.1065 C   0  0  0  0  0  0  0  0  0  0  0  0
  150.4291  138.6671  154.6806 N   0  0  0  0  0  0  0  0  0  0  0  0
  150.1648  142.6232  156.7921 N   0  3  0  0  0  0  0  0  0  0  0  0
  151.3619  143.0890  157.5279 C   0  0  1  0  0  0  0  0  0  0  0  0
  151.1279  144.5078  158.0738 C   0  0  0  0  0  0  0  0  0  0  0  0
  152.3321  144.9965  158.8965 C   0  0  0  0  0  0  0  0  0  0  0  0
  152.6847  144.0328  160.0487 C   0  0  1  0  0  0  0  0  0  0  0  0
  151.6514  144.1130  161.1907 C   0  0  0  0  0  0  0  0  0  0  0  0
  152.9107  142.6020  159.4949 C   0  0  1  0  0  0  0  0  0  0  0  0
  153.3116  141.5861  160.5774 C   0  0  0  0  0  0  0  0  0  0  0  0
  151.7027  142.1127  158.6694 C   0  0  0  0  0  0  0  0  0  0  0  0
  149.3131  140.6677  154.1203 H   0  0  0  0  0  0  0  0  0  0  0  0
  148.9182  142.3464  154.4377 H   0  0  0  0  0  0  0  0  0  0  0  0
  148.2727  141.0818  155.4804 H   0  0  0  0  0  0  0  0  0  0  0  0
  151.2264  141.8008  155.1913 H   0  0  0  0  0  0  0  0  0  0  0  0
  151.4906  140.3684  157.3197 H   0  0  0  0  0  0  0  0  0  0  0  0
  149.8455  139.8287  157.0876 H   0  0  0  0  0  0  0  0  0  0  0  0
  153.1999  138.7639  156.2968 H   0  0  0  0  0  0  0  0  0  0  0  0
  150.9016  137.1770  153.2646 H   0  0  0  0  0  0  0  0  0  0  0  0
  149.8082  143.4143  156.2753 H   0  0  0  0  0  0  0  0  0  0  0  0
  152.2160  143.1317  156.8501 H   0  0  0  0  0  0  0  0  0  0  0  0
  150.9490  145.1979  157.2482 H   0  0  0  0  0  0  0  0  0  0  0  0
  150.2270  144.5289  158.6883 H   0  0  0  0  0  0  0  0  0  0  0  0
  153.1948  145.0962  158.2365 H   0  0  0  0  0  0  0  0  0  0  0  0
  152.1360  145.9961  159.2860 H   0  0  0  0  0  0  0  0  0  0  0  0
  153.6316  144.3746  160.4694 H   0  0  0  0  0  0  0  0  0  0  0  0
  150.6741  143.7366  160.8902 H   0  0  0  0  0  0  0  0  0  0  0  0
  151.5175  145.1436  161.5207 H   0  0  0  0  0  0  0  0  0  0  0  0
  151.9724  143.5423  162.0618 H   0  0  0  0  0  0  0  0  0  0  0  0
  153.7576  142.6629  158.8096 H   0  0  0  0  0  0  0  0  0  0  0  0
  152.4947  141.3907  161.2724 H   0  0  0  0  0  0  0  0  0  0  0  0
  154.1661  141.9414  161.1540 H   0  0  0  0  0  0  0  0  0  0  0  0
  153.5927  140.6322  160.1305 H   0  0  0  0  0  0  0  0  0  0  0  0
  150.8368  141.9796  159.3193 H   0  0  0  0  0  0  0  0  0  0  0  0
  151.9219  141.1288  158.2525 H   0  0  0  0  0  0  0  0  0  0  0  0
  149.4598  142.3379  157.4569 H   0  0  0  0  0  0  0  0  0  0  0  0
  1  2  1  0  0  0  0
  1 18  1  0  0  0  0
  1 19  1  0  0  0  0
  1 20  1  0  0  0  0
  2  3  1  0  0  0  0
  2  9  1  0  0  0  0
  2 21  1  0  0  0  0
  3  4  1  0  0  0  0
  3 22  1  0  0  0  0
  3 23  1  0  0  0  0
  4  8  1  0  0  0  0
  4  5  1  0  0  0  0
  5  6  2  0  0  0  0
  5 24  1  0  0  0  0
  6  7  1  0  0  0  0
  7  8  2  0  0  0  0
  7 25  1  0  0  0  0
  9 10  1  0  0  0  0
  9 26  1  0  0  0  0
  9 42  1  0  0  0  0
 10 17  1  0  0  0  0
 10 11  1  0  0  0  0
 10 27  1  0  0  0  0
 11 12  1  0  0  0  0
 11 28  1  0  0  0  0
 11 29  1  0  0  0  0
 12 13  1  0  0  0  0
 12 30  1  0  0  0  0
 12 31  1  0  0  0  0
 13 14  1  0  0  0  0
 13 15  1  0  0  0  0
 13 32  1  0  0  0  0
 14 33  1  0  0  0  0
 14 34  1  0  0  0  0
 14 35  1  0  0  0  0
 15 16  1  0  0  0  0
 15 17  1  0  0  0  0
 15 36  1  0  0  0  0
 16 37  1  0  0  0  0
 16 38  1  0  0  0  0
 16 39  1  0  0  0  0
 17 40  1  0  0  0  0
 17 41  1  0  0  0  0
M  CHG  1   9   1
M  END
> <s_m_source_file>
AV-unprocessed.smi

> <i_m_source_file_index>
3181

> <i_lp_mmshare_version>
43012

> <i_f3d_flags>
0

> <s_epik_input>
bjFbY0hdbltjSF1uMVtDSDJdW0NAQEhdKFtDSDNdKVtOSF1bQ0BASF0yW0NIMl1bQ0gyXVtDQEBIXShbQ0gzXSlbQ0BASF0oW0NIM10pW0NIMl0y

> <s_epik_cmdline>
J2VwaWtfcHl0aG9uJywgJy1waCcsICc3LjAnLCAnLXRuJywgJzgnLCAnLW1hJywgJzIwMCcsICctbWV0YWxfYmluZGluZycsICctaW1hZScsICc8aW5maWxlLm1hZT4nLCAnLW9tYWUnLCAnPG91dGZpbGUubWFlPic=

> <r_lp_tautomer_probability>
1

> <r_epik_Ionization_Penalty>
0.000617007

> <r_epik_Ionization_Penalty_Charging>
0.000616215

> <r_epik_Ionization_Penalty_Neutral>
7.92544e-07

> <r_epik_State_Penalty>
0.000388807

> <r_epik_Charging_Adjusted_Penalty>
0.00100502

> <i_epik_Tot_Q>
1

> <i_epik_Tot_abs_Q>
1

> <r_epik_Metal_State_Penalty>
-0

> <b_epik_Metal_Only>
0

> <s_lp_Force_Field>
OPLS_2005

> <r_lp_Energy>
21.565

> <b_lp_Chiralities_Consistent>
1

> <s_lp_Variant>
AV-unprocessed.smi:3181-3

> <Gold.Version>
5.8.1

> <Gold.Id.Protein>
6NUR|6NUR_protein|mol2

> <Gold.PLP.Fitness>
54.5060

> <Gold.PLP.PLP>
-44.3600

> <Gold.PLP.part.hbond>
-2.0000

> <Gold.PLP.part.metal>
0.0000

> <Gold.PLP.part.buried>
-5.5922

> <Gold.PLP.part.nonpolar>
-38.5999

> <Gold.PLP.part.repulsive>
0.2665

> <Gold.PLP.ligand.clash>
0.0000

> <Gold.PLP.ligand.torsion>
0.3065

> <Gold.PLP.Chemscore.Hbond>
2.5429

> <Gold.PLP.Chemscore.CHOScore>
1.0325

> <Gold.PLP.Chemscore.Metal>
0.0000

> <Gold.Chemscore.Hbonds>
donor molecule, donor type, donor heavy atom, donor atom, acceptor molecule, acceptor atom, score
      L1  H     9    26       P1  8028  2.00
      P1  H 10752 10765       L1     6  0.56
      L1  C     7    25       P1  7948  0.09
      L1  C     7    25       P1  7949  0.92

> <Gold.PLP.Chemscore.Internal.Correction>
0.0328

> <Gold.Rescore>
     Score         DG    S(hbond)    S(metal)    S(lipo)     H(rot)  DE(clash)    DE(int)     intcor
     18.13     -19.77       1.88        0.00     114.69       2.11       0.04       1.60       ----

> <Gold.Chemscore.Fitness>
18.1313

> <Gold.Chemscore.DG>
-19.7714

> <Gold.Chemscore.ZeroCoef>
-5.4800

> <Gold.Chemscore.Hbond>
1.8781

> <Gold.Chemscore.Metal>
0.0000

> <Gold.Chemscore.Lipo>
114.6914

> <Gold.Chemscore.Internal_Hbond>
0.0000

> <Gold.Chemscore.DEClash>
0.0446

> <Gold.Chemscore.DEInternal>
1.5955

> <Gold.Chemscore.Rot>
2.1095

> <Gold.Chemscore.Internal.Correction>
   9.000000E+99

> <Gold.Chemscore.Hbonds>
donor molecule, donor type, donor heavy atom, donor atom, acceptor molecule, acceptor atom, score
      L1  H     9    26       P1  8028  1.00
      P1  H 10752 10765       L1     6  0.24

> <Gold.Chemscore.Hbond.Weighted>
-6.2728

> <Gold.Chemscore.Metal.Weighted>
-0.0000

> <Gold.Chemscore.Lipo.Weighted>
-13.4189

> <Gold.Chemscore.Internal_Hbond.Weighted>
0.0000

> <Gold.Chemscore.DEClash.Weighted>
0.0446

> <Gold.Chemscore.DEInternal.Weighted>
1.5955

> <Gold.Chemscore.Rot.Weighted>
5.4003

> <Gold.Chemscore.Internal.Correction.Weighted>
   9.000000E+99

> <Gold.Protein.RotatedTorsions>
[ 6907 6896 6895 6894 ] final  -73.27 input  -60.11 | X-H torsion
[ 7974 7965 7964 7962 ] final  -80.31 input  175.53 | X-H torsion
[ 8008 7997 7996 7995 ] final -154.14 input   59.86 | X-H torsion
[ 10167 10162 10161 10158 ] final  107.13 input  -65.29 | X-H torsion
[ 10718 10713 10712 10709 ] final -169.16 input   66.30 | X-H torsion
[ 10763 10752 10751 10750 ] final  165.19 input  -60.55 | X-H torsion
[ 11005 11000 10999 10996 ] final   -8.45 input  -57.11 | X-H torsion

> <Gold.Protein.ActiveResidues>
 VAL166  LYS551  ARG553  GLY616  TRP617  ASP618  TYR619  PRO620  LYS621  CYS622 
 ASP623  PHE694  ASN695  SER759  ASP760  ASP761  ALA762  ILE779  LEU786  VAL792 
 PHE793  MET794  SER795  GLU796  ALA797  LYS798  CYS799  TRP800  GLU811  SER814 

> <Gold.Protein.RotatedAtoms>
  150.7137  134.5041  159.5575 H   0  0  0  0  0  0  0  0  0  0  0  0  # atno 6907 bound_to 6896
  152.2632  134.8009  160.0436 H   0  0  0  0  0  0  0  0  0  0  0  0  # atno 6908 bound_to 6896
  151.8715  133.3441  159.3773 H   0  0  0  0  0  0  0  0  0  0  0  0  # atno 6909 bound_to 6896
  145.5617  140.9481  143.1444 H   0  0  0  0  0  0  0  0  0  0  0  0  # atno 7974 bound_to 7965
  155.6817  140.0745  157.2482 H   0  0  0  0  0  0  0  0  0  0  0  0  # atno 8008 bound_to 7997
  154.4104  140.1680  156.2042 H   0  0  0  0  0  0  0  0  0  0  0  0  # atno 8009 bound_to 7997
  155.9529  140.3376  155.6426 H   0  0  0  0  0  0  0  0  0  0  0  0  # atno 8010 bound_to 7997
  139.6952  144.7102  151.1279 H   0  0  0  0  0  0  0  0  0  0  0  0  # atno 10167 bound_to 10162
  156.7075  130.9221  151.3086 H   0  0  0  0  0  0  0  0  0  0  0  0  # atno 10718 bound_to 10713
  154.3203  135.2756  155.2523 H   0  0  0  0  0  0  0  0  0  0  0  0  # atno 10763 bound_to 10752
  154.4879  135.5841  153.6441 H   0  0  0  0  0  0  0  0  0  0  0  0  # atno 10764 bound_to 10752
  152.9877  135.6127  154.3387 H   0  0  0  0  0  0  0  0  0  0  0  0  # atno 10765 bound_to 10752
  140.7237  133.8807  155.8840 H   0  0  0  0  0  0  0  0  0  0  0  0  # atno 11005 bound_to 11000
  144.7480  139.7269  143.7284 LP  0  0  0  0  0  0  0  0  0  0  0  0  # atno 17320 bound_to 7965
  146.1846  139.5056  142.9844 LP  0  0  0  0  0  0  0  0  0  0  0  0  # atno 17321 bound_to 7965
  140.7694  143.5502  150.9213 LP  0  0  0  0  0  0  0  0  0  0  0  0  # atno 17342 bound_to 10162
  139.9181  143.6639  152.3102 LP  0  0  0  0  0  0  0  0  0  0  0  0  # atno 17343 bound_to 10162
  157.6949  130.9271  150.0616 LP  0  0  0  0  0  0  0  0  0  0  0  0  # atno 17370 bound_to 10713
  156.1684  130.3645  149.9199 LP  0  0  0  0  0  0  0  0  0  0  0  0  # atno 17371 bound_to 10713
  140.9982  134.1187  157.4343 LP  0  0  0  0  0  0  0  0  0  0  0  0  # atno 17394 bound_to 11000
  139.8842  135.0060  156.6354 LP  0  0  0  0  0  0  0  0  0  0  0  0  # atno 17395 bound_to 11000

$$$$
