AV-unprocessed.smi:914|AV-procd|sdf|4150|dock2
  -GOLD-   22720 2 53D 1   1.00000     0.00000
 Structure written by MMmdl.
 33 34  0  0  0  0  0  0  0  0  1 V2000
  146.9774  139.8349  151.8185 O   0  0  0  0  0  0  0  0  0  0  0  0
  147.7306  140.0537  152.7654 C   0  0  0  0  0  0  0  0  0  0  0  0
  148.6744  139.0924  153.1403 N   0  0  0  0  0  0  0  0  0  0  0  0
  149.5856  139.2145  154.1899 C   0  0  0  0  0  0  0  0  0  0  0  0
  150.3657  138.2945  154.4364 O   0  0  0  0  0  0  0  0  0  0  0  0
  149.5491  140.4201  154.9273 N   0  0  0  0  0  0  0  0  0  0  0  0
  150.4510  140.5582  156.0448 C   0  0  0  0  0  0  0  0  0  0  0  0
  151.0136  141.9821  156.1812 C   0  0  0  0  0  0  0  0  0  0  0  0
  151.2606  142.2443  157.5524 O   0  0  0  0  0  0  0  0  0  0  0  0
  151.7382  143.5566  157.7894 C   0  0  0  0  0  0  0  0  0  0  0  0
  151.2756  143.9971  159.1831 C   0  0  2  0  0  0  0  0  0  0  0  0
  151.7907  145.3731  159.5961 C   0  0  0  0  0  0  0  0  0  0  0  0
  151.6759  145.2985  161.1019 C   0  0  0  0  0  0  0  0  0  0  0  0
  152.0447  143.8431  161.3854 C   0  0  0  0  0  0  0  0  0  0  0  0
  151.8008  143.1244  160.1781 O   0  0  0  0  0  0  0  0  0  0  0  0
  148.6229  141.3975  154.5970 C   0  0  0  0  0  0  0  0  0  0  0  0
  147.7395  141.2698  153.5777 C   0  0  0  0  0  0  0  0  0  0  0  0
  146.6131  142.5325  153.2300 Cl  0  0  0  0  0  0  0  0  0  0  0  0
  148.6947  138.2341  152.6091 H   0  0  0  0  0  0  0  0  0  0  0  0
  149.9198  140.2326  156.9414 H   0  0  0  0  0  0  0  0  0  0  0  0
  151.2531  139.8357  155.8859 H   0  0  0  0  0  0  0  0  0  0  0  0
  151.9296  142.0902  155.5982 H   0  0  0  0  0  0  0  0  0  0  0  0
  150.2953  142.7056  155.7934 H   0  0  0  0  0  0  0  0  0  0  0  0
  152.8265  143.5952  157.7200 H   0  0  0  0  0  0  0  0  0  0  0  0
  151.3340  144.2288  157.0312 H   0  0  0  0  0  0  0  0  0  0  0  0
  150.1862  143.9865  159.2458 H   0  0  0  0  0  0  0  0  0  0  0  0
  152.8357  145.4955  159.3071 H   0  0  0  0  0  0  0  0  0  0  0  0
  151.2153  146.1917  159.1628 H   0  0  0  0  0  0  0  0  0  0  0  0
  152.3215  146.0098  161.6174 H   0  0  0  0  0  0  0  0  0  0  0  0
  150.6459  145.4899  161.4064 H   0  0  0  0  0  0  0  0  0  0  0  0
  153.1024  143.7529  161.6347 H   0  0  0  0  0  0  0  0  0  0  0  0
  151.4656  143.4303  162.2117 H   0  0  0  0  0  0  0  0  0  0  0  0
  148.5971  142.3056  155.1828 H   0  0  0  0  0  0  0  0  0  0  0  0
  1  2  2  0  0  0  0
  2 17  1  0  0  0  0
  2  3  1  0  0  0  0
  3 19  1  0  0  0  0
  3  4  1  0  0  0  0
  4  5  2  0  0  0  0
  4  6  1  0  0  0  0
  6  7  1  0  0  0  0
  6 16  1  0  0  0  0
  7  8  1  0  0  0  0
  7 20  1  0  0  0  0
  7 21  1  0  0  0  0
  8  9  1  0  0  0  0
  8 22  1  0  0  0  0
  8 23  1  0  0  0  0
  9 10  1  0  0  0  0
 10 11  1  0  0  0  0
 10 24  1  0  0  0  0
 10 25  1  0  0  0  0
 11 15  1  0  0  0  0
 11 12  1  0  0  0  0
 11 26  1  0  0  0  0
 12 13  1  0  0  0  0
 12 27  1  0  0  0  0
 12 28  1  0  0  0  0
 13 14  1  0  0  0  0
 13 29  1  0  0  0  0
 13 30  1  0  0  0  0
 14 15  1  0  0  0  0
 14 31  1  0  0  0  0
 14 32  1  0  0  0  0
 16 17  2  0  0  0  0
 16 33  1  0  0  0  0
 17 18  1  0  0  0  0
M  END
> <s_m_source_file>
AV-unprocessed.smi

> <i_m_source_file_index>
914

> <i_lp_mmshare_version>
43012

> <i_f3d_flags>
0

> <s_epik_input>
Tz1jMVtuSF1jKD1PKW4oW2NIXWMxQ2wpW0NIMl1bQ0gyXU9bQ0gyXVtDQEBIXTJbQ0gyXVtDSDJdW0NIMl1PMg==

> <s_epik_cmdline>
J2VwaWtfcHl0aG9uJywgJy1waCcsICc3LjAnLCAnLXRuJywgJzgnLCAnLW1hJywgJzIwMCcsICctbWV0YWxfYmluZGluZycsICctaW1hZScsICc8aW5maWxlLm1hZT4nLCAnLW9tYWUnLCAnPG91dGZpbGUubWFlPic=

> <r_lp_tautomer_probability>
0.999537

> <r_epik_Ionization_Penalty>
0.030751

> <r_epik_Ionization_Penalty_Charging>
0.030751

> <r_epik_Ionization_Penalty_Neutral>
1.46719e-11

> <r_epik_State_Penalty>
0.0253757

> <r_epik_Charging_Adjusted_Penalty>
0.0561266

> <i_epik_Tot_Q>
0

> <i_epik_Tot_abs_Q>
0

> <r_epik_Metal_State_Penalty>
2.25222

> <b_epik_Metal_Only>
0

> <s_lp_Force_Field>
OPLS_2005

> <r_lp_Energy>
20.707

> <b_lp_Chiralities_Consistent>
1

> <s_lp_Variant>
AV-unprocessed.smi:914-1

> <Gold.Version>
5.8.1

> <Gold.Id.Protein>
6NUR|6NUR_protein|mol2

> <Gold.PLP.Fitness>
41.1529

> <Gold.PLP.PLP>
-37.2798

> <Gold.PLP.part.hbond>
-1.6744

> <Gold.PLP.part.metal>
0.0000

> <Gold.PLP.part.buried>
-2.3802

> <Gold.PLP.part.nonpolar>
-33.7060

> <Gold.PLP.part.repulsive>
1.8922

> <Gold.PLP.ligand.clash>
0.0000

> <Gold.PLP.ligand.torsion>
0.6837

> <Gold.PLP.Chemscore.Hbond>
0.7638

> <Gold.PLP.Chemscore.CHOScore>
0.9594

> <Gold.PLP.Chemscore.Metal>
0.0000

> <Gold.Chemscore.Hbonds>
donor molecule, donor type, donor heavy atom, donor atom, acceptor molecule, acceptor atom, score
      L1  H     3    19       P1  7948  0.76
      L1  C    16    33       P1  8028  1.00

> <Gold.PLP.Chemscore.Internal.Correction>
0.0712

> <Gold.Rescore>
     Score         DG    S(hbond)    S(metal)    S(lipo)     H(rot)  DE(clash)    DE(int)     intcor
     12.64     -14.32       0.97        0.00      94.82       2.14       1.00       0.68       ----

> <Gold.Chemscore.Fitness>
12.6432

> <Gold.Chemscore.DG>
-14.3241

> <Gold.Chemscore.ZeroCoef>
-5.4800

> <Gold.Chemscore.Hbond>
0.9651

> <Gold.Chemscore.Metal>
0.0000

> <Gold.Chemscore.Lipo>
94.8183

> <Gold.Chemscore.Internal_Hbond>
0.0000

> <Gold.Chemscore.DEClash>
0.9970

> <Gold.Chemscore.DEInternal>
0.6839

> <Gold.Chemscore.Rot>
2.1379

> <Gold.Chemscore.Internal.Correction>
   9.000000E+99

> <Gold.Chemscore.Hbonds>
donor molecule, donor type, donor heavy atom, donor atom, acceptor molecule, acceptor atom, score
      L1  H     3    19       P1  7948  0.77

> <Gold.Chemscore.Hbond.Weighted>
-3.2233

> <Gold.Chemscore.Metal.Weighted>
-0.0000

> <Gold.Chemscore.Lipo.Weighted>
-11.0937

> <Gold.Chemscore.Internal_Hbond.Weighted>
0.0000

> <Gold.Chemscore.DEClash.Weighted>
0.9970

> <Gold.Chemscore.DEInternal.Weighted>
0.6839

> <Gold.Chemscore.Rot.Weighted>
5.4730

> <Gold.Chemscore.Internal.Correction.Weighted>
   9.000000E+99

> <Gold.Protein.RotatedTorsions>
[ 6907 6896 6895 6894 ] final  135.82 input  -60.11 | X-H torsion
[ 7974 7965 7964 7962 ] final  -75.77 input  175.53 | X-H torsion
[ 8008 7997 7996 7995 ] final  161.35 input   59.86 | X-H torsion
[ 10167 10162 10161 10158 ] final   94.72 input  -65.29 | X-H torsion
[ 10718 10713 10712 10709 ] final   12.60 input   66.30 | X-H torsion
[ 10763 10752 10751 10750 ] final   24.68 input  -60.55 | X-H torsion
[ 11005 11000 10999 10996 ] final   98.53 input  -57.11 | X-H torsion

> <Gold.Protein.ActiveResidues>
 VAL166  LYS551  ARG553  GLY616  TRP617  ASP618  TYR619  PRO620  LYS621  CYS622 
 ASP623  PHE694  ASN695  SER759  ASP760  ASP761  ALA762  ILE779  LEU786  VAL792 
 PHE793  MET794  SER795  GLU796  ALA797  LYS798  CYS799  TRP800  GLU811  SER814 

> <Gold.Protein.RotatedAtoms>
  152.2962  133.5610  159.5588 H   0  0  0  0  0  0  0  0  0  0  0  0  # atno 6907 bound_to 6896
  150.7257  134.0357  159.3757 H   0  0  0  0  0  0  0  0  0  0  0  0  # atno 6908 bound_to 6896
  151.8260  135.0637  160.0482 H   0  0  0  0  0  0  0  0  0  0  0  0  # atno 6909 bound_to 6896
  145.6216  140.9361  143.1135 H   0  0  0  0  0  0  0  0  0  0  0  0  # atno 7974 bound_to 7965
  156.2109  140.1779  156.7696 H   0  0  0  0  0  0  0  0  0  0  0  0  # atno 8008 bound_to 7997
  154.5721  140.0680  156.9010 H   0  0  0  0  0  0  0  0  0  0  0  0  # atno 8009 bound_to 7997
  155.2653  140.3338  155.4272 H   0  0  0  0  0  0  0  0  0  0  0  0  # atno 8010 bound_to 7997
  139.8056  144.6795  150.9707 H   0  0  0  0  0  0  0  0  0  0  0  0  # atno 10167 bound_to 10162
  157.0125  130.6123  149.5710 H   0  0  0  0  0  0  0  0  0  0  0  0  # atno 10718 bound_to 10713
  153.0746  135.6600  154.0174 H   0  0  0  0  0  0  0  0  0  0  0  0  # atno 10763 bound_to 10752
  153.9811  135.2955  155.3421 H   0  0  0  0  0  0  0  0  0  0  0  0  # atno 10764 bound_to 10752
  154.7130  135.5197  153.8766 H   0  0  0  0  0  0  0  0  0  0  0  0  # atno 10765 bound_to 10752
  139.8772  134.9053  156.4470 H   0  0  0  0  0  0  0  0  0  0  0  0  # atno 11005 bound_to 11000
  144.7229  139.7971  143.7375 LP  0  0  0  0  0  0  0  0  0  0  0  0  # atno 17320 bound_to 7965
  146.1427  139.4488  143.0099 LP  0  0  0  0  0  0  0  0  0  0  0  0  # atno 17321 bound_to 7965
  140.7819  143.4237  151.0802 LP  0  0  0  0  0  0  0  0  0  0  0  0  # atno 17342 bound_to 10162
  139.7906  143.8224  152.3151 LP  0  0  0  0  0  0  0  0  0  0  0  0  # atno 17343 bound_to 10162
  156.0131  130.5223  150.8050 LP  0  0  0  0  0  0  0  0  0  0  0  0  # atno 17370 bound_to 10713
  157.5309  131.0936  150.9955 LP  0  0  0  0  0  0  0  0  0  0  0  0  # atno 17371 bound_to 10713
  140.8959  133.7814  155.9624 LP  0  0  0  0  0  0  0  0  0  0  0  0  # atno 17394 bound_to 11000
  140.8704  134.2734  157.5193 LP  0  0  0  0  0  0  0  0  0  0  0  0  # atno 17395 bound_to 11000

$$$$
