AV-unprocessed.smi:1100|AV-procd|sdf|4763|dock7
  -GOLD-   22720 3303D 1   1.00000     0.00000
 Structure written by MMmdl.
 43 44  0  0  0  0  0  0  0  0  3 V2000
  151.3691  138.1231  154.4169 C   0  0  0  0  0  0  0  0  0  0  0  0
  149.9565  138.6509  154.0601 C   0  0  2  0  0  0  0  0  0  0  0  0
  149.5512  139.9473  154.8160 C   0  0  0  0  0  0  0  0  0  0  0  0
  150.7284  140.6579  155.3185 N   0  5  0  0  0  0  0  0  0  0  0  0
  151.1167  140.7004  156.6228 C   0  0  0  0  0  0  0  0  0  0  0  0
  151.2457  139.7424  157.3930 O   0  0  0  0  0  0  0  0  0  0  0  0
  151.3733  141.9605  157.0266 N   0  0  0  0  0  0  0  0  0  0  0  0
  151.7461  142.4559  158.2868 C   0  0  0  0  0  0  0  0  0  0  0  0
  151.2131  143.7424  158.6817 C   0  0  0  0  0  0  0  0  0  0  0  0
  151.5054  144.2833  159.8803 C   0  0  0  0  0  0  0  0  0  0  0  0
  152.3736  143.5961  160.8386 C   0  0  0  0  0  0  0  0  0  0  0  0
  152.6531  144.0794  161.9363 O   0  0  0  0  0  0  0  0  0  0  0  0
  152.8516  142.3834  160.4361 N   0  0  0  0  0  0  0  0  0  0  0  0
  153.7229  141.6145  161.3289 C   0  0  0  0  0  0  0  0  0  0  0  0
  152.5376  141.8239  159.1822 C   0  0  0  0  0  0  0  0  0  0  0  0
  148.8925  137.6084  154.2002 N   0  3  0  0  0  0  0  0  0  0  0  0
  149.0853  136.7167  155.3709 C   0  0  0  0  0  0  0  0  0  0  0  0
  148.0661  135.5650  155.3372 C   0  0  0  0  0  0  0  0  0  0  0  0
  146.7444  136.0894  155.2933 O   0  0  0  0  0  0  0  0  0  0  0  0
  146.5230  136.8809  154.1322 C   0  0  0  0  0  0  0  0  0  0  0  0
  147.4812  138.0822  154.1423 C   0  0  0  0  0  0  0  0  0  0  0  0
  152.1478  138.8433  154.1597 H   0  0  0  0  0  0  0  0  0  0  0  0
  151.5952  137.2134  153.8602 H   0  0  0  0  0  0  0  0  0  0  0  0
  151.4789  137.8936  155.4781 H   0  0  0  0  0  0  0  0  0  0  0  0
  149.9839  138.9179  153.0024 H   0  0  0  0  0  0  0  0  0  0  0  0
  148.9629  140.5764  154.1458 H   0  0  0  0  0  0  0  0  0  0  0  0
  148.8710  139.6866  155.6271 H   0  0  0  0  0  0  0  0  0  0  0  0
  151.2888  142.6648  156.3084 H   0  0  0  0  0  0  0  0  0  0  0  0
  150.5684  144.2832  158.0040 H   0  0  0  0  0  0  0  0  0  0  0  0
  151.0907  145.2456  160.1419 H   0  0  0  0  0  0  0  0  0  0  0  0
  154.0438  140.6665  160.8960 H   0  0  0  0  0  0  0  0  0  0  0  0
  153.2075  141.3862  162.2632 H   0  0  0  0  0  0  0  0  0  0  0  0
  154.6233  142.1824  161.5679 H   0  0  0  0  0  0  0  0  0  0  0  0
  152.9776  140.8528  159.0252 H   0  0  0  0  0  0  0  0  0  0  0  0
  150.0940  136.3016  155.3661 H   0  0  0  0  0  0  0  0  0  0  0  0
  148.9771  137.2897  156.2929 H   0  0  0  0  0  0  0  0  0  0  0  0
  148.2403  134.9179  154.4763 H   0  0  0  0  0  0  0  0  0  0  0  0
  148.1710  134.9441  156.2271 H   0  0  0  0  0  0  0  0  0  0  0  0
  146.6595  136.2791  153.2322 H   0  0  0  0  0  0  0  0  0  0  0  0
  145.4888  137.2255  154.1313 H   0  0  0  0  0  0  0  0  0  0  0  0
  147.2571  138.7102  155.0054 H   0  0  0  0  0  0  0  0  0  0  0  0
  147.3135  138.6879  153.2514 H   0  0  0  0  0  0  0  0  0  0  0  0
  149.0191  137.0126  153.3941 H   0  0  0  0  0  0  0  0  0  0  0  0
  1  2  1  0  0  0  0
  1 22  1  0  0  0  0
  1 23  1  0  0  0  0
  1 24  1  0  0  0  0
  2  3  1  0  0  0  0
  2 16  1  0  0  0  0
  2 25  1  0  0  0  0
  3  4  1  0  0  0  0
  3 26  1  0  0  0  0
  3 27  1  0  0  0  0
  4  5  1  0  0  0  0
  5  6  2  0  0  0  0
  5  7  1  0  0  0  0
  7  8  1  0  0  0  0
  7 28  1  0  0  0  0
  8 15  2  0  0  0  0
  8  9  1  0  0  0  0
  9 10  2  0  0  0  0
  9 29  1  0  0  0  0
 10 11  1  0  0  0  0
 10 30  1  0  0  0  0
 11 12  2  0  0  0  0
 11 13  1  0  0  0  0
 13 14  1  0  0  0  0
 13 15  1  0  0  0  0
 14 31  1  0  0  0  0
 14 32  1  0  0  0  0
 14 33  1  0  0  0  0
 15 34  1  0  0  0  0
 16 21  1  0  0  0  0
 16 17  1  0  0  0  0
 16 43  1  0  0  0  0
 17 18  1  0  0  0  0
 17 35  1  0  0  0  0
 17 36  1  0  0  0  0
 18 19  1  0  0  0  0
 18 37  1  0  0  0  0
 18 38  1  0  0  0  0
 19 20  1  0  0  0  0
 20 21  1  0  0  0  0
 20 39  1  0  0  0  0
 20 40  1  0  0  0  0
 21 41  1  0  0  0  0
 21 42  1  0  0  0  0
M  CHG  1   4  -1
M  CHG  1  16   1
M  END
> <s_m_source_file>
AV-unprocessed.smi

> <i_m_source_file_index>
1100

> <i_lp_mmshare_version>
43012

> <i_f3d_flags>
0

> <s_epik_input>
W0NIMl0xW0NIMl1PW0NIMl1bQ0gyXU4xW0NASF0oW0NIM10pW0NIMl1bTkhdQyg9TylbTkhdYzJbY0hdW2NIXWMoPU8pbihbQ0gzXSlbY0hdMg==

> <s_epik_cmdline>
J2VwaWtfcHl0aG9uJywgJy1waCcsICc3LjAnLCAnLXRuJywgJzgnLCAnLW1hJywgJzIwMCcsICctbWV0YWxfYmluZGluZycsICctaW1hZScsICc8aW5maWxlLm1hZT4nLCAnLW9tYWUnLCAnPG91dGZpbGUubWFlPic=

> <r_lp_tautomer_probability>
1

> <r_epik_Ionization_Penalty>
6.79272

> <r_epik_Ionization_Penalty_Charging>
6.79272

> <r_epik_Ionization_Penalty_Neutral>
3.37009e-06

> <r_epik_State_Penalty>
7.34577

> <r_epik_Charging_Adjusted_Penalty>
14.1385

> <i_epik_Tot_Q>
0

> <i_epik_Tot_abs_Q>
2

> <r_epik_Metal_State_Penalty>
3.26257

> <b_epik_Metal_Only>
1

> <s_lp_Force_Field>
OPLS_2005

> <r_lp_Energy>
31.7412

> <b_lp_Chiralities_Consistent>
1

> <s_lp_Variant>
AV-unprocessed.smi:1100-5

> <Gold.Version>
5.8.1

> <Gold.Id.Protein>
6NUR|6NUR_protein|mol2

> <Gold.PLP.Fitness>
41.6991

> <Gold.PLP.PLP>
-36.6910

> <Gold.PLP.part.hbond>
-2.0000

> <Gold.PLP.part.metal>
0.0000

> <Gold.PLP.part.buried>
-3.2142

> <Gold.PLP.part.nonpolar>
-31.2474

> <Gold.PLP.part.repulsive>
0.3579

> <Gold.PLP.ligand.clash>
0.0000

> <Gold.PLP.ligand.torsion>
1.6772

> <Gold.PLP.Chemscore.Hbond>
2.7415

> <Gold.PLP.Chemscore.CHOScore>
0.0000

> <Gold.PLP.Chemscore.Metal>
0.0000

> <Gold.Chemscore.Hbonds>
donor molecule, donor type, donor heavy atom, donor atom, acceptor molecule, acceptor atom, score
      L1  H    16    43       P1  7948  2.00
      P1  H  7989  7998       L1     4  0.71

> <Gold.PLP.Chemscore.Internal.Correction>
0.1381

> <Gold.Rescore>
     Score         DG    S(hbond)    S(metal)    S(lipo)     H(rot)  DE(clash)    DE(int)     intcor
     13.29     -15.77       1.45        0.00      79.67       1.51       0.06       2.42       ----

> <Gold.Chemscore.Fitness>
13.2949

> <Gold.Chemscore.DG>
-15.7675

> <Gold.Chemscore.ZeroCoef>
-5.4800

> <Gold.Chemscore.Hbond>
1.4486

> <Gold.Chemscore.Metal>
0.0000

> <Gold.Chemscore.Lipo>
79.6740

> <Gold.Chemscore.Internal_Hbond>
0.0000

> <Gold.Chemscore.DEClash>
0.0565

> <Gold.Chemscore.DEInternal>
2.4161

> <Gold.Chemscore.Rot>
1.5128

> <Gold.Chemscore.Internal.Correction>
   9.000000E+99

> <Gold.Chemscore.Hbonds>
donor molecule, donor type, donor heavy atom, donor atom, acceptor molecule, acceptor atom, score
      L1  H    16    43       P1  7948  1.00
      P1  H  7989  7998       L1     4  0.10

> <Gold.Chemscore.Hbond.Weighted>
-4.8383

> <Gold.Chemscore.Metal.Weighted>
-0.0000

> <Gold.Chemscore.Lipo.Weighted>
-9.3219

> <Gold.Chemscore.Internal_Hbond.Weighted>
0.0000

> <Gold.Chemscore.DEClash.Weighted>
0.0565

> <Gold.Chemscore.DEInternal.Weighted>
2.4161

> <Gold.Chemscore.Rot.Weighted>
3.8726

> <Gold.Chemscore.Internal.Correction.Weighted>
   9.000000E+99

> <Gold.Protein.RotatedTorsions>
[ 6907 6896 6895 6894 ] final  -50.91 input  -60.11 | X-H torsion
[ 7974 7965 7964 7962 ] final -172.36 input  175.53 | X-H torsion
[ 8008 7997 7996 7995 ] final -130.71 input   59.86 | X-H torsion
[ 10167 10162 10161 10158 ] final -151.94 input  -65.29 | X-H torsion
[ 10718 10713 10712 10709 ] final  174.73 input   66.30 | X-H torsion
[ 10763 10752 10751 10750 ] final  -81.40 input  -60.55 | X-H torsion
[ 11005 11000 10999 10996 ] final  -41.27 input  -57.11 | X-H torsion

> <Gold.Protein.ActiveResidues>
 VAL166  LYS551  ARG553  GLY616  TRP617  ASP618  TYR619  PRO620  LYS621  CYS622 
 ASP623  PHE694  ASN695  SER759  ASP760  ASP761  ALA762  ILE779  LEU786  VAL792 
 PHE793  MET794  SER795  GLU796  ALA797  LYS798  CYS799  TRP800  GLU811  SER814 

> <Gold.Protein.RotatedAtoms>
  150.8662  134.8026  159.7120 H   0  0  0  0  0  0  0  0  0  0  0  0  # atno 6907 bound_to 6896
  152.4682  134.5020  159.9737 H   0  0  0  0  0  0  0  0  0  0  0  0  # atno 6908 bound_to 6896
  151.5116  133.3445  159.2921 H   0  0  0  0  0  0  0  0  0  0  0  0  # atno 6909 bound_to 6896
  144.7147  140.1784  143.6360 H   0  0  0  0  0  0  0  0  0  0  0  0  # atno 7974 bound_to 7965
  155.3002  140.0452  157.3029 H   0  0  0  0  0  0  0  0  0  0  0  0  # atno 8008 bound_to 7997
  154.5491  140.2312  155.8481 H   0  0  0  0  0  0  0  0  0  0  0  0  # atno 8009 bound_to 7997
  156.1951  140.3040  155.9417 H   0  0  0  0  0  0  0  0  0  0  0  0  # atno 8010 bound_to 7997
  139.7224  143.8937  152.2508 H   0  0  0  0  0  0  0  0  0  0  0  0  # atno 10167 bound_to 10162
  156.9453  131.0014  151.2960 H   0  0  0  0  0  0  0  0  0  0  0  0  # atno 10718 bound_to 10713
  154.5630  135.5628  153.7025 H   0  0  0  0  0  0  0  0  0  0  0  0  # atno 10763 bound_to 10752
  153.0024  135.6278  154.2218 H   0  0  0  0  0  0  0  0  0  0  0  0  # atno 10764 bound_to 10752
  154.2156  135.2872  155.2923 H   0  0  0  0  0  0  0  0  0  0  0  0  # atno 10765 bound_to 10752
  141.0234  133.6852  156.2434 H   0  0  0  0  0  0  0  0  0  0  0  0  # atno 11005 bound_to 11000
  145.8879  139.2359  143.1567 LP  0  0  0  0  0  0  0  0  0  0  0  0  # atno 17320 bound_to 7965
  145.9932  140.8585  143.0056 LP  0  0  0  0  0  0  0  0  0  0  0  0  # atno 17321 bound_to 7965
  139.8836  144.7004  150.8849 LP  0  0  0  0  0  0  0  0  0  0  0  0  # atno 17342 bound_to 10162
  140.7756  143.3641  151.1772 LP  0  0  0  0  0  0  0  0  0  0  0  0  # atno 17343 bound_to 10162
  157.5758  130.8342  149.8453 LP  0  0  0  0  0  0  0  0  0  0  0  0  # atno 17370 bound_to 10713
  156.0386  130.3744  150.1494 LP  0  0  0  0  0  0  0  0  0  0  0  0  # atno 17371 bound_to 10713
  140.6534  134.5044  157.5579 LP  0  0  0  0  0  0  0  0  0  0  0  0  # atno 17394 bound_to 11000
  139.9160  134.8245  156.1364 LP  0  0  0  0  0  0  0  0  0  0  0  0  # atno 17395 bound_to 11000

$$$$
