AV-unprocessed.smi:1867|AV-procd|sdf|7570|dock1
  -GOLD-   22720 9283D 1   1.00000     0.00000
 Structure written by MMmdl.
 53 56  0  0  0  0  0  0  0  0  3 V2000
  149.4429  135.2233  156.2460 O   0  0  0  0  0  0  0  0  0  0  0  0
  149.3885  135.5779  155.0710 C   0  0  0  0  0  0  0  0  0  0  0  0
  149.7155  136.8068  154.6251 N   0  0  0  0  0  0  0  0  0  0  0  0
  150.2453  137.9036  155.3568 C   0  0  0  0  0  0  0  0  0  0  0  0
  150.2005  139.1780  154.7533 C   0  0  0  0  0  0  0  0  0  0  0  0
  150.7130  140.2980  155.4394 C   0  0  0  0  0  0  0  0  0  0  0  0
  151.2584  140.1361  156.7348 C   0  0  0  0  0  0  0  0  0  0  0  0
  151.8031  141.2025  157.4738 N   0  0  0  0  0  0  0  0  0  0  0  0
  151.2921  142.5585  157.3710 C   0  0  0  0  0  0  0  0  0  0  0  0
  152.1116  143.3546  158.3862 C   0  0  0  0  0  0  0  0  0  0  0  0
  152.4075  142.3279  159.4808 C   0  0  0  0  0  0  0  0  0  0  0  0
  152.5148  140.9966  158.7277 C   0  0  0  0  0  0  0  0  0  0  0  0
  151.2661  138.8977  157.2824 N   0  3  0  0  0  0  0  0  0  0  0  0
  150.7875  137.7984  156.6603 C   0  0  0  0  0  0  0  0  0  0  0  0
  148.9873  134.7259  154.1101 N   0  0  0  0  0  0  0  0  0  0  0  0
  148.5634  133.3295  154.2354 C   0  0  2  0  0  0  0  0  0  0  0  0
  149.7366  132.3768  154.4388 C   0  0  0  0  0  0  0  0  0  0  0  0
  149.1387  131.0305  154.0298 C   0  0  0  0  0  0  0  0  0  0  0  0
  148.1825  131.3280  152.9398 N   0  3  1  0  0  0  0  0  0  0  0  0
  146.9908  130.4454  152.9052 C   0  0  0  0  0  0  0  0  0  0  0  0
  146.0674  130.8291  151.7351 C   0  0  0  0  0  0  0  0  0  0  0  0
  145.7206  132.3323  151.7085 C   0  0  0  0  0  0  0  0  0  0  0  0
  146.3924  133.1137  152.8493 C   0  0  0  0  0  0  0  0  0  0  0  0
  147.9016  132.7924  152.9519 C   0  0  1  0  0  0  0  0  0  0  0  0
  149.6594  136.9406  153.6264 H   0  0  0  0  0  0  0  0  0  0  0  0
  149.7850  139.3003  153.7636 H   0  0  0  0  0  0  0  0  0  0  0  0
  150.6836  141.2658  154.9613 H   0  0  0  0  0  0  0  0  0  0  0  0
  151.4041  142.9595  156.3631 H   0  0  0  0  0  0  0  0  0  0  0  0
  150.2337  142.5686  157.6347 H   0  0  0  0  0  0  0  0  0  0  0  0
  153.0462  143.6838  157.9294 H   0  0  0  0  0  0  0  0  0  0  0  0
  151.5888  144.2369  158.7563 H   0  0  0  0  0  0  0  0  0  0  0  0
  153.3052  142.5627  160.0536 H   0  0  0  0  0  0  0  0  0  0  0  0
  151.5686  142.2876  160.1767 H   0  0  0  0  0  0  0  0  0  0  0  0
  152.0928  140.1792  159.3138 H   0  0  0  0  0  0  0  0  0  0  0  0
  153.5562  140.7592  158.5073 H   0  0  0  0  0  0  0  0  0  0  0  0
  150.8544  136.8885  157.2371 H   0  0  0  0  0  0  0  0  0  0  0  0
  148.9520  135.1058  153.1746 H   0  0  0  0  0  0  0  0  0  0  0  0
  147.8910  133.1978  155.0853 H   0  0  0  0  0  0  0  0  0  0  0  0
  150.5609  132.6355  153.7718 H   0  0  0  0  0  0  0  0  0  0  0  0
  150.1148  132.3779  155.4616 H   0  0  0  0  0  0  0  0  0  0  0  0
  149.8968  130.3147  153.7108 H   0  0  0  0  0  0  0  0  0  0  0  0
  148.6100  130.5991  154.8815 H   0  0  0  0  0  0  0  0  0  0  0  0
  147.3115  129.4078  152.8033 H   0  0  0  0  0  0  0  0  0  0  0  0
  146.4498  130.5156  153.8504 H   0  0  0  0  0  0  0  0  0  0  0  0
  146.5509  130.5595  150.7950 H   0  0  0  0  0  0  0  0  0  0  0  0
  145.1531  130.2362  151.7811 H   0  0  0  0  0  0  0  0  0  0  0  0
  146.0346  132.7532  150.7524 H   0  0  0  0  0  0  0  0  0  0  0  0
  144.6397  132.4692  151.7565 H   0  0  0  0  0  0  0  0  0  0  0  0
  146.2442  134.1827  152.6954 H   0  0  0  0  0  0  0  0  0  0  0  0
  145.8949  132.8721  153.7897 H   0  0  0  0  0  0  0  0  0  0  0  0
  148.4126  133.2032  152.0793 H   0  0  0  0  0  0  0  0  0  0  0  0
  148.6783  131.1609  152.0755 H   0  0  0  0  0  0  0  0  0  0  0  0
  151.6569  138.7866  158.2181 H   0  0  0  0  0  0  0  0  0  0  0  0
  1  2  2  0  0  0  0
  2  3  1  0  0  0  0
  2 15  1  0  0  0  0
  3  4  1  0  0  0  0
  3 25  1  0  0  0  0
  4 14  1  0  0  0  0
  4  5  2  0  0  0  0
  5  6  1  0  0  0  0
  5 26  1  0  0  0  0
  6  7  2  0  0  0  0
  6 27  1  0  0  0  0
  7  8  1  0  0  0  0
  7 13  1  0  0  0  0
  8 12  1  0  0  0  0
  8  9  1  0  0  0  0
  9 10  1  0  0  0  0
  9 28  1  0  0  0  0
  9 29  1  0  0  0  0
 10 11  1  0  0  0  0
 10 30  1  0  0  0  0
 10 31  1  0  0  0  0
 11 12  1  0  0  0  0
 11 32  1  0  0  0  0
 11 33  1  0  0  0  0
 12 34  1  0  0  0  0
 12 35  1  0  0  0  0
 13 14  2  0  0  0  0
 13 53  1  0  0  0  0
 14 36  1  0  0  0  0
 15 16  1  0  0  0  0
 15 37  1  0  0  0  0
 16 24  1  0  0  0  0
 16 17  1  0  0  0  0
 16 38  1  0  0  0  0
 17 18  1  0  0  0  0
 17 39  1  0  0  0  0
 17 40  1  0  0  0  0
 18 19  1  0  0  0  0
 18 41  1  0  0  0  0
 18 42  1  0  0  0  0
 19 24  1  0  0  0  0
 19 20  1  0  0  0  0
 19 52  1  0  0  0  0
 20 21  1  0  0  0  0
 20 43  1  0  0  0  0
 20 44  1  0  0  0  0
 21 22  1  0  0  0  0
 21 45  1  0  0  0  0
 21 46  1  0  0  0  0
 22 23  1  0  0  0  0
 22 47  1  0  0  0  0
 22 48  1  0  0  0  0
 23 24  1  0  0  0  0
 23 49  1  0  0  0  0
 23 50  1  0  0  0  0
 24 51  1  0  0  0  0
M  CHG  1  13   1
M  CHG  1  19   1
M  END
> <s_m_source_file>
AV-unprocessed.smi

> <i_m_source_file_index>
1867

> <i_lp_mmshare_version>
43012

> <i_f3d_flags>
0

> <s_epik_input>
W0NIMl0xW0NIMl1bQ0gyXVtDSDJdW0NASF0oTjEyKVtDQEBIXShbQ0gyXVtDSDJdMilbTkhdQyg9TylbTkhdYzNbY0hdW2NIXWMobltjSF0zKU40W0NIMl1bQ0gyXVtDSDJdW0NIMl00

> <s_epik_cmdline>
J2VwaWtfcHl0aG9uJywgJy1waCcsICc3LjAnLCAnLXRuJywgJzgnLCAnLW1hJywgJzIwMCcsICctbWV0YWxfYmluZGluZycsICctaW1hZScsICc8aW5maWxlLm1hZT4nLCAnLW9tYWUnLCAnPG91dGZpbGUubWFlPic=

> <r_lp_tautomer_probability>
0.999994

> <r_epik_Ionization_Penalty>
1.27347

> <r_epik_Ionization_Penalty_Charging>
1.27345

> <r_epik_Ionization_Penalty_Neutral>
1.96458e-05

> <r_epik_State_Penalty>
1.34393

> <r_epik_Charging_Adjusted_Penalty>
2.61738

> <i_epik_Tot_Q>
2

> <i_epik_Tot_abs_Q>
2

> <r_epik_Metal_State_Penalty>
1.41094

> <b_epik_Metal_Only>
0

> <s_lp_Force_Field>
OPLS_2005

> <r_lp_Energy>
84.232

> <b_lp_Chiralities_Consistent>
1

> <s_lp_Variant>
AV-unprocessed.smi:1867-11

> <Gold.Version>
5.8.1

> <Gold.Id.Protein>
6NUR|6NUR_protein|mol2

> <Gold.PLP.Fitness>
50.6871

> <Gold.PLP.PLP>
-42.6057

> <Gold.PLP.part.hbond>
-3.0000

> <Gold.PLP.part.metal>
0.0000

> <Gold.PLP.part.buried>
-3.6215

> <Gold.PLP.part.nonpolar>
-35.1297

> <Gold.PLP.part.repulsive>
0.0930

> <Gold.PLP.ligand.clash>
0.0000

> <Gold.PLP.ligand.torsion>
0.4485

> <Gold.PLP.Chemscore.Hbond>
2.9440

> <Gold.PLP.Chemscore.CHOScore>
0.0000

> <Gold.PLP.Chemscore.Metal>
0.0000

> <Gold.Chemscore.Hbonds>
donor molecule, donor type, donor heavy atom, donor atom, acceptor molecule, acceptor atom, score
      L1  H     3    25       P1  7948  0.94
      L1  H    15    37       P1  7948  1.00
      L1  H    19    52       P1 10747  1.00

> <Gold.PLP.Chemscore.Internal.Correction>
0.1464

> <Gold.Rescore>
     Score         DG    S(hbond)    S(metal)    S(lipo)     H(rot)  DE(clash)    DE(int)     intcor
     22.86     -24.43       2.75        0.00     105.36       1.00       0.01       1.56       ----

> <Gold.Chemscore.Fitness>
22.8562

> <Gold.Chemscore.DG>
-24.4256

> <Gold.Chemscore.ZeroCoef>
-5.4800

> <Gold.Chemscore.Hbond>
2.7479

> <Gold.Chemscore.Metal>
0.0000

> <Gold.Chemscore.Lipo>
105.3633

> <Gold.Chemscore.Internal_Hbond>
0.0000

> <Gold.Chemscore.DEClash>
0.0115

> <Gold.Chemscore.DEInternal>
1.5578

> <Gold.Chemscore.Rot>
1.0000

> <Gold.Chemscore.Internal.Correction>
   9.000000E+99

> <Gold.Chemscore.Hbonds>
donor molecule, donor type, donor heavy atom, donor atom, acceptor molecule, acceptor atom, score
      L1  H     3    25       P1  7948  0.65
      L1  H    15    37       P1  7948  0.30
      L1  H    19    52       P1 10747  0.92

> <Gold.Chemscore.Hbond.Weighted>
-9.1781

> <Gold.Chemscore.Metal.Weighted>
-0.0000

> <Gold.Chemscore.Lipo.Weighted>
-12.3275

> <Gold.Chemscore.Internal_Hbond.Weighted>
0.0000

> <Gold.Chemscore.DEClash.Weighted>
0.0115

> <Gold.Chemscore.DEInternal.Weighted>
1.5578

> <Gold.Chemscore.Rot.Weighted>
2.5600

> <Gold.Chemscore.Internal.Correction.Weighted>
   9.000000E+99

> <Gold.Protein.RotatedTorsions>
[ 6907 6896 6895 6894 ] final -109.69 input  -60.11 | X-H torsion
[ 7974 7965 7964 7962 ] final   18.35 input  175.53 | X-H torsion
[ 8008 7997 7996 7995 ] final   78.78 input   59.86 | X-H torsion
[ 10167 10162 10161 10158 ] final  -17.80 input  -65.29 | X-H torsion
[ 10718 10713 10712 10709 ] final -111.32 input   66.30 | X-H torsion
[ 10763 10752 10751 10750 ] final -160.20 input  -60.55 | X-H torsion
[ 11005 11000 10999 10996 ] final  -87.96 input  -57.11 | X-H torsion

> <Gold.Protein.ActiveResidues>
 VAL166  LYS551  ARG553  GLY616  TRP617  ASP618  TYR619  PRO620  LYS621  CYS622 
 ASP623  PHE694  ASN695  SER759  ASP760  ASP761  ALA762  ILE779  LEU786  VAL792 
 PHE793  MET794  SER795  GLU796  ALA797  LYS798  CYS799  TRP800  GLU811  SER814 

> <Gold.Protein.RotatedAtoms>
  150.7578  133.9492  159.3480 H   0  0  0  0  0  0  0  0  0  0  0  0  # atno 6907 bound_to 6896
  151.7407  135.0853  160.0324 H   0  0  0  0  0  0  0  0  0  0  0  0  # atno 6908 bound_to 6896
  152.3530  133.6165  159.5994 H   0  0  0  0  0  0  0  0  0  0  0  0  # atno 6909 bound_to 6896
  146.2188  139.8470  142.8630 H   0  0  0  0  0  0  0  0  0  0  0  0  # atno 7974 bound_to 7965
  155.8605  140.3454  155.5753 H   0  0  0  0  0  0  0  0  0  0  0  0  # atno 8008 bound_to 7997
  155.7938  140.0875  157.2014 H   0  0  0  0  0  0  0  0  0  0  0  0  # atno 8009 bound_to 7997
  154.4011  140.1478  156.3182 H   0  0  0  0  0  0  0  0  0  0  0  0  # atno 8010 bound_to 7997
  140.7251  143.4980  150.9906 H   0  0  0  0  0  0  0  0  0  0  0  0  # atno 10167 bound_to 10162
  156.0640  130.5861  150.8357 H   0  0  0  0  0  0  0  0  0  0  0  0  # atno 10718 bound_to 10713
  154.7410  135.3069  154.8727 H   0  0  0  0  0  0  0  0  0  0  0  0  # atno 10763 bound_to 10752
  153.9542  135.6760  153.4748 H   0  0  0  0  0  0  0  0  0  0  0  0  # atno 10764 bound_to 10752
  153.1009  135.4912  154.8790 H   0  0  0  0  0  0  0  0  0  0  0  0  # atno 10765 bound_to 10752
  141.1609  133.7542  156.9383 H   0  0  0  0  0  0  0  0  0  0  0  0  # atno 11005 bound_to 11000
  145.2840  141.0147  143.3701 LP  0  0  0  0  0  0  0  0  0  0  0  0  # atno 17320 bound_to 7965
  144.9128  139.4507  143.6579 LP  0  0  0  0  0  0  0  0  0  0  0  0  # atno 17321 bound_to 7965
  139.8688  143.7220  152.3168 LP  0  0  0  0  0  0  0  0  0  0  0  0  # atno 17342 bound_to 10162
  139.7461  144.7547  151.0578 LP  0  0  0  0  0  0  0  0  0  0  0  0  # atno 17343 bound_to 10162
  157.5669  131.0946  150.9476 LP  0  0  0  0  0  0  0  0  0  0  0  0  # atno 17370 bound_to 10713
  156.9700  130.5487  149.5290 LP  0  0  0  0  0  0  0  0  0  0  0  0  # atno 17371 bound_to 10713
  140.1339  134.9338  157.2375 LP  0  0  0  0  0  0  0  0  0  0  0  0  # atno 17394 bound_to 11000
  140.2919  134.3231  155.7313 LP  0  0  0  0  0  0  0  0  0  0  0  0  # atno 17395 bound_to 11000

$$$$
