AV-unprocessed.smi:3315|AV-procd|sdf|12749|dock3
  -GOLD-   2272019 83D 1   1.00000     0.00000
 Structure written by MMmdl.
 37 38  0  0  0  0  0  0  0  0  1 V2000
  152.1767  139.7403  155.9241 C   0  0  0  0  0  0  0  0  0  0  0  0
  151.3268  140.2064  154.8839 O   0  0  0  0  0  0  0  0  0  0  0  0
  149.9228  140.1577  155.1428 C   0  0  1  0  0  0  0  0  0  0  0  0
  149.5517  141.1816  156.2268 C   0  0  0  0  0  0  0  0  0  0  0  0
  149.0921  140.1475  153.8464 C   0  0  0  0  0  0  0  0  0  0  0  0
  148.2461  139.0579  154.5019 C   0  0  1  0  0  0  0  0  0  0  0  0
  147.7978  138.0451  153.5522 N   0  0  0  0  0  0  0  0  0  0  0  0
  146.5323  137.6184  153.4424 C   0  0  0  0  0  0  0  0  0  0  0  0
  145.6118  138.0451  154.1396 O   0  0  0  0  0  0  0  0  0  0  0  0
  146.4170  136.6799  152.4878 N   0  0  0  0  0  0  0  0  0  0  0  0
  145.2507  135.9937  152.0609 C   0  0  0  0  0  0  0  0  0  0  0  0
  145.1205  135.2001  150.8838 C   0  0  0  0  0  0  0  0  0  0  0  0
  143.8237  134.7762  150.9479 C   0  0  0  0  0  0  0  0  0  0  0  0
  143.2125  135.2646  152.0593 O   0  0  0  0  0  0  0  0  0  0  0  0
  144.1350  136.0451  152.7665 N   0  0  0  0  0  0  0  0  0  0  0  0
  149.4941  138.6661  155.3339 C   0  0  0  0  0  0  0  0  0  0  0  0
  150.4326  137.6060  154.7223 C   0  0  0  0  0  0  0  0  0  0  0  0
  149.2217  138.2048  156.7692 C   0  0  0  0  0  0  0  0  0  0  0  0
  153.2137  139.9277  155.6464 H   0  0  0  0  0  0  0  0  0  0  0  0
  152.0738  138.6674  156.0830 H   0  0  0  0  0  0  0  0  0  0  0  0
  151.9900  140.2551  156.8668 H   0  0  0  0  0  0  0  0  0  0  0  0
  148.5155  141.0760  156.5476 H   0  0  0  0  0  0  0  0  0  0  0  0
  149.6587  142.2064  155.8726 H   0  0  0  0  0  0  0  0  0  0  0  0
  150.1800  141.0685  157.1106 H   0  0  0  0  0  0  0  0  0  0  0  0
  148.5549  141.0736  153.6403 H   0  0  0  0  0  0  0  0  0  0  0  0
  149.6481  139.8056  152.9713 H   0  0  0  0  0  0  0  0  0  0  0  0
  147.4422  139.4806  155.1092 H   0  0  0  0  0  0  0  0  0  0  0  0
  148.4968  137.6445  152.9439 H   0  0  0  0  0  0  0  0  0  0  0  0
  147.2649  136.4313  151.9998 H   0  0  0  0  0  0  0  0  0  0  0  0
  145.8419  134.9698  150.1147 H   0  0  0  0  0  0  0  0  0  0  0  0
  143.2163  134.1519  150.3096 H   0  0  0  0  0  0  0  0  0  0  0  0
  149.9749  136.6162  154.7190 H   0  0  0  0  0  0  0  0  0  0  0  0
  151.3641  137.5276  155.2839 H   0  0  0  0  0  0  0  0  0  0  0  0
  150.7015  137.8358  153.6914 H   0  0  0  0  0  0  0  0  0  0  0  0
  148.8630  137.1753  156.7986 H   0  0  0  0  0  0  0  0  0  0  0  0
  148.4601  138.8131  157.2565 H   0  0  0  0  0  0  0  0  0  0  0  0
  150.1220  138.2580  157.3821 H   0  0  0  0  0  0  0  0  0  0  0  0
  1  2  1  0  0  0  0
  1 19  1  0  0  0  0
  1 20  1  0  0  0  0
  1 21  1  0  0  0  0
  2  3  1  0  0  0  0
  3 16  1  0  0  0  0
  3  4  1  0  0  0  0
  3  5  1  0  0  0  0
  4 22  1  0  0  0  0
  4 23  1  0  0  0  0
  4 24  1  0  0  0  0
  5  6  1  0  0  0  0
  5 25  1  0  0  0  0
  5 26  1  0  0  0  0
  6  7  1  0  0  0  0
  6 16  1  0  0  0  0
  6 27  1  0  0  0  0
  7  8  1  0  0  0  0
  7 28  1  0  0  0  0
  8  9  2  0  0  0  0
  8 10  1  0  0  0  0
 10 11  1  0  0  0  0
 10 29  1  0  0  0  0
 11 15  2  0  0  0  0
 11 12  1  0  0  0  0
 12 13  2  0  0  0  0
 12 30  1  0  0  0  0
 13 14  1  0  0  0  0
 13 31  1  0  0  0  0
 14 15  1  0  0  0  0
 16 17  1  0  0  0  0
 16 18  1  0  0  0  0
 17 32  1  0  0  0  0
 17 33  1  0  0  0  0
 17 34  1  0  0  0  0
 18 35  1  0  0  0  0
 18 36  1  0  0  0  0
 18 37  1  0  0  0  0
M  END
> <s_m_source_file>
AV-unprocessed.smi

> <i_m_source_file_index>
3315

> <i_lp_mmshare_version>
43012

> <i_f3d_flags>
0

> <s_epik_input>
W0NIM11PW0NAQF0xKFtDSDNdKVtDSDJdW0NASF0oQzEoW0NIM10pW0NIM10pW05IXUMoPU8pW05IXWMyW2NIXVtjSF1vbjI=

> <s_epik_cmdline>
J2VwaWtfcHl0aG9uJywgJy1waCcsICc3LjAnLCAnLXRuJywgJzgnLCAnLW1hJywgJzIwMCcsICctbWV0YWxfYmluZGluZycsICctaW1hZScsICc8aW5maWxlLm1hZT4nLCAnLW9tYWUnLCAnPG91dGZpbGUubWFlPic=

> <r_lp_tautomer_probability>
1

> <r_epik_Ionization_Penalty>
2.28875e-05

> <r_epik_Ionization_Penalty_Charging>
0

> <r_epik_Ionization_Penalty_Neutral>
2.28875e-05

> <r_epik_State_Penalty>
-0

> <r_epik_Charging_Adjusted_Penalty>
0

> <i_epik_Tot_Q>
0

> <i_epik_Tot_abs_Q>
0

> <r_epik_Metal_State_Penalty>
-0

> <b_epik_Metal_Only>
0

> <s_lp_Force_Field>
OPLS_2005

> <r_lp_Energy>
23.7909

> <b_lp_Chiralities_Consistent>
1

> <s_lp_Variant>
AV-unprocessed.smi:3315-1

> <Gold.Version>
5.8.1

> <Gold.Id.Protein>
6NUR|6NUR_protein|mol2

> <Gold.PLP.Fitness>
32.9050

> <Gold.PLP.PLP>
-21.2109

> <Gold.PLP.part.hbond>
-2.9754

> <Gold.PLP.part.metal>
0.0000

> <Gold.PLP.part.buried>
0.1526

> <Gold.PLP.part.nonpolar>
-19.4410

> <Gold.PLP.part.repulsive>
0.5293

> <Gold.PLP.ligand.clash>
0.0000

> <Gold.PLP.ligand.torsion>
0.2775

> <Gold.PLP.Chemscore.Hbond>
2.9600

> <Gold.PLP.Chemscore.CHOScore>
1.0000

> <Gold.PLP.Chemscore.Metal>
0.0000

> <Gold.Chemscore.Hbonds>
donor molecule, donor type, donor heavy atom, donor atom, acceptor molecule, acceptor atom, score
      L1  H     7    28       P1  7948  0.94
      L1  H    10    29       P1  7948  1.00
      P1  H  7989  7998       L1     2  1.00
      L1  C    13    31       P1 10186  1.00

> <Gold.PLP.Chemscore.Internal.Correction>
0.3691

> <Gold.Rescore>
     Score         DG    S(hbond)    S(metal)    S(lipo)     H(rot)  DE(clash)    DE(int)     intcor
     15.75     -17.39       2.89        0.00      47.92       1.30       0.08       1.56       ----

> <Gold.Chemscore.Fitness>
15.7486

> <Gold.Chemscore.DG>
-17.3851

> <Gold.Chemscore.ZeroCoef>
-5.4800

> <Gold.Chemscore.Hbond>
2.8852

> <Gold.Chemscore.Metal>
0.0000

> <Gold.Chemscore.Lipo>
47.9168

> <Gold.Chemscore.Internal_Hbond>
0.0000

> <Gold.Chemscore.DEClash>
0.0766

> <Gold.Chemscore.DEInternal>
1.5599

> <Gold.Chemscore.Rot>
1.3038

> <Gold.Chemscore.Internal.Correction>
   9.000000E+99

> <Gold.Chemscore.Hbonds>
donor molecule, donor type, donor heavy atom, donor atom, acceptor molecule, acceptor atom, score
      L1  H     7    28       P1  7948  0.92
      L1  H    10    29       P1  7948  0.98
      P1  H  7989  7998       L1     2  0.78

> <Gold.Chemscore.Hbond.Weighted>
-9.6366

> <Gold.Chemscore.Metal.Weighted>
-0.0000

> <Gold.Chemscore.Lipo.Weighted>
-5.6063

> <Gold.Chemscore.Internal_Hbond.Weighted>
0.0000

> <Gold.Chemscore.DEClash.Weighted>
0.0766

> <Gold.Chemscore.DEInternal.Weighted>
1.5599

> <Gold.Chemscore.Rot.Weighted>
3.3377

> <Gold.Chemscore.Internal.Correction.Weighted>
   9.000000E+99

> <Gold.Protein.RotatedTorsions>
[ 6907 6896 6895 6894 ] final   -1.90 input  -60.11 | X-H torsion
[ 7974 7965 7964 7962 ] final  -81.84 input  175.53 | X-H torsion
[ 8008 7997 7996 7995 ] final -147.97 input   59.86 | X-H torsion
[ 10167 10162 10161 10158 ] final  -21.07 input  -65.29 | X-H torsion
[ 10718 10713 10712 10709 ] final   59.96 input   66.30 | X-H torsion
[ 10763 10752 10751 10750 ] final  -96.76 input  -60.55 | X-H torsion
[ 11005 11000 10999 10996 ] final  -17.81 input  -57.11 | X-H torsion

> <Gold.Protein.ActiveResidues>
 VAL166  LYS551  ARG553  GLY616  TRP617  ASP618  TYR619  PRO620  LYS621  CYS622 
 ASP623  PHE694  ASN695  SER759  ASP760  ASP761  ALA762  ILE779  LEU786  VAL792 
 PHE793  MET794  SER795  GLU796  ALA797  LYS798  CYS799  TRP800  GLU811  SER814 

> <Gold.Protein.RotatedAtoms>
  151.5386  135.1068  159.9920 H   0  0  0  0  0  0  0  0  0  0  0  0  # atno 6907 bound_to 6896
  152.4546  133.7693  159.6800 H   0  0  0  0  0  0  0  0  0  0  0  0  # atno 6908 bound_to 6896
  150.8485  133.7758  159.3059 H   0  0  0  0  0  0  0  0  0  0  0  0  # atno 6909 bound_to 6896
  145.5412  140.9509  143.1550 H   0  0  0  0  0  0  0  0  0  0  0  0  # atno 7974 bound_to 7965
  155.5841  140.0646  157.2776 H   0  0  0  0  0  0  0  0  0  0  0  0  # atno 8008 bound_to 7997
  154.4324  140.1847  156.1053 H   0  0  0  0  0  0  0  0  0  0  0  0  # atno 8009 bound_to 7997
  156.0283  140.3309  155.7115 H   0  0  0  0  0  0  0  0  0  0  0  0  # atno 8010 bound_to 7997
  140.7280  143.4663  151.0309 H   0  0  0  0  0  0  0  0  0  0  0  0  # atno 10167 bound_to 10162
  157.5716  130.8912  149.9276 H   0  0  0  0  0  0  0  0  0  0  0  0  # atno 10718 bound_to 10713
  154.7268  135.5072  153.8899 H   0  0  0  0  0  0  0  0  0  0  0  0  # atno 10763 bound_to 10752
  153.0912  135.6659  153.9859 H   0  0  0  0  0  0  0  0  0  0  0  0  # atno 10764 bound_to 10752
  153.9670  135.3042  155.3409 H   0  0  0  0  0  0  0  0  0  0  0  0  # atno 10765 bound_to 10752
  140.8206  133.8071  155.9655 H   0  0  0  0  0  0  0  0  0  0  0  0  # atno 11005 bound_to 11000
  144.7576  139.7036  143.7248 LP  0  0  0  0  0  0  0  0  0  0  0  0  # atno 17320 bound_to 7965
  146.1979  139.5257  142.9762 LP  0  0  0  0  0  0  0  0  0  0  0  0  # atno 17321 bound_to 7965
  139.8351  143.7638  152.3180 LP  0  0  0  0  0  0  0  0  0  0  0  0  # atno 17342 bound_to 10162
  139.7768  144.7458  151.0146 LP  0  0  0  0  0  0  0  0  0  0  0  0  # atno 17343 bound_to 10162
  156.0761  130.3678  150.0674 LP  0  0  0  0  0  0  0  0  0  0  0  0  # atno 17370 bound_to 10713
  156.8826  130.9562  151.3597 LP  0  0  0  0  0  0  0  0  0  0  0  0  # atno 17371 bound_to 10713
  140.9103  134.2269  157.4990 LP  0  0  0  0  0  0  0  0  0  0  0  0  # atno 17394 bound_to 11000
  139.8709  134.9747  156.4856 LP  0  0  0  0  0  0  0  0  0  0  0  0  # atno 17395 bound_to 11000

$$$$
