AV-unprocessed.smi:1695|AV-procd|sdf|6798|dock9
  -GOLD-   22720 7563D 1   1.00000     0.00000
 Structure written by MMmdl.
 50 52  0  0  0  0  0  0  0  0  1 V2000
  153.7383  142.2391  162.4045 C   0  0  0  0  0  0  0  0  0  0  0  0
  153.2022  141.9216  161.0197 C   0  0  0  0  0  0  0  0  0  0  0  0
  153.6220  140.7359  160.3756 C   0  0  0  0  0  0  0  0  0  0  0  0
  153.1484  140.4047  159.0871 C   0  0  0  0  0  0  0  0  0  0  0  0
  153.4219  139.3120  158.2822 N   0  0  0  0  0  0  0  0  0  0  0  0
  152.6810  139.5774  157.2098 C   0  0  0  0  0  0  0  0  0  0  0  0
  151.9587  140.7142  157.2258 N   0  0  0  0  0  0  0  0  0  0  0  0
  151.0806  141.2113  156.1819 C   0  0  0  0  0  0  0  0  0  0  0  0
  149.6380  141.4253  156.6775 C   0  0  1  0  0  0  0  0  0  0  0  0
  149.5079  142.7457  157.1674 O   0  0  0  0  0  0  0  0  0  0  0  0
  148.6158  141.2226  155.5410 C   0  0  0  0  0  0  0  0  0  0  0  0
  147.5902  142.2613  155.4164 N   0  0  0  0  0  0  0  0  0  0  0  0
  146.5855  142.1885  156.4826 C   0  0  0  0  0  0  0  0  0  0  0  0
  145.5299  143.3026  156.3785 C   0  0  0  0  0  0  0  0  0  0  0  0
  144.8242  143.2585  155.0087 C   0  0  0  0  0  0  0  0  0  0  0  0
  143.8279  144.4156  154.8552 C   0  0  0  0  0  0  0  0  0  0  0  0
  142.9793  144.3557  153.8257 N   0  0  0  0  0  0  0  0  0  0  0  0
  143.8212  145.3514  155.6530 O   0  0  0  0  0  0  0  0  0  0  0  0
  145.8904  143.2854  153.8959 C   0  0  0  0  0  0  0  0  0  0  0  0
  146.9276  142.1712  154.1148 C   0  0  0  0  0  0  0  0  0  0  0  0
  152.2362  141.2998  158.4557 C   0  0  0  0  0  0  0  0  0  0  0  0
  151.8113  142.4827  159.0858 C   0  0  0  0  0  0  0  0  0  0  0  0
  152.2942  142.7985  160.3731 C   0  0  0  0  0  0  0  0  0  0  0  0
  151.8291  144.0779  161.0458 C   0  0  0  0  0  0  0  0  0  0  0  0
  154.3758  141.4375  162.7783 H   0  0  0  0  0  0  0  0  0  0  0  0
  152.9199  142.3709  163.1122 H   0  0  0  0  0  0  0  0  0  0  0  0
  154.3293  143.1547  162.3827 H   0  0  0  0  0  0  0  0  0  0  0  0
  154.3143  140.0685  160.8673 H   0  0  0  0  0  0  0  0  0  0  0  0
  152.6627  138.9080  156.3621 H   0  0  0  0  0  0  0  0  0  0  0  0
  151.4933  142.1418  155.7892 H   0  0  0  0  0  0  0  0  0  0  0  0
  151.0938  140.4935  155.3607 H   0  0  0  0  0  0  0  0  0  0  0  0
  149.4522  140.7338  157.4978 H   0  0  0  0  0  0  0  0  0  0  0  0
  149.2354  143.3013  156.4528 H   0  0  0  0  0  0  0  0  0  0  0  0
  149.1703  141.1466  154.6043 H   0  0  0  0  0  0  0  0  0  0  0  0
  148.1249  140.2564  155.6686 H   0  0  0  0  0  0  0  0  0  0  0  0
  146.0913  141.2159  156.4596 H   0  0  0  0  0  0  0  0  0  0  0  0
  147.0593  142.2690  157.4593 H   0  0  0  0  0  0  0  0  0  0  0  0
  144.8001  143.1935  157.1819 H   0  0  0  0  0  0  0  0  0  0  0  0
  146.0138  144.2694  156.5280 H   0  0  0  0  0  0  0  0  0  0  0  0
  144.2784  142.3158  154.9356 H   0  0  0  0  0  0  0  0  0  0  0  0
  142.3061  145.0942  153.6821 H   0  0  0  0  0  0  0  0  0  0  0  0
  143.0157  143.5701  153.1922 H   0  0  0  0  0  0  0  0  0  0  0  0
  145.4197  143.1613  152.9201 H   0  0  0  0  0  0  0  0  0  0  0  0
  146.3983  144.2511  153.8756 H   0  0  0  0  0  0  0  0  0  0  0  0
  147.6723  142.2289  153.3201 H   0  0  0  0  0  0  0  0  0  0  0  0
  146.4436  141.1987  154.0125 H   0  0  0  0  0  0  0  0  0  0  0  0
  151.1197  143.1410  158.5810 H   0  0  0  0  0  0  0  0  0  0  0  0
  151.1683  144.6516  160.3955 H   0  0  0  0  0  0  0  0  0  0  0  0
  152.6805  144.7102  161.2983 H   0  0  0  0  0  0  0  0  0  0  0  0
  151.2824  143.8497  161.9611 H   0  0  0  0  0  0  0  0  0  0  0  0
  1  2  1  0  0  0  0
  1 25  1  0  0  0  0
  1 26  1  0  0  0  0
  1 27  1  0  0  0  0
  2 23  1  0  0  0  0
  2  3  2  0  0  0  0
  3  4  1  0  0  0  0
  3 28  1  0  0  0  0
  4 21  2  0  0  0  0
  4  5  1  0  0  0  0
  5  6  2  0  0  0  0
  6  7  1  0  0  0  0
  6 29  1  0  0  0  0
  7  8  1  0  0  0  0
  7 21  1  0  0  0  0
  8  9  1  0  0  0  0
  8 30  1  0  0  0  0
  8 31  1  0  0  0  0
  9 10  1  0  0  0  0
  9 11  1  0  0  0  0
  9 32  1  0  0  0  0
 10 33  1  0  0  0  0
 11 12  1  0  0  0  0
 11 34  1  0  0  0  0
 11 35  1  0  0  0  0
 12 20  1  0  0  0  0
 12 13  1  0  0  0  0
 13 14  1  0  0  0  0
 13 36  1  0  0  0  0
 13 37  1  0  0  0  0
 14 15  1  0  0  0  0
 14 38  1  0  0  0  0
 14 39  1  0  0  0  0
 15 16  1  0  0  0  0
 15 19  1  0  0  0  0
 15 40  1  0  0  0  0
 16 17  1  0  0  0  0
 16 18  2  0  0  0  0
 17 41  1  0  0  0  0
 17 42  1  0  0  0  0
 19 20  1  0  0  0  0
 19 43  1  0  0  0  0
 19 44  1  0  0  0  0
 20 45  1  0  0  0  0
 20 46  1  0  0  0  0
 21 22  1  0  0  0  0
 22 23  2  0  0  0  0
 22 47  1  0  0  0  0
 23 24  1  0  0  0  0
 24 48  1  0  0  0  0
 24 49  1  0  0  0  0
 24 50  1  0  0  0  0
M  END
> <s_m_source_file>
AV-unprocessed.smi

> <i_m_source_file_index>
1695

> <i_lp_mmshare_version>
43012

> <i_f3d_flags>
0

> <s_epik_input>
W0NIM11jKFtjSF0xKWMoW0NIM10pW2NIXWMoYzEyKW4oW2NIXW4yKVtDSDJdW0NASF0oW09IXSlbQ0gyXU4zW0NIMl1bQ0gyXVtDSF0oQyg9TylbTkgyXSlbQ0gyXVtDSDJdMw==

> <s_epik_cmdline>
J2VwaWtfcHl0aG9uJywgJy1waCcsICc3LjAnLCAnLXRuJywgJzgnLCAnLW1hJywgJzIwMCcsICctbWV0YWxfYmluZGluZycsICctaW1hZScsICc8aW5maWxlLm1hZT4nLCAnLW9tYWUnLCAnPG91dGZpbGUubWFlPic=

> <r_epik_Ionization_Penalty>
1.9508

> <r_epik_Ionization_Penalty_Charging>
0

> <r_epik_Ionization_Penalty_Neutral>
1.9508

> <r_epik_State_Penalty>
2.03746

> <r_epik_Charging_Adjusted_Penalty>
2.03746

> <i_epik_Tot_Q>
0

> <i_epik_Tot_abs_Q>
0

> <r_epik_Metal_State_Penalty>
2.03012

> <b_epik_Metal_Only>
0

> <s_lp_Force_Field>
OPLS_2005

> <r_lp_Energy>
30.7191

> <b_lp_Chiralities_Consistent>
1

> <s_lp_Variant>
AV-unprocessed.smi:1695-10

> <Gold.Version>
5.8.1

> <Gold.Id.Protein>
6NUR|6NUR_protein|mol2

> <Gold.PLP.Fitness>
51.7353

> <Gold.PLP.PLP>
-47.2595

> <Gold.PLP.part.hbond>
-2.8385

> <Gold.PLP.part.metal>
0.0000

> <Gold.PLP.part.buried>
-5.3269

> <Gold.PLP.part.nonpolar>
-39.6991

> <Gold.PLP.part.repulsive>
2.5730

> <Gold.PLP.ligand.clash>
0.0000

> <Gold.PLP.ligand.torsion>
1.3787

> <Gold.PLP.Chemscore.Hbond>
2.4036

> <Gold.PLP.Chemscore.CHOScore>
0.0000

> <Gold.PLP.Chemscore.Metal>
0.0000

> <Gold.Chemscore.Hbonds>
donor molecule, donor type, donor heavy atom, donor atom, acceptor molecule, acceptor atom, score
      L1  H    10    33       P1  8028  1.00
      L1  H    17    42       P1 10174  1.00
      P1  H  7997  8010       L1     5  0.34

> <Gold.PLP.Chemscore.Internal.Correction>
0.0225

> <Gold.Rescore>
     Score         DG    S(hbond)    S(metal)    S(lipo)     H(rot)  DE(clash)    DE(int)     intcor
     15.03     -18.53       1.98        0.00     116.02       2.78       1.14       2.37       ----

> <Gold.Chemscore.Fitness>
15.0253

> <Gold.Chemscore.DG>
-18.5291

> <Gold.Chemscore.ZeroCoef>
-5.4800

> <Gold.Chemscore.Hbond>
1.9774

> <Gold.Chemscore.Metal>
0.0000

> <Gold.Chemscore.Lipo>
116.0166

> <Gold.Chemscore.Internal_Hbond>
0.0000

> <Gold.Chemscore.DEClash>
1.1371

> <Gold.Chemscore.DEInternal>
2.3666

> <Gold.Chemscore.Rot>
2.7849

> <Gold.Chemscore.Internal.Correction>
   9.000000E+99

> <Gold.Chemscore.Hbonds>
donor molecule, donor type, donor heavy atom, donor atom, acceptor molecule, acceptor atom, score
      L1  H    10    33       P1  8028  0.99
      L1  H    17    42       P1 10174  0.94

> <Gold.Chemscore.Hbond.Weighted>
-6.6046

> <Gold.Chemscore.Metal.Weighted>
-0.0000

> <Gold.Chemscore.Lipo.Weighted>
-13.5739

> <Gold.Chemscore.Internal_Hbond.Weighted>
0.0000

> <Gold.Chemscore.DEClash.Weighted>
1.1371

> <Gold.Chemscore.DEInternal.Weighted>
2.3666

> <Gold.Chemscore.Rot.Weighted>
7.1294

> <Gold.Chemscore.Internal.Correction.Weighted>
   9.000000E+99

> <Gold.Protein.RotatedTorsions>
[ 6907 6896 6895 6894 ] final    5.56 input  -60.11 | X-H torsion
[ 7974 7965 7964 7962 ] final  -94.66 input  175.53 | X-H torsion
[ 8008 7997 7996 7995 ] final    8.67 input   59.86 | X-H torsion
[ 10167 10162 10161 10158 ] final -164.87 input  -65.29 | X-H torsion
[ 10718 10713 10712 10709 ] final   36.19 input   66.30 | X-H torsion
[ 10763 10752 10751 10750 ] final -123.41 input  -60.55 | X-H torsion
[ 11005 11000 10999 10996 ] final -176.07 input  -57.11 | X-H torsion

> <Gold.Protein.ActiveResidues>
 VAL166  LYS551  ARG553  GLY616  TRP617  ASP618  TYR619  PRO620  LYS621  CYS622 
 ASP623  PHE694  ASN695  SER759  ASP760  ASP761  ALA762  ILE779  LEU786  VAL792 
 PHE793  MET794  SER795  GLU796  ALA797  LYS798  CYS799  TRP800  GLU811  SER814 

> <Gold.Protein.RotatedAtoms>
  151.6595  135.0991  160.0176 H   0  0  0  0  0  0  0  0  0  0  0  0  # atno 6907 bound_to 6896
  152.3955  133.6736  159.6281 H   0  0  0  0  0  0  0  0  0  0  0  0  # atno 6908 bound_to 6896
  150.7863  133.8798  159.3324 H   0  0  0  0  0  0  0  0  0  0  0  0  # atno 6909 bound_to 6896
  145.3703  140.9504  143.2451 H   0  0  0  0  0  0  0  0  0  0  0  0  # atno 7974 bound_to 7965
  154.7699  140.2800  155.6146 H   0  0  0  0  0  0  0  0  0  0  0  0  # atno 8008 bound_to 7997
  156.2932  140.2643  156.2427 H   0  0  0  0  0  0  0  0  0  0  0  0  # atno 8009 bound_to 7997
  154.9912  140.0373  157.2310 H   0  0  0  0  0  0  0  0  0  0  0  0  # atno 8010 bound_to 7997
  139.6221  144.0604  152.1942 H   0  0  0  0  0  0  0  0  0  0  0  0  # atno 10167 bound_to 10162
  157.3318  130.7502  149.6852 H   0  0  0  0  0  0  0  0  0  0  0  0  # atno 10718 bound_to 10713
  154.8707  135.4099  154.2940 H   0  0  0  0  0  0  0  0  0  0  0  0  # atno 10763 bound_to 10752
  153.3811  135.7011  153.6570 H   0  0  0  0  0  0  0  0  0  0  0  0  # atno 10764 bound_to 10752
  153.5392  135.3651  155.2682 H   0  0  0  0  0  0  0  0  0  0  0  0  # atno 10765 bound_to 10752
  140.4562  134.6297  157.4823 H   0  0  0  0  0  0  0  0  0  0  0  0  # atno 11005 bound_to 11000
  144.8581  139.5219  143.6825 LP  0  0  0  0  0  0  0  0  0  0  0  0  # atno 17320 bound_to 7965
  146.2888  139.7080  142.9176 LP  0  0  0  0  0  0  0  0  0  0  0  0  # atno 17321 bound_to 7965
  140.0248  144.6125  150.7536 LP  0  0  0  0  0  0  0  0  0  0  0  0  # atno 17342 bound_to 10162
  140.7388  143.2783  151.3674 LP  0  0  0  0  0  0  0  0  0  0  0  0  # atno 17343 bound_to 10162
  155.9697  130.4193  150.4368 LP  0  0  0  0  0  0  0  0  0  0  0  0  # atno 17370 bound_to 10713
  157.2401  131.0523  151.2441 LP  0  0  0  0  0  0  0  0  0  0  0  0  # atno 17371 bound_to 10713
  139.9975  134.6889  155.9585 LP  0  0  0  0  0  0  0  0  0  0  0  0  # atno 17394 bound_to 11000
  141.1642  133.6537  156.4422 LP  0  0  0  0  0  0  0  0  0  0  0  0  # atno 17395 bound_to 11000

$$$$
