AV-unprocessed.smi:2556|AV-procd|sdf|10025|dock4
  -GOLD-   2272014 73D 1   1.00000     0.00000
 Structure written by MMmdl.
 34 36  0  0  0  0  0  0  0  0  2 V2000
  150.0133  139.0990  154.4039 C   0  0  0  0  0  0  0  0  0  0  0  0
  151.1110  138.9324  155.3606 N   0  0  0  0  0  0  0  0  0  0  0  0
  152.1653  138.1006  155.0854 C   0  0  0  0  0  0  0  0  0  0  0  0
  152.1666  137.4936  154.0135 O   0  0  0  0  0  0  0  0  0  0  0  0
  153.1872  137.9623  156.0006 N   0  5  0  0  0  0  0  0  0  0  0  0
  153.2739  138.5944  157.2139 C   0  0  0  0  0  0  0  0  0  0  0  0
  154.1794  138.4859  158.0384 O   0  0  0  0  0  0  0  0  0  0  0  0
  152.1127  139.4745  157.4652 C   0  0  0  0  0  0  0  0  0  0  0  0
  151.0810  139.6438  156.5914 C   0  0  0  0  0  0  0  0  0  0  0  0
  150.1335  140.5324  157.0890 N   0  0  0  0  0  0  0  0  0  0  0  0
  150.6566  140.8635  158.2689 C   0  0  0  0  0  0  0  0  0  0  0  0
  151.8338  140.2802  158.5712 N   0  0  0  0  0  0  0  0  0  0  0  0
  152.5958  140.4888  159.7943 C   0  0  0  0  0  0  0  0  0  0  0  0
  153.6173  141.6383  159.6732 C   0  0  2  0  0  0  0  0  0  0  0  0
  154.6659  141.4735  160.6083 O   0  0  0  0  0  0  0  0  0  0  0  0
  152.9405  142.9930  159.8093 C   0  0  0  0  0  0  0  0  0  0  0  0
  152.8059  143.8346  158.6840 C   0  0  0  0  0  0  0  0  0  0  0  0
  152.1753  145.0882  158.8071 C   0  0  0  0  0  0  0  0  0  0  0  0
  151.6743  145.5063  160.0549 C   0  0  0  0  0  0  0  0  0  0  0  0
  151.8022  144.6693  161.1800 C   0  0  0  0  0  0  0  0  0  0  0  0
  152.4322  143.4157  161.0574 C   0  0  0  0  0  0  0  0  0  0  0  0
  150.3880  139.4890  153.4566 H   0  0  0  0  0  0  0  0  0  0  0  0
  149.2465  139.7868  154.7588 H   0  0  0  0  0  0  0  0  0  0  0  0
  149.5273  138.1420  154.2102 H   0  0  0  0  0  0  0  0  0  0  0  0
  150.1674  141.5567  158.9370 H   0  0  0  0  0  0  0  0  0  0  0  0
  151.8894  140.7122  160.5951 H   0  0  0  0  0  0  0  0  0  0  0  0
  153.0820  139.5589  160.0846 H   0  0  0  0  0  0  0  0  0  0  0  0
  154.0792  141.5856  158.6863 H   0  0  0  0  0  0  0  0  0  0  0  0
  154.5705  142.1254  161.2852 H   0  0  0  0  0  0  0  0  0  0  0  0
  153.1847  143.5222  157.7218 H   0  0  0  0  0  0  0  0  0  0  0  0
  152.0750  145.7290  157.9436 H   0  0  0  0  0  0  0  0  0  0  0  0
  151.1907  146.4674  160.1486 H   0  0  0  0  0  0  0  0  0  0  0  0
  151.4165  144.9873  162.1373 H   0  0  0  0  0  0  0  0  0  0  0  0
  152.5227  142.7770  161.9243 H   0  0  0  0  0  0  0  0  0  0  0  0
  1  2  1  0  0  0  0
  1 22  1  0  0  0  0
  1 23  1  0  0  0  0
  1 24  1  0  0  0  0
  2  9  1  0  0  0  0
  2  3  1  0  0  0  0
  3  4  2  0  0  0  0
  3  5  1  0  0  0  0
  5  6  1  0  0  0  0
  6  7  2  0  0  0  0
  6  8  1  0  0  0  0
  8 12  1  0  0  0  0
  8  9  2  0  0  0  0
  9 10  1  0  0  0  0
 10 11  2  0  0  0  0
 11 12  1  0  0  0  0
 11 25  1  0  0  0  0
 12 13  1  0  0  0  0
 13 14  1  0  0  0  0
 13 26  1  0  0  0  0
 13 27  1  0  0  0  0
 14 15  1  0  0  0  0
 14 16  1  0  0  0  0
 14 28  1  0  0  0  0
 15 29  1  0  0  0  0
 16 21  1  0  0  0  0
 16 17  2  0  0  0  0
 17 18  1  0  0  0  0
 17 30  1  0  0  0  0
 18 19  2  0  0  0  0
 18 31  1  0  0  0  0
 19 20  1  0  0  0  0
 19 32  1  0  0  0  0
 20 21  2  0  0  0  0
 20 33  1  0  0  0  0
 21 34  1  0  0  0  0
M  CHG  1   5  -1
M  END
> <s_m_source_file>
AV-unprocessed.smi

> <i_m_source_file_index>
2556

> <i_lp_mmshare_version>
43012

> <i_f3d_flags>
0

> <s_epik_input>
Tz1jMVtuSF1jKD1PKW4oW0NIM10pYyhjMTIpbltjSF1uMltDSDJdW0NASF0oW09IXSljM1tjSF1bY0hdW2NIXVtjSF1bY0hdMw==

> <s_epik_cmdline>
J2VwaWtfcHl0aG9uJywgJy1waCcsICc3LjAnLCAnLXRuJywgJzgnLCAnLW1hJywgJzIwMCcsICctbWV0YWxfYmluZGluZycsICctaW1hZScsICc8aW5maWxlLm1hZT4nLCAnLW9tYWUnLCAnPG91dGZpbGUubWFlPic=

> <r_lp_tautomer_probability>
1

> <r_epik_Ionization_Penalty>
4.84872

> <r_epik_Ionization_Penalty_Charging>
0.03865

> <r_epik_Ionization_Penalty_Neutral>
4.81007

> <r_epik_State_Penalty>
4.80988

> <r_epik_Charging_Adjusted_Penalty>
4.84853

> <i_epik_Tot_Q>
-1

> <i_epik_Tot_abs_Q>
1

> <r_epik_Metal_State_Penalty>
0.994041

> <b_epik_Metal_Only>
1

> <s_lp_Force_Field>
OPLS_2005

> <r_lp_Energy>
33.4055

> <b_lp_Chiralities_Consistent>
1

> <s_lp_Variant>
AV-unprocessed.smi:2556-3

> <Gold.Version>
5.8.1

> <Gold.Id.Protein>
6NUR|6NUR_protein|mol2

> <Gold.PLP.Fitness>
49.1960

> <Gold.PLP.PLP>
-45.9606

> <Gold.PLP.part.hbond>
-2.9146

> <Gold.PLP.part.metal>
0.0000

> <Gold.PLP.part.buried>
-4.1647

> <Gold.PLP.part.nonpolar>
-40.7448

> <Gold.PLP.part.repulsive>
1.0244

> <Gold.PLP.ligand.clash>
0.0000

> <Gold.PLP.ligand.torsion>
0.7295

> <Gold.PLP.Chemscore.Hbond>
1.5536

> <Gold.PLP.Chemscore.CHOScore>
0.0000

> <Gold.PLP.Chemscore.Metal>
0.0000

> <Gold.Chemscore.Hbonds>
donor molecule, donor type, donor heavy atom, donor atom, acceptor molecule, acceptor atom, score
      P1  H  7997  8009       L1     7  0.46
      P1  H 10752 10765       L1     4  0.88

> <Gold.PLP.Chemscore.Internal.Correction>
0.0335

> <Gold.Rescore>
     Score         DG    S(hbond)    S(metal)    S(lipo)     H(rot)  DE(clash)    DE(int)     intcor
     14.09     -15.09       0.97        0.00     104.54       2.28       0.25       0.75       ----

> <Gold.Chemscore.Fitness>
14.0944

> <Gold.Chemscore.DG>
-15.0922

> <Gold.Chemscore.ZeroCoef>
-5.4800

> <Gold.Chemscore.Hbond>
0.9654

> <Gold.Chemscore.Metal>
0.0000

> <Gold.Chemscore.Lipo>
104.5381

> <Gold.Chemscore.Internal_Hbond>
0.0000

> <Gold.Chemscore.DEClash>
0.2527

> <Gold.Chemscore.DEInternal>
0.7452

> <Gold.Chemscore.Rot>
2.2824

> <Gold.Chemscore.Internal.Correction>
   9.000000E+99

> <Gold.Chemscore.Hbonds>
donor molecule, donor type, donor heavy atom, donor atom, acceptor molecule, acceptor atom, score
      P1  H  7997  8009       L1     7  0.02
      P1  H 10752 10765       L1     4  0.73

> <Gold.Chemscore.Hbond.Weighted>
-3.2244

> <Gold.Chemscore.Metal.Weighted>
-0.0000

> <Gold.Chemscore.Lipo.Weighted>
-12.2310

> <Gold.Chemscore.Internal_Hbond.Weighted>
0.0000

> <Gold.Chemscore.DEClash.Weighted>
0.2527

> <Gold.Chemscore.DEInternal.Weighted>
0.7452

> <Gold.Chemscore.Rot.Weighted>
5.8431

> <Gold.Chemscore.Internal.Correction.Weighted>
   9.000000E+99

> <Gold.Protein.RotatedTorsions>
[ 6907 6896 6895 6894 ] final  110.47 input  -60.11 | X-H torsion
[ 7974 7965 7964 7962 ] final  153.19 input  175.53 | X-H torsion
[ 8008 7997 7996 7995 ] final  122.70 input   59.86 | X-H torsion
[ 10167 10162 10161 10158 ] final    1.93 input  -65.29 | X-H torsion
[ 10718 10713 10712 10709 ] final  166.73 input   66.30 | X-H torsion
[ 10763 10752 10751 10750 ] final  152.33 input  -60.55 | X-H torsion
[ 11005 11000 10999 10996 ] final    7.30 input  -57.11 | X-H torsion

> <Gold.Protein.ActiveResidues>
 VAL166  LYS551  ARG553  GLY616  TRP617  ASP618  TYR619  PRO620  LYS621  CYS622 
 ASP623  PHE694  ASN695  SER759  ASP760  ASP761  ALA762  ILE779  LEU786  VAL792 
 PHE793  MET794  SER795  GLU796  ALA797  LYS798  CYS799  TRP800  GLU811  SER814 

> <Gold.Protein.RotatedAtoms>
  152.5018  133.8796  159.7339 H   0  0  0  0  0  0  0  0  0  0  0  0  # atno 6907 bound_to 6896
  150.9262  133.6812  159.2827 H   0  0  0  0  0  0  0  0  0  0  0  0  # atno 6908 bound_to 6896
  151.4173  135.0997  159.9655 H   0  0  0  0  0  0  0  0  0  0  0  0  # atno 6909 bound_to 6896
  144.8171  139.6767  143.6116 H   0  0  0  0  0  0  0  0  0  0  0  0  # atno 7974 bound_to 7965
  156.2738  140.2780  156.1509 H   0  0  0  0  0  0  0  0  0  0  0  0  # atno 8008 bound_to 7997
  155.0854  140.0388  157.2670 H   0  0  0  0  0  0  0  0  0  0  0  0  # atno 8009 bound_to 7997
  154.6931  140.2633  155.6798 H   0  0  0  0  0  0  0  0  0  0  0  0  # atno 8010 bound_to 7997
  140.6659  143.7180  150.7827 H   0  0  0  0  0  0  0  0  0  0  0  0  # atno 10167 bound_to 10162
  157.0617  131.0342  151.2644 H   0  0  0  0  0  0  0  0  0  0  0  0  # atno 10718 bound_to 10713
  154.1182  135.2834  155.3214 H   0  0  0  0  0  0  0  0  0  0  0  0  # atno 10763 bound_to 10752
  154.6441  135.5392  153.7827 H   0  0  0  0  0  0  0  0  0  0  0  0  # atno 10764 bound_to 10752
  153.0322  135.6494  154.1338 H   0  0  0  0  0  0  0  0  0  0  0  0  # atno 10765 bound_to 10752
  140.5497  134.0295  155.7932 H   0  0  0  0  0  0  0  0  0  0  0  0  # atno 11005 bound_to 11000
  146.2475  139.6129  142.9449 LP  0  0  0  0  0  0  0  0  0  0  0  0  # atno 17320 bound_to 7965
  145.5189  141.0432  143.2446 LP  0  0  0  0  0  0  0  0  0  0  0  0  # atno 17321 bound_to 7965
  140.0857  143.4926  152.2506 LP  0  0  0  0  0  0  0  0  0  0  0  0  # atno 17342 bound_to 10162
  139.5908  144.7549  151.3405 LP  0  0  0  0  0  0  0  0  0  0  0  0  # atno 17343 bound_to 10162
  157.4949  130.7845  149.7545 LP  0  0  0  0  0  0  0  0  0  0  0  0  # atno 17370 bound_to 10713
  155.9976  130.3899  150.2732 LP  0  0  0  0  0  0  0  0  0  0  0  0  # atno 17371 bound_to 10713
  141.1179  133.9510  157.2787 LP  0  0  0  0  0  0  0  0  0  0  0  0  # atno 17394 bound_to 11000
  139.9461  135.0184  156.8857 LP  0  0  0  0  0  0  0  0  0  0  0  0  # atno 17395 bound_to 11000

$$$$
