AV-unprocessed.smi:3162|AV-procd|sdf|12063|dock5
  -GOLD-   2272017493D 1   1.00000     0.00000
 Structure written by MMmdl.
 37 37  0  0  0  0  0  0  0  0  2 V2000
  146.8734  142.4144  154.3594 C   0  0  0  0  0  0  0  0  0  0  0  0
  147.9627  141.4688  153.8285 C   0  0  0  0  0  0  0  0  0  0  0  0
  148.8579  140.8388  154.9184 C   0  0  2  0  0  0  0  0  0  0  0  0
  149.7953  141.8685  155.4285 N   0  3  0  0  0  0  0  0  0  0  0  0
  150.4361  141.5963  156.7377 C   0  0  2  0  0  0  0  0  0  0  0  0
  149.4618  140.7898  157.6128 C   0  0  0  0  0  0  0  0  0  0  0  0
  150.9150  142.8983  157.4214 C   0  0  0  0  0  0  0  0  0  0  0  0
  151.8416  142.6575  158.5129 N   0  0  0  0  0  0  0  0  0  0  0  0
  152.3640  141.4559  158.9418 C   0  0  0  0  0  0  0  0  0  0  0  0
  153.1909  141.7200  159.9967 C   0  0  0  0  0  0  0  0  0  0  0  0
  154.0003  140.7580  160.8181 C   0  0  0  0  0  0  0  0  0  0  0  0
  153.1059  143.1347  160.1373 C   0  0  0  0  0  0  0  0  0  0  0  0
  152.3005  143.6924  159.2479 N   0  0  0  0  0  0  0  0  0  0  0  0
  149.6305  139.6263  154.3752 C   0  0  0  0  0  0  0  0  0  0  0  0
  148.9220  138.6716  153.7665 N   0  0  0  0  0  0  0  0  0  0  0  0
  150.8514  139.5534  154.5019 O   0  0  0  0  0  0  0  0  0  0  0  0
  146.3360  142.8837  153.5350 H   0  0  0  0  0  0  0  0  0  0  0  0
  147.3040  143.2099  154.9679 H   0  0  0  0  0  0  0  0  0  0  0  0
  146.1381  141.8858  154.9658 H   0  0  0  0  0  0  0  0  0  0  0  0
  147.4985  140.6866  153.2256 H   0  0  0  0  0  0  0  0  0  0  0  0
  148.5926  142.0374  153.1430 H   0  0  0  0  0  0  0  0  0  0  0  0
  148.2121  140.5142  155.7364 H   0  0  0  0  0  0  0  0  0  0  0  0
  150.5048  142.0415  154.7300 H   0  0  0  0  0  0  0  0  0  0  0  0
  151.3024  140.9580  156.5576 H   0  0  0  0  0  0  0  0  0  0  0  0
  149.9298  140.4634  158.5417 H   0  0  0  0  0  0  0  0  0  0  0  0
  149.1201  139.8929  157.0954 H   0  0  0  0  0  0  0  0  0  0  0  0
  148.5820  141.3796  157.8726 H   0  0  0  0  0  0  0  0  0  0  0  0
  151.4207  143.5457  156.7052 H   0  0  0  0  0  0  0  0  0  0  0  0
  150.0609  143.4620  157.8013 H   0  0  0  0  0  0  0  0  0  0  0  0
  152.1061  140.5210  158.4659 H   0  0  0  0  0  0  0  0  0  0  0  0
  154.7709  141.2680  161.3966 H   0  0  0  0  0  0  0  0  0  0  0  0
  154.5048  140.0200  160.1943 H   0  0  0  0  0  0  0  0  0  0  0  0
  153.3773  140.2104  161.5255 H   0  0  0  0  0  0  0  0  0  0  0  0
  153.6044  143.7691  160.8553 H   0  0  0  0  0  0  0  0  0  0  0  0
  149.3828  137.8511  153.4001 H   0  0  0  0  0  0  0  0  0  0  0  0
  147.9202  138.7698  153.6813 H   0  0  0  0  0  0  0  0  0  0  0  0
  149.2569  142.7146  155.5455 H   0  0  0  0  0  0  0  0  0  0  0  0
  1  2  1  0  0  0  0
  1 17  1  0  0  0  0
  1 18  1  0  0  0  0
  1 19  1  0  0  0  0
  2  3  1  0  0  0  0
  2 20  1  0  0  0  0
  2 21  1  0  0  0  0
  3  4  1  0  0  0  0
  3 14  1  0  0  0  0
  3 22  1  0  0  0  0
  4  5  1  0  0  0  0
  4 23  1  0  0  0  0
  4 37  1  0  0  0  0
  5  6  1  0  0  0  0
  5  7  1  0  0  0  0
  5 24  1  0  0  0  0
  6 25  1  0  0  0  0
  6 26  1  0  0  0  0
  6 27  1  0  0  0  0
  7  8  1  0  0  0  0
  7 28  1  0  0  0  0
  7 29  1  0  0  0  0
  8 13  1  0  0  0  0
  8  9  1  0  0  0  0
  9 10  2  0  0  0  0
  9 30  1  0  0  0  0
 10 11  1  0  0  0  0
 10 12  1  0  0  0  0
 11 31  1  0  0  0  0
 11 32  1  0  0  0  0
 11 33  1  0  0  0  0
 12 13  2  0  0  0  0
 12 34  1  0  0  0  0
 14 15  1  0  0  0  0
 14 16  2  0  0  0  0
 15 35  1  0  0  0  0
 15 36  1  0  0  0  0
M  CHG  1   4   1
M  END
> <s_m_source_file>
AV-unprocessed.smi

> <i_m_source_file_index>
3162

> <i_lp_mmshare_version>
43012

> <i_f3d_flags>
0

> <s_epik_input>
W0NIM11bQ0gyXVtDQEBIXShDKD1PKVtOSDJdKVtOSF1bQ0BIXShbQ0gzXSlbQ0gyXW4xW2NIXWMoW0NIM10pW2NIXW4x

> <s_epik_cmdline>
J2VwaWtfcHl0aG9uJywgJy1waCcsICc3LjAnLCAnLXRuJywgJzgnLCAnLW1hJywgJzIwMCcsICctbWV0YWxfYmluZGluZycsICctaW1hZScsICc8aW5maWxlLm1hZT4nLCAnLW9tYWUnLCAnPG91dGZpbGUubWFlPic=

> <r_lp_tautomer_probability>
1

> <r_epik_Ionization_Penalty>
0.112112

> <r_epik_Ionization_Penalty_Charging>
0.112102

> <r_epik_Ionization_Penalty_Neutral>
9.73799e-06

> <r_epik_State_Penalty>
0.101811

> <r_epik_Charging_Adjusted_Penalty>
0.213914

> <i_epik_Tot_Q>
1

> <i_epik_Tot_abs_Q>
1

> <r_epik_Metal_State_Penalty>
0.101821

> <b_epik_Metal_Only>
0

> <s_lp_Force_Field>
OPLS_2005

> <r_lp_Energy>
5.61804

> <b_lp_Chiralities_Consistent>
1

> <s_lp_Variant>
AV-unprocessed.smi:3162-1

> <Gold.Version>
5.8.1

> <Gold.Id.Protein>
6NUR|6NUR_protein|mol2

> <Gold.PLP.Fitness>
45.9741

> <Gold.PLP.PLP>
-37.2262

> <Gold.PLP.part.hbond>
-3.9267

> <Gold.PLP.part.metal>
0.0000

> <Gold.PLP.part.buried>
-4.6674

> <Gold.PLP.part.nonpolar>
-29.5578

> <Gold.PLP.part.repulsive>
0.3484

> <Gold.PLP.ligand.clash>
0.0000

> <Gold.PLP.ligand.torsion>
0.7248

> <Gold.PLP.Chemscore.Hbond>
3.3393

> <Gold.PLP.Chemscore.CHOScore>
0.0000

> <Gold.PLP.Chemscore.Metal>
0.0000

> <Gold.Chemscore.Hbonds>
donor molecule, donor type, donor heavy atom, donor atom, acceptor molecule, acceptor atom, score
      L1  H     4    37       P1  8028  1.95
      L1  H    15    35       P1  7948  0.36
      P1  H  7989  7998       L1    16  1.00

> <Gold.PLP.Chemscore.Internal.Correction>
0.1796

> <Gold.Rescore>
     Score         DG    S(hbond)    S(metal)    S(lipo)     H(rot)  DE(clash)    DE(int)     intcor
     16.33     -17.28       2.70        0.00      78.70       2.51       0.24       0.71       ----

> <Gold.Chemscore.Fitness>
16.3290

> <Gold.Chemscore.DG>
-17.2823

> <Gold.Chemscore.ZeroCoef>
-5.4800

> <Gold.Chemscore.Hbond>
2.6975

> <Gold.Chemscore.Metal>
0.0000

> <Gold.Chemscore.Lipo>
78.7044

> <Gold.Chemscore.Internal_Hbond>
0.0000

> <Gold.Chemscore.DEClash>
0.2441

> <Gold.Chemscore.DEInternal>
0.7093

> <Gold.Chemscore.Rot>
2.5062

> <Gold.Chemscore.Internal.Correction>
   9.000000E+99

> <Gold.Chemscore.Hbonds>
donor molecule, donor type, donor heavy atom, donor atom, acceptor molecule, acceptor atom, score
      L1  H     4    37       P1  8028  0.92
      L1  H    15    35       P1  7948  0.33
      P1  H  7989  7998       L1    16  0.70

> <Gold.Chemscore.Hbond.Weighted>
-9.0098

> <Gold.Chemscore.Metal.Weighted>
-0.0000

> <Gold.Chemscore.Lipo.Weighted>
-9.2084

> <Gold.Chemscore.Internal_Hbond.Weighted>
0.0000

> <Gold.Chemscore.DEClash.Weighted>
0.2441

> <Gold.Chemscore.DEInternal.Weighted>
0.7093

> <Gold.Chemscore.Rot.Weighted>
6.4159

> <Gold.Chemscore.Internal.Correction.Weighted>
   9.000000E+99

> <Gold.Protein.RotatedTorsions>
[ 6907 6896 6895 6894 ] final  144.79 input  -60.11 | X-H torsion
[ 7974 7965 7964 7962 ] final   83.83 input  175.53 | X-H torsion
[ 8008 7997 7996 7995 ] final  -82.04 input   59.86 | X-H torsion
[ 10167 10162 10161 10158 ] final  -30.41 input  -65.29 | X-H torsion
[ 10718 10713 10712 10709 ] final   -2.28 input   66.30 | X-H torsion
[ 10763 10752 10751 10750 ] final  158.62 input  -60.55 | X-H torsion
[ 11005 11000 10999 10996 ] final  -45.33 input  -57.11 | X-H torsion

> <Gold.Protein.ActiveResidues>
 VAL166  LYS551  ARG553  GLY616  TRP617  ASP618  TYR619  PRO620  LYS621  CYS622 
 ASP623  PHE694  ASN695  SER759  ASP760  ASP761  ALA762  ILE779  LEU786  VAL792 
 PHE793  MET794  SER795  GLU796  ALA797  LYS798  CYS799  TRP800  GLU811  SER814 

> <Gold.Protein.RotatedAtoms>
  152.1892  133.4761  159.4998 H   0  0  0  0  0  0  0  0  0  0  0  0  # atno 6907 bound_to 6896
  150.6948  134.1735  159.4230 H   0  0  0  0  0  0  0  0  0  0  0  0  # atno 6908 bound_to 6896
  151.9649  135.0105  160.0600 H   0  0  0  0  0  0  0  0  0  0  0  0  # atno 6909 bound_to 6896
  145.6068  139.2361  143.2215 H   0  0  0  0  0  0  0  0  0  0  0  0  # atno 7974 bound_to 7965
  154.6045  140.0639  156.9413 H   0  0  0  0  0  0  0  0  0  0  0  0  # atno 8008 bound_to 7997
  155.2076  140.3320  155.4315 H   0  0  0  0  0  0  0  0  0  0  0  0  # atno 8009 bound_to 7997
  156.2339  140.1853  156.7154 H   0  0  0  0  0  0  0  0  0  0  0  0  # atno 8010 bound_to 7997
  140.7249  143.3851  151.1530 H   0  0  0  0  0  0  0  0  0  0  0  0  # atno 10167 bound_to 10162
  156.7931  130.5368  149.5732 H   0  0  0  0  0  0  0  0  0  0  0  0  # atno 10718 bound_to 10713
  154.2189  135.2783  155.2932 H   0  0  0  0  0  0  0  0  0  0  0  0  # atno 10763 bound_to 10752
  154.5718  135.5616  153.7105 H   0  0  0  0  0  0  0  0  0  0  0  0  # atno 10764 bound_to 10752
  153.0046  135.6323  154.2329 H   0  0  0  0  0  0  0  0  0  0  0  0  # atno 10765 bound_to 10752
  141.0508  133.6743  156.2997 H   0  0  0  0  0  0  0  0  0  0  0  0  # atno 11005 bound_to 11000
  146.1535  140.6892  142.9311 LP  0  0  0  0  0  0  0  0  0  0  0  0  # atno 17320 bound_to 7965
  144.7286  140.4604  143.6954 LP  0  0  0  0  0  0  0  0  0  0  0  0  # atno 17321 bound_to 7965
  139.7447  143.8871  152.3060 LP  0  0  0  0  0  0  0  0  0  0  0  0  # atno 17342 bound_to 10162
  139.8704  144.7071  150.8995 LP  0  0  0  0  0  0  0  0  0  0  0  0  # atno 17343 bound_to 10162
  156.1147  130.6066  151.0101 LP  0  0  0  0  0  0  0  0  0  0  0  0  # atno 17370 bound_to 10713
  157.6591  131.0884  150.7880 LP  0  0  0  0  0  0  0  0  0  0  0  0  # atno 17371 bound_to 10713
  140.6058  134.5508  157.5525 LP  0  0  0  0  0  0  0  0  0  0  0  0  # atno 17394 bound_to 11000
  139.9349  134.7894  156.0830 LP  0  0  0  0  0  0  0  0  0  0  0  0  # atno 17395 bound_to 11000

$$$$
