AV-unprocessed.smi:378|AV-procd|sdf|2457|dock2
  -GOLD-   2262022393D 1   1.00000     0.00000
 Structure written by MMmdl.
 34 35  0  0  0  0  0  0  0  0  1 V2000
  153.2056  142.6505  162.6426 N   0  0  0  0  0  0  0  0  0  0  0  0
  153.0801  142.5317  161.4987 C   0  0  0  0  0  0  0  0  0  0  0  0
  152.9207  142.3793  160.0441 C   0  0  0  0  0  0  0  0  0  0  0  0
  151.7729  143.2248  159.4706 C   0  0  0  0  0  0  0  0  0  0  0  0
  151.6207  143.0316  158.0331 N   0  0  0  0  0  0  0  0  0  0  0  0
  150.6477  142.3132  157.4537 C   0  0  0  0  0  0  0  0  0  0  0  0
  149.7810  141.7159  158.0938 O   0  0  0  0  0  0  0  0  0  0  0  0
  150.6724  142.2644  155.9184 C   0  0  0  0  0  0  0  0  0  0  0  0
  150.2249  140.9668  155.3660 N   0  0  0  0  0  0  0  0  0  0  0  0
  151.0447  139.8243  155.5522 C   0  0  0  0  0  0  0  0  0  0  0  0
  152.1258  139.9065  156.1379 O   0  0  0  0  0  0  0  0  0  0  0  0
  150.5091  138.5728  155.0215 C   0  0  0  0  0  0  0  0  0  0  0  0
  151.2884  137.3955  155.2180 C   0  0  0  0  0  0  0  0  0  0  0  0
  151.9168  136.4329  155.3536 N   0  0  0  0  0  0  0  0  0  0  0  0
  149.3227  138.5408  154.3802 C   0  0  0  0  0  0  0  0  0  0  0  0
  148.5597  139.6698  154.1758 N   0  0  0  0  0  0  0  0  0  0  0  0
  147.2326  139.5882  153.6339 C   0  0  0  0  0  0  0  0  0  0  0  0
  147.0393  139.0066  152.2504 C   0  0  0  0  0  0  0  0  0  0  0  0
  146.8200  140.4822  152.4805 C   0  0  0  0  0  0  0  0  0  0  0  0
  148.9695  140.9097  154.7130 C   0  0  0  0  0  0  0  0  0  0  0  0
  148.2535  141.9110  154.6284 O   0  0  0  0  0  0  0  0  0  0  0  0
  153.8633  142.6714  159.5814 H   0  0  0  0  0  0  0  0  0  0  0  0
  152.7751  141.3208  159.8264 H   0  0  0  0  0  0  0  0  0  0  0  0
  150.8352  142.9556  159.9575 H   0  0  0  0  0  0  0  0  0  0  0  0
  151.9412  144.2817  159.6838 H   0  0  0  0  0  0  0  0  0  0  0  0
  152.2954  143.4877  157.4356 H   0  0  0  0  0  0  0  0  0  0  0  0
  150.0570  143.0770  155.5278 H   0  0  0  0  0  0  0  0  0  0  0  0
  151.6807  142.5138  155.5850 H   0  0  0  0  0  0  0  0  0  0  0  0
  148.9559  137.5952  154.0072 H   0  0  0  0  0  0  0  0  0  0  0  0
  146.4512  139.3581  154.3561 H   0  0  0  0  0  0  0  0  0  0  0  0
  147.9245  138.7169  151.6873 H   0  0  0  0  0  0  0  0  0  0  0  0
  146.1598  138.3875  152.0854 H   0  0  0  0  0  0  0  0  0  0  0  0
  145.7951  140.8472  152.4726 H   0  0  0  0  0  0  0  0  0  0  0  0
  147.5601  141.1641  152.0658 H   0  0  0  0  0  0  0  0  0  0  0  0
  1  2  3  0  0  0  0
  2  3  1  0  0  0  0
  3  4  1  0  0  0  0
  3 22  1  0  0  0  0
  3 23  1  0  0  0  0
  4  5  1  0  0  0  0
  4 24  1  0  0  0  0
  4 25  1  0  0  0  0
  5  6  1  0  0  0  0
  5 26  1  0  0  0  0
  6  7  2  0  0  0  0
  6  8  1  0  0  0  0
  8  9  1  0  0  0  0
  8 27  1  0  0  0  0
  8 28  1  0  0  0  0
  9 20  1  0  0  0  0
  9 10  1  0  0  0  0
 10 11  2  0  0  0  0
 10 12  1  0  0  0  0
 12 13  1  0  0  0  0
 12 15  2  0  0  0  0
 13 14  3  0  0  0  0
 15 16  1  0  0  0  0
 15 29  1  0  0  0  0
 16 17  1  0  0  0  0
 16 20  1  0  0  0  0
 17 19  1  0  0  0  0
 17 18  1  0  0  0  0
 17 30  1  0  0  0  0
 18 19  1  0  0  0  0
 18 31  1  0  0  0  0
 18 32  1  0  0  0  0
 19 33  1  0  0  0  0
 19 34  1  0  0  0  0
 20 21  2  0  0  0  0
M  END
> <s_m_source_file>
AV-unprocessed.smi

> <i_m_source_file_index>
378

> <i_lp_mmshare_version>
43012

> <i_f3d_flags>
0

> <s_epik_input>
TiNDW0NIMl1bQ0gyXVtOSF1DKD1PKVtDSDJdbjFjKD1PKWMoQyNOKVtjSF1uKGMxPU8pW0NIXTJbQ0gyXVtDSDJdMg==

> <s_epik_cmdline>
J2VwaWtfcHl0aG9uJywgJy1waCcsICc3LjAnLCAnLXRuJywgJzgnLCAnLW1hJywgJzIwMCcsICctbWV0YWxfYmluZGluZycsICctaW1hZScsICc8aW5maWxlLm1hZT4nLCAnLW9tYWUnLCAnPG91dGZpbGUubWFlPic=

> <r_lp_tautomer_probability>
1

> <r_epik_Ionization_Penalty>
1.80062e-07

> <r_epik_Ionization_Penalty_Charging>
6.75485e-11

> <r_epik_Ionization_Penalty_Neutral>
1.79994e-07

> <r_epik_State_Penalty>
-0

> <r_epik_Charging_Adjusted_Penalty>
6.75485e-11

> <i_epik_Tot_Q>
0

> <i_epik_Tot_abs_Q>
0

> <r_epik_Metal_State_Penalty>
-0

> <b_epik_Metal_Only>
0

> <s_lp_Force_Field>
OPLS_2005

> <r_lp_Energy>
28.3727

> <b_lp_Chiralities_Consistent>
1

> <s_lp_Variant>
AV-unprocessed.smi:378-1

> <Gold.Version>
5.8.1

> <Gold.Id.Protein>
6NUR|6NUR_protein|mol2

> <Gold.PLP.Fitness>
44.3843

> <Gold.PLP.PLP>
-37.9826

> <Gold.PLP.part.hbond>
-1.2816

> <Gold.PLP.part.metal>
0.0000

> <Gold.PLP.part.buried>
-0.9921

> <Gold.PLP.part.nonpolar>
-36.3017

> <Gold.PLP.part.repulsive>
1.0580

> <Gold.PLP.ligand.clash>
0.0000

> <Gold.PLP.ligand.torsion>
0.6472

> <Gold.PLP.Chemscore.Hbond>
1.4788

> <Gold.PLP.Chemscore.CHOScore>
1.0000

> <Gold.PLP.Chemscore.Metal>
0.0000

> <Gold.Chemscore.Hbonds>
donor molecule, donor type, donor heavy atom, donor atom, acceptor molecule, acceptor atom, score
      P1  H  7997  8009       L1    11  0.50
      P1  H 10752 10764       L1    14  0.94
      L1  C    15    29       P1  7948  1.00

> <Gold.PLP.Chemscore.Internal.Correction>
0.2600

> <Gold.Rescore>
     Score         DG    S(hbond)    S(metal)    S(lipo)     H(rot)  DE(clash)    DE(int)     intcor
      9.38     -12.60       1.88        0.00      61.80       2.50       1.63       1.60       ----

> <Gold.Chemscore.Fitness>
9.3767

> <Gold.Chemscore.DG>
-12.6045

> <Gold.Chemscore.ZeroCoef>
-5.4800

> <Gold.Chemscore.Hbond>
1.8839

> <Gold.Chemscore.Metal>
0.0000

> <Gold.Chemscore.Lipo>
61.8014

> <Gold.Chemscore.Internal_Hbond>
0.0000

> <Gold.Chemscore.DEClash>
1.6304

> <Gold.Chemscore.DEInternal>
1.5974

> <Gold.Chemscore.Rot>
2.4994

> <Gold.Chemscore.Internal.Correction>
   9.000000E+99

> <Gold.Chemscore.Hbonds>
donor molecule, donor type, donor heavy atom, donor atom, acceptor molecule, acceptor atom, score
      P1  H  7997  8009       L1    11  0.52
      P1  H 10752 10764       L1    14  0.90

> <Gold.Chemscore.Hbond.Weighted>
-6.2922

> <Gold.Chemscore.Metal.Weighted>
-0.0000

> <Gold.Chemscore.Lipo.Weighted>
-7.2308

> <Gold.Chemscore.Internal_Hbond.Weighted>
0.0000

> <Gold.Chemscore.DEClash.Weighted>
1.6304

> <Gold.Chemscore.DEInternal.Weighted>
1.5974

> <Gold.Chemscore.Rot.Weighted>
6.3984

> <Gold.Chemscore.Internal.Correction.Weighted>
   9.000000E+99

> <Gold.Protein.RotatedTorsions>
[ 6907 6896 6895 6894 ] final   48.53 input  -60.11 | X-H torsion
[ 7974 7965 7964 7962 ] final  166.98 input  175.53 | X-H torsion
[ 8008 7997 7996 7995 ] final -163.87 input   59.86 | X-H torsion
[ 10167 10162 10161 10158 ] final  151.77 input  -65.29 | X-H torsion
[ 10718 10713 10712 10709 ] final   50.81 input   66.30 | X-H torsion
[ 10763 10752 10751 10750 ] final  -55.81 input  -60.55 | X-H torsion
[ 11005 11000 10999 10996 ] final  -44.65 input  -57.11 | X-H torsion

> <Gold.Protein.ActiveResidues>
 VAL166  LYS551  ARG553  GLY616  TRP617  ASP618  TYR619  PRO620  LYS621  CYS622 
 ASP623  PHE694  ASN695  SER759  ASP760  ASP761  ALA762  ILE779  LEU786  VAL792 
 PHE793  MET794  SER795  GLU796  ALA797  LYS798  CYS799  TRP800  GLU811  SER814 

> <Gold.Protein.RotatedAtoms>
  152.2805  134.7833  160.0397 H   0  0  0  0  0  0  0  0  0  0  0  0  # atno 6907 bound_to 6896
  151.8414  133.3419  159.3652 H   0  0  0  0  0  0  0  0  0  0  0  0  # atno 6908 bound_to 6896
  150.7188  134.5316  159.5747 H   0  0  0  0  0  0  0  0  0  0  0  0  # atno 6909 bound_to 6896
  144.7441  139.8695  143.6387 H   0  0  0  0  0  0  0  0  0  0  0  0  # atno 7974 bound_to 7965
  155.8274  140.0928  157.1813 H   0  0  0  0  0  0  0  0  0  0  0  0  # atno 8008 bound_to 7997
  154.3979  140.1425  156.3633 H   0  0  0  0  0  0  0  0  0  0  0  0  # atno 8009 bound_to 7997
  155.8202  140.3446  155.5512 H   0  0  0  0  0  0  0  0  0  0  0  0  # atno 8010 bound_to 7997
  139.4838  144.5414  151.7559 H   0  0  0  0  0  0  0  0  0  0  0  0  # atno 10167 bound_to 10162
  157.4920  130.8382  149.8214 H   0  0  0  0  0  0  0  0  0  0  0  0  # atno 10718 bound_to 10713
  154.1966  135.6418  153.5075 H   0  0  0  0  0  0  0  0  0  0  0  0  # atno 10763 bound_to 10752
  153.0022  135.5441  154.6359 H   0  0  0  0  0  0  0  0  0  0  0  0  # atno 10764 bound_to 10752
  154.5761  135.2921  155.0752 H   0  0  0  0  0  0  0  0  0  0  0  0  # atno 10765 bound_to 10752
  141.0464  133.6759  156.2903 H   0  0  0  0  0  0  0  0  0  0  0  0  # atno 11005 bound_to 11000
  146.1291  139.4322  143.0180 LP  0  0  0  0  0  0  0  0  0  0  0  0  # atno 17320 bound_to 7965
  145.7191  141.0081  143.1412 LP  0  0  0  0  0  0  0  0  0  0  0  0  # atno 17321 bound_to 7965
  140.4954  144.1249  150.5959 LP  0  0  0  0  0  0  0  0  0  0  0  0  # atno 17342 bound_to 10162
  140.4124  143.2650  151.9817 LP  0  0  0  0  0  0  0  0  0  0  0  0  # atno 17343 bound_to 10162
  156.0179  130.3806  150.2053 LP  0  0  0  0  0  0  0  0  0  0  0  0  # atno 17370 bound_to 10713
  157.0242  130.9988  151.3331 LP  0  0  0  0  0  0  0  0  0  0  0  0  # atno 17371 bound_to 10713
  140.6138  134.5432  157.5537 LP  0  0  0  0  0  0  0  0  0  0  0  0  # atno 17394 bound_to 11000
  139.9315  134.7954  156.0917 LP  0  0  0  0  0  0  0  0  0  0  0  0  # atno 17395 bound_to 11000

$$$$
