AV-unprocessed.smi:3042|AV-procd|sdf|11599|dock3
  -GOLD-   2272016573D 1   1.00000     0.00000
 Structure written by MMmdl.
 33 34  0  0  0  0  0  0  0  0  2 V2000
  149.0131  138.7945  153.2381 N   0  3  0  0  0  0  0  0  0  0  0  0
  149.3929  139.0859  154.6327 C   0  0  0  0  0  0  0  0  0  0  0  0
  149.7680  140.5766  154.8367 C   0  0  2  0  0  0  0  0  0  0  0  0
  150.6808  140.6904  156.0571 C   0  0  0  0  0  0  0  0  0  0  0  0
  150.4029  141.6001  157.1015 C   0  0  0  0  0  0  0  0  0  0  0  0
  151.2740  141.6552  158.2060 C   0  0  0  0  0  0  0  0  0  0  0  0
  152.3932  140.7999  158.2210 C   0  0  0  0  0  0  0  0  0  0  0  0
  152.6707  139.9264  157.2293 N   0  0  0  0  0  0  0  0  0  0  0  0
  151.8317  139.8802  156.1730 C   0  0  0  0  0  0  0  0  0  0  0  0
  148.6102  141.4894  154.9409 N   0  0  0  0  0  0  0  0  0  0  0  0
  147.8742  141.5882  153.6746 C   0  0  0  0  0  0  0  0  0  0  0  0
  146.6664  142.5359  153.7661 C   0  0  0  0  0  0  0  0  0  0  0  0
  145.7979  142.0987  154.8033 O   0  0  0  0  0  0  0  0  0  0  0  0
  146.4490  142.0448  156.0657 C   0  0  0  0  0  0  0  0  0  0  0  0
  147.6601  141.0985  155.9865 C   0  0  0  0  0  0  0  0  0  0  0  0
  148.0160  138.9112  153.1278 H   0  0  0  0  0  0  0  0  0  0  0  0
  149.2679  137.8428  153.0146 H   0  0  0  0  0  0  0  0  0  0  0  0
  148.5382  138.8004  155.2440 H   0  0  0  0  0  0  0  0  0  0  0  0
  150.2215  138.4357  154.9153 H   0  0  0  0  0  0  0  0  0  0  0  0
  150.3540  140.8806  153.9676 H   0  0  0  0  0  0  0  0  0  0  0  0
  149.5369  142.2442  157.0580 H   0  0  0  0  0  0  0  0  0  0  0  0
  151.0902  142.3383  159.0222 H   0  0  0  0  0  0  0  0  0  0  0  0
  153.0826  140.8167  159.0521 H   0  0  0  0  0  0  0  0  0  0  0  0
  152.0844  139.1700  155.3994 H   0  0  0  0  0  0  0  0  0  0  0  0
  148.5242  141.9478  152.8774 H   0  0  0  0  0  0  0  0  0  0  0  0
  147.5301  140.5985  153.3702 H   0  0  0  0  0  0  0  0  0  0  0  0
  146.9905  143.5603  153.9566 H   0  0  0  0  0  0  0  0  0  0  0  0
  146.1189  142.5426  152.8235 H   0  0  0  0  0  0  0  0  0  0  0  0
  146.7605  143.0466  156.3662 H   0  0  0  0  0  0  0  0  0  0  0  0
  145.7413  141.6919  156.8158 H   0  0  0  0  0  0  0  0  0  0  0  0
  147.3128  140.0793  155.8099 H   0  0  0  0  0  0  0  0  0  0  0  0
  148.1398  141.1066  156.9635 H   0  0  0  0  0  0  0  0  0  0  0  0
  149.4971  139.4265  152.6167 H   0  0  0  0  0  0  0  0  0  0  0  0
  1  2  1  0  0  0  0
  1 16  1  0  0  0  0
  1 17  1  0  0  0  0
  1 33  1  0  0  0  0
  2  3  1  0  0  0  0
  2 18  1  0  0  0  0
  2 19  1  0  0  0  0
  3  4  1  0  0  0  0
  3 10  1  0  0  0  0
  3 20  1  0  0  0  0
  4  9  1  0  0  0  0
  4  5  2  0  0  0  0
  5  6  1  0  0  0  0
  5 21  1  0  0  0  0
  6  7  2  0  0  0  0
  6 22  1  0  0  0  0
  7  8  1  0  0  0  0
  7 23  1  0  0  0  0
  8  9  2  0  0  0  0
  9 24  1  0  0  0  0
 10 15  1  0  0  0  0
 10 11  1  0  0  0  0
 11 12  1  0  0  0  0
 11 25  1  0  0  0  0
 11 26  1  0  0  0  0
 12 13  1  0  0  0  0
 12 27  1  0  0  0  0
 12 28  1  0  0  0  0
 13 14  1  0  0  0  0
 14 15  1  0  0  0  0
 14 29  1  0  0  0  0
 14 30  1  0  0  0  0
 15 31  1  0  0  0  0
 15 32  1  0  0  0  0
M  CHG  1   1   1
M  END
> <s_m_source_file>
AV-unprocessed.smi

> <i_m_source_file_index>
3042

> <i_lp_mmshare_version>
43012

> <i_f3d_flags>
0

> <s_epik_input>
W0NIMl0xW0NIMl1PW0NIMl1bQ0gyXU4xW0NASF0oW0NIMl1bTkgyXSljMltjSF1bY0hdW2NIXW5bY0hdMg==

> <s_epik_cmdline>
J2VwaWtfcHl0aG9uJywgJy1waCcsICc3LjAnLCAnLXRuJywgJzgnLCAnLW1hJywgJzIwMCcsICctbWV0YWxfYmluZGluZycsICctaW1hZScsICc8aW5maWxlLm1hZT4nLCAnLW9tYWUnLCAnPG91dGZpbGUubWFlPic=

> <r_epik_Ionization_Penalty>
0.0112597

> <r_epik_Ionization_Penalty_Charging>
0.00794922

> <r_epik_Ionization_Penalty_Neutral>
0.00331052

> <r_epik_State_Penalty>
0.00596555

> <r_epik_Charging_Adjusted_Penalty>
0.0139148

> <i_epik_Tot_Q>
1

> <i_epik_Tot_abs_Q>
1

> <r_epik_Metal_State_Penalty>
0.00603286

> <b_epik_Metal_Only>
0

> <s_lp_Force_Field>
OPLS_2005

> <r_lp_Energy>
28.2789

> <b_lp_Chiralities_Consistent>
1

> <s_lp_Variant>
AV-unprocessed.smi:3042-1

> <Gold.Version>
5.8.1

> <Gold.Id.Protein>
6NUR|6NUR_protein|mol2

> <Gold.PLP.Fitness>
39.4913

> <Gold.PLP.PLP>
-28.0910

> <Gold.PLP.part.hbond>
-2.9172

> <Gold.PLP.part.metal>
0.0000

> <Gold.PLP.part.buried>
-4.8522

> <Gold.PLP.part.nonpolar>
-20.5484

> <Gold.PLP.part.repulsive>
0.3846

> <Gold.PLP.ligand.clash>
0.0000

> <Gold.PLP.ligand.torsion>
0.3546

> <Gold.PLP.Chemscore.Hbond>
4.0000

> <Gold.PLP.Chemscore.CHOScore>
0.0000

> <Gold.PLP.Chemscore.Metal>
0.0000

> <Gold.Chemscore.Hbonds>
donor molecule, donor type, donor heavy atom, donor atom, acceptor molecule, acceptor atom, score
      L1  H     1    17       P1  7948  1.92
      L1  H     1    33       P1  7957  0.94
      P1  H  7997  8010       L1     8  0.91

> <Gold.PLP.Chemscore.Internal.Correction>
0.1095

> <Gold.Rescore>
     Score         DG    S(hbond)    S(metal)    S(lipo)     H(rot)  DE(clash)    DE(int)     intcor
     16.26     -17.92       2.57        0.00      65.56       1.48       0.10       1.56       ----

> <Gold.Chemscore.Fitness>
16.2646

> <Gold.Chemscore.DG>
-17.9241

> <Gold.Chemscore.ZeroCoef>
-5.4800

> <Gold.Chemscore.Hbond>
2.5672

> <Gold.Chemscore.Metal>
0.0000

> <Gold.Chemscore.Lipo>
65.5580

> <Gold.Chemscore.Internal_Hbond>
0.0000

> <Gold.Chemscore.DEClash>
0.1019

> <Gold.Chemscore.DEInternal>
1.5576

> <Gold.Chemscore.Rot>
1.4846

> <Gold.Chemscore.Internal.Correction>
   9.000000E+99

> <Gold.Chemscore.Hbonds>
donor molecule, donor type, donor heavy atom, donor atom, acceptor molecule, acceptor atom, score
      L1  H     1    17       P1  7948  0.88
      L1  H     1    33       P1  7957  0.88
      P1  H  7997  8010       L1     8  0.24

> <Gold.Chemscore.Hbond.Weighted>
-8.5744

> <Gold.Chemscore.Metal.Weighted>
-0.0000

> <Gold.Chemscore.Lipo.Weighted>
-7.6703

> <Gold.Chemscore.Internal_Hbond.Weighted>
0.0000

> <Gold.Chemscore.DEClash.Weighted>
0.1019

> <Gold.Chemscore.DEInternal.Weighted>
1.5576

> <Gold.Chemscore.Rot.Weighted>
3.8005

> <Gold.Chemscore.Internal.Correction.Weighted>
   9.000000E+99

> <Gold.Protein.RotatedTorsions>
[ 6907 6896 6895 6894 ] final -168.65 input  -60.11 | X-H torsion
[ 7974 7965 7964 7962 ] final  161.13 input  175.53 | X-H torsion
[ 8008 7997 7996 7995 ] final   77.44 input   59.86 | X-H torsion
[ 10167 10162 10161 10158 ] final  114.51 input  -65.29 | X-H torsion
[ 10718 10713 10712 10709 ] final  -91.39 input   66.30 | X-H torsion
[ 10763 10752 10751 10750 ] final   47.03 input  -60.55 | X-H torsion
[ 11005 11000 10999 10996 ] final  -26.81 input  -57.11 | X-H torsion

> <Gold.Protein.ActiveResidues>
 VAL166  LYS551  ARG553  GLY616  TRP617  ASP618  TYR619  PRO620  LYS621  CYS622 
 ASP623  PHE694  ASN695  SER759  ASP760  ASP761  ALA762  ILE779  LEU786  VAL792 
 PHE793  MET794  SER795  GLU796  ALA797  LYS798  CYS799  TRP800  GLU811  SER814 

> <Gold.Protein.RotatedAtoms>
  151.4790  133.3551  159.2834 H   0  0  0  0  0  0  0  0  0  0  0  0  # atno 6907 bound_to 6896
  150.8910  134.8315  159.7304 H   0  0  0  0  0  0  0  0  0  0  0  0  # atno 6908 bound_to 6896
  152.4823  134.4700  159.9684 H   0  0  0  0  0  0  0  0  0  0  0  0  # atno 6909 bound_to 6896
  144.7701  139.7855  143.6300 H   0  0  0  0  0  0  0  0  0  0  0  0  # atno 7974 bound_to 7965
  155.8417  140.3462  155.5636 H   0  0  0  0  0  0  0  0  0  0  0  0  # atno 8008 bound_to 7997
  155.8134  140.0902  157.1910 H   0  0  0  0  0  0  0  0  0  0  0  0  # atno 8009 bound_to 7997
  154.4005  140.1443  156.3401 H   0  0  0  0  0  0  0  0  0  0  0  0  # atno 8010 bound_to 7997
  139.6383  144.7122  151.2289 H   0  0  0  0  0  0  0  0  0  0  0  0  # atno 10167 bound_to 10162
  155.9993  130.4946  150.5467 H   0  0  0  0  0  0  0  0  0  0  0  0  # atno 10718 bound_to 10713
  152.9804  135.5989  154.3696 H   0  0  0  0  0  0  0  0  0  0  0  0  # atno 10763 bound_to 10752
  154.3371  135.2768  155.2444 H   0  0  0  0  0  0  0  0  0  0  0  0  # atno 10764 bound_to 10752
  154.4542  135.5982  153.6267 H   0  0  0  0  0  0  0  0  0  0  0  0  # atno 10765 bound_to 10752
  140.9062  133.7491  156.0610 H   0  0  0  0  0  0  0  0  0  0  0  0  # atno 11005 bound_to 11000
  146.1841  139.5048  142.9847 LP  0  0  0  0  0  0  0  0  0  0  0  0  # atno 17320 bound_to 7965
  145.6349  141.0296  143.1843 LP  0  0  0  0  0  0  0  0  0  0  0  0  # atno 17321 bound_to 7965
  140.7477  143.6357  150.8381 LP  0  0  0  0  0  0  0  0  0  0  0  0  # atno 17342 bound_to 10162
  139.9991  143.5764  152.2882 LP  0  0  0  0  0  0  0  0  0  0  0  0  # atno 17343 bound_to 10162
  157.3395  131.0714  151.1799 LP  0  0  0  0  0  0  0  0  0  0  0  0  # atno 17370 bound_to 10713
  157.2652  130.6678  149.5993 LP  0  0  0  0  0  0  0  0  0  0  0  0  # atno 17371 bound_to 10713
  140.8167  134.3336  157.5394 LP  0  0  0  0  0  0  0  0  0  0  0  0  # atno 17394 bound_to 11000
  139.8750  134.9286  156.3454 LP  0  0  0  0  0  0  0  0  0  0  0  0  # atno 17395 bound_to 11000

$$$$
