AV-unprocessed.smi:1244|AV-procd|sdf|5237|dock3
  -GOLD-   22720 4343D 1   1.00000     0.00000
 Structure written by MMmdl.
 55 57  0  0  0  0  0  0  0  0  4 V2000
  152.4064  139.3380  155.7247 C   0  0  0  0  0  0  0  0  0  0  0  0
  150.9091  139.1868  155.4347 C   0  0  2  0  0  0  0  0  0  0  0  0
  150.6265  138.0707  154.4096 C   0  0  0  0  0  0  0  0  0  0  0  0
  149.1788  137.9884  154.0959 N   0  3  1  0  0  0  0  0  0  0  0  0
  148.3710  137.3163  155.1519 C   0  0  0  0  0  0  0  0  0  0  0  0
  148.8259  135.8617  155.3903 C   0  0  0  0  0  0  0  0  0  0  0  0
  147.6666  134.9750  155.4785 N   0  5  0  0  0  0  0  0  0  0  0  0
  147.3083  134.0678  154.5310 C   0  0  0  0  0  0  0  0  0  0  0  0
  147.7286  132.9132  154.3907 O   0  0  0  0  0  0  0  0  0  0  0  0
  146.3773  134.5541  153.6934 N   0  0  0  0  0  0  0  0  0  0  0  0
  145.6854  133.8661  152.6599 C   0  0  0  0  0  0  0  0  0  0  0  0
  146.2973  132.7843  151.9787 C   0  0  0  0  0  0  0  0  0  0  0  0
  145.6307  132.1641  150.9052 C   0  0  0  0  0  0  0  0  0  0  0  0
  144.3689  132.6480  150.5189 C   0  0  0  0  0  0  0  0  0  0  0  0
  143.8195  133.6882  151.1796 N   0  3  0  0  0  0  0  0  0  0  0  0
  144.4043  134.3174  152.2302 C   0  0  0  0  0  0  0  0  0  0  0  0
  143.7031  135.3876  152.8322 N   0  0  0  0  0  0  0  0  0  0  0  0
  143.7532  136.7244  152.2523 C   0  0  0  0  0  0  0  0  0  0  0  0
  142.6427  137.5014  152.9543 C   0  0  0  0  0  0  0  0  0  0  0  0
  141.5725  136.4334  153.1595 C   0  0  0  0  0  0  0  0  0  0  0  0
  142.3778  135.1516  153.3968 C   0  0  0  0  0  0  0  0  0  0  0  0
  148.6692  139.3192  153.6672 C   0  0  0  0  0  0  0  0  0  0  0  0
  149.0268  140.4222  154.6873 C   0  0  2  0  0  0  0  0  0  0  0  0
  148.6245  141.8149  154.1902 C   0  0  0  0  0  0  0  0  0  0  0  0
  150.4334  140.4214  154.9089 O   0  0  0  0  0  0  0  0  0  0  0  0
  152.8207  138.4185  156.1391 H   0  0  0  0  0  0  0  0  0  0  0  0
  152.5844  140.1364  156.4458 H   0  0  0  0  0  0  0  0  0  0  0  0
  152.9626  139.5780  154.8180 H   0  0  0  0  0  0  0  0  0  0  0  0
  150.3963  138.9716  156.3739 H   0  0  0  0  0  0  0  0  0  0  0  0
  151.1651  138.2800  153.4841 H   0  0  0  0  0  0  0  0  0  0  0  0
  150.9959  137.1077  154.7647 H   0  0  0  0  0  0  0  0  0  0  0  0
  148.4769  137.8574  156.0935 H   0  0  0  0  0  0  0  0  0  0  0  0
  147.3101  137.3559  154.9045 H   0  0  0  0  0  0  0  0  0  0  0  0
  149.5103  135.5620  154.5954 H   0  0  0  0  0  0  0  0  0  0  0  0
  149.4156  135.8253  156.3066 H   0  0  0  0  0  0  0  0  0  0  0  0
  146.0196  135.4684  153.9286 H   0  0  0  0  0  0  0  0  0  0  0  0
  147.2818  132.4375  152.2558 H   0  0  0  0  0  0  0  0  0  0  0  0
  146.0871  131.3388  150.3787 H   0  0  0  0  0  0  0  0  0  0  0  0
  143.7876  132.2413  149.7043 H   0  0  0  0  0  0  0  0  0  0  0  0
  144.7286  137.1884  152.4014 H   0  0  0  0  0  0  0  0  0  0  0  0
  143.5505  136.6810  151.1812 H   0  0  0  0  0  0  0  0  0  0  0  0
  142.9947  137.8651  153.9207 H   0  0  0  0  0  0  0  0  0  0  0  0
  142.2905  138.3564  152.3766 H   0  0  0  0  0  0  0  0  0  0  0  0
  140.8925  136.6634  153.9802 H   0  0  0  0  0  0  0  0  0  0  0  0
  140.9791  136.3303  152.2500 H   0  0  0  0  0  0  0  0  0  0  0  0
  141.8867  134.2871  152.9478 H   0  0  0  0  0  0  0  0  0  0  0  0
  142.4787  134.9673  154.4669 H   0  0  0  0  0  0  0  0  0  0  0  0
  149.1209  139.5566  152.7031 H   0  0  0  0  0  0  0  0  0  0  0  0
  147.5920  139.2863  153.4988 H   0  0  0  0  0  0  0  0  0  0  0  0
  148.5180  140.2416  155.6350 H   0  0  0  0  0  0  0  0  0  0  0  0
  147.5500  141.8737  154.0156 H   0  0  0  0  0  0  0  0  0  0  0  0
  149.1298  142.0635  153.2565 H   0  0  0  0  0  0  0  0  0  0  0  0
  148.8841  142.5796  154.9226 H   0  0  0  0  0  0  0  0  0  0  0  0
  149.1059  137.3773  153.2946 H   0  0  0  0  0  0  0  0  0  0  0  0
  142.9036  134.0170  150.8745 H   0  0  0  0  0  0  0  0  0  0  0  0
  1  2  1  0  0  0  0
  1 26  1  0  0  0  0
  1 27  1  0  0  0  0
  1 28  1  0  0  0  0
  2 25  1  0  0  0  0
  2  3  1  0  0  0  0
  2 29  1  0  0  0  0
  3  4  1  0  0  0  0
  3 30  1  0  0  0  0
  3 31  1  0  0  0  0
  4  5  1  0  0  0  0
  4 22  1  0  0  0  0
  4 54  1  0  0  0  0
  5  6  1  0  0  0  0
  5 32  1  0  0  0  0
  5 33  1  0  0  0  0
  6  7  1  0  0  0  0
  6 34  1  0  0  0  0
  6 35  1  0  0  0  0
  7  8  1  0  0  0  0
  8  9  2  0  0  0  0
  8 10  1  0  0  0  0
 10 11  1  0  0  0  0
 10 36  1  0  0  0  0
 11 16  1  0  0  0  0
 11 12  2  0  0  0  0
 12 13  1  0  0  0  0
 12 37  1  0  0  0  0
 13 14  2  0  0  0  0
 13 38  1  0  0  0  0
 14 15  1  0  0  0  0
 14 39  1  0  0  0  0
 15 16  2  0  0  0  0
 15 55  1  0  0  0  0
 16 17  1  0  0  0  0
 17 21  1  0  0  0  0
 17 18  1  0  0  0  0
 18 19  1  0  0  0  0
 18 40  1  0  0  0  0
 18 41  1  0  0  0  0
 19 20  1  0  0  0  0
 19 42  1  0  0  0  0
 19 43  1  0  0  0  0
 20 21  1  0  0  0  0
 20 44  1  0  0  0  0
 20 45  1  0  0  0  0
 21 46  1  0  0  0  0
 21 47  1  0  0  0  0
 22 23  1  0  0  0  0
 22 48  1  0  0  0  0
 22 49  1  0  0  0  0
 23 24  1  0  0  0  0
 23 25  1  0  0  0  0
 23 50  1  0  0  0  0
 24 51  1  0  0  0  0
 24 52  1  0  0  0  0
 24 53  1  0  0  0  0
M  CHG  1   4   1
M  CHG  1   7  -1
M  CHG  1  15   1
M  END
> <s_m_source_file>
AV-unprocessed.smi

> <i_m_source_file_index>
1244

> <i_lp_mmshare_version>
43012

> <i_f3d_flags>
0

> <s_epik_input>
W0NIM11bQ0BASF0xW0NIMl1OKFtDSDJdW0NASF0oTzEpW0NIM10pW0NIMl1bQ0gyXVtOSF1DKD1PKVtOSF1jMltjSF1bY0hdW2NIXW5jMk4zW0NIMl1bQ0gyXVtDSDJdW0NIMl0z

> <s_epik_cmdline>
J2VwaWtfcHl0aG9uJywgJy1waCcsICc3LjAnLCAnLXRuJywgJzgnLCAnLW1hJywgJzIwMCcsICctbWV0YWxfYmluZGluZycsICctaW1hZScsICc8aW5maWxlLm1hZT4nLCAnLW9tYWUnLCAnPG91dGZpbGUubWFlPic=

> <r_lp_tautomer_probability>
0.999994

> <r_epik_Ionization_Penalty>
8.60539

> <r_epik_Ionization_Penalty_Charging>
8.60539

> <r_epik_Ionization_Penalty_Neutral>
3.60441e-06

> <r_epik_State_Penalty>
8.59967

> <r_epik_Charging_Adjusted_Penalty>
17.2051

> <i_epik_Tot_Q>
1

> <i_epik_Tot_abs_Q>
3

> <r_epik_Metal_State_Penalty>
4.59489

> <b_epik_Metal_Only>
1

> <s_lp_Force_Field>
OPLS_2005

> <r_lp_Energy>
45.4407

> <b_lp_Chiralities_Consistent>
1

> <s_lp_Variant>
AV-unprocessed.smi:1244-17

> <Gold.Version>
5.8.1

> <Gold.Id.Protein>
6NUR|6NUR_protein|mol2

> <Gold.PLP.Fitness>
52.7792

> <Gold.PLP.PLP>
-40.2540

> <Gold.PLP.part.hbond>
-3.0000

> <Gold.PLP.part.metal>
0.0000

> <Gold.PLP.part.buried>
-2.5466

> <Gold.PLP.part.nonpolar>
-34.5421

> <Gold.PLP.part.repulsive>
0.3557

> <Gold.PLP.ligand.clash>
0.0000

> <Gold.PLP.ligand.torsion>
1.6182

> <Gold.PLP.Chemscore.Hbond>
5.0000

> <Gold.PLP.Chemscore.CHOScore>
0.0000

> <Gold.PLP.Chemscore.Metal>
0.0000

> <Gold.Chemscore.Hbonds>
donor molecule, donor type, donor heavy atom, donor atom, acceptor molecule, acceptor atom, score
      L1  H     4    54       P1  7948  2.00
      L1  H    15    55       P1 10186  0.46
      P1  H  7989  7998       L1    25  1.00

> <Gold.PLP.Chemscore.Internal.Correction>
0.7616

> <Gold.Rescore>
     Score         DG    S(hbond)    S(metal)    S(lipo)     H(rot)  DE(clash)    DE(int)     intcor
     15.60     -18.57       1.95        0.00      91.02       1.60       0.03       2.93       ----

> <Gold.Chemscore.Fitness>
15.6039

> <Gold.Chemscore.DG>
-18.5682

> <Gold.Chemscore.ZeroCoef>
-5.4800

> <Gold.Chemscore.Hbond>
1.9548

> <Gold.Chemscore.Metal>
0.0000

> <Gold.Chemscore.Lipo>
91.0214

> <Gold.Chemscore.Internal_Hbond>
0.0000

> <Gold.Chemscore.DEClash>
0.0308

> <Gold.Chemscore.DEInternal>
2.9334

> <Gold.Chemscore.Rot>
1.5978

> <Gold.Chemscore.Internal.Correction>
   9.000000E+99

> <Gold.Chemscore.Hbonds>
donor molecule, donor type, donor heavy atom, donor atom, acceptor molecule, acceptor atom, score
      L1  H     4    54       P1  7948  1.00
      L1  H    15    55       P1 10186  0.16
      P1  H  7989  7998       L1    25  0.52

> <Gold.Chemscore.Hbond.Weighted>
-6.5291

> <Gold.Chemscore.Metal.Weighted>
-0.0000

> <Gold.Chemscore.Lipo.Weighted>
-10.6495

> <Gold.Chemscore.Internal_Hbond.Weighted>
0.0000

> <Gold.Chemscore.DEClash.Weighted>
0.0308

> <Gold.Chemscore.DEInternal.Weighted>
2.9334

> <Gold.Chemscore.Rot.Weighted>
4.0905

> <Gold.Chemscore.Internal.Correction.Weighted>
   9.000000E+99

> <Gold.Protein.RotatedTorsions>
[ 6907 6896 6895 6894 ] final  125.33 input  -60.11 | X-H torsion
[ 7974 7965 7964 7962 ] final -153.23 input  175.53 | X-H torsion
[ 8008 7997 7996 7995 ] final  -33.50 input   59.86 | X-H torsion
[ 10167 10162 10161 10158 ] final -135.22 input  -65.29 | X-H torsion
[ 10718 10713 10712 10709 ] final  -43.69 input   66.30 | X-H torsion
[ 10763 10752 10751 10750 ] final   74.18 input  -60.55 | X-H torsion
[ 11005 11000 10999 10996 ] final -126.79 input  -57.11 | X-H torsion

> <Gold.Protein.ActiveResidues>
 VAL166  LYS551  ARG553  GLY616  TRP617  ASP618  TYR619  PRO620  LYS621  CYS622 
 ASP623  PHE694  ASN695  SER759  ASP760  ASP761  ALA762  ILE779  LEU786  VAL792 
 PHE793  MET794  SER795  GLU796  ALA797  LYS798  CYS799  TRP800  GLU811  SER814 

> <Gold.Protein.RotatedAtoms>
  152.4001  133.6805  159.6308 H   0  0  0  0  0  0  0  0  0  0  0  0  # atno 6907 bound_to 6896
  150.7893  133.8806  159.3293 H   0  0  0  0  0  0  0  0  0  0  0  0  # atno 6908 bound_to 6896
  151.6574  135.0995  160.0224 H   0  0  0  0  0  0  0  0  0  0  0  0  # atno 6909 bound_to 6896
  144.7752  140.4554  143.5879 H   0  0  0  0  0  0  0  0  0  0  0  0  # atno 7974 bound_to 7965
  154.4147  140.1709  156.1898 H   0  0  0  0  0  0  0  0  0  0  0  0  # atno 8008 bound_to 7997
  155.9613  140.3393  155.6469 H   0  0  0  0  0  0  0  0  0  0  0  0  # atno 8009 bound_to 7997
  155.6745  140.0715  157.2498 H   0  0  0  0  0  0  0  0  0  0  0  0  # atno 8010 bound_to 7997
  139.8800  143.6850  152.2628 H   0  0  0  0  0  0  0  0  0  0  0  0  # atno 10167 bound_to 10162
  156.2463  130.4184  149.8701 H   0  0  0  0  0  0  0  0  0  0  0  0  # atno 10718 bound_to 10713
  153.0569  135.5035  154.8003 H   0  0  0  0  0  0  0  0  0  0  0  0  # atno 10763 bound_to 10752
  154.6822  135.2970  154.9599 H   0  0  0  0  0  0  0  0  0  0  0  0  # atno 10764 bound_to 10752
  154.0382  135.6720  153.4840 H   0  0  0  0  0  0  0  0  0  0  0  0  # atno 10765 bound_to 10752
  140.9652  134.0881  157.3927 H   0  0  0  0  0  0  0  0  0  0  0  0  # atno 11005 bound_to 11000
  145.6208  139.1524  143.3023 LP  0  0  0  0  0  0  0  0  0  0  0  0  # atno 17320 bound_to 7965
  146.1926  140.6318  142.9139 LP  0  0  0  0  0  0  0  0  0  0  0  0  # atno 17321 bound_to 7965
  139.7204  144.7603  151.0964 LP  0  0  0  0  0  0  0  0  0  0  0  0  # atno 17342 bound_to 10162
  140.7746  143.5215  150.9531 LP  0  0  0  0  0  0  0  0  0  0  0  0  # atno 17343 bound_to 10162
  156.6265  130.8648  151.3486 LP  0  0  0  0  0  0  0  0  0  0  0  0  # atno 17370 bound_to 10713
  157.7196  130.9541  150.1388 LP  0  0  0  0  0  0  0  0  0  0  0  0  # atno 17371 bound_to 10713
  139.8892  135.0103  156.6665 LP  0  0  0  0  0  0  0  0  0  0  0  0  # atno 17394 bound_to 11000
  140.7409  133.8978  155.8277 LP  0  0  0  0  0  0  0  0  0  0  0  0  # atno 17395 bound_to 11000

$$$$
