AV-unprocessed.smi:242|AV-procd|sdf|1847|dock3
  -GOLD-   2262020463D 1   1.00000     0.00000
 Structure written by MMmdl.
 58 61  0  0  0  0  0  0  0  0  2 V2000
  145.0418  131.2958  151.3581 C   0  0  0  0  0  0  0  0  0  0  0  0
  144.1975  132.5835  151.2910 C   0  0  0  0  0  0  0  0  0  0  0  0
  144.7366  133.4845  150.1626 C   0  0  0  0  0  0  0  0  0  0  0  0
  144.1886  133.2888  152.6040 N   0  3  1  0  0  0  0  0  0  0  0  0
  145.5178  133.6405  153.1559 C   0  0  0  0  0  0  0  0  0  0  0  0
  145.2788  134.8542  154.0490 C   0  0  0  0  0  0  0  0  0  0  0  0
  144.2444  135.6367  153.2454 C   0  0  2  0  0  0  0  0  0  0  0  0
  143.5110  136.6426  154.0206 N   0  0  0  0  0  0  0  0  0  0  0  0
  142.6157  136.1591  155.0648 C   0  0  0  0  0  0  0  0  0  0  0  0
  144.2251  137.7078  154.4560 C   0  0  0  0  0  0  0  0  0  0  0  0
  143.9130  138.3042  155.6373 N   0  0  0  0  0  0  0  0  0  0  0  0
  144.6207  139.3556  156.0623 C   0  0  0  0  0  0  0  0  0  0  0  0
  145.6569  139.9572  155.4739 N   0  0  0  0  0  0  0  0  0  0  0  0
  145.9641  139.3663  154.2834 C   0  0  0  0  0  0  0  0  0  0  0  0
  145.3027  138.2474  153.7052 C   0  0  0  0  0  0  0  0  0  0  0  0
  145.8940  137.9154  152.4933 N   0  0  0  0  0  0  0  0  0  0  0  0
  146.8547  138.7894  152.3621 C   0  0  0  0  0  0  0  0  0  0  0  0
  146.9647  139.7017  153.3881 N   0  0  0  0  0  0  0  0  0  0  0  0
  147.9435  140.7725  153.4999 C   0  0  0  0  0  0  0  0  0  0  0  0
  149.1776  140.4159  154.3657 C   0  0  0  0  0  0  0  0  0  0  0  0
  150.1211  139.7686  153.5301 O   0  0  0  0  0  0  0  0  0  0  0  0
  149.8241  141.6984  154.9269 C   0  0  0  0  0  0  0  0  0  0  0  0
  150.9478  141.3917  155.9326 C   0  0  0  0  0  0  0  0  0  0  0  0
  150.4523  140.5626  156.9766 O   0  0  0  0  0  0  0  0  0  0  0  0
  150.0118  139.2941  156.5081 C   0  0  0  0  0  0  0  0  0  0  0  0
  148.8320  139.4685  155.5351 C   0  0  0  0  0  0  0  0  0  0  0  0
  143.3583  134.5193  152.6624 C   0  0  0  0  0  0  0  0  0  0  0  0
  145.0656  130.7949  150.3898 H   0  0  0  0  0  0  0  0  0  0  0  0
  144.6479  130.5753  152.0741 H   0  0  0  0  0  0  0  0  0  0  0  0
  146.0724  131.5135  151.6403 H   0  0  0  0  0  0  0  0  0  0  0  0
  143.1697  132.3113  151.0456 H   0  0  0  0  0  0  0  0  0  0  0  0
  144.7837  132.9403  149.2187 H   0  0  0  0  0  0  0  0  0  0  0  0
  145.7425  133.8418  150.3862 H   0  0  0  0  0  0  0  0  0  0  0  0
  144.1024  134.3541  149.9911 H   0  0  0  0  0  0  0  0  0  0  0  0
  145.9634  132.8069  153.6998 H   0  0  0  0  0  0  0  0  0  0  0  0
  146.1942  133.9187  152.3456 H   0  0  0  0  0  0  0  0  0  0  0  0
  144.8637  134.5390  155.0079 H   0  0  0  0  0  0  0  0  0  0  0  0
  146.1911  135.4203  154.2396 H   0  0  0  0  0  0  0  0  0  0  0  0
  144.7650  136.1351  152.4257 H   0  0  0  0  0  0  0  0  0  0  0  0
  142.1250  136.9826  155.5860 H   0  0  0  0  0  0  0  0  0  0  0  0
  143.1664  135.5697  155.7990 H   0  0  0  0  0  0  0  0  0  0  0  0
  141.8328  135.5313  154.6398 H   0  0  0  0  0  0  0  0  0  0  0  0
  144.3138  139.7750  157.0092 H   0  0  0  0  0  0  0  0  0  0  0  0
  147.5129  138.7951  151.5055 H   0  0  0  0  0  0  0  0  0  0  0  0
  148.2556  141.0577  152.4942 H   0  0  0  0  0  0  0  0  0  0  0  0
  147.4366  141.6440  153.9164 H   0  0  0  0  0  0  0  0  0  0  0  0
  149.7326  139.6426  152.6779 H   0  0  0  0  0  0  0  0  0  0  0  0
  150.2067  142.3204  154.1167 H   0  0  0  0  0  0  0  0  0  0  0  0
  149.0632  142.2932  155.4341 H   0  0  0  0  0  0  0  0  0  0  0  0
  151.7957  140.9117  155.4418 H   0  0  0  0  0  0  0  0  0  0  0  0
  151.3202  142.3188  156.3684 H   0  0  0  0  0  0  0  0  0  0  0  0
  150.8377  138.7624  156.0335 H   0  0  0  0  0  0  0  0  0  0  0  0
  149.7019  138.6936  157.3633 H   0  0  0  0  0  0  0  0  0  0  0  0
  147.9841  139.8757  156.0875 H   0  0  0  0  0  0  0  0  0  0  0  0
  148.5177  138.4915  155.1661 H   0  0  0  0  0  0  0  0  0  0  0  0
  142.9721  134.8166  151.6871 H   0  0  0  0  0  0  0  0  0  0  0  0
  142.5045  134.3129  153.3094 H   0  0  0  0  0  0  0  0  0  0  0  0
  143.7758  132.6511  153.2699 H   0  0  0  0  0  0  0  0  0  0  0  0
  1  2  1  0  0  0  0
  1 28  1  0  0  0  0
  1 29  1  0  0  0  0
  1 30  1  0  0  0  0
  2  3  1  0  0  0  0
  2  4  1  0  0  0  0
  2 31  1  0  0  0  0
  3 32  1  0  0  0  0
  3 33  1  0  0  0  0
  3 34  1  0  0  0  0
  4 27  1  0  0  0  0
  4  5  1  0  0  0  0
  4 58  1  0  0  0  0
  5  6  1  0  0  0  0
  5 35  1  0  0  0  0
  5 36  1  0  0  0  0
  6  7  1  0  0  0  0
  6 37  1  0  0  0  0
  6 38  1  0  0  0  0
  7  8  1  0  0  0  0
  7 27  1  0  0  0  0
  7 39  1  0  0  0  0
  8  9  1  0  0  0  0
  8 10  1  0  0  0  0
  9 40  1  0  0  0  0
  9 41  1  0  0  0  0
  9 42  1  0  0  0  0
 10 15  1  0  0  0  0
 10 11  2  0  0  0  0
 11 12  1  0  0  0  0
 12 13  2  0  0  0  0
 12 43  1  0  0  0  0
 13 14  1  0  0  0  0
 14 18  1  0  0  0  0
 14 15  2  0  0  0  0
 15 16  1  0  0  0  0
 16 17  2  0  0  0  0
 17 18  1  0  0  0  0
 17 44  1  0  0  0  0
 18 19  1  0  0  0  0
 19 20  1  0  0  0  0
 19 45  1  0  0  0  0
 19 46  1  0  0  0  0
 20 26  1  0  0  0  0
 20 21  1  0  0  0  0
 20 22  1  0  0  0  0
 21 47  1  0  0  0  0
 22 23  1  0  0  0  0
 22 48  1  0  0  0  0
 22 49  1  0  0  0  0
 23 24  1  0  0  0  0
 23 50  1  0  0  0  0
 23 51  1  0  0  0  0
 24 25  1  0  0  0  0
 25 26  1  0  0  0  0
 25 52  1  0  0  0  0
 25 53  1  0  0  0  0
 26 54  1  0  0  0  0
 26 55  1  0  0  0  0
 27 56  1  0  0  0  0
 27 57  1  0  0  0  0
M  CHG  1   4   1
M  END
> <s_m_source_file>
AV-unprocessed.smi

> <i_m_source_file_index>
242

> <i_lp_mmshare_version>
43012

> <i_f3d_flags>
0

> <s_epik_input>
W0NIM11bQ0hdKFtDSDNdKU4xW0NIMl1bQ0gyXVtDQEhdKFtDSDJdMSlOKFtDSDNdKWMobltjSF1uMiljKGMyMyluW2NIXW4zW0NIMl1DNChbT0hdKVtDSDJdW0NIMl1PW0NIMl1bQ0gyXTQ=

> <s_epik_cmdline>
J2VwaWtfcHl0aG9uJywgJy1waCcsICc3LjAnLCAnLXRuJywgJzgnLCAnLW1hJywgJzIwMCcsICctbWV0YWxfYmluZGluZycsICctaW1hZScsICc8aW5maWxlLm1hZT4nLCAnLW9tYWUnLCAnPG91dGZpbGUubWFlPic=

> <r_lp_tautomer_probability>
1

> <r_epik_Ionization_Penalty>
0.000825961

> <r_epik_Ionization_Penalty_Charging>
0.00034898

> <r_epik_Ionization_Penalty_Neutral>
0.000476981

> <r_epik_State_Penalty>
-0

> <r_epik_Charging_Adjusted_Penalty>
0.00034898

> <i_epik_Tot_Q>
1

> <i_epik_Tot_abs_Q>
1

> <r_epik_Metal_State_Penalty>
-0

> <b_epik_Metal_Only>
0

> <s_lp_Force_Field>
OPLS_2005

> <r_lp_Energy>
48.0366

> <b_lp_Chiralities_Consistent>
1

> <s_lp_Variant>
AV-unprocessed.smi:242-4

> <Gold.Version>
5.8.1

> <Gold.Id.Protein>
6NUR|6NUR_protein|mol2

> <Gold.PLP.Fitness>
44.1181

> <Gold.PLP.PLP>
-30.0856

> <Gold.PLP.part.hbond>
-3.0000

> <Gold.PLP.part.metal>
0.0000

> <Gold.PLP.part.buried>
3.1101

> <Gold.PLP.part.nonpolar>
-28.9304

> <Gold.PLP.part.repulsive>
0.5452

> <Gold.PLP.ligand.clash>
0.0000

> <Gold.PLP.ligand.torsion>
1.2776

> <Gold.PLP.Chemscore.Hbond>
3.9600

> <Gold.PLP.Chemscore.CHOScore>
1.4091

> <Gold.PLP.Chemscore.Metal>
0.0000

> <Gold.Chemscore.Hbonds>
donor molecule, donor type, donor heavy atom, donor atom, acceptor molecule, acceptor atom, score
      L1  H     4    58       P1 10957  1.85
      L1  H    21    47       P1  7957  1.00
      P1  H  7989  7998       L1    21  0.77
      L1  C    17    44       P1  7948  0.01
      L1  C    17    44       P1  7957  1.00

> <Gold.PLP.Chemscore.Internal.Correction>
0.4806

> <Gold.Rescore>
     Score         DG    S(hbond)    S(metal)    S(lipo)     H(rot)  DE(clash)    DE(int)     intcor
      9.81     -15.19       2.12        0.00      77.27       2.50       2.06       3.32       ----

> <Gold.Chemscore.Fitness>
9.8106

> <Gold.Chemscore.DG>
-15.1874

> <Gold.Chemscore.ZeroCoef>
-5.4800

> <Gold.Chemscore.Hbond>
2.1154

> <Gold.Chemscore.Metal>
0.0000

> <Gold.Chemscore.Lipo>
77.2726

> <Gold.Chemscore.Internal_Hbond>
0.0000

> <Gold.Chemscore.DEClash>
2.0557

> <Gold.Chemscore.DEInternal>
3.3211

> <Gold.Chemscore.Rot>
2.4996

> <Gold.Chemscore.Internal.Correction>
   9.000000E+99

> <Gold.Chemscore.Hbonds>
donor molecule, donor type, donor heavy atom, donor atom, acceptor molecule, acceptor atom, score
      L1  H     4    58       P1 10957  0.31
      L1  H    21    47       P1  7957  0.91
      P1  H  7989  7998       L1    21  0.38

> <Gold.Chemscore.Hbond.Weighted>
-7.0655

> <Gold.Chemscore.Metal.Weighted>
-0.0000

> <Gold.Chemscore.Lipo.Weighted>
-9.0409

> <Gold.Chemscore.Internal_Hbond.Weighted>
0.0000

> <Gold.Chemscore.DEClash.Weighted>
2.0557

> <Gold.Chemscore.DEInternal.Weighted>
3.3211

> <Gold.Chemscore.Rot.Weighted>
6.3990

> <Gold.Chemscore.Internal.Correction.Weighted>
   9.000000E+99

> <Gold.Protein.RotatedTorsions>
[ 6907 6896 6895 6894 ] final -172.76 input  -60.11 | X-H torsion
[ 7974 7965 7964 7962 ] final   -3.34 input  175.53 | X-H torsion
[ 8008 7997 7996 7995 ] final  -99.30 input   59.86 | X-H torsion
[ 10167 10162 10161 10158 ] final -144.27 input  -65.29 | X-H torsion
[ 10718 10713 10712 10709 ] final  125.93 input   66.30 | X-H torsion
[ 10763 10752 10751 10750 ] final  132.22 input  -60.55 | X-H torsion
[ 11005 11000 10999 10996 ] final   31.60 input  -57.11 | X-H torsion

> <Gold.Protein.ActiveResidues>
 VAL166  LYS551  ARG553  GLY616  TRP617  ASP618  TYR619  PRO620  LYS621  CYS622 
 ASP623  PHE694  ASN695  SER759  ASP760  ASP761  ALA762  ILE779  LEU786  VAL792 
 PHE793  MET794  SER795  GLU796  ALA797  LYS798  CYS799  TRP800  GLU811  SER814 

> <Gold.Protein.RotatedAtoms>
  151.5451  133.3426  159.2942 H   0  0  0  0  0  0  0  0  0  0  0  0  # atno 6907 bound_to 6896
  150.8512  134.7840  159.7021 H   0  0  0  0  0  0  0  0  0  0  0  0  # atno 6908 bound_to 6896
  152.4557  134.5304  159.9861 H   0  0  0  0  0  0  0  0  0  0  0  0  # atno 6909 bound_to 6896
  146.2391  140.1706  142.8332 H   0  0  0  0  0  0  0  0  0  0  0  0  # atno 7974 bound_to 7965
  154.8129  140.0449  157.1356 H   0  0  0  0  0  0  0  0  0  0  0  0  # atno 8008 bound_to 7997
  154.9347  140.3044  155.5130 H   0  0  0  0  0  0  0  0  0  0  0  0  # atno 8009 bound_to 7997
  156.2973  140.2316  156.4411 H   0  0  0  0  0  0  0  0  0  0  0  0  # atno 8010 bound_to 7997
  139.7915  143.7960  152.2650 H   0  0  0  0  0  0  0  0  0  0  0  0  # atno 10167 bound_to 10162
  157.5461  131.1095  150.8779 H   0  0  0  0  0  0  0  0  0  0  0  0  # atno 10718 bound_to 10713
  153.7872  135.3160  155.3373 H   0  0  0  0  0  0  0  0  0  0  0  0  # atno 10763 bound_to 10752
  154.8139  135.4649  154.0594 H   0  0  0  0  0  0  0  0  0  0  0  0  # atno 10764 bound_to 10752
  153.1901  135.6907  153.8450 H   0  0  0  0  0  0  0  0  0  0  0  0  # atno 10765 bound_to 10752
  140.2822  134.2960  155.7797 H   0  0  0  0  0  0  0  0  0  0  0  0  # atno 11005 bound_to 11000
  145.0015  140.8635  143.5279 LP  0  0  0  0  0  0  0  0  0  0  0  0  # atno 17320 bound_to 7965
  145.1726  139.2396  143.5334 LP  0  0  0  0  0  0  0  0  0  0  0  0  # atno 17321 bound_to 7965
  139.8053  144.7358  150.9770 LP  0  0  0  0  0  0  0  0  0  0  0  0  # atno 17342 bound_to 10162
  140.7820  143.4305  151.0702 LP  0  0  0  0  0  0  0  0  0  0  0  0  # atno 17343 bound_to 10162
  156.9317  130.5352  149.5279 LP  0  0  0  0  0  0  0  0  0  0  0  0  # atno 17370 bound_to 10713
  156.0537  130.5602  150.9045 LP  0  0  0  0  0  0  0  0  0  0  0  0  # atno 17371 bound_to 10713
  141.2161  133.7532  156.9498 LP  0  0  0  0  0  0  0  0  0  0  0  0  # atno 17394 bound_to 11000
  140.1273  134.9379  157.2287 LP  0  0  0  0  0  0  0  0  0  0  0  0  # atno 17395 bound_to 11000

$$$$
