AV-unprocessed.smi:1724|AV-procd|sdf|6949|dock1
  -GOLD-   22720 8163D 1   1.00000     0.00000
 Structure written by MMmdl.
 38 39  0  0  0  0  0  0  0  0  1 V2000
  146.8342  139.9330  153.9055 O   0  0  0  0  0  0  0  0  0  0  0  0
  147.7148  139.2367  153.4012 C   0  0  0  0  0  0  0  0  0  0  0  0
  147.4929  138.3939  152.3819 N   0  0  0  0  0  0  0  0  0  0  0  0
  146.2036  138.1611  151.7361 C   0  0  0  0  0  0  0  0  0  0  0  0
  145.6309  136.7633  152.0504 C   0  0  2  0  0  0  0  0  0  0  0  0
  145.5945  135.8344  150.8217 C   0  0  0  0  0  0  0  0  0  0  0  0
  144.9260  134.5026  151.1814 C   0  0  0  0  0  0  0  0  0  0  0  0
  143.5536  134.7463  151.8260 C   0  0  0  0  0  0  0  0  0  0  0  0
  143.7018  135.5829  152.9672 O   0  0  0  0  0  0  0  0  0  0  0  0
  144.2129  136.8730  152.6480 C   0  0  0  0  0  0  0  0  0  0  0  0
  149.0114  139.2207  153.7620 N   0  0  0  0  0  0  0  0  0  0  0  0
  149.6637  139.9322  154.7839 C   0  0  0  0  0  0  0  0  0  0  0  0
  150.4511  139.3756  155.7416 C   0  0  0  0  0  0  0  0  0  0  0  0
  151.1047  140.1752  156.7645 C   0  0  0  0  0  0  0  0  0  0  0  0
  151.9148  139.5345  157.8809 C   0  0  0  0  0  0  0  0  0  0  0  0
  152.5719  140.4535  158.5896 F   0  0  0  0  0  0  0  0  0  0  0  0
  151.1289  138.8488  158.7112 F   0  0  0  0  0  0  0  0  0  0  0  0
  152.8084  138.6916  157.3650 F   0  0  0  0  0  0  0  0  0  0  0  0
  150.8852  141.5021  156.7203 C   0  0  0  0  0  0  0  0  0  0  0  0
  150.0963  142.0849  155.7263 N   0  0  0  0  0  0  0  0  0  0  0  0
  149.4684  141.3914  154.7504 C   0  0  0  0  0  0  0  0  0  0  0  0
  148.7886  141.9800  153.9102 O   0  0  0  0  0  0  0  0  0  0  0  0
  149.9938  143.0893  155.7517 H   0  0  0  0  0  0  0  0  0  0  0  0
  148.2773  137.8679  152.0249 H   0  0  0  0  0  0  0  0  0  0  0  0
  145.5173  138.9258  152.1012 H   0  0  0  0  0  0  0  0  0  0  0  0
  146.2714  138.3094  150.6570 H   0  0  0  0  0  0  0  0  0  0  0  0
  146.2705  136.3002  152.8037 H   0  0  0  0  0  0  0  0  0  0  0  0
  145.0433  136.3140  150.0119 H   0  0  0  0  0  0  0  0  0  0  0  0
  146.6002  135.6450  150.4465 H   0  0  0  0  0  0  0  0  0  0  0  0
  144.8203  133.8816  150.2914 H   0  0  0  0  0  0  0  0  0  0  0  0
  145.5606  133.9500  151.8753 H   0  0  0  0  0  0  0  0  0  0  0  0
  142.8630  135.2013  151.1142 H   0  0  0  0  0  0  0  0  0  0  0  0
  143.1120  133.7996  152.1376 H   0  0  0  0  0  0  0  0  0  0  0  0
  144.2350  137.4674  153.5617 H   0  0  0  0  0  0  0  0  0  0  0  0
  143.5360  137.3801  151.9584 H   0  0  0  0  0  0  0  0  0  0  0  0
  149.6213  138.6396  153.2050 H   0  0  0  0  0  0  0  0  0  0  0  0
  150.6351  138.3142  155.7637 H   0  0  0  0  0  0  0  0  0  0  0  0
  151.2844  142.2086  157.4330 H   0  0  0  0  0  0  0  0  0  0  0  0
  1  2  2  0  0  0  0
  2  3  1  0  0  0  0
  2 11  1  0  0  0  0
  3  4  1  0  0  0  0
  3 24  1  0  0  0  0
  4  5  1  0  0  0  0
  4 25  1  0  0  0  0
  4 26  1  0  0  0  0
  5 10  1  0  0  0  0
  5  6  1  0  0  0  0
  5 27  1  0  0  0  0
  6  7  1  0  0  0  0
  6 28  1  0  0  0  0
  6 29  1  0  0  0  0
  7  8  1  0  0  0  0
  7 30  1  0  0  0  0
  7 31  1  0  0  0  0
  8  9  1  0  0  0  0
  8 32  1  0  0  0  0
  8 33  1  0  0  0  0
  9 10  1  0  0  0  0
 10 34  1  0  0  0  0
 10 35  1  0  0  0  0
 11 12  1  0  0  0  0
 11 36  1  0  0  0  0
 12 21  1  0  0  0  0
 12 13  2  0  0  0  0
 13 14  1  0  0  0  0
 13 37  1  0  0  0  0
 14 15  1  0  0  0  0
 14 19  2  0  0  0  0
 15 16  1  0  0  0  0
 15 17  1  0  0  0  0
 15 18  1  0  0  0  0
 19 20  1  0  0  0  0
 19 38  1  0  0  0  0
 20 23  1  0  0  0  0
 20 21  1  0  0  0  0
 21 22  2  0  0  0  0
M  END
> <s_m_source_file>
AV-unprocessed.smi

> <i_m_source_file_index>
1724

> <i_lp_mmshare_version>
43012

> <i_f3d_flags>
0

> <s_epik_input>
Tz1jMVtuSF1bY0hdYyhDKEYpKEYpRilbY0hdYzFbTkhdQyg9TylbTkhdW0NIMl1bQ0BASF0yW0NIMl1bQ0gyXVtDSDJdT1tDSDJdMg==

> <s_epik_cmdline>
J2VwaWtfcHl0aG9uJywgJy1waCcsICc3LjAnLCAnLXRuJywgJzgnLCAnLW1hJywgJzIwMCcsICctbWV0YWxfYmluZGluZycsICctaW1hZScsICc8aW5maWxlLm1hZT4nLCAnLW9tYWUnLCAnPG91dGZpbGUubWFlPic=

> <r_lp_tautomer_probability>
1

> <r_epik_Ionization_Penalty>
0.00384958

> <r_epik_Ionization_Penalty_Charging>
0.00382926

> <r_epik_Ionization_Penalty_Neutral>
2.03186e-05

> <r_epik_State_Penalty>
-0

> <r_epik_Charging_Adjusted_Penalty>
0.00382926

> <i_epik_Tot_Q>
0

> <i_epik_Tot_abs_Q>
0

> <r_epik_Metal_State_Penalty>
0.371494

> <b_epik_Metal_Only>
0

> <s_lp_Force_Field>
OPLS_2005

> <r_lp_Energy>
21.9541

> <b_lp_Chiralities_Consistent>
1

> <s_lp_Variant>
AV-unprocessed.smi:1724-1

> <Gold.Version>
5.8.1

> <Gold.Id.Protein>
6NUR|6NUR_protein|mol2

> <Gold.PLP.Fitness>
41.6251

> <Gold.PLP.PLP>
-38.4342

> <Gold.PLP.part.hbond>
-5.0000

> <Gold.PLP.part.metal>
0.0000

> <Gold.PLP.part.buried>
-3.1777

> <Gold.PLP.part.nonpolar>
-31.1090

> <Gold.PLP.part.repulsive>
0.7543

> <Gold.PLP.ligand.clash>
0.8193

> <Gold.PLP.ligand.torsion>
1.5687

> <Gold.PLP.Chemscore.Hbond>
2.3600

> <Gold.PLP.Chemscore.CHOScore>
0.0000

> <Gold.PLP.Chemscore.Metal>
0.0000

> <Gold.Chemscore.Hbonds>
donor molecule, donor type, donor heavy atom, donor atom, acceptor molecule, acceptor atom, score
      L1  H     3    24       P1  7948  0.91
      L1  H    20    23       P1  8028  1.00
      P1  H  8011  8017       L1    22  0.45

> <Gold.PLP.Chemscore.Internal.Correction>
0.0677

> <Gold.Rescore>
     Score         DG    S(hbond)    S(metal)    S(lipo)     H(rot)  DE(clash)    DE(int)     intcor
     14.99     -17.05       2.29        0.00      62.83       1.33       0.21       1.86       ----

> <Gold.Chemscore.Fitness>
14.9898

> <Gold.Chemscore.DG>
-17.0526

> <Gold.Chemscore.ZeroCoef>
-5.4800

> <Gold.Chemscore.Hbond>
2.2867

> <Gold.Chemscore.Metal>
0.0000

> <Gold.Chemscore.Lipo>
62.8299

> <Gold.Chemscore.Internal_Hbond>
0.0000

> <Gold.Chemscore.DEClash>
0.2067

> <Gold.Chemscore.DEInternal>
1.8561

> <Gold.Chemscore.Rot>
1.3344

> <Gold.Chemscore.Internal.Correction>
   9.000000E+99

> <Gold.Chemscore.Hbonds>
donor molecule, donor type, donor heavy atom, donor atom, acceptor molecule, acceptor atom, score
      L1  H     3    24       P1  7948  0.90
      L1  H    20    23       P1  8028  0.95
      P1  H  8011  8017       L1    22  0.37

> <Gold.Chemscore.Hbond.Weighted>
-7.6375

> <Gold.Chemscore.Metal.Weighted>
-0.0000

> <Gold.Chemscore.Lipo.Weighted>
-7.3511

> <Gold.Chemscore.Internal_Hbond.Weighted>
0.0000

> <Gold.Chemscore.DEClash.Weighted>
0.2067

> <Gold.Chemscore.DEInternal.Weighted>
1.8561

> <Gold.Chemscore.Rot.Weighted>
3.4160

> <Gold.Chemscore.Internal.Correction.Weighted>
   9.000000E+99

> <Gold.Protein.RotatedTorsions>
[ 6907 6896 6895 6894 ] final   -4.85 input  -60.11 | X-H torsion
[ 7974 7965 7964 7962 ] final   70.19 input  175.53 | X-H torsion
[ 8008 7997 7996 7995 ] final   69.74 input   59.86 | X-H torsion
[ 10167 10162 10161 10158 ] final -139.66 input  -65.29 | X-H torsion
[ 10718 10713 10712 10709 ] final  114.42 input   66.30 | X-H torsion
[ 10763 10752 10751 10750 ] final  -54.08 input  -60.55 | X-H torsion
[ 11005 11000 10999 10996 ] final   37.24 input  -57.11 | X-H torsion

> <Gold.Protein.ActiveResidues>
 VAL166  LYS551  ARG553  GLY616  TRP617  ASP618  TYR619  PRO620  LYS621  CYS622 
 ASP623  PHE694  ASN695  SER759  ASP760  ASP761  ALA762  ILE779  LEU786  VAL792 
 PHE793  MET794  SER795  GLU796  ALA797  LYS798  CYS799  TRP800  GLU811  SER814 

> <Gold.Protein.RotatedAtoms>
  151.4911  135.1057  159.9803 H   0  0  0  0  0  0  0  0  0  0  0  0  # atno 6907 bound_to 6896
  152.4740  133.8092  159.7005 H   0  0  0  0  0  0  0  0  0  0  0  0  # atno 6908 bound_to 6896
  150.8767  133.7367  159.2970 H   0  0  0  0  0  0  0  0  0  0  0  0  # atno 6909 bound_to 6896
  145.7813  139.2889  143.1264 H   0  0  0  0  0  0  0  0  0  0  0  0  # atno 7974 bound_to 7965
  155.7282  140.3492  155.5047 H   0  0  0  0  0  0  0  0  0  0  0  0  # atno 8008 bound_to 7997
  155.9207  140.1066  157.1230 H   0  0  0  0  0  0  0  0  0  0  0  0  # atno 8009 bound_to 7997
  154.4069  140.1250  156.4662 H   0  0  0  0  0  0  0  0  0  0  0  0  # atno 8010 bound_to 7997
  139.8357  143.7387  152.2665 H   0  0  0  0  0  0  0  0  0  0  0  0  # atno 10167 bound_to 10162
  157.6282  131.0998  150.7183 H   0  0  0  0  0  0  0  0  0  0  0  0  # atno 10718 bound_to 10713
  154.1691  135.6462  153.5005 H   0  0  0  0  0  0  0  0  0  0  0  0  # atno 10763 bound_to 10752
  153.0089  135.5379  154.6632 H   0  0  0  0  0  0  0  0  0  0  0  0  # atno 10764 bound_to 10752
  154.5966  135.2939  155.0552 H   0  0  0  0  0  0  0  0  0  0  0  0  # atno 10765 bound_to 10752
  140.2245  134.3601  155.7990 H   0  0  0  0  0  0  0  0  0  0  0  0  # atno 11005 bound_to 11000
  146.0071  140.8468  142.9989 LP  0  0  0  0  0  0  0  0  0  0  0  0  # atno 17320 bound_to 7965
  144.6796  140.2437  143.7340 LP  0  0  0  0  0  0  0  0  0  0  0  0  # atno 17321 bound_to 7965
  139.7609  144.7507  151.0365 LP  0  0  0  0  0  0  0  0  0  0  0  0  # atno 17342 bound_to 10162
  140.7803  143.4752  151.0092 LP  0  0  0  0  0  0  0  0  0  0  0  0  # atno 17343 bound_to 10162
  156.7527  130.4774  149.5453 LP  0  0  0  0  0  0  0  0  0  0  0  0  # atno 17370 bound_to 10713
  156.1468  130.6282  151.0542 LP  0  0  0  0  0  0  0  0  0  0  0  0  # atno 17371 bound_to 10713
  141.2221  133.7211  156.8630 LP  0  0  0  0  0  0  0  0  0  0  0  0  # atno 17394 bound_to 11000
  140.1815  134.9030  157.2954 LP  0  0  0  0  0  0  0  0  0  0  0  0  # atno 17395 bound_to 11000

$$$$
