AV-unprocessed.smi:2712|AV-procd|sdf|10475|dock4
  -GOLD-   2272014513D 1   1.00000     0.00000
 Structure written by MMmdl.
 52 53  0  0  0  0  0  0  0  0  1 V2000
  151.8734  145.6515  159.4701 C   0  0  0  0  0  0  0  0  0  0  0  0
  151.8569  144.1728  159.2188 C   0  0  0  0  0  0  0  0  0  0  0  0
  152.2535  143.1984  160.2173 C   0  0  0  0  0  0  0  0  0  0  0  0
  152.2121  141.8837  159.9121 C   0  0  0  0  0  0  0  0  0  0  0  0
  151.7778  141.4132  158.5984 C   0  0  0  0  0  0  0  0  0  0  0  0
  151.7309  140.2227  158.2891 O   0  0  0  0  0  0  0  0  0  0  0  0
  151.4316  142.4195  157.7413 N   0  0  0  0  0  0  0  0  0  0  0  0
  150.9923  142.1365  156.3671 C   0  0  0  0  0  0  0  0  0  0  0  0
  149.6678  141.3619  156.2908 C   0  0  0  0  0  0  0  0  0  0  0  0
  149.5539  140.2418  156.7917 O   0  0  0  0  0  0  0  0  0  0  0  0
  148.6668  141.9804  155.6452 N   0  0  0  0  0  0  0  0  0  0  0  0
  147.3238  141.4399  155.4420 C   0  0  1  0  0  0  0  0  0  0  0  0
  146.5864  141.4192  156.7938 C   0  0  0  0  0  0  0  0  0  0  0  0
  145.0643  141.2415  156.6886 C   0  0  0  0  0  0  0  0  0  0  0  0
  144.3061  142.5765  156.5570 C   0  0  0  0  0  0  0  0  0  0  0  0
  144.4021  143.2952  155.1816 C   0  0  1  0  0  0  0  0  0  0  0  0
  143.5511  144.6176  155.1104 C   0  0  0  0  0  0  0  0  0  0  0  0
  142.0393  144.3380  155.2555 C   0  0  0  0  0  0  0  0  0  0  0  0
  143.7815  145.3574  153.7721 C   0  0  0  0  0  0  0  0  0  0  0  0
  143.9779  145.6035  156.2244 C   0  0  0  0  0  0  0  0  0  0  0  0
  145.8806  143.4950  154.7402 C   0  0  0  0  0  0  0  0  0  0  0  0
  146.5824  142.1929  154.3150 C   0  0  0  0  0  0  0  0  0  0  0  0
  151.4700  143.7687  158.0536 N   0  0  0  0  0  0  0  0  0  0  0  0
  152.1485  145.8740  160.5012 H   0  0  0  0  0  0  0  0  0  0  0  0
  150.8919  146.0891  159.2850 H   0  0  0  0  0  0  0  0  0  0  0  0
  152.5933  146.1466  158.8176 H   0  0  0  0  0  0  0  0  0  0  0  0
  152.5787  143.5298  161.1924 H   0  0  0  0  0  0  0  0  0  0  0  0
  152.5094  141.1593  160.6561 H   0  0  0  0  0  0  0  0  0  0  0  0
  150.8922  143.0629  155.7989 H   0  0  0  0  0  0  0  0  0  0  0  0
  151.7596  141.5590  155.8478 H   0  0  0  0  0  0  0  0  0  0  0  0
  148.8471  142.8986  155.2659 H   0  0  0  0  0  0  0  0  0  0  0  0
  147.4279  140.4031  155.1166 H   0  0  0  0  0  0  0  0  0  0  0  0
  146.9973  140.6023  157.3886 H   0  0  0  0  0  0  0  0  0  0  0  0
  146.8028  142.3249  157.3627 H   0  0  0  0  0  0  0  0  0  0  0  0
  144.7998  140.5545  155.8841 H   0  0  0  0  0  0  0  0  0  0  0  0
  144.7229  140.7620  157.6068 H   0  0  0  0  0  0  0  0  0  0  0  0
  143.2635  142.3428  156.7668 H   0  0  0  0  0  0  0  0  0  0  0  0
  144.6257  143.2451  157.3558 H   0  0  0  0  0  0  0  0  0  0  0  0
  143.9470  142.6163  154.4589 H   0  0  0  0  0  0  0  0  0  0  0  0
  141.4629  145.2618  155.1937 H   0  0  0  0  0  0  0  0  0  0  0  0
  141.7995  143.8787  156.2144 H   0  0  0  0  0  0  0  0  0  0  0  0
  141.6687  143.6787  154.4711 H   0  0  0  0  0  0  0  0  0  0  0  0
  143.3535  144.8216  152.9250 H   0  0  0  0  0  0  0  0  0  0  0  0
  144.8440  145.5054  153.5758 H   0  0  0  0  0  0  0  0  0  0  0  0
  143.3124  146.3422  153.7746 H   0  0  0  0  0  0  0  0  0  0  0  0
  143.4978  146.5746  156.0986 H   0  0  0  0  0  0  0  0  0  0  0  0
  145.0551  145.7736  156.2159 H   0  0  0  0  0  0  0  0  0  0  0  0
  143.7025  145.2627  157.2211 H   0  0  0  0  0  0  0  0  0  0  0  0
  145.9236  144.1486  153.8730 H   0  0  0  0  0  0  0  0  0  0  0  0
  146.4563  144.0068  155.5120 H   0  0  0  0  0  0  0  0  0  0  0  0
  147.2865  142.4184  153.5129 H   0  0  0  0  0  0  0  0  0  0  0  0
  145.8554  141.5249  153.8525 H   0  0  0  0  0  0  0  0  0  0  0  0
  1  2  1  0  0  0  0
  1 24  1  0  0  0  0
  1 25  1  0  0  0  0
  1 26  1  0  0  0  0
  2 23  2  0  0  0  0
  2  3  1  0  0  0  0
  3  4  2  0  0  0  0
  3 27  1  0  0  0  0
  4  5  1  0  0  0  0
  4 28  1  0  0  0  0
  5  6  2  0  0  0  0
  5  7  1  0  0  0  0
  7  8  1  0  0  0  0
  7 23  1  0  0  0  0
  8  9  1  0  0  0  0
  8 29  1  0  0  0  0
  8 30  1  0  0  0  0
  9 10  2  0  0  0  0
  9 11  1  0  0  0  0
 11 12  1  0  0  0  0
 11 31  1  0  0  0  0
 12 22  1  0  0  0  0
 12 13  1  0  0  0  0
 12 32  1  0  0  0  0
 13 14  1  0  0  0  0
 13 33  1  0  0  0  0
 13 34  1  0  0  0  0
 14 15  1  0  0  0  0
 14 35  1  0  0  0  0
 14 36  1  0  0  0  0
 15 16  1  0  0  0  0
 15 37  1  0  0  0  0
 15 38  1  0  0  0  0
 16 17  1  0  0  0  0
 16 21  1  0  0  0  0
 16 39  1  0  0  0  0
 17 18  1  0  0  0  0
 17 19  1  0  0  0  0
 17 20  1  0  0  0  0
 18 40  1  0  0  0  0
 18 41  1  0  0  0  0
 18 42  1  0  0  0  0
 19 43  1  0  0  0  0
 19 44  1  0  0  0  0
 19 45  1  0  0  0  0
 20 46  1  0  0  0  0
 20 47  1  0  0  0  0
 20 48  1  0  0  0  0
 21 22  1  0  0  0  0
 21 49  1  0  0  0  0
 21 50  1  0  0  0  0
 22 51  1  0  0  0  0
 22 52  1  0  0  0  0
M  END
> <s_m_source_file>
AV-unprocessed.smi

> <i_m_source_file_index>
2712

> <i_lp_mmshare_version>
43012

> <i_f3d_flags>
0

> <s_epik_input>
W0NIM11jMVtjSF1bY0hdYyg9TyluKG4xKVtDSDJdQyg9TylbTkhdW0NAQEhdMltDSDJdW0NIMl1bQ0gyXVtDQEBIXShDKFtDSDNdKShbQ0gzXSlbQ0gzXSlbQ0gyXVtDSDJdMg==

> <s_epik_cmdline>
J2VwaWtfcHl0aG9uJywgJy1waCcsICc3LjAnLCAnLXRuJywgJzgnLCAnLW1hJywgJzIwMCcsICctbWV0YWxfYmluZGluZycsICctaW1hZScsICc8aW5maWxlLm1hZT4nLCAnLW9tYWUnLCAnPG91dGZpbGUubWFlPic=

> <r_lp_tautomer_probability>
1

> <r_epik_Ionization_Penalty>
8.71758e-07

> <r_epik_Ionization_Penalty_Charging>
8.50442e-07

> <r_epik_Ionization_Penalty_Neutral>
2.13165e-08

> <r_epik_State_Penalty>
-0

> <r_epik_Charging_Adjusted_Penalty>
8.50442e-07

> <i_epik_Tot_Q>
0

> <i_epik_Tot_abs_Q>
0

> <r_epik_Metal_State_Penalty>
-0

> <b_epik_Metal_Only>
0

> <s_lp_Force_Field>
OPLS_2005

> <r_lp_Energy>
40.0092

> <b_lp_Chiralities_Consistent>
1

> <s_lp_Variant>
AV-unprocessed.smi:2712-2

> <Gold.Version>
5.8.1

> <Gold.Id.Protein>
6NUR|6NUR_protein|mol2

> <Gold.PLP.Fitness>
44.3027

> <Gold.PLP.PLP>
-42.1156

> <Gold.PLP.part.hbond>
-1.0000

> <Gold.PLP.part.metal>
0.0000

> <Gold.PLP.part.buried>
-7.3774

> <Gold.PLP.part.nonpolar>
-33.6511

> <Gold.PLP.part.repulsive>
0.2294

> <Gold.PLP.ligand.clash>
0.0000

> <Gold.PLP.ligand.torsion>
0.3171

> <Gold.PLP.Chemscore.Hbond>
0.9120

> <Gold.PLP.Chemscore.CHOScore>
0.0000

> <Gold.PLP.Chemscore.Metal>
0.0000

> <Gold.Chemscore.Hbonds>
donor molecule, donor type, donor heavy atom, donor atom, acceptor molecule, acceptor atom, score
      L1  H    11    31       P1  8028  0.90

> <Gold.PLP.Chemscore.Internal.Correction>
0.0853

> <Gold.Rescore>
     Score         DG    S(hbond)    S(metal)    S(lipo)     H(rot)  DE(clash)    DE(int)     intcor
     14.34     -16.21       0.92        0.00      98.58       1.52       0.04       1.83       ----

> <Gold.Chemscore.Fitness>
14.3429

> <Gold.Chemscore.DG>
-16.2118

> <Gold.Chemscore.ZeroCoef>
-5.4800

> <Gold.Chemscore.Hbond>
0.9220

> <Gold.Chemscore.Metal>
0.0000

> <Gold.Chemscore.Lipo>
98.5782

> <Gold.Chemscore.Internal_Hbond>
0.0000

> <Gold.Chemscore.DEClash>
0.0398

> <Gold.Chemscore.DEInternal>
1.8292

> <Gold.Chemscore.Rot>
1.5162

> <Gold.Chemscore.Internal.Correction>
   9.000000E+99

> <Gold.Chemscore.Hbonds>
donor molecule, donor type, donor heavy atom, donor atom, acceptor molecule, acceptor atom, score
      L1  H    11    31       P1  8028  0.88

> <Gold.Chemscore.Hbond.Weighted>
-3.0796

> <Gold.Chemscore.Metal.Weighted>
-0.0000

> <Gold.Chemscore.Lipo.Weighted>
-11.5337

> <Gold.Chemscore.Internal_Hbond.Weighted>
0.0000

> <Gold.Chemscore.DEClash.Weighted>
0.0398

> <Gold.Chemscore.DEInternal.Weighted>
1.8292

> <Gold.Chemscore.Rot.Weighted>
3.8814

> <Gold.Chemscore.Internal.Correction.Weighted>
   9.000000E+99

> <Gold.Protein.RotatedTorsions>
[ 6907 6896 6895 6894 ] final -175.94 input  -60.11 | X-H torsion
[ 7974 7965 7964 7962 ] final  129.76 input  175.53 | X-H torsion
[ 8008 7997 7996 7995 ] final   34.01 input   59.86 | X-H torsion
[ 10167 10162 10161 10158 ] final  111.55 input  -65.29 | X-H torsion
[ 10718 10713 10712 10709 ] final   35.98 input   66.30 | X-H torsion
[ 10763 10752 10751 10750 ] final  -63.54 input  -60.55 | X-H torsion
[ 11005 11000 10999 10996 ] final  -50.60 input  -57.11 | X-H torsion

> <Gold.Protein.ActiveResidues>
 VAL166  LYS551  ARG553  GLY616  TRP617  ASP618  TYR619  PRO620  LYS621  CYS622 
 ASP623  PHE694  ASN695  SER759  ASP760  ASP761  ALA762  ILE779  LEU786  VAL792 
 PHE793  MET794  SER795  GLU796  ALA797  LYS798  CYS799  TRP800  GLU811  SER814 

> <Gold.Protein.RotatedAtoms>
  151.5967  133.3360  159.3038 H   0  0  0  0  0  0  0  0  0  0  0  0  # atno 6907 bound_to 6896
  150.8230  134.7451  159.6800 H   0  0  0  0  0  0  0  0  0  0  0  0  # atno 6908 bound_to 6896
  152.4322  134.5761  159.9986 H   0  0  0  0  0  0  0  0  0  0  0  0  # atno 6909 bound_to 6896
  145.0252  139.4095  143.5177 H   0  0  0  0  0  0  0  0  0  0  0  0  # atno 7974 bound_to 7965
  155.1479  140.3272  155.4437 H   0  0  0  0  0  0  0  0  0  0  0  0  # atno 8008 bound_to 7997
  156.2583  140.1982  156.6542 H   0  0  0  0  0  0  0  0  0  0  0  0  # atno 8009 bound_to 7997
  154.6494  140.0560  156.9925 H   0  0  0  0  0  0  0  0  0  0  0  0  # atno 8010 bound_to 7997
  139.6603  144.7129  151.1878 H   0  0  0  0  0  0  0  0  0  0  0  0  # atno 10167 bound_to 10162
  157.3294  130.7489  149.6837 H   0  0  0  0  0  0  0  0  0  0  0  0  # atno 10718 bound_to 10713
  154.3165  135.6205  153.5489 H   0  0  0  0  0  0  0  0  0  0  0  0  # atno 10763 bound_to 10752
  152.9824  135.5714  154.5118 H   0  0  0  0  0  0  0  0  0  0  0  0  # atno 10764 bound_to 10752
  154.4778  135.2862  155.1570 H   0  0  0  0  0  0  0  0  0  0  0  0  # atno 10765 bound_to 10752
  141.0825  133.6650  156.3755 H   0  0  0  0  0  0  0  0  0  0  0  0  # atno 11005 bound_to 11000
  146.3491  139.9772  142.8699 LP  0  0  0  0  0  0  0  0  0  0  0  0  # atno 17320 bound_to 7965
  145.1843  140.9782  143.4248 LP  0  0  0  0  0  0  0  0  0  0  0  0  # atno 17321 bound_to 7965
  140.7577  143.6005  150.8704 LP  0  0  0  0  0  0  0  0  0  0  0  0  # atno 17342 bound_to 10162
  139.9662  143.6108  152.2987 LP  0  0  0  0  0  0  0  0  0  0  0  0  # atno 17343 bound_to 10162
  155.9694  130.4200  150.4401 LP  0  0  0  0  0  0  0  0  0  0  0  0  # atno 17370 bound_to 10713
  157.2430  131.0529  151.2425 LP  0  0  0  0  0  0  0  0  0  0  0  0  # atno 17371 bound_to 10713
  140.5437  134.6095  157.5387 LP  0  0  0  0  0  0  0  0  0  0  0  0  # atno 17394 bound_to 11000
  139.9640  134.7404  156.0177 LP  0  0  0  0  0  0  0  0  0  0  0  0  # atno 17395 bound_to 11000

$$$$
