AV-unprocessed.smi:1382|AV-procd|sdf|5621|dock1
  -GOLD-   22720 5233D 1   1.00000     0.00000
 Structure written by MMmdl.
 44 45  0  0  0  0  0  0  0  0  1 V2000
  144.6338  132.5732  150.8356 C   0  0  0  0  0  0  0  0  0  0  0  0
  144.8696  134.0357  150.4442 C   0  0  0  0  0  0  0  0  0  0  0  0
  145.4765  134.8614  151.5901 C   0  0  0  0  0  0  0  0  0  0  0  0
  145.5338  136.3779  151.3130 C   0  0  0  0  0  0  0  0  0  0  0  0
  145.6071  137.1985  152.5088 N   0  0  0  0  0  0  0  0  0  0  0  0
  146.5740  138.1863  152.7270 C   0  0  0  0  0  0  0  0  0  0  0  0
  147.5316  138.3951  151.7452 N   0  0  0  0  0  0  0  0  0  0  0  0
  146.5835  138.9418  153.8664 C   0  0  0  0  0  0  0  0  0  0  0  0
  147.5796  139.9069  154.1019 N   0  0  0  0  0  0  0  0  0  0  0  0
  147.3687  141.2380  153.5260 C   0  0  0  0  0  0  0  0  0  0  0  0
  148.6720  139.6675  154.8728 C   0  0  0  0  0  0  0  0  0  0  0  0
  148.8262  138.5921  155.4549 O   0  0  0  0  0  0  0  0  0  0  0  0
  149.7691  140.7566  155.0033 C   0  0  1  0  0  0  0  0  0  0  0  0
  149.9914  141.2847  156.4262 C   0  0  0  0  0  0  0  0  0  0  0  0
  150.9235  140.2622  157.0611 C   0  0  0  0  0  0  0  0  0  0  0  0
  151.5494  139.5359  155.8663 C   0  0  0  0  0  0  0  0  0  0  0  0
  151.0513  140.2075  154.7128 O   0  0  0  0  0  0  0  0  0  0  0  0
  145.5984  138.7033  154.9298 C   0  0  0  0  0  0  0  0  0  0  0  0
  145.5424  139.3007  156.0041 O   0  0  0  0  0  0  0  0  0  0  0  0
  144.6736  137.6994  154.6570 N   0  0  0  0  0  0  0  0  0  0  0  0
  144.6285  136.9346  153.4971 C   0  0  0  0  0  0  0  0  0  0  0  0
  143.7594  136.0701  153.3786 O   0  0  0  0  0  0  0  0  0  0  0  0
  143.9794  137.5063  155.3642 H   0  0  0  0  0  0  0  0  0  0  0  0
  144.2058  132.0128  150.0042 H   0  0  0  0  0  0  0  0  0  0  0  0
  143.9456  132.4969  151.6778 H   0  0  0  0  0  0  0  0  0  0  0  0
  145.5672  132.0863  151.1194 H   0  0  0  0  0  0  0  0  0  0  0  0
  145.5267  134.0668  149.5746 H   0  0  0  0  0  0  0  0  0  0  0  0
  143.9233  134.4803  150.1345 H   0  0  0  0  0  0  0  0  0  0  0  0
  144.8876  134.6995  152.4935 H   0  0  0  0  0  0  0  0  0  0  0  0
  146.4756  134.4872  151.8154 H   0  0  0  0  0  0  0  0  0  0  0  0
  146.3863  136.6313  150.6847 H   0  0  0  0  0  0  0  0  0  0  0  0
  144.6633  136.7128  150.7454 H   0  0  0  0  0  0  0  0  0  0  0  0
  147.5431  137.8564  150.8908 H   0  0  0  0  0  0  0  0  0  0  0  0
  148.2269  139.1229  151.8255 H   0  0  0  0  0  0  0  0  0  0  0  0
  147.2699  141.9878  154.3124 H   0  0  0  0  0  0  0  0  0  0  0  0
  146.4642  141.2751  152.9168 H   0  0  0  0  0  0  0  0  0  0  0  0
  148.2047  141.5195  152.8839 H   0  0  0  0  0  0  0  0  0  0  0  0
  149.5427  141.5808  154.3273 H   0  0  0  0  0  0  0  0  0  0  0  0
  150.4939  142.2513  156.3739 H   0  0  0  0  0  0  0  0  0  0  0  0
  149.0732  141.4331  156.9961 H   0  0  0  0  0  0  0  0  0  0  0  0
  151.6737  140.7436  157.6892 H   0  0  0  0  0  0  0  0  0  0  0  0
  150.3669  139.5588  157.6818 H   0  0  0  0  0  0  0  0  0  0  0  0
  152.6388  139.5656  155.8854 H   0  0  0  0  0  0  0  0  0  0  0  0
  151.2399  138.4901  155.8438 H   0  0  0  0  0  0  0  0  0  0  0  0
  1  2  1  0  0  0  0
  1 24  1  0  0  0  0
  1 25  1  0  0  0  0
  1 26  1  0  0  0  0
  2  3  1  0  0  0  0
  2 27  1  0  0  0  0
  2 28  1  0  0  0  0
  3  4  1  0  0  0  0
  3 29  1  0  0  0  0
  3 30  1  0  0  0  0
  4  5  1  0  0  0  0
  4 31  1  0  0  0  0
  4 32  1  0  0  0  0
  5 21  1  0  0  0  0
  5  6  1  0  0  0  0
  6  7  1  0  0  0  0
  6  8  2  0  0  0  0
  7 33  1  0  0  0  0
  7 34  1  0  0  0  0
  8  9  1  0  0  0  0
  8 18  1  0  0  0  0
  9 10  1  0  0  0  0
  9 11  1  0  0  0  0
 10 35  1  0  0  0  0
 10 36  1  0  0  0  0
 10 37  1  0  0  0  0
 11 12  2  0  0  0  0
 11 13  1  0  0  0  0
 13 17  1  0  0  0  0
 13 14  1  0  0  0  0
 13 38  1  0  0  0  0
 14 15  1  0  0  0  0
 14 39  1  0  0  0  0
 14 40  1  0  0  0  0
 15 16  1  0  0  0  0
 15 41  1  0  0  0  0
 15 42  1  0  0  0  0
 16 17  1  0  0  0  0
 16 43  1  0  0  0  0
 16 44  1  0  0  0  0
 18 19  2  0  0  0  0
 18 20  1  0  0  0  0
 20 23  1  0  0  0  0
 20 21  1  0  0  0  0
 21 22  2  0  0  0  0
M  END
> <s_m_source_file>
AV-unprocessed.smi

> <i_m_source_file_index>
1382

> <i_lp_mmshare_version>
43012

> <i_f3d_flags>
0

> <s_epik_input>
W0NIM11bQ0gyXVtDSDJdW0NIMl1uMWMoW05IMl0pYyhjKD1PKVtuSF1jMT1PKU4oW0NIM10pQyg9TylbQ0BASF0yW0NIMl1bQ0gyXVtDSDJdTzI=

> <s_epik_cmdline>
J2VwaWtfcHl0aG9uJywgJy1waCcsICc3LjAnLCAnLXRuJywgJzgnLCAnLW1hJywgJzIwMCcsICctbWV0YWxfYmluZGluZycsICctaW1hZScsICc8aW5maWxlLm1hZT4nLCAnLW9tYWUnLCAnPG91dGZpbGUubWFlPic=

> <r_lp_tautomer_probability>
1

> <r_epik_Ionization_Penalty>
1.19634e-05

> <r_epik_Ionization_Penalty_Charging>
6.01811e-06

> <r_epik_Ionization_Penalty_Neutral>
5.94533e-06

> <r_epik_State_Penalty>
-0

> <r_epik_Charging_Adjusted_Penalty>
6.01811e-06

> <i_epik_Tot_Q>
0

> <i_epik_Tot_abs_Q>
0

> <r_epik_Metal_State_Penalty>
-0

> <b_epik_Metal_Only>
0

> <s_epik_Chemistry_Notes>
This compound has an imine and may undergo hydrolysis.

> <s_lp_Force_Field>
OPLS_2005

> <r_lp_Energy>
42.8449

> <b_lp_Chiralities_Consistent>
1

> <s_lp_Variant>
AV-unprocessed.smi:1382-2

> <Gold.Version>
5.8.1

> <Gold.Id.Protein>
6NUR|6NUR_protein|mol2

> <Gold.PLP.Fitness>
36.9230

> <Gold.PLP.PLP>
-32.0949

> <Gold.PLP.part.hbond>
-2.9785

> <Gold.PLP.part.metal>
0.0000

> <Gold.PLP.part.buried>
-5.0555

> <Gold.PLP.part.nonpolar>
-25.8474

> <Gold.PLP.part.repulsive>
1.1291

> <Gold.PLP.ligand.clash>
0.0000

> <Gold.PLP.ligand.torsion>
1.7571

> <Gold.PLP.Chemscore.Hbond>
2.0000

> <Gold.PLP.Chemscore.CHOScore>
0.0000

> <Gold.PLP.Chemscore.Metal>
0.0000

> <Gold.Chemscore.Hbonds>
donor molecule, donor type, donor heavy atom, donor atom, acceptor molecule, acceptor atom, score
      L1  H     7    34       P1  7957  0.98
      P1  H  7989  7998       L1    17  0.93

> <Gold.PLP.Chemscore.Internal.Correction>
2.3423

> <Gold.Rescore>
     Score         DG    S(hbond)    S(metal)    S(lipo)     H(rot)  DE(clash)    DE(int)     intcor
     11.23     -14.24       1.86        0.00      58.92       1.69       0.02       2.99       ----

> <Gold.Chemscore.Fitness>
11.2252

> <Gold.Chemscore.DG>
-14.2357

> <Gold.Chemscore.ZeroCoef>
-5.4800

> <Gold.Chemscore.Hbond>
1.8561

> <Gold.Chemscore.Metal>
0.0000

> <Gold.Chemscore.Lipo>
58.9190

> <Gold.Chemscore.Internal_Hbond>
0.0000

> <Gold.Chemscore.DEClash>
0.0234

> <Gold.Chemscore.DEInternal>
2.9871

> <Gold.Chemscore.Rot>
1.6942

> <Gold.Chemscore.Internal.Correction>
   9.000000E+99

> <Gold.Chemscore.Hbonds>
donor molecule, donor type, donor heavy atom, donor atom, acceptor molecule, acceptor atom, score
      L1  H     7    34       P1  7957  0.91
      P1  H  7989  7998       L1    17  0.66

> <Gold.Chemscore.Hbond.Weighted>
-6.1994

> <Gold.Chemscore.Metal.Weighted>
-0.0000

> <Gold.Chemscore.Lipo.Weighted>
-6.8935

> <Gold.Chemscore.Internal_Hbond.Weighted>
0.0000

> <Gold.Chemscore.DEClash.Weighted>
0.0234

> <Gold.Chemscore.DEInternal.Weighted>
2.9871

> <Gold.Chemscore.Rot.Weighted>
4.3372

> <Gold.Chemscore.Internal.Correction.Weighted>
   9.000000E+99

> <Gold.Protein.RotatedTorsions>
[ 6907 6896 6895 6894 ] final -134.87 input  -60.11 | X-H torsion
[ 7974 7965 7964 7962 ] final  136.65 input  175.53 | X-H torsion
[ 8008 7997 7996 7995 ] final  149.96 input   59.86 | X-H torsion
[ 10167 10162 10161 10158 ] final   97.38 input  -65.29 | X-H torsion
[ 10718 10713 10712 10709 ] final   75.30 input   66.30 | X-H torsion
[ 10763 10752 10751 10750 ] final -129.11 input  -60.55 | X-H torsion
[ 11005 11000 10999 10996 ] final   93.08 input  -57.11 | X-H torsion

> <Gold.Protein.ActiveResidues>
 VAL166  LYS551  ARG553  GLY616  TRP617  ASP618  TYR619  PRO620  LYS621  CYS622 
 ASP623  PHE694  ASN695  SER759  ASP760  ASP761  ALA762  ILE779  LEU786  VAL792 
 PHE793  MET794  SER795  GLU796  ALA797  LYS798  CYS799  TRP800  GLU811  SER814 

> <Gold.Protein.RotatedAtoms>
  150.9910  133.6150  159.2708 H   0  0  0  0  0  0  0  0  0  0  0  0  # atno 6907 bound_to 6896
  151.3371  135.0854  159.9368 H   0  0  0  0  0  0  0  0  0  0  0  0  # atno 6908 bound_to 6896
  152.5245  133.9528  159.7734 H   0  0  0  0  0  0  0  0  0  0  0  0  # atno 6909 bound_to 6896
  144.9544  139.4782  143.5510 H   0  0  0  0  0  0  0  0  0  0  0  0  # atno 7974 bound_to 7965
  156.2734  140.2087  156.5941 H   0  0  0  0  0  0  0  0  0  0  0  0  # atno 8008 bound_to 7997
  154.6959  140.0525  157.0433 H   0  0  0  0  0  0  0  0  0  0  0  0  # atno 8009 bound_to 7997
  155.0802  140.3186  155.4606 H   0  0  0  0  0  0  0  0  0  0  0  0  # atno 8010 bound_to 7997
  139.7806  144.6890  151.0028 H   0  0  0  0  0  0  0  0  0  0  0  0  # atno 10167 bound_to 10162
  157.6628  130.9720  150.1334 H   0  0  0  0  0  0  0  0  0  0  0  0  # atno 10718 bound_to 10713
  154.8757  135.3906  154.3866 H   0  0  0  0  0  0  0  0  0  0  0  0  # atno 10763 bound_to 10752
  153.4607  135.7029  153.6057 H   0  0  0  0  0  0  0  0  0  0  0  0  # atno 10764 bound_to 10752
  153.4557  135.3823  155.2278 H   0  0  0  0  0  0  0  0  0  0  0  0  # atno 10765 bound_to 10752
  139.8814  134.8770  156.3666 H   0  0  0  0  0  0  0  0  0  0  0  0  # atno 11005 bound_to 11000
  146.3332  139.8651  142.8849 LP  0  0  0  0  0  0  0  0  0  0  0  0  # atno 17320 bound_to 7965
  145.2795  141.0134  143.3725 LP  0  0  0  0  0  0  0  0  0  0  0  0  # atno 17321 bound_to 7965
  140.7818  143.4487  151.0444 LP  0  0  0  0  0  0  0  0  0  0  0  0  # atno 17342 bound_to 10162
  139.8168  143.7875  152.3175 LP  0  0  0  0  0  0  0  0  0  0  0  0  # atno 17343 bound_to 10162
  156.2175  130.3671  149.8596 LP  0  0  0  0  0  0  0  0  0  0  0  0  # atno 17370 bound_to 10713
  156.6458  130.8723  151.3522 LP  0  0  0  0  0  0  0  0  0  0  0  0  # atno 17371 bound_to 10713
  140.9493  133.7462  156.0250 LP  0  0  0  0  0  0  0  0  0  0  0  0  # atno 17394 bound_to 11000
  140.8125  134.3383  157.5407 LP  0  0  0  0  0  0  0  0  0  0  0  0  # atno 17395 bound_to 11000

$$$$
