AV-unprocessed.smi:2124|AV-procd|sdf|8661|dock1
  -GOLD-   2272011413D 1   1.00000     0.00000
 Structure written by MMmdl.
 47 49  0  0  0  0  0  0  0  0  1 V2000
  150.9956  142.6394  157.1454 C   0  0  0  0  0  0  0  0  0  0  0  0
  150.4030  141.6807  156.1358 C   0  0  0  0  0  0  0  0  0  0  0  0
  149.2520  142.1545  155.5279 N   0  0  0  0  0  0  0  0  0  0  0  0
  148.6392  141.3481  154.5851 C   0  0  0  0  0  0  0  0  0  0  0  0
  147.3844  141.9402  153.9675 C   0  0  0  0  0  0  0  0  0  0  0  0
  149.1463  140.1300  154.2665 C   0  0  0  0  0  0  0  0  0  0  0  0
  148.4966  139.2069  153.2359 C   0  0  0  0  0  0  0  0  0  0  0  0
  147.1050  138.6739  153.5873 C   0  0  0  0  0  0  0  0  0  0  0  0
  146.2820  139.3922  154.1557 O   0  0  0  0  0  0  0  0  0  0  0  0
  146.8569  137.4028  153.2360 N   0  0  0  0  0  0  0  0  0  0  0  0
  145.6057  136.6855  153.4757 C   0  0  1  0  0  0  0  0  0  0  0  0
  144.4365  137.5221  152.9235 C   0  0  0  0  0  0  0  0  0  0  0  0
  145.6855  135.2745  152.8411 C   0  0  1  0  0  0  0  0  0  0  0  0
  144.4008  134.4279  153.0330 C   0  0  0  0  0  0  0  0  0  0  0  0
  144.0407  133.9963  151.6008 C   0  0  2  0  0  0  0  0  0  0  0  0
  145.0832  132.9876  151.0853 C   0  0  0  0  0  0  0  0  0  0  0  0
  146.3212  133.8726  150.8497 C   0  0  0  0  0  0  0  0  0  0  0  0
  145.8351  135.2646  151.2982 C   0  0  1  0  0  0  0  0  0  0  0  0
  144.3894  135.2497  150.8107 C   0  0  0  0  0  0  0  0  0  0  0  0
  150.3764  139.6746  154.9558 C   0  0  0  0  0  0  0  0  0  0  0  0
  150.8772  138.5756  154.7206 O   0  0  0  0  0  0  0  0  0  0  0  0
  150.9631  140.5335  155.8993 N   0  0  0  0  0  0  0  0  0  0  0  0
  148.8406  143.0529  155.7366 H   0  0  0  0  0  0  0  0  0  0  0  0
  151.8689  142.2029  157.6323 H   0  0  0  0  0  0  0  0  0  0  0  0
  150.2630  142.8825  157.9156 H   0  0  0  0  0  0  0  0  0  0  0  0
  151.3039  143.5632  156.6552 H   0  0  0  0  0  0  0  0  0  0  0  0
  146.5305  141.2829  154.1332 H   0  0  0  0  0  0  0  0  0  0  0  0
  147.5146  142.0725  152.8934 H   0  0  0  0  0  0  0  0  0  0  0  0
  147.1455  142.9139  154.3971 H   0  0  0  0  0  0  0  0  0  0  0  0
  149.1472  138.3592  153.0184 H   0  0  0  0  0  0  0  0  0  0  0  0
  148.4191  139.7463  152.2918 H   0  0  0  0  0  0  0  0  0  0  0  0
  147.5932  136.8884  152.7747 H   0  0  0  0  0  0  0  0  0  0  0  0
  145.4671  136.5697  154.5518 H   0  0  0  0  0  0  0  0  0  0  0  0
  143.4715  137.0738  153.1556 H   0  0  0  0  0  0  0  0  0  0  0  0
  144.5025  137.6298  151.8405 H   0  0  0  0  0  0  0  0  0  0  0  0
  144.4310  138.5237  153.3553 H   0  0  0  0  0  0  0  0  0  0  0  0
  146.5318  134.7529  153.2915 H   0  0  0  0  0  0  0  0  0  0  0  0
  144.5601  133.5767  153.6959 H   0  0  0  0  0  0  0  0  0  0  0  0
  143.5865  135.0216  153.4509 H   0  0  0  0  0  0  0  0  0  0  0  0
  143.0107  133.6549  151.4937 H   0  0  0  0  0  0  0  0  0  0  0  0
  145.2727  132.1876  151.8018 H   0  0  0  0  0  0  0  0  0  0  0  0
  144.7554  132.5308  150.1507 H   0  0  0  0  0  0  0  0  0  0  0  0
  147.1923  133.5316  151.4104 H   0  0  0  0  0  0  0  0  0  0  0  0
  146.5892  133.8800  149.7925 H   0  0  0  0  0  0  0  0  0  0  0  0
  146.4421  136.0722  150.8916 H   0  0  0  0  0  0  0  0  0  0  0  0
  144.2973  135.1195  149.7311 H   0  0  0  0  0  0  0  0  0  0  0  0
  143.8152  136.1267  151.1137 H   0  0  0  0  0  0  0  0  0  0  0  0
  1 24  1  0  0  0  0
  1 25  1  0  0  0  0
  1 26  1  0  0  0  0
  1  2  1  0  0  0  0
  2  3  1  0  0  0  0
  2 22  2  0  0  0  0
  3  4  1  0  0  0  0
  3 23  1  0  0  0  0
  4  6  2  0  0  0  0
  4  5  1  0  0  0  0
  5 27  1  0  0  0  0
  5 28  1  0  0  0  0
  5 29  1  0  0  0  0
  6 20  1  0  0  0  0
  6  7  1  0  0  0  0
  7  8  1  0  0  0  0
  7 30  1  0  0  0  0
  7 31  1  0  0  0  0
  8  9  2  0  0  0  0
  8 10  1  0  0  0  0
 10 11  1  0  0  0  0
 10 32  1  0  0  0  0
 11 12  1  0  0  0  0
 11 13  1  0  0  0  0
 11 33  1  0  0  0  0
 12 34  1  0  0  0  0
 12 35  1  0  0  0  0
 12 36  1  0  0  0  0
 13 18  1  0  0  0  0
 13 14  1  0  0  0  0
 13 37  1  0  0  0  0
 14 15  1  0  0  0  0
 14 38  1  0  0  0  0
 14 39  1  0  0  0  0
 15 19  1  0  0  0  0
 15 16  1  0  0  0  0
 15 40  1  0  0  0  0
 16 17  1  0  0  0  0
 16 41  1  0  0  0  0
 16 42  1  0  0  0  0
 17 18  1  0  0  0  0
 17 43  1  0  0  0  0
 17 44  1  0  0  0  0
 18 19  1  0  0  0  0
 18 45  1  0  0  0  0
 19 46  1  0  0  0  0
 19 47  1  0  0  0  0
 20 21  2  0  0  0  0
 20 22  1  0  0  0  0
M  END
> <s_m_source_file>
AV-unprocessed.smi

> <i_m_source_file_index>
2124

> <i_lp_mmshare_version>
43012

> <i_f3d_flags>
0

> <s_epik_input>
W0NIM11jMW5jKFtDSDNdKWMoYyg9TylbbkhdMSlbQ0gyXUMoPU8pW05IXVtDQEhdKFtDSDNdKVtDQEhdKFtDSDJdW0NASF0yMylbQ0BIXShbQ0gyXTMpW0NIMl1bQ0gyXTI=

> <s_epik_cmdline>
J2VwaWtfcHl0aG9uJywgJy1waCcsICc3LjAnLCAnLXRuJywgJzgnLCAnLW1hJywgJzIwMCcsICctbWV0YWxfYmluZGluZycsICctaW1hZScsICc8aW5maWxlLm1hZT4nLCAnLW9tYWUnLCAnPG91dGZpbGUubWFlPic=

> <r_lp_tautomer_probability>
0.156392

> <r_epik_Ionization_Penalty>
0.0139374

> <r_epik_Ionization_Penalty_Charging>
0.0138122

> <r_epik_Ionization_Penalty_Neutral>
0.000125146

> <r_epik_State_Penalty>
1.15342

> <r_epik_Charging_Adjusted_Penalty>
1.16723

> <i_epik_Tot_Q>
0

> <i_epik_Tot_abs_Q>
0

> <r_epik_Metal_State_Penalty>
1.3173

> <b_epik_Metal_Only>
0

> <s_lp_Force_Field>
OPLS_2005

> <r_lp_Energy>
56.04

> <b_lp_Chiralities_Consistent>
1

> <s_lp_Variant>
AV-unprocessed.smi:2124-12

> <Gold.Version>
5.8.1

> <Gold.Id.Protein>
6NUR|6NUR_protein|mol2

> <Gold.PLP.Fitness>
40.7702

> <Gold.PLP.PLP>
-35.5150

> <Gold.PLP.part.hbond>
-2.0000

> <Gold.PLP.part.metal>
0.0000

> <Gold.PLP.part.buried>
0.0745

> <Gold.PLP.part.nonpolar>
-33.1462

> <Gold.PLP.part.repulsive>
0.4564

> <Gold.PLP.ligand.clash>
0.0000

> <Gold.PLP.ligand.torsion>
0.3733

> <Gold.PLP.Chemscore.Hbond>
1.9920

> <Gold.PLP.Chemscore.CHOScore>
0.0000

> <Gold.PLP.Chemscore.Metal>
0.0000

> <Gold.Chemscore.Hbonds>
donor molecule, donor type, donor heavy atom, donor atom, acceptor molecule, acceptor atom, score
      L1  H     3    23       P1  8028  1.00
      L1  H    10    32       P1  7948  1.00

> <Gold.PLP.Chemscore.Internal.Correction>
0.0257

> <Gold.Rescore>
     Score         DG    S(hbond)    S(metal)    S(lipo)     H(rot)  DE(clash)    DE(int)     intcor
     13.06     -17.44       1.99        0.00      81.71       1.65       1.51       2.87       ----

> <Gold.Chemscore.Fitness>
13.0642

> <Gold.Chemscore.DG>
-17.4385

> <Gold.Chemscore.ZeroCoef>
-5.4800

> <Gold.Chemscore.Hbond>
1.9854

> <Gold.Chemscore.Metal>
0.0000

> <Gold.Chemscore.Lipo>
81.7070

> <Gold.Chemscore.Internal_Hbond>
0.0000

> <Gold.Chemscore.DEClash>
1.5091

> <Gold.Chemscore.DEInternal>
2.8651

> <Gold.Chemscore.Rot>
1.6534

> <Gold.Chemscore.Internal.Correction>
   9.000000E+99

> <Gold.Chemscore.Hbonds>
donor molecule, donor type, donor heavy atom, donor atom, acceptor molecule, acceptor atom, score
      L1  H     3    23       P1  8028  0.95
      L1  H    10    32       P1  7948  1.00

> <Gold.Chemscore.Hbond.Weighted>
-6.6313

> <Gold.Chemscore.Metal.Weighted>
-0.0000

> <Gold.Chemscore.Lipo.Weighted>
-9.5597

> <Gold.Chemscore.Internal_Hbond.Weighted>
0.0000

> <Gold.Chemscore.DEClash.Weighted>
1.5091

> <Gold.Chemscore.DEInternal.Weighted>
2.8651

> <Gold.Chemscore.Rot.Weighted>
4.2326

> <Gold.Chemscore.Internal.Correction.Weighted>
   9.000000E+99

> <Gold.Protein.RotatedTorsions>
[ 6907 6896 6895 6894 ] final  -52.30 input  -60.11 | X-H torsion
[ 7974 7965 7964 7962 ] final  -53.02 input  175.53 | X-H torsion
[ 8008 7997 7996 7995 ] final  -88.72 input   59.86 | X-H torsion
[ 10167 10162 10161 10158 ] final -101.35 input  -65.29 | X-H torsion
[ 10718 10713 10712 10709 ] final  143.79 input   66.30 | X-H torsion
[ 10763 10752 10751 10750 ] final   -3.39 input  -60.55 | X-H torsion
[ 11005 11000 10999 10996 ] final  165.65 input  -57.11 | X-H torsion

> <Gold.Protein.ActiveResidues>
 VAL166  LYS551  ARG553  GLY616  TRP617  ASP618  TYR619  PRO620  LYS621  CYS622 
 ASP623  PHE694  ASN695  SER759  ASP760  ASP761  ALA762  ILE779  LEU786  VAL792 
 PHE793  MET794  SER795  GLU796  ALA797  LYS798  CYS799  TRP800  GLU811  SER814 

> <Gold.Protein.RotatedAtoms>
  150.8530  134.7861  159.7023 H   0  0  0  0  0  0  0  0  0  0  0  0  # atno 6907 bound_to 6896
  152.4590  134.5224  159.9796 H   0  0  0  0  0  0  0  0  0  0  0  0  # atno 6908 bound_to 6896
  151.5342  133.3406  159.2959 H   0  0  0  0  0  0  0  0  0  0  0  0  # atno 6909 bound_to 6896
  145.9014  140.7990  142.9741 H   0  0  0  0  0  0  0  0  0  0  0  0  # atno 7974 bound_to 7965
  154.6781  140.0550  157.0237 H   0  0  0  0  0  0  0  0  0  0  0  0  # atno 8008 bound_to 7997
  155.0991  140.3227  155.4533 H   0  0  0  0  0  0  0  0  0  0  0  0  # atno 8009 bound_to 7997
  156.2683  140.2034  156.6118 H   0  0  0  0  0  0  0  0  0  0  0  0  # atno 8010 bound_to 7997
  140.2422  143.3531  152.0791 H   0  0  0  0  0  0  0  0  0  0  0  0  # atno 10167 bound_to 10162
  157.3648  131.0970  151.0882 H   0  0  0  0  0  0  0  0  0  0  0  0  # atno 10718 bound_to 10713
  153.3708  135.6994  153.6639 H   0  0  0  0  0  0  0  0  0  0  0  0  # atno 10763 bound_to 10752
  153.5290  135.3596  155.2668 H   0  0  0  0  0  0  0  0  0  0  0  0  # atno 10764 bound_to 10752
  154.8681  135.4176  154.2985 H   0  0  0  0  0  0  0  0  0  0  0  0  # atno 10765 bound_to 10752
  140.2584  134.7922  157.3567 H   0  0  0  0  0  0  0  0  0  0  0  0  # atno 11005 bound_to 11000
  144.6736  140.1683  143.7416 LP  0  0  0  0  0  0  0  0  0  0  0  0  # atno 17320 bound_to 7965
  145.8786  139.2310  143.1619 LP  0  0  0  0  0  0  0  0  0  0  0  0  # atno 17321 bound_to 7965
  139.5073  144.6830  151.5959 LP  0  0  0  0  0  0  0  0  0  0  0  0  # atno 17342 bound_to 10162
  140.6105  143.9445  150.6449 LP  0  0  0  0  0  0  0  0  0  0  0  0  # atno 17343 bound_to 10162
  157.2009  130.6394  149.5738 LP  0  0  0  0  0  0  0  0  0  0  0  0  # atno 17370 bound_to 10713
  155.9744  130.4691  150.6384 LP  0  0  0  0  0  0  0  0  0  0  0  0  # atno 17371 bound_to 10713
  140.1489  134.4875  155.7976 LP  0  0  0  0  0  0  0  0  0  0  0  0  # atno 17394 bound_to 11000
  141.2193  133.6854  156.7343 LP  0  0  0  0  0  0  0  0  0  0  0  0  # atno 17395 bound_to 11000

$$$$
