AV-unprocessed.smi:255|AV-procd|sdf|1956|dock9
  -GOLD-   2262021 93D 1   1.00000     0.00000
 Structure written by MMmdl.
 44 47  0  0  0  0  0  0  0  0  1 V2000
  146.4810  137.5235  150.6067 O   0  0  0  0  0  0  0  0  0  0  0  0
  146.0867  137.0201  151.8648 C   0  0  0  0  0  0  0  0  0  0  0  0
  144.9872  135.9510  151.6834 C   0  0  1  0  0  0  0  0  0  0  0  0
  145.1953  135.0019  150.5025 C   0  0  0  0  0  0  0  0  0  0  0  0
  144.1940  133.8874  150.8073 C   0  0  1  0  0  0  0  0  0  0  0  0
  144.6471  132.6993  150.4078 F   0  0  0  0  0  0  0  0  0  0  0  0
  143.9769  133.9448  152.3293 C   0  0  0  0  0  0  0  0  0  0  0  0
  144.7557  135.0758  152.8343 N   0  0  0  0  0  0  0  0  0  0  0  0
  145.8400  134.7443  153.5790 C   0  0  0  0  0  0  0  0  0  0  0  0
  145.9546  135.1661  154.8671 N   0  0  0  0  0  0  0  0  0  0  0  0
  147.0217  134.8180  155.5924 C   0  0  0  0  0  0  0  0  0  0  0  0
  148.0660  134.0675  155.2344 N   0  0  0  0  0  0  0  0  0  0  0  0
  147.9488  133.6368  153.9453 C   0  0  0  0  0  0  0  0  0  0  0  0
  146.8781  133.9297  153.0555 C   0  0  0  0  0  0  0  0  0  0  0  0
  147.1006  133.3267  151.8245 N   0  0  0  0  0  0  0  0  0  0  0  0
  148.2426  132.7131  151.9764 C   0  0  0  0  0  0  0  0  0  0  0  0
  148.8171  132.8372  153.2220 N   0  0  0  0  0  0  0  0  0  0  0  0
  150.0797  132.2626  153.6595 C   0  0  0  0  0  0  0  0  0  0  0  0
  149.9285  131.1333  154.7107 C   0  0  2  0  0  0  0  0  0  0  0  0
  149.4624  129.9538  154.0835 O   0  0  0  0  0  0  0  0  0  0  0  0
  148.9771  131.5199  155.8311 C   0  0  0  0  0  0  0  0  0  0  0  0
  149.8812  132.2833  156.7966 C   0  0  0  0  0  0  0  0  0  0  0  0
  151.1909  131.7547  156.6091 O   0  0  0  0  0  0  0  0  0  0  0  0
  151.2018  130.8424  155.5155 C   0  0  0  0  0  0  0  0  0  0  0  0
  144.0451  136.4801  151.5298 H   0  0  0  0  0  0  0  0  0  0  0  0
  143.2516  134.0657  150.2885 H   0  0  0  0  0  0  0  0  0  0  0  0
  145.7674  138.0290  150.2488 H   0  0  0  0  0  0  0  0  0  0  0  0
  146.9620  136.6148  152.3739 H   0  0  0  0  0  0  0  0  0  0  0  0
  145.7159  137.8534  152.4624 H   0  0  0  0  0  0  0  0  0  0  0  0
  145.0174  135.4757  149.5369 H   0  0  0  0  0  0  0  0  0  0  0  0
  146.2140  134.6114  150.5044 H   0  0  0  0  0  0  0  0  0  0  0  0
  142.9237  134.1148  152.5551 H   0  0  0  0  0  0  0  0  0  0  0  0
  144.2520  133.0032  152.8073 H   0  0  0  0  0  0  0  0  0  0  0  0
  147.0406  135.1933  156.6050 H   0  0  0  0  0  0  0  0  0  0  0  0
  148.6986  132.1441  151.1793 H   0  0  0  0  0  0  0  0  0  0  0  0
  150.6022  131.8932  152.7763 H   0  0  0  0  0  0  0  0  0  0  0  0
  150.6971  133.0674  154.0608 H   0  0  0  0  0  0  0  0  0  0  0  0
  148.5344  130.0418  153.9291 H   0  0  0  0  0  0  0  0  0  0  0  0
  148.1194  132.1039  155.4953 H   0  0  0  0  0  0  0  0  0  0  0  0
  148.5957  130.6284  156.3323 H   0  0  0  0  0  0  0  0  0  0  0  0
  149.8962  133.3458  156.5519 H   0  0  0  0  0  0  0  0  0  0  0  0
  149.5575  132.1816  157.8326 H   0  0  0  0  0  0  0  0  0  0  0  0
  151.1634  129.8359  155.9359 H   0  0  0  0  0  0  0  0  0  0  0  0
  152.1223  130.9133  154.9379 H   0  0  0  0  0  0  0  0  0  0  0  0
  1  2  1  0  0  0  0
  1 27  1  0  0  0  0
  2  3  1  0  0  0  0
  2 28  1  0  0  0  0
  2 29  1  0  0  0  0
  3 25  1  0  0  0  0
  3  8  1  0  0  0  0
  3  4  1  0  0  0  0
  4  5  1  0  0  0  0
  4 30  1  0  0  0  0
  4 31  1  0  0  0  0
  5 26  1  0  0  0  0
  5  6  1  0  0  0  0
  5  7  1  0  0  0  0
  7  8  1  0  0  0  0
  7 32  1  0  0  0  0
  7 33  1  0  0  0  0
  8  9  1  0  0  0  0
  9 14  1  0  0  0  0
  9 10  2  0  0  0  0
 10 11  1  0  0  0  0
 11 12  2  0  0  0  0
 11 34  1  0  0  0  0
 12 13  1  0  0  0  0
 13 17  1  0  0  0  0
 13 14  2  0  0  0  0
 14 15  1  0  0  0  0
 15 16  2  0  0  0  0
 16 17  1  0  0  0  0
 16 35  1  0  0  0  0
 17 18  1  0  0  0  0
 18 19  1  0  0  0  0
 18 36  1  0  0  0  0
 18 37  1  0  0  0  0
 19 24  1  0  0  0  0
 19 20  1  0  0  0  0
 19 21  1  0  0  0  0
 20 38  1  0  0  0  0
 21 22  1  0  0  0  0
 21 39  1  0  0  0  0
 21 40  1  0  0  0  0
 22 23  1  0  0  0  0
 22 41  1  0  0  0  0
 22 42  1  0  0  0  0
 23 24  1  0  0  0  0
 24 43  1  0  0  0  0
 24 44  1  0  0  0  0
M  END
> <s_m_source_file>
AV-unprocessed.smi

> <i_m_source_file_index>
255

> <i_lp_mmshare_version>
43012

> <i_f3d_flags>
0

> <s_epik_input>
W09IXVtDSDJdW0NAQEhdMVtDSDJdW0NASF0oRilbQ0gyXU4xYyhuW2NIXW4yKWMoYzIzKW5bY0hdbjNbQ0gyXVtDQEBdNChbT0hdKVtDSDJdW0NIMl1PW0NIMl00

> <s_epik_cmdline>
J2VwaWtfcHl0aG9uJywgJy1waCcsICc3LjAnLCAnLXRuJywgJzgnLCAnLW1hJywgJzIwMCcsICctbWV0YWxfYmluZGluZycsICctaW1hZScsICc8aW5maWxlLm1hZT4nLCAnLW9tYWUnLCAnPG91dGZpbGUubWFlPic=

> <r_lp_tautomer_probability>
1

> <r_epik_Ionization_Penalty>
0.0058098

> <r_epik_Ionization_Penalty_Charging>
0

> <r_epik_Ionization_Penalty_Neutral>
0.0058098

> <r_epik_State_Penalty>
0.00411166

> <r_epik_Charging_Adjusted_Penalty>
0.00411166

> <i_epik_Tot_Q>
0

> <i_epik_Tot_abs_Q>
0

> <r_epik_Metal_State_Penalty>
-0

> <b_epik_Metal_Only>
0

> <s_lp_Force_Field>
OPLS_2005

> <r_lp_Energy>
54.0655

> <b_lp_Chiralities_Consistent>
1

> <s_lp_Variant>
AV-unprocessed.smi:255-8

> <Gold.Version>
5.8.1

> <Gold.Id.Protein>
6NUR|6NUR_protein|mol2

> <Gold.PLP.Fitness>
43.2837

> <Gold.PLP.PLP>
-32.1502

> <Gold.PLP.part.hbond>
-4.0000

> <Gold.PLP.part.metal>
0.0000

> <Gold.PLP.part.buried>
-3.1923

> <Gold.PLP.part.nonpolar>
-25.6534

> <Gold.PLP.part.repulsive>
0.2981

> <Gold.PLP.ligand.clash>
0.0000

> <Gold.PLP.ligand.torsion>
0.4638

> <Gold.PLP.Chemscore.Hbond>
3.0000

> <Gold.PLP.Chemscore.CHOScore>
1.0000

> <Gold.PLP.Chemscore.Metal>
0.0000

> <Gold.Chemscore.Hbonds>
donor molecule, donor type, donor heavy atom, donor atom, acceptor molecule, acceptor atom, score
      L1  H     1    27       P1 10171  1.00
      P1  H  7954  7966       L1     1  0.99

> <Gold.PLP.Chemscore.Internal.Correction>
0.0612

> <Gold.Rescore>
     Score         DG    S(hbond)    S(metal)    S(lipo)     H(rot)  DE(clash)    DE(int)     intcor
      9.91     -12.28       2.77        0.00      51.80       3.33       0.18       2.18       ----

> <Gold.Chemscore.Fitness>
9.9103

> <Gold.Chemscore.DG>
-12.2780

> <Gold.Chemscore.ZeroCoef>
-5.4800

> <Gold.Chemscore.Hbond>
2.7712

> <Gold.Chemscore.Metal>
0.0000

> <Gold.Chemscore.Lipo>
51.7953

> <Gold.Chemscore.Internal_Hbond>
0.0000

> <Gold.Chemscore.DEClash>
0.1831

> <Gold.Chemscore.DEInternal>
2.1847

> <Gold.Chemscore.Rot>
3.3273

> <Gold.Chemscore.Internal.Correction>
   9.000000E+99

> <Gold.Chemscore.Hbonds>
donor molecule, donor type, donor heavy atom, donor atom, acceptor molecule, acceptor atom, score
      L1  H     1    27       P1 10171  0.95
      P1  H  7954  7966       L1     1  0.88

> <Gold.Chemscore.Hbond.Weighted>
-9.2559

> <Gold.Chemscore.Metal.Weighted>
-0.0000

> <Gold.Chemscore.Lipo.Weighted>
-6.0600

> <Gold.Chemscore.Internal_Hbond.Weighted>
0.0000

> <Gold.Chemscore.DEClash.Weighted>
0.1831

> <Gold.Chemscore.DEInternal.Weighted>
2.1847

> <Gold.Chemscore.Rot.Weighted>
8.5179

> <Gold.Chemscore.Internal.Correction.Weighted>
   9.000000E+99

> <Gold.Protein.RotatedTorsions>
[ 6907 6896 6895 6894 ] final  -39.87 input  -60.11 | X-H torsion
[ 7974 7965 7964 7962 ] final -176.04 input  175.53 | X-H torsion
[ 8008 7997 7996 7995 ] final   33.13 input   59.86 | X-H torsion
[ 10167 10162 10161 10158 ] final   30.71 input  -65.29 | X-H torsion
[ 10718 10713 10712 10709 ] final  129.08 input   66.30 | X-H torsion
[ 10763 10752 10751 10750 ] final   62.62 input  -60.55 | X-H torsion
[ 11005 11000 10999 10996 ] final  147.11 input  -57.11 | X-H torsion

> <Gold.Protein.ActiveResidues>
 VAL166  LYS551  ARG553  GLY616  TRP617  ASP618  TYR619  PRO620  LYS621  CYS622 
 ASP623  PHE694  ASN695  SER759  ASP760  ASP761  ALA762  ILE779  LEU786  VAL792 
 PHE793  MET794  SER795  GLU796  ALA797  LYS798  CYS799  TRP800  GLU811  SER814 

> <Gold.Protein.RotatedAtoms>
  150.9851  134.9198  159.7866 H   0  0  0  0  0  0  0  0  0  0  0  0  # atno 6907 bound_to 6896
  152.5234  134.3357  159.9209 H   0  0  0  0  0  0  0  0  0  0  0  0  # atno 6908 bound_to 6896
  151.3364  133.3939  159.2701 H   0  0  0  0  0  0  0  0  0  0  0  0  # atno 6909 bound_to 6896
  144.7127  140.1230  143.6404 H   0  0  0  0  0  0  0  0  0  0  0  0  # atno 7974 bound_to 7965
  155.1336  140.3259  155.4468 H   0  0  0  0  0  0  0  0  0  0  0  0  # atno 8008 bound_to 7997
  156.2627  140.2006  156.6403 H   0  0  0  0  0  0  0  0  0  0  0  0  # atno 8009 bound_to 7997
  154.6594  140.0549  157.0032 H   0  0  0  0  0  0  0  0  0  0  0  0  # atno 8010 bound_to 7997
  140.4653  144.0844  150.6223 H   0  0  0  0  0  0  0  0  0  0  0  0  # atno 10167 bound_to 10162
  157.5187  131.1098  150.9186 H   0  0  0  0  0  0  0  0  0  0  0  0  # atno 10718 bound_to 10713
  152.9989  135.5458  154.6222 H   0  0  0  0  0  0  0  0  0  0  0  0  # atno 10763 bound_to 10752
  154.5518  135.2827  155.1003 H   0  0  0  0  0  0  0  0  0  0  0  0  # atno 10764 bound_to 10752
  154.2240  135.6445  153.5206 H   0  0  0  0  0  0  0  0  0  0  0  0  # atno 10765 bound_to 10752
  140.0849  134.9075  157.1559 H   0  0  0  0  0  0  0  0  0  0  0  0  # atno 11005 bound_to 11000
  145.9354  139.2634  143.1300 LP  0  0  0  0  0  0  0  0  0  0  0  0  # atno 17320 bound_to 7965
  145.9479  140.8931  143.0274 LP  0  0  0  0  0  0  0  0  0  0  0  0  # atno 17321 bound_to 7965
  140.4043  143.2688  151.9910 LP  0  0  0  0  0  0  0  0  0  0  0  0  # atno 17342 bound_to 10162
  139.4811  144.5970  151.7672 LP  0  0  0  0  0  0  0  0  0  0  0  0  # atno 17343 bound_to 10162
  156.9804  130.5525  149.5296 LP  0  0  0  0  0  0  0  0  0  0  0  0  # atno 17370 bound_to 10713
  156.0338  130.5427  150.8602 LP  0  0  0  0  0  0  0  0  0  0  0  0  # atno 17371 bound_to 10713
  140.3435  134.2677  155.7208 LP  0  0  0  0  0  0  0  0  0  0  0  0  # atno 17394 bound_to 11000
  141.2059  133.7847  157.0207 LP  0  0  0  0  0  0  0  0  0  0  0  0  # atno 17395 bound_to 11000

$$$$
