AV-unprocessed.smi:2653|AV-procd|sdf|10296|dock10
  -GOLD-   2272014313D 1   1.00000     0.00000
 Structure written by MMmdl.
 31 32  0  0  0  0  0  0  0  0  1 V2000
  149.3619  141.1192  156.5082 C   0  0  0  0  0  0  0  0  0  0  0  0
  149.0439  141.7231  155.1356 C   0  0  0  0  0  0  0  0  0  0  0  0
  148.1707  140.8176  154.3110 C   0  0  0  0  0  0  0  0  0  0  0  0
  146.9748  141.2520  153.9221 N   0  0  0  0  0  0  0  0  0  0  0  0
  146.4580  140.2285  153.2184 N   0  0  0  0  0  0  0  0  0  0  0  0
  147.3343  139.1696  153.1520 C   0  0  0  0  0  0  0  0  0  0  0  0
  147.1257  137.9681  152.5455 N   0  0  0  0  0  0  0  0  0  0  0  0
  145.9816  137.3112  152.2587 C   0  0  0  0  0  0  0  0  0  0  0  0
  144.8869  137.7789  152.5676 O   0  0  0  0  0  0  0  0  0  0  0  0
  146.1223  136.1244  151.6445 N   0  0  0  0  0  0  0  0  0  0  0  0
  145.0598  135.2549  151.2570 C   0  0  0  0  0  0  0  0  0  0  0  0
  144.1308  134.7585  152.3438 C   0  0  0  0  0  0  0  0  0  0  0  0
  145.1248  133.8164  151.7228 C   0  0  0  0  0  0  0  0  0  0  0  0
  148.4582  139.4918  153.8578 C   0  0  0  0  0  0  0  0  0  0  0  0
  149.7003  138.6796  154.1067 C   0  0  0  0  0  0  0  0  0  0  0  0
  145.5347  140.2683  152.8111 H   0  0  0  0  0  0  0  0  0  0  0  0
  149.9919  141.7908  157.0916 H   0  0  0  0  0  0  0  0  0  0  0  0
  149.8894  140.1700  156.4090 H   0  0  0  0  0  0  0  0  0  0  0  0
  148.4499  140.9384  157.0780 H   0  0  0  0  0  0  0  0  0  0  0  0
  148.5577  142.6897  155.2705 H   0  0  0  0  0  0  0  0  0  0  0  0
  149.9752  141.9287  154.6062 H   0  0  0  0  0  0  0  0  0  0  0  0
  147.9701  137.4618  152.3214 H   0  0  0  0  0  0  0  0  0  0  0  0
  147.0597  135.8043  151.4514 H   0  0  0  0  0  0  0  0  0  0  0  0
  144.6057  135.4223  150.2814 H   0  0  0  0  0  0  0  0  0  0  0  0
  144.3198  135.0854  153.3648 H   0  0  0  0  0  0  0  0  0  0  0  0
  143.0823  134.6254  152.0850 H   0  0  0  0  0  0  0  0  0  0  0  0
  144.7406  133.0534  151.0487 H   0  0  0  0  0  0  0  0  0  0  0  0
  145.9773  133.5149  152.3287 H   0  0  0  0  0  0  0  0  0  0  0  0
  149.7912  137.8418  153.4153 H   0  0  0  0  0  0  0  0  0  0  0  0
  149.7124  138.2669  155.1153 H   0  0  0  0  0  0  0  0  0  0  0  0
  150.6024  139.2814  153.9948 H   0  0  0  0  0  0  0  0  0  0  0  0
  1  2  1  0  0  0  0
  1 17  1  0  0  0  0
  1 18  1  0  0  0  0
  1 19  1  0  0  0  0
  2 20  1  0  0  0  0
  2 21  1  0  0  0  0
  2  3  1  0  0  0  0
  3  4  2  0  0  0  0
  3 14  1  0  0  0  0
  4  5  1  0  0  0  0
  5 16  1  0  0  0  0
  5  6  1  0  0  0  0
  6  7  1  0  0  0  0
  6 14  2  0  0  0  0
  7  8  1  0  0  0  0
  7 22  1  0  0  0  0
  8  9  2  0  0  0  0
  8 10  1  0  0  0  0
 10 11  1  0  0  0  0
 10 23  1  0  0  0  0
 11 13  1  0  0  0  0
 11 12  1  0  0  0  0
 11 24  1  0  0  0  0
 12 13  1  0  0  0  0
 12 25  1  0  0  0  0
 12 26  1  0  0  0  0
 13 27  1  0  0  0  0
 13 28  1  0  0  0  0
 14 15  1  0  0  0  0
 15 29  1  0  0  0  0
 15 30  1  0  0  0  0
 15 31  1  0  0  0  0
M  END
> <s_m_source_file>
AV-unprocessed.smi

> <i_m_source_file_index>
2653

> <i_lp_mmshare_version>
43012

> <i_f3d_flags>
0

> <s_epik_input>
W0NIM11bQ0gyXWMxW25IXW5jKGMxW0NIM10pW05IXUMoPU8pW05IXVtDSF0yW0NIMl1bQ0gyXTI=

> <s_epik_cmdline>
J2VwaWtfcHl0aG9uJywgJy1waCcsICc3LjAnLCAnLXRuJywgJzgnLCAnLW1hJywgJzIwMCcsICctbWV0YWxfYmluZGluZycsICctaW1hZScsICc8aW5maWxlLm1hZT4nLCAnLW9tYWUnLCAnPG91dGZpbGUubWFlPic=

> <r_lp_tautomer_probability>
0.5

> <r_epik_Ionization_Penalty>
6.45879e-05

> <r_epik_Ionization_Penalty_Charging>
0

> <r_epik_Ionization_Penalty_Neutral>
6.45879e-05

> <r_epik_State_Penalty>
0.41068

> <r_epik_Charging_Adjusted_Penalty>
0.41068

> <i_epik_Tot_Q>
0

> <i_epik_Tot_abs_Q>
0

> <r_epik_Metal_State_Penalty>
0.410665

> <b_epik_Metal_Only>
0

> <s_lp_Force_Field>
OPLS_2005

> <r_lp_Energy>
17.9348

> <b_lp_Chiralities_Consistent>
1

> <s_lp_Variant>
AV-unprocessed.smi:2653-2

> <Gold.Version>
5.8.1

> <Gold.Id.Protein>
6NUR|6NUR_protein|mol2

> <Gold.PLP.Fitness>
30.1611

> <Gold.PLP.PLP>
-21.8789

> <Gold.PLP.part.hbond>
-3.0000

> <Gold.PLP.part.metal>
0.0000

> <Gold.PLP.part.buried>
-0.6391

> <Gold.PLP.part.nonpolar>
-19.9710

> <Gold.PLP.part.repulsive>
2.1891

> <Gold.PLP.ligand.clash>
0.0000

> <Gold.PLP.ligand.torsion>
0.1724

> <Gold.PLP.Chemscore.Hbond>
2.8640

> <Gold.PLP.Chemscore.CHOScore>
0.0000

> <Gold.PLP.Chemscore.Metal>
0.0000

> <Gold.Chemscore.Hbonds>
donor molecule, donor type, donor heavy atom, donor atom, acceptor molecule, acceptor atom, score
      L1  H     5    16       P1 10175  1.00
      L1  H     7    22       P1  7948  1.00
      L1  H    10    23       P1  7948  0.85

> <Gold.PLP.Chemscore.Internal.Correction>
0.0351

> <Gold.Rescore>
     Score         DG    S(hbond)    S(metal)    S(lipo)     H(rot)  DE(clash)    DE(int)     intcor
     15.47     -16.90       2.83        0.00      43.34       1.21       0.15       1.27       ----

> <Gold.Chemscore.Fitness>
15.4727

> <Gold.Chemscore.DG>
-16.8986

> <Gold.Chemscore.ZeroCoef>
-5.4800

> <Gold.Chemscore.Hbond>
2.8303

> <Gold.Chemscore.Metal>
0.0000

> <Gold.Chemscore.Lipo>
43.3357

> <Gold.Chemscore.Internal_Hbond>
0.0000

> <Gold.Chemscore.DEClash>
0.1521

> <Gold.Chemscore.DEInternal>
1.2737

> <Gold.Chemscore.Rot>
1.2129

> <Gold.Chemscore.Internal.Correction>
   9.000000E+99

> <Gold.Chemscore.Hbonds>
donor molecule, donor type, donor heavy atom, donor atom, acceptor molecule, acceptor atom, score
      L1  H     5    16       P1 10175  0.93
      L1  H     7    22       P1  7948  0.99
      L1  H    10    23       P1  7948  0.84

> <Gold.Chemscore.Hbond.Weighted>
-9.4532

> <Gold.Chemscore.Metal.Weighted>
-0.0000

> <Gold.Chemscore.Lipo.Weighted>
-5.0703

> <Gold.Chemscore.Internal_Hbond.Weighted>
0.0000

> <Gold.Chemscore.DEClash.Weighted>
0.1521

> <Gold.Chemscore.DEInternal.Weighted>
1.2737

> <Gold.Chemscore.Rot.Weighted>
3.1049

> <Gold.Chemscore.Internal.Correction.Weighted>
   9.000000E+99

> <Gold.Protein.RotatedTorsions>
[ 6907 6896 6895 6894 ] final  -55.51 input  -60.11 | X-H torsion
[ 7974 7965 7964 7962 ] final  -87.94 input  175.53 | X-H torsion
[ 8008 7997 7996 7995 ] final  -98.65 input   59.86 | X-H torsion
[ 10167 10162 10161 10158 ] final  -38.22 input  -65.29 | X-H torsion
[ 10718 10713 10712 10709 ] final -146.59 input   66.30 | X-H torsion
[ 10763 10752 10751 10750 ] final  155.69 input  -60.55 | X-H torsion
[ 11005 11000 10999 10996 ] final   31.95 input  -57.11 | X-H torsion

> <Gold.Protein.ActiveResidues>
 VAL166  LYS551  ARG553  GLY616  TRP617  ASP618  TYR619  PRO620  LYS621  CYS622 
 ASP623  PHE694  ASN695  SER759  ASP760  ASP761  ALA762  ILE779  LEU786  VAL792 
 PHE793  MET794  SER795  GLU796  ALA797  LYS798  CYS799  TRP800  GLU811  SER814 

> <Gold.Protein.RotatedAtoms>
  150.8245  134.7470  159.6800 H   0  0  0  0  0  0  0  0  0  0  0  0  # atno 6907 bound_to 6896
  152.4357  134.5687  159.9924 H   0  0  0  0  0  0  0  0  0  0  0  0  # atno 6908 bound_to 6896
  151.5862  133.3334  159.3054 H   0  0  0  0  0  0  0  0  0  0  0  0  # atno 6909 bound_to 6896
  145.4598  140.9561  143.1976 H   0  0  0  0  0  0  0  0  0  0  0  0  # atno 7974 bound_to 7965
  154.8041  140.0453  157.1294 H   0  0  0  0  0  0  0  0  0  0  0  0  # atno 8008 bound_to 7997
  154.9445  140.3057  155.5085 H   0  0  0  0  0  0  0  0  0  0  0  0  # atno 8009 bound_to 7997
  156.2965  140.2299  156.4517 H   0  0  0  0  0  0  0  0  0  0  0  0  # atno 8010 bound_to 7997
  140.7098  143.3291  151.2611 H   0  0  0  0  0  0  0  0  0  0  0  0  # atno 10167 bound_to 10162
  156.3969  130.7914  151.2121 H   0  0  0  0  0  0  0  0  0  0  0  0  # atno 10718 bound_to 10713
  154.1725  135.2804  155.3077 H   0  0  0  0  0  0  0  0  0  0  0  0  # atno 10763 bound_to 10752
  154.6064  135.5513  153.7431 H   0  0  0  0  0  0  0  0  0  0  0  0  # atno 10764 bound_to 10752
  153.0161  135.6404  154.1865 H   0  0  0  0  0  0  0  0  0  0  0  0  # atno 10765 bound_to 10752
  140.2785  134.3000  155.7807 H   0  0  0  0  0  0  0  0  0  0  0  0  # atno 11005 bound_to 11000
  144.8009  139.6142  143.7072 LP  0  0  0  0  0  0  0  0  0  0  0  0  # atno 17320 bound_to 7965
  146.2457  139.6094  142.9461 LP  0  0  0  0  0  0  0  0  0  0  0  0  # atno 17321 bound_to 7965
  139.6768  143.9924  152.2785 LP  0  0  0  0  0  0  0  0  0  0  0  0  # atno 17342 bound_to 10162
  139.9541  144.6601  150.8143 LP  0  0  0  0  0  0  0  0  0  0  0  0  # atno 17343 bound_to 10162
  157.7502  131.0299  150.4112 LP  0  0  0  0  0  0  0  0  0  0  0  0  # atno 17370 bound_to 10713
  156.4384  130.3986  149.6714 LP  0  0  0  0  0  0  0  0  0  0  0  0  # atno 17371 bound_to 10713
  141.2166  133.7511  156.9445 LP  0  0  0  0  0  0  0  0  0  0  0  0  # atno 17394 bound_to 11000
  140.1305  134.9359  157.2331 LP  0  0  0  0  0  0  0  0  0  0  0  0  # atno 17395 bound_to 11000

$$$$
