AV-unprocessed.smi:753|AV-procd|sdf|3599|dock2
  -GOLD-   22720 0593D 1   1.00000     0.00000
 Structure written by MMmdl.
 43 45  0  0  0  0  0  0  0  0  1 V2000
  152.2323  139.6784  156.0068 C   0  0  0  0  0  0  0  0  0  0  0  0
  150.8993  139.7736  155.2941 C   0  0  0  0  0  0  0  0  0  0  0  0
  150.1883  140.9914  155.2483 C   0  0  0  0  0  0  0  0  0  0  0  0
  148.9511  141.0209  154.5765 C   0  0  0  0  0  0  0  0  0  0  0  0
  148.4747  139.8369  153.9776 C   0  0  0  0  0  0  0  0  0  0  0  0
  147.1446  139.8143  153.2509 C   0  0  0  0  0  0  0  0  0  0  0  0
  146.2882  138.6043  153.6564 C   0  0  0  0  0  0  0  0  0  0  0  0
  146.5733  137.4447  152.8211 N   0  0  0  0  0  0  0  0  0  0  0  0
  145.6473  136.6302  152.2878 C   0  0  0  0  0  0  0  0  0  0  0  0
  144.4381  136.7747  152.4580 O   0  0  0  0  0  0  0  0  0  0  0  0
  146.1442  135.6306  151.5382 N   0  0  0  0  0  0  0  0  0  0  0  0
  145.4036  134.5856  150.8280 C   0  0  2  0  0  0  0  0  0  0  0  0
  144.1374  134.1191  151.5849 C   0  0  0  0  0  0  0  0  0  0  0  0
  144.3812  132.6091  151.7632 C   0  0  1  0  0  0  0  0  0  0  0  0
  144.2926  131.9074  150.3941 C   0  0  0  0  0  0  0  0  0  0  0  0
  145.5905  132.3572  149.6941 C   0  0  0  0  0  0  0  0  0  0  0  0
  146.2324  133.2852  150.7423 C   0  0  2  0  0  0  0  0  0  0  0  0
  145.8774  132.5681  152.0418 C   0  0  0  0  0  0  0  0  0  0  0  0
  149.2635  138.6717  154.0803 C   0  0  0  0  0  0  0  0  0  0  0  0
  150.4504  138.6336  154.7233 N   0  0  0  0  0  0  0  0  0  0  0  0
  152.5449  140.6489  156.3931 H   0  0  0  0  0  0  0  0  0  0  0  0
  153.0038  139.3202  155.3246 H   0  0  0  0  0  0  0  0  0  0  0  0
  152.1646  138.9843  156.8450 H   0  0  0  0  0  0  0  0  0  0  0  0
  150.5773  141.8831  155.7176 H   0  0  0  0  0  0  0  0  0  0  0  0
  148.3794  141.9359  154.5257 H   0  0  0  0  0  0  0  0  0  0  0  0
  146.6108  140.7426  153.4596 H   0  0  0  0  0  0  0  0  0  0  0  0
  147.3289  139.8007  152.1758 H   0  0  0  0  0  0  0  0  0  0  0  0
  146.4947  138.3323  154.6919 H   0  0  0  0  0  0  0  0  0  0  0  0
  145.2264  138.8518  153.6057 H   0  0  0  0  0  0  0  0  0  0  0  0
  147.5445  137.2492  152.6269 H   0  0  0  0  0  0  0  0  0  0  0  0
  147.1495  135.5889  151.4536 H   0  0  0  0  0  0  0  0  0  0  0  0
  145.1591  134.9390  149.8245 H   0  0  0  0  0  0  0  0  0  0  0  0
  144.0481  134.6051  152.5579 H   0  0  0  0  0  0  0  0  0  0  0  0
  143.2232  134.3275  151.0279 H   0  0  0  0  0  0  0  0  0  0  0  0
  143.7560  132.1530  152.5313 H   0  0  0  0  0  0  0  0  0  0  0  0
  144.2771  130.8231  150.5123 H   0  0  0  0  0  0  0  0  0  0  0  0
  143.3988  132.1967  149.8401 H   0  0  0  0  0  0  0  0  0  0  0  0
  146.2327  131.4991  149.4917 H   0  0  0  0  0  0  0  0  0  0  0  0
  145.4012  132.8626  148.7464 H   0  0  0  0  0  0  0  0  0  0  0  0
  147.2989  133.4458  150.5785 H   0  0  0  0  0  0  0  0  0  0  0  0
  146.1667  133.1207  152.9373 H   0  0  0  0  0  0  0  0  0  0  0  0
  146.2794  131.5549  152.1013 H   0  0  0  0  0  0  0  0  0  0  0  0
  148.9312  137.7433  153.6389 H   0  0  0  0  0  0  0  0  0  0  0  0
  1  2  1  0  0  0  0
  1 21  1  0  0  0  0
  1 22  1  0  0  0  0
  1 23  1  0  0  0  0
  2 20  1  0  0  0  0
  2  3  2  0  0  0  0
  3  4  1  0  0  0  0
  3 24  1  0  0  0  0
  4  5  2  0  0  0  0
  4 25  1  0  0  0  0
  5  6  1  0  0  0  0
  5 19  1  0  0  0  0
  6  7  1  0  0  0  0
  6 26  1  0  0  0  0
  6 27  1  0  0  0  0
  7  8  1  0  0  0  0
  7 28  1  0  0  0  0
  7 29  1  0  0  0  0
  8  9  1  0  0  0  0
  8 30  1  0  0  0  0
  9 10  2  0  0  0  0
  9 11  1  0  0  0  0
 11 12  1  0  0  0  0
 11 31  1  0  0  0  0
 12 17  1  0  0  0  0
 12 13  1  0  0  0  0
 12 32  1  0  0  0  0
 13 14  1  0  0  0  0
 13 33  1  0  0  0  0
 13 34  1  0  0  0  0
 14 18  1  0  0  0  0
 14 15  1  0  0  0  0
 14 35  1  0  0  0  0
 15 16  1  0  0  0  0
 15 36  1  0  0  0  0
 15 37  1  0  0  0  0
 16 17  1  0  0  0  0
 16 38  1  0  0  0  0
 16 39  1  0  0  0  0
 17 18  1  0  0  0  0
 17 40  1  0  0  0  0
 18 41  1  0  0  0  0
 18 42  1  0  0  0  0
 19 20  2  0  0  0  0
 19 43  1  0  0  0  0
M  END
> <s_m_source_file>
AV-unprocessed.smi

> <i_m_source_file_index>
753

> <i_lp_mmshare_version>
43012

> <i_f3d_flags>
0

> <s_epik_input>
W0NIM11jMVtjSF1bY0hdYyhbY0hdbjEpW0NIMl1bQ0gyXVtOSF1DKD1PKVtOSF1bQ0BIXShbQ0gyXVtDQEBIXTIzKVtDQEBIXShbQ0gyXTMpW0NIMl1bQ0gyXTI=

> <s_epik_cmdline>
J2VwaWtfcHl0aG9uJywgJy1waCcsICc3LjAnLCAnLXRuJywgJzgnLCAnLW1hJywgJzIwMCcsICctbWV0YWxfYmluZGluZycsICctaW1hZScsICc8aW5maWxlLm1hZT4nLCAnLW9tYWUnLCAnPG91dGZpbGUubWFlPic=

> <r_epik_Ionization_Penalty>
0.0569047

> <r_epik_Ionization_Penalty_Charging>
0

> <r_epik_Ionization_Penalty_Neutral>
0.0569047

> <r_epik_State_Penalty>
0.0490541

> <r_epik_Charging_Adjusted_Penalty>
0.0490541

> <i_epik_Tot_Q>
0

> <i_epik_Tot_abs_Q>
0

> <r_epik_Metal_State_Penalty>
0.0447357

> <b_epik_Metal_Only>
0

> <s_lp_Force_Field>
OPLS_2005

> <r_lp_Energy>
50.812

> <b_lp_Chiralities_Consistent>
1

> <s_lp_Variant>
AV-unprocessed.smi:753-1

> <Gold.Version>
5.8.1

> <Gold.Id.Protein>
6NUR|6NUR_protein|mol2

> <Gold.PLP.Fitness>
47.0797

> <Gold.PLP.PLP>
-39.6203

> <Gold.PLP.part.hbond>
-2.0000

> <Gold.PLP.part.metal>
0.0000

> <Gold.PLP.part.buried>
-1.9803

> <Gold.PLP.part.nonpolar>
-34.7170

> <Gold.PLP.part.repulsive>
0.4244

> <Gold.PLP.ligand.clash>
0.0000

> <Gold.PLP.ligand.torsion>
0.7907

> <Gold.PLP.Chemscore.Hbond>
2.0000

> <Gold.PLP.Chemscore.CHOScore>
1.0000

> <Gold.PLP.Chemscore.Metal>
0.0000

> <Gold.Chemscore.Hbonds>
donor molecule, donor type, donor heavy atom, donor atom, acceptor molecule, acceptor atom, score
      L1  H     8    30       P1  7948  1.00
      L1  H    11    31       P1  7948  1.00
      L1  C    19    43       P1  7948  1.00

> <Gold.PLP.Chemscore.Internal.Correction>
0.0409

> <Gold.Rescore>
     Score         DG    S(hbond)    S(metal)    S(lipo)     H(rot)  DE(clash)    DE(int)     intcor
     18.37     -20.56       1.87        0.00     106.64       1.43       0.05       2.14       ----

> <Gold.Chemscore.Fitness>
18.3712

> <Gold.Chemscore.DG>
-20.5570

> <Gold.Chemscore.ZeroCoef>
-5.4800

> <Gold.Chemscore.Hbond>
1.8740

> <Gold.Chemscore.Metal>
0.0000

> <Gold.Chemscore.Lipo>
106.6362

> <Gold.Chemscore.Internal_Hbond>
0.0000

> <Gold.Chemscore.DEClash>
0.0464

> <Gold.Chemscore.DEInternal>
2.1395

> <Gold.Chemscore.Rot>
1.4291

> <Gold.Chemscore.Internal.Correction>
   9.000000E+99

> <Gold.Chemscore.Hbonds>
donor molecule, donor type, donor heavy atom, donor atom, acceptor molecule, acceptor atom, score
      L1  H     8    30       P1  7948  0.97
      L1  H    11    31       P1  7948  0.96

> <Gold.Chemscore.Hbond.Weighted>
-6.2591

> <Gold.Chemscore.Metal.Weighted>
-0.0000

> <Gold.Chemscore.Lipo.Weighted>
-12.4764

> <Gold.Chemscore.Internal_Hbond.Weighted>
0.0000

> <Gold.Chemscore.DEClash.Weighted>
0.0464

> <Gold.Chemscore.DEInternal.Weighted>
2.1395

> <Gold.Chemscore.Rot.Weighted>
3.6585

> <Gold.Chemscore.Internal.Correction.Weighted>
   9.000000E+99

> <Gold.Protein.RotatedTorsions>
[ 6907 6896 6895 6894 ] final  -14.61 input  -60.11 | X-H torsion
[ 7974 7965 7964 7962 ] final   36.58 input  175.53 | X-H torsion
[ 8008 7997 7996 7995 ] final  -41.03 input   59.86 | X-H torsion
[ 10167 10162 10161 10158 ] final  140.37 input  -65.29 | X-H torsion
[ 10718 10713 10712 10709 ] final   69.59 input   66.30 | X-H torsion
[ 10763 10752 10751 10750 ] final  112.84 input  -60.55 | X-H torsion
[ 11005 11000 10999 10996 ] final   34.31 input  -57.11 | X-H torsion

> <Gold.Protein.ActiveResidues>
 VAL166  LYS551  ARG553  GLY616  TRP617  ASP618  TYR619  PRO620  LYS621  CYS622 
 ASP623  PHE694  ASN695  SER759  ASP760  ASP761  ALA762  ILE779  LEU786  VAL792 
 PHE793  MET794  SER795  GLU796  ALA797  LYS798  CYS799  TRP800  GLU811  SER814 

> <Gold.Protein.RotatedAtoms>
  151.3368  135.0854  159.9356 H   0  0  0  0  0  0  0  0  0  0  0  0  # atno 6907 bound_to 6896
  152.5221  133.9488  159.7672 H   0  0  0  0  0  0  0  0  0  0  0  0  # atno 6908 bound_to 6896
  150.9837  133.6166  159.2748 H   0  0  0  0  0  0  0  0  0  0  0  0  # atno 6909 bound_to 6896
  146.1201  139.6000  142.9295 H   0  0  0  0  0  0  0  0  0  0  0  0  # atno 7974 bound_to 7965
  154.4007  140.1510  156.3124 H   0  0  0  0  0  0  0  0  0  0  0  0  # atno 8008 bound_to 7997
  155.8604  140.3453  155.5731 H   0  0  0  0  0  0  0  0  0  0  0  0  # atno 8009 bound_to 7997
  155.7887  140.0853  157.2011 H   0  0  0  0  0  0  0  0  0  0  0  0  # atno 8010 bound_to 7997
  139.5051  144.6238  151.5986 H   0  0  0  0  0  0  0  0  0  0  0  0  # atno 10167 bound_to 10162
  157.6354  130.9433  150.0534 H   0  0  0  0  0  0  0  0  0  0  0  0  # atno 10718 bound_to 10713
  153.4837  135.3674  155.2455 H   0  0  0  0  0  0  0  0  0  0  0  0  # atno 10763 bound_to 10752
  154.8754  135.3960  154.3670 H   0  0  0  0  0  0  0  0  0  0  0  0  # atno 10764 bound_to 10752
  153.4278  135.7081  153.6316 H   0  0  0  0  0  0  0  0  0  0  0  0  # atno 10765 bound_to 10752
  140.2541  134.3268  155.7880 H   0  0  0  0  0  0  0  0  0  0  0  0  # atno 11005 bound_to 11000
  145.5484  141.0415  143.2292 LP  0  0  0  0  0  0  0  0  0  0  0  0  # atno 17320 bound_to 7965
  144.7589  139.7006  143.7242 LP  0  0  0  0  0  0  0  0  0  0  0  0  # atno 17321 bound_to 7965
  140.5949  143.9714  150.6348 LP  0  0  0  0  0  0  0  0  0  0  0  0  # atno 17342 bound_to 10162
  140.2907  143.3326  152.1065 LP  0  0  0  0  0  0  0  0  0  0  0  0  # atno 17343 bound_to 10162
  156.1589  130.3643  149.9328 LP  0  0  0  0  0  0  0  0  0  0  0  0  # atno 17370 bound_to 10713
  156.7331  130.9051  151.3627 LP  0  0  0  0  0  0  0  0  0  0  0  0  # atno 17371 bound_to 10713
  141.2198  133.7371  156.9084 LP  0  0  0  0  0  0  0  0  0  0  0  0  # atno 17394 bound_to 11000
  140.1528  134.9218  157.2615 LP  0  0  0  0  0  0  0  0  0  0  0  0  # atno 17395 bound_to 11000

$$$$
