AV-unprocessed.smi:1335|AV-procd|sdf|5495|dock5
  -GOLD-   22720 5 73D 1   1.00000     0.00000
 Structure written by MMmdl.
 47 49  0  0  0  0  0  0  0  0  1 V2000
  151.6096  138.3995  154.5197 C   0  0  0  0  0  0  0  0  0  0  0  0
  150.9762  139.6302  154.8369 O   0  0  0  0  0  0  0  0  0  0  0  0
  149.6603  139.8083  154.4612 C   0  0  0  0  0  0  0  0  0  0  0  0
  148.8757  138.7902  153.8604 C   0  0  0  0  0  0  0  0  0  0  0  0
  147.5407  139.0375  153.4883 C   0  0  0  0  0  0  0  0  0  0  0  0
  146.9704  140.3033  153.7072 C   0  0  0  0  0  0  0  0  0  0  0  0
  147.7367  141.3204  154.3034 C   0  0  0  0  0  0  0  0  0  0  0  0
  149.0732  141.0787  154.6838 C   0  0  0  0  0  0  0  0  0  0  0  0
  149.8608  142.2109  155.3272 C   0  0  0  0  0  0  0  0  0  0  0  0
  150.8005  141.7468  156.2840 O   0  0  0  0  0  0  0  0  0  0  0  0
  150.2495  141.5362  157.5764 C   0  0  0  0  0  0  0  0  0  0  0  0
  151.2494  140.7154  158.4032 C   0  0  1  0  0  0  0  0  0  0  0  0
  151.2436  139.3984  157.8907 O   0  0  0  0  0  0  0  0  0  0  0  0
  152.6825  141.2806  158.3076 C   0  0  0  0  0  0  0  0  0  0  0  0
  153.3937  141.1454  159.5757 N   0  0  0  0  0  0  0  0  0  0  0  0
  154.2913  140.1845  159.8963 C   0  0  0  0  0  0  0  0  0  0  0  0
  154.6593  139.2675  159.1625 O   0  0  0  0  0  0  0  0  0  0  0  0
  154.6971  140.3992  161.1697 N   0  0  0  0  0  0  0  0  0  0  0  0
  155.6556  139.6064  161.9301 C   0  0  0  0  0  0  0  0  0  0  0  0
  154.0196  141.5107  161.6870 C   0  0  0  0  0  0  0  0  0  0  0  0
  154.0720  142.1158  162.9542 C   0  0  0  0  0  0  0  0  0  0  0  0
  153.2404  143.2403  163.1674 C   0  0  0  0  0  0  0  0  0  0  0  0
  152.3930  143.7242  162.1365 C   0  0  0  0  0  0  0  0  0  0  0  0
  152.3591  143.0944  160.8702 C   0  0  0  0  0  0  0  0  0  0  0  0
  153.1975  141.9811  160.6846 C   0  0  0  0  0  0  0  0  0  0  0  0
  152.6440  138.4298  154.8617 H   0  0  0  0  0  0  0  0  0  0  0  0
  151.6243  138.2245  153.4430 H   0  0  0  0  0  0  0  0  0  0  0  0
  151.1230  137.5600  155.0177 H   0  0  0  0  0  0  0  0  0  0  0  0
  149.2753  137.8057  153.6716 H   0  0  0  0  0  0  0  0  0  0  0  0
  146.9543  138.2536  153.0322 H   0  0  0  0  0  0  0  0  0  0  0  0
  145.9469  140.4940  153.4191 H   0  0  0  0  0  0  0  0  0  0  0  0
  147.2957  142.2926  154.4689 H   0  0  0  0  0  0  0  0  0  0  0  0
  150.4187  142.7169  154.5387 H   0  0  0  0  0  0  0  0  0  0  0  0
  149.2113  142.9708  155.7629 H   0  0  0  0  0  0  0  0  0  0  0  0
  150.0715  142.5051  158.0458 H   0  0  0  0  0  0  0  0  0  0  0  0
  149.2911  141.0177  157.5229 H   0  0  0  0  0  0  0  0  0  0  0  0
  150.9076  140.6838  159.4389 H   0  0  0  0  0  0  0  0  0  0  0  0
  150.3475  139.1038  157.8300 H   0  0  0  0  0  0  0  0  0  0  0  0
  153.2429  140.8134  157.4956 H   0  0  0  0  0  0  0  0  0  0  0  0
  152.6534  142.3416  158.0573 H   0  0  0  0  0  0  0  0  0  0  0  0
  155.1377  139.0162  162.6867 H   0  0  0  0  0  0  0  0  0  0  0  0
  156.3716  140.2567  162.4337 H   0  0  0  0  0  0  0  0  0  0  0  0
  156.2178  138.9233  161.2921 H   0  0  0  0  0  0  0  0  0  0  0  0
  154.7167  141.7393  163.7343 H   0  0  0  0  0  0  0  0  0  0  0  0
  153.2496  143.7353  164.1274 H   0  0  0  0  0  0  0  0  0  0  0  0
  151.7650  144.5831  162.3212 H   0  0  0  0  0  0  0  0  0  0  0  0
  151.7133  143.4570  160.0842 H   0  0  0  0  0  0  0  0  0  0  0  0
  1  2  1  0  0  0  0
  1 26  1  0  0  0  0
  1 27  1  0  0  0  0
  1 28  1  0  0  0  0
  2  3  1  0  0  0  0
  3  8  1  0  0  0  0
  3  4  2  0  0  0  0
  4  5  1  0  0  0  0
  4 29  1  0  0  0  0
  5  6  2  0  0  0  0
  5 30  1  0  0  0  0
  6  7  1  0  0  0  0
  6 31  1  0  0  0  0
  7  8  2  0  0  0  0
  7 32  1  0  0  0  0
  8  9  1  0  0  0  0
  9 10  1  0  0  0  0
  9 33  1  0  0  0  0
  9 34  1  0  0  0  0
 10 11  1  0  0  0  0
 11 12  1  0  0  0  0
 11 35  1  0  0  0  0
 11 36  1  0  0  0  0
 12 13  1  0  0  0  0
 12 14  1  0  0  0  0
 12 37  1  0  0  0  0
 13 38  1  0  0  0  0
 14 15  1  0  0  0  0
 14 39  1  0  0  0  0
 14 40  1  0  0  0  0
 15 25  1  0  0  0  0
 15 16  1  0  0  0  0
 16 17  2  0  0  0  0
 16 18  1  0  0  0  0
 18 19  1  0  0  0  0
 18 20  1  0  0  0  0
 19 41  1  0  0  0  0
 19 42  1  0  0  0  0
 19 43  1  0  0  0  0
 20 25  2  0  0  0  0
 20 21  1  0  0  0  0
 21 22  2  0  0  0  0
 21 44  1  0  0  0  0
 22 23  1  0  0  0  0
 22 45  1  0  0  0  0
 23 24  2  0  0  0  0
 23 46  1  0  0  0  0
 24 25  1  0  0  0  0
 24 47  1  0  0  0  0
M  END
> <s_m_source_file>
AV-unprocessed.smi

> <i_m_source_file_index>
1335

> <i_lp_mmshare_version>
43012

> <i_f3d_flags>
0

> <s_epik_input>
W0NIM11PYzFbY0hdW2NIXVtjSF1bY0hdYzFbQ0gyXU9bQ0gyXVtDQEhdKFtPSF0pW0NIMl1uKGMoPU8pbjJbQ0gzXSljKGMyMylbY0hdW2NIXVtjSF1bY0hdMw==

> <s_epik_cmdline>
J2VwaWtfcHl0aG9uJywgJy1waCcsICc3LjAnLCAnLXRuJywgJzgnLCAnLW1hJywgJzIwMCcsICctbWV0YWxfYmluZGluZycsICctaW1hZScsICc8aW5maWxlLm1hZT4nLCAnLW9tYWUnLCAnPG91dGZpbGUubWFlPic=

> <r_lp_tautomer_probability>
1

> <r_epik_Ionization_Penalty>
1.07897e-06

> <r_epik_Ionization_Penalty_Charging>
2.2947e-09

> <r_epik_Ionization_Penalty_Neutral>
1.07667e-06

> <r_epik_State_Penalty>
-0

> <r_epik_Charging_Adjusted_Penalty>
2.2947e-09

> <i_epik_Tot_Q>
0

> <i_epik_Tot_abs_Q>
0

> <r_epik_Metal_State_Penalty>
-0

> <b_epik_Metal_Only>
0

> <s_lp_Force_Field>
OPLS_2005

> <r_lp_Energy>
49.5291

> <b_lp_Chiralities_Consistent>
1

> <s_lp_Variant>
AV-unprocessed.smi:1335-2

> <Gold.Version>
5.8.1

> <Gold.Id.Protein>
6NUR|6NUR_protein|mol2

> <Gold.PLP.Fitness>
54.8228

> <Gold.PLP.PLP>
-51.5742

> <Gold.PLP.part.hbond>
-2.0000

> <Gold.PLP.part.metal>
0.0000

> <Gold.PLP.part.buried>
0.5496

> <Gold.PLP.part.nonpolar>
-49.9441

> <Gold.PLP.part.repulsive>
0.1491

> <Gold.PLP.ligand.clash>
0.0000

> <Gold.PLP.ligand.torsion>
1.4119

> <Gold.PLP.Chemscore.Hbond>
1.9500

> <Gold.PLP.Chemscore.CHOScore>
0.0000

> <Gold.PLP.Chemscore.Metal>
0.0000

> <Gold.Chemscore.Hbonds>
donor molecule, donor type, donor heavy atom, donor atom, acceptor molecule, acceptor atom, score
      P1  H  7989  7998       L1     2  0.65
      P1  H  7997  8008       L1    17  0.88

> <Gold.PLP.Chemscore.Internal.Correction>
0.2224

> <Gold.Rescore>
     Score         DG    S(hbond)    S(metal)    S(lipo)     H(rot)  DE(clash)    DE(int)     intcor
     15.53     -20.65       1.27        0.00     148.17       2.50       2.23       2.89       ----

> <Gold.Chemscore.Fitness>
15.5287

> <Gold.Chemscore.DG>
-20.6494

> <Gold.Chemscore.ZeroCoef>
-5.4800

> <Gold.Chemscore.Hbond>
1.2704

> <Gold.Chemscore.Metal>
0.0000

> <Gold.Chemscore.Lipo>
148.1705

> <Gold.Chemscore.Internal_Hbond>
0.0000

> <Gold.Chemscore.DEClash>
2.2302

> <Gold.Chemscore.DEInternal>
2.8905

> <Gold.Chemscore.Rot>
2.5038

> <Gold.Chemscore.Internal.Correction>
   9.000000E+99

> <Gold.Chemscore.Hbonds>
donor molecule, donor type, donor heavy atom, donor atom, acceptor molecule, acceptor atom, score
      P1  H  7989  7998       L1     2  0.03
      P1  H  7997  8008       L1    17  0.55

> <Gold.Chemscore.Hbond.Weighted>
-4.2432

> <Gold.Chemscore.Metal.Weighted>
-0.0000

> <Gold.Chemscore.Lipo.Weighted>
-17.3360

> <Gold.Chemscore.Internal_Hbond.Weighted>
0.0000

> <Gold.Chemscore.DEClash.Weighted>
2.2302

> <Gold.Chemscore.DEInternal.Weighted>
2.8905

> <Gold.Chemscore.Rot.Weighted>
6.4098

> <Gold.Chemscore.Internal.Correction.Weighted>
   9.000000E+99

> <Gold.Protein.RotatedTorsions>
[ 6907 6896 6895 6894 ] final -176.89 input  -60.11 | X-H torsion
[ 7974 7965 7964 7962 ] final  138.89 input  175.53 | X-H torsion
[ 8008 7997 7996 7995 ] final -102.81 input   59.86 | X-H torsion
[ 10167 10162 10161 10158 ] final  -13.14 input  -65.29 | X-H torsion
[ 10718 10713 10712 10709 ] final  -10.09 input   66.30 | X-H torsion
[ 10763 10752 10751 10750 ] final   44.71 input  -60.55 | X-H torsion
[ 11005 11000 10999 10996 ] final -169.79 input  -57.11 | X-H torsion

> <Gold.Protein.ActiveResidues>
 VAL166  LYS551  ARG553  GLY616  TRP617  ASP618  TYR619  PRO620  LYS621  CYS622 
 ASP623  PHE694  ASN695  SER759  ASP760  ASP761  ALA762  ILE779  LEU786  VAL792 
 PHE793  MET794  SER795  GLU796  ALA797  LYS798  CYS799  TRP800  GLU811  SER814 

> <Gold.Protein.RotatedAtoms>
  151.6121  133.3346  159.3069 H   0  0  0  0  0  0  0  0  0  0  0  0  # atno 6907 bound_to 6896
  150.8151  134.7331  159.6734 H   0  0  0  0  0  0  0  0  0  0  0  0  # atno 6908 bound_to 6896
  152.4247  134.5896  160.0022 H   0  0  0  0  0  0  0  0  0  0  0  0  # atno 6909 bound_to 6896
  144.9330  139.5024  143.5609 H   0  0  0  0  0  0  0  0  0  0  0  0  # atno 7974 bound_to 7965
  154.8620  140.0426  157.1671 H   0  0  0  0  0  0  0  0  0  0  0  0  # atno 8008 bound_to 7997
  154.8830  140.2975  155.5394 H   0  0  0  0  0  0  0  0  0  0  0  0  # atno 8009 bound_to 7997
  156.2998  140.2408  156.3835 H   0  0  0  0  0  0  0  0  0  0  0  0  # atno 8010 bound_to 7997
  140.7176  143.5457  150.9358 H   0  0  0  0  0  0  0  0  0  0  0  0  # atno 10167 bound_to 10162
  156.6785  130.5030  149.5978 H   0  0  0  0  0  0  0  0  0  0  0  0  # atno 10718 bound_to 10713
  152.9836  135.6062  154.3319 H   0  0  0  0  0  0  0  0  0  0  0  0  # atno 10763 bound_to 10752
  154.3021  135.2772  155.2608 H   0  0  0  0  0  0  0  0  0  0  0  0  # atno 10764 bound_to 10752
  154.4855  135.5906  153.6477 H   0  0  0  0  0  0  0  0  0  0  0  0  # atno 10765 bound_to 10752
  140.5268  134.5655  157.5063 H   0  0  0  0  0  0  0  0  0  0  0  0  # atno 11005 bound_to 11000
  146.3255  139.8294  142.8911 LP  0  0  0  0  0  0  0  0  0  0  0  0  # atno 17320 bound_to 7965
  145.3112  141.0220  143.3553 LP  0  0  0  0  0  0  0  0  0  0  0  0  # atno 17321 bound_to 7965
  139.9181  143.6639  152.3102 LP  0  0  0  0  0  0  0  0  0  0  0  0  # atno 17342 bound_to 10162
  139.7046  144.7630  151.1215 LP  0  0  0  0  0  0  0  0  0  0  0  0  # atno 17343 bound_to 10162
  156.1885  130.6545  151.1034 LP  0  0  0  0  0  0  0  0  0  0  0  0  # atno 17370 bound_to 10713
  157.7052  131.0759  150.6690 LP  0  0  0  0  0  0  0  0  0  0  0  0  # atno 17371 bound_to 10713
  139.9576  134.7508  156.0308 LP  0  0  0  0  0  0  0  0  0  0  0  0  # atno 17394 bound_to 11000
  141.1304  133.6588  156.3448 LP  0  0  0  0  0  0  0  0  0  0  0  0  # atno 17395 bound_to 11000

$$$$
