AV-unprocessed.smi:2130|AV-procd|sdf|8685|dock5
  -GOLD-   2272011433D 1   1.00000     0.00000
 Structure written by MMmdl.
 32 33  0  0  0  0  0  0  0  0  1 V2000
  148.4428  139.9504  154.6918 C   0  0  0  0  0  0  0  0  0  0  0  0
  149.8908  139.4947  154.7436 C   0  0  0  0  0  0  0  0  0  0  0  0
  150.5412  138.8579  153.7640 C   0  0  0  0  0  0  0  0  0  0  0  0
  152.2086  138.5249  154.1642 S   0  0  0  0  0  0  0  0  0  0  0  0
  151.9899  139.3132  155.7676 C   0  0  0  0  0  0  0  0  0  0  0  0
  152.8964  139.4085  156.5935 O   0  0  0  0  0  0  0  0  0  0  0  0
  150.6728  139.7590  155.8770 N   0  0  0  0  0  0  0  0  0  0  0  0
  150.1649  140.4341  157.0787 C   0  0  0  0  0  0  0  0  0  0  0  0
  150.9660  141.6906  157.4437 C   0  0  0  0  0  0  0  0  0  0  0  0
  150.9653  142.6768  156.7056 O   0  0  0  0  0  0  0  0  0  0  0  0
  151.6352  141.6412  158.6060 N   0  0  0  0  0  0  0  0  0  0  0  0
  152.4518  142.7146  159.1639 C   0  0  2  0  0  0  0  0  0  0  0  0
  153.2255  142.2004  160.3891 C   0  0  0  0  0  0  0  0  0  0  0  0
  151.6293  143.9386  159.5200 C   0  0  0  0  0  0  0  0  0  0  0  0
  151.0393  144.8215  158.4466 C   0  0  0  0  0  0  0  0  0  0  0  0
  152.1714  145.3322  159.3097 C   0  0  0  0  0  0  0  0  0  0  0  0
  148.0819  139.9520  153.6630 H   0  0  0  0  0  0  0  0  0  0  0  0
  148.3254  140.9620  155.0803 H   0  0  0  0  0  0  0  0  0  0  0  0
  147.8120  139.2754  155.2705 H   0  0  0  0  0  0  0  0  0  0  0  0
  150.1327  138.5683  152.8070 H   0  0  0  0  0  0  0  0  0  0  0  0
  149.1134  140.6989  156.9723 H   0  0  0  0  0  0  0  0  0  0  0  0
  150.2009  139.7375  157.9183 H   0  0  0  0  0  0  0  0  0  0  0  0
  151.5744  140.7917  159.1487 H   0  0  0  0  0  0  0  0  0  0  0  0
  153.1803  143.0222  158.4108 H   0  0  0  0  0  0  0  0  0  0  0  0
  153.8716  142.9778  160.7981 H   0  0  0  0  0  0  0  0  0  0  0  0
  153.8605  141.3521  160.1318 H   0  0  0  0  0  0  0  0  0  0  0  0
  152.5481  141.8809  161.1817 H   0  0  0  0  0  0  0  0  0  0  0  0
  151.0182  143.8057  160.4114 H   0  0  0  0  0  0  0  0  0  0  0  0
  151.2676  144.5822  157.4099 H   0  0  0  0  0  0  0  0  0  0  0  0
  150.0465  145.2305  158.6234 H   0  0  0  0  0  0  0  0  0  0  0  0
  151.9332  146.0820  160.0613 H   0  0  0  0  0  0  0  0  0  0  0  0
  153.1503  145.4320  158.8450 H   0  0  0  0  0  0  0  0  0  0  0  0
  1  2  1  0  0  0  0
  1 17  1  0  0  0  0
  1 18  1  0  0  0  0
  1 19  1  0  0  0  0
  2  7  1  0  0  0  0
  2  3  2  0  0  0  0
  3  4  1  0  0  0  0
  3 20  1  0  0  0  0
  4  5  1  0  0  0  0
  5  6  2  0  0  0  0
  5  7  1  0  0  0  0
  7  8  1  0  0  0  0
  8  9  1  0  0  0  0
  8 21  1  0  0  0  0
  8 22  1  0  0  0  0
  9 10  2  0  0  0  0
  9 11  1  0  0  0  0
 11 12  1  0  0  0  0
 11 23  1  0  0  0  0
 12 13  1  0  0  0  0
 12 14  1  0  0  0  0
 12 24  1  0  0  0  0
 13 25  1  0  0  0  0
 13 26  1  0  0  0  0
 13 27  1  0  0  0  0
 14 16  1  0  0  0  0
 14 15  1  0  0  0  0
 14 28  1  0  0  0  0
 15 16  1  0  0  0  0
 15 29  1  0  0  0  0
 15 30  1  0  0  0  0
 16 31  1  0  0  0  0
 16 32  1  0  0  0  0
M  END
> <s_m_source_file>
AV-unprocessed.smi

> <i_m_source_file_index>
2130

> <i_lp_mmshare_version>
43012

> <i_f3d_flags>
0

> <s_epik_input>
W0NIM11jMVtjSF1zYyg9TyluMVtDSDJdQyg9TylbTkhdW0NASF0oW0NIM10pW0NIXTJbQ0gyXVtDSDJdMg==

> <s_epik_cmdline>
J2VwaWtfcHl0aG9uJywgJy1waCcsICc3LjAnLCAnLXRuJywgJzgnLCAnLW1hJywgJzIwMCcsICctbWV0YWxfYmluZGluZycsICctaW1hZScsICc8aW5maWxlLm1hZT4nLCAnLW9tYWUnLCAnPG91dGZpbGUubWFlPic=

> <r_lp_tautomer_probability>
1

> <r_epik_Ionization_Penalty>
1.32882e-06

> <r_epik_Ionization_Penalty_Charging>
1.22222e-06

> <r_epik_Ionization_Penalty_Neutral>
1.066e-07

> <r_epik_State_Penalty>
-0

> <r_epik_Charging_Adjusted_Penalty>
1.22222e-06

> <i_epik_Tot_Q>
0

> <i_epik_Tot_abs_Q>
0

> <r_epik_Metal_State_Penalty>
-0

> <b_epik_Metal_Only>
0

> <s_lp_Force_Field>
OPLS_2005

> <r_lp_Energy>
16.6118

> <b_lp_Chiralities_Consistent>
1

> <s_lp_Variant>
AV-unprocessed.smi:2130-1

> <Gold.Version>
5.8.1

> <Gold.Id.Protein>
6NUR|6NUR_protein|mol2

> <Gold.PLP.Fitness>
44.1674

> <Gold.PLP.PLP>
-36.3835

> <Gold.PLP.part.hbond>
-1.0000

> <Gold.PLP.part.metal>
0.0000

> <Gold.PLP.part.buried>
-5.4224

> <Gold.PLP.part.nonpolar>
-30.5925

> <Gold.PLP.part.repulsive>
0.2192

> <Gold.PLP.ligand.clash>
0.0000

> <Gold.PLP.ligand.torsion>
0.6546

> <Gold.PLP.Chemscore.Hbond>
1.0000

> <Gold.PLP.Chemscore.CHOScore>
1.6723

> <Gold.PLP.Chemscore.Metal>
0.0000

> <Gold.Chemscore.Hbonds>
donor molecule, donor type, donor heavy atom, donor atom, acceptor molecule, acceptor atom, score
      P1  H  7997  8008       L1     6  1.00
      L1  C     3    20       P1  7948  0.51
      L1  C     3    20       P1  7957  0.89

> <Gold.PLP.Chemscore.Internal.Correction>
1.0761

> <Gold.Rescore>
     Score         DG    S(hbond)    S(metal)    S(lipo)     H(rot)  DE(clash)    DE(int)     intcor
     14.44     -15.29       0.98        0.00      90.77       1.59       0.03       0.82       ----

> <Gold.Chemscore.Fitness>
14.4410

> <Gold.Chemscore.DG>
-15.2873

> <Gold.Chemscore.ZeroCoef>
-5.4800

> <Gold.Chemscore.Hbond>
0.9774

> <Gold.Chemscore.Metal>
0.0000

> <Gold.Chemscore.Lipo>
90.7673

> <Gold.Chemscore.Internal_Hbond>
0.0000

> <Gold.Chemscore.DEClash>
0.0255

> <Gold.Chemscore.DEInternal>
0.8207

> <Gold.Chemscore.Rot>
1.5926

> <Gold.Chemscore.Internal.Correction>
   9.000000E+99

> <Gold.Chemscore.Hbonds>
donor molecule, donor type, donor heavy atom, donor atom, acceptor molecule, acceptor atom, score
      P1  H  7997  8008       L1     6  0.99

> <Gold.Chemscore.Hbond.Weighted>
-3.2646

> <Gold.Chemscore.Metal.Weighted>
-0.0000

> <Gold.Chemscore.Lipo.Weighted>
-10.6198

> <Gold.Chemscore.Internal_Hbond.Weighted>
0.0000

> <Gold.Chemscore.DEClash.Weighted>
0.0255

> <Gold.Chemscore.DEInternal.Weighted>
0.8207

> <Gold.Chemscore.Rot.Weighted>
4.0771

> <Gold.Chemscore.Internal.Correction.Weighted>
   9.000000E+99

> <Gold.Protein.RotatedTorsions>
[ 6907 6896 6895 6894 ] final  -44.59 input  -60.11 | X-H torsion
[ 7974 7965 7964 7962 ] final  -79.81 input  175.53 | X-H torsion
[ 8008 7997 7996 7995 ] final  -44.48 input   59.86 | X-H torsion
[ 10167 10162 10161 10158 ] final  -32.22 input  -65.29 | X-H torsion
[ 10718 10713 10712 10709 ] final   89.24 input   66.30 | X-H torsion
[ 10763 10752 10751 10750 ] final   12.29 input  -60.55 | X-H torsion
[ 11005 11000 10999 10996 ] final  -80.63 input  -57.11 | X-H torsion

> <Gold.Protein.ActiveResidues>
 VAL166  LYS551  ARG553  GLY616  TRP617  ASP618  TYR619  PRO620  LYS621  CYS622 
 ASP623  PHE694  ASN695  SER759  ASP760  ASP761  ALA762  ILE779  LEU786  VAL792 
 PHE793  MET794  SER795  GLU796  ALA797  LYS798  CYS799  TRP800  GLU811  SER814 

> <Gold.Protein.RotatedAtoms>
  150.9311  134.8726  159.7551 H   0  0  0  0  0  0  0  0  0  0  0  0  # atno 6907 bound_to 6896
  152.5038  134.4077  159.9448 H   0  0  0  0  0  0  0  0  0  0  0  0  # atno 6908 bound_to 6896
  151.4104  133.3689  159.2778 H   0  0  0  0  0  0  0  0  0  0  0  0  # atno 6909 bound_to 6896
  145.5682  140.9470  143.1410 H   0  0  0  0  0  0  0  0  0  0  0  0  # atno 7974 bound_to 7965
  154.3997  140.1421  156.3690 H   0  0  0  0  0  0  0  0  0  0  0  0  # atno 8008 bound_to 7997
  155.8110  140.3473  155.5437 H   0  0  0  0  0  0  0  0  0  0  0  0  # atno 8009 bound_to 7997
  155.8386  140.0923  157.1739 H   0  0  0  0  0  0  0  0  0  0  0  0  # atno 8010 bound_to 7997
  140.7224  143.3711  151.1776 H   0  0  0  0  0  0  0  0  0  0  0  0  # atno 10167 bound_to 10162
  157.6954  131.0325  150.3395 H   0  0  0  0  0  0  0  0  0  0  0  0  # atno 10718 bound_to 10713
  153.1837  135.6832  153.8443 H   0  0  0  0  0  0  0  0  0  0  0  0  # atno 10763 bound_to 10752
  153.7766  135.3188  155.3361 H   0  0  0  0  0  0  0  0  0  0  0  0  # atno 10764 bound_to 10752
  154.8075  135.4739  154.0527 H   0  0  0  0  0  0  0  0  0  0  0  0  # atno 10765 bound_to 10752
  141.1667  133.7159  156.8302 H   0  0  0  0  0  0  0  0  0  0  0  0  # atno 11005 bound_to 11000
  144.7450  139.7344  143.7296 LP  0  0  0  0  0  0  0  0  0  0  0  0  # atno 17320 bound_to 7965
  146.1803  139.4992  142.9871 LP  0  0  0  0  0  0  0  0  0  0  0  0  # atno 17321 bound_to 7965
  139.7282  143.9114  152.3010 LP  0  0  0  0  0  0  0  0  0  0  0  0  # atno 17342 bound_to 10162
  139.8894  144.6974  150.8787 LP  0  0  0  0  0  0  0  0  0  0  0  0  # atno 17343 bound_to 10162
  156.3858  130.3889  149.7067 LP  0  0  0  0  0  0  0  0  0  0  0  0  # atno 17370 bound_to 10713
  156.4434  130.7872  151.2893 LP  0  0  0  0  0  0  0  0  0  0  0  0  # atno 17371 bound_to 10713
  140.2056  134.8865  157.3218 LP  0  0  0  0  0  0  0  0  0  0  0  0  # atno 17394 bound_to 11000
  140.2141  134.4103  155.7598 LP  0  0  0  0  0  0  0  0  0  0  0  0  # atno 17395 bound_to 11000

$$$$
