AV-unprocessed.smi:2946|AV-procd|sdf|11280|dock1
  -GOLD-   2272016173D 1   1.00000     0.00000
 Structure written by MMmdl.
 35 36  0  0  0  0  0  0  0  0  1 V2000
  150.0154  143.9260  158.7469 C   0  0  0  0  0  0  0  0  0  0  0  0
  150.8154  142.7538  158.4557 N   0  0  0  0  0  0  0  0  0  0  0  0
  150.7405  142.0152  157.2717 C   0  0  0  0  0  0  0  0  0  0  0  0
  149.8090  142.4089  156.3180 N   0  0  0  0  0  0  0  0  0  0  0  0
  149.5929  141.7613  155.0344 C   0  0  0  0  0  0  0  0  0  0  0  0
  148.1129  141.4120  154.8389 C   0  0  2  0  0  0  0  0  0  0  0  0
  147.3217  142.4792  154.0848 C   0  0  0  0  0  0  0  0  0  0  0  0
  145.8984  142.3005  154.5933 C   0  0  0  0  0  0  0  0  0  0  0  0
  146.0482  141.3930  155.8176 C   0  0  0  0  0  0  0  0  0  0  0  0
  147.4420  141.3701  156.0884 O   0  0  0  0  0  0  0  0  0  0  0  0
  151.5445  140.9345  157.0692 C   0  0  0  0  0  0  0  0  0  0  0  0
  151.4754  140.1156  155.8997 C   0  0  0  0  0  0  0  0  0  0  0  0
  151.4349  139.4578  154.9475 N   0  0  0  0  0  0  0  0  0  0  0  0
  152.5233  140.4999  158.0631 C   0  0  0  0  0  0  0  0  0  0  0  0
  153.2743  139.5332  157.9111 O   0  0  0  0  0  0  0  0  0  0  0  0
  152.5552  141.2764  159.2392 N   0  0  0  0  0  0  0  0  0  0  0  0
  153.5132  140.8715  160.2489 C   0  0  0  0  0  0  0  0  0  0  0  0
  151.7317  142.3974  159.4759 C   0  0  0  0  0  0  0  0  0  0  0  0
  151.8028  143.0470  160.5237 O   0  0  0  0  0  0  0  0  0  0  0  0
  149.3517  144.1560  157.9163 H   0  0  0  0  0  0  0  0  0  0  0  0
  150.7016  144.7606  158.9051 H   0  0  0  0  0  0  0  0  0  0  0  0
  149.4276  143.7084  159.6408 H   0  0  0  0  0  0  0  0  0  0  0  0
  149.6773  143.4086  156.2619 H   0  0  0  0  0  0  0  0  0  0  0  0
  149.9277  142.4014  154.2181 H   0  0  0  0  0  0  0  0  0  0  0  0
  150.1988  140.8554  155.0031 H   0  0  0  0  0  0  0  0  0  0  0  0
  148.0057  140.4478  154.3378 H   0  0  0  0  0  0  0  0  0  0  0  0
  147.6804  143.4744  154.3516 H   0  0  0  0  0  0  0  0  0  0  0  0
  147.4025  142.3728  153.0028 H   0  0  0  0  0  0  0  0  0  0  0  0
  145.4606  143.2634  154.8593 H   0  0  0  0  0  0  0  0  0  0  0  0
  145.2570  141.8358  153.8435 H   0  0  0  0  0  0  0  0  0  0  0  0
  145.4845  141.7522  156.6788 H   0  0  0  0  0  0  0  0  0  0  0  0
  145.7118  140.3807  155.5884 H   0  0  0  0  0  0  0  0  0  0  0  0
  153.4385  141.4876  161.1441 H   0  0  0  0  0  0  0  0  0  0  0  0
  154.5067  140.9724  159.8088 H   0  0  0  0  0  0  0  0  0  0  0  0
  153.2954  139.8331  160.5058 H   0  0  0  0  0  0  0  0  0  0  0  0
  1  2  1  0  0  0  0
  1 20  1  0  0  0  0
  1 21  1  0  0  0  0
  1 22  1  0  0  0  0
  2 18  1  0  0  0  0
  2  3  1  0  0  0  0
  3  4  1  0  0  0  0
  3 11  2  0  0  0  0
  4  5  1  0  0  0  0
  4 23  1  0  0  0  0
  5  6  1  0  0  0  0
  5 24  1  0  0  0  0
  5 25  1  0  0  0  0
  6 10  1  0  0  0  0
  6  7  1  0  0  0  0
  6 26  1  0  0  0  0
  7  8  1  0  0  0  0
  7 27  1  0  0  0  0
  7 28  1  0  0  0  0
  8  9  1  0  0  0  0
  8 29  1  0  0  0  0
  8 30  1  0  0  0  0
  9 10  1  0  0  0  0
  9 31  1  0  0  0  0
  9 32  1  0  0  0  0
 11 12  1  0  0  0  0
 11 14  1  0  0  0  0
 12 13  3  0  0  0  0
 14 15  2  0  0  0  0
 14 16  1  0  0  0  0
 16 17  1  0  0  0  0
 16 18  1  0  0  0  0
 17 33  1  0  0  0  0
 17 34  1  0  0  0  0
 17 35  1  0  0  0  0
 18 19  2  0  0  0  0
M  END
> <s_m_source_file>
AV-unprocessed.smi

> <i_m_source_file_index>
2946

> <i_lp_mmshare_version>
43012

> <i_f3d_flags>
0

> <s_epik_input>
Tz1jMW4oW0NIM10pYyg9TyljKEMjTiljKG4xW0NIM10pW05IXVtDSDJdW0NAQEhdMltDSDJdW0NIMl1bQ0gyXU8y

> <s_epik_cmdline>
J2VwaWtfcHl0aG9uJywgJy1waCcsICc3LjAnLCAnLXRuJywgJzgnLCAnLW1hJywgJzIwMCcsICctbWV0YWxfYmluZGluZycsICctaW1hZScsICc8aW5maWxlLm1hZT4nLCAnLW9tYWUnLCAnPG91dGZpbGUubWFlPic=

> <r_epik_Ionization_Penalty>
0.000541801

> <r_epik_Ionization_Penalty_Charging>
8.97317e-10

> <r_epik_Ionization_Penalty_Neutral>
0.000541801

> <r_epik_State_Penalty>
0.000338907

> <r_epik_Charging_Adjusted_Penalty>
0.000338908

> <i_epik_Tot_Q>
0

> <i_epik_Tot_abs_Q>
0

> <r_epik_Metal_State_Penalty>
-0

> <b_epik_Metal_Only>
0

> <s_lp_Force_Field>
OPLS_2005

> <r_lp_Energy>
38.3393

> <b_lp_Chiralities_Consistent>
1

> <s_lp_Variant>
AV-unprocessed.smi:2946-1

> <Gold.Version>
5.8.1

> <Gold.Id.Protein>
6NUR|6NUR_protein|mol2

> <Gold.PLP.Fitness>
42.4233

> <Gold.PLP.PLP>
-34.4701

> <Gold.PLP.part.hbond>
-3.2550

> <Gold.PLP.part.metal>
0.0000

> <Gold.PLP.part.buried>
-3.2168

> <Gold.PLP.part.nonpolar>
-28.0069

> <Gold.PLP.part.repulsive>
0.2614

> <Gold.PLP.ligand.clash>
11.1084

> <Gold.PLP.ligand.torsion>
0.5278

> <Gold.PLP.Chemscore.Hbond>
3.0000

> <Gold.PLP.Chemscore.CHOScore>
0.0000

> <Gold.PLP.Chemscore.Metal>
0.0000

> <Gold.Chemscore.Hbonds>
donor molecule, donor type, donor heavy atom, donor atom, acceptor molecule, acceptor atom, score
      L1  H     4    23       P1  8028  1.00
      P1  H  7989  7998       L1    13  1.00
      P1  H  7997  8010       L1    15  1.00

> <Gold.PLP.Chemscore.Internal.Correction>
11.1172

> <Gold.Rescore>
     Score         DG    S(hbond)    S(metal)    S(lipo)     H(rot)  DE(clash)    DE(int)     intcor
     13.24     -16.90       2.59        0.00      52.01       1.29       0.40       3.25       ----

> <Gold.Chemscore.Fitness>
13.2426

> <Gold.Chemscore.DG>
-16.8950

> <Gold.Chemscore.ZeroCoef>
-5.4800

> <Gold.Chemscore.Hbond>
2.5881

> <Gold.Chemscore.Metal>
0.0000

> <Gold.Chemscore.Lipo>
52.0083

> <Gold.Chemscore.Internal_Hbond>
0.0000

> <Gold.Chemscore.DEClash>
0.4043

> <Gold.Chemscore.DEInternal>
3.2481

> <Gold.Chemscore.Rot>
1.2946

> <Gold.Chemscore.Internal.Correction>
   9.000000E+99

> <Gold.Chemscore.Hbonds>
donor molecule, donor type, donor heavy atom, donor atom, acceptor molecule, acceptor atom, score
      L1  H     4    23       P1  8028  0.95
      P1  H  7989  7998       L1    13  0.28
      P1  H  7997  8010       L1    15  0.65

> <Gold.Chemscore.Hbond.Weighted>
-8.6441

> <Gold.Chemscore.Metal.Weighted>
-0.0000

> <Gold.Chemscore.Lipo.Weighted>
-6.0850

> <Gold.Chemscore.Internal_Hbond.Weighted>
0.0000

> <Gold.Chemscore.DEClash.Weighted>
0.4043

> <Gold.Chemscore.DEInternal.Weighted>
3.2481

> <Gold.Chemscore.Rot.Weighted>
3.3141

> <Gold.Chemscore.Internal.Correction.Weighted>
   9.000000E+99

> <Gold.Protein.RotatedTorsions>
[ 6907 6896 6895 6894 ] final   18.13 input  -60.11 | X-H torsion
[ 7974 7965 7964 7962 ] final  -97.38 input  175.53 | X-H torsion
[ 8008 7997 7996 7995 ] final   36.69 input   59.86 | X-H torsion
[ 10167 10162 10161 10158 ] final   92.40 input  -65.29 | X-H torsion
[ 10718 10713 10712 10709 ] final -151.36 input   66.30 | X-H torsion
[ 10763 10752 10751 10750 ] final -151.91 input  -60.55 | X-H torsion
[ 11005 11000 10999 10996 ] final   17.55 input  -57.11 | X-H torsion

> <Gold.Protein.ActiveResidues>
 VAL166  LYS551  ARG553  GLY616  TRP617  ASP618  TYR619  PRO620  LYS621  CYS622 
 ASP623  PHE694  ASN695  SER759  ASP760  ASP761  ALA762  ILE779  LEU786  VAL792 
 PHE793  MET794  SER795  GLU796  ALA797  LYS798  CYS799  TRP800  GLU811  SER814 

> <Gold.Protein.RotatedAtoms>
  151.8604  135.0526  160.0468 H   0  0  0  0  0  0  0  0  0  0  0  0  # atno 6907 bound_to 6896
  152.2667  133.5341  159.5422 H   0  0  0  0  0  0  0  0  0  0  0  0  # atno 6908 bound_to 6896
  150.7136  134.0671  159.3894 H   0  0  0  0  0  0  0  0  0  0  0  0  # atno 6909 bound_to 6896
  145.3345  140.9448  143.2643 H   0  0  0  0  0  0  0  0  0  0  0  0  # atno 7974 bound_to 7965
  155.1915  140.3308  155.4358 H   0  0  0  0  0  0  0  0  0  0  0  0  # atno 8008 bound_to 7997
  156.2440  140.1909  156.6957 H   0  0  0  0  0  0  0  0  0  0  0  0  # atno 8009 bound_to 7997
  154.6203  140.0596  156.9592 H   0  0  0  0  0  0  0  0  0  0  0  0  # atno 8010 bound_to 7997
  139.8280  144.6700  150.9435 H   0  0  0  0  0  0  0  0  0  0  0  0  # atno 10167 bound_to 10162
  156.4582  130.8200  151.2431 H   0  0  0  0  0  0  0  0  0  0  0  0  # atno 10718 bound_to 10713
  154.8028  135.3248  154.7508 H   0  0  0  0  0  0  0  0  0  0  0  0  # atno 10763 bound_to 10752
  153.8173  135.6890  153.4836 H   0  0  0  0  0  0  0  0  0  0  0  0  # atno 10764 bound_to 10752
  153.1754  135.4607  154.9902 H   0  0  0  0  0  0  0  0  0  0  0  0  # atno 10765 bound_to 10752
  140.4347  134.1383  155.7684 H   0  0  0  0  0  0  0  0  0  0  0  0  # atno 11005 bound_to 11000
  144.8838  139.4867  143.6710 LP  0  0  0  0  0  0  0  0  0  0  0  0  # atno 17320 bound_to 7965
  146.3032  139.7495  142.9075 LP  0  0  0  0  0  0  0  0  0  0  0  0  # atno 17321 bound_to 7965
  140.7809  143.4028  151.1121 LP  0  0  0  0  0  0  0  0  0  0  0  0  # atno 17342 bound_to 10162
  139.7683  143.8532  152.3115 LP  0  0  0  0  0  0  0  0  0  0  0  0  # atno 17343 bound_to 10162
  157.7499  131.0116  150.3351 LP  0  0  0  0  0  0  0  0  0  0  0  0  # atno 17370 bound_to 10713
  156.3745  130.3869  149.7150 LP  0  0  0  0  0  0  0  0  0  0  0  0  # atno 17371 bound_to 10713
  141.1731  133.8569  157.1509 LP  0  0  0  0  0  0  0  0  0  0  0  0  # atno 17394 bound_to 11000
  140.0110  134.9988  157.0395 LP  0  0  0  0  0  0  0  0  0  0  0  0  # atno 17395 bound_to 11000

$$$$
