AV-unprocessed.smi:247|AV-procd|sdf|1894|dock2
  -GOLD-   2262020563D 1   1.00000     0.00000
 Structure written by MMmdl.
 61 65  0  0  0  0  0  0  0  0  1 V2000
  143.6856  138.0670  161.3062 O   0  0  0  0  0  0  0  0  0  0  0  0
  145.0084  137.9446  161.7916 C   0  0  0  0  0  0  0  0  0  0  0  0
  145.5852  136.5074  161.6604 C   0  0  0  0  0  0  0  0  0  0  0  0
  145.5850  136.1080  160.1507 C   0  0  0  0  0  0  0  0  0  0  0  0
  146.3189  137.0087  159.2727 N   0  0  0  0  0  0  0  0  0  0  0  0
  145.7836  137.8788  158.3494 C   0  0  0  0  0  0  0  0  0  0  0  0
  146.6519  138.5900  157.6843 N   0  0  0  0  0  0  0  0  0  0  0  0
  147.8809  138.1941  158.1982 C   0  0  0  0  0  0  0  0  0  0  0  0
  149.2303  138.5662  157.9372 C   0  0  0  0  0  0  0  0  0  0  0  0
  149.5664  139.4825  156.9923 N   0  0  0  0  0  0  0  0  0  0  0  0
  149.1510  139.1846  155.6255 C   0  0  0  0  0  0  0  0  0  0  0  0
  150.2828  139.6705  154.7153 C   0  0  0  0  0  0  0  0  0  0  0  0
  151.0049  140.7125  155.5629 C   0  0  0  0  0  0  0  0  0  0  0  0
  150.8780  140.1318  156.9774 C   0  0  1  0  0  0  0  0  0  0  0  0
  151.1249  141.1278  158.1501 C   0  0  1  0  0  0  0  0  0  0  0  0
  152.5601  140.9648  158.6970 C   0  0  0  0  0  0  0  0  0  0  0  0
  152.7710  141.8017  159.8289 O   0  0  0  0  0  0  0  0  0  0  0  0
  152.6555  143.1858  159.5235 C   0  0  0  0  0  0  0  0  0  0  0  0
  151.2273  143.4874  159.0500 C   0  0  0  0  0  0  0  0  0  0  0  0
  150.8679  142.6232  157.8328 C   0  0  2  0  0  0  0  0  0  0  0  0
  149.5107  142.8650  157.5203 O   0  0  0  0  0  0  0  0  0  0  0  0
  150.1976  137.9589  158.6744 N   0  0  0  0  0  0  0  0  0  0  0  0
  149.8739  137.0516  159.6000 C   0  0  0  0  0  0  0  0  0  0  0  0
  148.6644  136.6062  159.9442 N   0  0  0  0  0  0  0  0  0  0  0  0
  147.6875  137.2105  159.2090 C   0  0  0  0  0  0  0  0  0  0  0  0
  147.0078  136.4537  162.2757 C   0  0  0  0  0  0  0  0  0  0  0  0
  147.5429  135.0149  162.3888 C   0  0  0  0  0  0  0  0  0  0  0  0
  146.6461  134.2260  163.1613 O   0  0  0  0  0  0  0  0  0  0  0  0
  145.3552  134.1121  162.5746 C   0  0  0  0  0  0  0  0  0  0  0  0
  144.7037  135.5027  162.4469 C   0  0  0  0  0  0  0  0  0  0  0  0
  143.6333  138.8435  160.7702 H   0  0  0  0  0  0  0  0  0  0  0  0
  145.6331  138.6545  161.2483 H   0  0  0  0  0  0  0  0  0  0  0  0
  144.9983  138.2648  162.8333 H   0  0  0  0  0  0  0  0  0  0  0  0
  145.9959  135.1107  160.0020 H   0  0  0  0  0  0  0  0  0  0  0  0
  144.5583  136.0513  159.7863 H   0  0  0  0  0  0  0  0  0  0  0  0
  144.7204  137.9668  158.1792 H   0  0  0  0  0  0  0  0  0  0  0  0
  148.9515  138.1232  155.4698 H   0  0  0  0  0  0  0  0  0  0  0  0
  148.2331  139.7344  155.4154 H   0  0  0  0  0  0  0  0  0  0  0  0
  150.9601  138.8434  154.4987 H   0  0  0  0  0  0  0  0  0  0  0  0
  149.9225  140.0672  153.7658 H   0  0  0  0  0  0  0  0  0  0  0  0
  152.0401  140.8602  155.2545 H   0  0  0  0  0  0  0  0  0  0  0  0
  150.4845  141.6647  155.4705 H   0  0  0  0  0  0  0  0  0  0  0  0
  151.6219  139.3371  157.0555 H   0  0  0  0  0  0  0  0  0  0  0  0
  150.4581  140.8545  158.9684 H   0  0  0  0  0  0  0  0  0  0  0  0
  152.7291  139.9320  159.0026 H   0  0  0  0  0  0  0  0  0  0  0  0
  153.3032  141.1923  157.9313 H   0  0  0  0  0  0  0  0  0  0  0  0
  152.8837  143.7649  160.4185 H   0  0  0  0  0  0  0  0  0  0  0  0
  153.3874  143.4678  158.7651 H   0  0  0  0  0  0  0  0  0  0  0  0
  150.5315  143.2899  159.8670 H   0  0  0  0  0  0  0  0  0  0  0  0
  151.1308  144.5460  158.8057 H   0  0  0  0  0  0  0  0  0  0  0  0
  151.4776  142.9461  156.9899 H   0  0  0  0  0  0  0  0  0  0  0  0
  149.4730  143.3635  156.7179 H   0  0  0  0  0  0  0  0  0  0  0  0
  150.7031  136.6188  160.1403 H   0  0  0  0  0  0  0  0  0  0  0  0
  147.7050  137.0752  161.7153 H   0  0  0  0  0  0  0  0  0  0  0  0
  146.9912  136.8740  163.2817 H   0  0  0  0  0  0  0  0  0  0  0  0
  147.6960  134.5627  161.4087 H   0  0  0  0  0  0  0  0  0  0  0  0
  148.5140  135.0198  162.8836 H   0  0  0  0  0  0  0  0  0  0  0  0
  145.4223  133.6056  161.6116 H   0  0  0  0  0  0  0  0  0  0  0  0
  144.7415  133.4764  163.2130 H   0  0  0  0  0  0  0  0  0  0  0  0
  144.5246  135.8692  163.4579 H   0  0  0  0  0  0  0  0  0  0  0  0
  143.7206  135.4133  161.9834 H   0  0  0  0  0  0  0  0  0  0  0  0
  1  2  1  0  0  0  0
  1 31  1  0  0  0  0
  2  3  1  0  0  0  0
  2 32  1  0  0  0  0
  2 33  1  0  0  0  0
  3 30  1  0  0  0  0
  3  4  1  0  0  0  0
  3 26  1  0  0  0  0
  4  5  1  0  0  0  0
  4 34  1  0  0  0  0
  4 35  1  0  0  0  0
  5 25  1  0  0  0  0
  5  6  1  0  0  0  0
  6  7  2  0  0  0  0
  6 36  1  0  0  0  0
  7  8  1  0  0  0  0
  8 25  2  0  0  0  0
  8  9  1  0  0  0  0
  9 10  1  0  0  0  0
  9 22  2  0  0  0  0
 10 14  1  0  0  0  0
 10 11  1  0  0  0  0
 11 12  1  0  0  0  0
 11 37  1  0  0  0  0
 11 38  1  0  0  0  0
 12 13  1  0  0  0  0
 12 39  1  0  0  0  0
 12 40  1  0  0  0  0
 13 14  1  0  0  0  0
 13 41  1  0  0  0  0
 13 42  1  0  0  0  0
 14 15  1  0  0  0  0
 14 43  1  0  0  0  0
 15 20  1  0  0  0  0
 15 16  1  0  0  0  0
 15 44  1  0  0  0  0
 16 17  1  0  0  0  0
 16 45  1  0  0  0  0
 16 46  1  0  0  0  0
 17 18  1  0  0  0  0
 18 19  1  0  0  0  0
 18 47  1  0  0  0  0
 18 48  1  0  0  0  0
 19 20  1  0  0  0  0
 19 49  1  0  0  0  0
 19 50  1  0  0  0  0
 20 21  1  0  0  0  0
 20 51  1  0  0  0  0
 21 52  1  0  0  0  0
 22 23  1  0  0  0  0
 23 24  2  0  0  0  0
 23 53  1  0  0  0  0
 24 25  1  0  0  0  0
 26 27  1  0  0  0  0
 26 54  1  0  0  0  0
 26 55  1  0  0  0  0
 27 28  1  0  0  0  0
 27 56  1  0  0  0  0
 27 57  1  0  0  0  0
 28 29  1  0  0  0  0
 29 30  1  0  0  0  0
 29 58  1  0  0  0  0
 29 59  1  0  0  0  0
 30 60  1  0  0  0  0
 30 61  1  0  0  0  0
M  END
> <s_m_source_file>
AV-unprocessed.smi

> <i_m_source_file_index>
247

> <i_lp_mmshare_version>
43012

> <i_f3d_flags>
0

> <s_epik_input>
W0NIMl0xW0NIMl1PW0NIMl1bQ0gyXUMxKFtDSDJdW09IXSlbQ0gyXW4oW2NIXW4yKWMoYzIzKW5bY0hdbmMzTjRbQ0gyXVtDSDJdW0NIMl1bQ0BIXTRbQ0BASF01W0NIMl1PW0NIMl1bQ0gyXVtDQEhdNVtPSF0=

> <s_epik_cmdline>
J2VwaWtfcHl0aG9uJywgJy1waCcsICc3LjAnLCAnLXRuJywgJzgnLCAnLW1hJywgJzIwMCcsICctbWV0YWxfYmluZGluZycsICctaW1hZScsICc8aW5maWxlLm1hZT4nLCAnLW9tYWUnLCAnPG91dGZpbGUubWFlPic=

> <r_lp_tautomer_probability>
1

> <r_epik_Ionization_Penalty>
0.00362597

> <r_epik_Ionization_Penalty_Charging>
0

> <r_epik_Ionization_Penalty_Neutral>
0.00362597

> <r_epik_State_Penalty>
0.00241433

> <r_epik_Charging_Adjusted_Penalty>
0.00241433

> <i_epik_Tot_Q>
0

> <i_epik_Tot_abs_Q>
0

> <r_epik_Metal_State_Penalty>
-0

> <b_epik_Metal_Only>
0

> <s_lp_Force_Field>
OPLS_2005

> <r_lp_Energy>
58.3113

> <b_lp_Chiralities_Consistent>
1

> <s_lp_Variant>
AV-unprocessed.smi:247-7

> <Gold.Version>
5.8.1

> <Gold.Id.Protein>
6NUR|6NUR_protein|mol2

> <Gold.PLP.Fitness>
44.7830

> <Gold.PLP.PLP>
-44.2079

> <Gold.PLP.part.hbond>
-3.0000

> <Gold.PLP.part.metal>
0.0000

> <Gold.PLP.part.buried>
-5.9300

> <Gold.PLP.part.nonpolar>
-35.3684

> <Gold.PLP.part.repulsive>
0.0064

> <Gold.PLP.ligand.clash>
0.0000

> <Gold.PLP.ligand.torsion>
1.4116

> <Gold.PLP.Chemscore.Hbond>
1.0000

> <Gold.PLP.Chemscore.CHOScore>
0.0000

> <Gold.PLP.Chemscore.Metal>
0.0000

> <Gold.Chemscore.Hbonds>
donor molecule, donor type, donor heavy atom, donor atom, acceptor molecule, acceptor atom, score
      L1  H    21    52       P1  8028  1.00

> <Gold.PLP.Chemscore.Internal.Correction>
0.3982

> <Gold.Rescore>
     Score         DG    S(hbond)    S(metal)    S(lipo)     H(rot)  DE(clash)    DE(int)     intcor
     10.25     -13.10       0.95        0.00     108.47       3.23       0.21       2.64       ----

> <Gold.Chemscore.Fitness>
10.2534

> <Gold.Chemscore.DG>
-13.0974

> <Gold.Chemscore.ZeroCoef>
-5.4800

> <Gold.Chemscore.Hbond>
0.9550

> <Gold.Chemscore.Metal>
0.0000

> <Gold.Chemscore.Lipo>
108.4702

> <Gold.Chemscore.Internal_Hbond>
0.0000

> <Gold.Chemscore.DEClash>
0.2082

> <Gold.Chemscore.DEInternal>
2.6357

> <Gold.Chemscore.Rot>
3.2278

> <Gold.Chemscore.Internal.Correction>
   9.000000E+99

> <Gold.Chemscore.Hbonds>
donor molecule, donor type, donor heavy atom, donor atom, acceptor molecule, acceptor atom, score
      L1  H    21    52       P1  8028  0.97

> <Gold.Chemscore.Hbond.Weighted>
-3.1896

> <Gold.Chemscore.Metal.Weighted>
-0.0000

> <Gold.Chemscore.Lipo.Weighted>
-12.6910

> <Gold.Chemscore.Internal_Hbond.Weighted>
0.0000

> <Gold.Chemscore.DEClash.Weighted>
0.2082

> <Gold.Chemscore.DEInternal.Weighted>
2.6357

> <Gold.Chemscore.Rot.Weighted>
8.2633

> <Gold.Chemscore.Internal.Correction.Weighted>
   9.000000E+99

> <Gold.Protein.RotatedTorsions>
[ 6907 6896 6895 6894 ] final   73.43 input  -60.11 | X-H torsion
[ 7974 7965 7964 7962 ] final  -90.46 input  175.53 | X-H torsion
[ 8008 7997 7996 7995 ] final   57.71 input   59.86 | X-H torsion
[ 10167 10162 10161 10158 ] final   92.20 input  -65.29 | X-H torsion
[ 10718 10713 10712 10709 ] final   89.42 input   66.30 | X-H torsion
[ 10763 10752 10751 10750 ] final   83.29 input  -60.55 | X-H torsion
[ 11005 11000 10999 10996 ] final  164.60 input  -57.11 | X-H torsion

> <Gold.Protein.ActiveResidues>
 VAL166  LYS551  ARG553  GLY616  TRP617  ASP618  TYR619  PRO620  LYS621  CYS622 
 ASP623  PHE694  ASN695  SER759  ASP760  ASP761  ALA762  ILE779  LEU786  VAL792 
 PHE793  MET794  SER795  GLU796  ALA797  LYS798  CYS799  TRP800  GLU811  SER814 

> <Gold.Protein.RotatedAtoms>
  152.4922  134.4423  159.9547 H   0  0  0  0  0  0  0  0  0  0  0  0  # atno 6907 bound_to 6896
  151.4408  133.3638  159.2789 H   0  0  0  0  0  0  0  0  0  0  0  0  # atno 6908 bound_to 6896
  150.9089  134.8528  159.7471 H   0  0  0  0  0  0  0  0  0  0  0  0  # atno 6909 bound_to 6896
  145.4262  140.9553  143.2153 H   0  0  0  0  0  0  0  0  0  0  0  0  # atno 7974 bound_to 7965
  155.5382  140.3483  155.4441 H   0  0  0  0  0  0  0  0  0  0  0  0  # atno 8008 bound_to 7997
  156.0670  140.1354  156.9900 H   0  0  0  0  0  0  0  0  0  0  0  0  # atno 8009 bound_to 7997
  154.4508  140.0973  156.6587 H   0  0  0  0  0  0  0  0  0  0  0  0  # atno 8010 bound_to 7997
  139.8300  144.6691  150.9411 H   0  0  0  0  0  0  0  0  0  0  0  0  # atno 10167 bound_to 10162
  157.6955  131.0332  150.3423 H   0  0  0  0  0  0  0  0  0  0  0  0  # atno 10718 bound_to 10713
  153.1278  135.4696  154.9300 H   0  0  0  0  0  0  0  0  0  0  0  0  # atno 10763 bound_to 10752
  154.7636  135.3138  154.8332 H   0  0  0  0  0  0  0  0  0  0  0  0  # atno 10764 bound_to 10752
  153.8881  135.6887  153.4816 H   0  0  0  0  0  0  0  0  0  0  0  0  # atno 10765 bound_to 10752
  140.2476  134.8002  157.3471 H   0  0  0  0  0  0  0  0  0  0  0  0  # atno 11005 bound_to 11000
  144.8212  139.5788  143.6986 LP  0  0  0  0  0  0  0  0  0  0  0  0  # atno 17320 bound_to 7965
  146.2631  139.6456  142.9348 LP  0  0  0  0  0  0  0  0  0  0  0  0  # atno 17321 bound_to 7965
  140.7807  143.4009  151.1150 LP  0  0  0  0  0  0  0  0  0  0  0  0  # atno 17342 bound_to 10162
  139.7664  143.8559  152.3111 LP  0  0  0  0  0  0  0  0  0  0  0  0  # atno 17343 bound_to 10162
  156.3882  130.3893  149.7050 LP  0  0  0  0  0  0  0  0  0  0  0  0  # atno 17370 bound_to 10713
  156.4409  130.7860  151.2881 LP  0  0  0  0  0  0  0  0  0  0  0  0  # atno 17371 bound_to 10713
  140.1590  134.4753  155.7908 LP  0  0  0  0  0  0  0  0  0  0  0  0  # atno 17394 bound_to 11000
  141.2204  133.6893  156.7511 LP  0  0  0  0  0  0  0  0  0  0  0  0  # atno 17395 bound_to 11000

$$$$
