AV-unprocessed.smi:3331|AV-procd|sdf|12819|dock9
  -GOLD-   2272019193D 1   1.00000     0.00000
 Structure written by MMmdl.
 47 48  0  0  0  0  0  0  0  0  2 V2000
  150.1052  144.2156  159.5087 C   0  0  0  0  0  0  0  0  0  0  0  0
  151.6078  144.5462  159.5463 C   0  0  1  0  0  0  0  0  0  0  0  0
  152.1942  144.4366  160.9714 C   0  0  0  0  0  0  0  0  0  0  0  0
  152.4283  142.9747  161.4144 C   0  0  2  0  0  0  0  0  0  0  0  0
  153.1329  142.9074  162.7764 C   0  0  0  0  0  0  0  0  0  0  0  0
  153.2127  142.2066  160.3303 C   0  0  0  0  0  0  0  0  0  0  0  0
  152.4874  142.2937  159.0549 N   0  0  0  0  0  0  0  0  0  0  0  0
  151.8958  141.2160  158.4779 C   0  0  0  0  0  0  0  0  0  0  0  0
  151.9887  140.0872  158.9626 O   0  0  0  0  0  0  0  0  0  0  0  0
  151.1021  141.3870  157.1666 C   0  0  2  0  0  0  0  0  0  0  0  0
  149.7581  142.1111  157.3948 C   0  0  0  0  0  0  0  0  0  0  0  0
  150.8927  140.0615  156.5419 N   0  3  0  0  0  0  0  0  0  0  0  0
  151.9600  139.6173  155.6227 C   0  0  0  0  0  0  0  0  0  0  0  0
  151.4290  138.5603  154.6438 C   0  0  0  0  0  0  0  0  0  0  0  0
  151.2882  137.2615  155.2732 N   0  0  0  0  0  0  0  0  0  0  0  0
  150.5256  136.1883  154.8630 C   0  0  0  0  0  0  0  0  0  0  0  0
  150.7057  135.1897  155.7765 C   0  0  0  0  0  0  0  0  0  0  0  0
  151.6022  135.7563  156.7250 C   0  0  0  0  0  0  0  0  0  0  0  0
  151.9472  136.9978  156.4220 N   0  0  0  0  0  0  0  0  0  0  0  0
  152.4331  143.6812  158.5687 C   0  0  0  0  0  0  0  0  0  0  0  0
  149.9042  143.1867  159.8069 H   0  0  0  0  0  0  0  0  0  0  0  0
  149.7001  144.3547  158.5062 H   0  0  0  0  0  0  0  0  0  0  0  0
  149.5455  144.8676  160.1800 H   0  0  0  0  0  0  0  0  0  0  0  0
  151.7049  145.5859  159.2313 H   0  0  0  0  0  0  0  0  0  0  0  0
  153.1481  144.9658  160.9932 H   0  0  0  0  0  0  0  0  0  0  0  0
  151.5507  144.9510  161.6862 H   0  0  0  0  0  0  0  0  0  0  0  0
  151.4562  142.4936  161.5294 H   0  0  0  0  0  0  0  0  0  0  0  0
  154.1239  143.3605  162.7344 H   0  0  0  0  0  0  0  0  0  0  0  0
  153.2524  141.8749  163.1058 H   0  0  0  0  0  0  0  0  0  0  0  0
  152.5588  143.4320  163.5407 H   0  0  0  0  0  0  0  0  0  0  0  0
  154.2084  142.6360  160.2085 H   0  0  0  0  0  0  0  0  0  0  0  0
  153.3770  141.1778  160.6538 H   0  0  0  0  0  0  0  0  0  0  0  0
  151.6864  142.0160  156.4954 H   0  0  0  0  0  0  0  0  0  0  0  0
  149.9022  143.0533  157.9254 H   0  0  0  0  0  0  0  0  0  0  0  0
  149.0651  141.5029  157.9775 H   0  0  0  0  0  0  0  0  0  0  0  0
  149.2698  142.3548  156.4514 H   0  0  0  0  0  0  0  0  0  0  0  0
  150.8378  139.3831  157.2881 H   0  0  0  0  0  0  0  0  0  0  0  0
  152.3471  140.4718  155.0674 H   0  0  0  0  0  0  0  0  0  0  0  0
  152.7867  139.2057  156.2038 H   0  0  0  0  0  0  0  0  0  0  0  0
  150.4578  138.8594  154.2467 H   0  0  0  0  0  0  0  0  0  0  0  0
  152.1032  138.4599  153.7922 H   0  0  0  0  0  0  0  0  0  0  0  0
  149.9257  136.2224  153.9654 H   0  0  0  0  0  0  0  0  0  0  0  0
  150.2622  134.2049  155.7695 H   0  0  0  0  0  0  0  0  0  0  0  0
  152.0089  135.3059  157.6184 H   0  0  0  0  0  0  0  0  0  0  0  0
  152.0459  143.7856  157.5572 H   0  0  0  0  0  0  0  0  0  0  0  0
  153.4518  144.0683  158.5148 H   0  0  0  0  0  0  0  0  0  0  0  0
  150.0093  140.0678  156.0523 H   0  0  0  0  0  0  0  0  0  0  0  0
  1  2  1  0  0  0  0
  1 21  1  0  0  0  0
  1 22  1  0  0  0  0
  1 23  1  0  0  0  0
  2 20  1  0  0  0  0
  2  3  1  0  0  0  0
  2 24  1  0  0  0  0
  3  4  1  0  0  0  0
  3 25  1  0  0  0  0
  3 26  1  0  0  0  0
  4  5  1  0  0  0  0
  4  6  1  0  0  0  0
  4 27  1  0  0  0  0
  5 28  1  0  0  0  0
  5 29  1  0  0  0  0
  5 30  1  0  0  0  0
  6  7  1  0  0  0  0
  6 31  1  0  0  0  0
  6 32  1  0  0  0  0
  7  8  1  0  0  0  0
  7 20  1  0  0  0  0
  8  9  2  0  0  0  0
  8 10  1  0  0  0  0
 10 11  1  0  0  0  0
 10 12  1  0  0  0  0
 10 33  1  0  0  0  0
 11 34  1  0  0  0  0
 11 35  1  0  0  0  0
 11 36  1  0  0  0  0
 12 13  1  0  0  0  0
 12 37  1  0  0  0  0
 12 47  1  0  0  0  0
 13 14  1  0  0  0  0
 13 38  1  0  0  0  0
 13 39  1  0  0  0  0
 14 15  1  0  0  0  0
 14 40  1  0  0  0  0
 14 41  1  0  0  0  0
 15 19  1  0  0  0  0
 15 16  1  0  0  0  0
 16 17  2  0  0  0  0
 16 42  1  0  0  0  0
 17 18  1  0  0  0  0
 17 43  1  0  0  0  0
 18 19  2  0  0  0  0
 18 44  1  0  0  0  0
 20 45  1  0  0  0  0
 20 46  1  0  0  0  0
M  CHG  1  12   1
M  END
> <s_m_source_file>
AV-unprocessed.smi

> <i_m_source_file_index>
3331

> <i_lp_mmshare_version>
43012

> <i_f3d_flags>
0

> <s_epik_input>
W0NIM11bQ0BASF0xW0NIMl1bQ0BASF0oW0NIM10pW0NIMl1OKFtDSDJdMSlDKD1PKVtDQEhdKFtDSDNdKVtOSF1bQ0gyXVtDSDJdbjJbY0hdW2NIXVtjSF1uMg==

> <s_epik_cmdline>
J2VwaWtfcHl0aG9uJywgJy1waCcsICc3LjAnLCAnLXRuJywgJzgnLCAnLW1hJywgJzIwMCcsICctbWV0YWxfYmluZGluZycsICctaW1hZScsICc8aW5maWxlLm1hZT4nLCAnLW9tYWUnLCAnPG91dGZpbGUubWFlPic=

> <r_lp_tautomer_probability>
1

> <r_epik_Ionization_Penalty>
0.189706

> <r_epik_Ionization_Penalty_Charging>
0.189703

> <r_epik_Ionization_Penalty_Neutral>
2.45875e-06

> <r_epik_State_Penalty>
0.179341

> <r_epik_Charging_Adjusted_Penalty>
0.369044

> <i_epik_Tot_Q>
1

> <i_epik_Tot_abs_Q>
1

> <r_epik_Metal_State_Penalty>
0.179578

> <b_epik_Metal_Only>
0

> <s_lp_Force_Field>
OPLS_2005

> <r_lp_Energy>
29.8768

> <b_lp_Chiralities_Consistent>
1

> <s_lp_Variant>
AV-unprocessed.smi:3331-3

> <Gold.Version>
5.8.1

> <Gold.Id.Protein>
6NUR|6NUR_protein|mol2

> <Gold.PLP.Fitness>
49.0790

> <Gold.PLP.PLP>
-48.3581

> <Gold.PLP.part.hbond>
-0.0237

> <Gold.PLP.part.metal>
0.0000

> <Gold.PLP.part.buried>
-6.5181

> <Gold.PLP.part.nonpolar>
-42.4190

> <Gold.PLP.part.repulsive>
0.0752

> <Gold.PLP.ligand.clash>
0.0000

> <Gold.PLP.ligand.torsion>
1.1695

> <Gold.PLP.Chemscore.Hbond>
0.0000

> <Gold.PLP.Chemscore.CHOScore>
0.9989

> <Gold.PLP.Chemscore.Metal>
0.0000

> <Gold.Chemscore.Hbonds>
donor molecule, donor type, donor heavy atom, donor atom, acceptor molecule, acceptor atom, score
      L1  C    16    42       P1  7948  0.99

> <Gold.PLP.Chemscore.Internal.Correction>
0.0633

> <Gold.Rescore>
     Score         DG    S(hbond)    S(metal)    S(lipo)     H(rot)  DE(clash)    DE(int)     intcor
     13.61     -15.23       0.00        0.00     121.09       1.73       0.22       1.39       ----

> <Gold.Chemscore.Fitness>
13.6128

> <Gold.Chemscore.DG>
-15.2300

> <Gold.Chemscore.ZeroCoef>
-5.4800

> <Gold.Chemscore.Hbond>
0.0000

> <Gold.Chemscore.Metal>
0.0000

> <Gold.Chemscore.Lipo>
121.0861

> <Gold.Chemscore.Internal_Hbond>
0.0000

> <Gold.Chemscore.DEClash>
0.2234

> <Gold.Chemscore.DEInternal>
1.3938

> <Gold.Chemscore.Rot>
1.7254

> <Gold.Chemscore.Internal.Correction>
   9.000000E+99

> <Gold.Chemscore.Hbond.Weighted>
-0.0000

> <Gold.Chemscore.Metal.Weighted>
-0.0000

> <Gold.Chemscore.Lipo.Weighted>
-14.1671

> <Gold.Chemscore.Internal_Hbond.Weighted>
0.0000

> <Gold.Chemscore.DEClash.Weighted>
0.2234

> <Gold.Chemscore.DEInternal.Weighted>
1.3938

> <Gold.Chemscore.Rot.Weighted>
4.4170

> <Gold.Chemscore.Internal.Correction.Weighted>
   9.000000E+99

> <Gold.Protein.RotatedTorsions>
[ 6907 6896 6895 6894 ] final  -79.75 input  -60.11 | X-H torsion
[ 7974 7965 7964 7962 ] final  -88.80 input  175.53 | X-H torsion
[ 8008 7997 7996 7995 ] final  -89.37 input   59.86 | X-H torsion
[ 10167 10162 10161 10158 ] final  107.36 input  -65.29 | X-H torsion
[ 10718 10713 10712 10709 ] final  131.88 input   66.30 | X-H torsion
[ 10763 10752 10751 10750 ] final   80.97 input  -60.55 | X-H torsion
[ 11005 11000 10999 10996 ] final  110.36 input  -57.11 | X-H torsion

> <Gold.Protein.ActiveResidues>
 VAL166  LYS551  ARG553  GLY616  TRP617  ASP618  TYR619  PRO620  LYS621  CYS622 
 ASP623  PHE694  ASN695  SER759  ASP760  ASP761  ALA762  ILE779  LEU786  VAL792 
 PHE793  MET794  SER795  GLU796  ALA797  LYS798  CYS799  TRP800  GLU811  SER814 

> <Gold.Protein.RotatedAtoms>
  150.6943  134.4073  159.5145 H   0  0  0  0  0  0  0  0  0  0  0  0  # atno 6907 bound_to 6896
  152.1837  134.8729  160.0533 H   0  0  0  0  0  0  0  0  0  0  0  0  # atno 6908 bound_to 6896
  151.9710  133.3691  159.4108 H   0  0  0  0  0  0  0  0  0  0  0  0  # atno 6909 bound_to 6896
  145.4483  140.9560  143.2037 H   0  0  0  0  0  0  0  0  0  0  0  0  # atno 7974 bound_to 7965
  154.6858  140.0542  157.0313 H   0  0  0  0  0  0  0  0  0  0  0  0  # atno 8008 bound_to 7997
  155.0886  140.3217  155.4561 H   0  0  0  0  0  0  0  0  0  0  0  0  # atno 8009 bound_to 7997
  156.2711  140.2052  156.6013 H   0  0  0  0  0  0  0  0  0  0  0  0  # atno 8010 bound_to 7997
  139.6933  144.7105  151.1310 H   0  0  0  0  0  0  0  0  0  0  0  0  # atno 10167 bound_to 10162
  157.4925  131.1091  150.9537 H   0  0  0  0  0  0  0  0  0  0  0  0  # atno 10718 bound_to 10713
  153.1078  135.4783  154.8981 H   0  0  0  0  0  0  0  0  0  0  0  0  # atno 10763 bound_to 10752
  154.7448  135.3091  154.8666 H   0  0  0  0  0  0  0  0  0  0  0  0  # atno 10764 bound_to 10752
  153.9264  135.6849  153.4800 H   0  0  0  0  0  0  0  0  0  0  0  0  # atno 10765 bound_to 10752
  139.8880  134.9482  156.6267 H   0  0  0  0  0  0  0  0  0  0  0  0  # atno 11005 bound_to 11000
  144.8078  139.6019  143.7043 LP  0  0  0  0  0  0  0  0  0  0  0  0  # atno 17320 bound_to 7965
  146.2519  139.6217  142.9421 LP  0  0  0  0  0  0  0  0  0  0  0  0  # atno 17321 bound_to 7965
  140.7689  143.5528  150.9186 LP  0  0  0  0  0  0  0  0  0  0  0  0  # atno 17342 bound_to 10162
  139.9206  143.6610  152.3097 LP  0  0  0  0  0  0  0  0  0  0  0  0  # atno 17343 bound_to 10162
  157.0234  130.5683  149.5334 LP  0  0  0  0  0  0  0  0  0  0  0  0  # atno 17370 bound_to 10713
  156.0182  130.5276  150.8197 LP  0  0  0  0  0  0  0  0  0  0  0  0  # atno 17371 bound_to 10713
  140.7698  133.8748  155.8483 LP  0  0  0  0  0  0  0  0  0  0  0  0  # atno 17394 bound_to 11000
  140.9852  134.1353  157.4459 LP  0  0  0  0  0  0  0  0  0  0  0  0  # atno 17395 bound_to 11000

$$$$
