AV-unprocessed.smi:3150|AV-procd|sdf|12008|dock7
  -GOLD-   2272017413D 1   1.00000     0.00000
 Structure written by MMmdl.
 33 34  0  0  0  0  0  0  0  0  1 V2000
  151.5042  138.0466  155.0200 C   0  0  0  0  0  0  0  0  0  0  0  0
  150.8551  139.3540  155.4985 C   0  0  1  0  0  0  0  0  0  0  0  0
  149.4959  139.0689  155.8183 O   0  0  0  0  0  0  0  0  0  0  0  0
  148.6292  138.9072  154.7021 C   0  0  0  0  0  0  0  0  0  0  0  0
  148.3900  140.2617  154.0710 C   0  0  0  0  0  0  0  0  0  0  0  0
  148.9186  141.5145  154.7321 C   0  0  0  0  0  0  0  0  0  0  0  0
  147.4350  141.2491  154.7027 C   0  0  0  0  0  0  0  0  0  0  0  0
  151.5837  139.9275  156.7248 C   0  0  0  0  0  0  0  0  0  0  0  0
  152.4755  139.2735  157.2665 O   0  0  0  0  0  0  0  0  0  0  0  0
  151.1642  141.1383  157.1369 N   0  0  0  0  0  0  0  0  0  0  0  0
  151.6294  141.9127  158.2353 C   0  0  0  0  0  0  0  0  0  0  0  0
  152.7092  141.5672  158.9806 N   0  0  0  0  0  0  0  0  0  0  0  0
  153.0868  142.3580  160.0064 C   0  0  0  0  0  0  0  0  0  0  0  0
  152.4123  143.5421  160.3535 C   0  0  0  0  0  0  0  0  0  0  0  0
  151.2912  143.9129  159.5909 C   0  0  0  0  0  0  0  0  0  0  0  0
  150.8918  143.0907  158.5181 C   0  0  0  0  0  0  0  0  0  0  0  0
  149.8011  143.4455  157.7732 O   0  0  0  0  0  0  0  0  0  0  0  0
  152.5573  138.1930  154.7776 H   0  0  0  0  0  0  0  0  0  0  0  0
  151.0089  137.6761  154.1223 H   0  0  0  0  0  0  0  0  0  0  0  0
  151.4390  137.2643  155.7771 H   0  0  0  0  0  0  0  0  0  0  0  0
  150.8903  140.0716  154.6762 H   0  0  0  0  0  0  0  0  0  0  0  0
  149.0509  138.2300  153.9581 H   0  0  0  0  0  0  0  0  0  0  0  0
  147.6721  138.4957  155.0247 H   0  0  0  0  0  0  0  0  0  0  0  0
  148.4236  140.2524  152.9831 H   0  0  0  0  0  0  0  0  0  0  0  0
  149.4267  141.4093  155.6888 H   0  0  0  0  0  0  0  0  0  0  0  0
  149.3013  142.3010  154.0849 H   0  0  0  0  0  0  0  0  0  0  0  0
  146.8283  141.8568  154.0347 H   0  0  0  0  0  0  0  0  0  0  0  0
  146.9559  140.9642  155.6375 H   0  0  0  0  0  0  0  0  0  0  0  0
  150.4169  141.5578  156.6030 H   0  0  0  0  0  0  0  0  0  0  0  0
  153.9529  142.0371  160.5661 H   0  0  0  0  0  0  0  0  0  0  0  0
  152.7465  144.1486  161.1819 H   0  0  0  0  0  0  0  0  0  0  0  0
  150.7467  144.8154  159.8267 H   0  0  0  0  0  0  0  0  0  0  0  0
  150.0245  143.9530  157.0078 H   0  0  0  0  0  0  0  0  0  0  0  0
  1  2  1  0  0  0  0
  1 18  1  0  0  0  0
  1 19  1  0  0  0  0
  1 20  1  0  0  0  0
  2  3  1  0  0  0  0
  2  8  1  0  0  0  0
  2 21  1  0  0  0  0
  3  4  1  0  0  0  0
  4  5  1  0  0  0  0
  4 22  1  0  0  0  0
  4 23  1  0  0  0  0
  5  7  1  0  0  0  0
  5  6  1  0  0  0  0
  5 24  1  0  0  0  0
  6  7  1  0  0  0  0
  6 25  1  0  0  0  0
  6 26  1  0  0  0  0
  7 27  1  0  0  0  0
  7 28  1  0  0  0  0
  8  9  2  0  0  0  0
  8 10  1  0  0  0  0
 10 11  1  0  0  0  0
 10 29  1  0  0  0  0
 11 16  1  0  0  0  0
 11 12  2  0  0  0  0
 12 13  1  0  0  0  0
 13 14  2  0  0  0  0
 13 30  1  0  0  0  0
 14 15  1  0  0  0  0
 14 31  1  0  0  0  0
 15 16  2  0  0  0  0
 15 32  1  0  0  0  0
 16 17  1  0  0  0  0
 17 33  1  0  0  0  0
M  END
> <s_m_source_file>
AV-unprocessed.smi

> <i_m_source_file_index>
3150

> <i_lp_mmshare_version>
43012

> <i_f3d_flags>
0

> <s_epik_input>
W0NIMl0xW0NIMl1bQ0hdMVtDSDJdT1tDQEBIXShbQ0gzXSlDKD1PKVtOSF1jMm5bY0hdW2NIXVtjSF1jMltPSF0=

> <s_epik_cmdline>
J2VwaWtfcHl0aG9uJywgJy1waCcsICc3LjAnLCAnLXRuJywgJzgnLCAnLW1hJywgJzIwMCcsICctbWV0YWxfYmluZGluZycsICctaW1hZScsICc8aW5maWxlLm1hZT4nLCAnLW9tYWUnLCAnPG91dGZpbGUubWFlPic=

> <r_lp_tautomer_probability>
0.43658

> <r_epik_Ionization_Penalty>
0.0204299

> <r_epik_Ionization_Penalty_Charging>
0

> <r_epik_Ionization_Penalty_Neutral>
0.0204299

> <r_epik_State_Penalty>
0.419322

> <r_epik_Charging_Adjusted_Penalty>
0.419322

> <i_epik_Tot_Q>
0

> <i_epik_Tot_abs_Q>
0

> <r_epik_Metal_State_Penalty>
0.377394

> <b_epik_Metal_Only>
0

> <s_lp_Force_Field>
OPLS_2005

> <r_lp_Energy>
16.197

> <b_lp_Chiralities_Consistent>
1

> <s_lp_Variant>
AV-unprocessed.smi:3150-2

> <Gold.Version>
5.8.1

> <Gold.Id.Protein>
6NUR|6NUR_protein|mol2

> <Gold.PLP.Fitness>
38.5762

> <Gold.PLP.PLP>
-34.1121

> <Gold.PLP.part.hbond>
-2.3796

> <Gold.PLP.part.metal>
0.0000

> <Gold.PLP.part.buried>
-1.4173

> <Gold.PLP.part.nonpolar>
-30.2268

> <Gold.PLP.part.repulsive>
0.1181

> <Gold.PLP.ligand.clash>
0.0000

> <Gold.PLP.ligand.torsion>
0.7075

> <Gold.PLP.Chemscore.Hbond>
1.7680

> <Gold.PLP.Chemscore.CHOScore>
0.0000

> <Gold.PLP.Chemscore.Metal>
0.0000

> <Gold.Chemscore.Hbonds>
donor molecule, donor type, donor heavy atom, donor atom, acceptor molecule, acceptor atom, score
      L1  H    17    33       P1  8028  0.61
      P1  H  7997  8010       L1     9  0.49

> <Gold.PLP.Chemscore.Internal.Correction>
0.5752

> <Gold.Rescore>
     Score         DG    S(hbond)    S(metal)    S(lipo)     H(rot)  DE(clash)    DE(int)     intcor
     13.19     -15.32       1.93        0.00      77.59       2.22       0.04       2.09       ----

> <Gold.Chemscore.Fitness>
13.1944

> <Gold.Chemscore.DG>
-15.3241

> <Gold.Chemscore.ZeroCoef>
-5.4800

> <Gold.Chemscore.Hbond>
1.9304

> <Gold.Chemscore.Metal>
0.0000

> <Gold.Chemscore.Lipo>
77.5872

> <Gold.Chemscore.Internal_Hbond>
0.0000

> <Gold.Chemscore.DEClash>
0.0400

> <Gold.Chemscore.DEInternal>
2.0896

> <Gold.Chemscore.Rot>
2.2192

> <Gold.Chemscore.Internal.Correction>
   9.000000E+99

> <Gold.Chemscore.Hbonds>
donor molecule, donor type, donor heavy atom, donor atom, acceptor molecule, acceptor atom, score
      L1  H    17    33       P1  8028  0.56
      P1  H  7997  8010       L1     9  0.18

> <Gold.Chemscore.Hbond.Weighted>
-6.4476

> <Gold.Chemscore.Metal.Weighted>
-0.0000

> <Gold.Chemscore.Lipo.Weighted>
-9.0777

> <Gold.Chemscore.Internal_Hbond.Weighted>
0.0000

> <Gold.Chemscore.DEClash.Weighted>
0.0400

> <Gold.Chemscore.DEInternal.Weighted>
2.0896

> <Gold.Chemscore.Rot.Weighted>
5.6812

> <Gold.Chemscore.Internal.Correction.Weighted>
   9.000000E+99

> <Gold.Protein.RotatedTorsions>
[ 6907 6896 6895 6894 ] final -126.14 input  -60.11 | X-H torsion
[ 7974 7965 7964 7962 ] final   12.15 input  175.53 | X-H torsion
[ 8008 7997 7996 7995 ] final   77.44 input   59.86 | X-H torsion
[ 10167 10162 10161 10158 ] final  -41.49 input  -65.29 | X-H torsion
[ 10718 10713 10712 10709 ] final  -53.66 input   66.30 | X-H torsion
[ 10763 10752 10751 10750 ] final   33.56 input  -60.55 | X-H torsion
[ 11005 11000 10999 10996 ] final  129.47 input  -57.11 | X-H torsion

> <Gold.Protein.ActiveResidues>
 VAL166  LYS551  ARG553  GLY616  TRP617  ASP618  TYR619  PRO620  LYS621  CYS622 
 ASP623  PHE694  ASN695  SER759  ASP760  ASP761  ALA762  ILE779  LEU786  VAL792 
 PHE793  MET794  SER795  GLU796  ALA797  LYS798  CYS799  TRP800  GLU811  SER814 

> <Gold.Protein.RotatedAtoms>
  150.8939  133.7206  159.2896 H   0  0  0  0  0  0  0  0  0  0  0  0  # atno 6907 bound_to 6896
  151.4747  135.1047  159.9771 H   0  0  0  0  0  0  0  0  0  0  0  0  # atno 6908 bound_to 6896
  152.4837  133.8271  159.7139 H   0  0  0  0  0  0  0  0  0  0  0  0  # atno 6909 bound_to 6896
  146.2357  139.9380  142.8487 H   0  0  0  0  0  0  0  0  0  0  0  0  # atno 7974 bound_to 7965
  155.8416  140.3462  155.5635 H   0  0  0  0  0  0  0  0  0  0  0  0  # atno 8008 bound_to 7997
  155.8135  140.0902  157.1910 H   0  0  0  0  0  0  0  0  0  0  0  0  # atno 8009 bound_to 7997
  154.4005  140.1443  156.3402 H   0  0  0  0  0  0  0  0  0  0  0  0  # atno 8010 bound_to 7997
  140.7001  143.3092  151.3073 H   0  0  0  0  0  0  0  0  0  0  0  0  # atno 10167 bound_to 10162
  156.1516  130.4151  149.9935 H   0  0  0  0  0  0  0  0  0  0  0  0  # atno 10718 bound_to 10713
  153.0206  135.6384  154.1530 H   0  0  0  0  0  0  0  0  0  0  0  0  # atno 10763 bound_to 10752
  154.1265  135.2843  155.3197 H   0  0  0  0  0  0  0  0  0  0  0  0  # atno 10764 bound_to 10752
  154.6225  135.5520  153.7653 H   0  0  0  0  0  0  0  0  0  0  0  0  # atno 10765 bound_to 10752
  139.9617  134.9600  156.9153 H   0  0  0  0  0  0  0  0  0  0  0  0  # atno 11005 bound_to 11000
  145.1980  140.9842  143.4172 LP  0  0  0  0  0  0  0  0  0  0  0  0  # atno 17320 bound_to 7965
  144.9798  139.3794  143.6267 LP  0  0  0  0  0  0  0  0  0  0  0  0  # atno 17321 bound_to 7965
  139.6508  144.0365  152.2625 LP  0  0  0  0  0  0  0  0  0  0  0  0  # atno 17342 bound_to 10162
  139.9901  144.6367  150.7822 LP  0  0  0  0  0  0  0  0  0  0  0  0  # atno 17343 bound_to 10162
  156.7791  130.9214  151.3645 LP  0  0  0  0  0  0  0  0  0  0  0  0  # atno 17370 bound_to 10713
  157.6662  130.9009  149.9937 LP  0  0  0  0  0  0  0  0  0  0  0  0  # atno 17371 bound_to 10713
  140.5485  134.0650  155.7362 LP  0  0  0  0  0  0  0  0  0  0  0  0  # atno 17394 bound_to 11000
  141.1295  133.9327  157.2566 LP  0  0  0  0  0  0  0  0  0  0  0  0  # atno 17395 bound_to 11000

$$$$
