AV-unprocessed.smi:835|AV-procd|sdf|3886|dock5
  -GOLD-   22720 1343D 1   1.00000     0.00000
 Structure written by MMmdl.
 41 43  0  0  0  0  0  0  0  0  2 V2000
  154.2683  141.0730  160.6915 C   0  0  0  0  0  0  0  0  0  0  0  0
  153.3566  141.8554  159.7931 C   0  0  0  0  0  0  0  0  0  0  0  0
  152.3952  141.3552  158.8673 C   0  0  0  0  0  0  0  0  0  0  0  0
  151.8663  142.4994  158.3354 C   0  0  0  0  0  0  0  0  0  0  0  0
  150.8874  142.6325  157.4016 N   0  0  0  0  0  0  0  0  0  0  0  0
  150.4463  141.7216  156.5168 C   0  0  0  0  0  0  0  0  0  0  0  0
  150.8803  140.5762  156.3934 O   0  0  0  0  0  0  0  0  0  0  0  0
  149.4615  142.2193  155.7553 N   0  0  0  0  0  0  0  0  0  0  0  0
  148.7919  141.4861  154.6863 C   0  0  2  0  0  0  0  0  0  0  0  0
  147.6344  142.2351  154.0327 C   0  0  0  0  0  0  0  0  0  0  0  0
  146.8313  141.1038  153.3818 C   0  0  0  0  0  0  0  0  0  0  0  0
  147.0793  139.8838  154.1902 N   0  3  1  0  0  0  0  0  0  0  0  0
  147.4135  138.6943  153.3771 C   0  0  0  0  0  0  0  0  0  0  0  0
  146.7950  138.7128  151.9997 C   0  0  0  0  0  0  0  0  0  0  0  0
  146.2235  137.8148  153.0755 C   0  0  0  0  0  0  0  0  0  0  0  0
  148.1073  140.2203  155.2001 C   0  0  0  0  0  0  0  0  0  0  0  0
  152.4769  143.5863  158.9200 N   0  0  0  0  0  0  0  0  0  0  0  0
  152.2549  145.0009  158.6923 C   0  0  0  0  0  0  0  0  0  0  0  0
  153.4001  143.1827  159.8194 N   0  0  0  0  0  0  0  0  0  0  0  0
  154.1477  140.0005  160.5376 H   0  0  0  0  0  0  0  0  0  0  0  0
  154.0601  141.2826  161.7408 H   0  0  0  0  0  0  0  0  0  0  0  0
  155.3133  141.3195  160.5021 H   0  0  0  0  0  0  0  0  0  0  0  0
  152.1484  140.3270  158.6497 H   0  0  0  0  0  0  0  0  0  0  0  0
  150.4570  143.5445  157.3582 H   0  0  0  0  0  0  0  0  0  0  0  0
  149.1608  143.1685  155.9224 H   0  0  0  0  0  0  0  0  0  0  0  0
  149.5198  141.2056  153.9218 H   0  0  0  0  0  0  0  0  0  0  0  0
  147.0281  142.7344  154.7905 H   0  0  0  0  0  0  0  0  0  0  0  0
  147.9638  142.9865  153.3142 H   0  0  0  0  0  0  0  0  0  0  0  0
  145.7664  141.3328  153.3343 H   0  0  0  0  0  0  0  0  0  0  0  0
  147.1805  140.9550  152.3587 H   0  0  0  0  0  0  0  0  0  0  0  0
  148.3981  138.2576  153.5365 H   0  0  0  0  0  0  0  0  0  0  0  0
  146.2105  139.5840  151.7091 H   0  0  0  0  0  0  0  0  0  0  0  0
  147.3476  138.2345  151.1935 H   0  0  0  0  0  0  0  0  0  0  0  0
  146.4010  136.7457  152.9773 H   0  0  0  0  0  0  0  0  0  0  0  0
  145.2595  138.0889  153.5009 H   0  0  0  0  0  0  0  0  0  0  0  0
  148.8130  139.4064  155.3749 H   0  0  0  0  0  0  0  0  0  0  0  0
  147.5958  140.4197  156.1432 H   0  0  0  0  0  0  0  0  0  0  0  0
  152.3466  145.2204  157.6282 H   0  0  0  0  0  0  0  0  0  0  0  0
  152.9870  145.5973  159.2388 H   0  0  0  0  0  0  0  0  0  0  0  0
  151.2540  145.2725  159.0282 H   0  0  0  0  0  0  0  0  0  0  0  0
  146.2306  139.6695  154.6941 H   0  0  0  0  0  0  0  0  0  0  0  0
  1  2  1  0  0  0  0
  1 20  1  0  0  0  0
  1 21  1  0  0  0  0
  1 22  1  0  0  0  0
  2 19  2  0  0  0  0
  2  3  1  0  0  0  0
  3  4  2  0  0  0  0
  3 23  1  0  0  0  0
  4  5  1  0  0  0  0
  4 17  1  0  0  0  0
  5  6  1  0  0  0  0
  5 24  1  0  0  0  0
  6  7  2  0  0  0  0
  6  8  1  0  0  0  0
  8  9  1  0  0  0  0
  8 25  1  0  0  0  0
  9 16  1  0  0  0  0
  9 10  1  0  0  0  0
  9 26  1  0  0  0  0
 10 11  1  0  0  0  0
 10 27  1  0  0  0  0
 10 28  1  0  0  0  0
 11 12  1  0  0  0  0
 11 29  1  0  0  0  0
 11 30  1  0  0  0  0
 12 13  1  0  0  0  0
 12 16  1  0  0  0  0
 12 41  1  0  0  0  0
 13 15  1  0  0  0  0
 13 14  1  0  0  0  0
 13 31  1  0  0  0  0
 14 15  1  0  0  0  0
 14 32  1  0  0  0  0
 14 33  1  0  0  0  0
 15 34  1  0  0  0  0
 15 35  1  0  0  0  0
 16 36  1  0  0  0  0
 16 37  1  0  0  0  0
 17 18  1  0  0  0  0
 17 19  1  0  0  0  0
 18 38  1  0  0  0  0
 18 39  1  0  0  0  0
 18 40  1  0  0  0  0
M  CHG  1  12   1
M  END
> <s_m_source_file>
AV-unprocessed.smi

> <i_m_source_file_index>
835

> <i_lp_mmshare_version>
43012

> <i_f3d_flags>
0

> <s_epik_input>
W0NIM11jMVtjSF1jKG4objEpW0NIM10pW05IXUMoPU8pW05IXVtDQEBIXTJbQ0gyXVtDSDJdTihbQ0gyXTIpW0NIXTNbQ0gyXVtDSDJdMw==

> <s_epik_cmdline>
J2VwaWtfcHl0aG9uJywgJy1waCcsICc3LjAnLCAnLXRuJywgJzgnLCAnLW1hJywgJzIwMCcsICctbWV0YWxfYmluZGluZycsICctaW1hZScsICc8aW5maWxlLm1hZT4nLCAnLW9tYWUnLCAnPG91dGZpbGUubWFlPic=

> <r_lp_tautomer_probability>
1

> <r_epik_Ionization_Penalty>
0.000700689

> <r_epik_Ionization_Penalty_Charging>
0.000627528

> <r_epik_Ionization_Penalty_Neutral>
7.31611e-05

> <r_epik_State_Penalty>
0.00039643

> <r_epik_Charging_Adjusted_Penalty>
0.00102396

> <i_epik_Tot_Q>
1

> <i_epik_Tot_abs_Q>
1

> <r_epik_Metal_State_Penalty>
-0

> <b_epik_Metal_Only>
0

> <s_lp_Force_Field>
OPLS_2005

> <r_lp_Energy>
38.9836

> <b_lp_Chiralities_Consistent>
1

> <s_lp_Variant>
AV-unprocessed.smi:835-1

> <Gold.Version>
5.8.1

> <Gold.Id.Protein>
6NUR|6NUR_protein|mol2

> <Gold.PLP.Fitness>
42.6010

> <Gold.PLP.PLP>
-40.2521

> <Gold.PLP.part.hbond>
-1.0000

> <Gold.PLP.part.metal>
0.0000

> <Gold.PLP.part.buried>
-4.7894

> <Gold.PLP.part.nonpolar>
-35.2661

> <Gold.PLP.part.repulsive>
0.1710

> <Gold.PLP.ligand.clash>
0.0000

> <Gold.PLP.ligand.torsion>
0.9590

> <Gold.PLP.Chemscore.Hbond>
1.0000

> <Gold.PLP.Chemscore.CHOScore>
0.0000

> <Gold.PLP.Chemscore.Metal>
0.0000

> <Gold.Chemscore.Hbonds>
donor molecule, donor type, donor heavy atom, donor atom, acceptor molecule, acceptor atom, score
      L1  H     8    25       P1  8028  1.00

> <Gold.PLP.Chemscore.Internal.Correction>
1.2668

> <Gold.Rescore>
     Score         DG    S(hbond)    S(metal)    S(lipo)     H(rot)  DE(clash)    DE(int)     intcor
     14.45     -16.45       1.31        0.00      82.94       1.22       0.09       1.91       ----

> <Gold.Chemscore.Fitness>
14.4530

> <Gold.Chemscore.DG>
-16.4475

> <Gold.Chemscore.ZeroCoef>
-5.4800

> <Gold.Chemscore.Hbond>
1.3130

> <Gold.Chemscore.Metal>
0.0000

> <Gold.Chemscore.Lipo>
82.9435

> <Gold.Chemscore.Internal_Hbond>
0.0000

> <Gold.Chemscore.DEClash>
0.0891

> <Gold.Chemscore.DEInternal>
1.9054

> <Gold.Chemscore.Rot>
1.2196

> <Gold.Chemscore.Internal.Correction>
   9.000000E+99

> <Gold.Chemscore.Hbonds>
donor molecule, donor type, donor heavy atom, donor atom, acceptor molecule, acceptor atom, score
      L1  H     8    25       P1  8028  0.98

> <Gold.Chemscore.Hbond.Weighted>
-4.3854

> <Gold.Chemscore.Metal.Weighted>
-0.0000

> <Gold.Chemscore.Lipo.Weighted>
-9.7044

> <Gold.Chemscore.Internal_Hbond.Weighted>
0.0000

> <Gold.Chemscore.DEClash.Weighted>
0.0891

> <Gold.Chemscore.DEInternal.Weighted>
1.9054

> <Gold.Chemscore.Rot.Weighted>
3.1223

> <Gold.Chemscore.Internal.Correction.Weighted>
   9.000000E+99

> <Gold.Protein.RotatedTorsions>
[ 6907 6896 6895 6894 ] final  157.24 input  -60.11 | X-H torsion
[ 7974 7965 7964 7962 ] final  128.87 input  175.53 | X-H torsion
[ 8008 7997 7996 7995 ] final   91.77 input   59.86 | X-H torsion
[ 10167 10162 10161 10158 ] final   63.78 input  -65.29 | X-H torsion
[ 10718 10713 10712 10709 ] final  -97.75 input   66.30 | X-H torsion
[ 10763 10752 10751 10750 ] final  -48.17 input  -60.55 | X-H torsion
[ 11005 11000 10999 10996 ] final   64.89 input  -57.11 | X-H torsion

> <Gold.Protein.ActiveResidues>
 VAL166  LYS551  ARG553  GLY616  TRP617  ASP618  TYR619  PRO620  LYS621  CYS622 
 ASP623  PHE694  ASN695  SER759  ASP760  ASP761  ALA762  ILE779  LEU786  VAL792 
 PHE793  MET794  SER795  GLU796  ALA797  LYS798  CYS799  TRP800  GLU811  SER814 

> <Gold.Protein.RotatedAtoms>
  152.0180  133.3887  159.4246 H   0  0  0  0  0  0  0  0  0  0  0  0  # atno 6907 bound_to 6896
  150.6893  134.3658  159.4979 H   0  0  0  0  0  0  0  0  0  0  0  0  # atno 6908 bound_to 6896
  152.1427  134.9049  160.0603 H   0  0  0  0  0  0  0  0  0  0  0  0  # atno 6909 bound_to 6896
  145.0349  139.4014  143.5131 H   0  0  0  0  0  0  0  0  0  0  0  0  # atno 7974 bound_to 7965
  156.0276  140.3333  155.7105 H   0  0  0  0  0  0  0  0  0  0  0  0  # atno 8008 bound_to 7997
  155.5931  140.0648  157.2771 H   0  0  0  0  0  0  0  0  0  0  0  0  # atno 8009 bound_to 7997
  154.4340  140.1823  156.1083 H   0  0  0  0  0  0  0  0  0  0  0  0  # atno 8010 bound_to 7997
  140.1293  144.4658  150.6874 H   0  0  0  0  0  0  0  0  0  0  0  0  # atno 10167 bound_to 10162
  156.0091  130.5208  150.6421 H   0  0  0  0  0  0  0  0  0  0  0  0  # atno 10718 bound_to 10713
  154.0733  135.6601  153.4827 H   0  0  0  0  0  0  0  0  0  0  0  0  # atno 10763 bound_to 10752
  153.0382  135.5162  154.7545 H   0  0  0  0  0  0  0  0  0  0  0  0  # atno 10764 bound_to 10752
  154.6618  135.3016  154.9825 H   0  0  0  0  0  0  0  0  0  0  0  0  # atno 10765 bound_to 10752
  139.9930  134.6562  156.0059 H   0  0  0  0  0  0  0  0  0  0  0  0  # atno 11005 bound_to 11000
  146.3503  139.9918  142.8685 LP  0  0  0  0  0  0  0  0  0  0  0  0  # atno 17320 bound_to 7965
  145.1723  140.9727  143.4314 LP  0  0  0  0  0  0  0  0  0  0  0  0  # atno 17321 bound_to 7965
  140.6826  143.2334  151.5343 LP  0  0  0  0  0  0  0  0  0  0  0  0  # atno 17342 bound_to 10162
  139.5528  144.2352  152.1560 LP  0  0  0  0  0  0  0  0  0  0  0  0  # atno 17343 bound_to 10162
  157.4199  131.0835  151.1141 LP  0  0  0  0  0  0  0  0  0  0  0  0  # atno 17370 bound_to 10713
  157.1746  130.6282  149.5652 LP  0  0  0  0  0  0  0  0  0  0  0  0  # atno 17371 bound_to 10713
  141.1581  133.6541  156.4228 LP  0  0  0  0  0  0  0  0  0  0  0  0  # atno 17394 bound_to 11000
  140.4872  134.6609  157.5196 LP  0  0  0  0  0  0  0  0  0  0  0  0  # atno 17395 bound_to 11000

$$$$
