AV-unprocessed.smi:800|AV-procd|sdf|3787|dock10
  -GOLD-   22720 1223D 1   1.00000     0.00000
 Structure written by MMmdl.
 36 37  0  0  0  0  0  0  0  0  1 V2000
  152.1714  145.2868  161.1706 C   0  0  0  0  0  0  0  0  0  0  0  0
  151.0053  144.7954  160.3033 C   0  0  0  0  0  0  0  0  0  0  0  0
  149.6649  144.8897  161.0487 C   0  0  0  0  0  0  0  0  0  0  0  0
  151.2590  143.4207  159.8849 N   0  0  0  0  0  0  0  0  0  0  0  0
  151.6705  142.4242  160.6855 C   0  0  0  0  0  0  0  0  0  0  0  0
  151.8477  142.5508  161.8976 O   0  0  0  0  0  0  0  0  0  0  0  0
  151.8347  141.0868  160.0225 C   0  0  0  0  0  0  0  0  0  0  0  0
  151.4713  141.0138  158.7215 N   0  0  0  0  0  0  0  0  0  0  0  0
  151.5927  139.8423  158.0850 C   0  0  0  0  0  0  0  0  0  0  0  0
  151.2129  139.7944  156.7374 N   0  0  0  0  0  0  0  0  0  0  0  0
  150.6274  140.9501  156.0529 C   0  0  0  0  0  0  0  0  0  0  0  0
  149.6312  140.4989  154.9716 C   0  0  0  0  0  0  0  0  0  0  0  0
  150.2690  139.6002  154.0726 O   0  0  0  0  0  0  0  0  0  0  0  0
  150.7168  138.4262  154.7384 C   0  0  0  0  0  0  0  0  0  0  0  0
  151.7556  138.7988  155.8097 C   0  0  0  0  0  0  0  0  0  0  0  0
  152.0482  138.7143  158.6438 N   0  0  0  0  0  0  0  0  0  0  0  0
  152.4045  138.7568  159.9443 C   0  0  0  0  0  0  0  0  0  0  0  0
  152.3147  139.9385  160.7049 C   0  0  0  0  0  0  0  0  0  0  0  0
  152.7457  139.9167  162.3814 Cl  0  0  0  0  0  0  0  0  0  0  0  0
  152.0211  146.3215  161.4800 H   0  0  0  0  0  0  0  0  0  0  0  0
  153.1139  145.2416  160.6238 H   0  0  0  0  0  0  0  0  0  0  0  0
  152.2794  144.6827  162.0724 H   0  0  0  0  0  0  0  0  0  0  0  0
  150.9574  145.4332  159.4189 H   0  0  0  0  0  0  0  0  0  0  0  0
  149.4615  145.9149  161.3586 H   0  0  0  0  0  0  0  0  0  0  0  0
  149.6626  144.2649  161.9425 H   0  0  0  0  0  0  0  0  0  0  0  0
  148.8360  144.5688  160.4169 H   0  0  0  0  0  0  0  0  0  0  0  0
  151.1216  143.2096  158.9069 H   0  0  0  0  0  0  0  0  0  0  0  0
  150.1052  141.6152  156.7399 H   0  0  0  0  0  0  0  0  0  0  0  0
  151.4318  141.5314  155.6013 H   0  0  0  0  0  0  0  0  0  0  0  0
  148.7579  140.0237  155.4218 H   0  0  0  0  0  0  0  0  0  0  0  0
  149.2699  141.3618  154.4121 H   0  0  0  0  0  0  0  0  0  0  0  0
  149.8704  137.9004  155.1835 H   0  0  0  0  0  0  0  0  0  0  0  0
  151.1595  137.7513  154.0062 H   0  0  0  0  0  0  0  0  0  0  0  0
  152.6474  139.2122  155.3378 H   0  0  0  0  0  0  0  0  0  0  0  0
  152.0622  137.8856  156.3188 H   0  0  0  0  0  0  0  0  0  0  0  0
  152.7568  137.8353  160.3836 H   0  0  0  0  0  0  0  0  0  0  0  0
  1  2  1  0  0  0  0
  1 20  1  0  0  0  0
  1 21  1  0  0  0  0
  1 22  1  0  0  0  0
  2  3  1  0  0  0  0
  2  4  1  0  0  0  0
  2 23  1  0  0  0  0
  3 24  1  0  0  0  0
  3 25  1  0  0  0  0
  3 26  1  0  0  0  0
  4  5  1  0  0  0  0
  4 27  1  0  0  0  0
  5  6  2  0  0  0  0
  5  7  1  0  0  0  0
  7 18  1  0  0  0  0
  7  8  2  0  0  0  0
  8  9  1  0  0  0  0
  9 10  1  0  0  0  0
  9 16  2  0  0  0  0
 10 15  1  0  0  0  0
 10 11  1  0  0  0  0
 11 12  1  0  0  0  0
 11 28  1  0  0  0  0
 11 29  1  0  0  0  0
 12 13  1  0  0  0  0
 12 30  1  0  0  0  0
 12 31  1  0  0  0  0
 13 14  1  0  0  0  0
 14 15  1  0  0  0  0
 14 32  1  0  0  0  0
 14 33  1  0  0  0  0
 15 34  1  0  0  0  0
 15 35  1  0  0  0  0
 16 17  1  0  0  0  0
 17 18  2  0  0  0  0
 17 36  1  0  0  0  0
 18 19  1  0  0  0  0
M  END
> <s_m_source_file>
AV-unprocessed.smi

> <i_m_source_file_index>
800

> <i_lp_mmshare_version>
43012

> <i_f3d_flags>
0

> <s_epik_input>
W0NIM11bQ0hdKFtDSDNdKVtOSF1DKD1PKWMxbmMobltjSF1jMUNsKU4yW0NIMl1bQ0gyXU9bQ0gyXVtDSDJdMg==

> <s_epik_cmdline>
J2VwaWtfcHl0aG9uJywgJy1waCcsICc3LjAnLCAnLXRuJywgJzgnLCAnLW1hJywgJzIwMCcsICctbWV0YWxfYmluZGluZycsICctaW1hZScsICc8aW5maWxlLm1hZT4nLCAnLW9tYWUnLCAnPG91dGZpbGUubWFlPic=

> <r_lp_tautomer_probability>
1

> <r_epik_Ionization_Penalty>
1.24434e-05

> <r_epik_Ionization_Penalty_Charging>
0

> <r_epik_Ionization_Penalty_Neutral>
1.24434e-05

> <r_epik_State_Penalty>
-0

> <r_epik_Charging_Adjusted_Penalty>
0

> <i_epik_Tot_Q>
0

> <i_epik_Tot_abs_Q>
0

> <r_epik_Metal_State_Penalty>
0.0120585

> <b_epik_Metal_Only>
0

> <s_lp_Force_Field>
OPLS_2005

> <r_lp_Energy>
14.0321

> <b_lp_Chiralities_Consistent>
1

> <s_lp_Variant>
AV-unprocessed.smi:800-1

> <Gold.Version>
5.8.1

> <Gold.Id.Protein>
6NUR|6NUR_protein|mol2

> <Gold.PLP.Fitness>
42.8493

> <Gold.PLP.PLP>
-38.5887

> <Gold.PLP.part.hbond>
-2.0000

> <Gold.PLP.part.metal>
0.0000

> <Gold.PLP.part.buried>
-3.5828

> <Gold.PLP.part.nonpolar>
-35.5198

> <Gold.PLP.part.repulsive>
1.4189

> <Gold.PLP.ligand.clash>
0.0000

> <Gold.PLP.ligand.torsion>
0.3278

> <Gold.PLP.Chemscore.Hbond>
1.6025

> <Gold.PLP.Chemscore.CHOScore>
0.0000

> <Gold.PLP.Chemscore.Metal>
0.0000

> <Gold.Chemscore.Hbonds>
donor molecule, donor type, donor heavy atom, donor atom, acceptor molecule, acceptor atom, score
      P1  H  6933  6945       L1     6  0.42
      P1  H  7989  7998       L1    13  0.80

> <Gold.PLP.Chemscore.Internal.Correction>
0.1088

> <Gold.Rescore>
     Score         DG    S(hbond)    S(metal)    S(lipo)     H(rot)  DE(clash)    DE(int)     intcor
     11.09     -13.92       0.01        0.00      93.84       1.00       0.09       2.73       ----

> <Gold.Chemscore.Fitness>
11.0942

> <Gold.Chemscore.DG>
-13.9163

> <Gold.Chemscore.ZeroCoef>
-5.4800

> <Gold.Chemscore.Hbond>
0.0051

> <Gold.Chemscore.Metal>
0.0000

> <Gold.Chemscore.Lipo>
93.8393

> <Gold.Chemscore.Internal_Hbond>
0.0000

> <Gold.Chemscore.DEClash>
0.0939

> <Gold.Chemscore.DEInternal>
2.7282

> <Gold.Chemscore.Rot>
1.0000

> <Gold.Chemscore.Internal.Correction>
   9.000000E+99

> <Gold.Chemscore.Hbonds>
donor molecule, donor type, donor heavy atom, donor atom, acceptor molecule, acceptor atom, score
      P1  H  6933  6945       L1     6  0.02
      P1  H  7989  7998       L1    13  0.11

> <Gold.Chemscore.Hbond.Weighted>
-0.0171

> <Gold.Chemscore.Metal.Weighted>
-0.0000

> <Gold.Chemscore.Lipo.Weighted>
-10.9792

> <Gold.Chemscore.Internal_Hbond.Weighted>
0.0000

> <Gold.Chemscore.DEClash.Weighted>
0.0939

> <Gold.Chemscore.DEInternal.Weighted>
2.7282

> <Gold.Chemscore.Rot.Weighted>
2.5600

> <Gold.Chemscore.Internal.Correction.Weighted>
   9.000000E+99

> <Gold.Protein.RotatedTorsions>
[ 6907 6896 6895 6894 ] final   68.16 input  -60.11 | X-H torsion
[ 7974 7965 7964 7962 ] final -146.24 input  175.53 | X-H torsion
[ 8008 7997 7996 7995 ] final  -79.24 input   59.86 | X-H torsion
[ 10167 10162 10161 10158 ] final   31.45 input  -65.29 | X-H torsion
[ 10718 10713 10712 10709 ] final  -22.08 input   66.30 | X-H torsion
[ 10763 10752 10751 10750 ] final   93.74 input  -60.55 | X-H torsion
[ 11005 11000 10999 10996 ] final   96.53 input  -57.11 | X-H torsion

> <Gold.Protein.ActiveResidues>
 VAL166  LYS551  ARG553  GLY616  TRP617  ASP618  TYR619  PRO620  LYS621  CYS622 
 ASP623  PHE694  ASN695  SER759  ASP760  ASP761  ALA762  ILE779  LEU786  VAL792 
 PHE793  MET794  SER795  GLU796  ALA797  LYS798  CYS799  TRP800  GLU811  SER814 

> <Gold.Protein.RotatedAtoms>
  152.4602  134.5202  159.9780 H   0  0  0  0  0  0  0  0  0  0  0  0  # atno 6907 bound_to 6896
  151.5253  133.3453  159.2916 H   0  0  0  0  0  0  0  0  0  0  0  0  # atno 6908 bound_to 6896
  150.8561  134.7930  159.7109 H   0  0  0  0  0  0  0  0  0  0  0  0  # atno 6909 bound_to 6896
  144.8173  140.5481  143.5602 H   0  0  0  0  0  0  0  0  0  0  0  0  # atno 7974 bound_to 7965
  154.5766  140.0681  156.9043 H   0  0  0  0  0  0  0  0  0  0  0  0  # atno 8008 bound_to 7997
  155.2538  140.3353  155.4261 H   0  0  0  0  0  0  0  0  0  0  0  0  # atno 8009 bound_to 7997
  156.2158  140.1778  156.7576 H   0  0  0  0  0  0  0  0  0  0  0  0  # atno 8010 bound_to 7997
  140.4587  144.0939  150.6208 H   0  0  0  0  0  0  0  0  0  0  0  0  # atno 10167 bound_to 10162
  156.5093  130.4606  149.6657 H   0  0  0  0  0  0  0  0  0  0  0  0  # atno 10718 bound_to 10713
  153.2337  135.4314  155.0623 H   0  0  0  0  0  0  0  0  0  0  0  0  # atno 10763 bound_to 10752
  154.8309  135.3386  154.6750 H   0  0  0  0  0  0  0  0  0  0  0  0  # atno 10764 bound_to 10752
  153.7176  135.7019  153.5077 H   0  0  0  0  0  0  0  0  0  0  0  0  # atno 10765 bound_to 10752
  139.8781  134.8955  156.4173 H   0  0  0  0  0  0  0  0  0  0  0  0  # atno 11005 bound_to 11000
  145.5186  139.1477  143.3565 LP  0  0  0  0  0  0  0  0  0  0  0  0  # atno 17320 bound_to 7965
  146.2477  140.5326  142.8907 LP  0  0  0  0  0  0  0  0  0  0  0  0  # atno 17321 bound_to 7965
  140.4120  143.2652  151.9822 LP  0  0  0  0  0  0  0  0  0  0  0  0  # atno 17342 bound_to 10162
  139.4804  144.5907  151.7776 LP  0  0  0  0  0  0  0  0  0  0  0  0  # atno 17343 bound_to 10162
  156.3256  130.7304  151.2224 LP  0  0  0  0  0  0  0  0  0  0  0  0  # atno 17370 bound_to 10713
  157.7452  131.0444  150.4791 LP  0  0  0  0  0  0  0  0  0  0  0  0  # atno 17371 bound_to 10713
  140.9159  133.7679  155.9847 LP  0  0  0  0  0  0  0  0  0  0  0  0  # atno 17394 bound_to 11000
  140.8495  134.2971  157.5281 LP  0  0  0  0  0  0  0  0  0  0  0  0  # atno 17395 bound_to 11000

$$$$
