AV-unprocessed.smi:3237|AV-procd|sdf|12364|dock4
  -GOLD-   2272018223D 1   1.00000     0.00000
 Structure written by MMmdl.
 37 39  0  0  0  0  0  0  0  0  2 V2000
  149.8643  141.2985  155.4155 C   0  0  0  0  0  0  0  0  0  0  0  0
  148.6324  140.9236  154.6654 C   0  0  0  0  0  0  0  0  0  0  0  0
  148.1226  139.7236  154.2569 C   0  0  0  0  0  0  0  0  0  0  0  0
  146.9182  140.0983  153.5929 C   0  0  0  0  0  0  0  0  0  0  0  0
  145.9924  139.2210  152.9715 N   0  0  0  0  0  0  0  0  0  0  0  0
  145.8208  137.9049  153.1802 C   0  0  0  0  0  0  0  0  0  0  0  0
  146.4660  137.2156  153.9701 O   0  0  0  0  0  0  0  0  0  0  0  0
  144.8397  137.4138  152.4096 N   0  0  0  0  0  0  0  0  0  0  0  0
  144.3944  136.0246  152.4175 C   0  0  1  0  0  0  0  0  0  0  0  0
  143.0339  135.8193  153.0706 C   0  0  0  0  0  0  0  0  0  0  0  0
  142.5992  134.4581  152.5138 C   0  0  0  0  0  0  0  0  0  0  0  0
  143.2620  134.3028  151.1941 N   0  3  2  0  0  0  0  0  0  0  0  0
  143.9360  132.9974  151.0220 C   0  0  0  0  0  0  0  0  0  0  0  0
  145.1344  133.0519  150.1047 C   0  0  0  0  0  0  0  0  0  0  0  0
  143.8348  132.4465  149.6199 C   0  0  0  0  0  0  0  0  0  0  0  0
  144.1643  135.4608  151.0132 C   0  0  0  0  0  0  0  0  0  0  0  0
  146.7203  141.4035  153.5959 N   0  0  0  0  0  0  0  0  0  0  0  0
  147.8149  141.9412  154.2829 O   0  0  0  0  0  0  0  0  0  0  0  0
  150.2364  140.4552  155.9975 H   0  0  0  0  0  0  0  0  0  0  0  0
  149.6664  142.1210  156.1031 H   0  0  0  0  0  0  0  0  0  0  0  0
  150.6523  141.6113  154.7305 H   0  0  0  0  0  0  0  0  0  0  0  0
  148.5557  138.7480  154.4165 H   0  0  0  0  0  0  0  0  0  0  0  0
  145.3819  139.6525  152.2933 H   0  0  0  0  0  0  0  0  0  0  0  0
  144.3585  138.0472  151.7873 H   0  0  0  0  0  0  0  0  0  0  0  0
  145.1310  135.4096  152.9396 H   0  0  0  0  0  0  0  0  0  0  0  0
  143.0775  135.8363  154.1601 H   0  0  0  0  0  0  0  0  0  0  0  0
  142.3360  136.5933  152.7469 H   0  0  0  0  0  0  0  0  0  0  0  0
  142.9238  133.6683  153.1935 H   0  0  0  0  0  0  0  0  0  0  0  0
  141.5158  134.3822  152.4185 H   0  0  0  0  0  0  0  0  0  0  0  0
  143.9304  132.3305  151.8828 H   0  0  0  0  0  0  0  0  0  0  0  0
  145.4251  134.0168  149.6934 H   0  0  0  0  0  0  0  0  0  0  0  0
  145.9556  132.3682  150.3107 H   0  0  0  0  0  0  0  0  0  0  0  0
  143.8007  131.3647  149.5069 H   0  0  0  0  0  0  0  0  0  0  0  0
  143.2617  133.0091  148.8849 H   0  0  0  0  0  0  0  0  0  0  0  0
  143.6501  136.1936  150.3895 H   0  0  0  0  0  0  0  0  0  0  0  0
  145.0950  135.1964  150.5088 H   0  0  0  0  0  0  0  0  0  0  0  0
  142.5511  134.3678  150.4796 H   0  0  0  0  0  0  0  0  0  0  0  0
  1  2  1  0  0  0  0
  1 19  1  0  0  0  0
  1 20  1  0  0  0  0
  1 21  1  0  0  0  0
  2 18  1  0  0  0  0
  2  3  2  0  0  0  0
  3  4  1  0  0  0  0
  3 22  1  0  0  0  0
  4  5  1  0  0  0  0
  4 17  2  0  0  0  0
  5  6  1  0  0  0  0
  5 23  1  0  0  0  0
  6  7  2  0  0  0  0
  6  8  1  0  0  0  0
  8  9  1  0  0  0  0
  8 24  1  0  0  0  0
  9 16  1  0  0  0  0
  9 10  1  0  0  0  0
  9 25  1  0  0  0  0
 10 11  1  0  0  0  0
 10 26  1  0  0  0  0
 10 27  1  0  0  0  0
 11 12  1  0  0  0  0
 11 28  1  0  0  0  0
 11 29  1  0  0  0  0
 12 13  1  0  0  0  0
 12 16  1  0  0  0  0
 12 37  1  0  0  0  0
 13 15  1  0  0  0  0
 13 14  1  0  0  0  0
 13 30  1  0  0  0  0
 14 15  1  0  0  0  0
 14 31  1  0  0  0  0
 14 32  1  0  0  0  0
 15 33  1  0  0  0  0
 15 34  1  0  0  0  0
 16 35  1  0  0  0  0
 16 36  1  0  0  0  0
 17 18  1  0  0  0  0
M  CHG  1  12   1
M  END
> <s_m_source_file>
AV-unprocessed.smi

> <i_m_source_file_index>
3237

> <i_lp_mmshare_version>
43012

> <i_f3d_flags>
0

> <s_epik_input>
W0NIM11jMVtjSF1jKG5vMSlbTkhdQyg9TylbTkhdW0NAQEhdMltDSDJdW0NIMl1OKFtDSDJdMilbQ0hdM1tDSDJdW0NIMl0z

> <s_epik_cmdline>
J2VwaWtfcHl0aG9uJywgJy1waCcsICc3LjAnLCAnLXRuJywgJzgnLCAnLW1hJywgJzIwMCcsICctbWV0YWxfYmluZGluZycsICctaW1hZScsICc8aW5maWxlLm1hZT4nLCAnLW9tYWUnLCAnPG91dGZpbGUubWFlPic=

> <r_epik_Ionization_Penalty>
0.000720579

> <r_epik_Ionization_Penalty_Charging>
0.000680516

> <r_epik_Ionization_Penalty_Neutral>
4.00628e-05

> <r_epik_State_Penalty>
0.000432256

> <r_epik_Charging_Adjusted_Penalty>
0.00111277

> <i_epik_Tot_Q>
1

> <i_epik_Tot_abs_Q>
1

> <r_epik_Metal_State_Penalty>
0.0255091

> <b_epik_Metal_Only>
0

> <s_lp_Force_Field>
OPLS_2005

> <r_lp_Energy>
35.6683

> <b_lp_Chiralities_Consistent>
1

> <s_lp_Variant>
AV-unprocessed.smi:3237-2

> <Gold.Version>
5.8.1

> <Gold.Id.Protein>
6NUR|6NUR_protein|mol2

> <Gold.PLP.Fitness>
41.6954

> <Gold.PLP.PLP>
-32.0390

> <Gold.PLP.part.hbond>
-3.6674

> <Gold.PLP.part.metal>
0.0000

> <Gold.PLP.part.buried>
-5.2709

> <Gold.PLP.part.nonpolar>
-24.1847

> <Gold.PLP.part.repulsive>
0.4845

> <Gold.PLP.ligand.clash>
0.0000

> <Gold.PLP.ligand.torsion>
1.1442

> <Gold.PLP.Chemscore.Hbond>
3.5600

> <Gold.PLP.Chemscore.CHOScore>
0.0000

> <Gold.PLP.Chemscore.Metal>
0.0000

> <Gold.Chemscore.Hbonds>
donor molecule, donor type, donor heavy atom, donor atom, acceptor molecule, acceptor atom, score
      L1  H     5    23       P1 10175  0.66
      L1  H     8    24       P1 10171  0.81
      L1  H    12    37       P1 10186  2.00

> <Gold.PLP.Chemscore.Internal.Correction>
1.2649

> <Gold.Rescore>
     Score         DG    S(hbond)    S(metal)    S(lipo)     H(rot)  DE(clash)    DE(int)     intcor
     15.87     -18.14       2.41        0.00      67.00       1.26       0.09       2.18       ----

> <Gold.Chemscore.Fitness>
15.8679

> <Gold.Chemscore.DG>
-18.1377

> <Gold.Chemscore.ZeroCoef>
-5.4800

> <Gold.Chemscore.Hbond>
2.4078

> <Gold.Chemscore.Metal>
0.0000

> <Gold.Chemscore.Lipo>
67.0025

> <Gold.Chemscore.Internal_Hbond>
0.0000

> <Gold.Chemscore.DEClash>
0.0853

> <Gold.Chemscore.DEInternal>
2.1844

> <Gold.Chemscore.Rot>
1.2593

> <Gold.Chemscore.Internal.Correction>
   9.000000E+99

> <Gold.Chemscore.Hbonds>
donor molecule, donor type, donor heavy atom, donor atom, acceptor molecule, acceptor atom, score
      L1  H     5    23       P1 10175  0.65
      L1  H     8    24       P1 10171  0.75
      L1  H    12    37       P1 10186  0.55

> <Gold.Chemscore.Hbond.Weighted>
-8.0421

> <Gold.Chemscore.Metal.Weighted>
-0.0000

> <Gold.Chemscore.Lipo.Weighted>
-7.8393

> <Gold.Chemscore.Internal_Hbond.Weighted>
0.0000

> <Gold.Chemscore.DEClash.Weighted>
0.0853

> <Gold.Chemscore.DEInternal.Weighted>
2.1844

> <Gold.Chemscore.Rot.Weighted>
3.2237

> <Gold.Chemscore.Internal.Correction.Weighted>
   9.000000E+99

> <Gold.Protein.RotatedTorsions>
[ 6907 6896 6895 6894 ] final -176.47 input  -60.11 | X-H torsion
[ 7974 7965 7964 7962 ] final -139.66 input  175.53 | X-H torsion
[ 8008 7997 7996 7995 ] final  176.81 input   59.86 | X-H torsion
[ 10167 10162 10161 10158 ] final  101.23 input  -65.29 | X-H torsion
[ 10718 10713 10712 10709 ] final   68.25 input   66.30 | X-H torsion
[ 10763 10752 10751 10750 ] final   16.90 input  -60.55 | X-H torsion
[ 11005 11000 10999 10996 ] final   63.14 input  -57.11 | X-H torsion

> <Gold.Protein.ActiveResidues>
 VAL166  LYS551  ARG553  GLY616  TRP617  ASP618  TYR619  PRO620  LYS621  CYS622 
 ASP623  PHE694  ASN695  SER759  ASP760  ASP761  ALA762  ILE779  LEU786  VAL792 
 PHE793  MET794  SER795  GLU796  ALA797  LYS798  CYS799  TRP800  GLU811  SER814 

> <Gold.Protein.RotatedAtoms>
  151.6053  133.3352  159.3055 H   0  0  0  0  0  0  0  0  0  0  0  0  # atno 6907 bound_to 6896
  150.8185  134.7384  159.6763 H   0  0  0  0  0  0  0  0  0  0  0  0  # atno 6908 bound_to 6896
  152.4280  134.5837  160.0006 H   0  0  0  0  0  0  0  0  0  0  0  0  # atno 6909 bound_to 6896
  144.8659  140.6292  143.5298 H   0  0  0  0  0  0  0  0  0  0  0  0  # atno 7974 bound_to 7965
  156.0724  140.1374  156.9812 H   0  0  0  0  0  0  0  0  0  0  0  0  # atno 8008 bound_to 7997
  154.4539  140.0969  156.6751 H   0  0  0  0  0  0  0  0  0  0  0  0  # atno 8009 bound_to 7997
  155.5206  140.3456  155.4408 H   0  0  0  0  0  0  0  0  0  0  0  0  # atno 8010 bound_to 7997
  139.7456  144.6999  151.0509 H   0  0  0  0  0  0  0  0  0  0  0  0  # atno 10167 bound_to 10162
  157.6278  130.9364  150.0352 H   0  0  0  0  0  0  0  0  0  0  0  0  # atno 10718 bound_to 10713
  153.1388  135.6755  153.9061 H   0  0  0  0  0  0  0  0  0  0  0  0  # atno 10763 bound_to 10752
  153.8524  135.3091  155.3434 H   0  0  0  0  0  0  0  0  0  0  0  0  # atno 10764 bound_to 10752
  154.7770  135.4909  153.9847 H   0  0  0  0  0  0  0  0  0  0  0  0  # atno 10765 bound_to 10752
  140.0044  134.6392  155.9878 H   0  0  0  0  0  0  0  0  0  0  0  0  # atno 11005 bound_to 11000
  145.4222  139.1562  143.4067 LP  0  0  0  0  0  0  0  0  0  0  0  0  # atno 17320 bound_to 7965
  146.2895  140.4333  142.8745 LP  0  0  0  0  0  0  0  0  0  0  0  0  # atno 17321 bound_to 7965
  140.7791  143.4871  150.9942 LP  0  0  0  0  0  0  0  0  0  0  0  0  # atno 17342 bound_to 10162
  139.8559  143.7378  152.3176 LP  0  0  0  0  0  0  0  0  0  0  0  0  # atno 17343 bound_to 10162
  156.1462  130.3642  149.9507 LP  0  0  0  0  0  0  0  0  0  0  0  0  # atno 17370 bound_to 10713
  156.7537  130.9125  151.3638 LP  0  0  0  0  0  0  0  0  0  0  0  0  # atno 17371 bound_to 10713
  141.1666  133.6537  156.4502 LP  0  0  0  0  0  0  0  0  0  0  0  0  # atno 17394 bound_to 11000
  140.4668  134.6790  157.5111 LP  0  0  0  0  0  0  0  0  0  0  0  0  # atno 17395 bound_to 11000

$$$$
