AV-unprocessed.smi:1260|AV-procd|sdf|5296|dock1
  -GOLD-   22720 4413D 1   1.00000     0.00000
 Structure written by MMmdl.
 37 39  0  0  0  0  0  0  0  0  2 V2000
  149.2007  141.4273  153.8001 O   0  0  0  0  0  0  0  0  0  0  0  0
  149.3313  140.3797  154.4316 C   0  0  0  0  0  0  0  0  0  0  0  0
  150.4911  140.2191  155.4160 C   0  0  0  0  0  0  0  0  0  0  0  0
  151.4209  139.2003  154.9608 N   0  0  0  0  0  0  0  0  0  0  0  0
  151.2274  138.1024  154.2274 C   0  0  0  0  0  0  0  0  0  0  0  0
  152.3493  137.4175  154.0670 N   0  0  0  0  0  0  0  0  0  0  0  0
  153.2827  138.1760  154.7535 N   0  0  0  0  0  0  0  0  0  0  0  0
  152.7386  139.2368  155.2832 N   0  0  0  0  0  0  0  0  0  0  0  0
  148.4777  139.3471  154.3369 N   0  0  0  0  0  0  0  0  0  0  0  0
  147.2276  139.3518  153.5809 C   0  0  1  0  0  0  0  0  0  0  0  0
  147.4252  139.6865  152.0900 C   0  0  0  0  0  0  0  0  0  0  0  0
  146.4914  138.7226  151.3498 C   0  0  0  0  0  0  0  0  0  0  0  0
  146.5199  137.5244  152.1966 N   0  3  2  0  0  0  0  0  0  0  0  0
  145.5438  136.4477  151.9341 C   0  0  0  0  0  0  0  0  0  0  0  0
  145.9047  135.2368  152.8215 C   0  0  0  0  0  0  0  0  0  0  0  0
  146.0446  135.6234  154.3116 C   0  0  0  0  0  0  0  0  0  0  0  0
  146.9752  136.8400  154.5048 C   0  0  0  0  0  0  0  0  0  0  0  0
  146.4967  137.9871  153.5947 C   0  0  1  0  0  0  0  0  0  0  0  0
  151.0212  141.1665  155.5214 H   0  0  0  0  0  0  0  0  0  0  0  0
  150.1170  139.9423  156.4028 H   0  0  0  0  0  0  0  0  0  0  0  0
  150.2714  137.8007  153.8253 H   0  0  0  0  0  0  0  0  0  0  0  0
  148.6754  138.5214  154.8835 H   0  0  0  0  0  0  0  0  0  0  0  0
  146.5579  140.1033  154.0042 H   0  0  0  0  0  0  0  0  0  0  0  0
  147.2111  140.7312  151.8618 H   0  0  0  0  0  0  0  0  0  0  0  0
  148.4558  139.4896  151.7899 H   0  0  0  0  0  0  0  0  0  0  0  0
  145.4769  139.1226  151.3105 H   0  0  0  0  0  0  0  0  0  0  0  0
  146.8222  138.5119  150.3324 H   0  0  0  0  0  0  0  0  0  0  0  0
  144.5316  136.7974  152.1437 H   0  0  0  0  0  0  0  0  0  0  0  0
  145.5788  136.1663  150.8811 H   0  0  0  0  0  0  0  0  0  0  0  0
  145.1552  134.4529  152.7078 H   0  0  0  0  0  0  0  0  0  0  0  0
  146.8473  134.8099  152.4762 H   0  0  0  0  0  0  0  0  0  0  0  0
  145.0584  135.8588  154.7142 H   0  0  0  0  0  0  0  0  0  0  0  0
  146.4151  134.7738  154.8862 H   0  0  0  0  0  0  0  0  0  0  0  0
  146.9629  137.1476  155.5508 H   0  0  0  0  0  0  0  0  0  0  0  0
  148.0038  136.5651  154.2661 H   0  0  0  0  0  0  0  0  0  0  0  0
  145.4571  138.2022  153.8512 H   0  0  0  0  0  0  0  0  0  0  0  0
  147.4340  137.1194  152.0536 H   0  0  0  0  0  0  0  0  0  0  0  0
  1  2  2  0  0  0  0
  2  3  1  0  0  0  0
  2  9  1  0  0  0  0
  3  4  1  0  0  0  0
  3 19  1  0  0  0  0
  3 20  1  0  0  0  0
  4  8  1  0  0  0  0
  4  5  1  0  0  0  0
  5  6  2  0  0  0  0
  5 21  1  0  0  0  0
  6  7  1  0  0  0  0
  7  8  2  0  0  0  0
  9 10  1  0  0  0  0
  9 22  1  0  0  0  0
 10 18  1  0  0  0  0
 10 11  1  0  0  0  0
 10 23  1  0  0  0  0
 11 12  1  0  0  0  0
 11 24  1  0  0  0  0
 11 25  1  0  0  0  0
 12 13  1  0  0  0  0
 12 26  1  0  0  0  0
 12 27  1  0  0  0  0
 13 18  1  0  0  0  0
 13 14  1  0  0  0  0
 13 37  1  0  0  0  0
 14 15  1  0  0  0  0
 14 28  1  0  0  0  0
 14 29  1  0  0  0  0
 15 16  1  0  0  0  0
 15 30  1  0  0  0  0
 15 31  1  0  0  0  0
 16 17  1  0  0  0  0
 16 32  1  0  0  0  0
 16 33  1  0  0  0  0
 17 18  1  0  0  0  0
 17 34  1  0  0  0  0
 17 35  1  0  0  0  0
 18 36  1  0  0  0  0
M  CHG  1  13   1
M  END
> <s_m_source_file>
AV-unprocessed.smi

> <i_m_source_file_index>
1260

> <i_lp_mmshare_version>
43012

> <i_f3d_flags>
0

> <s_epik_input>
bjFubltjSF1uMVtDSDJdQyg9TylbTkhdW0NASF0oW0NIMl1bQ0gyXTIpW0NAQEhdKE4yMylbQ0gyXVtDSDJdW0NIMl1bQ0gyXTM=

> <s_epik_cmdline>
J2VwaWtfcHl0aG9uJywgJy1waCcsICc3LjAnLCAnLXRuJywgJzgnLCAnLW1hJywgJzIwMCcsICctbWV0YWxfYmluZGluZycsICctaW1hZScsICc8aW5maWxlLm1hZT4nLCAnLW9tYWUnLCAnPG91dGZpbGUubWFlPic=

> <r_lp_tautomer_probability>
1

> <r_epik_Ionization_Penalty>
0.00234324

> <r_epik_Ionization_Penalty_Charging>
0.00233897

> <r_epik_Ionization_Penalty_Neutral>
4.26861e-06

> <r_epik_State_Penalty>
0.00161477

> <r_epik_Charging_Adjusted_Penalty>
0.00395374

> <i_epik_Tot_Q>
1

> <i_epik_Tot_abs_Q>
1

> <r_epik_Metal_State_Penalty>
-0

> <b_epik_Metal_Only>
0

> <s_lp_Force_Field>
OPLS_2005

> <r_lp_Energy>
42.8184

> <b_lp_Chiralities_Consistent>
1

> <s_lp_Variant>
AV-unprocessed.smi:1260-4

> <Gold.Version>
5.8.1

> <Gold.Id.Protein>
6NUR|6NUR_protein|mol2

> <Gold.PLP.Fitness>
43.2019

> <Gold.PLP.PLP>
-29.3200

> <Gold.PLP.part.hbond>
-5.9668

> <Gold.PLP.part.metal>
0.0000

> <Gold.PLP.part.buried>
1.2475

> <Gold.PLP.part.nonpolar>
-26.5050

> <Gold.PLP.part.repulsive>
1.2618

> <Gold.PLP.ligand.clash>
0.0000

> <Gold.PLP.ligand.torsion>
0.4325

> <Gold.PLP.Chemscore.Hbond>
4.5753

> <Gold.PLP.Chemscore.CHOScore>
0.3396

> <Gold.PLP.Chemscore.Metal>
0.0000

> <Gold.Chemscore.Hbonds>
donor molecule, donor type, donor heavy atom, donor atom, acceptor molecule, acceptor atom, score
      L1  H    13    37       P1  7948  2.00
      P1  H  7997  8009       L1     8  0.99
      P1  H  8011  8017       L1     1  0.78
      P1  H 10752 10765       L1     6  0.80
      L1  C     5    21       P1  7948  0.34

> <Gold.PLP.Chemscore.Internal.Correction>
0.0025

> <Gold.Rescore>
     Score         DG    S(hbond)    S(metal)    S(lipo)     H(rot)  DE(clash)    DE(int)     intcor
     12.94     -15.96       2.92        0.00      49.49       1.98       2.16       0.85       ----

> <Gold.Chemscore.Fitness>
12.9399

> <Gold.Chemscore.DG>
-15.9558

> <Gold.Chemscore.ZeroCoef>
-5.4800

> <Gold.Chemscore.Hbond>
2.9170

> <Gold.Chemscore.Metal>
0.0000

> <Gold.Chemscore.Lipo>
49.4927

> <Gold.Chemscore.Internal_Hbond>
0.0000

> <Gold.Chemscore.DEClash>
2.1627

> <Gold.Chemscore.DEInternal>
0.8532

> <Gold.Chemscore.Rot>
1.9757

> <Gold.Chemscore.Internal.Correction>
   9.000000E+99

> <Gold.Chemscore.Hbonds>
donor molecule, donor type, donor heavy atom, donor atom, acceptor molecule, acceptor atom, score
      L1  H    13    37       P1  7948  1.00
      P1  H  7997  8009       L1     8  0.28
      P1  H  8011  8017       L1     1  0.78
      P1  H 10752 10765       L1     6  0.40

> <Gold.Chemscore.Hbond.Weighted>
-9.7429

> <Gold.Chemscore.Metal.Weighted>
-0.0000

> <Gold.Chemscore.Lipo.Weighted>
-5.7906

> <Gold.Chemscore.Internal_Hbond.Weighted>
0.0000

> <Gold.Chemscore.DEClash.Weighted>
2.1627

> <Gold.Chemscore.DEInternal.Weighted>
0.8532

> <Gold.Chemscore.Rot.Weighted>
5.0578

> <Gold.Chemscore.Internal.Correction.Weighted>
   9.000000E+99

> <Gold.Protein.RotatedTorsions>
[ 6907 6896 6895 6894 ] final  146.84 input  -60.11 | X-H torsion
[ 7974 7965 7964 7962 ] final -177.74 input  175.53 | X-H torsion
[ 8008 7997 7996 7995 ] final -145.72 input   59.86 | X-H torsion
[ 10167 10162 10161 10158 ] final   11.80 input  -65.29 | X-H torsion
[ 10718 10713 10712 10709 ] final   50.36 input   66.30 | X-H torsion
[ 10763 10752 10751 10750 ] final  150.00 input  -60.55 | X-H torsion
[ 11005 11000 10999 10996 ] final   15.23 input  -57.11 | X-H torsion

> <Gold.Protein.ActiveResidues>
 VAL166  LYS551  ARG553  GLY616  TRP617  ASP618  TYR619  PRO620  LYS621  CYS622 
 ASP623  PHE694  ASN695  SER759  ASP760  ASP761  ALA762  ILE779  LEU786  VAL792 
 PHE793  MET794  SER795  GLU796  ALA797  LYS798  CYS799  TRP800  GLU811  SER814 

> <Gold.Protein.RotatedAtoms>
  152.1626  133.4591  159.4868 H   0  0  0  0  0  0  0  0  0  0  0  0  # atno 6907 bound_to 6896
  150.6909  134.2053  159.4347 H   0  0  0  0  0  0  0  0  0  0  0  0  # atno 6908 bound_to 6896
  151.9956  134.9955  160.0614 H   0  0  0  0  0  0  0  0  0  0  0  0  # atno 6909 bound_to 6896
  144.7128  140.0974  143.6418 H   0  0  0  0  0  0  0  0  0  0  0  0  # atno 7974 bound_to 7965
  155.5477  140.0614  157.2856 H   0  0  0  0  0  0  0  0  0  0  0  0  # atno 8008 bound_to 7997
  154.4431  140.1908  156.0699 H   0  0  0  0  0  0  0  0  0  0  0  0  # atno 8009 bound_to 7997
  156.0539  140.3281  155.7386 H   0  0  0  0  0  0  0  0  0  0  0  0  # atno 8010 bound_to 7997
  140.6108  143.8411  150.7064 H   0  0  0  0  0  0  0  0  0  0  0  0  # atno 10167 bound_to 10162
  157.4877  130.8356  149.8166 H   0  0  0  0  0  0  0  0  0  0  0  0  # atno 10718 bound_to 10713
  154.0803  135.2860  155.3291 H   0  0  0  0  0  0  0  0  0  0  0  0  # atno 10763 bound_to 10752
  154.6688  135.5307  153.8115 H   0  0  0  0  0  0  0  0  0  0  0  0  # atno 10764 bound_to 10752
  153.0451  135.6552  154.0978 H   0  0  0  0  0  0  0  0  0  0  0  0  # atno 10765 bound_to 10752
  140.4606  134.1131  155.7716 H   0  0  0  0  0  0  0  0  0  0  0  0  # atno 11005 bound_to 11000
  145.9567  139.2772  143.1180 LP  0  0  0  0  0  0  0  0  0  0  0  0  # atno 17320 bound_to 7965
  145.9264  140.9079  143.0378 LP  0  0  0  0  0  0  0  0  0  0  0  0  # atno 17321 bound_to 7965
  140.1979  143.3983  152.1814 LP  0  0  0  0  0  0  0  0  0  0  0  0  # atno 17342 bound_to 10162
  139.5360  144.7210  151.4892 LP  0  0  0  0  0  0  0  0  0  0  0  0  # atno 17343 bound_to 10162
  156.0156  130.3815  150.2123 LP  0  0  0  0  0  0  0  0  0  0  0  0  # atno 17370 bound_to 10713
  157.0310  131.0007  151.3312 LP  0  0  0  0  0  0  0  0  0  0  0  0  # atno 17371 bound_to 10713
  141.1623  133.8769  157.1814 LP  0  0  0  0  0  0  0  0  0  0  0  0  # atno 17394 bound_to 11000
  139.9948  135.0051  157.0057 LP  0  0  0  0  0  0  0  0  0  0  0  0  # atno 17395 bound_to 11000

$$$$
