AV-unprocessed.smi:1984|AV-procd|sdf|8040|dock10
  -GOLD-   2272010233D 1   1.00000     0.00000
 Structure written by MMmdl.
 38 39  0  0  0  0  0  0  0  0  1 V2000
  152.0349  137.9298  153.9463 C   0  0  0  0  0  0  0  0  0  0  0  0
  151.6762  139.0480  154.8798 C   0  0  0  0  0  0  0  0  0  0  0  0
  152.1150  139.2540  156.2173 C   0  0  0  0  0  0  0  0  0  0  0  0
  151.4801  140.3988  156.6091 C   0  0  0  0  0  0  0  0  0  0  0  0
  151.5267  141.1247  157.9133 C   0  0  0  0  0  0  0  0  0  0  0  0
  150.7150  140.8217  155.5361 N   0  0  0  0  0  0  0  0  0  0  0  0
  149.8211  141.9682  155.4347 C   0  0  0  0  0  0  0  0  0  0  0  0
  148.4729  141.5652  154.8315 C   0  0  0  0  0  0  0  0  0  0  0  0
  148.2675  140.3966  154.5052 O   0  0  0  0  0  0  0  0  0  0  0  0
  147.5528  142.5359  154.7191 N   0  0  0  0  0  0  0  0  0  0  0  0
  146.1499  142.3255  154.3850 C   0  0  0  0  0  0  0  0  0  0  0  0
  145.2708  142.3039  155.6519 C   0  0  2  0  0  0  0  0  0  0  0  0
  145.2529  143.6563  156.3889 C   0  0  0  0  0  0  0  0  0  0  0  0
  144.5808  143.4551  157.7509 C   0  0  0  0  0  0  0  0  0  0  0  0
  145.0707  141.7768  158.2966 S   0  0  0  0  0  0  0  0  0  0  0  0
  146.2099  141.8764  159.2215 O   0  0  0  0  0  0  0  0  0  0  0  0
  143.8650  141.0166  158.6590 O   0  0  0  0  0  0  0  0  0  0  0  0
  145.6824  141.2176  156.6626 C   0  0  0  0  0  0  0  0  0  0  0  0
  150.8435  139.9928  154.4761 N   0  0  0  0  0  0  0  0  0  0  0  0
  152.9027  137.3781  154.3083 H   0  0  0  0  0  0  0  0  0  0  0  0
  152.2736  138.3049  152.9506 H   0  0  0  0  0  0  0  0  0  0  0  0
  151.2097  137.2241  153.8487 H   0  0  0  0  0  0  0  0  0  0  0  0
  152.7906  138.6485  156.8032 H   0  0  0  0  0  0  0  0  0  0  0  0
  152.1175  140.5732  158.6449 H   0  0  0  0  0  0  0  0  0  0  0  0
  150.5258  141.2568  158.3241 H   0  0  0  0  0  0  0  0  0  0  0  0
  151.9781  142.1095  157.7921 H   0  0  0  0  0  0  0  0  0  0  0  0
  149.6677  142.4061  156.4210 H   0  0  0  0  0  0  0  0  0  0  0  0
  150.2951  142.7322  154.8166 H   0  0  0  0  0  0  0  0  0  0  0  0
  147.8179  143.4702  154.9954 H   0  0  0  0  0  0  0  0  0  0  0  0
  145.8366  143.1358  153.7262 H   0  0  0  0  0  0  0  0  0  0  0  0
  146.0322  141.4003  153.8184 H   0  0  0  0  0  0  0  0  0  0  0  0
  144.2414  142.0949  155.3560 H   0  0  0  0  0  0  0  0  0  0  0  0
  146.2779  143.9940  156.5467 H   0  0  0  0  0  0  0  0  0  0  0  0
  144.7484  144.4281  155.8069 H   0  0  0  0  0  0  0  0  0  0  0  0
  144.8779  144.1974  158.4917 H   0  0  0  0  0  0  0  0  0  0  0  0
  143.4952  143.4737  157.6516 H   0  0  0  0  0  0  0  0  0  0  0  0
  145.2676  140.2379  156.4234 H   0  0  0  0  0  0  0  0  0  0  0  0
  146.7671  141.1279  156.7263 H   0  0  0  0  0  0  0  0  0  0  0  0
  1  2  1  0  0  0  0
  1 20  1  0  0  0  0
  1 21  1  0  0  0  0
  1 22  1  0  0  0  0
  2 19  2  0  0  0  0
  2  3  1  0  0  0  0
  3  4  2  0  0  0  0
  3 23  1  0  0  0  0
  4  5  1  0  0  0  0
  4  6  1  0  0  0  0
  5 24  1  0  0  0  0
  5 25  1  0  0  0  0
  5 26  1  0  0  0  0
  6  7  1  0  0  0  0
  6 19  1  0  0  0  0
  7  8  1  0  0  0  0
  7 27  1  0  0  0  0
  7 28  1  0  0  0  0
  8  9  2  0  0  0  0
  8 10  1  0  0  0  0
 10 11  1  0  0  0  0
 10 29  1  0  0  0  0
 11 12  1  0  0  0  0
 11 30  1  0  0  0  0
 11 31  1  0  0  0  0
 12 18  1  0  0  0  0
 12 13  1  0  0  0  0
 12 32  1  0  0  0  0
 13 14  1  0  0  0  0
 13 33  1  0  0  0  0
 13 34  1  0  0  0  0
 14 15  1  0  0  0  0
 14 35  1  0  0  0  0
 14 36  1  0  0  0  0
 15 16  2  0  0  0  0
 15 17  2  0  0  0  0
 15 18  1  0  0  0  0
 18 37  1  0  0  0  0
 18 38  1  0  0  0  0
M  END
> <s_m_source_file>
AV-unprocessed.smi

> <i_m_source_file_index>
1984

> <i_lp_mmshare_version>
43012

> <i_f3d_flags>
0

> <s_epik_input>
W0NIM11jMVtjSF1jKFtDSDNdKW4objEpW0NIMl1DKD1PKVtOSF1bQ0gyXVtDQEBIXShbQ0gyXTIpW0NIMl1bQ0gyXVMyKD1PKT1P

> <s_epik_cmdline>
J2VwaWtfcHl0aG9uJywgJy1waCcsICc3LjAnLCAnLXRuJywgJzgnLCAnLW1hJywgJzIwMCcsICctbWV0YWxfYmluZGluZycsICctaW1hZScsICc8aW5maWxlLm1hZT4nLCAnLW9tYWUnLCAnPG91dGZpbGUubWFlPic=

> <r_lp_tautomer_probability>
1

> <r_epik_Ionization_Penalty>
0.000335865

> <r_epik_Ionization_Penalty_Charging>
0

> <r_epik_Ionization_Penalty_Neutral>
0.000335865

> <r_epik_State_Penalty>
-0

> <r_epik_Charging_Adjusted_Penalty>
0

> <i_epik_Tot_Q>
0

> <i_epik_Tot_abs_Q>
0

> <r_epik_Metal_State_Penalty>
-0

> <b_epik_Metal_Only>
0

> <s_lp_Force_Field>
OPLS_2005

> <r_lp_Energy>
1.39039

> <b_lp_Chiralities_Consistent>
1

> <s_lp_Variant>
AV-unprocessed.smi:1984-1

> <Gold.Version>
5.8.1

> <Gold.Id.Protein>
6NUR|6NUR_protein|mol2

> <Gold.PLP.Fitness>
37.8522

> <Gold.PLP.PLP>
-29.4673

> <Gold.PLP.part.hbond>
-3.0000

> <Gold.PLP.part.metal>
0.0000

> <Gold.PLP.part.buried>
-2.0463

> <Gold.PLP.part.nonpolar>
-24.3482

> <Gold.PLP.part.repulsive>
0.3442

> <Gold.PLP.ligand.clash>
0.0000

> <Gold.PLP.ligand.torsion>
0.3110

> <Gold.PLP.Chemscore.Hbond>
3.0000

> <Gold.PLP.Chemscore.CHOScore>
0.0000

> <Gold.PLP.Chemscore.Metal>
0.0000

> <Gold.Chemscore.Hbonds>
donor molecule, donor type, donor heavy atom, donor atom, acceptor molecule, acceptor atom, score
      L1  H    10    29       P1  8028  1.00
      P1  H  6934  6946       L1    16  0.98
      P1  H  7989  7998       L1    19  1.00

> <Gold.PLP.Chemscore.Internal.Correction>
0.0070

> <Gold.Rescore>
     Score         DG    S(hbond)    S(metal)    S(lipo)     H(rot)  DE(clash)    DE(int)     intcor
     14.48     -16.33       2.73        0.00      51.55       1.68       0.12       1.73       ----

> <Gold.Chemscore.Fitness>
14.4804

> <Gold.Chemscore.DG>
-16.3286

> <Gold.Chemscore.ZeroCoef>
-5.4800

> <Gold.Chemscore.Hbond>
2.7297

> <Gold.Chemscore.Metal>
0.0000

> <Gold.Chemscore.Lipo>
51.5456

> <Gold.Chemscore.Internal_Hbond>
0.0000

> <Gold.Chemscore.DEClash>
0.1166

> <Gold.Chemscore.DEInternal>
1.7316

> <Gold.Chemscore.Rot>
1.6795

> <Gold.Chemscore.Internal.Correction>
   9.000000E+99

> <Gold.Chemscore.Hbonds>
donor molecule, donor type, donor heavy atom, donor atom, acceptor molecule, acceptor atom, score
      L1  H    10    29       P1  8028  0.44
      P1  H  6934  6946       L1    16  0.93
      P1  H  7989  7998       L1    19  0.18

> <Gold.Chemscore.Hbond.Weighted>
-9.1172

> <Gold.Chemscore.Metal.Weighted>
-0.0000

> <Gold.Chemscore.Lipo.Weighted>
-6.0308

> <Gold.Chemscore.Internal_Hbond.Weighted>
0.0000

> <Gold.Chemscore.DEClash.Weighted>
0.1166

> <Gold.Chemscore.DEInternal.Weighted>
1.7316

> <Gold.Chemscore.Rot.Weighted>
4.2995

> <Gold.Chemscore.Internal.Correction.Weighted>
   9.000000E+99

> <Gold.Protein.RotatedTorsions>
[ 6907 6896 6895 6894 ] final  -55.35 input  -60.11 | X-H torsion
[ 7974 7965 7964 7962 ] final  -20.58 input  175.53 | X-H torsion
[ 8008 7997 7996 7995 ] final  119.51 input   59.86 | X-H torsion
[ 10167 10162 10161 10158 ] final -176.75 input  -65.29 | X-H torsion
[ 10718 10713 10712 10709 ] final  134.37 input   66.30 | X-H torsion
[ 10763 10752 10751 10750 ] final  -73.72 input  -60.55 | X-H torsion
[ 11005 11000 10999 10996 ] final  173.04 input  -57.11 | X-H torsion

> <Gold.Protein.ActiveResidues>
 VAL166  LYS551  ARG553  GLY616  TRP617  ASP618  TYR619  PRO620  LYS621  CYS622 
 ASP623  PHE694  ASN695  SER759  ASP760  ASP761  ALA762  ILE779  LEU786  VAL792 
 PHE793  MET794  SER795  GLU796  ALA797  LYS798  CYS799  TRP800  GLU811  SER814 

> <Gold.Protein.RotatedAtoms>
  150.8259  134.7490  159.6812 H   0  0  0  0  0  0  0  0  0  0  0  0  # atno 6907 bound_to 6896
  152.4370  134.5664  159.9918 H   0  0  0  0  0  0  0  0  0  0  0  0  # atno 6908 bound_to 6896
  151.5836  133.3337  159.3049 H   0  0  0  0  0  0  0  0  0  0  0  0  # atno 6909 bound_to 6896
  146.1780  140.4222  142.8506 H   0  0  0  0  0  0  0  0  0  0  0  0  # atno 7974 bound_to 7965
  156.2599  140.2851  156.1003 H   0  0  0  0  0  0  0  0  0  0  0  0  # atno 8008 bound_to 7997
  155.1367  140.0395  157.2806 H   0  0  0  0  0  0  0  0  0  0  0  0  # atno 8009 bound_to 7997
  154.6559  140.2555  155.7168 H   0  0  0  0  0  0  0  0  0  0  0  0  # atno 8010 bound_to 7997
  139.5514  144.2100  152.1083 H   0  0  0  0  0  0  0  0  0  0  0  0  # atno 10167 bound_to 10162
  157.4680  131.1078  150.9838 H   0  0  0  0  0  0  0  0  0  0  0  0  # atno 10718 bound_to 10713
  154.4633  135.5888  153.6271 H   0  0  0  0  0  0  0  0  0  0  0  0  # atno 10763 bound_to 10752
  152.9826  135.6049  154.3459 H   0  0  0  0  0  0  0  0  0  0  0  0  # atno 10764 bound_to 10752
  154.3333  135.2842  155.2439 H   0  0  0  0  0  0  0  0  0  0  0  0  # atno 10765 bound_to 10752
  140.3362  134.7315  157.4170 H   0  0  0  0  0  0  0  0  0  0  0  0  # atno 11005 bound_to 11000
  144.8268  140.6641  143.6317 LP  0  0  0  0  0  0  0  0  0  0  0  0  # atno 17320 bound_to 7965
  145.4157  139.1572  143.4101 LP  0  0  0  0  0  0  0  0  0  0  0  0  # atno 17321 bound_to 7965
  140.1596  144.5038  150.6640 LP  0  0  0  0  0  0  0  0  0  0  0  0  # atno 17342 bound_to 10162
  140.6777  143.2312  151.5465 LP  0  0  0  0  0  0  0  0  0  0  0  0  # atno 17343 bound_to 10162
  157.0613  130.5826  149.5386 LP  0  0  0  0  0  0  0  0  0  0  0  0  # atno 17370 bound_to 10713
  156.0059  130.5146  150.7829 LP  0  0  0  0  0  0  0  0  0  0  0  0  # atno 17371 bound_to 10713
  140.0819  134.5719  155.8532 LP  0  0  0  0  0  0  0  0  0  0  0  0  # atno 17394 bound_to 11000
  141.2050  133.6644  156.6158 LP  0  0  0  0  0  0  0  0  0  0  0  0  # atno 17395 bound_to 11000

$$$$
