AV-unprocessed.smi:3149|AV-procd|sdf|12002|dock1
  -GOLD-   2272017403D 1   1.00000     0.00000
 Structure written by MMmdl.
 38 39  0  0  0  0  0  0  0  0  2 V2000
  149.1687  141.4591  156.2903 C   0  0  0  0  0  0  0  0  0  0  0  0
  150.5731  142.0838  156.4008 C   0  0  1  0  0  0  0  0  0  0  0  0
  150.5006  143.3621  157.1472 N   0  3  0  0  0  0  0  0  0  0  0  0
  151.8004  143.9917  157.4597 C   0  0  0  0  0  0  0  0  0  0  0  0
  151.7311  144.7952  158.7616 C   0  0  0  0  0  0  0  0  0  0  0  0
  151.1073  145.8559  158.8109 O   0  0  0  0  0  0  0  0  0  0  0  0
  152.3169  144.2311  159.8966 N   0  0  0  0  0  0  0  0  0  0  0  0
  152.2730  142.7974  160.1427 C   0  0  0  0  0  0  0  0  0  0  0  0
  152.2914  143.1619  161.6307 C   0  0  0  0  0  0  0  0  0  0  0  0
  151.8527  144.5751  161.2324 C   0  0  0  0  0  0  0  0  0  0  0  0
  151.5939  141.1318  157.0833 C   0  0  1  0  0  0  0  0  0  0  0  0
  151.1017  140.5801  158.4343 C   0  0  0  0  0  0  0  0  0  0  0  0
  151.9657  140.0199  156.2141 N   0  0  0  0  0  0  0  0  0  0  0  0
  151.1388  139.2283  155.4433 C   0  0  0  0  0  0  0  0  0  0  0  0
  151.9292  138.3309  154.7845 C   0  0  0  0  0  0  0  0  0  0  0  0
  153.2453  138.6622  155.2101 C   0  0  0  0  0  0  0  0  0  0  0  0
  153.2647  139.6755  156.0605 N   0  0  0  0  0  0  0  0  0  0  0  0
  149.1761  140.5571  155.6794 H   0  0  0  0  0  0  0  0  0  0  0  0
  148.4594  142.1412  155.8224 H   0  0  0  0  0  0  0  0  0  0  0  0
  148.7741  141.1939  157.2718 H   0  0  0  0  0  0  0  0  0  0  0  0
  150.9318  142.2997  155.3931 H   0  0  0  0  0  0  0  0  0  0  0  0
  149.9219  144.0157  156.6398 H   0  0  0  0  0  0  0  0  0  0  0  0
  152.5655  143.2220  157.5673 H   0  0  0  0  0  0  0  0  0  0  0  0
  152.0983  144.6444  156.6393 H   0  0  0  0  0  0  0  0  0  0  0  0
  151.3388  142.3273  159.8285 H   0  0  0  0  0  0  0  0  0  0  0  0
  153.1555  142.2580  159.7971 H   0  0  0  0  0  0  0  0  0  0  0  0
  151.5621  142.6196  162.2335 H   0  0  0  0  0  0  0  0  0  0  0  0
  153.2890  143.1269  162.0728 H   0  0  0  0  0  0  0  0  0  0  0  0
  152.4192  145.3782  161.7053 H   0  0  0  0  0  0  0  0  0  0  0  0
  150.7729  144.7241  161.2982 H   0  0  0  0  0  0  0  0  0  0  0  0
  152.5071  141.6982  157.2737 H   0  0  0  0  0  0  0  0  0  0  0  0
  150.9794  141.3696  159.1750 H   0  0  0  0  0  0  0  0  0  0  0  0
  151.8158  139.8671  158.8480 H   0  0  0  0  0  0  0  0  0  0  0  0
  150.1454  140.0664  158.3302 H   0  0  0  0  0  0  0  0  0  0  0  0
  150.0676  139.3664  155.4279 H   0  0  0  0  0  0  0  0  0  0  0  0
  151.6152  137.5589  154.0976 H   0  0  0  0  0  0  0  0  0  0  0  0
  154.1802  138.2019  154.9262 H   0  0  0  0  0  0  0  0  0  0  0  0
  150.0563  143.1667  158.0336 H   0  0  0  0  0  0  0  0  0  0  0  0
  1  2  1  0  0  0  0
  1 18  1  0  0  0  0
  1 19  1  0  0  0  0
  1 20  1  0  0  0  0
  2  3  1  0  0  0  0
  2 11  1  0  0  0  0
  2 21  1  0  0  0  0
  3  4  1  0  0  0  0
  3 22  1  0  0  0  0
  3 38  1  0  0  0  0
  4  5  1  0  0  0  0
  4 23  1  0  0  0  0
  4 24  1  0  0  0  0
  5  6  2  0  0  0  0
  5  7  1  0  0  0  0
  7 10  1  0  0  0  0
  7  8  1  0  0  0  0
  8  9  1  0  0  0  0
  8 25  1  0  0  0  0
  8 26  1  0  0  0  0
  9 10  1  0  0  0  0
  9 27  1  0  0  0  0
  9 28  1  0  0  0  0
 10 29  1  0  0  0  0
 10 30  1  0  0  0  0
 11 12  1  0  0  0  0
 11 13  1  0  0  0  0
 11 31  1  0  0  0  0
 12 32  1  0  0  0  0
 12 33  1  0  0  0  0
 12 34  1  0  0  0  0
 13 17  1  0  0  0  0
 13 14  1  0  0  0  0
 14 15  2  0  0  0  0
 14 35  1  0  0  0  0
 15 16  1  0  0  0  0
 15 36  1  0  0  0  0
 16 17  2  0  0  0  0
 16 37  1  0  0  0  0
M  CHG  1   3   1
M  END
> <s_m_source_file>
AV-unprocessed.smi

> <i_m_source_file_index>
3149

> <i_lp_mmshare_version>
43012

> <i_f3d_flags>
0

> <s_epik_input>
bjFbY0hdW2NIXVtjSF1uMVtDQEBIXShbQ0gzXSlbQ0BIXShbQ0gzXSlbTkhdW0NIMl1DKD1PKU4yW0NIMl1bQ0gyXVtDSDJdMg==

> <s_epik_cmdline>
J2VwaWtfcHl0aG9uJywgJy1waCcsICc3LjAnLCAnLXRuJywgJzgnLCAnLW1hJywgJzIwMCcsICctbWV0YWxfYmluZGluZycsICctaW1hZScsICc8aW5maWxlLm1hZT4nLCAnLW9tYWUnLCAnPG91dGZpbGUubWFlPic=

> <r_lp_tautomer_probability>
1

> <r_epik_Ionization_Penalty>
0.141739

> <r_epik_Ionization_Penalty_Charging>
0.141731

> <r_epik_Ionization_Penalty_Neutral>
8.82171e-06

> <r_epik_State_Penalty>
0.131043

> <r_epik_Charging_Adjusted_Penalty>
0.272773

> <i_epik_Tot_Q>
1

> <i_epik_Tot_abs_Q>
1

> <r_epik_Metal_State_Penalty>
0.131384

> <b_epik_Metal_Only>
0

> <s_lp_Force_Field>
OPLS_2005

> <r_lp_Energy>
20.424

> <b_lp_Chiralities_Consistent>
1

> <s_lp_Variant>
AV-unprocessed.smi:3149-4

> <Gold.Version>
5.8.1

> <Gold.Id.Protein>
6NUR|6NUR_protein|mol2

> <Gold.PLP.Fitness>
54.7645

> <Gold.PLP.PLP>
-47.4865

> <Gold.PLP.part.hbond>
-2.8370

> <Gold.PLP.part.metal>
0.0000

> <Gold.PLP.part.buried>
-4.5353

> <Gold.PLP.part.nonpolar>
-38.5781

> <Gold.PLP.part.repulsive>
0.1583

> <Gold.PLP.ligand.clash>
0.0000

> <Gold.PLP.ligand.torsion>
1.4032

> <Gold.PLP.Chemscore.Hbond>
3.0000

> <Gold.PLP.Chemscore.CHOScore>
0.0000

> <Gold.PLP.Chemscore.Metal>
0.0000

> <Gold.Chemscore.Hbonds>
donor molecule, donor type, donor heavy atom, donor atom, acceptor molecule, acceptor atom, score
      L1  H     3    22       P1  8028  2.00
      P1  H  7997  8009       L1    17  0.41

> <Gold.PLP.Chemscore.Internal.Correction>
1.0844

> <Gold.Rescore>
     Score         DG    S(hbond)    S(metal)    S(lipo)     H(rot)  DE(clash)    DE(int)     intcor
     17.35     -18.16       1.99        0.00      92.06       1.85       0.01       0.80       ----

> <Gold.Chemscore.Fitness>
17.3475

> <Gold.Chemscore.DG>
-18.1568

> <Gold.Chemscore.ZeroCoef>
-5.4800

> <Gold.Chemscore.Hbond>
1.9919

> <Gold.Chemscore.Metal>
0.0000

> <Gold.Chemscore.Lipo>
92.0614

> <Gold.Chemscore.Internal_Hbond>
0.0000

> <Gold.Chemscore.DEClash>
0.0076

> <Gold.Chemscore.DEInternal>
0.8017

> <Gold.Chemscore.Rot>
1.8544

> <Gold.Chemscore.Internal.Correction>
   9.000000E+99

> <Gold.Chemscore.Hbonds>
donor molecule, donor type, donor heavy atom, donor atom, acceptor molecule, acceptor atom, score
      L1  H     3    22       P1  8028  0.97
      P1  H  7997  8009       L1    17  0.14

> <Gold.Chemscore.Hbond.Weighted>
-6.6528

> <Gold.Chemscore.Metal.Weighted>
-0.0000

> <Gold.Chemscore.Lipo.Weighted>
-10.7712

> <Gold.Chemscore.Internal_Hbond.Weighted>
0.0000

> <Gold.Chemscore.DEClash.Weighted>
0.0076

> <Gold.Chemscore.DEInternal.Weighted>
0.8017

> <Gold.Chemscore.Rot.Weighted>
4.7472

> <Gold.Chemscore.Internal.Correction.Weighted>
   9.000000E+99

> <Gold.Protein.RotatedTorsions>
[ 6907 6896 6895 6894 ] final  137.85 input  -60.11 | X-H torsion
[ 7974 7965 7964 7962 ] final   33.12 input  175.53 | X-H torsion
[ 8008 7997 7996 7995 ] final -129.86 input   59.86 | X-H torsion
[ 10167 10162 10161 10158 ] final  132.44 input  -65.29 | X-H torsion
[ 10718 10713 10712 10709 ] final  167.44 input   66.30 | X-H torsion
[ 10763 10752 10751 10750 ] final   93.33 input  -60.55 | X-H torsion
[ 11005 11000 10999 10996 ] final   49.17 input  -57.11 | X-H torsion

> <Gold.Protein.ActiveResidues>
 VAL166  LYS551  ARG553  GLY616  TRP617  ASP618  TYR619  PRO620  LYS621  CYS622 
 ASP623  PHE694  ASN695  SER759  ASP760  ASP761  ALA762  ILE779  LEU786  VAL792 
 PHE793  MET794  SER795  GLU796  ALA797  LYS798  CYS799  TRP800  GLU811  SER814 

> <Gold.Protein.RotatedAtoms>
  152.2734  133.5403  159.5452 H   0  0  0  0  0  0  0  0  0  0  0  0  # atno 6907 bound_to 6896
  150.7168  134.0666  159.3859 H   0  0  0  0  0  0  0  0  0  0  0  0  # atno 6908 bound_to 6896
  151.8580  135.0534  160.0517 H   0  0  0  0  0  0  0  0  0  0  0  0  # atno 6909 bound_to 6896
  146.1442  139.6438  142.9143 H   0  0  0  0  0  0  0  0  0  0  0  0  # atno 7974 bound_to 7965
  155.2861  140.0446  157.3019 H   0  0  0  0  0  0  0  0  0  0  0  0  # atno 8008 bound_to 7997
  154.5568  140.2334  155.8365 H   0  0  0  0  0  0  0  0  0  0  0  0  # atno 8009 bound_to 7997
  156.2014  140.3024  155.9542 H   0  0  0  0  0  0  0  0  0  0  0  0  # atno 8010 bound_to 7997
  139.5340  144.6662  151.4851 H   0  0  0  0  0  0  0  0  0  0  0  0  # atno 10167 bound_to 10162
  157.0515  131.0314  151.2679 H   0  0  0  0  0  0  0  0  0  0  0  0  # atno 10718 bound_to 10713
  153.2291  135.4329  155.0575 H   0  0  0  0  0  0  0  0  0  0  0  0  # atno 10763 bound_to 10752
  154.8288  135.3375  154.6814 H   0  0  0  0  0  0  0  0  0  0  0  0  # atno 10764 bound_to 10752
  153.7243  135.7015  153.5061 H   0  0  0  0  0  0  0  0  0  0  0  0  # atno 10765 bound_to 10752
  140.1127  134.4934  155.8664 H   0  0  0  0  0  0  0  0  0  0  0  0  # atno 11005 bound_to 11000
  145.4977  141.0438  143.2558 LP  0  0  0  0  0  0  0  0  0  0  0  0  # atno 17320 bound_to 7965
  144.7827  139.6492  143.7147 LP  0  0  0  0  0  0  0  0  0  0  0  0  # atno 17321 bound_to 7965
  140.6535  143.8647  150.6810 LP  0  0  0  0  0  0  0  0  0  0  0  0  # atno 17342 bound_to 10162
  140.2020  143.3952  152.1784 LP  0  0  0  0  0  0  0  0  0  0  0  0  # atno 17343 bound_to 10162
  157.5026  130.7889  149.7621 LP  0  0  0  0  0  0  0  0  0  0  0  0  # atno 17370 bound_to 10713
  156.0006  130.3882  150.2620 LP  0  0  0  0  0  0  0  0  0  0  0  0  # atno 17371 bound_to 10713
  141.2134  133.6733  156.6736 LP  0  0  0  0  0  0  0  0  0  0  0  0  # atno 17394 bound_to 11000
  140.3070  134.8117  157.4145 LP  0  0  0  0  0  0  0  0  0  0  0  0  # atno 17395 bound_to 11000

$$$$
