AV-unprocessed.smi:3045|AV-procd|sdf|11611|dock9
  -GOLD-   2272016593D 1   1.00000     0.00000
 Structure written by MMmdl.
 36 37  0  0  0  0  0  0  0  0  2 V2000
  151.6111  135.4144  156.7580 C   0  0  0  0  0  0  0  0  0  0  0  0
  150.1785  135.3094  156.5173 N   0  0  0  0  0  0  0  0  0  0  0  0
  149.6216  135.5275  155.1936 C   0  0  0  0  0  0  0  0  0  0  0  0
  148.1261  135.1586  155.3066 C   0  0  1  0  0  0  0  0  0  0  0  0
  147.7832  133.8763  154.5319 C   0  0  0  0  0  0  0  0  0  0  0  0
  147.3248  132.8973  155.1225 O   0  0  0  0  0  0  0  0  0  0  0  0
  148.0131  133.8938  153.2098 N   0  0  0  0  0  0  0  0  0  0  0  0
  147.7440  132.7856  152.3015 C   0  0  0  0  0  0  0  0  0  0  0  0
  146.3304  132.2129  152.5012 C   0  0  0  0  0  0  0  0  0  0  0  0
  145.4545  132.4156  151.2804 C   0  0  0  0  0  0  0  0  0  0  0  0
  145.8384  131.8847  150.0289 C   0  0  0  0  0  0  0  0  0  0  0  0
  145.0048  132.0820  148.9083 C   0  0  0  0  0  0  0  0  0  0  0  0
  143.8062  132.8079  149.0645 C   0  0  0  0  0  0  0  0  0  0  0  0
  143.4724  133.3019  150.2770 N   0  3  0  0  0  0  0  0  0  0  0  0
  144.2426  133.1336  151.3745 C   0  0  0  0  0  0  0  0  0  0  0  0
  147.8635  134.9981  156.8186 C   0  0  0  0  0  0  0  0  0  0  0  0
  149.2491  135.0483  157.4406 C   0  0  0  0  0  0  0  0  0  0  0  0
  149.4508  134.8594  158.6390 O   0  0  0  0  0  0  0  0  0  0  0  0
  151.8215  136.1999  157.4846 H   0  0  0  0  0  0  0  0  0  0  0  0
  152.1479  135.6513  155.8390 H   0  0  0  0  0  0  0  0  0  0  0  0
  152.0025  134.4732  157.1456 H   0  0  0  0  0  0  0  0  0  0  0  0
  149.7422  136.5764  154.9193 H   0  0  0  0  0  0  0  0  0  0  0  0
  150.1548  134.9298  154.4522 H   0  0  0  0  0  0  0  0  0  0  0  0
  147.5210  135.9797  154.9177 H   0  0  0  0  0  0  0  0  0  0  0  0
  148.3903  134.7385  152.8042 H   0  0  0  0  0  0  0  0  0  0  0  0
  147.8836  133.1145  151.2702 H   0  0  0  0  0  0  0  0  0  0  0  0
  148.4880  132.0096  152.4834 H   0  0  0  0  0  0  0  0  0  0  0  0
  146.3874  131.1483  152.7326 H   0  0  0  0  0  0  0  0  0  0  0  0
  145.8441  132.6860  153.3553 H   0  0  0  0  0  0  0  0  0  0  0  0
  146.7599  131.3293  149.9291 H   0  0  0  0  0  0  0  0  0  0  0  0
  145.2810  131.6815  147.9437 H   0  0  0  0  0  0  0  0  0  0  0  0
  143.1096  133.0060  148.2628 H   0  0  0  0  0  0  0  0  0  0  0  0
  143.8674  133.5745  152.2867 H   0  0  0  0  0  0  0  0  0  0  0  0
  147.2629  135.8225  157.2038 H   0  0  0  0  0  0  0  0  0  0  0  0
  147.3619  134.0653  157.0819 H   0  0  0  0  0  0  0  0  0  0  0  0
  142.6006  133.8246  150.3681 H   0  0  0  0  0  0  0  0  0  0  0  0
  1  2  1  0  0  0  0
  1 19  1  0  0  0  0
  1 20  1  0  0  0  0
  1 21  1  0  0  0  0
  2 17  1  0  0  0  0
  2  3  1  0  0  0  0
  3  4  1  0  0  0  0
  3 22  1  0  0  0  0
  3 23  1  0  0  0  0
  4  5  1  0  0  0  0
  4 16  1  0  0  0  0
  4 24  1  0  0  0  0
  5  6  2  0  0  0  0
  5  7  1  0  0  0  0
  7  8  1  0  0  0  0
  7 25  1  0  0  0  0
  8  9  1  0  0  0  0
  8 26  1  0  0  0  0
  8 27  1  0  0  0  0
  9 10  1  0  0  0  0
  9 28  1  0  0  0  0
  9 29  1  0  0  0  0
 10 15  1  0  0  0  0
 10 11  2  0  0  0  0
 11 12  1  0  0  0  0
 11 30  1  0  0  0  0
 12 13  2  0  0  0  0
 12 31  1  0  0  0  0
 13 14  1  0  0  0  0
 13 32  1  0  0  0  0
 14 15  2  0  0  0  0
 14 36  1  0  0  0  0
 15 33  1  0  0  0  0
 16 17  1  0  0  0  0
 16 34  1  0  0  0  0
 16 35  1  0  0  0  0
 17 18  2  0  0  0  0
M  CHG  1  14   1
M  END
> <s_m_source_file>
AV-unprocessed.smi

> <i_m_source_file_index>
3045

> <i_lp_mmshare_version>
43012

> <i_f3d_flags>
0

> <s_epik_input>
W0NIM11OMVtDSDJdW0NASF0oW0NIMl1DMT1PKUMoPU8pW05IXVtDSDJdW0NIMl1jMltjSF1bY0hdW2NIXW5bY0hdMg==

> <s_epik_cmdline>
J2VwaWtfcHl0aG9uJywgJy1waCcsICc3LjAnLCAnLXRuJywgJzgnLCAnLW1hJywgJzIwMCcsICctbWV0YWxfYmluZGluZycsICctaW1hZScsICc8aW5maWxlLm1hZT4nLCAnLW9tYWUnLCAnPG91dGZpbGUubWFlPic=

> <r_epik_Ionization_Penalty>
2.26523

> <r_epik_Ionization_Penalty_Charging>
2.26523

> <r_epik_Ionization_Penalty_Neutral>
2.92809e-08

> <r_epik_State_Penalty>
2.41338

> <r_epik_Charging_Adjusted_Penalty>
4.67861

> <i_epik_Tot_Q>
1

> <i_epik_Tot_abs_Q>
1

> <r_epik_Metal_State_Penalty>
2.42626

> <b_epik_Metal_Only>
0

> <s_lp_Force_Field>
OPLS_2005

> <r_lp_Energy>
17.4677

> <b_lp_Chiralities_Consistent>
1

> <s_lp_Variant>
AV-unprocessed.smi:3045-3

> <Gold.Version>
5.8.1

> <Gold.Id.Protein>
6NUR|6NUR_protein|mol2

> <Gold.PLP.Fitness>
37.7107

> <Gold.PLP.PLP>
-26.5697

> <Gold.PLP.part.hbond>
-3.0000

> <Gold.PLP.part.metal>
0.0000

> <Gold.PLP.part.buried>
-1.8091

> <Gold.PLP.part.nonpolar>
-21.5322

> <Gold.PLP.part.repulsive>
0.0474

> <Gold.PLP.ligand.clash>
0.0000

> <Gold.PLP.ligand.torsion>
0.4340

> <Gold.PLP.Chemscore.Hbond>
4.0000

> <Gold.PLP.Chemscore.CHOScore>
0.0000

> <Gold.PLP.Chemscore.Metal>
0.0000

> <Gold.Chemscore.Hbonds>
donor molecule, donor type, donor heavy atom, donor atom, acceptor molecule, acceptor atom, score
      L1  H     7    25       P1  7948  1.00
      L1  H    14    36       P1 10186  1.92
      P1  H  6896  6907       L1    18  1.00

> <Gold.PLP.Chemscore.Internal.Correction>
0.0090

> <Gold.Rescore>
     Score         DG    S(hbond)    S(metal)    S(lipo)     H(rot)  DE(clash)    DE(int)     intcor
     17.60     -19.52       2.89        0.00      75.04       1.71       0.30       1.62       ----

> <Gold.Chemscore.Fitness>
17.5994

> <Gold.Chemscore.DG>
-19.5207

> <Gold.Chemscore.ZeroCoef>
-5.4800

> <Gold.Chemscore.Hbond>
2.8860

> <Gold.Chemscore.Metal>
0.0000

> <Gold.Chemscore.Lipo>
75.0443

> <Gold.Chemscore.Internal_Hbond>
0.0000

> <Gold.Chemscore.DEClash>
0.3043

> <Gold.Chemscore.DEInternal>
1.6169

> <Gold.Chemscore.Rot>
1.7105

> <Gold.Chemscore.Internal.Correction>
   9.000000E+99

> <Gold.Chemscore.Hbonds>
donor molecule, donor type, donor heavy atom, donor atom, acceptor molecule, acceptor atom, score
      L1  H     7    25       P1  7948  0.45
      L1  H    14    36       P1 10186  0.90
      P1  H  6896  6907       L1    18  0.95

> <Gold.Chemscore.Hbond.Weighted>
-9.6394

> <Gold.Chemscore.Metal.Weighted>
-0.0000

> <Gold.Chemscore.Lipo.Weighted>
-8.7802

> <Gold.Chemscore.Internal_Hbond.Weighted>
0.0000

> <Gold.Chemscore.DEClash.Weighted>
0.3043

> <Gold.Chemscore.DEInternal.Weighted>
1.6169

> <Gold.Chemscore.Rot.Weighted>
4.3789

> <Gold.Chemscore.Internal.Correction.Weighted>
   9.000000E+99

> <Gold.Protein.RotatedTorsions>
[ 6907 6896 6895 6894 ] final  -94.37 input  -60.11 | X-H torsion
[ 7974 7965 7964 7962 ] final  -49.30 input  175.53 | X-H torsion
[ 8008 7997 7996 7995 ] final -137.54 input   59.86 | X-H torsion
[ 10167 10162 10161 10158 ] final  -58.01 input  -65.29 | X-H torsion
[ 10718 10713 10712 10709 ] final  143.94 input   66.30 | X-H torsion
[ 10763 10752 10751 10750 ] final  179.57 input  -60.55 | X-H torsion
[ 11005 11000 10999 10996 ] final  -23.83 input  -57.11 | X-H torsion

> <Gold.Protein.ActiveResidues>
 VAL166  LYS551  ARG553  GLY616  TRP617  ASP618  TYR619  PRO620  LYS621  CYS622 
 ASP623  PHE694  ASN695  SER759  ASP760  ASP761  ALA762  ILE779  LEU786  VAL792 
 PHE793  MET794  SER795  GLU796  ALA797  LYS798  CYS799  TRP800  GLU811  SER814 

> <Gold.Protein.RotatedAtoms>
  150.6940  134.1822  159.4252 H   0  0  0  0  0  0  0  0  0  0  0  0  # atno 6907 bound_to 6896
  151.9796  135.0033  160.0566 H   0  0  0  0  0  0  0  0  0  0  0  0  # atno 6908 bound_to 6896
  152.1767  133.4645  159.4974 H   0  0  0  0  0  0  0  0  0  0  0  0  # atno 6909 bound_to 6896
  145.9420  140.7653  142.9547 H   0  0  0  0  0  0  0  0  0  0  0  0  # atno 7974 bound_to 7965
  155.4135  140.0514  157.3030 H   0  0  0  0  0  0  0  0  0  0  0  0  # atno 8008 bound_to 7997
  154.4935  140.2129  155.9456 H   0  0  0  0  0  0  0  0  0  0  0  0  # atno 8009 bound_to 7997
  156.1375  140.3160  155.8448 H   0  0  0  0  0  0  0  0  0  0  0  0  # atno 8010 bound_to 7997
  140.6224  143.2424  151.5449 H   0  0  0  0  0  0  0  0  0  0  0  0  # atno 10167 bound_to 10162
  157.3630  131.0968  151.0898 H   0  0  0  0  0  0  0  0  0  0  0  0  # atno 10718 bound_to 10713
  154.5224  135.2794  155.1251 H   0  0  0  0  0  0  0  0  0  0  0  0  # atno 10763 bound_to 10752
  154.2804  135.6286  153.5348 H   0  0  0  0  0  0  0  0  0  0  0  0  # atno 10764 bound_to 10752
  152.9939  135.5650  154.5716 H   0  0  0  0  0  0  0  0  0  0  0  0  # atno 10765 bound_to 10752
  140.8788  133.7668  156.0277 H   0  0  0  0  0  0  0  0  0  0  0  0  # atno 11005 bound_to 11000
  144.6781  140.2296  143.7357 LP  0  0  0  0  0  0  0  0  0  0  0  0  # atno 17320 bound_to 7965
  145.8286  139.2076  143.1896 LP  0  0  0  0  0  0  0  0  0  0  0  0  # atno 17321 bound_to 7965
  139.5450  144.2546  152.1424 LP  0  0  0  0  0  0  0  0  0  0  0  0  # atno 17342 bound_to 10162
  140.1769  144.4882  150.6549 LP  0  0  0  0  0  0  0  0  0  0  0  0  # atno 17343 bound_to 10162
  157.2031  130.6403  149.5746 LP  0  0  0  0  0  0  0  0  0  0  0  0  # atno 17370 bound_to 10713
  155.9741  130.4684  150.6360 LP  0  0  0  0  0  0  0  0  0  0  0  0  # atno 17371 bound_to 10713
  140.8485  134.2982  157.5285 LP  0  0  0  0  0  0  0  0  0  0  0  0  # atno 17394 bound_to 11000
  139.8718  134.9455  156.3912 LP  0  0  0  0  0  0  0  0  0  0  0  0  # atno 17395 bound_to 11000

$$$$
