AV-unprocessed.smi:1718|AV-procd|sdf|6926|dock3
  -GOLD-   22720 8133D 1   1.00000     0.00000
 Structure written by MMmdl.
 39 40  0  0  0  0  0  0  0  0  2 V2000
  148.9565  141.4867  163.4926 C   0  0  0  0  0  0  0  0  0  0  0  0
  148.2443  141.6321  162.1391 C   0  0  2  0  0  0  0  0  0  0  0  0
  147.8729  140.3253  161.7079 O   0  0  0  0  0  0  0  0  0  0  0  0
  146.8501  139.6924  162.4713 C   0  0  0  0  0  0  0  0  0  0  0  0
  146.5530  138.3068  161.8824 C   0  0  2  0  0  0  0  0  0  0  0  0
  145.5529  137.4569  162.6815 C   0  0  0  0  0  0  0  0  0  0  0  0
  146.2450  136.1101  162.8244 C   0  0  0  0  0  0  0  0  0  0  0  0
  147.3581  136.1688  161.7846 C   0  0  0  0  0  0  0  0  0  0  0  0
  147.7430  137.5326  161.8060 O   0  0  0  0  0  0  0  0  0  0  0  0
  149.1482  142.3061  161.0934 C   0  0  0  0  0  0  0  0  0  0  0  0
  149.6864  143.3799  161.3614 O   0  0  0  0  0  0  0  0  0  0  0  0
  149.3024  141.6202  159.9436 N   0  0  0  0  0  0  0  0  0  0  0  0
  150.0695  141.9238  158.8056 C   0  0  0  0  0  0  0  0  0  0  0  0
  151.4252  142.0544  158.7860 C   0  0  0  0  0  0  0  0  0  0  0  0
  152.1605  142.3751  157.5689 C   0  0  0  0  0  0  0  0  0  0  0  0
  153.6759  142.4268  157.4880 C   0  0  0  0  0  0  0  0  0  0  0  0
  154.1379  141.5598  156.5865 F   0  0  0  0  0  0  0  0  0  0  0  0
  154.0694  143.6480  157.1291 F   0  0  0  0  0  0  0  0  0  0  0  0
  154.2283  142.1415  158.6673 F   0  0  0  0  0  0  0  0  0  0  0  0
  151.3287  142.5160  156.4752 C   0  0  0  0  0  0  0  0  0  0  0  0
  149.9818  142.4320  156.4144 N   0  5  0  0  0  0  0  0  0  0  0  0
  149.3046  142.1297  157.5578 C   0  0  0  0  0  0  0  0  0  0  0  0
  148.0772  142.0271  157.5708 O   0  0  0  0  0  0  0  0  0  0  0  0
  149.2876  142.4539  163.8728 H   0  0  0  0  0  0  0  0  0  0  0  0
  149.8294  140.8367  163.4201 H   0  0  0  0  0  0  0  0  0  0  0  0
  148.2863  141.0534  164.2351 H   0  0  0  0  0  0  0  0  0  0  0  0
  147.3442  142.2309  162.2920 H   0  0  0  0  0  0  0  0  0  0  0  0
  147.1761  139.5864  163.5068 H   0  0  0  0  0  0  0  0  0  0  0  0
  145.9355  140.2860  162.4767 H   0  0  0  0  0  0  0  0  0  0  0  0
  146.1791  138.4246  160.8639 H   0  0  0  0  0  0  0  0  0  0  0  0
  145.3221  137.8800  163.6598 H   0  0  0  0  0  0  0  0  0  0  0  0
  144.6146  137.3616  162.1340 H   0  0  0  0  0  0  0  0  0  0  0  0
  146.6791  136.0245  163.8215 H   0  0  0  0  0  0  0  0  0  0  0  0
  145.5712  135.2659  162.6750 H   0  0  0  0  0  0  0  0  0  0  0  0
  148.1935  135.5096  162.0224 H   0  0  0  0  0  0  0  0  0  0  0  0
  146.9825  135.9090  160.7936 H   0  0  0  0  0  0  0  0  0  0  0  0
  148.8324  140.7278  159.8951 H   0  0  0  0  0  0  0  0  0  0  0  0
  152.0086  141.9384  159.6836 H   0  0  0  0  0  0  0  0  0  0  0  0
  151.8205  142.7213  155.5005 H   0  0  0  0  0  0  0  0  0  0  0  0
  1  2  1  0  0  0  0
  1 24  1  0  0  0  0
  1 25  1  0  0  0  0
  1 26  1  0  0  0  0
  2  3  1  0  0  0  0
  2 10  1  0  0  0  0
  2 27  1  0  0  0  0
  3  4  1  0  0  0  0
  4  5  1  0  0  0  0
  4 28  1  0  0  0  0
  4 29  1  0  0  0  0
  5  9  1  0  0  0  0
  5  6  1  0  0  0  0
  5 30  1  0  0  0  0
  6  7  1  0  0  0  0
  6 31  1  0  0  0  0
  6 32  1  0  0  0  0
  7  8  1  0  0  0  0
  7 33  1  0  0  0  0
  7 34  1  0  0  0  0
  8  9  1  0  0  0  0
  8 35  1  0  0  0  0
  8 36  1  0  0  0  0
 10 11  2  0  0  0  0
 10 12  1  0  0  0  0
 12 13  1  0  0  0  0
 12 37  1  0  0  0  0
 13 22  1  0  0  0  0
 13 14  2  0  0  0  0
 14 15  1  0  0  0  0
 14 38  1  0  0  0  0
 15 16  1  0  0  0  0
 15 20  2  0  0  0  0
 16 17  1  0  0  0  0
 16 18  1  0  0  0  0
 16 19  1  0  0  0  0
 20 21  1  0  0  0  0
 20 39  1  0  0  0  0
 21 22  1  0  0  0  0
 22 23  2  0  0  0  0
M  CHG  1  21  -1
M  END
> <s_m_source_file>
AV-unprocessed.smi

> <i_m_source_file_index>
1718

> <i_lp_mmshare_version>
43012

> <i_f3d_flags>
0

> <s_epik_input>
TzFbQ0gyXVtDSDJdW0NIMl1bQ0BIXTFbQ0gyXU9bQ0BASF0oW0NIM10pQyg9TylbTkhdYzJbY0hdYyhDKEYpKEYpRilbY0hdW25IXWMyPU8=

> <s_epik_cmdline>
J2VwaWtfcHl0aG9uJywgJy1waCcsICc3LjAnLCAnLXRuJywgJzgnLCAnLW1hJywgJzIwMCcsICctbWV0YWxfYmluZGluZycsICctaW1hZScsICc8aW5maWxlLm1hZT4nLCAnLW9tYWUnLCAnPG91dGZpbGUubWFlPic=

> <r_epik_Ionization_Penalty>
2.5466

> <r_epik_Ionization_Penalty_Charging>
0.0575837

> <r_epik_Ionization_Penalty_Neutral>
2.48901

> <r_epik_State_Penalty>
2.6532

> <r_epik_Charging_Adjusted_Penalty>
2.71078

> <i_epik_Tot_Q>
-1

> <i_epik_Tot_abs_Q>
1

> <r_epik_Metal_State_Penalty>
0.516196

> <b_epik_Metal_Only>
0

> <s_lp_Force_Field>
OPLS_2005

> <r_lp_Energy>
37.3435

> <b_lp_Chiralities_Consistent>
1

> <s_lp_Variant>
AV-unprocessed.smi:1718-5

> <Gold.Version>
5.8.1

> <Gold.Id.Protein>
6NUR|6NUR_protein|mol2

> <Gold.PLP.Fitness>
51.2164

> <Gold.PLP.PLP>
-47.5229

> <Gold.PLP.part.hbond>
-2.5007

> <Gold.PLP.part.metal>
0.0000

> <Gold.PLP.part.buried>
-7.3475

> <Gold.PLP.part.nonpolar>
-37.6460

> <Gold.PLP.part.repulsive>
0.2086

> <Gold.PLP.ligand.clash>
0.0000

> <Gold.PLP.ligand.torsion>
0.8016

> <Gold.PLP.Chemscore.Hbond>
1.7216

> <Gold.PLP.Chemscore.CHOScore>
0.0000

> <Gold.PLP.Chemscore.Metal>
0.0000

> <Gold.Chemscore.Hbonds>
donor molecule, donor type, donor heavy atom, donor atom, acceptor molecule, acceptor atom, score
      P1  H  6931  6943       L1     9  0.73

> <Gold.PLP.Chemscore.Internal.Correction>
0.1319

> <Gold.Rescore>
     Score         DG    S(hbond)    S(metal)    S(lipo)     H(rot)  DE(clash)    DE(int)     intcor
     14.34     -15.24       1.39        0.00      84.17       1.85       0.04       0.86       ----

> <Gold.Chemscore.Fitness>
14.3447

> <Gold.Chemscore.DG>
-15.2356

> <Gold.Chemscore.ZeroCoef>
-5.4800

> <Gold.Chemscore.Hbond>
1.3870

> <Gold.Chemscore.Metal>
0.0000

> <Gold.Chemscore.Lipo>
84.1661

> <Gold.Chemscore.Internal_Hbond>
0.0000

> <Gold.Chemscore.DEClash>
0.0351

> <Gold.Chemscore.DEInternal>
0.8557

> <Gold.Chemscore.Rot>
1.8455

> <Gold.Chemscore.Internal.Correction>
   9.000000E+99

> <Gold.Chemscore.Hbonds>
donor molecule, donor type, donor heavy atom, donor atom, acceptor molecule, acceptor atom, score
      P1  H  6931  6943       L1     9  0.66

> <Gold.Chemscore.Hbond.Weighted>
-4.6326

> <Gold.Chemscore.Metal.Weighted>
-0.0000

> <Gold.Chemscore.Lipo.Weighted>
-9.8474

> <Gold.Chemscore.Internal_Hbond.Weighted>
0.0000

> <Gold.Chemscore.DEClash.Weighted>
0.0351

> <Gold.Chemscore.DEInternal.Weighted>
0.8557

> <Gold.Chemscore.Rot.Weighted>
4.7245

> <Gold.Chemscore.Internal.Correction.Weighted>
   9.000000E+99

> <Gold.Protein.RotatedTorsions>
[ 6907 6896 6895 6894 ] final    0.61 input  -60.11 | X-H torsion
[ 7974 7965 7964 7962 ] final -175.71 input  175.53 | X-H torsion
[ 8008 7997 7996 7995 ] final  166.46 input   59.86 | X-H torsion
[ 10167 10162 10161 10158 ] final  -61.28 input  -65.29 | X-H torsion
[ 10718 10713 10712 10709 ] final   91.72 input   66.30 | X-H torsion
[ 10763 10752 10751 10750 ] final  138.65 input  -60.55 | X-H torsion
[ 11005 11000 10999 10996 ] final   61.22 input  -57.11 | X-H torsion

> <Gold.Protein.ActiveResidues>
 VAL166  LYS551  ARG553  GLY616  TRP617  ASP618  TYR619  PRO620  LYS621  CYS622 
 ASP623  PHE694  ASN695  SER759  ASP760  ASP761  ALA762  ILE779  LEU786  VAL792 
 PHE793  MET794  SER795  GLU796  ALA797  LYS798  CYS799  TRP800  GLU811  SER814 

> <Gold.Protein.RotatedAtoms>
  151.5792  135.1059  160.0012 H   0  0  0  0  0  0  0  0  0  0  0  0  # atno 6907 bound_to 6896
  152.4363  133.7362  159.6626 H   0  0  0  0  0  0  0  0  0  0  0  0  # atno 6908 bound_to 6896
  150.8261  133.8100  159.3141 H   0  0  0  0  0  0  0  0  0  0  0  0  # atno 6909 bound_to 6896
  144.7127  140.1280  143.6400 H   0  0  0  0  0  0  0  0  0  0  0  0  # atno 7974 bound_to 7965
  156.1716  140.1643  156.8437 H   0  0  0  0  0  0  0  0  0  0  0  0  # atno 8008 bound_to 7997
  154.5263  140.0767  156.8298 H   0  0  0  0  0  0  0  0  0  0  0  0  # atno 8009 bound_to 7997
  155.3500  140.3389  155.4241 H   0  0  0  0  0  0  0  0  0  0  0  0  # atno 8010 bound_to 7997
  140.6016  143.2363  151.5915 H   0  0  0  0  0  0  0  0  0  0  0  0  # atno 10167 bound_to 10162
  157.6960  131.0417  150.3772 H   0  0  0  0  0  0  0  0  0  0  0  0  # atno 10718 bound_to 10713
  153.8931  135.3030  155.3447 H   0  0  0  0  0  0  0  0  0  0  0  0  # atno 10763 bound_to 10752
  154.7706  135.4887  153.9645 H   0  0  0  0  0  0  0  0  0  0  0  0  # atno 10764 bound_to 10752
  153.1286  135.6799  153.9314 H   0  0  0  0  0  0  0  0  0  0  0  0  # atno 10765 bound_to 10752
  140.0176  134.6201  155.9686 H   0  0  0  0  0  0  0  0  0  0  0  0  # atno 11005 bound_to 11000
  145.9312  139.2607  143.1324 LP  0  0  0  0  0  0  0  0  0  0  0  0  # atno 17320 bound_to 7965
  145.9521  140.8901  143.0254 LP  0  0  0  0  0  0  0  0  0  0  0  0  # atno 17321 bound_to 7965
  139.5295  144.2958  152.1114 LP  0  0  0  0  0  0  0  0  0  0  0  0  # atno 17342 bound_to 10162
  140.2140  144.4534  150.6372 LP  0  0  0  0  0  0  0  0  0  0  0  0  # atno 17343 bound_to 10162
  156.4190  130.3949  149.6838 LP  0  0  0  0  0  0  0  0  0  0  0  0  # atno 17370 bound_to 10713
  156.4096  130.7715  151.2727 LP  0  0  0  0  0  0  0  0  0  0  0  0  # atno 17371 bound_to 10713
  141.1753  133.6540  156.4805 LP  0  0  0  0  0  0  0  0  0  0  0  0  # atno 17394 bound_to 11000
  140.4443  134.6987  157.5007 LP  0  0  0  0  0  0  0  0  0  0  0  0  # atno 17395 bound_to 11000

$$$$
