AV-unprocessed.smi:1921|AV-procd|sdf|7785|dock1
  -GOLD-   22720 9533D 1   1.00000     0.00000
 Structure written by MMmdl.
 27 28  0  0  0  0  0  0  0  0  1 V2000
  152.6504  144.5593  157.5056 C   0  0  0  0  0  0  0  0  0  0  0  0
  151.8266  143.3307  157.9146 C   0  0  2  0  0  0  0  0  0  0  0  0
  150.7277  143.1691  156.9678 N   0  0  0  0  0  0  0  0  0  0  0  0
  150.4033  142.0287  156.3407 C   0  0  0  0  0  0  0  0  0  0  0  0
  151.0136  140.9702  156.4937 O   0  0  0  0  0  0  0  0  0  0  0  0
  149.3391  142.2024  155.5374 N   0  0  0  0  0  0  0  0  0  0  0  0
  148.6942  141.2420  154.7144 C   0  0  0  0  0  0  0  0  0  0  0  0
  147.5132  141.4326  154.1146 N   0  0  0  0  0  0  0  0  0  0  0  0
  147.1189  140.3198  153.3673 C   0  0  0  0  0  0  0  0  0  0  0  0
  148.0185  139.2839  153.4089 C   0  0  0  0  0  0  0  0  0  0  0  0
  149.4054  139.6670  154.3935 S   0  0  0  0  0  0  0  0  0  0  0  0
  151.3683  143.4427  159.3592 C   0  0  0  0  0  0  0  0  0  0  0  0
  151.3287  144.7806  160.0596 C   0  0  0  0  0  0  0  0  0  0  0  0
  152.3429  143.7398  160.4747 C   0  0  0  0  0  0  0  0  0  0  0  0
  153.5164  144.6854  158.1559 H   0  0  0  0  0  0  0  0  0  0  0  0
  152.0572  145.4727  157.5626 H   0  0  0  0  0  0  0  0  0  0  0  0
  153.0200  144.4640  156.4840 H   0  0  0  0  0  0  0  0  0  0  0  0
  152.4827  142.4614  157.8350 H   0  0  0  0  0  0  0  0  0  0  0  0
  150.1695  143.9888  156.7792 H   0  0  0  0  0  0  0  0  0  0  0  0
  148.9438  143.1306  155.5108 H   0  0  0  0  0  0  0  0  0  0  0  0
  146.1798  140.3510  152.8351 H   0  0  0  0  0  0  0  0  0  0  0  0
  147.9496  138.3228  152.9216 H   0  0  0  0  0  0  0  0  0  0  0  0
  150.5556  142.7629  159.6093 H   0  0  0  0  0  0  0  0  0  0  0  0
  151.6969  145.6495  159.5175 H   0  0  0  0  0  0  0  0  0  0  0  0
  150.4960  144.9696  160.7340 H   0  0  0  0  0  0  0  0  0  0  0  0
  152.1868  143.2328  161.4245 H   0  0  0  0  0  0  0  0  0  0  0  0
  153.3825  143.9205  160.2086 H   0  0  0  0  0  0  0  0  0  0  0  0
  1  2  1  0  0  0  0
  1 15  1  0  0  0  0
  1 16  1  0  0  0  0
  1 17  1  0  0  0  0
  2  3  1  0  0  0  0
  2 12  1  0  0  0  0
  2 18  1  0  0  0  0
  3  4  1  0  0  0  0
  3 19  1  0  0  0  0
  4  5  2  0  0  0  0
  4  6  1  0  0  0  0
  6  7  1  0  0  0  0
  6 20  1  0  0  0  0
  7 11  1  0  0  0  0
  7  8  2  0  0  0  0
  8  9  1  0  0  0  0
  9 10  2  0  0  0  0
  9 21  1  0  0  0  0
 10 11  1  0  0  0  0
 10 22  1  0  0  0  0
 12 14  1  0  0  0  0
 12 13  1  0  0  0  0
 12 23  1  0  0  0  0
 13 14  1  0  0  0  0
 13 24  1  0  0  0  0
 13 25  1  0  0  0  0
 14 26  1  0  0  0  0
 14 27  1  0  0  0  0
M  END
> <s_m_source_file>
AV-unprocessed.smi

> <i_m_source_file_index>
1921

> <i_lp_mmshare_version>
43012

> <i_f3d_flags>
0

> <s_epik_input>
W0NIMl0xW0NIMl1bQ0hdMVtDQEhdKFtDSDNdKVtOSF1DKD1PKVtOSF1jMm5bY0hdW2NIXXMy

> <s_epik_cmdline>
J2VwaWtfcHl0aG9uJywgJy1waCcsICc3LjAnLCAnLXRuJywgJzgnLCAnLW1hJywgJzIwMCcsICctbWV0YWxfYmluZGluZycsICctaW1hZScsICc8aW5maWxlLm1hZT4nLCAnLW9tYWUnLCAnPG91dGZpbGUubWFlPic=

> <r_lp_tautomer_probability>
0.999

> <r_epik_Ionization_Penalty>
0.000426276

> <r_epik_Ionization_Penalty_Charging>
0

> <r_epik_Ionization_Penalty_Neutral>
0.000426276

> <r_epik_State_Penalty>
0.000177984

> <r_epik_Charging_Adjusted_Penalty>
0.000177984

> <i_epik_Tot_Q>
0

> <i_epik_Tot_abs_Q>
0

> <r_epik_Metal_State_Penalty>
-0

> <b_epik_Metal_Only>
0

> <s_lp_Force_Field>
OPLS_2005

> <r_lp_Energy>
11.4039

> <b_lp_Chiralities_Consistent>
1

> <s_lp_Variant>
AV-unprocessed.smi:1921-1

> <Gold.Version>
5.8.1

> <Gold.Id.Protein>
6NUR|6NUR_protein|mol2

> <Gold.PLP.Fitness>
40.7313

> <Gold.PLP.PLP>
-29.4427

> <Gold.PLP.part.hbond>
-2.0000

> <Gold.PLP.part.metal>
0.0000

> <Gold.PLP.part.buried>
-2.9131

> <Gold.PLP.part.nonpolar>
-24.9927

> <Gold.PLP.part.repulsive>
0.3731

> <Gold.PLP.ligand.clash>
0.0000

> <Gold.PLP.ligand.torsion>
0.7794

> <Gold.PLP.Chemscore.Hbond>
1.9280

> <Gold.PLP.Chemscore.CHOScore>
2.0000

> <Gold.PLP.Chemscore.Metal>
0.0000

> <Gold.Chemscore.Hbonds>
donor molecule, donor type, donor heavy atom, donor atom, acceptor molecule, acceptor atom, score
      L1  H     3    19       P1  8028  0.93
      L1  H     6    20       P1  8028  1.00
      L1  C     9    21       P1 10175  1.00
      L1  C    10    22       P1  7948  0.99

> <Gold.PLP.Chemscore.Internal.Correction>
1.0634

> <Gold.Rescore>
     Score         DG    S(hbond)    S(metal)    S(lipo)     H(rot)  DE(clash)    DE(int)     intcor
     15.74     -17.73       1.88        0.00      78.45       1.26       0.04       1.95       ----

> <Gold.Chemscore.Fitness>
15.7380

> <Gold.Chemscore.DG>
-17.7260

> <Gold.Chemscore.ZeroCoef>
-5.4800

> <Gold.Chemscore.Hbond>
1.8835

> <Gold.Chemscore.Metal>
0.0000

> <Gold.Chemscore.Lipo>
78.4481

> <Gold.Chemscore.Internal_Hbond>
0.0000

> <Gold.Chemscore.DEClash>
0.0396

> <Gold.Chemscore.DEInternal>
1.9484

> <Gold.Chemscore.Rot>
1.2591

> <Gold.Chemscore.Internal.Correction>
   9.000000E+99

> <Gold.Chemscore.Hbonds>
donor molecule, donor type, donor heavy atom, donor atom, acceptor molecule, acceptor atom, score
      L1  H     3    19       P1  8028  0.89
      L1  H     6    20       P1  8028  0.98

> <Gold.Chemscore.Hbond.Weighted>
-6.2909

> <Gold.Chemscore.Metal.Weighted>
-0.0000

> <Gold.Chemscore.Lipo.Weighted>
-9.1784

> <Gold.Chemscore.Internal_Hbond.Weighted>
0.0000

> <Gold.Chemscore.DEClash.Weighted>
0.0396

> <Gold.Chemscore.DEInternal.Weighted>
1.9484

> <Gold.Chemscore.Rot.Weighted>
3.2233

> <Gold.Chemscore.Internal.Correction.Weighted>
   9.000000E+99

> <Gold.Protein.RotatedTorsions>
[ 6907 6896 6895 6894 ] final  -88.47 input  -60.11 | X-H torsion
[ 7974 7965 7964 7962 ] final -176.68 input  175.53 | X-H torsion
[ 8008 7997 7996 7995 ] final  137.85 input   59.86 | X-H torsion
[ 10167 10162 10161 10158 ] final  -66.39 input  -65.29 | X-H torsion
[ 10718 10713 10712 10709 ] final  173.69 input   66.30 | X-H torsion
[ 10763 10752 10751 10750 ] final -172.94 input  -60.55 | X-H torsion
[ 11005 11000 10999 10996 ] final   94.34 input  -57.11 | X-H torsion

> <Gold.Protein.ActiveResidues>
 VAL166  LYS551  ARG553  GLY616  TRP617  ASP618  TYR619  PRO620  LYS621  CYS622 
 ASP623  PHE694  ASN695  SER759  ASP760  ASP761  ALA762  ILE779  LEU786  VAL792 
 PHE793  MET794  SER795  GLU796  ALA797  LYS798  CYS799  TRP800  GLU811  SER814 

> <Gold.Protein.RotatedAtoms>
  150.6869  134.2736  159.4597 H   0  0  0  0  0  0  0  0  0  0  0  0  # atno 6907 bound_to 6896
  152.0656  134.9564  160.0584 H   0  0  0  0  0  0  0  0  0  0  0  0  # atno 6908 bound_to 6896
  152.0974  133.4197  159.4608 H   0  0  0  0  0  0  0  0  0  0  0  0  # atno 6909 bound_to 6896
  144.7127  140.1133  143.6410 H   0  0  0  0  0  0  0  0  0  0  0  0  # atno 7974 bound_to 7965
  156.3000  140.2409  156.3977 H   0  0  0  0  0  0  0  0  0  0  0  0  # atno 8008 bound_to 7997
  154.8556  140.0422  157.1652 H   0  0  0  0  0  0  0  0  0  0  0  0  # atno 8009 bound_to 7997
  154.8952  140.2969  155.5352 H   0  0  0  0  0  0  0  0  0  0  0  0  # atno 8010 bound_to 7997
  140.5660  143.2315  151.6633 H   0  0  0  0  0  0  0  0  0  0  0  0  # atno 10167 bound_to 10162
  156.9606  131.0059  151.2928 H   0  0  0  0  0  0  0  0  0  0  0  0  # atno 10718 bound_to 10713
  154.6135  135.2867  155.0406 H   0  0  0  0  0  0  0  0  0  0  0  0  # atno 10763 bound_to 10752
  154.1627  135.6485  153.4993 H   0  0  0  0  0  0  0  0  0  0  0  0  # atno 10764 bound_to 10752
  153.0205  135.5382  154.6898 H   0  0  0  0  0  0  0  0  0  0  0  0  # atno 10765 bound_to 10752
  139.8799  134.8840  156.3850 H   0  0  0  0  0  0  0  0  0  0  0  0  # atno 11005 bound_to 11000
  145.9436  139.2685  143.1254 LP  0  0  0  0  0  0  0  0  0  0  0  0  # atno 17320 bound_to 7965
  145.9398  140.8988  143.0313 LP  0  0  0  0  0  0  0  0  0  0  0  0  # atno 17321 bound_to 7965
  139.5093  144.3581  152.0589 LP  0  0  0  0  0  0  0  0  0  0  0  0  # atno 17342 bound_to 10162
  140.2712  144.3961  150.6150 LP  0  0  0  0  0  0  0  0  0  0  0  0  # atno 17343 bound_to 10162
  157.5660  130.8278  149.8328 LP  0  0  0  0  0  0  0  0  0  0  0  0  # atno 17370 bound_to 10713
  156.0324  130.3761  150.1652 LP  0  0  0  0  0  0  0  0  0  0  0  0  # atno 17371 bound_to 10713
  140.9372  133.7539  156.0100 LP  0  0  0  0  0  0  0  0  0  0  0  0  # atno 17394 bound_to 11000
  140.8262  134.3232  157.5365 LP  0  0  0  0  0  0  0  0  0  0  0  0  # atno 17395 bound_to 11000

$$$$
