AV-unprocessed.smi:2061|AV-procd|sdf|8384|dock9
  -GOLD-   2272011 63D 1   1.00000     0.00000
 Structure written by MMmdl.
 45 46  0  0  0  0  0  0  0  0  3 V2000
  146.0789  135.2411  162.6847 C   0  0  0  0  0  0  0  0  0  0  0  0
  147.0146  135.3948  161.5341 C   0  0  0  0  0  0  0  0  0  0  0  0
  147.3234  134.5888  160.4753 C   0  0  0  0  0  0  0  0  0  0  0  0
  148.2846  135.3508  159.7564 C   0  0  0  0  0  0  0  0  0  0  0  0
  148.9085  134.9737  158.6295 N   0  5  0  0  0  0  0  0  0  0  0  0
  148.2431  134.9593  157.4526 C   0  0  0  0  0  0  0  0  0  0  0  0
  147.0718  134.6159  157.2763 O   0  0  0  0  0  0  0  0  0  0  0  0
  148.9840  135.3625  156.4107 N   0  0  0  0  0  0  0  0  0  0  0  0
  148.5370  135.4257  155.0227 C   0  0  0  0  0  0  0  0  0  0  0  0
  148.1282  134.0414  154.4542 C   0  0  2  0  0  0  0  0  0  0  0  0
  149.3845  133.1663  154.2242 C   0  0  0  0  0  0  0  0  0  0  0  0
  147.2871  134.2222  153.2268 N   0  3  1  0  0  0  0  0  0  0  0  0
  147.2971  133.0936  152.2576 C   0  0  0  0  0  0  0  0  0  0  0  0
  146.4739  133.4362  151.0014 C   0  0  1  0  0  0  0  0  0  0  0  0
  146.3827  132.2493  150.0362 C   0  0  0  0  0  0  0  0  0  0  0  0
  145.1477  133.7969  151.3717 O   0  0  0  0  0  0  0  0  0  0  0  0
  145.0636  134.8888  152.2842 C   0  0  2  0  0  0  0  0  0  0  0  0
  145.4282  136.2344  151.6310 C   0  0  0  0  0  0  0  0  0  0  0  0
  145.8796  134.5777  153.5525 C   0  0  0  0  0  0  0  0  0  0  0  0
  148.5487  136.5090  160.3373 N   0  0  0  0  0  0  0  0  0  0  0  0
  147.7329  136.5483  161.4744 O   0  0  0  0  0  0  0  0  0  0  0  0
  146.2122  134.2709  163.1634 H   0  0  0  0  0  0  0  0  0  0  0  0
  145.0440  135.3149  162.3512 H   0  0  0  0  0  0  0  0  0  0  0  0
  146.2482  136.0130  163.4358 H   0  0  0  0  0  0  0  0  0  0  0  0
  146.9239  133.6119  160.2485 H   0  0  0  0  0  0  0  0  0  0  0  0
  149.9360  135.6408  156.5997 H   0  0  0  0  0  0  0  0  0  0  0  0
  147.7266  136.1512  154.9615 H   0  0  0  0  0  0  0  0  0  0  0  0
  149.3531  135.8390  154.4294 H   0  0  0  0  0  0  0  0  0  0  0  0
  147.5183  133.5202  155.1939 H   0  0  0  0  0  0  0  0  0  0  0  0
  149.9867  133.0795  155.1282 H   0  0  0  0  0  0  0  0  0  0  0  0
  150.0246  133.5840  153.4464 H   0  0  0  0  0  0  0  0  0  0  0  0
  149.1255  132.1447  153.9456 H   0  0  0  0  0  0  0  0  0  0  0  0
  148.3120  132.8743  151.9276 H   0  0  0  0  0  0  0  0  0  0  0  0
  146.9068  132.1954  152.7392 H   0  0  0  0  0  0  0  0  0  0  0  0
  146.9449  134.2641  150.4710 H   0  0  0  0  0  0  0  0  0  0  0  0
  147.3722  131.9387  149.6999 H   0  0  0  0  0  0  0  0  0  0  0  0
  145.7991  132.5097  149.1527 H   0  0  0  0  0  0  0  0  0  0  0  0
  145.9049  131.3908  150.5091 H   0  0  0  0  0  0  0  0  0  0  0  0
  144.0145  134.9553  152.5743 H   0  0  0  0  0  0  0  0  0  0  0  0
  145.2284  137.0605  152.3139 H   0  0  0  0  0  0  0  0  0  0  0  0
  144.8367  136.4024  150.7307 H   0  0  0  0  0  0  0  0  0  0  0  0
  146.4811  136.2918  151.3560 H   0  0  0  0  0  0  0  0  0  0  0  0
  145.4185  133.7419  154.0816 H   0  0  0  0  0  0  0  0  0  0  0  0
  145.8267  135.4314  154.2257 H   0  0  0  0  0  0  0  0  0  0  0  0
  147.6838  135.0095  152.7341 H   0  0  0  0  0  0  0  0  0  0  0  0
  1  2  1  0  0  0  0
  1 22  1  0  0  0  0
  1 23  1  0  0  0  0
  1 24  1  0  0  0  0
  2 21  1  0  0  0  0
  2  3  2  0  0  0  0
  3  4  1  0  0  0  0
  3 25  1  0  0  0  0
  4  5  1  0  0  0  0
  4 20  2  0  0  0  0
  5  6  1  0  0  0  0
  6  7  2  0  0  0  0
  6  8  1  0  0  0  0
  8  9  1  0  0  0  0
  8 26  1  0  0  0  0
  9 10  1  0  0  0  0
  9 27  1  0  0  0  0
  9 28  1  0  0  0  0
 10 11  1  0  0  0  0
 10 12  1  0  0  0  0
 10 29  1  0  0  0  0
 11 30  1  0  0  0  0
 11 31  1  0  0  0  0
 11 32  1  0  0  0  0
 12 19  1  0  0  0  0
 12 13  1  0  0  0  0
 12 45  1  0  0  0  0
 13 14  1  0  0  0  0
 13 33  1  0  0  0  0
 13 34  1  0  0  0  0
 14 15  1  0  0  0  0
 14 16  1  0  0  0  0
 14 35  1  0  0  0  0
 15 36  1  0  0  0  0
 15 37  1  0  0  0  0
 15 38  1  0  0  0  0
 16 17  1  0  0  0  0
 17 18  1  0  0  0  0
 17 19  1  0  0  0  0
 17 39  1  0  0  0  0
 18 40  1  0  0  0  0
 18 41  1  0  0  0  0
 18 42  1  0  0  0  0
 19 43  1  0  0  0  0
 19 44  1  0  0  0  0
 20 21  1  0  0  0  0
M  CHG  1   5  -1
M  CHG  1  12   1
M  END
> <s_m_source_file>
AV-unprocessed.smi

> <i_m_source_file_index>
2061

> <i_lp_mmshare_version>
43012

> <i_f3d_flags>
0

> <s_epik_input>
W0NIM11jMVtjSF1jKG5vMSlbTkhdQyg9TylbTkhdW0NIMl1bQ0BIXShbQ0gzXSlOMltDSDJdW0NAQEhdKFtDSDNdKU9bQ0BASF0oW0NIM10pW0NIMl0y

> <s_epik_cmdline>
J2VwaWtfcHl0aG9uJywgJy1waCcsICc3LjAnLCAnLXRuJywgJzgnLCAnLW1hJywgJzIwMCcsICctbWV0YWxfYmluZGluZycsICctaW1hZScsICc8aW5maWxlLm1hZT4nLCAnLW9tYWUnLCAnPG91dGZpbGUubWFlPic=

> <r_epik_Ionization_Penalty>
6.73511

> <r_epik_Ionization_Penalty_Charging>
6.73502

> <r_epik_Ionization_Penalty_Neutral>
9.50841e-05

> <r_epik_State_Penalty>
6.93549

> <r_epik_Charging_Adjusted_Penalty>
13.6705

> <i_epik_Tot_Q>
0

> <i_epik_Tot_abs_Q>
2

> <r_epik_Metal_State_Penalty>
2.87211

> <b_epik_Metal_Only>
1

> <s_lp_Force_Field>
OPLS_2005

> <r_lp_Energy>
11.3742

> <b_lp_Chiralities_Consistent>
1

> <s_lp_Variant>
AV-unprocessed.smi:2061-25

> <Gold.Version>
5.8.1

> <Gold.Id.Protein>
6NUR|6NUR_protein|mol2

> <Gold.PLP.Fitness>
42.9061

> <Gold.PLP.PLP>
-29.8461

> <Gold.PLP.part.hbond>
-4.9054

> <Gold.PLP.part.metal>
0.0000

> <Gold.PLP.part.buried>
-2.2989

> <Gold.PLP.part.nonpolar>
-23.6514

> <Gold.PLP.part.repulsive>
0.1371

> <Gold.PLP.ligand.clash>
0.0000

> <Gold.PLP.ligand.torsion>
1.6069

> <Gold.PLP.Chemscore.Hbond>
5.3955

> <Gold.PLP.Chemscore.CHOScore>
0.0000

> <Gold.PLP.Chemscore.Metal>
0.0000

> <Gold.Chemscore.Hbonds>
donor molecule, donor type, donor heavy atom, donor atom, acceptor molecule, acceptor atom, score
      L1  H    12    45       P1  7948  2.00
      P1  H  6896  6907       L1     5  1.82
      P1  H  6931  6943       L1    21  0.03

> <Gold.PLP.Chemscore.Internal.Correction>
0.0873

> <Gold.Rescore>
     Score         DG    S(hbond)    S(metal)    S(lipo)     H(rot)  DE(clash)    DE(int)     intcor
     14.65     -16.50       1.96        0.00      72.23       1.56       0.07       1.78       ----

> <Gold.Chemscore.Fitness>
14.6517

> <Gold.Chemscore.DG>
-16.4995

> <Gold.Chemscore.ZeroCoef>
-5.4800

> <Gold.Chemscore.Hbond>
1.9609

> <Gold.Chemscore.Metal>
0.0000

> <Gold.Chemscore.Lipo>
72.2318

> <Gold.Chemscore.Internal_Hbond>
0.0000

> <Gold.Chemscore.DEClash>
0.0700

> <Gold.Chemscore.DEInternal>
1.7779

> <Gold.Chemscore.Rot>
1.5550

> <Gold.Chemscore.Internal.Correction>
   9.000000E+99

> <Gold.Chemscore.Hbonds>
donor molecule, donor type, donor heavy atom, donor atom, acceptor molecule, acceptor atom, score
      L1  H    12    45       P1  7948  0.98
      P1  H  6896  6907       L1     5  0.30

> <Gold.Chemscore.Hbond.Weighted>
-6.5493

> <Gold.Chemscore.Metal.Weighted>
-0.0000

> <Gold.Chemscore.Lipo.Weighted>
-8.4511

> <Gold.Chemscore.Internal_Hbond.Weighted>
0.0000

> <Gold.Chemscore.DEClash.Weighted>
0.0700

> <Gold.Chemscore.DEInternal.Weighted>
1.7779

> <Gold.Chemscore.Rot.Weighted>
3.9809

> <Gold.Chemscore.Internal.Correction.Weighted>
   9.000000E+99

> <Gold.Protein.RotatedTorsions>
[ 6907 6896 6895 6894 ] final  -98.51 input  -60.11 | X-H torsion
[ 7974 7965 7964 7962 ] final  146.97 input  175.53 | X-H torsion
[ 8008 7997 7996 7995 ] final -149.11 input   59.86 | X-H torsion
[ 10167 10162 10161 10158 ] final -101.28 input  -65.29 | X-H torsion
[ 10718 10713 10712 10709 ] final  -87.68 input   66.30 | X-H torsion
[ 10763 10752 10751 10750 ] final   72.58 input  -60.55 | X-H torsion
[ 11005 11000 10999 10996 ] final   33.81 input  -57.11 | X-H torsion

> <Gold.Protein.ActiveResidues>
 VAL166  LYS551  ARG553  GLY616  TRP617  ASP618  TYR619  PRO620  LYS621  CYS622 
 ASP623  PHE694  ASN695  SER759  ASP760  ASP761  ALA762  ILE779  LEU786  VAL792 
 PHE793  MET794  SER795  GLU796  ALA797  LYS798  CYS799  TRP800  GLU811  SER814 

> <Gold.Protein.RotatedAtoms>
  150.7049  134.1183  159.4025 H   0  0  0  0  0  0  0  0  0  0  0  0  # atno 6907 bound_to 6896
  151.9170  135.0312  160.0528 H   0  0  0  0  0  0  0  0  0  0  0  0  # atno 6908 bound_to 6896
  152.2288  133.5006  159.5241 H   0  0  0  0  0  0  0  0  0  0  0  0  # atno 6909 bound_to 6896
  144.8629  139.5970  143.5922 H   0  0  0  0  0  0  0  0  0  0  0  0  # atno 7974 bound_to 7965
  155.6024  140.0663  157.2729 H   0  0  0  0  0  0  0  0  0  0  0  0  # atno 8008 bound_to 7997
  154.4275  140.1816  156.1235 H   0  0  0  0  0  0  0  0  0  0  0  0  # atno 8009 bound_to 7997
  156.0148  140.3323  155.6982 H   0  0  0  0  0  0  0  0  0  0  0  0  # atno 8010 bound_to 7997
  140.2430  143.3525  152.0784 H   0  0  0  0  0  0  0  0  0  0  0  0  # atno 10167 bound_to 10162
  155.9985  130.4809  150.4905 H   0  0  0  0  0  0  0  0  0  0  0  0  # atno 10718 bound_to 10713
  153.0468  135.5094  154.7766 H   0  0  0  0  0  0  0  0  0  0  0  0  # atno 10763 bound_to 10752
  154.6659  135.2945  154.9808 H   0  0  0  0  0  0  0  0  0  0  0  0  # atno 10764 bound_to 10752
  154.0642  135.6686  153.4868 H   0  0  0  0  0  0  0  0  0  0  0  0  # atno 10765 bound_to 10752
  140.2593  134.3211  155.7863 H   0  0  0  0  0  0  0  0  0  0  0  0  # atno 11005 bound_to 11000
  146.2874  139.7042  142.9186 LP  0  0  0  0  0  0  0  0  0  0  0  0  # atno 17320 bound_to 7965
  145.4278  141.0412  143.2928 LP  0  0  0  0  0  0  0  0  0  0  0  0  # atno 17321 bound_to 7965
  139.5071  144.6826  151.5970 LP  0  0  0  0  0  0  0  0  0  0  0  0  # atno 17342 bound_to 10162
  140.6099  143.9456  150.6445 LP  0  0  0  0  0  0  0  0  0  0  0  0  # atno 17343 bound_to 10162
  157.2900  131.0624  151.2140 LP  0  0  0  0  0  0  0  0  0  0  0  0  # atno 17370 bound_to 10713
  157.3156  130.6911  149.6240 LP  0  0  0  0  0  0  0  0  0  0  0  0  # atno 17371 bound_to 10713
  141.2192  133.7400  156.9161 LP  0  0  0  0  0  0  0  0  0  0  0  0  # atno 17394 bound_to 11000
  140.1480  134.9249  157.2555 LP  0  0  0  0  0  0  0  0  0  0  0  0  # atno 17395 bound_to 11000

$$$$
