AV-unprocessed.smi:1893|AV-procd|sdf|7673|dock7
  -GOLD-   22720 9413D 1   1.00000     0.00000
 Structure written by MMmdl.
 43 44  0  0  0  0  0  0  0  0  2 V2000
  143.9255  136.0251  151.9290 C   0  0  0  0  0  0  0  0  0  0  0  0
  145.4172  136.0119  151.5294 C   0  0  2  0  0  0  0  0  0  0  0  0
  145.8097  134.7274  150.7693 C   0  0  0  0  0  0  0  0  0  0  0  0
  145.8805  133.5061  151.6978 C   0  0  0  0  0  0  0  0  0  0  0  0
  146.8160  133.7962  152.8778 C   0  0  0  0  0  0  0  0  0  0  0  0
  146.4019  135.0806  153.6144 C   0  0  0  0  0  0  0  0  0  0  0  0
  146.3428  136.2383  152.6800 N   0  3  2  0  0  0  0  0  0  0  0  0
  146.1370  137.5414  153.3622 C   0  0  0  0  0  0  0  0  0  0  0  0
  146.7982  138.7096  152.6061 C   0  0  0  0  0  0  0  0  0  0  0  0
  148.2147  138.8136  152.9333 N   0  0  0  0  0  0  0  0  0  0  0  0
  148.7275  138.6929  154.1682 C   0  0  0  0  0  0  0  0  0  0  0  0
  148.0386  138.4421  155.1579 O   0  0  0  0  0  0  0  0  0  0  0  0
  150.2428  138.9081  154.3000 C   0  0  2  0  0  0  0  0  0  0  0  0
  150.9940  137.6155  154.6796 C   0  0  0  0  0  0  0  0  0  0  0  0
  150.5083  140.0002  155.2289 N   0  0  0  0  0  0  0  0  0  0  0  0
  151.3170  140.0442  156.2901 C   0  0  0  0  0  0  0  0  0  0  0  0
  151.3647  141.2286  156.8834 N   0  0  0  0  0  0  0  0  0  0  0  0
  150.5082  141.9223  156.0763 C   0  0  0  0  0  0  0  0  0  0  0  0
  149.9803  141.2386  155.0613 N   0  0  0  0  0  0  0  0  0  0  0  0
  143.2928  135.8779  151.0533 H   0  0  0  0  0  0  0  0  0  0  0  0
  143.6334  136.9767  152.3730 H   0  0  0  0  0  0  0  0  0  0  0  0
  143.6782  135.2387  152.6410 H   0  0  0  0  0  0  0  0  0  0  0  0
  145.5653  136.8405  150.8354 H   0  0  0  0  0  0  0  0  0  0  0  0
  145.1091  134.5391  149.9548 H   0  0  0  0  0  0  0  0  0  0  0  0
  146.7841  134.8726  150.3006 H   0  0  0  0  0  0  0  0  0  0  0  0
  144.8855  133.2539  152.0655 H   0  0  0  0  0  0  0  0  0  0  0  0
  146.2343  132.6355  151.1446 H   0  0  0  0  0  0  0  0  0  0  0  0
  146.8156  132.9531  153.5695 H   0  0  0  0  0  0  0  0  0  0  0  0
  147.8398  133.8978  152.5150 H   0  0  0  0  0  0  0  0  0  0  0  0
  145.4379  134.9434  154.1053 H   0  0  0  0  0  0  0  0  0  0  0  0
  147.1232  135.2735  154.4075 H   0  0  0  0  0  0  0  0  0  0  0  0
  145.0678  137.7491  153.4301 H   0  0  0  0  0  0  0  0  0  0  0  0
  146.5050  137.4800  154.3875 H   0  0  0  0  0  0  0  0  0  0  0  0
  146.6853  138.6062  151.5266 H   0  0  0  0  0  0  0  0  0  0  0  0
  146.3173  139.6492  152.8797 H   0  0  0  0  0  0  0  0  0  0  0  0
  148.8485  139.0125  152.1726 H   0  0  0  0  0  0  0  0  0  0  0  0
  150.6174  139.2220  153.3241 H   0  0  0  0  0  0  0  0  0  0  0  0
  150.8232  136.8315  153.9411 H   0  0  0  0  0  0  0  0  0  0  0  0
  150.6825  137.2270  155.6502 H   0  0  0  0  0  0  0  0  0  0  0  0
  152.0692  137.7912  154.7250 H   0  0  0  0  0  0  0  0  0  0  0  0
  151.8892  139.1936  156.6311 H   0  0  0  0  0  0  0  0  0  0  0  0
  150.2743  142.9648  156.2354 H   0  0  0  0  0  0  0  0  0  0  0  0
  147.2604  136.2989  152.2627 H   0  0  0  0  0  0  0  0  0  0  0  0
  1  2  1  0  0  0  0
  1 20  1  0  0  0  0
  1 21  1  0  0  0  0
  1 22  1  0  0  0  0
  2  7  1  0  0  0  0
  2  3  1  0  0  0  0
  2 23  1  0  0  0  0
  3  4  1  0  0  0  0
  3 24  1  0  0  0  0
  3 25  1  0  0  0  0
  4  5  1  0  0  0  0
  4 26  1  0  0  0  0
  4 27  1  0  0  0  0
  5  6  1  0  0  0  0
  5 28  1  0  0  0  0
  5 29  1  0  0  0  0
  6  7  1  0  0  0  0
  6 30  1  0  0  0  0
  6 31  1  0  0  0  0
  7  8  1  0  0  0  0
  7 43  1  0  0  0  0
  8  9  1  0  0  0  0
  8 32  1  0  0  0  0
  8 33  1  0  0  0  0
  9 10  1  0  0  0  0
  9 34  1  0  0  0  0
  9 35  1  0  0  0  0
 10 11  1  0  0  0  0
 10 36  1  0  0  0  0
 11 12  2  0  0  0  0
 11 13  1  0  0  0  0
 13 14  1  0  0  0  0
 13 15  1  0  0  0  0
 13 37  1  0  0  0  0
 14 38  1  0  0  0  0
 14 39  1  0  0  0  0
 14 40  1  0  0  0  0
 15 19  1  0  0  0  0
 15 16  1  0  0  0  0
 16 17  2  0  0  0  0
 16 41  1  0  0  0  0
 17 18  1  0  0  0  0
 18 19  2  0  0  0  0
 18 42  1  0  0  0  0
M  CHG  1   7   1
M  END
> <s_m_source_file>
AV-unprocessed.smi

> <i_m_source_file_index>
1893

> <i_lp_mmshare_version>
43012

> <i_f3d_flags>
0

> <s_epik_input>
W0NIM11bQ0BASF0xW0NIMl1bQ0gyXVtDSDJdW0NIMl1OMVtDSDJdW0NIMl1bTkhdQyg9TylbQ0BIXShbQ0gzXSluMltjSF1uW2NIXW4y

> <s_epik_cmdline>
J2VwaWtfcHl0aG9uJywgJy1waCcsICc3LjAnLCAnLXRuJywgJzgnLCAnLW1hJywgJzIwMCcsICctbWV0YWxfYmluZGluZycsICctaW1hZScsICc8aW5maWxlLm1hZT4nLCAnLW9tYWUnLCAnPG91dGZpbGUubWFlPic=

> <r_lp_tautomer_probability>
1

> <r_epik_Ionization_Penalty>
0.00266409

> <r_epik_Ionization_Penalty_Charging>
0.00265606

> <r_epik_Ionization_Penalty_Neutral>
8.02794e-06

> <r_epik_State_Penalty>
0.00184955

> <r_epik_Charging_Adjusted_Penalty>
0.00450561

> <i_epik_Tot_Q>
1

> <i_epik_Tot_abs_Q>
1

> <r_epik_Metal_State_Penalty>
-0

> <b_epik_Metal_Only>
0

> <s_lp_Force_Field>
OPLS_2005

> <r_lp_Energy>
25.3191

> <b_lp_Chiralities_Consistent>
1

> <s_lp_Variant>
AV-unprocessed.smi:1893-3

> <Gold.Version>
5.8.1

> <Gold.Id.Protein>
6NUR|6NUR_protein|mol2

> <Gold.PLP.Fitness>
45.8368

> <Gold.PLP.PLP>
-34.9651

> <Gold.PLP.part.hbond>
-4.0000

> <Gold.PLP.part.metal>
0.0000

> <Gold.PLP.part.buried>
-2.3271

> <Gold.PLP.part.nonpolar>
-27.5148

> <Gold.PLP.part.repulsive>
0.2831

> <Gold.PLP.ligand.clash>
0.0000

> <Gold.PLP.ligand.torsion>
0.6345

> <Gold.PLP.Chemscore.Hbond>
3.0000

> <Gold.PLP.Chemscore.CHOScore>
0.9978

> <Gold.PLP.Chemscore.Metal>
0.0000

> <Gold.Chemscore.Hbonds>
donor molecule, donor type, donor heavy atom, donor atom, acceptor molecule, acceptor atom, score
      L1  H     7    43       P1  7948  2.00
      L1  H    10    36       P1  7957  1.00
      L1  C    18    42       P1  8028  1.00

> <Gold.PLP.Chemscore.Internal.Correction>
0.1474

> <Gold.Rescore>
     Score         DG    S(hbond)    S(metal)    S(lipo)     H(rot)  DE(clash)    DE(int)     intcor
      9.81     -11.68       1.98        0.00      52.12       2.54       0.02       1.86       ----

> <Gold.Chemscore.Fitness>
9.8102

> <Gold.Chemscore.DG>
-11.6818

> <Gold.Chemscore.ZeroCoef>
-5.4800

> <Gold.Chemscore.Hbond>
1.9760

> <Gold.Chemscore.Metal>
0.0000

> <Gold.Chemscore.Lipo>
52.1227

> <Gold.Chemscore.Internal_Hbond>
0.0000

> <Gold.Chemscore.DEClash>
0.0164

> <Gold.Chemscore.DEInternal>
1.8552

> <Gold.Chemscore.Rot>
2.5377

> <Gold.Chemscore.Internal.Correction>
   9.000000E+99

> <Gold.Chemscore.Hbonds>
donor molecule, donor type, donor heavy atom, donor atom, acceptor molecule, acceptor atom, score
      L1  H     7    43       P1  7948  1.00
      L1  H    10    36       P1  7957  0.93

> <Gold.Chemscore.Hbond.Weighted>
-6.6000

> <Gold.Chemscore.Metal.Weighted>
-0.0000

> <Gold.Chemscore.Lipo.Weighted>
-6.0984

> <Gold.Chemscore.Internal_Hbond.Weighted>
0.0000

> <Gold.Chemscore.DEClash.Weighted>
0.0164

> <Gold.Chemscore.DEInternal.Weighted>
1.8552

> <Gold.Chemscore.Rot.Weighted>
6.4966

> <Gold.Chemscore.Internal.Correction.Weighted>
   9.000000E+99

> <Gold.Protein.RotatedTorsions>
[ 6907 6896 6895 6894 ] final   -8.07 input  -60.11 | X-H torsion
[ 7974 7965 7964 7962 ] final -144.46 input  175.53 | X-H torsion
[ 8008 7997 7996 7995 ] final  -78.55 input   59.86 | X-H torsion
[ 10167 10162 10161 10158 ] final  -60.34 input  -65.29 | X-H torsion
[ 10718 10713 10712 10709 ] final   98.81 input   66.30 | X-H torsion
[ 10763 10752 10751 10750 ] final -168.30 input  -60.55 | X-H torsion
[ 11005 11000 10999 10996 ] final   45.99 input  -57.11 | X-H torsion

> <Gold.Protein.ActiveResidues>
 VAL166  LYS551  ARG553  GLY616  TRP617  ASP618  TYR619  PRO620  LYS621  CYS622 
 ASP623  PHE694  ASN695  SER759  ASP760  ASP761  ALA762  ILE779  LEU786  VAL792 
 PHE793  MET794  SER795  GLU796  ALA797  LYS798  CYS799  TRP800  GLU811  SER814 

> <Gold.Protein.RotatedAtoms>
  151.4395  135.1018  159.9665 H   0  0  0  0  0  0  0  0  0  0  0  0  # atno 6907 bound_to 6896
  152.4928  133.8542  159.7227 H   0  0  0  0  0  0  0  0  0  0  0  0  # atno 6908 bound_to 6896
  150.9098  133.6953  159.2885 H   0  0  0  0  0  0  0  0  0  0  0  0  # atno 6909 bound_to 6896
  144.8296  140.5707  143.5524 H   0  0  0  0  0  0  0  0  0  0  0  0  # atno 7974 bound_to 7965
  154.5700  140.0692  156.8950 H   0  0  0  0  0  0  0  0  0  0  0  0  # atno 8008 bound_to 7997
  155.2651  140.3361  155.4251 H   0  0  0  0  0  0  0  0  0  0  0  0  # atno 8009 bound_to 7997
  156.2111  140.1759  156.7678 H   0  0  0  0  0  0  0  0  0  0  0  0  # atno 8010 bound_to 7997
  140.6078  143.2378  151.5781 H   0  0  0  0  0  0  0  0  0  0  0  0  # atno 10167 bound_to 10162
  157.6888  131.0651  150.4853 H   0  0  0  0  0  0  0  0  0  0  0  0  # atno 10718 bound_to 10713
  154.6642  135.2929  154.9826 H   0  0  0  0  0  0  0  0  0  0  0  0  # atno 10763 bound_to 10752
  154.0876  135.6595  153.4851 H   0  0  0  0  0  0  0  0  0  0  0  0  # atno 10764 bound_to 10752
  153.0448  135.5212  154.7608 H   0  0  0  0  0  0  0  0  0  0  0  0  # atno 10765 bound_to 10752
  140.1409  134.4584  155.8450 H   0  0  0  0  0  0  0  0  0  0  0  0  # atno 11005 bound_to 11000
  145.4925  139.1488  143.3702 LP  0  0  0  0  0  0  0  0  0  0  0  0  # atno 17320 bound_to 7965
  146.2600  140.5063  142.8857 LP  0  0  0  0  0  0  0  0  0  0  0  0  # atno 17321 bound_to 7965
  139.5338  144.2840  152.1206 LP  0  0  0  0  0  0  0  0  0  0  0  0  # atno 17342 bound_to 10162
  140.2033  144.4636  150.6421 LP  0  0  0  0  0  0  0  0  0  0  0  0  # atno 17343 bound_to 10162
  156.5182  130.4155  149.6264 LP  0  0  0  0  0  0  0  0  0  0  0  0  # atno 17370 bound_to 10713
  156.3178  130.7264  151.2170 LP  0  0  0  0  0  0  0  0  0  0  0  0  # atno 17371 bound_to 10713
  141.2186  133.6833  156.7245 LP  0  0  0  0  0  0  0  0  0  0  0  0  # atno 17394 bound_to 11000
  140.2723  134.8382  157.3859 LP  0  0  0  0  0  0  0  0  0  0  0  0  # atno 17395 bound_to 11000

$$$$
