AV-unprocessed.smi:1194|AV-procd|sdf|4990|dock3
  -GOLD-   22720 3593D 1   1.00000     0.00000
 Structure written by MMmdl.
 47 48  0  0  0  0  0  0  0  0  1 V2000
  152.9039  142.7206  161.2478 C   0  0  0  0  0  0  0  0  0  0  0  0
  153.2983  141.7574  160.1233 C   0  0  0  0  0  0  0  0  0  0  0  0
  152.1185  141.4355  159.1861 C   0  0  0  0  0  0  0  0  0  0  0  0
  152.3681  140.2351  158.2542 C   0  0  0  0  0  0  0  0  0  0  0  0
  153.4617  139.6698  158.3093 O   0  0  0  0  0  0  0  0  0  0  0  0
  151.3942  139.8453  157.3887 N   0  0  0  0  0  0  0  0  0  0  0  0
  151.5479  138.7437  156.4125 C   0  0  0  0  0  0  0  0  0  0  0  0
  151.3090  139.2550  154.9819 C   0  0  0  0  0  0  0  0  0  0  0  0
  149.9479  139.9537  154.8620 C   0  0  0  0  0  0  0  0  0  0  0  0
  149.8200  141.0530  155.9273 C   0  0  0  0  0  0  0  0  0  0  0  0
  150.0707  140.5210  157.3603 C   0  0  1  0  0  0  0  0  0  0  0  0
  148.9217  139.6402  157.9024 C   0  0  0  0  0  0  0  0  0  0  0  0
  147.7723  140.0767  157.9599 O   0  0  0  0  0  0  0  0  0  0  0  0
  149.2503  138.4070  158.3145 N   0  0  0  0  0  0  0  0  0  0  0  0
  148.3435  137.4144  158.8746 C   0  0  0  0  0  0  0  0  0  0  0  0
  148.9487  136.7639  160.1317 C   0  0  0  0  0  0  0  0  0  0  0  0
  147.9589  135.9086  160.9068 C   0  0  0  0  0  0  0  0  0  0  0  0
  147.5738  136.2552  162.2183 C   0  0  0  0  0  0  0  0  0  0  0  0
  146.6745  135.4171  162.9053 C   0  0  0  0  0  0  0  0  0  0  0  0
  146.1938  134.2671  162.2481 C   0  0  0  0  0  0  0  0  0  0  0  0
  146.5509  133.9284  160.9909 N   0  0  0  0  0  0  0  0  0  0  0  0
  147.4157  134.7352  160.3403 C   0  0  0  0  0  0  0  0  0  0  0  0
  153.7545  142.9290  161.8971 H   0  0  0  0  0  0  0  0  0  0  0  0
  152.1080  142.3017  161.8644 H   0  0  0  0  0  0  0  0  0  0  0  0
  152.5524  143.6713  160.8453 H   0  0  0  0  0  0  0  0  0  0  0  0
  154.1162  142.2003  159.5531 H   0  0  0  0  0  0  0  0  0  0  0  0
  153.6866  140.8373  160.5619 H   0  0  0  0  0  0  0  0  0  0  0  0
  151.2247  141.2406  159.7800 H   0  0  0  0  0  0  0  0  0  0  0  0
  151.9190  142.3170  158.5774 H   0  0  0  0  0  0  0  0  0  0  0  0
  152.5215  138.2593  156.4323 H   0  0  0  0  0  0  0  0  0  0  0  0
  150.8336  137.9529  156.6435 H   0  0  0  0  0  0  0  0  0  0  0  0
  152.1029  139.9515  154.7085 H   0  0  0  0  0  0  0  0  0  0  0  0
  151.3659  138.4271  154.2746 H   0  0  0  0  0  0  0  0  0  0  0  0
  149.8324  140.3815  153.8658 H   0  0  0  0  0  0  0  0  0  0  0  0
  149.1464  139.2233  154.9798 H   0  0  0  0  0  0  0  0  0  0  0  0
  150.5450  141.8395  155.7123 H   0  0  0  0  0  0  0  0  0  0  0  0
  148.8418  141.5298  155.8541 H   0  0  0  0  0  0  0  0  0  0  0  0
  150.0593  141.4000  158.0058 H   0  0  0  0  0  0  0  0  0  0  0  0
  150.2202  138.1353  158.2426 H   0  0  0  0  0  0  0  0  0  0  0  0
  147.4143  137.9229  159.1335 H   0  0  0  0  0  0  0  0  0  0  0  0
  148.0927  136.6456  158.1419 H   0  0  0  0  0  0  0  0  0  0  0  0
  149.8089  136.1529  159.8565 H   0  0  0  0  0  0  0  0  0  0  0  0
  149.3300  137.5443  160.7920 H   0  0  0  0  0  0  0  0  0  0  0  0
  147.9669  137.1422  162.6932 H   0  0  0  0  0  0  0  0  0  0  0  0
  146.3623  135.6485  163.9129 H   0  0  0  0  0  0  0  0  0  0  0  0
  145.5054  133.6002  162.7455 H   0  0  0  0  0  0  0  0  0  0  0  0
  147.6901  134.4268  159.3421 H   0  0  0  0  0  0  0  0  0  0  0  0
  1  2  1  0  0  0  0
  1 23  1  0  0  0  0
  1 24  1  0  0  0  0
  1 25  1  0  0  0  0
  2  3  1  0  0  0  0
  2 26  1  0  0  0  0
  2 27  1  0  0  0  0
  3  4  1  0  0  0  0
  3 28  1  0  0  0  0
  3 29  1  0  0  0  0
  4  5  2  0  0  0  0
  4  6  1  0  0  0  0
  6 11  1  0  0  0  0
  6  7  1  0  0  0  0
  7  8  1  0  0  0  0
  7 30  1  0  0  0  0
  7 31  1  0  0  0  0
  8  9  1  0  0  0  0
  8 32  1  0  0  0  0
  8 33  1  0  0  0  0
  9 10  1  0  0  0  0
  9 34  1  0  0  0  0
  9 35  1  0  0  0  0
 10 11  1  0  0  0  0
 10 36  1  0  0  0  0
 10 37  1  0  0  0  0
 11 12  1  0  0  0  0
 11 38  1  0  0  0  0
 12 13  2  0  0  0  0
 12 14  1  0  0  0  0
 14 15  1  0  0  0  0
 14 39  1  0  0  0  0
 15 16  1  0  0  0  0
 15 40  1  0  0  0  0
 15 41  1  0  0  0  0
 16 17  1  0  0  0  0
 16 42  1  0  0  0  0
 16 43  1  0  0  0  0
 17 22  1  0  0  0  0
 17 18  2  0  0  0  0
 18 19  1  0  0  0  0
 18 44  1  0  0  0  0
 19 20  2  0  0  0  0
 19 45  1  0  0  0  0
 20 21  1  0  0  0  0
 20 46  1  0  0  0  0
 21 22  2  0  0  0  0
 22 47  1  0  0  0  0
M  END
> <s_m_source_file>
AV-unprocessed.smi

> <i_m_source_file_index>
1194

> <i_lp_mmshare_version>
43012

> <i_f3d_flags>
0

> <s_epik_input>
W0NIM11bQ0gyXVtDSDJdQyg9TylOMVtDSDJdW0NIMl1bQ0gyXVtDSDJdW0NASF0xQyg9TylbTkhdW0NIMl1bQ0gyXWMyW2NIXVtjSF1bY0hdbltjSF0y

> <s_epik_cmdline>
J2VwaWtfcHl0aG9uJywgJy1waCcsICc3LjAnLCAnLXRuJywgJzgnLCAnLW1hJywgJzIwMCcsICctbWV0YWxfYmluZGluZycsICctaW1hZScsICc8aW5maWxlLm1hZT4nLCAnLW9tYWUnLCAnPG91dGZpbGUubWFlPic=

> <r_epik_Ionization_Penalty>
0.0130932

> <r_epik_Ionization_Penalty_Charging>
0

> <r_epik_Ionization_Penalty_Neutral>
0.0130932

> <r_epik_State_Penalty>
0.0101714

> <r_epik_Charging_Adjusted_Penalty>
0.0101714

> <i_epik_Tot_Q>
0

> <i_epik_Tot_abs_Q>
0

> <r_epik_Metal_State_Penalty>
0.00995056

> <b_epik_Metal_Only>
0

> <s_lp_Force_Field>
OPLS_2005

> <r_lp_Energy>
24.5515

> <b_lp_Chiralities_Consistent>
1

> <s_lp_Variant>
AV-unprocessed.smi:1194-1

> <Gold.Version>
5.8.1

> <Gold.Id.Protein>
6NUR|6NUR_protein|mol2

> <Gold.PLP.Fitness>
46.0484

> <Gold.PLP.PLP>
-43.3478

> <Gold.PLP.part.hbond>
-2.0000

> <Gold.PLP.part.metal>
0.0000

> <Gold.PLP.part.buried>
-4.1777

> <Gold.PLP.part.nonpolar>
-37.9248

> <Gold.PLP.part.repulsive>
0.1473

> <Gold.PLP.ligand.clash>
0.0000

> <Gold.PLP.ligand.torsion>
0.1989

> <Gold.PLP.Chemscore.Hbond>
1.0000

> <Gold.PLP.Chemscore.CHOScore>
0.0000

> <Gold.PLP.Chemscore.Metal>
0.0000

> <Gold.Chemscore.Hbonds>
donor molecule, donor type, donor heavy atom, donor atom, acceptor molecule, acceptor atom, score
      P1  H  7997  8009       L1     5  0.99

> <Gold.PLP.Chemscore.Internal.Correction>
0.0984

> <Gold.Rescore>
     Score         DG    S(hbond)    S(metal)    S(lipo)     H(rot)  DE(clash)    DE(int)     intcor
     15.88     -17.09       0.96        0.00     108.56       1.68       0.04       1.17       ----

> <Gold.Chemscore.Fitness>
15.8769

> <Gold.Chemscore.DG>
-17.0890

> <Gold.Chemscore.ZeroCoef>
-5.4800

> <Gold.Chemscore.Hbond>
0.9623

> <Gold.Chemscore.Metal>
0.0000

> <Gold.Chemscore.Lipo>
108.5620

> <Gold.Chemscore.Internal_Hbond>
0.0000

> <Gold.Chemscore.DEClash>
0.0376

> <Gold.Chemscore.DEInternal>
1.1744

> <Gold.Chemscore.Rot>
1.6823

> <Gold.Chemscore.Internal.Correction>
   9.000000E+99

> <Gold.Chemscore.Hbonds>
donor molecule, donor type, donor heavy atom, donor atom, acceptor molecule, acceptor atom, score
      P1  H  7997  8009       L1     5  0.94

> <Gold.Chemscore.Hbond.Weighted>
-3.2140

> <Gold.Chemscore.Metal.Weighted>
-0.0000

> <Gold.Chemscore.Lipo.Weighted>
-12.7018

> <Gold.Chemscore.Internal_Hbond.Weighted>
0.0000

> <Gold.Chemscore.DEClash.Weighted>
0.0376

> <Gold.Chemscore.DEInternal.Weighted>
1.1744

> <Gold.Chemscore.Rot.Weighted>
4.3068

> <Gold.Chemscore.Internal.Correction.Weighted>
   9.000000E+99

> <Gold.Protein.RotatedTorsions>
[ 6907 6896 6895 6894 ] final   11.57 input  -60.11 | X-H torsion
[ 7974 7965 7964 7962 ] final  122.35 input  175.53 | X-H torsion
[ 8008 7997 7996 7995 ] final  132.67 input   59.86 | X-H torsion
[ 10167 10162 10161 10158 ] final -166.59 input  -65.29 | X-H torsion
[ 10718 10713 10712 10709 ] final   40.17 input   66.30 | X-H torsion
[ 10763 10752 10751 10750 ] final -145.42 input  -60.55 | X-H torsion
[ 11005 11000 10999 10996 ] final -173.38 input  -57.11 | X-H torsion

> <Gold.Protein.ActiveResidues>
 VAL166  LYS551  ARG553  GLY616  TRP617  ASP618  TYR619  PRO620  LYS621  CYS622 
 ASP623  PHE694  ASN695  SER759  ASP760  ASP761  ALA762  ILE779  LEU786  VAL792 
 PHE793  MET794  SER795  GLU796  ALA797  LYS798  CYS799  TRP800  GLU811  SER814 

> <Gold.Protein.RotatedAtoms>
  151.7565  135.0820  160.0338 H   0  0  0  0  0  0  0  0  0  0  0  0  # atno 6907 bound_to 6896
  152.3382  133.6032  159.5866 H   0  0  0  0  0  0  0  0  0  0  0  0  # atno 6908 bound_to 6896
  150.7463  133.9679  159.3578 H   0  0  0  0  0  0  0  0  0  0  0  0  # atno 6909 bound_to 6896
  145.1086  139.3468  143.4775 H   0  0  0  0  0  0  0  0  0  0  0  0  # atno 7974 bound_to 7965
  156.2985  140.2540  156.3127 H   0  0  0  0  0  0  0  0  0  0  0  0  # atno 8008 bound_to 7997
  154.9311  140.0398  157.2067 H   0  0  0  0  0  0  0  0  0  0  0  0  # atno 8009 bound_to 7997
  154.8217  140.2861  155.5786 H   0  0  0  0  0  0  0  0  0  0  0  0  # atno 8010 bound_to 7997
  139.6105  144.0825  152.1837 H   0  0  0  0  0  0  0  0  0  0  0  0  # atno 10167 bound_to 10162
  157.3791  130.7743  149.7178 H   0  0  0  0  0  0  0  0  0  0  0  0  # atno 10718 bound_to 10713
  154.8384  135.3414  154.6501 H   0  0  0  0  0  0  0  0  0  0  0  0  # atno 10763 bound_to 10752
  153.7113  135.6964  153.5041 H   0  0  0  0  0  0  0  0  0  0  0  0  # atno 10764 bound_to 10752
  153.2449  135.4372  155.0691 H   0  0  0  0  0  0  0  0  0  0  0  0  # atno 10765 bound_to 10752
  140.4864  134.6026  157.4938 H   0  0  0  0  0  0  0  0  0  0  0  0  # atno 11005 bound_to 11000
  146.3527  140.0995  142.8608 LP  0  0  0  0  0  0  0  0  0  0  0  0  # atno 17320 bound_to 7965
  145.0873  140.9261  143.4790 LP  0  0  0  0  0  0  0  0  0  0  0  0  # atno 17321 bound_to 7965
  140.0442  144.5983  150.7386 LP  0  0  0  0  0  0  0  0  0  0  0  0  # atno 17342 bound_to 10162
  140.7315  143.2695  151.3933 LP  0  0  0  0  0  0  0  0  0  0  0  0  # atno 17343 bound_to 10162
  155.9772  130.4066  150.3730 LP  0  0  0  0  0  0  0  0  0  0  0  0  # atno 17370 bound_to 10713
  157.1832  131.0397  151.2738 LP  0  0  0  0  0  0  0  0  0  0  0  0  # atno 17371 bound_to 10713
  139.9795  134.7160  155.9886 LP  0  0  0  0  0  0  0  0  0  0  0  0  # atno 17394 bound_to 11000
  141.1506  133.6549  156.4001 LP  0  0  0  0  0  0  0  0  0  0  0  0  # atno 17395 bound_to 11000

$$$$
