AV-unprocessed.smi:1199|AV-procd|sdf|5014|dock9
  -GOLD-   22720 4 33D 1   1.00000     0.00000
 Structure written by MMmdl.
 40 41  0  0  0  0  0  0  0  0  2 V2000
  152.5579  137.8537  157.4693 C   0  0  0  0  0  0  0  0  0  0  0  0
  151.5767  138.9811  157.8302 C   0  0  2  0  0  0  0  0  0  0  0  0
  152.0450  139.7537  159.0829 C   0  0  0  0  0  0  0  0  0  0  0  0
  151.6741  141.1697  159.1313 N   0  0  0  0  0  0  0  0  0  0  0  0
  152.5988  141.9709  159.9311 C   0  0  0  0  0  0  0  0  0  0  0  0
  152.2240  143.4626  159.9333 C   0  0  0  0  0  0  0  0  0  0  0  0
  152.1538  143.9441  158.5955 O   0  0  0  0  0  0  0  0  0  0  0  0
  151.2183  143.2211  157.8029 C   0  0  0  0  0  0  0  0  0  0  0  0
  151.6038  141.7323  157.7867 C   0  0  0  0  0  0  0  0  0  0  0  0
  150.2565  138.4111  158.0775 N   0  0  0  0  0  0  0  0  0  0  0  0
  149.9407  137.5213  159.0329 C   0  0  0  0  0  0  0  0  0  0  0  0
  150.7489  137.1233  159.8716 O   0  0  0  0  0  0  0  0  0  0  0  0
  148.5044  136.9695  159.0437 C   0  0  0  0  0  0  0  0  0  0  0  0
  148.1178  136.3121  160.3034 N   0  0  0  0  0  0  0  0  0  0  0  0
  148.0017  137.2243  161.4376 N   0  5  0  0  0  0  0  0  0  0  0  0
  147.5838  136.7398  162.6371 C   0  0  0  0  0  0  0  0  0  0  0  0
  147.4402  137.4503  163.6292 O   0  0  0  0  0  0  0  0  0  0  0  0
  147.2994  135.3181  162.7392 C   0  0  0  0  0  0  0  0  0  0  0  0
  147.4345  134.4956  161.6805 C   0  0  0  0  0  0  0  0  0  0  0  0
  147.8631  134.9741  160.3721 C   0  0  0  0  0  0  0  0  0  0  0  0
  147.9707  134.2311  159.3967 O   0  0  0  0  0  0  0  0  0  0  0  0
  153.5524  138.2500  157.2633 H   0  0  0  0  0  0  0  0  0  0  0  0
  152.2326  137.3149  156.5789 H   0  0  0  0  0  0  0  0  0  0  0  0
  152.6483  137.1314  158.2813 H   0  0  0  0  0  0  0  0  0  0  0  0
  151.5295  139.6718  156.9861 H   0  0  0  0  0  0  0  0  0  0  0  0
  151.7103  139.2434  159.9878 H   0  0  0  0  0  0  0  0  0  0  0  0
  153.1341  139.7000  159.1096 H   0  0  0  0  0  0  0  0  0  0  0  0
  152.6047  141.6209  160.9624 H   0  0  0  0  0  0  0  0  0  0  0  0
  153.6150  141.8534  159.5516 H   0  0  0  0  0  0  0  0  0  0  0  0
  151.2671  143.6185  160.4336 H   0  0  0  0  0  0  0  0  0  0  0  0
  152.9698  144.0380  160.4822 H   0  0  0  0  0  0  0  0  0  0  0  0
  150.2112  143.3558  158.1998 H   0  0  0  0  0  0  0  0  0  0  0  0
  151.2211  143.6252  156.7906 H   0  0  0  0  0  0  0  0  0  0  0  0
  152.5667  141.6168  157.2864 H   0  0  0  0  0  0  0  0  0  0  0  0
  150.8758  141.1798  157.1916 H   0  0  0  0  0  0  0  0  0  0  0  0
  149.5177  138.6850  157.4448 H   0  0  0  0  0  0  0  0  0  0  0  0
  147.8115  137.7819  158.8183 H   0  0  0  0  0  0  0  0  0  0  0  0
  148.4087  136.2695  158.2120 H   0  0  0  0  0  0  0  0  0  0  0  0
  146.9751  134.9118  163.6858 H   0  0  0  0  0  0  0  0  0  0  0  0
  147.2132  133.4458  161.8024 H   0  0  0  0  0  0  0  0  0  0  0  0
  1  2  1  0  0  0  0
  1 22  1  0  0  0  0
  1 23  1  0  0  0  0
  1 24  1  0  0  0  0
  2  3  1  0  0  0  0
  2 10  1  0  0  0  0
  2 25  1  0  0  0  0
  3  4  1  0  0  0  0
  3 26  1  0  0  0  0
  3 27  1  0  0  0  0
  4  9  1  0  0  0  0
  4  5  1  0  0  0  0
  5  6  1  0  0  0  0
  5 28  1  0  0  0  0
  5 29  1  0  0  0  0
  6  7  1  0  0  0  0
  6 30  1  0  0  0  0
  6 31  1  0  0  0  0
  7  8  1  0  0  0  0
  8  9  1  0  0  0  0
  8 32  1  0  0  0  0
  8 33  1  0  0  0  0
  9 34  1  0  0  0  0
  9 35  1  0  0  0  0
 10 11  1  0  0  0  0
 10 36  1  0  0  0  0
 11 12  2  0  0  0  0
 11 13  1  0  0  0  0
 13 37  1  0  0  0  0
 13 38  1  0  0  0  0
 13 14  1  0  0  0  0
 14 15  1  0  0  0  0
 14 20  1  0  0  0  0
 15 16  1  0  0  0  0
 16 17  2  0  0  0  0
 16 18  1  0  0  0  0
 18 39  1  0  0  0  0
 18 19  2  0  0  0  0
 19 40  1  0  0  0  0
 19 20  1  0  0  0  0
 20 21  2  0  0  0  0
M  CHG  1  15  -1
M  END
> <s_m_source_file>
AV-unprocessed.smi

> <i_m_source_file_index>
1199

> <i_lp_mmshare_version>
43012

> <i_f3d_flags>
0

> <s_epik_input>
W0NIMl0xW0NIMl1PW0NIMl1bQ0gyXU4xW0NIMl1bQ0BASF0oW0NIM10pW05IXUMoPU8pW0NIMl1uMltuSF1jKD1PKVtjSF1bY0hdYzI9Tw==

> <s_epik_cmdline>
J2VwaWtfcHl0aG9uJywgJy1waCcsICc3LjAnLCAnLXRuJywgJzgnLCAnLW1hJywgJzIwMCcsICctbWV0YWxfYmluZGluZycsICctaW1hZScsICc8aW5maWxlLm1hZT4nLCAnLW9tYWUnLCAnPG91dGZpbGUubWFlPic=

> <r_lp_tautomer_probability>
1

> <r_epik_Ionization_Penalty>
0.334996

> <r_epik_Ionization_Penalty_Charging>
0.0976136

> <r_epik_Ionization_Penalty_Neutral>
0.237382

> <r_epik_State_Penalty>
0.26804

> <r_epik_Charging_Adjusted_Penalty>
0.365653

> <i_epik_Tot_Q>
-1

> <i_epik_Tot_abs_Q>
1

> <r_epik_Metal_State_Penalty>
0.26804

> <b_epik_Metal_Only>
0

> <s_lp_Force_Field>
OPLS_2005

> <r_lp_Energy>
38.5668

> <b_lp_Chiralities_Consistent>
1

> <s_lp_Variant>
AV-unprocessed.smi:1199-1

> <Gold.Version>
5.8.1

> <Gold.Id.Protein>
6NUR|6NUR_protein|mol2

> <Gold.PLP.Fitness>
48.3130

> <Gold.PLP.PLP>
-37.3543

> <Gold.PLP.part.hbond>
-4.1081

> <Gold.PLP.part.metal>
0.0000

> <Gold.PLP.part.buried>
-3.9732

> <Gold.PLP.part.nonpolar>
-30.2227

> <Gold.PLP.part.repulsive>
0.1479

> <Gold.PLP.ligand.clash>
0.0000

> <Gold.PLP.ligand.torsion>
0.9933

> <Gold.PLP.Chemscore.Hbond>
4.3120

> <Gold.PLP.Chemscore.CHOScore>
0.0000

> <Gold.PLP.Chemscore.Metal>
0.0000

> <Gold.Chemscore.Hbonds>
donor molecule, donor type, donor heavy atom, donor atom, acceptor molecule, acceptor atom, score
      P1  H  6896  6909       L1    12  0.96
      P1  H  6931  6943       L1    15  1.98
      P1  H  6934  6947       L1    15  1.27

> <Gold.PLP.Chemscore.Internal.Correction>
0.0093

> <Gold.Rescore>
     Score         DG    S(hbond)    S(metal)    S(lipo)     H(rot)  DE(clash)    DE(int)     intcor
     12.46     -15.05       2.13        0.00      71.38       2.30       0.22       2.37       ----

> <Gold.Chemscore.Fitness>
12.4632

> <Gold.Chemscore.DG>
-15.0540

> <Gold.Chemscore.ZeroCoef>
-5.4800

> <Gold.Chemscore.Hbond>
2.1255

> <Gold.Chemscore.Metal>
0.0000

> <Gold.Chemscore.Lipo>
71.3786

> <Gold.Chemscore.Internal_Hbond>
0.0000

> <Gold.Chemscore.DEClash>
0.2222

> <Gold.Chemscore.DEInternal>
2.3686

> <Gold.Chemscore.Rot>
2.2955

> <Gold.Chemscore.Internal.Correction>
   9.000000E+99

> <Gold.Chemscore.Hbonds>
donor molecule, donor type, donor heavy atom, donor atom, acceptor molecule, acceptor atom, score
      P1  H  6896  6909       L1    12  0.88
      P1  H  6931  6943       L1    15  0.23
      P1  H  6934  6947       L1    15  0.47

> <Gold.Chemscore.Hbond.Weighted>
-7.0993

> <Gold.Chemscore.Metal.Weighted>
-0.0000

> <Gold.Chemscore.Lipo.Weighted>
-8.3513

> <Gold.Chemscore.Internal_Hbond.Weighted>
0.0000

> <Gold.Chemscore.DEClash.Weighted>
0.2222

> <Gold.Chemscore.DEInternal.Weighted>
2.3686

> <Gold.Chemscore.Rot.Weighted>
5.8766

> <Gold.Chemscore.Internal.Correction.Weighted>
   9.000000E+99

> <Gold.Protein.RotatedTorsions>
[ 6907 6896 6895 6894 ] final  102.09 input  -60.11 | X-H torsion
[ 7974 7965 7964 7962 ] final -143.33 input  175.53 | X-H torsion
[ 8008 7997 7996 7995 ] final   95.00 input   59.86 | X-H torsion
[ 10167 10162 10161 10158 ] final -173.54 input  -65.29 | X-H torsion
[ 10718 10713 10712 10709 ] final  152.01 input   66.30 | X-H torsion
[ 10763 10752 10751 10750 ] final  -93.16 input  -60.55 | X-H torsion
[ 11005 11000 10999 10996 ] final   57.62 input  -57.11 | X-H torsion

> <Gold.Protein.ActiveResidues>
 VAL166  LYS551  ARG553  GLY616  TRP617  ASP618  TYR619  PRO620  LYS621  CYS622 
 ASP623  PHE694  ASN695  SER759  ASP760  ASP761  ALA762  ILE779  LEU786  VAL792 
 PHE793  MET794  SER795  GLU796  ALA797  LYS798  CYS799  TRP800  GLU811  SER814 

> <Gold.Protein.RotatedAtoms>
  152.5333  134.0027  159.7901 H   0  0  0  0  0  0  0  0  0  0  0  0  # atno 6907 bound_to 6896
  151.0243  133.5840  159.2675 H   0  0  0  0  0  0  0  0  0  0  0  0  # atno 6908 bound_to 6896
  151.2868  135.0737  159.9243 H   0  0  0  0  0  0  0  0  0  0  0  0  # atno 6909 bound_to 6896
  144.8377  140.5847  143.5473 H   0  0  0  0  0  0  0  0  0  0  0  0  # atno 7974 bound_to 7965
  156.0641  140.3292  155.7496 H   0  0  0  0  0  0  0  0  0  0  0  0  # atno 8008 bound_to 7997
  155.5409  140.0601  157.2887 H   0  0  0  0  0  0  0  0  0  0  0  0  # atno 8009 bound_to 7997
  154.4496  140.1911  156.0578 H   0  0  0  0  0  0  0  0  0  0  0  0  # atno 8010 bound_to 7997
  139.5682  144.1704  152.1345 H   0  0  0  0  0  0  0  0  0  0  0  0  # atno 10167 bound_to 10162
  157.2634  131.0802  151.1650 H   0  0  0  0  0  0  0  0  0  0  0  0  # atno 10718 bound_to 10713
  154.6932  135.5204  153.8422 H   0  0  0  0  0  0  0  0  0  0  0  0  # atno 10763 bound_to 10752
  153.0648  135.6581  154.0390 H   0  0  0  0  0  0  0  0  0  0  0  0  # atno 10764 bound_to 10752
  154.0260  135.2989  155.3354 H   0  0  0  0  0  0  0  0  0  0  0  0  # atno 10765 bound_to 10752
  140.0439  134.5834  155.9347 H   0  0  0  0  0  0  0  0  0  0  0  0  # atno 11005 bound_to 11000
  145.4760  139.1499  143.3788 LP  0  0  0  0  0  0  0  0  0  0  0  0  # atno 17320 bound_to 7965
  146.2674  140.4894  142.8828 LP  0  0  0  0  0  0  0  0  0  0  0  0  # atno 17321 bound_to 7965
  140.1231  144.5355  150.6850 LP  0  0  0  0  0  0  0  0  0  0  0  0  # atno 17342 bound_to 10162
  140.6967  143.2408  151.4982 LP  0  0  0  0  0  0  0  0  0  0  0  0  # atno 17343 bound_to 10162
  157.3151  130.6909  149.6237 LP  0  0  0  0  0  0  0  0  0  0  0  0  # atno 17370 bound_to 10713
  155.9664  130.4352  150.5081 LP  0  0  0  0  0  0  0  0  0  0  0  0  # atno 17371 bound_to 10713
  141.1897  133.6566  156.5379 LP  0  0  0  0  0  0  0  0  0  0  0  0  # atno 17394 bound_to 11000
  140.4025  134.7344  157.4788 LP  0  0  0  0  0  0  0  0  0  0  0  0  # atno 17395 bound_to 11000

$$$$
