AV-unprocessed.smi:3191|AV-procd|sdf|12197|dock1
  -GOLD-   2272018 33D 1   1.00000     0.00000
 Structure written by MMmdl.
 36 37  0  0  0  0  0  0  0  0  2 V2000
  152.1181  139.8134  155.7879 C   0  0  0  0  0  0  0  0  0  0  0  0
  151.0101  139.2644  155.0029 N   0  0  0  0  0  0  0  0  0  0  0  0
  151.0350  138.0197  154.5102 C   0  0  0  0  0  0  0  0  0  0  0  0
  149.8852  137.8398  153.8569 N   0  3  0  0  0  0  0  0  0  0  0  0
  149.1214  138.9719  153.9320 C   0  0  0  0  0  0  0  0  0  0  0  0
  149.8326  139.8921  154.6653 C   0  0  0  0  0  0  0  0  0  0  0  0
  149.5193  141.2969  155.0812 C   0  0  0  0  0  0  0  0  0  0  0  0
  149.1924  141.4208  156.5805 C   0  0  0  0  0  0  0  0  0  0  0  0
  149.7027  142.6676  157.1386 N   0  0  0  0  0  0  0  0  0  0  0  0
  150.6756  142.7597  158.0583 C   0  0  0  0  0  0  0  0  0  0  0  0
  151.2439  141.7722  158.5259 O   0  0  0  0  0  0  0  0  0  0  0  0
  151.0063  144.1686  158.4443 C   0  0  2  0  0  0  0  0  0  0  0  0
  152.3956  144.6831  158.1278 C   0  0  0  0  0  0  0  0  0  0  0  0
  151.9997  144.4527  159.5693 C   0  0  0  0  0  0  0  0  0  0  0  0
  151.7286  145.6441  160.4712 C   0  0  0  0  0  0  0  0  0  0  0  0
  152.6879  143.3514  160.3664 C   0  0  0  0  0  0  0  0  0  0  0  0
  150.1885  144.8811  158.3448 H   0  0  0  0  0  0  0  0  0  0  0  0
  152.9328  139.0906  155.8486 H   0  0  0  0  0  0  0  0  0  0  0  0
  151.7633  140.0435  156.7927 H   0  0  0  0  0  0  0  0  0  0  0  0
  152.4790  140.7244  155.3099 H   0  0  0  0  0  0  0  0  0  0  0  0
  151.8266  137.2996  154.6185 H   0  0  0  0  0  0  0  0  0  0  0  0
  148.1476  139.0376  153.4687 H   0  0  0  0  0  0  0  0  0  0  0  0
  150.3727  141.9281  154.8306 H   0  0  0  0  0  0  0  0  0  0  0  0
  148.6772  141.6561  154.4884 H   0  0  0  0  0  0  0  0  0  0  0  0
  148.1127  141.4032  156.7314 H   0  0  0  0  0  0  0  0  0  0  0  0
  149.6007  140.5744  157.1357 H   0  0  0  0  0  0  0  0  0  0  0  0
  149.2843  143.5241  156.8042 H   0  0  0  0  0  0  0  0  0  0  0  0
  153.1177  143.9985  157.6862 H   0  0  0  0  0  0  0  0  0  0  0  0
  152.4698  145.7093  157.7736 H   0  0  0  0  0  0  0  0  0  0  0  0
  152.6626  146.0393  160.8717 H   0  0  0  0  0  0  0  0  0  0  0  0
  151.0876  145.3516  161.3033 H   0  0  0  0  0  0  0  0  0  0  0  0
  151.2310  146.4424  159.9199 H   0  0  0  0  0  0  0  0  0  0  0  0
  153.5138  143.7619  160.9481 H   0  0  0  0  0  0  0  0  0  0  0  0
  153.1019  142.5820  159.7160 H   0  0  0  0  0  0  0  0  0  0  0  0
  151.9811  142.8843  161.0526 H   0  0  0  0  0  0  0  0  0  0  0  0
  149.6196  136.9881  153.3784 H   0  0  0  0  0  0  0  0  0  0  0  0
  1  2  1  0  0  0  0
  1 18  1  0  0  0  0
  1 19  1  0  0  0  0
  1 20  1  0  0  0  0
  2  6  1  0  0  0  0
  2  3  1  0  0  0  0
  3  4  2  0  0  0  0
  3 21  1  0  0  0  0
  4  5  1  0  0  0  0
  4 36  1  0  0  0  0
  5  6  2  0  0  0  0
  5 22  1  0  0  0  0
  6  7  1  0  0  0  0
  7  8  1  0  0  0  0
  7 23  1  0  0  0  0
  7 24  1  0  0  0  0
  8  9  1  0  0  0  0
  8 25  1  0  0  0  0
  8 26  1  0  0  0  0
  9 10  1  0  0  0  0
  9 27  1  0  0  0  0
 10 11  2  0  0  0  0
 10 12  1  0  0  0  0
 12 17  1  0  0  0  0
 12 14  1  0  0  0  0
 12 13  1  0  0  0  0
 13 14  1  0  0  0  0
 13 28  1  0  0  0  0
 13 29  1  0  0  0  0
 14 15  1  0  0  0  0
 14 16  1  0  0  0  0
 15 30  1  0  0  0  0
 15 31  1  0  0  0  0
 15 32  1  0  0  0  0
 16 33  1  0  0  0  0
 16 34  1  0  0  0  0
 16 35  1  0  0  0  0
M  CHG  1   4   1
M  END
> <s_m_source_file>
AV-unprocessed.smi

> <i_m_source_file_index>
3191

> <i_lp_mmshare_version>
43012

> <i_f3d_flags>
0

> <s_epik_input>
W0NIM11uMVtjSF1uW2NIXWMxW0NIMl1bQ0gyXVtOSF1DKD1PKVtDQEBIXShbQ0gyXTIpQzIoW0NIM10pW0NIM10=

> <s_epik_cmdline>
J2VwaWtfcHl0aG9uJywgJy1waCcsICc3LjAnLCAnLXRuJywgJzgnLCAnLW1hJywgJzIwMCcsICctbWV0YWxfYmluZGluZycsICctaW1hZScsICc8aW5maWxlLm1hZT4nLCAnLW9tYWUnLCAnPG91dGZpbGUubWFlPic=

> <r_lp_tautomer_probability>
1

> <r_epik_Ionization_Penalty>
0.153817

> <r_epik_Ionization_Penalty_Charging>
0

> <r_epik_Ionization_Penalty_Neutral>
0.153817

> <r_epik_State_Penalty>
0.14311

> <r_epik_Charging_Adjusted_Penalty>
0.14311

> <i_epik_Tot_Q>
1

> <i_epik_Tot_abs_Q>
1

> <r_epik_Metal_State_Penalty>
0.464688

> <b_epik_Metal_Only>
0

> <s_lp_Force_Field>
OPLS_2005

> <r_lp_Energy>
13.3662

> <b_lp_Chiralities_Consistent>
1

> <s_lp_Variant>
AV-unprocessed.smi:3191-2

> <Gold.Version>
5.8.1

> <Gold.Id.Protein>
6NUR|6NUR_protein|mol2

> <Gold.PLP.Fitness>
50.8270

> <Gold.PLP.PLP>
-42.6317

> <Gold.PLP.part.hbond>
-2.3113

> <Gold.PLP.part.metal>
0.0000

> <Gold.PLP.part.buried>
-1.5572

> <Gold.PLP.part.nonpolar>
-38.7313

> <Gold.PLP.part.repulsive>
0.0646

> <Gold.PLP.ligand.clash>
0.0000

> <Gold.PLP.ligand.torsion>
0.4546

> <Gold.PLP.Chemscore.Hbond>
3.0000

> <Gold.PLP.Chemscore.CHOScore>
0.0000

> <Gold.PLP.Chemscore.Metal>
0.0000

> <Gold.Chemscore.Hbonds>
donor molecule, donor type, donor heavy atom, donor atom, acceptor molecule, acceptor atom, score
      L1  H     4    36       P1  7948  1.89
      L1  H     9    27       P1  8028  1.00

> <Gold.PLP.Chemscore.Internal.Correction>
0.1046

> <Gold.Rescore>
     Score         DG    S(hbond)    S(metal)    S(lipo)     H(rot)  DE(clash)    DE(int)     intcor
     16.34     -18.19       1.84        0.00      94.42       1.76       0.08       1.77       ----

> <Gold.Chemscore.Fitness>
16.3429

> <Gold.Chemscore.DG>
-18.1890

> <Gold.Chemscore.ZeroCoef>
-5.4800

> <Gold.Chemscore.Hbond>
1.8434

> <Gold.Chemscore.Metal>
0.0000

> <Gold.Chemscore.Lipo>
94.4229

> <Gold.Chemscore.Internal_Hbond>
0.0000

> <Gold.Chemscore.DEClash>
0.0811

> <Gold.Chemscore.DEInternal>
1.7651

> <Gold.Chemscore.Rot>
1.7561

> <Gold.Chemscore.Internal.Correction>
   9.000000E+99

> <Gold.Chemscore.Hbonds>
donor molecule, donor type, donor heavy atom, donor atom, acceptor molecule, acceptor atom, score
      L1  H     4    36       P1  7948  0.64
      L1  H     9    27       P1  8028  0.93

> <Gold.Chemscore.Hbond.Weighted>
-6.1571

> <Gold.Chemscore.Metal.Weighted>
-0.0000

> <Gold.Chemscore.Lipo.Weighted>
-11.0475

> <Gold.Chemscore.Internal_Hbond.Weighted>
0.0000

> <Gold.Chemscore.DEClash.Weighted>
0.0811

> <Gold.Chemscore.DEInternal.Weighted>
1.7651

> <Gold.Chemscore.Rot.Weighted>
4.4956

> <Gold.Chemscore.Internal.Correction.Weighted>
   9.000000E+99

> <Gold.Protein.RotatedTorsions>
[ 6907 6896 6895 6894 ] final   48.94 input  -60.11 | X-H torsion
[ 7974 7965 7964 7962 ] final -157.85 input  175.53 | X-H torsion
[ 8008 7997 7996 7995 ] final -115.60 input   59.86 | X-H torsion
[ 10167 10162 10161 10158 ] final -103.19 input  -65.29 | X-H torsion
[ 10718 10713 10712 10709 ] final -114.00 input   66.30 | X-H torsion
[ 10763 10752 10751 10750 ] final -115.34 input  -60.55 | X-H torsion
[ 11005 11000 10999 10996 ] final   71.44 input  -57.11 | X-H torsion

> <Gold.Protein.ActiveResidues>
 VAL166  LYS551  ARG553  GLY616  TRP617  ASP618  TYR619  PRO620  LYS621  CYS622 
 ASP623  PHE694  ASN695  SER759  ASP760  ASP761  ALA762  ILE779  LEU786  VAL792 
 PHE793  MET794  SER795  GLU796  ALA797  LYS798  CYS799  TRP800  GLU811  SER814 

> <Gold.Protein.RotatedAtoms>
  152.2851  134.7784  160.0388 H   0  0  0  0  0  0  0  0  0  0  0  0  # atno 6907 bound_to 6896
  151.8350  133.3409  159.3633 H   0  0  0  0  0  0  0  0  0  0  0  0  # atno 6908 bound_to 6896
  150.7206  134.5375  159.5775 H   0  0  0  0  0  0  0  0  0  0  0  0  # atno 6909 bound_to 6896
  144.7530  140.3910  143.6033 H   0  0  0  0  0  0  0  0  0  0  0  0  # atno 7974 bound_to 7965
  155.0546  140.0393  157.2555 H   0  0  0  0  0  0  0  0  0  0  0  0  # atno 8008 bound_to 7997
  154.7109  140.2692  155.6606 H   0  0  0  0  0  0  0  0  0  0  0  0  # atno 8009 bound_to 7997
  156.2789  140.2722  156.1751 H   0  0  0  0  0  0  0  0  0  0  0  0  # atno 8010 bound_to 7997
  140.2227  143.3664  152.0956 H   0  0  0  0  0  0  0  0  0  0  0  0  # atno 10167 bound_to 10162
  156.0802  130.6003  150.8717 H   0  0  0  0  0  0  0  0  0  0  0  0  # atno 10718 bound_to 10713
  154.8477  135.4385  154.1648 H   0  0  0  0  0  0  0  0  0  0  0  0  # atno 10763 bound_to 10752
  153.2776  135.6951  153.7424 H   0  0  0  0  0  0  0  0  0  0  0  0  # atno 10764 bound_to 10752
  153.6640  135.3430  155.3110 H   0  0  0  0  0  0  0  0  0  0  0  0  # atno 10765 bound_to 10752
  139.9543  134.7171  156.0788 H   0  0  0  0  0  0  0  0  0  0  0  0  # atno 11005 bound_to 11000
  145.6876  139.1632  143.2665 LP  0  0  0  0  0  0  0  0  0  0  0  0  # atno 17320 bound_to 7965
  146.1506  140.6931  142.9324 LP  0  0  0  0  0  0  0  0  0  0  0  0  # atno 17321 bound_to 7965
  139.5138  144.6939  151.5685 LP  0  0  0  0  0  0  0  0  0  0  0  0  # atno 17342 bound_to 10162
  140.6243  143.9198  150.6552 LP  0  0  0  0  0  0  0  0  0  0  0  0  # atno 17343 bound_to 10162
  157.5915  131.0944  150.9110 LP  0  0  0  0  0  0  0  0  0  0  0  0  # atno 17370 bound_to 10713
  156.9285  130.5341  149.5279 LP  0  0  0  0  0  0  0  0  0  0  0  0  # atno 17371 bound_to 10713
  141.1212  133.6612  156.3220 LP  0  0  0  0  0  0  0  0  0  0  0  0  # atno 17394 bound_to 11000
  140.5645  134.5901  157.5442 LP  0  0  0  0  0  0  0  0  0  0  0  0  # atno 17395 bound_to 11000

$$$$
