AV-unprocessed.smi:1349|AV-procd|sdf|5518|dock1
  -GOLD-   22720 5103D 1   1.00000     0.00000
 Structure written by MMmdl.
 42 44  0  0  0  0  0  0  0  0  1 V2000
  149.9104  138.9007  153.2783 O   0  0  0  0  0  0  0  0  0  0  0  0
  150.3619  138.5652  154.5739 C   0  0  0  0  0  0  0  0  0  0  0  0
  151.0959  139.7505  155.2177 C   0  0  0  0  0  0  0  0  0  0  0  0
  151.9618  139.3488  156.4238 C   0  0  0  0  0  0  0  0  0  0  0  0
  152.0797  140.4484  157.4400 C   0  0  0  0  0  0  0  0  0  0  0  0
  151.6457  141.6799  157.1652 N   0  0  0  0  0  0  0  0  0  0  0  0
  151.9441  142.3772  158.3179 C   0  0  0  0  0  0  0  0  0  0  0  0
  151.7409  143.7365  158.6478 C   0  0  0  0  0  0  0  0  0  0  0  0
  152.1347  144.2318  159.9081 C   0  0  0  0  0  0  0  0  0  0  0  0
  152.7350  143.3766  160.8546 C   0  0  0  0  0  0  0  0  0  0  0  0
  152.9445  142.0184  160.5461 C   0  0  0  0  0  0  0  0  0  0  0  0
  152.5503  141.5289  159.2859 C   0  0  0  0  0  0  0  0  0  0  0  0
  152.6094  140.2761  158.6814 N   0  0  0  0  0  0  0  0  0  0  0  0
  153.1372  139.0703  159.3084 C   0  0  0  0  0  0  0  0  0  0  0  0
  152.0759  137.9725  159.4617 C   0  0  0  0  0  0  0  0  0  0  0  0
  152.6829  136.7539  159.8700 O   0  0  0  0  0  0  0  0  0  0  0  0
  153.2714  136.7075  161.1167 C   0  0  0  0  0  0  0  0  0  0  0  0
  153.8844  135.4945  161.4949 C   0  0  0  0  0  0  0  0  0  0  0  0
  154.5080  135.3603  162.7503 C   0  0  0  0  0  0  0  0  0  0  0  0
  154.5266  136.4450  163.6458 C   0  0  0  0  0  0  0  0  0  0  0  0
  153.9202  137.6616  163.2828 C   0  0  0  0  0  0  0  0  0  0  0  0
  153.2953  137.7947  162.0273 C   0  0  0  0  0  0  0  0  0  0  0  0
  149.6346  138.1094  152.8414 H   0  0  0  0  0  0  0  0  0  0  0  0
  149.4973  138.2896  155.1782 H   0  0  0  0  0  0  0  0  0  0  0  0
  151.0102  137.6900  154.5193 H   0  0  0  0  0  0  0  0  0  0  0  0
  151.7066  140.2563  154.4703 H   0  0  0  0  0  0  0  0  0  0  0  0
  150.3551  140.4821  155.5421 H   0  0  0  0  0  0  0  0  0  0  0  0
  151.5254  138.4779  156.9140 H   0  0  0  0  0  0  0  0  0  0  0  0
  152.9427  139.0329  156.0777 H   0  0  0  0  0  0  0  0  0  0  0  0
  151.2817  144.3988  157.9290 H   0  0  0  0  0  0  0  0  0  0  0  0
  151.9752  145.2726  160.1494 H   0  0  0  0  0  0  0  0  0  0  0  0
  153.0345  143.7633  161.8178 H   0  0  0  0  0  0  0  0  0  0  0  0
  153.4039  141.3614  161.2694 H   0  0  0  0  0  0  0  0  0  0  0  0
  153.9496  138.6964  158.6848 H   0  0  0  0  0  0  0  0  0  0  0  0
  153.5972  139.3077  160.2656 H   0  0  0  0  0  0  0  0  0  0  0  0
  151.3299  138.2880  160.1929 H   0  0  0  0  0  0  0  0  0  0  0  0
  151.5699  137.8320  158.5055 H   0  0  0  0  0  0  0  0  0  0  0  0
  153.8754  134.6540  160.8178 H   0  0  0  0  0  0  0  0  0  0  0  0
  154.9715  134.4245  163.0255 H   0  0  0  0  0  0  0  0  0  0  0  0
  155.0047  136.3440  164.6090 H   0  0  0  0  0  0  0  0  0  0  0  0
  153.9340  138.4957  163.9687 H   0  0  0  0  0  0  0  0  0  0  0  0
  152.8418  138.7442  161.7875 H   0  0  0  0  0  0  0  0  0  0  0  0
  1  2  1  0  0  0  0
  1 23  1  0  0  0  0
  2  3  1  0  0  0  0
  2 24  1  0  0  0  0
  2 25  1  0  0  0  0
  3  4  1  0  0  0  0
  3 26  1  0  0  0  0
  3 27  1  0  0  0  0
  4  5  1  0  0  0  0
  4 28  1  0  0  0  0
  4 29  1  0  0  0  0
  5 13  1  0  0  0  0
  5  6  2  0  0  0  0
  6  7  1  0  0  0  0
  7 12  2  0  0  0  0
  7  8  1  0  0  0  0
  8  9  2  0  0  0  0
  8 30  1  0  0  0  0
  9 10  1  0  0  0  0
  9 31  1  0  0  0  0
 10 11  2  0  0  0  0
 10 32  1  0  0  0  0
 11 12  1  0  0  0  0
 11 33  1  0  0  0  0
 12 13  1  0  0  0  0
 13 14  1  0  0  0  0
 14 15  1  0  0  0  0
 14 34  1  0  0  0  0
 14 35  1  0  0  0  0
 15 16  1  0  0  0  0
 15 36  1  0  0  0  0
 15 37  1  0  0  0  0
 16 17  1  0  0  0  0
 17 22  1  0  0  0  0
 17 18  2  0  0  0  0
 18 19  1  0  0  0  0
 18 38  1  0  0  0  0
 19 20  2  0  0  0  0
 19 39  1  0  0  0  0
 20 21  1  0  0  0  0
 20 40  1  0  0  0  0
 21 22  2  0  0  0  0
 21 41  1  0  0  0  0
 22 42  1  0  0  0  0
M  END
> <s_m_source_file>
AV-unprocessed.smi

> <i_m_source_file_index>
1349

> <i_lp_mmshare_version>
43012

> <i_f3d_flags>
0

> <s_epik_input>
W09IXVtDSDJdW0NIMl1bQ0gyXWMobjEpbihjKGMxMilbY0hdW2NIXVtjSF1bY0hdMilbQ0gyXVtDSDJdT2MzW2NIXVtjSF1bY0hdW2NIXVtjSF0z

> <s_epik_cmdline>
J2VwaWtfcHl0aG9uJywgJy1waCcsICc3LjAnLCAnLXRuJywgJzgnLCAnLW1hJywgJzIwMCcsICctbWV0YWxfYmluZGluZycsICctaW1hZScsICc8aW5maWxlLm1hZT4nLCAnLW9tYWUnLCAnPG91dGZpbGUubWFlPic=

> <r_lp_tautomer_probability>
1

> <r_epik_Ionization_Penalty>
0.159315

> <r_epik_Ionization_Penalty_Charging>
0

> <r_epik_Ionization_Penalty_Neutral>
0.159315

> <r_epik_State_Penalty>
0.148622

> <r_epik_Charging_Adjusted_Penalty>
0.148622

> <i_epik_Tot_Q>
0

> <i_epik_Tot_abs_Q>
0

> <r_epik_Metal_State_Penalty>
0.0001689

> <b_epik_Metal_Only>
0

> <s_lp_Force_Field>
OPLS_2005

> <r_lp_Energy>
15.4549

> <b_lp_Chiralities_Consistent>
1

> <s_lp_Variant>
AV-unprocessed.smi:1349-1

> <Gold.Version>
5.8.1

> <Gold.Id.Protein>
6NUR|6NUR_protein|mol2

> <Gold.PLP.Fitness>
51.0724

> <Gold.PLP.PLP>
-45.6845

> <Gold.PLP.part.hbond>
-3.0000

> <Gold.PLP.part.metal>
0.0000

> <Gold.PLP.part.buried>
-4.4202

> <Gold.PLP.part.nonpolar>
-37.7750

> <Gold.PLP.part.repulsive>
0.0266

> <Gold.PLP.ligand.clash>
0.0000

> <Gold.PLP.ligand.torsion>
0.3951

> <Gold.PLP.Chemscore.Hbond>
1.9913

> <Gold.PLP.Chemscore.CHOScore>
0.0000

> <Gold.PLP.Chemscore.Metal>
0.0000

> <Gold.Chemscore.Hbonds>
donor molecule, donor type, donor heavy atom, donor atom, acceptor molecule, acceptor atom, score
      L1  H     1    23       P1  7948  0.63
      P1  H  6896  6907       L1    16  0.65

> <Gold.PLP.Chemscore.Internal.Correction>
0.2042

> <Gold.Rescore>
     Score         DG    S(hbond)    S(metal)    S(lipo)     H(rot)  DE(clash)    DE(int)     intcor
     19.75     -20.38       1.69        0.00     132.09       2.42       0.05       0.57       ----

> <Gold.Chemscore.Fitness>
19.7520

> <Gold.Chemscore.DG>
-20.3777

> <Gold.Chemscore.ZeroCoef>
-5.4800

> <Gold.Chemscore.Hbond>
1.6882

> <Gold.Chemscore.Metal>
0.0000

> <Gold.Chemscore.Lipo>
132.0893

> <Gold.Chemscore.Internal_Hbond>
0.0000

> <Gold.Chemscore.DEClash>
0.0538

> <Gold.Chemscore.DEInternal>
0.5719

> <Gold.Chemscore.Rot>
2.4201

> <Gold.Chemscore.Internal.Correction>
   9.000000E+99

> <Gold.Chemscore.Hbonds>
donor molecule, donor type, donor heavy atom, donor atom, acceptor molecule, acceptor atom, score
      L1  H     1    23       P1  7948  0.44
      P1  H  6896  6907       L1    16  0.06

> <Gold.Chemscore.Hbond.Weighted>
-5.6386

> <Gold.Chemscore.Metal.Weighted>
-0.0000

> <Gold.Chemscore.Lipo.Weighted>
-15.4544

> <Gold.Chemscore.Internal_Hbond.Weighted>
0.0000

> <Gold.Chemscore.DEClash.Weighted>
0.0538

> <Gold.Chemscore.DEInternal.Weighted>
0.5719

> <Gold.Chemscore.Rot.Weighted>
6.1954

> <Gold.Chemscore.Internal.Correction.Weighted>
   9.000000E+99

> <Gold.Protein.RotatedTorsions>
[ 6907 6896 6895 6894 ] final   20.81 input  -60.11 | X-H torsion
[ 7974 7965 7964 7962 ] final  -61.87 input  175.53 | X-H torsion
[ 8008 7997 7996 7995 ] final  -95.59 input   59.86 | X-H torsion
[ 10167 10162 10161 10158 ] final  -54.06 input  -65.29 | X-H torsion
[ 10718 10713 10712 10709 ] final    1.85 input   66.30 | X-H torsion
[ 10763 10752 10751 10750 ] final   84.68 input  -60.55 | X-H torsion
[ 11005 11000 10999 10996 ] final  -77.10 input  -57.11 | X-H torsion

> <Gold.Protein.ActiveResidues>
 VAL166  LYS551  ARG553  GLY616  TRP617  ASP618  TYR619  PRO620  LYS621  CYS622 
 ASP623  PHE694  ASN695  SER759  ASP760  ASP761  ALA762  ILE779  LEU786  VAL792 
 PHE793  MET794  SER795  GLU796  ALA797  LYS798  CYS799  TRP800  GLU811  SER814 

> <Gold.Protein.RotatedAtoms>
  151.9022  135.0373  160.0507 H   0  0  0  0  0  0  0  0  0  0  0  0  # atno 6907 bound_to 6896
  152.2349  133.5083  159.5245 H   0  0  0  0  0  0  0  0  0  0  0  0  # atno 6908 bound_to 6896
  150.7036  134.1083  159.4033 H   0  0  0  0  0  0  0  0  0  0  0  0  # atno 6909 bound_to 6896
  145.7983  140.8670  143.0245 H   0  0  0  0  0  0  0  0  0  0  0  0  # atno 7974 bound_to 7965
  154.7633  140.0479  157.0991 H   0  0  0  0  0  0  0  0  0  0  0  0  # atno 8008 bound_to 7997
  154.9911  140.3113  155.4886 H   0  0  0  0  0  0  0  0  0  0  0  0  # atno 8009 bound_to 7997
  156.2908  140.2218  156.5015 H   0  0  0  0  0  0  0  0  0  0  0  0  # atno 8010 bound_to 7997
  140.6451  143.2530  151.4881 H   0  0  0  0  0  0  0  0  0  0  0  0  # atno 10167 bound_to 10162
  156.8543  130.5564  149.5667 H   0  0  0  0  0  0  0  0  0  0  0  0  # atno 10718 bound_to 10713
  153.1404  135.4645  154.9486 H   0  0  0  0  0  0  0  0  0  0  0  0  # atno 10763 bound_to 10752
  154.7742  135.3168  154.8129 H   0  0  0  0  0  0  0  0  0  0  0  0  # atno 10764 bound_to 10752
  153.8653  135.6908  153.4833 H   0  0  0  0  0  0  0  0  0  0  0  0  # atno 10765 bound_to 10752
  141.1658  133.7009  156.7769 H   0  0  0  0  0  0  0  0  0  0  0  0  # atno 11005 bound_to 11000
  144.6772  140.0222  143.7483 LP  0  0  0  0  0  0  0  0  0  0  0  0  # atno 17320 bound_to 7965
  145.9905  139.3011  143.0988 LP  0  0  0  0  0  0  0  0  0  0  0  0  # atno 17321 bound_to 7965
  139.5661  144.2038  152.1767 LP  0  0  0  0  0  0  0  0  0  0  0  0  # atno 17342 bound_to 10162
  140.1320  144.5279  150.6796 LP  0  0  0  0  0  0  0  0  0  0  0  0  # atno 17343 bound_to 10162
  156.0811  130.5821  150.9565 LP  0  0  0  0  0  0  0  0  0  0  0  0  # atno 17370 bound_to 10713
  157.6286  131.0923  150.8486 LP  0  0  0  0  0  0  0  0  0  0  0  0  # atno 17371 bound_to 10713
  140.2423  134.8604  157.3585 LP  0  0  0  0  0  0  0  0  0  0  0  0  # atno 17394 bound_to 11000
  140.1784  134.4520  155.7787 LP  0  0  0  0  0  0  0  0  0  0  0  0  # atno 17395 bound_to 11000

$$$$
