AV-unprocessed.smi:2812|AV-procd|sdf|10834|dock10
  -GOLD-   2272015273D 1   1.00000     0.00000
 Structure written by MMmdl.
 55 56  0  0  0  0  0  0  0  0  2 V2000
  146.8593  132.3687  159.8295 C   0  0  0  0  0  0  0  0  0  0  0  0
  147.0425  133.6391  160.6464 C   0  0  0  0  0  0  0  0  0  0  0  0
  147.2992  133.5213  162.0673 C   0  0  0  0  0  0  0  0  0  0  0  0
  147.4262  134.6292  162.8108 C   0  0  0  0  0  0  0  0  0  0  0  0
  147.3175  135.9099  162.2494 N   0  0  0  0  0  0  0  0  0  0  0  0
  147.4681  137.0607  163.1436 C   0  0  0  0  0  0  0  0  0  0  0  0
  147.0808  136.1042  160.9205 C   0  0  0  0  0  0  0  0  0  0  0  0
  146.9824  137.2388  160.4468 O   0  0  0  0  0  0  0  0  0  0  0  0
  146.9531  134.8837  160.1005 C   0  0  0  0  0  0  0  0  0  0  0  0
  146.7133  135.0855  158.7364 N   0  0  0  0  0  0  0  0  0  0  0  0
  147.6693  135.3079  157.8202 C   0  0  0  0  0  0  0  0  0  0  0  0
  148.8772  135.3273  158.0609 O   0  0  0  0  0  0  0  0  0  0  0  0
  147.1507  135.5050  156.6007 N   0  0  0  0  0  0  0  0  0  0  0  0
  147.9364  135.7379  155.3928 C   0  0  0  0  0  0  0  0  0  0  0  0
  148.8528  136.9923  155.4995 C   0  0  1  0  0  0  0  0  0  0  0  0
  150.3349  136.5302  155.4961 C   0  0  0  0  0  0  0  0  0  0  0  0
  151.3287  137.6922  155.4657 C   0  0  0  0  0  0  0  0  0  0  0  0
  151.0265  138.5760  154.2588 C   0  0  0  0  0  0  0  0  0  0  0  0
  149.5842  139.0837  154.3407 C   0  0  0  0  0  0  0  0  0  0  0  0
  148.5900  137.9748  154.3969 N   0  3  2  0  0  0  0  0  0  0  0  0
  147.2058  138.5292  154.3730 C   0  0  0  0  0  0  0  0  0  0  0  0
  147.0164  139.5342  153.2196 C   0  0  0  0  0  0  0  0  0  0  0  0
  146.1945  140.7460  153.6828 C   0  0  0  0  0  0  0  0  0  0  0  0
  146.3637  138.8811  151.9898 C   0  0  0  0  0  0  0  0  0  0  0  0
  146.6500  131.5167  160.4766 H   0  0  0  0  0  0  0  0  0  0  0  0
  147.7633  132.1445  159.2636 H   0  0  0  0  0  0  0  0  0  0  0  0
  146.0263  132.4647  159.1324 H   0  0  0  0  0  0  0  0  0  0  0  0
  147.3901  132.5490  162.5290 H   0  0  0  0  0  0  0  0  0  0  0  0
  147.6190  134.6020  163.8732 H   0  0  0  0  0  0  0  0  0  0  0  0
  148.3061  137.6839  162.8279 H   0  0  0  0  0  0  0  0  0  0  0  0
  147.6515  136.7694  164.1782 H   0  0  0  0  0  0  0  0  0  0  0  0
  146.5657  137.6739  163.1348 H   0  0  0  0  0  0  0  0  0  0  0  0
  145.7486  135.2005  158.4618 H   0  0  0  0  0  0  0  0  0  0  0  0
  146.1464  135.4795  156.4979 H   0  0  0  0  0  0  0  0  0  0  0  0
  148.5462  134.8511  155.2183 H   0  0  0  0  0  0  0  0  0  0  0  0
  147.2382  135.7847  154.5596 H   0  0  0  0  0  0  0  0  0  0  0  0
  148.6557  137.5083  156.4406 H   0  0  0  0  0  0  0  0  0  0  0  0
  150.5455  135.9200  156.3749 H   0  0  0  0  0  0  0  0  0  0  0  0
  150.5155  135.8902  154.6312 H   0  0  0  0  0  0  0  0  0  0  0  0
  151.2553  138.2726  156.3865 H   0  0  0  0  0  0  0  0  0  0  0  0
  152.3501  137.3140  155.4111 H   0  0  0  0  0  0  0  0  0  0  0  0
  151.7176  139.4190  154.2312 H   0  0  0  0  0  0  0  0  0  0  0  0
  151.1768  138.0173  153.3338 H   0  0  0  0  0  0  0  0  0  0  0  0
  149.4741  139.7168  155.2228 H   0  0  0  0  0  0  0  0  0  0  0  0
  149.3772  139.7128  153.4742 H   0  0  0  0  0  0  0  0  0  0  0  0
  146.4420  137.7578  154.3089 H   0  0  0  0  0  0  0  0  0  0  0  0
  146.9943  139.0209  155.3241 H   0  0  0  0  0  0  0  0  0  0  0  0
  147.9973  139.9059  152.9209 H   0  0  0  0  0  0  0  0  0  0  0  0
  145.1950  140.4489  154.0025 H   0  0  0  0  0  0  0  0  0  0  0  0
  146.0833  141.4763  152.8806 H   0  0  0  0  0  0  0  0  0  0  0  0
  146.6755  141.2520  154.5206 H   0  0  0  0  0  0  0  0  0  0  0  0
  145.3826  138.4715  152.2321 H   0  0  0  0  0  0  0  0  0  0  0  0
  146.9753  138.0694  151.5955 H   0  0  0  0  0  0  0  0  0  0  0  0
  146.2308  139.6054  151.1857 H   0  0  0  0  0  0  0  0  0  0  0  0
  148.6981  137.4508  153.5403 H   0  0  0  0  0  0  0  0  0  0  0  0
  1  2  1  0  0  0  0
  1 25  1  0  0  0  0
  1 26  1  0  0  0  0
  1 27  1  0  0  0  0
  2  9  2  0  0  0  0
  2  3  1  0  0  0  0
  3  4  2  0  0  0  0
  3 28  1  0  0  0  0
  4  5  1  0  0  0  0
  4 29  1  0  0  0  0
  5  6  1  0  0  0  0
  5  7  1  0  0  0  0
  6 30  1  0  0  0  0
  6 31  1  0  0  0  0
  6 32  1  0  0  0  0
  7  8  2  0  0  0  0
  7  9  1  0  0  0  0
  9 10  1  0  0  0  0
 10 11  1  0  0  0  0
 10 33  1  0  0  0  0
 11 12  2  0  0  0  0
 11 13  1  0  0  0  0
 13 14  1  0  0  0  0
 13 34  1  0  0  0  0
 14 15  1  0  0  0  0
 14 35  1  0  0  0  0
 14 36  1  0  0  0  0
 15 20  1  0  0  0  0
 15 16  1  0  0  0  0
 15 37  1  0  0  0  0
 16 17  1  0  0  0  0
 16 38  1  0  0  0  0
 16 39  1  0  0  0  0
 17 18  1  0  0  0  0
 17 40  1  0  0  0  0
 17 41  1  0  0  0  0
 18 19  1  0  0  0  0
 18 42  1  0  0  0  0
 18 43  1  0  0  0  0
 19 20  1  0  0  0  0
 19 44  1  0  0  0  0
 19 45  1  0  0  0  0
 20 21  1  0  0  0  0
 20 55  1  0  0  0  0
 21 22  1  0  0  0  0
 21 46  1  0  0  0  0
 21 47  1  0  0  0  0
 22 23  1  0  0  0  0
 22 24  1  0  0  0  0
 22 48  1  0  0  0  0
 23 49  1  0  0  0  0
 23 50  1  0  0  0  0
 23 51  1  0  0  0  0
 24 52  1  0  0  0  0
 24 53  1  0  0  0  0
 24 54  1  0  0  0  0
M  CHG  1  20   1
M  END
> <s_m_source_file>
AV-unprocessed.smi

> <i_m_source_file_index>
2812

> <i_lp_mmshare_version>
43012

> <i_f3d_flags>
0

> <s_epik_input>
W0NIM11jMVtjSF1bY0hdbihbQ0gzXSljKD1PKWMxW05IXUMoPU8pW05IXVtDSDJdW0NAQEhdMltDSDJdW0NIMl1bQ0gyXVtDSDJdTjJbQ0gyXVtDSF0oW0NIM10pW0NIM10=

> <s_epik_cmdline>
J2VwaWtfcHl0aG9uJywgJy1waCcsICc3LjAnLCAnLXRuJywgJzgnLCAnLW1hJywgJzIwMCcsICctbWV0YWxfYmluZGluZycsICctaW1hZScsICc8aW5maWxlLm1hZT4nLCAnLW9tYWUnLCAnPG91dGZpbGUubWFlPic=

> <r_lp_tautomer_probability>
1

> <r_epik_Ionization_Penalty>
0.0010902

> <r_epik_Ionization_Penalty_Charging>
0.00107091

> <r_epik_Ionization_Penalty_Neutral>
1.92854e-05

> <r_epik_State_Penalty>
0.000697184

> <r_epik_Charging_Adjusted_Penalty>
0.0017681

> <i_epik_Tot_Q>
1

> <i_epik_Tot_abs_Q>
1

> <r_epik_Metal_State_Penalty>
-0

> <b_epik_Metal_Only>
0

> <s_lp_Force_Field>
OPLS_2005

> <r_lp_Energy>
40.1667

> <b_lp_Chiralities_Consistent>
1

> <s_lp_Variant>
AV-unprocessed.smi:2812-2

> <Gold.Version>
5.8.1

> <Gold.Id.Protein>
6NUR|6NUR_protein|mol2

> <Gold.PLP.Fitness>
45.9858

> <Gold.PLP.PLP>
-40.1575

> <Gold.PLP.part.hbond>
-2.0561

> <Gold.PLP.part.metal>
0.0000

> <Gold.PLP.part.buried>
-1.1093

> <Gold.PLP.part.nonpolar>
-36.4282

> <Gold.PLP.part.repulsive>
0.0000

> <Gold.PLP.ligand.clash>
0.0000

> <Gold.PLP.ligand.torsion>
2.0499

> <Gold.PLP.Chemscore.Hbond>
3.0000

> <Gold.PLP.Chemscore.CHOScore>
0.0000

> <Gold.PLP.Chemscore.Metal>
0.0000

> <Gold.Chemscore.Hbonds>
donor molecule, donor type, donor heavy atom, donor atom, acceptor molecule, acceptor atom, score
      L1  H    20    55       P1  7948  1.76
      P1  H  6934  6947       L1     8  1.00

> <Gold.PLP.Chemscore.Internal.Correction>
0.9280

> <Gold.Rescore>
     Score         DG    S(hbond)    S(metal)    S(lipo)     H(rot)  DE(clash)    DE(int)     intcor
     17.55     -19.64       2.00        0.00      97.14       1.52       0.04       2.06       ----

> <Gold.Chemscore.Fitness>
17.5472

> <Gold.Chemscore.DG>
-19.6406

> <Gold.Chemscore.ZeroCoef>
-5.4800

> <Gold.Chemscore.Hbond>
1.9985

> <Gold.Chemscore.Metal>
0.0000

> <Gold.Chemscore.Lipo>
97.1433

> <Gold.Chemscore.Internal_Hbond>
0.0000

> <Gold.Chemscore.DEClash>
0.0381

> <Gold.Chemscore.DEInternal>
2.0553

> <Gold.Chemscore.Rot>
1.5157

> <Gold.Chemscore.Internal.Correction>
   9.000000E+99

> <Gold.Chemscore.Hbonds>
donor molecule, donor type, donor heavy atom, donor atom, acceptor molecule, acceptor atom, score
      L1  H    20    55       P1  7948  0.86
      P1  H  6934  6947       L1     8  1.00

> <Gold.Chemscore.Hbond.Weighted>
-6.6751

> <Gold.Chemscore.Metal.Weighted>
-0.0000

> <Gold.Chemscore.Lipo.Weighted>
-11.3658

> <Gold.Chemscore.Internal_Hbond.Weighted>
0.0000

> <Gold.Chemscore.DEClash.Weighted>
0.0381

> <Gold.Chemscore.DEInternal.Weighted>
2.0553

> <Gold.Chemscore.Rot.Weighted>
3.8803

> <Gold.Chemscore.Internal.Correction.Weighted>
   9.000000E+99

> <Gold.Protein.RotatedTorsions>
[ 6907 6896 6895 6894 ] final -128.31 input  -60.11 | X-H torsion
[ 7974 7965 7964 7962 ] final  -41.84 input  175.53 | X-H torsion
[ 8008 7997 7996 7995 ] final  -10.29 input   59.86 | X-H torsion
[ 10167 10162 10161 10158 ] final  114.23 input  -65.29 | X-H torsion
[ 10718 10713 10712 10709 ] final  -36.17 input   66.30 | X-H torsion
[ 10763 10752 10751 10750 ] final   61.68 input  -60.55 | X-H torsion
[ 11005 11000 10999 10996 ] final  138.09 input  -57.11 | X-H torsion

> <Gold.Protein.ActiveResidues>
 VAL166  LYS551  ARG553  GLY616  TRP617  ASP618  TYR619  PRO620  LYS621  CYS622 
 ASP623  PHE694  ASN695  SER759  ASP760  ASP761  ALA762  ILE779  LEU786  VAL792 
 PHE793  MET794  SER795  GLU796  ALA797  LYS798  CYS799  TRP800  GLU811  SER814 

> <Gold.Protein.RotatedAtoms>
  150.9165  133.6932  159.2841 H   0  0  0  0  0  0  0  0  0  0  0  0  # atno 6907 bound_to 6896
  151.4401  135.1018  159.9677 H   0  0  0  0  0  0  0  0  0  0  0  0  # atno 6908 bound_to 6896
  152.4957  133.8575  159.7288 H   0  0  0  0  0  0  0  0  0  0  0  0  # atno 6909 bound_to 6896
  146.0173  140.6892  142.9195 H   0  0  0  0  0  0  0  0  0  0  0  0  # atno 7974 bound_to 7965
  154.5568  140.2333  155.8398 H   0  0  0  0  0  0  0  0  0  0  0  0  # atno 8008 bound_to 7997
  156.1995  140.3056  155.9457 H   0  0  0  0  0  0  0  0  0  0  0  0  # atno 8009 bound_to 7997
  155.2965  140.0429  157.3017 H   0  0  0  0  0  0  0  0  0  0  0  0  # atno 8010 bound_to 7997
  139.6404  144.7123  151.2249 H   0  0  0  0  0  0  0  0  0  0  0  0  # atno 10167 bound_to 10162
  156.3300  130.4278  149.7881 H   0  0  0  0  0  0  0  0  0  0  0  0  # atno 10718 bound_to 10713
  152.9958  135.5492  154.6072 H   0  0  0  0  0  0  0  0  0  0  0  0  # atno 10763 bound_to 10752
  154.5401  135.2819  155.1105 H   0  0  0  0  0  0  0  0  0  0  0  0  # atno 10764 bound_to 10752
  154.2386  135.6420  153.5252 H   0  0  0  0  0  0  0  0  0  0  0  0  # atno 10765 bound_to 10752
  140.0159  134.9418  157.0376 H   0  0  0  0  0  0  0  0  0  0  0  0  # atno 11005 bound_to 11000
  144.6976  140.3504  143.7183 LP  0  0  0  0  0  0  0  0  0  0  0  0  # atno 17320 bound_to 7965
  145.7248  139.1720  143.2464 LP  0  0  0  0  0  0  0  0  0  0  0  0  # atno 17321 bound_to 7965
  140.7488  143.6322  150.8412 LP  0  0  0  0  0  0  0  0  0  0  0  0  # atno 17342 bound_to 10162
  139.9959  143.5797  152.2893 LP  0  0  0  0  0  0  0  0  0  0  0  0  # atno 17343 bound_to 10162
  156.5157  130.8192  151.3185 LP  0  0  0  0  0  0  0  0  0  0  0  0  # atno 17370 bound_to 10713
  157.7428  130.9899  150.2548 LP  0  0  0  0  0  0  0  0  0  0  0  0  # atno 17371 bound_to 10713
  140.4471  134.1621  155.7178 LP  0  0  0  0  0  0  0  0  0  0  0  0  # atno 17394 bound_to 11000
  141.1743  133.8546  157.1473 LP  0  0  0  0  0  0  0  0  0  0  0  0  # atno 17395 bound_to 11000

$$$$
