AV-unprocessed.smi:221|AV-procd|sdf|1688|dock7
  -GOLD-   2262020133D 1   1.00000     0.00000
 Structure written by MMmdl.
 50 53  0  0  0  0  0  0  0  0  1 V2000
  145.0541  138.1383  152.3761 N   0  0  0  0  0  0  0  0  0  0  0  0
  144.3366  137.0151  152.3006 C   0  0  0  0  0  0  0  0  0  0  0  0
  143.1223  137.0002  152.4953 O   0  0  0  0  0  0  0  0  0  0  0  0
  145.0948  135.7304  151.9378 C   0  0  2  0  0  0  0  0  0  0  0  0
  144.6627  135.1779  150.5659 C   0  0  0  0  0  0  0  0  0  0  0  0
  144.8049  133.6708  150.7276 C   0  0  2  0  0  0  0  0  0  0  0  0
  144.0645  132.9888  149.8542 F   0  0  0  0  0  0  0  0  0  0  0  0
  144.3580  133.4629  152.1688 C   0  0  0  0  0  0  0  0  0  0  0  0
  144.8215  134.6461  152.8911 N   0  0  0  0  0  0  0  0  0  0  0  0
  145.7868  134.4821  153.8290 C   0  0  0  0  0  0  0  0  0  0  0  0
  145.5864  134.9226  155.0996 N   0  0  0  0  0  0  0  0  0  0  0  0
  146.5241  134.7302  156.0319 C   0  0  0  0  0  0  0  0  0  0  0  0
  147.7098  134.1295  155.9117 N   0  0  0  0  0  0  0  0  0  0  0  0
  147.9126  133.6822  154.6391 C   0  0  0  0  0  0  0  0  0  0  0  0
  147.0073  133.8103  153.5487 C   0  0  0  0  0  0  0  0  0  0  0  0
  147.5474  133.2237  152.4122 N   0  0  0  0  0  0  0  0  0  0  0  0
  148.7057  132.7717  152.8080 C   0  0  0  0  0  0  0  0  0  0  0  0
  149.0205  133.0294  154.1245 N   0  0  0  0  0  0  0  0  0  0  0  0
  150.2310  132.6317  154.8295 C   0  0  0  0  0  0  0  0  0  0  0  0
  150.1301  131.2523  155.5408 C   0  0  2  0  0  0  0  0  0  0  0  0
  150.9059  131.3130  156.8779 C   0  0  0  0  0  0  0  0  0  0  0  0
  150.3323  132.2634  157.7522 O   0  0  0  0  0  0  0  0  0  0  0  0
  150.6405  130.0556  154.6792 C   0  0  2  0  0  0  0  0  0  0  0  0
  150.0914  128.6783  155.0263 C   0  0  0  0  0  0  0  0  0  0  0  0
  150.9399  128.2539  156.2201 C   0  0  0  0  0  0  0  0  0  0  0  0
  152.1942  128.9013  156.0370 O   0  0  0  0  0  0  0  0  0  0  0  0
  152.1317  129.7611  154.9032 C   0  0  0  0  0  0  0  0  0  0  0  0
  146.1678  135.9363  151.9094 H   0  0  0  0  0  0  0  0  0  0  0  0
  145.8445  133.3665  150.5989 H   0  0  0  0  0  0  0  0  0  0  0  0
  144.5995  139.0062  152.6204 H   0  0  0  0  0  0  0  0  0  0  0  0
  146.0477  138.1163  152.1982 H   0  0  0  0  0  0  0  0  0  0  0  0
  143.6203  135.4231  150.3527 H   0  0  0  0  0  0  0  0  0  0  0  0
  145.2687  135.5667  149.7472 H   0  0  0  0  0  0  0  0  0  0  0  0
  143.2689  133.4482  152.2283 H   0  0  0  0  0  0  0  0  0  0  0  0
  144.7087  132.5131  152.5749 H   0  0  0  0  0  0  0  0  0  0  0  0
  146.2905  135.1110  157.0152 H   0  0  0  0  0  0  0  0  0  0  0  0
  149.3675  132.2392  152.1407 H   0  0  0  0  0  0  0  0  0  0  0  0
  151.0754  132.6389  154.1395 H   0  0  0  0  0  0  0  0  0  0  0  0
  150.4326  133.4249  155.5496 H   0  0  0  0  0  0  0  0  0  0  0  0
  149.0870  131.0571  155.7910 H   0  0  0  0  0  0  0  0  0  0  0  0
  150.8975  130.3565  157.3972 H   0  0  0  0  0  0  0  0  0  0  0  0
  151.9529  131.5647  156.7056 H   0  0  0  0  0  0  0  0  0  0  0  0
  149.6156  131.8539  158.2127 H   0  0  0  0  0  0  0  0  0  0  0  0
  150.4433  130.2741  153.6289 H   0  0  0  0  0  0  0  0  0  0  0  0
  149.0225  128.6324  155.2092 H   0  0  0  0  0  0  0  0  0  0  0  0
  150.2866  127.9991  154.1949 H   0  0  0  0  0  0  0  0  0  0  0  0
  150.4971  128.6024  157.1535 H   0  0  0  0  0  0  0  0  0  0  0  0
  151.0549  127.1715  156.2817 H   0  0  0  0  0  0  0  0  0  0  0  0
  152.5379  129.2231  154.0452 H   0  0  0  0  0  0  0  0  0  0  0  0
  152.7521  130.6431  155.0542 H   0  0  0  0  0  0  0  0  0  0  0  0
  1  2  1  0  0  0  0
  1 30  1  0  0  0  0
  1 31  1  0  0  0  0
  2  3  2  0  0  0  0
  2  4  1  0  0  0  0
  4 28  1  0  0  0  0
  4  9  1  0  0  0  0
  4  5  1  0  0  0  0
  5  6  1  0  0  0  0
  5 32  1  0  0  0  0
  5 33  1  0  0  0  0
  6 29  1  0  0  0  0
  6  7  1  0  0  0  0
  6  8  1  0  0  0  0
  8  9  1  0  0  0  0
  8 34  1  0  0  0  0
  8 35  1  0  0  0  0
  9 10  1  0  0  0  0
 10 15  1  0  0  0  0
 10 11  2  0  0  0  0
 11 12  1  0  0  0  0
 12 13  2  0  0  0  0
 12 36  1  0  0  0  0
 13 14  1  0  0  0  0
 14 18  1  0  0  0  0
 14 15  2  0  0  0  0
 15 16  1  0  0  0  0
 16 17  2  0  0  0  0
 17 18  1  0  0  0  0
 17 37  1  0  0  0  0
 18 19  1  0  0  0  0
 19 20  1  0  0  0  0
 19 38  1  0  0  0  0
 19 39  1  0  0  0  0
 20 21  1  0  0  0  0
 20 23  1  0  0  0  0
 20 40  1  0  0  0  0
 21 22  1  0  0  0  0
 21 41  1  0  0  0  0
 21 42  1  0  0  0  0
 22 43  1  0  0  0  0
 23 27  1  0  0  0  0
 23 24  1  0  0  0  0
 23 44  1  0  0  0  0
 24 25  1  0  0  0  0
 24 45  1  0  0  0  0
 24 46  1  0  0  0  0
 25 26  1  0  0  0  0
 25 47  1  0  0  0  0
 25 48  1  0  0  0  0
 26 27  1  0  0  0  0
 27 49  1  0  0  0  0
 27 50  1  0  0  0  0
M  END
> <s_m_source_file>
AV-unprocessed.smi

> <i_m_source_file_index>
221

> <i_lp_mmshare_version>
43012

> <i_f3d_flags>
0

> <s_epik_input>
W05IMl1DKD1PKVtDQEBIXTFbQ0gyXVtDQEBIXShGKVtDSDJdTjFjKG5bY0hdbjIpYyhjMjMpbltjSF1uM1tDSDJdW0NASF0oW0NIMl1bT0hdKVtDQEBIXTRbQ0gyXVtDSDJdT1tDSDJdNA==

> <s_epik_cmdline>
J2VwaWtfcHl0aG9uJywgJy1waCcsICc3LjAnLCAnLXRuJywgJzgnLCAnLW1hJywgJzIwMCcsICctbWV0YWxfYmluZGluZycsICctaW1hZScsICc8aW5maWxlLm1hZT4nLCAnLW9tYWUnLCAnPG91dGZpbGUubWFlPic=

> <r_lp_tautomer_probability>
1

> <r_epik_Ionization_Penalty>
0.000818822

> <r_epik_Ionization_Penalty_Charging>
0

> <r_epik_Ionization_Penalty_Neutral>
0.000818822

> <r_epik_State_Penalty>
0.000440551

> <r_epik_Charging_Adjusted_Penalty>
0.000440551

> <i_epik_Tot_Q>
0

> <i_epik_Tot_abs_Q>
0

> <r_epik_Metal_State_Penalty>
-0

> <b_epik_Metal_Only>
0

> <s_lp_Force_Field>
OPLS_2005

> <r_lp_Energy>
54.2939

> <b_lp_Chiralities_Consistent>
1

> <s_lp_Variant>
AV-unprocessed.smi:221-3

> <Gold.Version>
5.8.1

> <Gold.Id.Protein>
6NUR|6NUR_protein|mol2

> <Gold.PLP.Fitness>
40.5253

> <Gold.PLP.PLP>
-34.9598

> <Gold.PLP.part.hbond>
-3.0000

> <Gold.PLP.part.metal>
0.0000

> <Gold.PLP.part.buried>
-4.9272

> <Gold.PLP.part.nonpolar>
-27.7186

> <Gold.PLP.part.repulsive>
0.5648

> <Gold.PLP.ligand.clash>
0.0000

> <Gold.PLP.ligand.torsion>
1.8201

> <Gold.PLP.Chemscore.Hbond>
2.0000

> <Gold.PLP.Chemscore.CHOScore>
0.9962

> <Gold.PLP.Chemscore.Metal>
0.0000

> <Gold.Chemscore.Hbonds>
donor molecule, donor type, donor heavy atom, donor atom, acceptor molecule, acceptor atom, score
      L1  H     1    30       P1 10175  1.00
      P1  H  6896  6908       L1    22  0.98
      L1  C    17    37       P1 10747  1.00

> <Gold.PLP.Chemscore.Internal.Correction>
0.2171

> <Gold.Rescore>
     Score         DG    S(hbond)    S(metal)    S(lipo)     H(rot)  DE(clash)    DE(int)     intcor
      5.41      -9.16       1.96        0.00      57.03       3.72       0.02       3.73       ----

> <Gold.Chemscore.Fitness>
5.4101

> <Gold.Chemscore.DG>
-9.1611

> <Gold.Chemscore.ZeroCoef>
-5.4800

> <Gold.Chemscore.Hbond>
1.9558

> <Gold.Chemscore.Metal>
0.0000

> <Gold.Chemscore.Lipo>
57.0311

> <Gold.Chemscore.Internal_Hbond>
0.0000

> <Gold.Chemscore.DEClash>
0.0207

> <Gold.Chemscore.DEInternal>
3.7304

> <Gold.Chemscore.Rot>
3.7202

> <Gold.Chemscore.Internal.Correction>
   9.000000E+99

> <Gold.Chemscore.Hbonds>
donor molecule, donor type, donor heavy atom, donor atom, acceptor molecule, acceptor atom, score
      L1  H     1    30       P1 10175  1.00
      P1  H  6896  6908       L1    22  0.32

> <Gold.Chemscore.Hbond.Weighted>
-6.5322

> <Gold.Chemscore.Metal.Weighted>
-0.0000

> <Gold.Chemscore.Lipo.Weighted>
-6.6726

> <Gold.Chemscore.Internal_Hbond.Weighted>
0.0000

> <Gold.Chemscore.DEClash.Weighted>
0.0207

> <Gold.Chemscore.DEInternal.Weighted>
3.7304

> <Gold.Chemscore.Rot.Weighted>
9.5237

> <Gold.Chemscore.Internal.Correction.Weighted>
   9.000000E+99

> <Gold.Protein.RotatedTorsions>
[ 6907 6896 6895 6894 ] final   91.89 input  -60.11 | X-H torsion
[ 7974 7965 7964 7962 ] final  -14.25 input  175.53 | X-H torsion
[ 8008 7997 7996 7995 ] final   61.42 input   59.86 | X-H torsion
[ 10167 10162 10161 10158 ] final  -28.40 input  -65.29 | X-H torsion
[ 10718 10713 10712 10709 ] final -134.29 input   66.30 | X-H torsion
[ 10763 10752 10751 10750 ] final  -38.52 input  -60.55 | X-H torsion
[ 11005 11000 10999 10996 ] final   38.30 input  -57.11 | X-H torsion

> <Gold.Protein.ActiveResidues>
 VAL166  LYS551  ARG553  GLY616  TRP617  ASP618  TYR619  PRO620  LYS621  CYS622 
 ASP623  PHE694  ASN695  SER759  ASP760  ASP761  ALA762  ILE779  LEU786  VAL792 
 PHE793  MET794  SER795  GLU796  ALA797  LYS798  CYS799  TRP800  GLU811  SER814 

> <Gold.Protein.RotatedAtoms>
  152.5451  134.1587  159.8548 H   0  0  0  0  0  0  0  0  0  0  0  0  # atno 6907 bound_to 6896
  151.1608  133.4839  159.2602 H   0  0  0  0  0  0  0  0  0  0  0  0  # atno 6908 bound_to 6896
  151.1375  135.0173  159.8666 H   0  0  0  0  0  0  0  0  0  0  0  0  # atno 6909 bound_to 6896
  146.2082  140.3321  142.8400 H   0  0  0  0  0  0  0  0  0  0  0  0  # atno 7974 bound_to 7965
  155.5980  140.3493  155.4585 H   0  0  0  0  0  0  0  0  0  0  0  0  # atno 8008 bound_to 7997
  156.0250  140.1262  157.0343 H   0  0  0  0  0  0  0  0  0  0  0  0  # atno 8009 bound_to 7997
  154.4330  140.1055  156.6003 H   0  0  0  0  0  0  0  0  0  0  0  0  # atno 8010 bound_to 7997
  140.7270  143.4013  151.1259 H   0  0  0  0  0  0  0  0  0  0  0  0  # atno 10167 bound_to 10162
  156.2539  130.7169  151.1079 H   0  0  0  0  0  0  0  0  0  0  0  0  # atno 10718 bound_to 10713
  153.9141  135.6789  153.4750 H   0  0  0  0  0  0  0  0  0  0  0  0  # atno 10763 bound_to 10752
  153.1063  135.4804  154.8953 H   0  0  0  0  0  0  0  0  0  0  0  0  # atno 10764 bound_to 10752
  154.7512  135.3185  154.8510 H   0  0  0  0  0  0  0  0  0  0  0  0  # atno 10765 bound_to 10752
  140.2139  134.3721  155.8036 H   0  0  0  0  0  0  0  0  0  0  0  0  # atno 11005 bound_to 11000
  144.8845  140.7444  143.5965 LP  0  0  0  0  0  0  0  0  0  0  0  0  # atno 17320 bound_to 7965
  145.3241  139.1779  143.4572 LP  0  0  0  0  0  0  0  0  0  0  0  0  # atno 17321 bound_to 7965
  139.7634  143.8602  152.3105 LP  0  0  0  0  0  0  0  0  0  0  0  0  # atno 17342 bound_to 10162
  139.8495  144.7171  150.9231 LP  0  0  0  0  0  0  0  0  0  0  0  0  # atno 17343 bound_to 10162
  157.7225  131.0672  150.6075 LP  0  0  0  0  0  0  0  0  0  0  0  0  # atno 17370 bound_to 10713
  156.6157  130.4392  149.5841 LP  0  0  0  0  0  0  0  0  0  0  0  0  # atno 17371 bound_to 10713
  141.2225  133.7158  156.8464 LP  0  0  0  0  0  0  0  0  0  0  0  0  # atno 17394 bound_to 11000
  140.1921  134.8958  157.3072 LP  0  0  0  0  0  0  0  0  0  0  0  0  # atno 17395 bound_to 11000

$$$$
