AV-unprocessed.smi:278|AV-procd|sdf|2087|dock4
  -GOLD-   2262021363D 1   1.00000     0.00000
 Structure written by MMmdl.
 50 54  0  0  0  0  0  0  0  0  1 V2000
  149.6543  143.7868  159.6506 O   0  0  0  0  0  0  0  0  0  0  0  0
  150.9406  144.4365  159.9469 S   0  0  0  0  0  0  0  0  0  0  0  0
  151.0102  145.8832  160.2019 O   0  0  0  0  0  0  0  0  0  0  0  0
  151.7535  143.5484  161.3312 C   0  0  0  0  0  0  0  0  0  0  0  0
  153.1455  143.1473  160.8257 C   0  0  0  0  0  0  0  0  0  0  0  0
  153.0880  142.9396  159.3013 C   0  0  1  0  0  0  0  0  0  0  0  0
  152.4219  141.6266  158.8765 C   0  0  0  0  0  0  0  0  0  0  0  0
  151.8307  141.9058  157.5757 N   0  0  0  0  0  0  0  0  0  0  0  0
  151.0683  140.9834  156.9318 C   0  0  0  0  0  0  0  0  0  0  0  0
  150.4086  141.3588  155.8034 N   0  0  0  0  0  0  0  0  0  0  0  0
  149.6430  140.4877  155.1407 C   0  0  0  0  0  0  0  0  0  0  0  0
  149.3935  139.2100  155.4285 N   0  0  0  0  0  0  0  0  0  0  0  0
  150.0432  138.8247  156.5636 C   0  0  0  0  0  0  0  0  0  0  0  0
  150.8915  139.6370  157.3709 C   0  0  0  0  0  0  0  0  0  0  0  0
  151.3582  138.8916  158.4494 N   0  0  0  0  0  0  0  0  0  0  0  0
  150.8302  137.7104  158.2814 C   0  0  0  0  0  0  0  0  0  0  0  0
  150.0250  137.5833  157.1741 N   0  0  0  0  0  0  0  0  0  0  0  0
  149.3144  136.3895  156.7513 C   0  0  0  0  0  0  0  0  0  0  0  0
  149.8332  135.8391  155.4086 C   0  0  2  0  0  0  0  0  0  0  0  0
  149.6608  136.7896  154.3748 O   0  0  0  0  0  0  0  0  0  0  0  0
  149.1813  134.4953  155.0241 C   0  0  2  0  0  0  0  0  0  0  0  0
  149.8448  133.7132  153.8874 C   0  0  0  0  0  0  0  0  0  0  0  0
  148.6998  132.8388  153.4273 C   0  0  0  0  0  0  0  0  0  0  0  0
  147.5097  133.7868  153.5592 C   0  0  0  0  0  0  0  0  0  0  0  0
  147.8141  134.6510  154.6511 O   0  0  0  0  0  0  0  0  0  0  0  0
  151.5835  143.3331  157.4236 C   0  0  0  0  0  0  0  0  0  0  0  0
  152.1923  144.0042  158.6639 C   0  0  1  0  0  0  0  0  0  0  0  0
  154.0870  142.9851  158.8655 H   0  0  0  0  0  0  0  0  0  0  0  0
  152.7461  144.9098  158.4149 H   0  0  0  0  0  0  0  0  0  0  0  0
  151.7877  144.1820  162.2175 H   0  0  0  0  0  0  0  0  0  0  0  0
  151.1557  142.6660  161.5600 H   0  0  0  0  0  0  0  0  0  0  0  0
  153.8403  143.9607  161.0374 H   0  0  0  0  0  0  0  0  0  0  0  0
  153.5246  142.2661  161.3442 H   0  0  0  0  0  0  0  0  0  0  0  0
  153.1456  140.8125  158.8218 H   0  0  0  0  0  0  0  0  0  0  0  0
  151.6343  141.3378  159.5737 H   0  0  0  0  0  0  0  0  0  0  0  0
  149.1607  140.8699  154.2531 H   0  0  0  0  0  0  0  0  0  0  0  0
  151.0138  136.8946  158.9655 H   0  0  0  0  0  0  0  0  0  0  0  0
  149.4207  135.6355  157.5321 H   0  0  0  0  0  0  0  0  0  0  0  0
  148.2508  136.6224  156.6877 H   0  0  0  0  0  0  0  0  0  0  0  0
  150.9076  135.6736  155.4969 H   0  0  0  0  0  0  0  0  0  0  0  0
  149.5855  136.3266  153.5542 H   0  0  0  0  0  0  0  0  0  0  0  0
  149.1763  133.8542  155.9072 H   0  0  0  0  0  0  0  0  0  0  0  0
  150.1531  134.3684  153.0722 H   0  0  0  0  0  0  0  0  0  0  0  0
  150.7147  133.1434  154.2148 H   0  0  0  0  0  0  0  0  0  0  0  0
  148.8301  132.4562  152.4148 H   0  0  0  0  0  0  0  0  0  0  0  0
  148.5818  131.9900  154.1021 H   0  0  0  0  0  0  0  0  0  0  0  0
  147.4068  134.3930  152.6584 H   0  0  0  0  0  0  0  0  0  0  0  0
  146.5706  133.2569  153.7193 H   0  0  0  0  0  0  0  0  0  0  0  0
  152.0947  143.6771  156.5242 H   0  0  0  0  0  0  0  0  0  0  0  0
  150.5237  143.5617  157.3121 H   0  0  0  0  0  0  0  0  0  0  0  0
  1  2  2  0  0  0  0
  2 27  1  0  0  0  0
  2  3  2  0  0  0  0
  2  4  1  0  0  0  0
  4  5  1  0  0  0  0
  4 30  1  0  0  0  0
  4 31  1  0  0  0  0
  5  6  1  0  0  0  0
  5 32  1  0  0  0  0
  5 33  1  0  0  0  0
  6 28  1  0  0  0  0
  6 27  1  0  0  0  0
  6  7  1  0  0  0  0
  7  8  1  0  0  0  0
  7 34  1  0  0  0  0
  7 35  1  0  0  0  0
  8  9  1  0  0  0  0
  8 26  1  0  0  0  0
  9 14  1  0  0  0  0
  9 10  2  0  0  0  0
 10 11  1  0  0  0  0
 11 12  2  0  0  0  0
 11 36  1  0  0  0  0
 12 13  1  0  0  0  0
 13 17  1  0  0  0  0
 13 14  2  0  0  0  0
 14 15  1  0  0  0  0
 15 16  2  0  0  0  0
 16 17  1  0  0  0  0
 16 37  1  0  0  0  0
 17 18  1  0  0  0  0
 18 19  1  0  0  0  0
 18 38  1  0  0  0  0
 18 39  1  0  0  0  0
 19 20  1  0  0  0  0
 19 21  1  0  0  0  0
 19 40  1  0  0  0  0
 20 41  1  0  0  0  0
 21 25  1  0  0  0  0
 21 22  1  0  0  0  0
 21 42  1  0  0  0  0
 22 23  1  0  0  0  0
 22 43  1  0  0  0  0
 22 44  1  0  0  0  0
 23 24  1  0  0  0  0
 23 45  1  0  0  0  0
 23 46  1  0  0  0  0
 24 25  1  0  0  0  0
 24 47  1  0  0  0  0
 24 48  1  0  0  0  0
 26 27  1  0  0  0  0
 26 49  1  0  0  0  0
 26 50  1  0  0  0  0
 27 29  1  0  0  0  0
M  END
> <s_m_source_file>
AV-unprocessed.smi

> <i_m_source_file_index>
278

> <i_lp_mmshare_version>
43012

> <i_f3d_flags>
0

> <s_epik_input>
W0NIMl0xW0NIMl1TKD1PKSg9TylbQ0BASF0oW0NAQEhdMTIpW0NIMl1OKFtDSDJdMiljKG5bY0hdbjMpYyhjMzQpbltjSF1uNFtDSDJdW0NASF0oW09IXSlbQ0BASF01W0NIMl1bQ0gyXVtDSDJdTzU=

> <s_epik_cmdline>
J2VwaWtfcHl0aG9uJywgJy1waCcsICc3LjAnLCAnLXRuJywgJzgnLCAnLW1hJywgJzIwMCcsICctbWV0YWxfYmluZGluZycsICctaW1hZScsICc8aW5maWxlLm1hZT4nLCAnLW9tYWUnLCAnPG91dGZpbGUubWFlPic=

> <r_lp_tautomer_probability>
1

> <r_epik_Ionization_Penalty>
0.000636766

> <r_epik_Ionization_Penalty_Charging>
0

> <r_epik_Ionization_Penalty_Neutral>
0.000636766

> <r_epik_State_Penalty>
0.000329976

> <r_epik_Charging_Adjusted_Penalty>
0.000329976

> <i_epik_Tot_Q>
0

> <i_epik_Tot_abs_Q>
0

> <r_epik_Metal_State_Penalty>
-0

> <b_epik_Metal_Only>
0

> <s_lp_Force_Field>
OPLS_2005

> <r_lp_Energy>
50.3002

> <b_lp_Chiralities_Consistent>
1

> <s_lp_Variant>
AV-unprocessed.smi:278-1

> <Gold.Version>
5.8.1

> <Gold.Id.Protein>
6NUR|6NUR_protein|mol2

> <Gold.PLP.Fitness>
45.1508

> <Gold.PLP.PLP>
-42.4657

> <Gold.PLP.part.hbond>
-3.3638

> <Gold.PLP.part.metal>
0.0000

> <Gold.PLP.part.buried>
-7.1128

> <Gold.PLP.part.nonpolar>
-32.2556

> <Gold.PLP.part.repulsive>
0.5902

> <Gold.PLP.ligand.clash>
0.0000

> <Gold.PLP.ligand.torsion>
0.2777

> <Gold.PLP.Chemscore.Hbond>
0.9920

> <Gold.PLP.Chemscore.CHOScore>
0.0000

> <Gold.PLP.Chemscore.Metal>
0.0000

> <Gold.Chemscore.Hbonds>
donor molecule, donor type, donor heavy atom, donor atom, acceptor molecule, acceptor atom, score
      L1  H    20    41       P1  7948  1.00

> <Gold.PLP.Chemscore.Internal.Correction>
0.2644

> <Gold.Rescore>
     Score         DG    S(hbond)    S(metal)    S(lipo)     H(rot)  DE(clash)    DE(int)     intcor
     12.64     -15.08       1.05        0.00      98.72       2.13       0.36       2.08       ----

> <Gold.Chemscore.Fitness>
12.6393

> <Gold.Chemscore.DG>
-15.0789

> <Gold.Chemscore.ZeroCoef>
-5.4800

> <Gold.Chemscore.Hbond>
1.0519

> <Gold.Chemscore.Metal>
0.0000

> <Gold.Chemscore.Lipo>
98.7188

> <Gold.Chemscore.Internal_Hbond>
0.0000

> <Gold.Chemscore.DEClash>
0.3618

> <Gold.Chemscore.DEInternal>
2.0778

> <Gold.Chemscore.Rot>
2.1346

> <Gold.Chemscore.Internal.Correction>
   9.000000E+99

> <Gold.Chemscore.Hbonds>
donor molecule, donor type, donor heavy atom, donor atom, acceptor molecule, acceptor atom, score
      L1  H    20    41       P1  7948  0.48

> <Gold.Chemscore.Hbond.Weighted>
-3.5135

> <Gold.Chemscore.Metal.Weighted>
-0.0000

> <Gold.Chemscore.Lipo.Weighted>
-11.5501

> <Gold.Chemscore.Internal_Hbond.Weighted>
0.0000

> <Gold.Chemscore.DEClash.Weighted>
0.3618

> <Gold.Chemscore.DEInternal.Weighted>
2.0778

> <Gold.Chemscore.Rot.Weighted>
5.4646

> <Gold.Chemscore.Internal.Correction.Weighted>
   9.000000E+99

> <Gold.Protein.RotatedTorsions>
[ 6907 6896 6895 6894 ] final  -54.95 input  -60.11 | X-H torsion
[ 7974 7965 7964 7962 ] final  121.19 input  175.53 | X-H torsion
[ 8008 7997 7996 7995 ] final -118.84 input   59.86 | X-H torsion
[ 10167 10162 10161 10158 ] final -118.14 input  -65.29 | X-H torsion
[ 10718 10713 10712 10709 ] final  -78.76 input   66.30 | X-H torsion
[ 10763 10752 10751 10750 ] final  -29.28 input  -60.55 | X-H torsion
[ 11005 11000 10999 10996 ] final -114.62 input  -57.11 | X-H torsion

> <Gold.Protein.ActiveResidues>
 VAL166  LYS551  ARG553  GLY616  TRP617  ASP618  TYR619  PRO620  LYS621  CYS622 
 ASP623  PHE694  ASN695  SER759  ASP760  ASP761  ALA762  ILE779  LEU786  VAL792 
 PHE793  MET794  SER795  GLU796  ALA797  LYS798  CYS799  TRP800  GLU811  SER814 

> <Gold.Protein.RotatedAtoms>
  150.8294  134.7540  159.6840 H   0  0  0  0  0  0  0  0  0  0  0  0  # atno 6907 bound_to 6896
  152.4400  134.5606  159.9903 H   0  0  0  0  0  0  0  0  0  0  0  0  # atno 6908 bound_to 6896
  151.5770  133.3345  159.3037 H   0  0  0  0  0  0  0  0  0  0  0  0  # atno 6909 bound_to 6896
  145.1223  139.3381  143.4708 H   0  0  0  0  0  0  0  0  0  0  0  0  # atno 7974 bound_to 7965
  155.1062  140.0396  157.2711 H   0  0  0  0  0  0  0  0  0  0  0  0  # atno 8008 bound_to 7997
  154.6720  140.2614  155.6971 H   0  0  0  0  0  0  0  0  0  0  0  0  # atno 8009 bound_to 7997
  156.2662  140.2796  156.1233 H   0  0  0  0  0  0  0  0  0  0  0  0  # atno 8010 bound_to 7997
  140.0607  143.4970  152.2033 H   0  0  0  0  0  0  0  0  0  0  0  0  # atno 10167 bound_to 10162
  156.0109  130.4527  150.3545 H   0  0  0  0  0  0  0  0  0  0  0  0  # atno 10718 bound_to 10713
  153.7621  135.6918  153.4923 H   0  0  0  0  0  0  0  0  0  0  0  0  # atno 10763 bound_to 10752
  153.1931  135.4463  155.0173 H   0  0  0  0  0  0  0  0  0  0  0  0  # atno 10764 bound_to 10752
  154.8149  135.3394  154.7136 H   0  0  0  0  0  0  0  0  0  0  0  0  # atno 10765 bound_to 10752
  141.0540  133.9642  157.2786 H   0  0  0  0  0  0  0  0  0  0  0  0  # atno 11005 bound_to 11000
  146.3520  140.1187  142.8601 LP  0  0  0  0  0  0  0  0  0  0  0  0  # atno 17320 bound_to 7965
  145.0727  140.9166  143.4872 LP  0  0  0  0  0  0  0  0  0  0  0  0  # atno 17321 bound_to 7965
  139.5895  144.7544  151.3435 LP  0  0  0  0  0  0  0  0  0  0  0  0  # atno 17342 bound_to 10162
  140.7173  143.7231  150.7680 LP  0  0  0  0  0  0  0  0  0  0  0  0  # atno 17343 bound_to 10162
  157.1636  131.0351  151.2829 LP  0  0  0  0  0  0  0  0  0  0  0  0  # atno 17370 bound_to 10713
  157.4290  130.7479  149.6974 LP  0  0  0  0  0  0  0  0  0  0  0  0  # atno 17371 bound_to 10713
  139.9374  135.0195  156.8601 LP  0  0  0  0  0  0  0  0  0  0  0  0  # atno 17394 bound_to 11000
  140.6000  134.0181  155.7533 LP  0  0  0  0  0  0  0  0  0  0  0  0  # atno 17395 bound_to 11000

$$$$
