AV-unprocessed.smi:1877|AV-procd|sdf|7624|dock1
  -GOLD-   22720 9353D 1   1.00000     0.00000
 Structure written by MMmdl.
 33 35  0  0  0  0  0  0  0  0  2 V2000
  152.6561  139.5620  156.6538 O   0  0  0  0  0  0  0  0  0  0  0  0
  151.5896  140.3680  157.1109 C   0  0  2  0  0  0  0  0  0  0  0  0
  150.9825  141.0909  155.8914 C   0  0  0  0  0  0  0  0  0  0  0  0
  150.2428  140.1819  155.0070 N   0  0  0  0  0  0  0  0  0  0  0  0
  150.5840  138.9533  154.5315 C   0  0  0  0  0  0  0  0  0  0  0  0
  149.5688  138.5265  153.7303 N   0  3  0  0  0  0  0  0  0  0  0  0
  148.5620  139.4941  153.6976 C   0  0  0  0  0  0  0  0  0  0  0  0
  147.3423  139.5197  153.0285 C   0  0  0  0  0  0  0  0  0  0  0  0
  146.5438  140.6681  153.2121 C   0  0  0  0  0  0  0  0  0  0  0  0
  146.9662  141.7335  154.0340 C   0  0  0  0  0  0  0  0  0  0  0  0
  148.2052  141.6971  154.7069 C   0  0  0  0  0  0  0  0  0  0  0  0
  148.9877  140.5588  154.5194 C   0  0  0  0  0  0  0  0  0  0  0  0
  152.0232  141.3428  158.2002 C   0  0  0  0  0  0  0  0  0  0  0  0
  151.8129  142.7305  158.0385 C   0  0  0  0  0  0  0  0  0  0  0  0
  152.1954  143.6320  159.0503 C   0  0  0  0  0  0  0  0  0  0  0  0
  151.9895  144.9599  158.8865 F   0  0  0  0  0  0  0  0  0  0  0  0
  152.7885  143.1524  160.2332 C   0  0  0  0  0  0  0  0  0  0  0  0
  152.9967  141.7706  160.4040 C   0  0  0  0  0  0  0  0  0  0  0  0
  152.6146  140.8670  159.3933 C   0  0  0  0  0  0  0  0  0  0  0  0
  152.8094  139.5395  159.5817 F   0  0  0  0  0  0  0  0  0  0  0  0
  152.3198  138.7005  156.4582 H   0  0  0  0  0  0  0  0  0  0  0  0
  150.8527  139.6798  157.5248 H   0  0  0  0  0  0  0  0  0  0  0  0
  150.2942  141.8743  156.2125 H   0  0  0  0  0  0  0  0  0  0  0  0
  151.7576  141.5814  155.3007 H   0  0  0  0  0  0  0  0  0  0  0  0
  151.4993  138.4193  154.7430 H   0  0  0  0  0  0  0  0  0  0  0  0
  147.0160  138.7053  152.3982 H   0  0  0  0  0  0  0  0  0  0  0  0
  145.5880  140.7328  152.7128 H   0  0  0  0  0  0  0  0  0  0  0  0
  146.3271  142.5966  154.1508 H   0  0  0  0  0  0  0  0  0  0  0  0
  148.5214  142.5179  155.3336 H   0  0  0  0  0  0  0  0  0  0  0  0
  151.3522  143.1094  157.1379 H   0  0  0  0  0  0  0  0  0  0  0  0
  153.0810  143.8435  161.0100 H   0  0  0  0  0  0  0  0  0  0  0  0
  153.4481  141.4031  161.3138 H   0  0  0  0  0  0  0  0  0  0  0  0
  149.5662  137.6399  153.2422 H   0  0  0  0  0  0  0  0  0  0  0  0
  1  2  1  0  0  0  0
  1 21  1  0  0  0  0
  2  3  1  0  0  0  0
  2 13  1  0  0  0  0
  2 22  1  0  0  0  0
  3  4  1  0  0  0  0
  3 23  1  0  0  0  0
  3 24  1  0  0  0  0
  4 12  1  0  0  0  0
  4  5  1  0  0  0  0
  5  6  2  0  0  0  0
  5 25  1  0  0  0  0
  6  7  1  0  0  0  0
  6 33  1  0  0  0  0
  7 12  2  0  0  0  0
  7  8  1  0  0  0  0
  8  9  2  0  0  0  0
  8 26  1  0  0  0  0
  9 10  1  0  0  0  0
  9 27  1  0  0  0  0
 10 11  2  0  0  0  0
 10 28  1  0  0  0  0
 11 12  1  0  0  0  0
 11 29  1  0  0  0  0
 13 19  1  0  0  0  0
 13 14  2  0  0  0  0
 14 15  1  0  0  0  0
 14 30  1  0  0  0  0
 15 16  1  0  0  0  0
 15 17  2  0  0  0  0
 17 18  1  0  0  0  0
 17 31  1  0  0  0  0
 18 19  2  0  0  0  0
 18 32  1  0  0  0  0
 19 20  1  0  0  0  0
M  CHG  1   6   1
M  END
> <s_m_source_file>
AV-unprocessed.smi

> <i_m_source_file_index>
1877

> <i_lp_mmshare_version>
43012

> <i_f3d_flags>
0

> <s_epik_input>
RmMxW2NIXVtjSF1jKEYpW2NIXWMxW0NASF0oW09IXSlbQ0gyXW4oW2NIXW4yKWMoYzIzKVtjSF1bY0hdW2NIXVtjSF0z

> <s_epik_cmdline>
J2VwaWtfcHl0aG9uJywgJy1waCcsICc3LjAnLCAnLXRuJywgJzgnLCAnLW1hJywgJzIwMCcsICctbWV0YWxfYmluZGluZycsICctaW1hZScsICc8aW5maWxlLm1hZT4nLCAnLW9tYWUnLCAnPG91dGZpbGUubWFlPic=

> <r_epik_Ionization_Penalty>
1.3029

> <r_epik_Ionization_Penalty_Charging>
1.3029

> <r_epik_Ionization_Penalty_Neutral>
3.53208e-06

> <r_epik_State_Penalty>
1.377

> <r_epik_Charging_Adjusted_Penalty>
2.6799

> <i_epik_Tot_Q>
1

> <i_epik_Tot_abs_Q>
1

> <r_epik_Metal_State_Penalty>
5.40879

> <b_epik_Metal_Only>
0

> <s_lp_Force_Field>
OPLS_2005

> <r_lp_Energy>
17.5281

> <b_lp_Chiralities_Consistent>
1

> <s_lp_Variant>
AV-unprocessed.smi:1877-3

> <Gold.Version>
5.8.1

> <Gold.Id.Protein>
6NUR|6NUR_protein|mol2

> <Gold.PLP.Fitness>
56.8111

> <Gold.PLP.PLP>
-48.3492

> <Gold.PLP.part.hbond>
-3.0000

> <Gold.PLP.part.metal>
0.0000

> <Gold.PLP.part.buried>
2.1582

> <Gold.PLP.part.nonpolar>
-47.5079

> <Gold.PLP.part.repulsive>
0.0645

> <Gold.PLP.ligand.clash>
0.0000

> <Gold.PLP.ligand.torsion>
0.2756

> <Gold.PLP.Chemscore.Hbond>
3.0000

> <Gold.PLP.Chemscore.CHOScore>
0.0000

> <Gold.PLP.Chemscore.Metal>
0.0000

> <Gold.Chemscore.Hbonds>
donor molecule, donor type, donor heavy atom, donor atom, acceptor molecule, acceptor atom, score
      L1  H     6    33       P1  7948  2.00
      P1  H  7997  8010       L1     1  1.00

> <Gold.PLP.Chemscore.Internal.Correction>
0.0132

> <Gold.Rescore>
     Score         DG    S(hbond)    S(metal)    S(lipo)     H(rot)  DE(clash)    DE(int)     intcor
     17.52     -19.07       1.80        0.00     109.86       2.06       1.08       0.47       ----

> <Gold.Chemscore.Fitness>
17.5206

> <Gold.Chemscore.DG>
-19.0696

> <Gold.Chemscore.ZeroCoef>
-5.4800

> <Gold.Chemscore.Hbond>
1.7991

> <Gold.Chemscore.Metal>
0.0000

> <Gold.Chemscore.Lipo>
109.8570

> <Gold.Chemscore.Internal_Hbond>
0.0000

> <Gold.Chemscore.DEClash>
1.0772

> <Gold.Chemscore.DEInternal>
0.4718

> <Gold.Chemscore.Rot>
2.0597

> <Gold.Chemscore.Internal.Correction>
   9.000000E+99

> <Gold.Chemscore.Hbonds>
donor molecule, donor type, donor heavy atom, donor atom, acceptor molecule, acceptor atom, score
      L1  H     6    33       P1  7948  0.79
      P1  H  7997  8010       L1     1  0.99

> <Gold.Chemscore.Hbond.Weighted>
-6.0091

> <Gold.Chemscore.Metal.Weighted>
-0.0000

> <Gold.Chemscore.Lipo.Weighted>
-12.8533

> <Gold.Chemscore.Internal_Hbond.Weighted>
0.0000

> <Gold.Chemscore.DEClash.Weighted>
1.0772

> <Gold.Chemscore.DEInternal.Weighted>
0.4718

> <Gold.Chemscore.Rot.Weighted>
5.2728

> <Gold.Chemscore.Internal.Correction.Weighted>
   9.000000E+99

> <Gold.Protein.RotatedTorsions>
[ 6907 6896 6895 6894 ] final   96.92 input  -60.11 | X-H torsion
[ 7974 7965 7964 7962 ] final  141.61 input  175.53 | X-H torsion
[ 8008 7997 7996 7995 ] final   80.01 input   59.86 | X-H torsion
[ 10167 10162 10161 10158 ] final -102.60 input  -65.29 | X-H torsion
[ 10718 10713 10712 10709 ] final -123.60 input   66.30 | X-H torsion
[ 10763 10752 10751 10750 ] final   -3.58 input  -60.55 | X-H torsion
[ 11005 11000 10999 10996 ] final -131.43 input  -57.11 | X-H torsion

> <Gold.Protein.ActiveResidues>
 VAL166  LYS551  ARG553  GLY616  TRP617  ASP618  TYR619  PRO620  LYS621  CYS622 
 ASP623  PHE694  ASN695  SER759  ASP760  ASP761  ALA762  ILE779  LEU786  VAL792 
 PHE793  MET794  SER795  GLU796  ALA797  LYS798  CYS799  TRP800  GLU811  SER814 

> <Gold.Protein.RotatedAtoms>
  152.5430  134.0813  159.8236 H   0  0  0  0  0  0  0  0  0  0  0  0  # atno 6907 bound_to 6896
  151.0914  133.5305  159.2622 H   0  0  0  0  0  0  0  0  0  0  0  0  # atno 6908 bound_to 6896
  151.2095  135.0484  159.8959 H   0  0  0  0  0  0  0  0  0  0  0  0  # atno 6909 bound_to 6896
  144.9081  139.5330  143.5722 H   0  0  0  0  0  0  0  0  0  0  0  0  # atno 7974 bound_to 7965
  155.8776  140.3446  155.5865 H   0  0  0  0  0  0  0  0  0  0  0  0  # atno 8008 bound_to 7997
  155.7756  140.0851  157.2104 H   0  0  0  0  0  0  0  0  0  0  0  0  # atno 8009 bound_to 7997
  154.4022  140.1510  156.2980 H   0  0  0  0  0  0  0  0  0  0  0  0  # atno 8010 bound_to 7997
  140.2289  143.3621  152.0904 H   0  0  0  0  0  0  0  0  0  0  0  0  # atno 10167 bound_to 10162
  156.1516  130.6538  150.9921 H   0  0  0  0  0  0  0  0  0  0  0  0  # atno 10718 bound_to 10713
  153.3733  135.6995  153.6621 H   0  0  0  0  0  0  0  0  0  0  0  0  # atno 10763 bound_to 10752
  153.5262  135.3601  155.2655 H   0  0  0  0  0  0  0  0  0  0  0  0  # atno 10764 bound_to 10752
  154.8684  135.4170  154.3015 H   0  0  0  0  0  0  0  0  0  0  0  0  # atno 10765 bound_to 10752
  140.9260  134.1382  157.4275 H   0  0  0  0  0  0  0  0  0  0  0  0  # atno 11005 bound_to 11000
  146.3144  139.7865  142.8995 LP  0  0  0  0  0  0  0  0  0  0  0  0  # atno 17320 bound_to 7965
  145.3501  141.0305  143.3343 LP  0  0  0  0  0  0  0  0  0  0  0  0  # atno 17321 bound_to 7965
  139.5117  144.6905  151.5773 LP  0  0  0  0  0  0  0  0  0  0  0  0  # atno 17342 bound_to 10162
  140.6200  143.9277  150.6518 LP  0  0  0  0  0  0  0  0  0  0  0  0  # atno 17343 bound_to 10162
  157.6661  131.0871  150.7725 LP  0  0  0  0  0  0  0  0  0  0  0  0  # atno 17370 bound_to 10713
  156.7792  130.4854  149.5404 LP  0  0  0  0  0  0  0  0  0  0  0  0  # atno 17371 bound_to 10713
  139.8785  134.9988  156.5921 LP  0  0  0  0  0  0  0  0  0  0  0  0  # atno 17394 bound_to 11000
  140.7926  133.8570  155.8659 LP  0  0  0  0  0  0  0  0  0  0  0  0  # atno 17395 bound_to 11000

$$$$
