AV-unprocessed.smi:2023|AV-procd|sdf|8190|dock9
  -GOLD-   2272010443D 1   1.00000     0.00000
 Structure written by MMmdl.
 34 35  0  0  0  0  0  0  0  0  2 V2000
  153.9218  136.5570  157.1078 O   0  0  0  0  0  0  0  0  0  0  0  0
  153.0081  137.4069  157.8885 S   0  0  0  0  0  0  0  0  0  0  0  0
  152.2334  136.7719  158.9675 O   0  0  0  0  0  0  0  0  0  0  0  0
  153.6515  138.8264  158.3297 N   0  5  0  0  0  0  0  0  0  0  0  0
  152.8118  139.8133  158.9851 C   0  0  0  0  0  0  0  0  0  0  0  0
  153.6712  140.7394  159.8730 C   0  0  0  0  0  0  0  0  0  0  0  0
  153.0526  142.1042  160.1585 C   0  0  0  0  0  0  0  0  0  0  0  0
  152.6976  142.9764  159.1065 C   0  0  0  0  0  0  0  0  0  0  0  0
  152.1188  144.2212  159.4193 C   0  0  0  0  0  0  0  0  0  0  0  0
  151.9147  144.5433  160.7755 C   0  0  0  0  0  0  0  0  0  0  0  0
  152.2417  143.7174  161.7921 N   0  0  0  0  0  0  0  0  0  0  0  0
  152.7984  142.5259  161.4835 C   0  0  0  0  0  0  0  0  0  0  0  0
  151.8502  138.0299  156.7531 N   0  0  0  0  0  0  0  0  0  0  0  0
  150.9864  137.0466  156.0777 C   0  0  0  0  0  0  0  0  0  0  0  0
  149.8547  137.7403  155.3025 C   0  0  0  0  0  0  0  0  0  0  0  0
  150.3901  138.6999  154.4049 O   0  0  0  0  0  0  0  0  0  0  0  0
  151.0841  139.7232  155.1011 C   0  0  0  0  0  0  0  0  0  0  0  0
  152.2786  139.1283  155.8629 C   0  0  0  0  0  0  0  0  0  0  0  0
  152.2559  140.4175  158.2675 H   0  0  0  0  0  0  0  0  0  0  0  0
  152.0615  139.3334  159.6138 H   0  0  0  0  0  0  0  0  0  0  0  0
  153.8544  140.2443  160.8272 H   0  0  0  0  0  0  0  0  0  0  0  0
  154.6538  140.8819  159.4208 H   0  0  0  0  0  0  0  0  0  0  0  0
  152.8672  142.6971  158.0772 H   0  0  0  0  0  0  0  0  0  0  0  0
  151.8384  144.9122  158.6384 H   0  0  0  0  0  0  0  0  0  0  0  0
  151.4729  145.4895  161.0509 H   0  0  0  0  0  0  0  0  0  0  0  0
  153.0494  141.8896  162.3195 H   0  0  0  0  0  0  0  0  0  0  0  0
  151.5974  136.4494  155.3998 H   0  0  0  0  0  0  0  0  0  0  0  0
  150.5578  136.3629  156.8100 H   0  0  0  0  0  0  0  0  0  0  0  0
  149.2867  137.0041  154.7339 H   0  0  0  0  0  0  0  0  0  0  0  0
  149.1537  138.2191  155.9882 H   0  0  0  0  0  0  0  0  0  0  0  0
  151.4332  140.4648  154.3825 H   0  0  0  0  0  0  0  0  0  0  0  0
  150.4079  140.2396  155.7844 H   0  0  0  0  0  0  0  0  0  0  0  0
  152.7687  139.9160  156.4338 H   0  0  0  0  0  0  0  0  0  0  0  0
  153.0160  138.7421  155.1585 H   0  0  0  0  0  0  0  0  0  0  0  0
  1  2  2  0  0  0  0
  2  3  2  0  0  0  0
  2  4  1  0  0  0  0
  2 13  1  0  0  0  0
  4  5  1  0  0  0  0
  5  6  1  0  0  0  0
  5 19  1  0  0  0  0
  5 20  1  0  0  0  0
  6  7  1  0  0  0  0
  6 21  1  0  0  0  0
  6 22  1  0  0  0  0
  7 12  1  0  0  0  0
  7  8  2  0  0  0  0
  8  9  1  0  0  0  0
  8 23  1  0  0  0  0
  9 10  2  0  0  0  0
  9 24  1  0  0  0  0
 10 11  1  0  0  0  0
 10 25  1  0  0  0  0
 11 12  2  0  0  0  0
 12 26  1  0  0  0  0
 13 18  1  0  0  0  0
 13 14  1  0  0  0  0
 14 15  1  0  0  0  0
 14 27  1  0  0  0  0
 14 28  1  0  0  0  0
 15 16  1  0  0  0  0
 15 29  1  0  0  0  0
 15 30  1  0  0  0  0
 16 17  1  0  0  0  0
 17 18  1  0  0  0  0
 17 31  1  0  0  0  0
 17 32  1  0  0  0  0
 18 33  1  0  0  0  0
 18 34  1  0  0  0  0
M  CHG  1   4  -1
M  END
> <s_m_source_file>
AV-unprocessed.smi

> <i_m_source_file_index>
2023

> <i_lp_mmshare_version>
43012

> <i_f3d_flags>
0

> <s_epik_input>
W0NIMl0xW0NIMl1PW0NIMl1bQ0gyXU4xUyg9TykoPU8pW05IXVtDSDJdW0NIMl1jMltjSF1bY0hdW2NIXW5bY0hdMg==

> <s_epik_cmdline>
J2VwaWtfcHl0aG9uJywgJy1waCcsICc3LjAnLCAnLXRuJywgJzgnLCAnLW1hJywgJzIwMCcsICctbWV0YWxfYmluZGluZycsICctaW1hZScsICc8aW5maWxlLm1hZT4nLCAnLW9tYWUnLCAnPG91dGZpbGUubWFlPic=

> <r_epik_Ionization_Penalty>
1.23471

> <r_epik_Ionization_Penalty_Charging>
1.20871

> <r_epik_Ionization_Penalty_Neutral>
0.025996

> <r_epik_State_Penalty>
1.46261

> <r_epik_Charging_Adjusted_Penalty>
2.67132

> <i_epik_Tot_Q>
-1

> <i_epik_Tot_abs_Q>
1

> <r_epik_Metal_State_Penalty>
0.521406

> <b_epik_Metal_Only>
0

> <s_lp_Force_Field>
OPLS_2005

> <r_lp_Energy>
4.19534

> <b_lp_Chiralities_Consistent>
1

> <s_lp_Variant>
AV-unprocessed.smi:2023-2

> <Gold.Version>
5.8.1

> <Gold.Id.Protein>
6NUR|6NUR_protein|mol2

> <Gold.PLP.Fitness>
46.9446

> <Gold.PLP.PLP>
-36.3245

> <Gold.PLP.part.hbond>
-3.0000

> <Gold.PLP.part.metal>
0.0000

> <Gold.PLP.part.buried>
-4.9052

> <Gold.PLP.part.nonpolar>
-29.8505

> <Gold.PLP.part.repulsive>
0.3501

> <Gold.PLP.ligand.clash>
0.0000

> <Gold.PLP.ligand.torsion>
1.2323

> <Gold.PLP.Chemscore.Hbond>
3.8473

> <Gold.PLP.Chemscore.CHOScore>
0.0000

> <Gold.PLP.Chemscore.Metal>
0.0000

> <Gold.Chemscore.Hbonds>
donor molecule, donor type, donor heavy atom, donor atom, acceptor molecule, acceptor atom, score
      P1  H  6896  6908       L1     3  0.88
      P1  H  7997  8008       L1     4  2.00
      P1  H 10752 10764       L1     1  0.81

> <Gold.PLP.Chemscore.Internal.Correction>
1.5428

> <Gold.Rescore>
     Score         DG    S(hbond)    S(metal)    S(lipo)     H(rot)  DE(clash)    DE(int)     intcor
     19.77     -20.94       2.56        0.00      93.28       1.56       0.01       1.16       ----

> <Gold.Chemscore.Fitness>
19.7668

> <Gold.Chemscore.DG>
-20.9368

> <Gold.Chemscore.ZeroCoef>
-5.4800

> <Gold.Chemscore.Hbond>
2.5582

> <Gold.Chemscore.Metal>
0.0000

> <Gold.Chemscore.Lipo>
93.2790

> <Gold.Chemscore.Internal_Hbond>
0.0000

> <Gold.Chemscore.DEClash>
0.0089

> <Gold.Chemscore.DEInternal>
1.1611

> <Gold.Chemscore.Rot>
1.5630

> <Gold.Chemscore.Internal.Correction>
   9.000000E+99

> <Gold.Chemscore.Hbonds>
donor molecule, donor type, donor heavy atom, donor atom, acceptor molecule, acceptor atom, score
      P1  H  6896  6908       L1     3  0.84
      P1  H  7997  8008       L1     4  0.24
      P1  H 10752 10764       L1     1  0.77

> <Gold.Chemscore.Hbond.Weighted>
-8.5444

> <Gold.Chemscore.Metal.Weighted>
-0.0000

> <Gold.Chemscore.Lipo.Weighted>
-10.9136

> <Gold.Chemscore.Internal_Hbond.Weighted>
0.0000

> <Gold.Chemscore.DEClash.Weighted>
0.0089

> <Gold.Chemscore.DEInternal.Weighted>
1.1611

> <Gold.Chemscore.Rot.Weighted>
4.0013

> <Gold.Chemscore.Internal.Correction.Weighted>
   9.000000E+99

> <Gold.Protein.RotatedTorsions>
[ 6907 6896 6895 6894 ] final -117.04 input  -60.11 | X-H torsion
[ 7974 7965 7964 7962 ] final -124.15 input  175.53 | X-H torsion
[ 8008 7997 7996 7995 ] final  -86.89 input   59.86 | X-H torsion
[ 10167 10162 10161 10158 ] final   -7.93 input  -65.29 | X-H torsion
[ 10718 10713 10712 10709 ] final   77.63 input   66.30 | X-H torsion
[ 10763 10752 10751 10750 ] final    8.50 input  -60.55 | X-H torsion
[ 11005 11000 10999 10996 ] final  134.59 input  -57.11 | X-H torsion

> <Gold.Protein.ActiveResidues>
 VAL166  LYS551  ARG553  GLY616  TRP617  ASP618  TYR619  PRO620  LYS621  CYS622 
 ASP623  PHE694  ASN695  SER759  ASP760  ASP761  ALA762  ILE779  LEU786  VAL792 
 PHE793  MET794  SER795  GLU796  ALA797  LYS798  CYS799  TRP800  GLU811  SER814 

> <Gold.Protein.RotatedAtoms>
  150.8105  133.8431  159.3184 H   0  0  0  0  0  0  0  0  0  0  0  0  # atno 6907 bound_to 6896
  151.6218  135.1029  160.0113 H   0  0  0  0  0  0  0  0  0  0  0  0  # atno 6908 bound_to 6896
  152.4196  133.7055  159.6505 H   0  0  0  0  0  0  0  0  0  0  0  0  # atno 6909 bound_to 6896
  145.0111  140.7907  143.4438 H   0  0  0  0  0  0  0  0  0  0  0  0  # atno 7974 bound_to 7965
  154.6571  140.0572  157.0020 H   0  0  0  0  0  0  0  0  0  0  0  0  # atno 8008 bound_to 7997
  155.1285  140.3254  155.4461 H   0  0  0  0  0  0  0  0  0  0  0  0  # atno 8009 bound_to 7997
  156.2602  140.1985  156.6404 H   0  0  0  0  0  0  0  0  0  0  0  0  # atno 8010 bound_to 7997
  140.7044  143.6025  150.8783 H   0  0  0  0  0  0  0  0  0  0  0  0  # atno 10167 bound_to 10162
  157.6717  130.9830  150.1669 H   0  0  0  0  0  0  0  0  0  0  0  0  # atno 10718 bound_to 10713
  153.2244  135.6885  153.7963 H   0  0  0  0  0  0  0  0  0  0  0  0  # atno 10763 bound_to 10752
  153.7150  135.3276  155.3255 H   0  0  0  0  0  0  0  0  0  0  0  0  # atno 10764 bound_to 10752
  154.8284  135.4599  154.1104 H   0  0  0  0  0  0  0  0  0  0  0  0  # atno 10765 bound_to 10752
  139.9925  134.9510  156.9888 H   0  0  0  0  0  0  0  0  0  0  0  0  # atno 11005 bound_to 11000
  145.2021  139.2247  143.5187 LP  0  0  0  0  0  0  0  0  0  0  0  0  # atno 17320 bound_to 7965
  146.3470  140.1841  142.8589 LP  0  0  0  0  0  0  0  0  0  0  0  0  # atno 17321 bound_to 7965
  139.9750  143.6015  152.2961 LP  0  0  0  0  0  0  0  0  0  0  0  0  # atno 17342 bound_to 10162
  139.6615  144.7662  151.1954 LP  0  0  0  0  0  0  0  0  0  0  0  0  # atno 17343 bound_to 10162
  156.2432  130.3693  149.8314 LP  0  0  0  0  0  0  0  0  0  0  0  0  # atno 17370 bound_to 10713
  156.6108  130.8586  151.3454 LP  0  0  0  0  0  0  0  0  0  0  0  0  # atno 17371 bound_to 10713
  140.4881  134.1220  155.7228 LP  0  0  0  0  0  0  0  0  0  0  0  0  # atno 17394 bound_to 11000
  141.1577  133.8851  157.1932 LP  0  0  0  0  0  0  0  0  0  0  0  0  # atno 17395 bound_to 11000

$$$$
