AV-unprocessed.smi:11|AV-procd|sdf|56|dock6
  -GOLD-   2262015173D 1   1.00000     0.00000
 Structure written by MMmdl.
 33 35  0  0  0  0  0  0  0  0  1 V2000
  152.5803  144.9037  158.2324 C   0  0  0  0  0  0  0  0  0  0  0  0
  152.0443  143.7961  157.3089 C   0  0  0  0  0  0  0  0  0  0  0  0
  150.9542  142.8866  157.9290 C   0  0  2  0  0  0  0  0  0  0  0  0
  149.7815  143.6530  158.1231 O   0  0  0  0  0  0  0  0  0  0  0  0
  151.4116  142.2951  159.2696 C   0  0  0  0  0  0  0  0  0  0  0  0
  152.1490  141.0223  158.8588 C   0  0  0  0  0  0  0  0  0  0  0  0
  151.4414  140.5513  157.6772 N   0  0  0  0  0  0  0  0  0  0  0  0
  151.9726  139.5255  156.8691 C   0  0  0  0  0  0  0  0  0  0  0  0
  153.1424  138.9519  157.2529 N   0  0  0  0  0  0  0  0  0  0  0  0
  153.6842  137.9804  156.5131 C   0  0  0  0  0  0  0  0  0  0  0  0
  153.2283  137.4405  155.3808 N   0  0  0  0  0  0  0  0  0  0  0  0
  152.0469  138.0046  155.0031 C   0  0  0  0  0  0  0  0  0  0  0  0
  151.2912  137.6864  153.8942 N   0  0  0  0  0  0  0  0  0  0  0  0
  150.1486  138.4654  153.8516 C   0  0  0  0  0  0  0  0  0  0  0  0
  150.1422  139.3078  154.9341 C   0  0  0  0  0  0  0  0  0  0  0  0
  151.3465  139.0437  155.6821 C   0  0  0  0  0  0  0  0  0  0  0  0
  150.6566  141.6287  157.0895 C   0  0  0  0  0  0  0  0  0  0  0  0
  151.5142  136.9864  153.2013 H   0  0  0  0  0  0  0  0  0  0  0  0
  153.3593  145.4757  157.7282 H   0  0  0  0  0  0  0  0  0  0  0  0
  153.0174  144.4912  159.1416 H   0  0  0  0  0  0  0  0  0  0  0  0
  151.8010  145.6069  158.5233 H   0  0  0  0  0  0  0  0  0  0  0  0
  151.6601  144.2596  156.3995 H   0  0  0  0  0  0  0  0  0  0  0  0
  152.8863  143.1784  156.9935 H   0  0  0  0  0  0  0  0  0  0  0  0
  149.4766  143.9519  157.2800 H   0  0  0  0  0  0  0  0  0  0  0  0
  152.0290  142.9729  159.8600 H   0  0  0  0  0  0  0  0  0  0  0  0
  150.5475  142.0219  159.8778 H   0  0  0  0  0  0  0  0  0  0  0  0
  153.1860  141.2480  158.6068 H   0  0  0  0  0  0  0  0  0  0  0  0
  152.1424  140.2763  159.6541 H   0  0  0  0  0  0  0  0  0  0  0  0
  154.6170  137.5787  156.8804 H   0  0  0  0  0  0  0  0  0  0  0  0
  149.4291  138.3548  153.0535 H   0  0  0  0  0  0  0  0  0  0  0  0
  149.3803  140.0318  155.1800 H   0  0  0  0  0  0  0  0  0  0  0  0
  149.6037  141.3532  157.1625 H   0  0  0  0  0  0  0  0  0  0  0  0
  150.8915  141.7744  156.0360 H   0  0  0  0  0  0  0  0  0  0  0  0
  1  2  1  0  0  0  0
  1 19  1  0  0  0  0
  1 20  1  0  0  0  0
  1 21  1  0  0  0  0
  2  3  1  0  0  0  0
  2 22  1  0  0  0  0
  2 23  1  0  0  0  0
  3 17  1  0  0  0  0
  3  4  1  0  0  0  0
  3  5  1  0  0  0  0
  4 24  1  0  0  0  0
  5  6  1  0  0  0  0
  5 25  1  0  0  0  0
  5 26  1  0  0  0  0
  6  7  1  0  0  0  0
  6 27  1  0  0  0  0
  6 28  1  0  0  0  0
  7  8  1  0  0  0  0
  7 17  1  0  0  0  0
  8 16  1  0  0  0  0
  8  9  2  0  0  0  0
  9 10  1  0  0  0  0
 10 11  2  0  0  0  0
 10 29  1  0  0  0  0
 11 12  1  0  0  0  0
 12 16  2  0  0  0  0
 12 13  1  0  0  0  0
 13 18  1  0  0  0  0
 13 14  1  0  0  0  0
 14 15  2  0  0  0  0
 14 30  1  0  0  0  0
 15 16  1  0  0  0  0
 15 31  1  0  0  0  0
 17 32  1  0  0  0  0
 17 33  1  0  0  0  0
M  END
> <s_m_source_file>
AV-unprocessed.smi

> <i_m_source_file_index>
11

> <i_lp_mmshare_version>
43012

> <i_f3d_flags>
0

> <s_epik_input>
W0NIM11bQ0gyXVtDQEBdMShbT0hdKVtDSDJdW0NIMl1OKFtDSDJdMSljKG5bY0hdbjIpYyhjMjMpW2NIXVtjSF1bbkhdMw==

> <s_epik_cmdline>
J2VwaWtfcHl0aG9uJywgJy1waCcsICc3LjAnLCAnLXRuJywgJzgnLCAnLW1hJywgJzIwMCcsICctbWV0YWxfYmluZGluZycsICctaW1hZScsICc8aW5maWxlLm1hZT4nLCAnLW9tYWUnLCAnPG91dGZpbGUubWFlPic=

> <r_lp_tautomer_probability>
0.999998

> <r_epik_Ionization_Penalty>
0.0511253

> <r_epik_Ionization_Penalty_Charging>
0

> <r_epik_Ionization_Penalty_Neutral>
0.0511253

> <r_epik_State_Penalty>
0.0394181

> <r_epik_Charging_Adjusted_Penalty>
0.0394181

> <i_epik_Tot_Q>
0

> <i_epik_Tot_abs_Q>
0

> <r_epik_Metal_State_Penalty>
0.0367127

> <b_epik_Metal_Only>
0

> <s_lp_Force_Field>
OPLS_2005

> <r_lp_Energy>
27.4112

> <b_lp_Chiralities_Consistent>
1

> <s_lp_Variant>
AV-unprocessed.smi:11-2

> <Gold.Version>
5.8.1

> <Gold.Id.Protein>
6NUR|6NUR_protein|mol2

> <Gold.PLP.Fitness>
44.3652

> <Gold.PLP.PLP>
-31.5346

> <Gold.PLP.part.hbond>
-5.2846

> <Gold.PLP.part.metal>
0.0000

> <Gold.PLP.part.buried>
-0.9451

> <Gold.PLP.part.nonpolar>
-26.3686

> <Gold.PLP.part.repulsive>
0.1426

> <Gold.PLP.ligand.clash>
0.0000

> <Gold.PLP.ligand.torsion>
0.2699

> <Gold.PLP.Chemscore.Hbond>
2.9860

> <Gold.PLP.Chemscore.CHOScore>
1.3856

> <Gold.PLP.Chemscore.Metal>
0.0000

> <Gold.Chemscore.Hbonds>
donor molecule, donor type, donor heavy atom, donor atom, acceptor molecule, acceptor atom, score
      L1  H     4    24       P1  8028  1.00
      L1  H    13    18       P1  7949  1.00
      P1  H  7997  8010       L1     9  0.50
      P1  H 10752 10765       L1    11  0.26
      L1  C    14    30       P1  7948  0.89
      L1  C    14    30       P1  7957  0.73

> <Gold.PLP.Chemscore.Internal.Correction>
0.2557

> <Gold.Rescore>
     Score         DG    S(hbond)    S(metal)    S(lipo)     H(rot)  DE(clash)    DE(int)     intcor
     15.60     -17.07       1.78        0.00      79.54       1.43       1.24       0.23       ----

> <Gold.Chemscore.Fitness>
15.6027

> <Gold.Chemscore.DG>
-17.0699

> <Gold.Chemscore.ZeroCoef>
-5.4800

> <Gold.Chemscore.Hbond>
1.7784

> <Gold.Chemscore.Metal>
0.0000

> <Gold.Chemscore.Lipo>
79.5444

> <Gold.Chemscore.Internal_Hbond>
0.0000

> <Gold.Chemscore.DEClash>
1.2405

> <Gold.Chemscore.DEInternal>
0.2267

> <Gold.Chemscore.Rot>
1.4283

> <Gold.Chemscore.Internal.Correction>
   9.000000E+99

> <Gold.Chemscore.Hbonds>
donor molecule, donor type, donor heavy atom, donor atom, acceptor molecule, acceptor atom, score
      L1  H     4    24       P1  8028  0.45
      L1  H    13    18       P1  7949  0.84
      P1  H  7997  8010       L1     9  0.01
      P1  H 10752 10765       L1    11  0.09

> <Gold.Chemscore.Hbond.Weighted>
-5.9398

> <Gold.Chemscore.Metal.Weighted>
-0.0000

> <Gold.Chemscore.Lipo.Weighted>
-9.3067

> <Gold.Chemscore.Internal_Hbond.Weighted>
0.0000

> <Gold.Chemscore.DEClash.Weighted>
1.2405

> <Gold.Chemscore.DEInternal.Weighted>
0.2267

> <Gold.Chemscore.Rot.Weighted>
3.6566

> <Gold.Chemscore.Internal.Correction.Weighted>
   9.000000E+99

> <Gold.Protein.RotatedTorsions>
[ 6907 6896 6895 6894 ] final  -69.63 input  -60.11 | X-H torsion
[ 7974 7965 7964 7962 ] final -136.48 input  175.53 | X-H torsion
[ 8008 7997 7996 7995 ] final   48.06 input   59.86 | X-H torsion
[ 10167 10162 10161 10158 ] final  -39.37 input  -65.29 | X-H torsion
[ 10718 10713 10712 10709 ] final  -42.57 input   66.30 | X-H torsion
[ 10763 10752 10751 10750 ] final -170.04 input  -60.55 | X-H torsion
[ 11005 11000 10999 10996 ] final   10.04 input  -57.11 | X-H torsion

> <Gold.Protein.ActiveResidues>
 VAL166  LYS551  ARG553  GLY616  TRP617  ASP618  TYR619  PRO620  LYS621  CYS622 
 ASP623  PHE694  ASN695  SER759  ASP760  ASP761  ALA762  ILE779  LEU786  VAL792 
 PHE793  MET794  SER795  GLU796  ALA797  LYS798  CYS799  TRP800  GLU811  SER814 

> <Gold.Protein.RotatedAtoms>
  150.7296  134.5569  159.5822 H   0  0  0  0  0  0  0  0  0  0  0  0  # atno 6907 bound_to 6896
  152.3042  134.7572  160.0360 H   0  0  0  0  0  0  0  0  0  0  0  0  # atno 6908 bound_to 6896
  151.8142  133.3350  159.3601 H   0  0  0  0  0  0  0  0  0  0  0  0  # atno 6909 bound_to 6896
  144.8924  140.6660  143.5137 H   0  0  0  0  0  0  0  0  0  0  0  0  # atno 7974 bound_to 7965
  155.3794  140.3428  155.4246 H   0  0  0  0  0  0  0  0  0  0  0  0  # atno 8008 bound_to 7997
  156.1619  140.1603  156.8631 H   0  0  0  0  0  0  0  0  0  0  0  0  # atno 8009 bound_to 7997
  154.5147  140.0781  156.8041 H   0  0  0  0  0  0  0  0  0  0  0  0  # atno 8010 bound_to 7997
  140.7066  143.3218  151.2773 H   0  0  0  0  0  0  0  0  0  0  0  0  # atno 10167 bound_to 10162
  156.2582  130.4194  149.8572 H   0  0  0  0  0  0  0  0  0  0  0  0  # atno 10718 bound_to 10713
  154.6458  135.2904  155.0047 H   0  0  0  0  0  0  0  0  0  0  0  0  # atno 10763 bound_to 10752
  154.1158  135.6555  153.4897 H   0  0  0  0  0  0  0  0  0  0  0  0  # atno 10764 bound_to 10752
  153.0350  135.5276  154.7345 H   0  0  0  0  0  0  0  0  0  0  0  0  # atno 10765 bound_to 10752
  140.5189  134.0578  155.7839 H   0  0  0  0  0  0  0  0  0  0  0  0  # atno 11005 bound_to 11000
  145.3760  139.1647  143.4306 LP  0  0  0  0  0  0  0  0  0  0  0  0  # atno 17320 bound_to 7965
  146.3061  140.3836  142.8686 LP  0  0  0  0  0  0  0  0  0  0  0  0  # atno 17321 bound_to 7965
  139.6675  144.0080  152.2732 LP  0  0  0  0  0  0  0  0  0  0  0  0  # atno 17342 bound_to 10162
  139.9667  144.6521  150.8028 LP  0  0  0  0  0  0  0  0  0  0  0  0  # atno 17343 bound_to 10162
  156.6096  130.8581  151.3451 LP  0  0  0  0  0  0  0  0  0  0  0  0  # atno 17370 bound_to 10713
  157.7241  130.9598  150.1558 LP  0  0  0  0  0  0  0  0  0  0  0  0  # atno 17371 bound_to 10713
  141.1345  133.9245  157.2464 LP  0  0  0  0  0  0  0  0  0  0  0  0  # atno 17394 bound_to 11000
  139.9617  135.0152  156.9278 LP  0  0  0  0  0  0  0  0  0  0  0  0  # atno 17395 bound_to 11000

$$$$
