AV-unprocessed.smi:1176|AV-procd|sdf|4953|dock10
  -GOLD-   22720 3543D 1   1.00000     0.00000
 Structure written by MMmdl.
 50 51  0  0  0  0  0  0  0  0  2 V2000
  152.1806  145.1151  160.1347 C   0  0  0  0  0  0  0  0  0  0  0  0
  151.6957  144.2310  158.9758 C   0  0  0  0  0  0  0  0  0  0  0  0
  151.9077  144.9456  157.6306 C   0  0  0  0  0  0  0  0  0  0  0  0
  150.2210  143.8237  159.1845 C   0  0  0  0  0  0  0  0  0  0  0  0
  149.6635  143.0536  158.0424 N   0  3  2  0  0  0  0  0  0  0  0  0
  148.4739  142.2516  158.4295 C   0  0  0  0  0  0  0  0  0  0  0  0
  147.8308  141.5722  157.2049 C   0  0  0  0  0  0  0  0  0  0  0  0
  148.8395  140.7064  156.4308 C   0  0  2  0  0  0  0  0  0  0  0  0
  149.1818  139.5179  157.2102 N   0  0  0  0  0  0  0  0  0  0  0  0
  148.3094  138.7101  157.8314 C   0  0  0  0  0  0  0  0  0  0  0  0
  147.0946  138.9048  157.8446 O   0  0  0  0  0  0  0  0  0  0  0  0
  148.9053  137.4958  158.5485 C   0  0  0  0  0  0  0  0  0  0  0  0
  147.8545  136.6747  159.1608 N   0  0  0  0  0  0  0  0  0  0  0  0
  146.8393  136.1754  158.3649 C   0  0  0  0  0  0  0  0  0  0  0  0
  145.8131  135.4371  158.8399 C   0  0  0  0  0  0  0  0  0  0  0  0
  145.7196  135.1146  160.2578 C   0  0  0  0  0  0  0  0  0  0  0  0
  144.7932  134.4640  160.7430 O   0  0  0  0  0  0  0  0  0  0  0  0
  146.7774  135.6210  161.0475 N   0  0  0  0  0  0  0  0  0  0  0  0
  146.7277  135.3374  162.4672 C   0  0  0  0  0  0  0  0  0  0  0  0
  147.8420  136.4067  160.5476 C   0  0  0  0  0  0  0  0  0  0  0  0
  148.7278  136.8563  161.2777 O   0  0  0  0  0  0  0  0  0  0  0  0
  150.0812  141.5574  156.0915 C   0  0  0  0  0  0  0  0  0  0  0  0
  150.6792  142.2232  157.3426 C   0  0  0  0  0  0  0  0  0  0  0  0
  151.6084  146.0415  160.1953 H   0  0  0  0  0  0  0  0  0  0  0  0
  153.2311  145.3813  160.0140 H   0  0  0  0  0  0  0  0  0  0  0  0
  152.0821  144.6001  161.0909 H   0  0  0  0  0  0  0  0  0  0  0  0
  152.3195  143.3376  158.9815 H   0  0  0  0  0  0  0  0  0  0  0  0
  151.3037  145.8511  157.5626 H   0  0  0  0  0  0  0  0  0  0  0  0
  151.6427  144.3037  156.7901 H   0  0  0  0  0  0  0  0  0  0  0  0
  152.9514  145.2334  157.5003 H   0  0  0  0  0  0  0  0  0  0  0  0
  150.1073  143.2402  160.0998 H   0  0  0  0  0  0  0  0  0  0  0  0
  149.6370  144.7333  159.3330 H   0  0  0  0  0  0  0  0  0  0  0  0
  148.7627  141.5063  159.1721 H   0  0  0  0  0  0  0  0  0  0  0  0
  147.7341  142.8978  158.9037 H   0  0  0  0  0  0  0  0  0  0  0  0
  146.9757  140.9704  157.5160 H   0  0  0  0  0  0  0  0  0  0  0  0
  147.4333  142.3401  156.5399 H   0  0  0  0  0  0  0  0  0  0  0  0
  148.3705  140.3736  155.5031 H   0  0  0  0  0  0  0  0  0  0  0  0
  150.1617  139.2833  157.2752 H   0  0  0  0  0  0  0  0  0  0  0  0
  149.4859  136.8970  157.8445 H   0  0  0  0  0  0  0  0  0  0  0  0
  149.6212  137.8364  159.2984 H   0  0  0  0  0  0  0  0  0  0  0  0
  146.8626  136.3915  157.3067 H   0  0  0  0  0  0  0  0  0  0  0  0
  145.0497  135.0829  158.1629 H   0  0  0  0  0  0  0  0  0  0  0  0
  147.7042  135.4898  162.9265 H   0  0  0  0  0  0  0  0  0  0  0  0
  146.4484  134.2904  162.5981 H   0  0  0  0  0  0  0  0  0  0  0  0
  145.9822  136.0068  162.8988 H   0  0  0  0  0  0  0  0  0  0  0  0
  150.8412  140.9578  155.5900 H   0  0  0  0  0  0  0  0  0  0  0  0
  149.7980  142.3327  155.3784 H   0  0  0  0  0  0  0  0  0  0  0  0
  151.5278  142.8352  157.0403 H   0  0  0  0  0  0  0  0  0  0  0  0
  151.0686  141.4653  158.0245 H   0  0  0  0  0  0  0  0  0  0  0  0
  149.3325  143.7371  157.3764 H   0  0  0  0  0  0  0  0  0  0  0  0
  1  2  1  0  0  0  0
  1 24  1  0  0  0  0
  1 25  1  0  0  0  0
  1 26  1  0  0  0  0
  2  3  1  0  0  0  0
  2  4  1  0  0  0  0
  2 27  1  0  0  0  0
  3 28  1  0  0  0  0
  3 29  1  0  0  0  0
  3 30  1  0  0  0  0
  4  5  1  0  0  0  0
  4 31  1  0  0  0  0
  4 32  1  0  0  0  0
  5 23  1  0  0  0  0
  5  6  1  0  0  0  0
  5 50  1  0  0  0  0
  6  7  1  0  0  0  0
  6 33  1  0  0  0  0
  6 34  1  0  0  0  0
  7  8  1  0  0  0  0
  7 35  1  0  0  0  0
  7 36  1  0  0  0  0
  8  9  1  0  0  0  0
  8 22  1  0  0  0  0
  8 37  1  0  0  0  0
  9 10  1  0  0  0  0
  9 38  1  0  0  0  0
 10 11  2  0  0  0  0
 10 12  1  0  0  0  0
 12 13  1  0  0  0  0
 12 39  1  0  0  0  0
 12 40  1  0  0  0  0
 13 20  1  0  0  0  0
 13 14  1  0  0  0  0
 14 15  2  0  0  0  0
 14 41  1  0  0  0  0
 15 16  1  0  0  0  0
 15 42  1  0  0  0  0
 16 17  2  0  0  0  0
 16 18  1  0  0  0  0
 18 19  1  0  0  0  0
 18 20  1  0  0  0  0
 19 43  1  0  0  0  0
 19 44  1  0  0  0  0
 19 45  1  0  0  0  0
 20 21  2  0  0  0  0
 22 23  1  0  0  0  0
 22 46  1  0  0  0  0
 22 47  1  0  0  0  0
 23 48  1  0  0  0  0
 23 49  1  0  0  0  0
M  CHG  1   5   1
M  END
> <s_m_source_file>
AV-unprocessed.smi

> <i_m_source_file_index>
1176

> <i_lp_mmshare_version>
43012

> <i_f3d_flags>
0

> <s_epik_input>
W0NIM11bQ0hdKFtDSDNdKVtDSDJdTjFbQ0gyXVtDSDJdW0NIXShbQ0gyXVtDSDJdMSlbTkhdQyg9TylbQ0gyXW4yW2NIXVtjSF1jKD1PKW4oW0NIM10pYzI9Tw==

> <s_epik_cmdline>
J2VwaWtfcHl0aG9uJywgJy1waCcsICc3LjAnLCAnLXRuJywgJzgnLCAnLW1hJywgJzIwMCcsICctbWV0YWxfYmluZGluZycsICctaW1hZScsICc8aW5maWxlLm1hZT4nLCAnLW9tYWUnLCAnPG91dGZpbGUubWFlPic=

> <r_lp_tautomer_probability>
1

> <r_epik_Ionization_Penalty>
0.00401429

> <r_epik_Ionization_Penalty_Charging>
0.00401425

> <r_epik_Ionization_Penalty_Neutral>
4.29561e-08

> <r_epik_State_Penalty>
0.00287487

> <r_epik_Charging_Adjusted_Penalty>
0.00688912

> <i_epik_Tot_Q>
1

> <i_epik_Tot_abs_Q>
1

> <r_epik_Metal_State_Penalty>
-0

> <b_epik_Metal_Only>
0

> <s_lp_Force_Field>
OPLS_2005

> <r_lp_Energy>
29.2662

> <b_lp_Chiralities_Consistent>
1

> <s_lp_Variant>
AV-unprocessed.smi:1176-2

> <Gold.Version>
5.8.1

> <Gold.Id.Protein>
6NUR|6NUR_protein|mol2

> <Gold.PLP.Fitness>
42.7993

> <Gold.PLP.PLP>
-34.6391

> <Gold.PLP.part.hbond>
-2.0837

> <Gold.PLP.part.metal>
0.0000

> <Gold.PLP.part.buried>
-6.6320

> <Gold.PLP.part.nonpolar>
-27.0972

> <Gold.PLP.part.repulsive>
0.0782

> <Gold.PLP.ligand.clash>
0.0000

> <Gold.PLP.ligand.torsion>
0.4445

> <Gold.PLP.Chemscore.Hbond>
2.9913

> <Gold.PLP.Chemscore.CHOScore>
0.0000

> <Gold.PLP.Chemscore.Metal>
0.0000

> <Gold.Chemscore.Hbonds>
donor molecule, donor type, donor heavy atom, donor atom, acceptor molecule, acceptor atom, score
      L1  H     5    50       P1  8028  2.00
      P1  H  6931  6943       L1    21  1.00

> <Gold.PLP.Chemscore.Internal.Correction>
0.0754

> <Gold.Rescore>
     Score         DG    S(hbond)    S(metal)    S(lipo)     H(rot)  DE(clash)    DE(int)     intcor
     13.15     -16.41       1.92        0.00      80.64       1.92       0.12       3.13       ----

> <Gold.Chemscore.Fitness>
13.1493

> <Gold.Chemscore.DG>
-16.4071

> <Gold.Chemscore.ZeroCoef>
-5.4800

> <Gold.Chemscore.Hbond>
1.9181

> <Gold.Chemscore.Metal>
0.0000

> <Gold.Chemscore.Lipo>
80.6425

> <Gold.Chemscore.Internal_Hbond>
0.0000

> <Gold.Chemscore.DEClash>
0.1241

> <Gold.Chemscore.DEInternal>
3.1336

> <Gold.Chemscore.Rot>
1.9198

> <Gold.Chemscore.Internal.Correction>
   9.000000E+99

> <Gold.Chemscore.Hbonds>
donor molecule, donor type, donor heavy atom, donor atom, acceptor molecule, acceptor atom, score
      L1  H     5    50       P1  8028  0.43
      P1  H  6931  6943       L1    21  0.95

> <Gold.Chemscore.Hbond.Weighted>
-6.4066

> <Gold.Chemscore.Metal.Weighted>
-0.0000

> <Gold.Chemscore.Lipo.Weighted>
-9.4352

> <Gold.Chemscore.Internal_Hbond.Weighted>
0.0000

> <Gold.Chemscore.DEClash.Weighted>
0.1241

> <Gold.Chemscore.DEInternal.Weighted>
3.1336

> <Gold.Chemscore.Rot.Weighted>
4.9147

> <Gold.Chemscore.Internal.Correction.Weighted>
   9.000000E+99

> <Gold.Protein.RotatedTorsions>
[ 6907 6896 6895 6894 ] final  106.38 input  -60.11 | X-H torsion
[ 7974 7965 7964 7962 ] final  115.83 input  175.53 | X-H torsion
[ 8008 7997 7996 7995 ] final  177.46 input   59.86 | X-H torsion
[ 10167 10162 10161 10158 ] final -148.82 input  -65.29 | X-H torsion
[ 10718 10713 10712 10709 ] final -135.12 input   66.30 | X-H torsion
[ 10763 10752 10751 10750 ] final   41.23 input  -60.55 | X-H torsion
[ 11005 11000 10999 10996 ] final   63.63 input  -57.11 | X-H torsion

> <Gold.Protein.ActiveResidues>
 VAL166  LYS551  ARG553  GLY616  TRP617  ASP618  TYR619  PRO620  LYS621  CYS622 
 ASP623  PHE694  ASN695  SER759  ASP760  ASP761  ALA762  ILE779  LEU786  VAL792 
 PHE793  MET794  SER795  GLU796  ALA797  LYS798  CYS799  TRP800  GLU811  SER814 

> <Gold.Protein.RotatedAtoms>
  152.5196  133.9390  159.7616 H   0  0  0  0  0  0  0  0  0  0  0  0  # atno 6907 bound_to 6896
  150.9724  133.6322  159.2743 H   0  0  0  0  0  0  0  0  0  0  0  0  # atno 6908 bound_to 6896
  151.3528  135.0893  159.9461 H   0  0  0  0  0  0  0  0  0  0  0  0  # atno 6909 bound_to 6896
  145.1871  139.3019  143.4387 H   0  0  0  0  0  0  0  0  0  0  0  0  # atno 7974 bound_to 7965
  156.0654  140.1358  156.9892 H   0  0  0  0  0  0  0  0  0  0  0  0  # atno 8008 bound_to 7997
  154.4503  140.0983  156.6650 H   0  0  0  0  0  0  0  0  0  0  0  0  # atno 8009 bound_to 7997
  155.5312  140.3458  155.4429 H   0  0  0  0  0  0  0  0  0  0  0  0  # atno 8010 bound_to 7997
  139.7497  143.8536  152.2583 H   0  0  0  0  0  0  0  0  0  0  0  0  # atno 10167 bound_to 10162
  156.2627  130.7219  151.1159 H   0  0  0  0  0  0  0  0  0  0  0  0  # atno 10718 bound_to 10713
  152.9914  135.6168  154.2754 H   0  0  0  0  0  0  0  0  0  0  0  0  # atno 10763 bound_to 10752
  154.2486  135.2786  155.2827 H   0  0  0  0  0  0  0  0  0  0  0  0  # atno 10764 bound_to 10752
  154.5308  135.5788  153.6815 H   0  0  0  0  0  0  0  0  0  0  0  0  # atno 10765 bound_to 10752
  140.0012  134.6439  155.9928 H   0  0  0  0  0  0  0  0  0  0  0  0  # atno 11005 bound_to 11000
  146.3443  140.2071  142.8589 LP  0  0  0  0  0  0  0  0  0  0  0  0  # atno 17320 bound_to 7965
  145.0078  140.8687  143.5243 LP  0  0  0  0  0  0  0  0  0  0  0  0  # atno 17321 bound_to 7965
  139.8511  144.7164  150.9213 LP  0  0  0  0  0  0  0  0  0  0  0  0  # atno 17342 bound_to 10162
  140.7796  143.3898  151.1329 LP  0  0  0  0  0  0  0  0  0  0  0  0  # atno 17343 bound_to 10162
  157.7256  131.0652  150.5944 LP  0  0  0  0  0  0  0  0  0  0  0  0  # atno 17370 bound_to 10713
  156.6033  130.4360  149.5888 LP  0  0  0  0  0  0  0  0  0  0  0  0  # atno 17371 bound_to 10713
  141.1643  133.6537  156.4425 LP  0  0  0  0  0  0  0  0  0  0  0  0  # atno 17394 bound_to 11000
  140.4725  134.6740  157.5135 LP  0  0  0  0  0  0  0  0  0  0  0  0  # atno 17395 bound_to 11000

$$$$
