AV-unprocessed.smi:1693|AV-procd|sdf|6786|dock7
  -GOLD-   22720 7543D 1   1.00000     0.00000
 Structure written by MMmdl.
 35 36  0  0  0  0  0  0  0  0  2 V2000
  151.9659  144.6106  160.5711 C   0  0  0  0  0  0  0  0  0  0  0  0
  151.9860  143.3061  159.8507 C   0  0  0  0  0  0  0  0  0  0  0  0
  150.8767  142.7095  159.4080 N   0  0  0  0  0  0  0  0  0  0  0  0
  151.1489  141.5095  158.7670 N   0  0  0  0  0  0  0  0  0  0  0  0
  152.4572  141.2195  158.7265 C   0  0  0  0  0  0  0  0  0  0  0  0
  152.9291  140.1006  158.1521 N   0  5  0  0  0  0  0  0  0  0  0  0
  152.0701  139.1697  157.6775 C   0  0  0  0  0  0  0  0  0  0  0  0
  151.9912  137.9957  158.0466 O   0  0  0  0  0  0  0  0  0  0  0  0
  151.2481  139.6317  156.7235 N   0  0  0  0  0  0  0  0  0  0  0  0
  150.2129  138.8730  156.0212 C   0  0  0  0  0  0  0  0  0  0  0  0
  149.4717  139.6987  154.9387 C   0  0  0  0  0  0  0  0  0  0  0  0
  150.3711  139.8497  153.8543 O   0  0  0  0  0  0  0  0  0  0  0  0
  148.2561  138.8930  154.4189 C   0  0  0  0  0  0  0  0  0  0  0  0
  147.4110  139.6632  153.3885 C   0  0  0  0  0  0  0  0  0  0  0  0
  146.9611  141.0215  153.9425 C   0  0  0  0  0  0  0  0  0  0  0  0
  148.1686  141.8547  154.3925 C   0  0  0  0  0  0  0  0  0  0  0  0
  149.0207  141.0993  155.4282 C   0  0  0  0  0  0  0  0  0  0  0  0
  153.4697  142.4297  159.5145 S   0  0  0  0  0  0  0  0  0  0  0  0
  151.7858  145.4220  159.8660 H   0  0  0  0  0  0  0  0  0  0  0  0
  152.9199  144.7839  161.0690 H   0  0  0  0  0  0  0  0  0  0  0  0
  151.1756  144.6144  161.3221 H   0  0  0  0  0  0  0  0  0  0  0  0
  151.3465  140.6022  156.4640 H   0  0  0  0  0  0  0  0  0  0  0  0
  150.6808  137.9959  155.5724 H   0  0  0  0  0  0  0  0  0  0  0  0
  149.4932  138.4788  156.7403 H   0  0  0  0  0  0  0  0  0  0  0  0
  149.8966  139.6999  153.0513 H   0  0  0  0  0  0  0  0  0  0  0  0
  148.5857  137.9464  153.9882 H   0  0  0  0  0  0  0  0  0  0  0  0
  147.6140  138.6314  155.2614 H   0  0  0  0  0  0  0  0  0  0  0  0
  147.9849  139.8112  152.4730 H   0  0  0  0  0  0  0  0  0  0  0  0
  146.5394  139.0704  153.1096 H   0  0  0  0  0  0  0  0  0  0  0  0
  146.3949  141.5642  153.1853 H   0  0  0  0  0  0  0  0  0  0  0  0
  146.2860  140.8695  154.7857 H   0  0  0  0  0  0  0  0  0  0  0  0
  148.7804  142.1099  153.5265 H   0  0  0  0  0  0  0  0  0  0  0  0
  147.8287  142.8004  154.8151 H   0  0  0  0  0  0  0  0  0  0  0  0
  148.4402  140.9867  156.3449 H   0  0  0  0  0  0  0  0  0  0  0  0
  149.8836  141.7132  155.6892 H   0  0  0  0  0  0  0  0  0  0  0  0
  1  2  1  0  0  0  0
  1 19  1  0  0  0  0
  1 20  1  0  0  0  0
  1 21  1  0  0  0  0
  2 18  1  0  0  0  0
  2  3  2  0  0  0  0
  3  4  1  0  0  0  0
  4  5  2  0  0  0  0
  5  6  1  0  0  0  0
  5 18  1  0  0  0  0
  6  7  1  0  0  0  0
  7  8  2  0  0  0  0
  7  9  1  0  0  0  0
  9 10  1  0  0  0  0
  9 22  1  0  0  0  0
 10 11  1  0  0  0  0
 10 23  1  0  0  0  0
 10 24  1  0  0  0  0
 11 17  1  0  0  0  0
 11 12  1  0  0  0  0
 11 13  1  0  0  0  0
 12 25  1  0  0  0  0
 13 14  1  0  0  0  0
 13 26  1  0  0  0  0
 13 27  1  0  0  0  0
 14 15  1  0  0  0  0
 14 28  1  0  0  0  0
 14 29  1  0  0  0  0
 15 16  1  0  0  0  0
 15 30  1  0  0  0  0
 15 31  1  0  0  0  0
 16 17  1  0  0  0  0
 16 32  1  0  0  0  0
 16 33  1  0  0  0  0
 17 34  1  0  0  0  0
 17 35  1  0  0  0  0
M  CHG  1   6  -1
M  END
> <s_m_source_file>
AV-unprocessed.smi

> <i_m_source_file_index>
1693

> <i_lp_mmshare_version>
43012

> <i_f3d_flags>
0

> <s_epik_input>
W0NIM11jMW5uYyhzMSlbTkhdQyg9TylbTkhdW0NIMl1DMihbT0hdKVtDSDJdW0NIMl1bQ0gyXVtDSDJdW0NIMl0y

> <s_epik_cmdline>
J2VwaWtfcHl0aG9uJywgJy1waCcsICc3LjAnLCAnLXRuJywgJzgnLCAnLW1hJywgJzIwMCcsICctbWV0YWxfYmluZGluZycsICctaW1hZScsICc8aW5maWxlLm1hZT4nLCAnLW9tYWUnLCAnPG91dGZpbGUubWFlPic=

> <r_lp_tautomer_probability>
1

> <r_epik_Ionization_Penalty>
4.37877

> <r_epik_Ionization_Penalty_Charging>
4.24206

> <r_epik_Ionization_Penalty_Neutral>
0.136706

> <r_epik_State_Penalty>
4.2416

> <r_epik_Charging_Adjusted_Penalty>
8.48367

> <i_epik_Tot_Q>
-1

> <i_epik_Tot_abs_Q>
1

> <r_epik_Metal_State_Penalty>
0.704476

> <b_epik_Metal_Only>
1

> <s_lp_Force_Field>
OPLS_2005

> <r_lp_Energy>
12.2595

> <b_lp_Chiralities_Consistent>
1

> <s_lp_Variant>
AV-unprocessed.smi:1693-2

> <Gold.Version>
5.8.1

> <Gold.Id.Protein>
6NUR|6NUR_protein|mol2

> <Gold.PLP.Fitness>
40.5080

> <Gold.PLP.PLP>
-29.8402

> <Gold.PLP.part.hbond>
-3.8123

> <Gold.PLP.part.metal>
0.0000

> <Gold.PLP.part.buried>
-2.0693

> <Gold.PLP.part.nonpolar>
-23.9185

> <Gold.PLP.part.repulsive>
0.0907

> <Gold.PLP.ligand.clash>
0.0000

> <Gold.PLP.ligand.torsion>
0.6771

> <Gold.PLP.Chemscore.Hbond>
4.0000

> <Gold.PLP.Chemscore.CHOScore>
0.0000

> <Gold.PLP.Chemscore.Metal>
0.0000

> <Gold.Chemscore.Hbonds>
donor molecule, donor type, donor heavy atom, donor atom, acceptor molecule, acceptor atom, score
      L1  H    12    25       P1  7957  1.00
      P1  H  7989  7998       L1    12  0.99
      P1  H  7997  8009       L1     6  1.98

> <Gold.PLP.Chemscore.Internal.Correction>
0.0219

> <Gold.Rescore>
     Score         DG    S(hbond)    S(metal)    S(lipo)     H(rot)  DE(clash)    DE(int)     intcor
     16.95     -18.07       2.49        0.00      76.54       1.83       0.43       0.68       ----

> <Gold.Chemscore.Fitness>
16.9525

> <Gold.Chemscore.DG>
-18.0656

> <Gold.Chemscore.ZeroCoef>
-5.4800

> <Gold.Chemscore.Hbond>
2.4896

> <Gold.Chemscore.Metal>
0.0000

> <Gold.Chemscore.Lipo>
76.5446

> <Gold.Chemscore.Internal_Hbond>
0.0000

> <Gold.Chemscore.DEClash>
0.4285

> <Gold.Chemscore.DEInternal>
0.6846

> <Gold.Chemscore.Rot>
1.8303

> <Gold.Chemscore.Internal.Correction>
   9.000000E+99

> <Gold.Chemscore.Hbonds>
donor molecule, donor type, donor heavy atom, donor atom, acceptor molecule, acceptor atom, score
      L1  H    12    25       P1  7957  0.95
      P1  H  7989  7998       L1    12  0.51
      P1  H  7997  8009       L1     6  0.63

> <Gold.Chemscore.Hbond.Weighted>
-8.3154

> <Gold.Chemscore.Metal.Weighted>
-0.0000

> <Gold.Chemscore.Lipo.Weighted>
-8.9557

> <Gold.Chemscore.Internal_Hbond.Weighted>
0.0000

> <Gold.Chemscore.DEClash.Weighted>
0.4285

> <Gold.Chemscore.DEInternal.Weighted>
0.6846

> <Gold.Chemscore.Rot.Weighted>
4.6855

> <Gold.Chemscore.Internal.Correction.Weighted>
   9.000000E+99

> <Gold.Protein.RotatedTorsions>
[ 6907 6896 6895 6894 ] final   93.37 input  -60.11 | X-H torsion
[ 7974 7965 7964 7962 ] final   46.27 input  175.53 | X-H torsion
[ 8008 7997 7996 7995 ] final  152.54 input   59.86 | X-H torsion
[ 10167 10162 10161 10158 ] final   72.80 input  -65.29 | X-H torsion
[ 10718 10713 10712 10709 ] final  -46.30 input   66.30 | X-H torsion
[ 10763 10752 10751 10750 ] final   -0.68 input  -60.55 | X-H torsion
[ 11005 11000 10999 10996 ] final  101.40 input  -57.11 | X-H torsion

> <Gold.Protein.ActiveResidues>
 VAL166  LYS551  ARG553  GLY616  TRP617  ASP618  TYR619  PRO620  LYS621  CYS622 
 ASP623  PHE694  ASN695  SER759  ASP760  ASP761  ALA762  ILE779  LEU786  VAL792 
 PHE793  MET794  SER795  GLU796  ALA797  LYS798  CYS799  TRP800  GLU811  SER814 

> <Gold.Protein.RotatedAtoms>
  152.5452  134.1359  159.8458 H   0  0  0  0  0  0  0  0  0  0  0  0  # atno 6907 bound_to 6896
  151.1400  133.4971  159.2604 H   0  0  0  0  0  0  0  0  0  0  0  0  # atno 6908 bound_to 6896
  151.1584  135.0271  159.8754 H   0  0  0  0  0  0  0  0  0  0  0  0  # atno 6909 bound_to 6896
  146.0405  139.4874  142.9781 H   0  0  0  0  0  0  0  0  0  0  0  0  # atno 7974 bound_to 7965
  156.2624  140.2018  156.6349 H   0  0  0  0  0  0  0  0  0  0  0  0  # atno 8008 bound_to 7997
  154.6654  140.0556  157.0132 H   0  0  0  0  0  0  0  0  0  0  0  0  # atno 8009 bound_to 7997
  155.1215  140.3225  155.4499 H   0  0  0  0  0  0  0  0  0  0  0  0  # atno 8010 bound_to 7997
  140.0313  144.5463  150.7504 H   0  0  0  0  0  0  0  0  0  0  0  0  # atno 10167 bound_to 10162
  156.2197  130.4165  149.9008 H   0  0  0  0  0  0  0  0  0  0  0  0  # atno 10718 bound_to 10713
  153.3350  135.6977  153.6915 H   0  0  0  0  0  0  0  0  0  0  0  0  # atno 10763 bound_to 10752
  153.5702  135.3518  155.2835 H   0  0  0  0  0  0  0  0  0  0  0  0  # atno 10764 bound_to 10752
  154.8626  135.4270  154.2549 H   0  0  0  0  0  0  0  0  0  0  0  0  # atno 10765 bound_to 10752
  139.8773  134.9181  156.4901 H   0  0  0  0  0  0  0  0  0  0  0  0  # atno 11005 bound_to 11000
  145.6892  141.0169  143.1564 LP  0  0  0  0  0  0  0  0  0  0  0  0  # atno 17320 bound_to 7965
  144.7072  139.8512  143.7426 LP  0  0  0  0  0  0  0  0  0  0  0  0  # atno 17321 bound_to 7965
  140.7300  143.2679  151.3984 LP  0  0  0  0  0  0  0  0  0  0  0  0  # atno 17342 bound_to 10162
  139.6074  144.1169  152.2263 LP  0  0  0  0  0  0  0  0  0  0  0  0  # atno 17343 bound_to 10162
  156.6659  130.8801  151.3555 LP  0  0  0  0  0  0  0  0  0  0  0  0  # atno 17370 bound_to 10713
  157.7081  130.9408  150.0998 LP  0  0  0  0  0  0  0  0  0  0  0  0  # atno 17371 bound_to 10713
  140.8665  133.8020  155.9319 LP  0  0  0  0  0  0  0  0  0  0  0  0  # atno 17394 bound_to 11000
  140.8997  134.2394  157.5049 LP  0  0  0  0  0  0  0  0  0  0  0  0  # atno 17395 bound_to 11000

$$$$
