AV-unprocessed.smi:1601|AV-procd|sdf|6434|dock2
  -GOLD-   22720 7 73D 1   1.00000     0.00000
 Structure written by MMmdl.
 41 42  0  0  0  0  0  0  0  0  1 V2000
  153.5060  141.7398  161.8044 C   0  0  0  0  0  0  0  0  0  0  0  0
  153.2796  141.8319  160.2735 C   0  0  1  0  0  0  0  0  0  0  0  0
  152.8591  140.4315  159.7487 C   0  0  0  0  0  0  0  0  0  0  0  0
  152.7913  140.3874  158.2915 N   0  0  0  0  0  0  0  0  0  0  0  0
  151.6768  140.1902  157.5712 C   0  0  0  0  0  0  0  0  0  0  0  0
  150.5650  140.0299  158.0766 O   0  0  0  0  0  0  0  0  0  0  0  0
  151.8518  140.1800  156.0450 C   0  0  1  0  0  0  0  0  0  0  0  0
  152.5415  138.9008  155.5368 C   0  0  0  0  0  0  0  0  0  0  0  0
  150.5667  140.3801  155.3884 N   0  0  0  0  0  0  0  0  0  0  0  0
  149.8764  139.5223  154.5533 C   0  0  0  0  0  0  0  0  0  0  0  0
  148.7186  140.1482  154.1902 C   0  0  0  0  0  0  0  0  0  0  0  0
  148.7878  141.4011  154.8604 C   0  0  0  0  0  0  0  0  0  0  0  0
  149.8928  141.5368  155.5754 N   0  0  0  0  0  0  0  0  0  0  0  0
  152.3328  142.9084  159.9002 N   0  0  0  0  0  0  0  0  0  0  0  0
  152.5479  143.4086  158.5370 C   0  0  0  0  0  0  0  0  0  0  0  0
  151.5853  144.5482  158.1598 C   0  0  0  0  0  0  0  0  0  0  0  0
  151.7066  145.6099  159.0960 O   0  0  0  0  0  0  0  0  0  0  0  0
  151.4277  145.1847  160.4224 C   0  0  0  0  0  0  0  0  0  0  0  0
  152.3931  144.0537  160.8158 C   0  0  0  0  0  0  0  0  0  0  0  0
  154.1506  140.9072  162.0837 H   0  0  0  0  0  0  0  0  0  0  0  0
  152.5613  141.6121  162.3340 H   0  0  0  0  0  0  0  0  0  0  0  0
  153.9994  142.6251  162.2029 H   0  0  0  0  0  0  0  0  0  0  0  0
  154.2454  142.0638  159.8215 H   0  0  0  0  0  0  0  0  0  0  0  0
  153.5480  139.6764  160.1316 H   0  0  0  0  0  0  0  0  0  0  0  0
  151.8632  140.1532  160.0884 H   0  0  0  0  0  0  0  0  0  0  0  0
  153.6596  140.5158  157.7922 H   0  0  0  0  0  0  0  0  0  0  0  0
  152.4996  141.0200  155.7852 H   0  0  0  0  0  0  0  0  0  0  0  0
  153.5098  138.7573  156.0177 H   0  0  0  0  0  0  0  0  0  0  0  0
  152.7156  138.9559  154.4619 H   0  0  0  0  0  0  0  0  0  0  0  0
  151.9402  138.0109  155.7270 H   0  0  0  0  0  0  0  0  0  0  0  0
  150.2632  138.5480  154.2921 H   0  0  0  0  0  0  0  0  0  0  0  0
  147.9409  139.7685  153.5445 H   0  0  0  0  0  0  0  0  0  0  0  0
  148.0721  142.2100  154.8492 H   0  0  0  0  0  0  0  0  0  0  0  0
  153.5775  143.7532  158.4271 H   0  0  0  0  0  0  0  0  0  0  0  0
  152.3984  142.6164  157.8064 H   0  0  0  0  0  0  0  0  0  0  0  0
  151.8169  144.9251  157.1636 H   0  0  0  0  0  0  0  0  0  0  0  0
  150.5547  144.1906  158.1349 H   0  0  0  0  0  0  0  0  0  0  0  0
  151.5410  146.0319  161.0991 H   0  0  0  0  0  0  0  0  0  0  0  0
  150.3912  144.8516  160.4971 H   0  0  0  0  0  0  0  0  0  0  0  0
  152.1317  143.7506  161.8280 H   0  0  0  0  0  0  0  0  0  0  0  0
  153.4114  144.4440  160.8541 H   0  0  0  0  0  0  0  0  0  0  0  0
  1  2  1  0  0  0  0
  1 20  1  0  0  0  0
  1 21  1  0  0  0  0
  1 22  1  0  0  0  0
  2  3  1  0  0  0  0
  2 14  1  0  0  0  0
  2 23  1  0  0  0  0
  3  4  1  0  0  0  0
  3 24  1  0  0  0  0
  3 25  1  0  0  0  0
  4  5  1  0  0  0  0
  4 26  1  0  0  0  0
  5  6  2  0  0  0  0
  5  7  1  0  0  0  0
  7  8  1  0  0  0  0
  7  9  1  0  0  0  0
  7 27  1  0  0  0  0
  8 28  1  0  0  0  0
  8 29  1  0  0  0  0
  8 30  1  0  0  0  0
  9 13  1  0  0  0  0
  9 10  1  0  0  0  0
 10 11  2  0  0  0  0
 10 31  1  0  0  0  0
 11 12  1  0  0  0  0
 11 32  1  0  0  0  0
 12 13  2  0  0  0  0
 12 33  1  0  0  0  0
 14 19  1  0  0  0  0
 14 15  1  0  0  0  0
 15 16  1  0  0  0  0
 15 34  1  0  0  0  0
 15 35  1  0  0  0  0
 16 17  1  0  0  0  0
 16 36  1  0  0  0  0
 16 37  1  0  0  0  0
 17 18  1  0  0  0  0
 18 19  1  0  0  0  0
 18 38  1  0  0  0  0
 18 39  1  0  0  0  0
 19 40  1  0  0  0  0
 19 41  1  0  0  0  0
M  END
> <s_m_source_file>
AV-unprocessed.smi

> <i_m_source_file_index>
1601

> <i_lp_mmshare_version>
43012

> <i_f3d_flags>
0

> <s_epik_input>
W0NIMl0xW0NIMl1PW0NIMl1bQ0gyXU4xW0NASF0oW0NIM10pW0NIMl1bTkhdQyg9TylbQ0BIXShbQ0gzXSluMltjSF1bY0hdW2NIXW4y

> <s_epik_cmdline>
J2VwaWtfcHl0aG9uJywgJy1waCcsICc3LjAnLCAnLXRuJywgJzgnLCAnLW1hJywgJzIwMCcsICctbWV0YWxfYmluZGluZycsICctaW1hZScsICc8aW5maWxlLm1hZT4nLCAnLW9tYWUnLCAnPG91dGZpbGUubWFlPic=

> <r_lp_tautomer_probability>
1

> <r_epik_Ionization_Penalty>
0.203323

> <r_epik_Ionization_Penalty_Charging>
0

> <r_epik_Ionization_Penalty_Neutral>
0.203323

> <r_epik_State_Penalty>
0.193192

> <r_epik_Charging_Adjusted_Penalty>
0.193192

> <i_epik_Tot_Q>
0

> <i_epik_Tot_abs_Q>
0

> <r_epik_Metal_State_Penalty>
0.193187

> <b_epik_Metal_Only>
0

> <s_lp_Force_Field>
OPLS_2005

> <r_lp_Energy>
33.1122

> <b_lp_Chiralities_Consistent>
1

> <s_lp_Variant>
AV-unprocessed.smi:1601-4

> <Gold.Version>
5.8.1

> <Gold.Id.Protein>
6NUR|6NUR_protein|mol2

> <Gold.PLP.Fitness>
44.9500

> <Gold.PLP.PLP>
-44.4262

> <Gold.PLP.part.hbond>
-1.0000

> <Gold.PLP.part.metal>
0.0000

> <Gold.PLP.part.buried>
-3.9788

> <Gold.PLP.part.nonpolar>
-39.5425

> <Gold.PLP.part.repulsive>
0.3707

> <Gold.PLP.ligand.clash>
0.0000

> <Gold.PLP.ligand.torsion>
1.0448

> <Gold.PLP.Chemscore.Hbond>
0.0000

> <Gold.PLP.Chemscore.CHOScore>
0.8388

> <Gold.PLP.Chemscore.Metal>
0.0000

> <Gold.Chemscore.Hbonds>
donor molecule, donor type, donor heavy atom, donor atom, acceptor molecule, acceptor atom, score
      L1  C    12    33       P1  8028  0.38

> <Gold.PLP.Chemscore.Internal.Correction>
0.0971

> <Gold.Rescore>
     Score         DG    S(hbond)    S(metal)    S(lipo)     H(rot)  DE(clash)    DE(int)     intcor
     12.26     -14.23       0.00        0.00     113.86       1.79       0.11       1.85       ----

> <Gold.Chemscore.Fitness>
12.2605

> <Gold.Chemscore.DG>
-14.2258

> <Gold.Chemscore.ZeroCoef>
-5.4800

> <Gold.Chemscore.Hbond>
0.0000

> <Gold.Chemscore.Metal>
0.0000

> <Gold.Chemscore.Lipo>
113.8552

> <Gold.Chemscore.Internal_Hbond>
0.0000

> <Gold.Chemscore.DEClash>
0.1119

> <Gold.Chemscore.DEInternal>
1.8535

> <Gold.Chemscore.Rot>
1.7872

> <Gold.Chemscore.Internal.Correction>
   9.000000E+99

> <Gold.Chemscore.Hbond.Weighted>
-0.0000

> <Gold.Chemscore.Metal.Weighted>
-0.0000

> <Gold.Chemscore.Lipo.Weighted>
-13.3211

> <Gold.Chemscore.Internal_Hbond.Weighted>
0.0000

> <Gold.Chemscore.DEClash.Weighted>
0.1119

> <Gold.Chemscore.DEInternal.Weighted>
1.8535

> <Gold.Chemscore.Rot.Weighted>
4.5752

> <Gold.Chemscore.Internal.Correction.Weighted>
   9.000000E+99

> <Gold.Protein.RotatedTorsions>
[ 6907 6896 6895 6894 ] final  -37.72 input  -60.11 | X-H torsion
[ 7974 7965 7964 7962 ] final  -48.39 input  175.53 | X-H torsion
[ 8008 7997 7996 7995 ] final  -65.00 input   59.86 | X-H torsion
[ 10167 10162 10161 10158 ] final -132.97 input  -65.29 | X-H torsion
[ 10718 10713 10712 10709 ] final -148.23 input   66.30 | X-H torsion
[ 10763 10752 10751 10750 ] final -151.87 input  -60.55 | X-H torsion
[ 11005 11000 10999 10996 ] final -132.98 input  -57.11 | X-H torsion

> <Gold.Protein.ActiveResidues>
 VAL166  LYS551  ARG553  GLY616  TRP617  ASP618  TYR619  PRO620  LYS621  CYS622 
 ASP623  PHE694  ASN695  SER759  ASP760  ASP761  ALA762  ILE779  LEU786  VAL792 
 PHE793  MET794  SER795  GLU796  ALA797  LYS798  CYS799  TRP800  GLU811  SER814 

> <Gold.Protein.RotatedAtoms>
  151.0113  134.9398  159.8008 H   0  0  0  0  0  0  0  0  0  0  0  0  # atno 6907 bound_to 6896
  152.5303  134.3025  159.9093 H   0  0  0  0  0  0  0  0  0  0  0  0  # atno 6908 bound_to 6896
  151.3031  133.4072  159.2675 H   0  0  0  0  0  0  0  0  0  0  0  0  # atno 6909 bound_to 6896
  145.9517  140.7566  142.9501 H   0  0  0  0  0  0  0  0  0  0  0  0  # atno 7974 bound_to 7965
  154.4645  140.0942  156.6983 H   0  0  0  0  0  0  0  0  0  0  0  0  # atno 8008 bound_to 7997
  155.4898  140.3470  155.4334 H   0  0  0  0  0  0  0  0  0  0  0  0  # atno 8009 bound_to 7997
  156.0931  140.1402  156.9554 H   0  0  0  0  0  0  0  0  0  0  0  0  # atno 8010 bound_to 7997
  139.9031  143.6584  152.2591 H   0  0  0  0  0  0  0  0  0  0  0  0  # atno 10167 bound_to 10162
  156.4177  130.8013  151.2234 H   0  0  0  0  0  0  0  0  0  0  0  0  # atno 10718 bound_to 10713
  154.8030  135.3249  154.7502 H   0  0  0  0  0  0  0  0  0  0  0  0  # atno 10763 bound_to 10752
  153.8166  135.6891  153.4837 H   0  0  0  0  0  0  0  0  0  0  0  0  # atno 10764 bound_to 10752
  153.1758  135.4605  154.9907 H   0  0  0  0  0  0  0  0  0  0  0  0  # atno 10765 bound_to 10752
  140.9122  134.1553  157.4380 H   0  0  0  0  0  0  0  0  0  0  0  0  # atno 11005 bound_to 11000
  144.6797  140.2445  143.7339 LP  0  0  0  0  0  0  0  0  0  0  0  0  # atno 17320 bound_to 7965
  145.8162  139.2024  143.1964 LP  0  0  0  0  0  0  0  0  0  0  0  0  # atno 17321 bound_to 7965
  139.7008  144.7635  151.1276 LP  0  0  0  0  0  0  0  0  0  0  0  0  # atno 17342 bound_to 10162
  140.7702  143.5460  150.9258 LP  0  0  0  0  0  0  0  0  0  0  0  0  # atno 17343 bound_to 10162
  157.7508  131.0238  150.3849 LP  0  0  0  0  0  0  0  0  0  0  0  0  # atno 17370 bound_to 10713
  156.4160  130.3943  149.6858 LP  0  0  0  0  0  0  0  0  0  0  0  0  # atno 17371 bound_to 10713
  139.8759  134.9940  156.5671 LP  0  0  0  0  0  0  0  0  0  0  0  0  # atno 17394 bound_to 11000
  140.8096  133.8440  155.8798 LP  0  0  0  0  0  0  0  0  0  0  0  0  # atno 17395 bound_to 11000

$$$$
