AV-unprocessed.smi:1033|AV-procd|sdf|4495|dock10
  -GOLD-   22720 2483D 1   1.00000     0.00000
 Structure written by MMmdl.
 56 58  0  0  0  0  0  0  0  0  2 V2000
  153.1858  143.1403  162.5188 C   0  0  0  0  0  0  0  0  0  0  0  0
  152.6921  142.7559  161.1350 C   0  0  0  0  0  0  0  0  0  0  0  0
  151.8267  143.6351  160.4459 C   0  0  0  0  0  0  0  0  0  0  0  0
  151.3427  143.3139  159.1588 C   0  0  0  0  0  0  0  0  0  0  0  0
  150.4978  144.0145  158.3153 N   0  0  0  0  0  0  0  0  0  0  0  0
  150.4244  143.1967  157.2694 C   0  0  0  0  0  0  0  0  0  0  0  0
  151.1201  142.0450  157.3371 N   0  0  0  0  0  0  0  0  0  0  0  0
  151.1904  141.0031  156.3286 C   0  0  0  0  0  0  0  0  0  0  0  0
  149.9559  141.0030  155.4063 C   0  0  1  0  0  0  0  0  0  0  0  0
  150.2842  140.4704  154.1385 O   0  0  0  0  0  0  0  0  0  0  0  0
  148.6932  140.2923  155.9438 C   0  0  0  0  0  0  0  0  0  0  0  0
  147.3978  140.8585  155.5384 N   0  0  0  0  0  0  0  0  0  0  0  0
  147.3873  141.4861  154.2114 C   0  0  0  0  0  0  0  0  0  0  0  0
  147.4744  140.4798  153.0438 C   0  0  0  0  0  0  0  0  0  0  0  0
  146.3839  139.4737  153.1405 N   0  3  0  0  0  0  0  0  0  0  0  0
  146.3738  138.4938  152.0249 C   0  0  0  0  0  0  0  0  0  0  0  0
  145.4833  137.2681  152.3116 C   0  0  2  0  0  0  0  0  0  0  0  0
  145.6951  136.1212  151.3125 C   0  0  0  0  0  0  0  0  0  0  0  0
  144.1327  137.6724  152.2372 O   0  0  0  0  0  0  0  0  0  0  0  0
  146.4023  138.8174  154.4718 C   0  0  0  0  0  0  0  0  0  0  0  0
  146.3124  139.8785  155.5850 C   0  0  0  0  0  0  0  0  0  0  0  0
  151.7517  142.0791  158.5753 C   0  0  0  0  0  0  0  0  0  0  0  0
  152.6141  141.1971  159.2497 C   0  0  0  0  0  0  0  0  0  0  0  0
  153.0875  141.5330  160.5355 C   0  0  0  0  0  0  0  0  0  0  0  0
  154.0168  140.5730  161.2568 C   0  0  0  0  0  0  0  0  0  0  0  0
  152.8152  144.1221  162.8150 H   0  0  0  0  0  0  0  0  0  0  0  0
  154.2754  143.1744  162.5414 H   0  0  0  0  0  0  0  0  0  0  0  0
  152.8457  142.4165  163.2597 H   0  0  0  0  0  0  0  0  0  0  0  0
  151.5250  144.5666  160.9022 H   0  0  0  0  0  0  0  0  0  0  0  0
  149.8268  143.4470  156.4047 H   0  0  0  0  0  0  0  0  0  0  0  0
  152.1023  141.1577  155.7515 H   0  0  0  0  0  0  0  0  0  0  0  0
  151.2857  140.0432  156.8374 H   0  0  0  0  0  0  0  0  0  0  0  0
  149.6736  142.0420  155.2320 H   0  0  0  0  0  0  0  0  0  0  0  0
  149.7149  139.7362  153.9644 H   0  0  0  0  0  0  0  0  0  0  0  0
  148.7405  139.2331  155.6942 H   0  0  0  0  0  0  0  0  0  0  0  0
  148.7676  140.3242  157.0319 H   0  0  0  0  0  0  0  0  0  0  0  0
  146.4661  142.0607  154.1050 H   0  0  0  0  0  0  0  0  0  0  0  0
  148.1907  142.2110  154.1145 H   0  0  0  0  0  0  0  0  0  0  0  0
  147.3968  141.0285  152.1062 H   0  0  0  0  0  0  0  0  0  0  0  0
  148.4431  139.9797  153.0292 H   0  0  0  0  0  0  0  0  0  0  0  0
  146.0528  138.9963  151.1108 H   0  0  0  0  0  0  0  0  0  0  0  0
  147.3913  138.1454  151.8398 H   0  0  0  0  0  0  0  0  0  0  0  0
  145.6470  136.9027  153.3248 H   0  0  0  0  0  0  0  0  0  0  0  0
  146.7148  135.7381  151.3596 H   0  0  0  0  0  0  0  0  0  0  0  0
  145.5082  136.4444  150.2878 H   0  0  0  0  0  0  0  0  0  0  0  0
  145.0248  135.2876  151.5253 H   0  0  0  0  0  0  0  0  0  0  0  0
  143.8925  137.7707  151.3282 H   0  0  0  0  0  0  0  0  0  0  0  0
  145.5546  138.1364  154.5566 H   0  0  0  0  0  0  0  0  0  0  0  0
  147.3057  138.2150  154.5795 H   0  0  0  0  0  0  0  0  0  0  0  0
  146.2924  139.3925  156.5613 H   0  0  0  0  0  0  0  0  0  0  0  0
  145.3583  140.4010  155.4988 H   0  0  0  0  0  0  0  0  0  0  0  0
  152.9072  140.2691  158.7816 H   0  0  0  0  0  0  0  0  0  0  0  0
  154.2042  139.6786  160.6620 H   0  0  0  0  0  0  0  0  0  0  0  0
  153.5816  140.2586  162.2056 H   0  0  0  0  0  0  0  0  0  0  0  0
  154.9769  141.0491  161.4559 H   0  0  0  0  0  0  0  0  0  0  0  0
  145.5104  139.9785  153.0899 H   0  0  0  0  0  0  0  0  0  0  0  0
  1  2  1  0  0  0  0
  1 26  1  0  0  0  0
  1 27  1  0  0  0  0
  1 28  1  0  0  0  0
  2 24  1  0  0  0  0
  2  3  2  0  0  0  0
  3  4  1  0  0  0  0
  3 29  1  0  0  0  0
  4 22  2  0  0  0  0
  4  5  1  0  0  0  0
  5  6  2  0  0  0  0
  6  7  1  0  0  0  0
  6 30  1  0  0  0  0
  7  8  1  0  0  0  0
  7 22  1  0  0  0  0
  8  9  1  0  0  0  0
  8 31  1  0  0  0  0
  8 32  1  0  0  0  0
  9 10  1  0  0  0  0
  9 11  1  0  0  0  0
  9 33  1  0  0  0  0
 10 34  1  0  0  0  0
 11 12  1  0  0  0  0
 11 35  1  0  0  0  0
 11 36  1  0  0  0  0
 12 21  1  0  0  0  0
 12 13  1  0  0  0  0
 13 14  1  0  0  0  0
 13 37  1  0  0  0  0
 13 38  1  0  0  0  0
 14 15  1  0  0  0  0
 14 39  1  0  0  0  0
 14 40  1  0  0  0  0
 15 16  1  0  0  0  0
 15 20  1  0  0  0  0
 15 56  1  0  0  0  0
 16 17  1  0  0  0  0
 16 41  1  0  0  0  0
 16 42  1  0  0  0  0
 17 18  1  0  0  0  0
 17 19  1  0  0  0  0
 17 43  1  0  0  0  0
 18 44  1  0  0  0  0
 18 45  1  0  0  0  0
 18 46  1  0  0  0  0
 19 47  1  0  0  0  0
 20 21  1  0  0  0  0
 20 48  1  0  0  0  0
 20 49  1  0  0  0  0
 21 50  1  0  0  0  0
 21 51  1  0  0  0  0
 22 23  1  0  0  0  0
 23 24  2  0  0  0  0
 23 52  1  0  0  0  0
 24 25  1  0  0  0  0
 25 53  1  0  0  0  0
 25 54  1  0  0  0  0
 25 55  1  0  0  0  0
M  CHG  1  15   1
M  END
> <s_m_source_file>
AV-unprocessed.smi

> <i_m_source_file_index>
1033

> <i_lp_mmshare_version>
43012

> <i_f3d_flags>
0

> <s_epik_input>
W0NIM11jKFtjSF0xKWMoW0NIM10pW2NIXWMoYzEyKW4oW2NIXW4yKVtDSDJdW0NASF0oW09IXSlbQ0gyXU4zW0NIMl1bQ0gyXU4oW0NIMl1bQ0gyXTMpW0NIMl1bQ0BIXShbQ0gzXSlbT0hd

> <s_epik_cmdline>
J2VwaWtfcHl0aG9uJywgJy1waCcsICc3LjAnLCAnLXRuJywgJzgnLCAnLW1hJywgJzIwMCcsICctbWV0YWxfYmluZGluZycsICctaW1hZScsICc8aW5maWxlLm1hZT4nLCAnLW9tYWUnLCAnPG91dGZpbGUubWFlPic=

> <r_epik_Ionization_Penalty>
0.129152

> <r_epik_Ionization_Penalty_Charging>
0.00083231

> <r_epik_Ionization_Penalty_Neutral>
0.128319

> <r_epik_State_Penalty>
0.556973

> <r_epik_Charging_Adjusted_Penalty>
0.557805

> <i_epik_Tot_Q>
1

> <i_epik_Tot_abs_Q>
1

> <r_epik_Metal_State_Penalty>
0.490047

> <b_epik_Metal_Only>
0

> <s_lp_Force_Field>
OPLS_2005

> <r_lp_Energy>
40.305

> <b_lp_Chiralities_Consistent>
1

> <s_lp_Variant>
AV-unprocessed.smi:1033-6

> <Gold.Version>
5.8.1

> <Gold.Id.Protein>
6NUR|6NUR_protein|mol2

> <Gold.PLP.Fitness>
61.4747

> <Gold.PLP.PLP>
-49.4762

> <Gold.PLP.part.hbond>
-4.6219

> <Gold.PLP.part.metal>
0.0000

> <Gold.PLP.part.buried>
-2.1356

> <Gold.PLP.part.nonpolar>
-43.4298

> <Gold.PLP.part.repulsive>
0.1841

> <Gold.PLP.ligand.clash>
0.0000

> <Gold.PLP.ligand.torsion>
1.5167

> <Gold.PLP.Chemscore.Hbond>
3.9182

> <Gold.PLP.Chemscore.CHOScore>
1.0000

> <Gold.PLP.Chemscore.Metal>
0.0000

> <Gold.Chemscore.Hbonds>
donor molecule, donor type, donor heavy atom, donor atom, acceptor molecule, acceptor atom, score
      L1  H    15    56       P1 10175  2.00
      L1  H    19    47       P1 10171  1.00
      P1  H  7989  7998       L1    10  0.86
      L1  C     6    30       P1  8028  0.29

> <Gold.PLP.Chemscore.Internal.Correction>
0.2771

> <Gold.Rescore>
     Score         DG    S(hbond)    S(metal)    S(lipo)     H(rot)  DE(clash)    DE(int)     intcor
     19.41     -22.77       2.82        0.00     134.20       3.07       1.80       1.56       ----

> <Gold.Chemscore.Fitness>
19.4124

> <Gold.Chemscore.DG>
-22.7665

> <Gold.Chemscore.ZeroCoef>
-5.4800

> <Gold.Chemscore.Hbond>
2.8239

> <Gold.Chemscore.Metal>
0.0000

> <Gold.Chemscore.Lipo>
134.1982

> <Gold.Chemscore.Internal_Hbond>
0.0000

> <Gold.Chemscore.DEClash>
1.7972

> <Gold.Chemscore.DEInternal>
1.5569

> <Gold.Chemscore.Rot>
3.0650

> <Gold.Chemscore.Internal.Correction>
   9.000000E+99

> <Gold.Chemscore.Hbonds>
donor molecule, donor type, donor heavy atom, donor atom, acceptor molecule, acceptor atom, score
      L1  H    15    56       P1 10175  0.96
      L1  H    19    47       P1 10171  0.98
      P1  H  7989  7998       L1    10  0.77

> <Gold.Chemscore.Hbond.Weighted>
-9.4318

> <Gold.Chemscore.Metal.Weighted>
-0.0000

> <Gold.Chemscore.Lipo.Weighted>
-15.7012

> <Gold.Chemscore.Internal_Hbond.Weighted>
0.0000

> <Gold.Chemscore.DEClash.Weighted>
1.7972

> <Gold.Chemscore.DEInternal.Weighted>
1.5569

> <Gold.Chemscore.Rot.Weighted>
7.8465

> <Gold.Chemscore.Internal.Correction.Weighted>
   9.000000E+99

> <Gold.Protein.RotatedTorsions>
[ 6907 6896 6895 6894 ] final  -87.96 input  -60.11 | X-H torsion
[ 7974 7965 7964 7962 ] final -156.54 input  175.53 | X-H torsion
[ 8008 7997 7996 7995 ] final  175.27 input   59.86 | X-H torsion
[ 10167 10162 10161 10158 ] final   80.11 input  -65.29 | X-H torsion
[ 10718 10713 10712 10709 ] final -106.67 input   66.30 | X-H torsion
[ 10763 10752 10751 10750 ] final  -16.57 input  -60.55 | X-H torsion
[ 11005 11000 10999 10996 ] final  160.92 input  -57.11 | X-H torsion

> <Gold.Protein.ActiveResidues>
 VAL166  LYS551  ARG553  GLY616  TRP617  ASP618  TYR619  PRO620  LYS621  CYS622 
 ASP623  PHE694  ASN695  SER759  ASP760  ASP761  ALA762  ILE779  LEU786  VAL792 
 PHE793  MET794  SER795  GLU796  ALA797  LYS798  CYS799  TRP800  GLU811  SER814 

> <Gold.Protein.RotatedAtoms>
  150.6867  134.2816  159.4629 H   0  0  0  0  0  0  0  0  0  0  0  0  # atno 6907 bound_to 6896
  152.0729  134.9519  160.0583 H   0  0  0  0  0  0  0  0  0  0  0  0  # atno 6908 bound_to 6896
  152.0902  133.4162  159.4577 H   0  0  0  0  0  0  0  0  0  0  0  0  # atno 6909 bound_to 6896
  144.7588  140.4095  143.5992 H   0  0  0  0  0  0  0  0  0  0  0  0  # atno 7974 bound_to 7965
  156.0888  140.1413  156.9619 H   0  0  0  0  0  0  0  0  0  0  0  0  # atno 8008 bound_to 7997
  154.4629  140.0936  156.6990 H   0  0  0  0  0  0  0  0  0  0  0  0  # atno 8009 bound_to 7997
  155.4954  140.3449  155.4364 H   0  0  0  0  0  0  0  0  0  0  0  0  # atno 8010 bound_to 7997
  139.9532  144.6011  150.8141 H   0  0  0  0  0  0  0  0  0  0  0  0  # atno 10167 bound_to 10162
  156.0401  130.5624  150.7714 H   0  0  0  0  0  0  0  0  0  0  0  0  # atno 10718 bound_to 10713
  153.5606  135.7010  153.5549 H   0  0  0  0  0  0  0  0  0  0  0  0  # atno 10763 bound_to 10752
  153.3433  135.4015  155.1588 H   0  0  0  0  0  0  0  0  0  0  0  0  # atno 10764 bound_to 10752
  154.8648  135.3747  154.5123 H   0  0  0  0  0  0  0  0  0  0  0  0  # atno 10765 bound_to 10752
  140.2107  134.8270  157.3117 H   0  0  0  0  0  0  0  0  0  0  0  0  # atno 11005 bound_to 11000
  145.6688  139.1595  143.2766 LP  0  0  0  0  0  0  0  0  0  0  0  0  # atno 17320 bound_to 7965
  146.1629  140.6761  142.9269 LP  0  0  0  0  0  0  0  0  0  0  0  0  # atno 17321 bound_to 7965
  140.7576  143.3090  151.2891 LP  0  0  0  0  0  0  0  0  0  0  0  0  # atno 17342 bound_to 10162
  139.6612  144.0187  152.2693 LP  0  0  0  0  0  0  0  0  0  0  0  0  # atno 17343 bound_to 10162
  157.5206  131.0931  151.0083 LP  0  0  0  0  0  0  0  0  0  0  0  0  # atno 17370 bound_to 10713
  157.0414  130.5750  149.5357 LP  0  0  0  0  0  0  0  0  0  0  0  0  # atno 17371 bound_to 10713
  140.1954  134.4320  155.7692 LP  0  0  0  0  0  0  0  0  0  0  0  0  # atno 17394 bound_to 11000
  141.2226  133.7047  156.8096 LP  0  0  0  0  0  0  0  0  0  0  0  0  # atno 17395 bound_to 11000

$$$$
