AV-unprocessed.smi:2895|AV-procd|sdf|11131|dock10
  -GOLD-   2272016 03D 1   1.00000     0.00000
 Structure written by MMmdl.
 53 56  0  0  0  0  0  0  0  0  2 V2000
  152.7225  135.8736  156.8412 O   0  0  0  0  0  0  0  0  0  0  0  0
  151.8407  136.7288  156.9312 C   0  0  0  0  0  0  0  0  0  0  0  0
  150.5373  136.4229  156.8142 N   0  0  0  0  0  0  0  0  0  0  0  0
  150.0056  135.0903  156.5518 C   0  0  0  0  0  0  0  0  0  0  0  0
  150.5091  134.5319  155.2101 C   0  0  0  0  0  0  0  0  0  0  0  0
  149.9313  133.1636  154.9050 C   0  0  0  0  0  0  0  0  0  0  0  0
  150.0816  132.1008  155.8195 C   0  0  0  0  0  0  0  0  0  0  0  0
  149.5261  130.8480  155.4912 C   0  0  0  0  0  0  0  0  0  0  0  0
  148.8555  130.6121  154.3429 N   0  0  0  0  0  0  0  0  0  0  0  0
  148.7157  131.6350  153.4722 C   0  0  0  0  0  0  0  0  0  0  0  0
  149.2322  132.9257  153.7037 C   0  0  0  0  0  0  0  0  0  0  0  0
  152.0994  138.0371  157.1843 N   0  0  0  0  0  0  0  0  0  0  0  0
  153.2738  138.5708  157.8922 C   0  0  0  0  0  0  0  0  0  0  0  0
  152.8304  139.0892  159.2747 C   0  0  0  0  0  0  0  0  0  0  0  0
  151.7515  140.1135  159.1684 N   0  3  0  0  0  0  0  0  0  0  0  0
  152.2252  141.4762  158.7782 C   0  0  1  0  0  0  0  0  0  0  0  0
  151.1850  142.5972  159.0222 C   0  0  0  0  0  0  0  0  0  0  0  0
  151.9895  143.6650  159.7867 C   0  0  1  0  0  0  0  0  0  0  0  0
  152.1844  143.1940  161.2378 C   0  0  0  0  0  0  0  0  0  0  0  0
  153.1896  142.0391  161.0816 C   0  0  0  0  0  0  0  0  0  0  0  0
  153.4523  142.0109  159.5600 C   0  0  2  0  0  0  0  0  0  0  0  0
  153.3913  143.4952  159.2144 C   0  0  0  0  0  0  0  0  0  0  0  0
  150.6170  139.6223  158.3334 C   0  0  0  0  0  0  0  0  0  0  0  0
  151.0915  139.0811  156.9688 C   0  0  0  0  0  0  0  0  0  0  0  0
  149.8639  137.1679  156.9176 H   0  0  0  0  0  0  0  0  0  0  0  0
  150.2663  134.4185  157.3714 H   0  0  0  0  0  0  0  0  0  0  0  0
  148.9175  135.1580  156.5395 H   0  0  0  0  0  0  0  0  0  0  0  0
  150.2555  135.2192  154.4016 H   0  0  0  0  0  0  0  0  0  0  0  0
  151.5969  134.4518  155.2152 H   0  0  0  0  0  0  0  0  0  0  0  0
  150.6087  132.2402  156.7523 H   0  0  0  0  0  0  0  0  0  0  0  0
  149.6225  130.0134  156.1697 H   0  0  0  0  0  0  0  0  0  0  0  0
  148.1758  131.4188  152.5623 H   0  0  0  0  0  0  0  0  0  0  0  0
  149.0932  133.7096  152.9738 H   0  0  0  0  0  0  0  0  0  0  0  0
  154.0803  137.8493  158.0209 H   0  0  0  0  0  0  0  0  0  0  0  0
  153.7065  139.3811  157.3046 H   0  0  0  0  0  0  0  0  0  0  0  0
  152.4382  138.2530  159.8552 H   0  0  0  0  0  0  0  0  0  0  0  0
  153.6846  139.4545  159.8422 H   0  0  0  0  0  0  0  0  0  0  0  0
  152.4841  141.4645  157.7189 H   0  0  0  0  0  0  0  0  0  0  0  0
  150.8164  142.9873  158.0728 H   0  0  0  0  0  0  0  0  0  0  0  0
  150.3214  142.2705  159.6032 H   0  0  0  0  0  0  0  0  0  0  0  0
  151.5735  144.6698  159.7060 H   0  0  0  0  0  0  0  0  0  0  0  0
  152.6081  143.9906  161.8508 H   0  0  0  0  0  0  0  0  0  0  0  0
  151.2507  142.8758  161.7031 H   0  0  0  0  0  0  0  0  0  0  0  0
  154.1086  142.2616  161.6257 H   0  0  0  0  0  0  0  0  0  0  0  0
  152.8016  141.0955  161.4653 H   0  0  0  0  0  0  0  0  0  0  0  0
  154.3948  141.5374  159.2839 H   0  0  0  0  0  0  0  0  0  0  0  0
  153.4490  143.6966  158.1432 H   0  0  0  0  0  0  0  0  0  0  0  0
  154.1453  144.0922  159.7310 H   0  0  0  0  0  0  0  0  0  0  0  0
  150.1215  138.8191  158.8806 H   0  0  0  0  0  0  0  0  0  0  0  0
  149.8602  140.3928  158.1905 H   0  0  0  0  0  0  0  0  0  0  0  0
  151.5263  139.8798  156.3670 H   0  0  0  0  0  0  0  0  0  0  0  0
  150.2322  138.7275  156.3974 H   0  0  0  0  0  0  0  0  0  0  0  0
  151.3858  140.2269  160.1031 H   0  0  0  0  0  0  0  0  0  0  0  0
  1  2  2  0  0  0  0
  2  3  1  0  0  0  0
  2 12  1  0  0  0  0
  3  4  1  0  0  0  0
  3 25  1  0  0  0  0
  4  5  1  0  0  0  0
  4 26  1  0  0  0  0
  4 27  1  0  0  0  0
  5  6  1  0  0  0  0
  5 28  1  0  0  0  0
  5 29  1  0  0  0  0
  6 11  1  0  0  0  0
  6  7  2  0  0  0  0
  7  8  1  0  0  0  0
  7 30  1  0  0  0  0
  8  9  2  0  0  0  0
  8 31  1  0  0  0  0
  9 10  1  0  0  0  0
 10 11  2  0  0  0  0
 10 32  1  0  0  0  0
 11 33  1  0  0  0  0
 12 24  1  0  0  0  0
 12 13  1  0  0  0  0
 13 14  1  0  0  0  0
 13 34  1  0  0  0  0
 13 35  1  0  0  0  0
 14 15  1  0  0  0  0
 14 36  1  0  0  0  0
 14 37  1  0  0  0  0
 15 16  1  0  0  0  0
 15 23  1  0  0  0  0
 15 53  1  0  0  0  0
 16 21  1  0  0  0  0
 16 17  1  0  0  0  0
 16 38  1  0  0  0  0
 17 18  1  0  0  0  0
 17 39  1  0  0  0  0
 17 40  1  0  0  0  0
 18 22  1  0  0  0  0
 18 19  1  0  0  0  0
 18 41  1  0  0  0  0
 19 20  1  0  0  0  0
 19 42  1  0  0  0  0
 19 43  1  0  0  0  0
 20 21  1  0  0  0  0
 20 44  1  0  0  0  0
 20 45  1  0  0  0  0
 21 22  1  0  0  0  0
 21 46  1  0  0  0  0
 22 47  1  0  0  0  0
 22 48  1  0  0  0  0
 23 24  1  0  0  0  0
 23 49  1  0  0  0  0
 23 50  1  0  0  0  0
 24 51  1  0  0  0  0
 24 52  1  0  0  0  0
M  CHG  1  15   1
M  END
> <s_m_source_file>
AV-unprocessed.smi

> <i_m_source_file_index>
2895

> <i_lp_mmshare_version>
43012

> <i_f3d_flags>
0

> <s_epik_input>
W0NIMl0xW0NIMl1bQ0BASF0oW0NIMl0yKVtDQEBIXShbQ0gyXVtDQEhdMTIpTihbQ0gyXVtDSDJdMylbQ0gyXVtDSDJdTjNDKD1PKVtOSF1bQ0gyXVtDSDJdYzRbY0hdW2NIXW5bY0hdW2NIXTQ=

> <s_epik_cmdline>
J2VwaWtfcHl0aG9uJywgJy1waCcsICc3LjAnLCAnLXRuJywgJzgnLCAnLW1hJywgJzIwMCcsICctbWV0YWxfYmluZGluZycsICctaW1hZScsICc8aW5maWxlLm1hZT4nLCAnLW9tYWUnLCAnPG91dGZpbGUubWFlPic=

> <r_epik_Ionization_Penalty>
0.0566172

> <r_epik_Ionization_Penalty_Charging>
0.00262064

> <r_epik_Ionization_Penalty_Neutral>
0.0539965

> <r_epik_State_Penalty>
0.0463959

> <r_epik_Charging_Adjusted_Penalty>
0.0490165

> <i_epik_Tot_Q>
1

> <i_epik_Tot_abs_Q>
1

> <r_epik_Metal_State_Penalty>
0.0424856

> <b_epik_Metal_Only>
0

> <s_lp_Force_Field>
OPLS_2005

> <r_lp_Energy>
99.8283

> <b_lp_Chiralities_Consistent>
1

> <s_lp_Variant>
AV-unprocessed.smi:2895-4

> <Gold.Version>
5.8.1

> <Gold.Id.Protein>
6NUR|6NUR_protein|mol2

> <Gold.PLP.Fitness>
46.1819

> <Gold.PLP.PLP>
-41.8583

> <Gold.PLP.part.hbond>
-1.0000

> <Gold.PLP.part.metal>
0.0000

> <Gold.PLP.part.buried>
-4.7523

> <Gold.PLP.part.nonpolar>
-35.9332

> <Gold.PLP.part.repulsive>
0.3067

> <Gold.PLP.ligand.clash>
1.0950

> <Gold.PLP.ligand.torsion>
0.3286

> <Gold.PLP.Chemscore.Hbond>
1.0000

> <Gold.PLP.Chemscore.CHOScore>
0.9982

> <Gold.PLP.Chemscore.Metal>
0.0000

> <Gold.Chemscore.Hbonds>
donor molecule, donor type, donor heavy atom, donor atom, acceptor molecule, acceptor atom, score
      P1  H 10752 10763       L1     1  1.00
      L1  C    10    32       P1 10747  1.00

> <Gold.PLP.Chemscore.Internal.Correction>
0.0811

> <Gold.Rescore>
     Score         DG    S(hbond)    S(metal)    S(lipo)     H(rot)  DE(clash)    DE(int)     intcor
     20.07     -20.35       0.98        0.00     129.26       1.37       0.02       0.27       ----

> <Gold.Chemscore.Fitness>
20.0681

> <Gold.Chemscore.DG>
-20.3534

> <Gold.Chemscore.ZeroCoef>
-5.4800

> <Gold.Chemscore.Hbond>
0.9774

> <Gold.Chemscore.Metal>
0.0000

> <Gold.Chemscore.Lipo>
129.2648

> <Gold.Chemscore.Internal_Hbond>
0.0000

> <Gold.Chemscore.DEClash>
0.0202

> <Gold.Chemscore.DEInternal>
0.2651

> <Gold.Chemscore.Rot>
1.3731

> <Gold.Chemscore.Internal.Correction>
   9.000000E+99

> <Gold.Chemscore.Hbonds>
donor molecule, donor type, donor heavy atom, donor atom, acceptor molecule, acceptor atom, score
      P1  H 10752 10763       L1     1  1.00

> <Gold.Chemscore.Hbond.Weighted>
-3.2646

> <Gold.Chemscore.Metal.Weighted>
-0.0000

> <Gold.Chemscore.Lipo.Weighted>
-15.1240

> <Gold.Chemscore.Internal_Hbond.Weighted>
0.0000

> <Gold.Chemscore.DEClash.Weighted>
0.0202

> <Gold.Chemscore.DEInternal.Weighted>
0.2651

> <Gold.Chemscore.Rot.Weighted>
3.5152

> <Gold.Chemscore.Internal.Correction.Weighted>
   9.000000E+99

> <Gold.Protein.RotatedTorsions>
[ 6907 6896 6895 6894 ] final  100.14 input  -60.11 | X-H torsion
[ 7974 7965 7964 7962 ] final  124.31 input  175.53 | X-H torsion
[ 8008 7997 7996 7995 ] final  -90.43 input   59.86 | X-H torsion
[ 10167 10162 10161 10158 ] final    7.46 input  -65.29 | X-H torsion
[ 10718 10713 10712 10709 ] final  -59.29 input   66.30 | X-H torsion
[ 10763 10752 10751 10750 ] final  114.90 input  -60.55 | X-H torsion
[ 11005 11000 10999 10996 ] final    2.63 input  -57.11 | X-H torsion

> <Gold.Protein.ActiveResidues>
 VAL166  LYS551  ARG553  GLY616  TRP617  ASP618  TYR619  PRO620  LYS621  CYS622 
 ASP623  PHE694  ASN695  SER759  ASP760  ASP761  ALA762  ILE779  LEU786  VAL792 
 PHE793  MET794  SER795  GLU796  ALA797  LYS798  CYS799  TRP800  GLU811  SER814 

> <Gold.Protein.RotatedAtoms>
  152.5378  134.0322  159.8029 H   0  0  0  0  0  0  0  0  0  0  0  0  # atno 6907 bound_to 6896
  151.0491  133.5632  159.2651 H   0  0  0  0  0  0  0  0  0  0  0  0  # atno 6908 bound_to 6896
  151.2573  135.0650  159.9138 H   0  0  0  0  0  0  0  0  0  0  0  0  # atno 6909 bound_to 6896
  145.0858  139.3623  143.4886 H   0  0  0  0  0  0  0  0  0  0  0  0  # atno 7974 bound_to 7965
  154.6984  140.0530  157.0434 H   0  0  0  0  0  0  0  0  0  0  0  0  # atno 8008 bound_to 7997
  155.0719  140.3200  155.4609 H   0  0  0  0  0  0  0  0  0  0  0  0  # atno 8009 bound_to 7997
  156.2752  140.2080  156.5846 H   0  0  0  0  0  0  0  0  0  0  0  0  # atno 8010 bound_to 7997
  140.6370  143.7862  150.7374 H   0  0  0  0  0  0  0  0  0  0  0  0  # atno 10167 bound_to 10162
  156.1073  130.4179  150.0694 H   0  0  0  0  0  0  0  0  0  0  0  0  # atno 10718 bound_to 10713
  153.5142  135.3611  155.2601 H   0  0  0  0  0  0  0  0  0  0  0  0  # atno 10763 bound_to 10752
  154.8740  135.4030  154.3334 H   0  0  0  0  0  0  0  0  0  0  0  0  # atno 10764 bound_to 10752
  153.3992  135.7074  153.6505 H   0  0  0  0  0  0  0  0  0  0  0  0  # atno 10765 bound_to 10752
  140.6021  133.9826  155.8137 H   0  0  0  0  0  0  0  0  0  0  0  0  # atno 11005 bound_to 11000
  146.3531  140.0670  142.8625 LP  0  0  0  0  0  0  0  0  0  0  0  0  # atno 17320 bound_to 7965
  145.1124  140.9413  143.4648 LP  0  0  0  0  0  0  0  0  0  0  0  0  # atno 17321 bound_to 7965
  140.1485  143.4378  152.2146 LP  0  0  0  0  0  0  0  0  0  0  0  0  # atno 17342 bound_to 10162
  139.5580  144.7386  151.4236 LP  0  0  0  0  0  0  0  0  0  0  0  0  # atno 17343 bound_to 10162
  156.8667  130.9510  151.3613 LP  0  0  0  0  0  0  0  0  0  0  0  0  # atno 17370 bound_to 10713
  157.6250  130.8685  149.9174 LP  0  0  0  0  0  0  0  0  0  0  0  0  # atno 17371 bound_to 10713
  141.0865  133.9982  157.3305 LP  0  0  0  0  0  0  0  0  0  0  0  0  # atno 17394 bound_to 11000
  139.9228  135.0201  156.8126 LP  0  0  0  0  0  0  0  0  0  0  0  0  # atno 17395 bound_to 11000

$$$$
