AV-unprocessed.smi:1784|AV-procd|sdf|7197|dock8
  -GOLD-   22720 8443D 1   1.00000     0.00000
 Structure written by MMmdl.
 43 45  0  0  0  0  0  0  0  0  1 V2000
  148.9779  144.4390  161.3379 O   0  0  0  0  0  0  0  0  0  0  0  0
  148.6905  144.5864  160.1498 C   0  0  0  0  0  0  0  0  0  0  0  0
  149.6005  144.7892  159.1875 N   0  0  0  0  0  0  0  0  0  0  0  0
  151.0376  144.9033  159.4063 C   0  0  0  0  0  0  0  0  0  0  0  0
  151.5664  143.7303  160.2469 C   0  0  1  0  0  0  0  0  0  0  0  0
  152.8304  143.0833  159.6860 C   0  0  0  0  0  0  0  0  0  0  0  0
  153.4868  142.4674  160.9125 C   0  0  0  0  0  0  0  0  0  0  0  0
  152.7811  143.1405  162.0940 C   0  0  0  0  0  0  0  0  0  0  0  0
  152.0011  144.1799  161.5203 O   0  0  0  0  0  0  0  0  0  0  0  0
  147.4447  144.5939  159.6478 N   0  0  0  0  0  0  0  0  0  0  0  0
  146.2116  144.4426  160.3443 C   0  0  0  0  0  0  0  0  0  0  0  0
  146.1421  143.9329  161.6637 C   0  0  0  0  0  0  0  0  0  0  0  0
  144.8865  143.7976  162.2824 C   0  0  0  0  0  0  0  0  0  0  0  0
  143.7416  144.1692  161.5567 C   0  0  0  0  0  0  0  0  0  0  0  0
  143.7894  144.6397  160.2941 N   0  0  0  0  0  0  0  0  0  0  0  0
  144.9953  144.7773  159.6901 C   0  0  0  0  0  0  0  0  0  0  0  0
  145.0109  145.2372  158.3565 N   0  0  0  0  0  0  0  0  0  0  0  0
  144.9537  144.1582  157.3731 C   0  0  0  0  0  0  0  0  0  0  0  0
  144.0097  144.6257  156.2619 C   0  0  0  0  0  0  0  0  0  0  0  0
  143.1127  145.6353  156.9674 C   0  0  0  0  0  0  0  0  0  0  0  0
  144.0733  146.2858  157.9597 C   0  0  0  0  0  0  0  0  0  0  0  0
  149.2745  144.9078  158.2395 H   0  0  0  0  0  0  0  0  0  0  0  0
  151.5585  144.9477  158.4485 H   0  0  0  0  0  0  0  0  0  0  0  0
  151.2368  145.8490  159.9110 H   0  0  0  0  0  0  0  0  0  0  0  0
  150.7939  142.9700  160.3800 H   0  0  0  0  0  0  0  0  0  0  0  0
  152.6166  142.3527  158.9054 H   0  0  0  0  0  0  0  0  0  0  0  0
  153.4885  143.8439  159.2643 H   0  0  0  0  0  0  0  0  0  0  0  0
  153.3397  141.3873  160.9441 H   0  0  0  0  0  0  0  0  0  0  0  0
  154.5599  142.6607  160.9182 H   0  0  0  0  0  0  0  0  0  0  0  0
  152.1204  142.4344  162.5992 H   0  0  0  0  0  0  0  0  0  0  0  0
  153.4812  143.5375  162.8295 H   0  0  0  0  0  0  0  0  0  0  0  0
  147.3615  144.8313  158.6702 H   0  0  0  0  0  0  0  0  0  0  0  0
  147.0252  143.6305  162.2049 H   0  0  0  0  0  0  0  0  0  0  0  0
  144.8036  143.4132  163.2880 H   0  0  0  0  0  0  0  0  0  0  0  0
  142.7599  144.0778  161.9976 H   0  0  0  0  0  0  0  0  0  0  0  0
  145.9462  143.9354  156.9812 H   0  0  0  0  0  0  0  0  0  0  0  0
  144.5656  143.2467  157.8309 H   0  0  0  0  0  0  0  0  0  0  0  0
  144.5798  145.1256  155.4777 H   0  0  0  0  0  0  0  0  0  0  0  0
  143.4539  143.8064  155.8054 H   0  0  0  0  0  0  0  0  0  0  0  0
  142.6546  146.3526  156.2860 H   0  0  0  0  0  0  0  0  0  0  0  0
  142.3170  145.1167  157.5039 H   0  0  0  0  0  0  0  0  0  0  0  0
  143.5462  146.7550  158.7908 H   0  0  0  0  0  0  0  0  0  0  0  0
  144.6443  147.0716  157.4642 H   0  0  0  0  0  0  0  0  0  0  0  0
  1  2  2  0  0  0  0
  2  3  1  0  0  0  0
  2 10  1  0  0  0  0
  3  4  1  0  0  0  0
  3 22  1  0  0  0  0
  4  5  1  0  0  0  0
  4 23  1  0  0  0  0
  4 24  1  0  0  0  0
  5  9  1  0  0  0  0
  5  6  1  0  0  0  0
  5 25  1  0  0  0  0
  6  7  1  0  0  0  0
  6 26  1  0  0  0  0
  6 27  1  0  0  0  0
  7  8  1  0  0  0  0
  7 28  1  0  0  0  0
  7 29  1  0  0  0  0
  8  9  1  0  0  0  0
  8 30  1  0  0  0  0
  8 31  1  0  0  0  0
 10 11  1  0  0  0  0
 10 32  1  0  0  0  0
 11 16  1  0  0  0  0
 11 12  2  0  0  0  0
 12 13  1  0  0  0  0
 12 33  1  0  0  0  0
 13 14  2  0  0  0  0
 13 34  1  0  0  0  0
 14 15  1  0  0  0  0
 14 35  1  0  0  0  0
 15 16  2  0  0  0  0
 16 17  1  0  0  0  0
 17 21  1  0  0  0  0
 17 18  1  0  0  0  0
 18 19  1  0  0  0  0
 18 36  1  0  0  0  0
 18 37  1  0  0  0  0
 19 20  1  0  0  0  0
 19 38  1  0  0  0  0
 19 39  1  0  0  0  0
 20 21  1  0  0  0  0
 20 40  1  0  0  0  0
 20 41  1  0  0  0  0
 21 42  1  0  0  0  0
 21 43  1  0  0  0  0
M  END
> <s_m_source_file>
AV-unprocessed.smi

> <i_m_source_file_index>
1784

> <i_lp_mmshare_version>
43012

> <i_f3d_flags>
0

> <s_epik_input>
TzFbQ0gyXVtDSDJdW0NIMl1bQ0BIXTFbQ0gyXVtOSF1DKD1PKVtOSF1jMltjSF1bY0hdW2NIXW5jMk4zW0NIMl1bQ0gyXVtDSDJdW0NIMl0z

> <s_epik_cmdline>
J2VwaWtfcHl0aG9uJywgJy1waCcsICc3LjAnLCAnLXRuJywgJzgnLCAnLW1hJywgJzIwMCcsICctbWV0YWxfYmluZGluZycsICctaW1hZScsICc8aW5maWxlLm1hZT4nLCAnLW9tYWUnLCAnPG91dGZpbGUubWFlPic=

> <r_lp_tautomer_probability>
1

> <r_epik_Ionization_Penalty>
0.0982482

> <r_epik_Ionization_Penalty_Charging>
0

> <r_epik_Ionization_Penalty_Neutral>
0.0982482

> <r_epik_State_Penalty>
0.0877864

> <r_epik_Charging_Adjusted_Penalty>
0.0877864

> <i_epik_Tot_Q>
0

> <i_epik_Tot_abs_Q>
0

> <r_epik_Metal_State_Penalty>
0.0752567

> <b_epik_Metal_Only>
0

> <s_lp_Force_Field>
OPLS_2005

> <r_lp_Energy>
44.9043

> <b_lp_Chiralities_Consistent>
1

> <s_lp_Variant>
AV-unprocessed.smi:1784-2

> <Gold.Version>
5.8.1

> <Gold.Id.Protein>
6NUR|6NUR_protein|mol2

> <Gold.PLP.Fitness>
46.8338

> <Gold.PLP.PLP>
-42.3050

> <Gold.PLP.part.hbond>
-3.0000

> <Gold.PLP.part.metal>
0.0000

> <Gold.PLP.part.buried>
-7.6962

> <Gold.PLP.part.nonpolar>
-32.6401

> <Gold.PLP.part.repulsive>
1.2563

> <Gold.PLP.ligand.clash>
0.0000

> <Gold.PLP.ligand.torsion>
1.4665

> <Gold.PLP.Chemscore.Hbond>
2.4507

> <Gold.PLP.Chemscore.CHOScore>
0.0000

> <Gold.PLP.Chemscore.Metal>
0.0000

> <Gold.Chemscore.Hbonds>
donor molecule, donor type, donor heavy atom, donor atom, acceptor molecule, acceptor atom, score
      L1  H     3    22       P1  8029  0.77
      L1  H    10    32       P1  8029  0.96
      P1  H  6933  6944       L1     1  0.44

> <Gold.PLP.Chemscore.Internal.Correction>
0.1098

> <Gold.Rescore>
     Score         DG    S(hbond)    S(metal)    S(lipo)     H(rot)  DE(clash)    DE(int)     intcor
     17.61     -21.05       2.28        0.00      98.04       1.38       0.05       3.38       ----

> <Gold.Chemscore.Fitness>
17.6142

> <Gold.Chemscore.DG>
-21.0473

> <Gold.Chemscore.ZeroCoef>
-5.4800

> <Gold.Chemscore.Hbond>
2.2838

> <Gold.Chemscore.Metal>
0.0000

> <Gold.Chemscore.Lipo>
98.0433

> <Gold.Chemscore.Internal_Hbond>
0.0000

> <Gold.Chemscore.DEClash>
0.0536

> <Gold.Chemscore.DEInternal>
3.3794

> <Gold.Chemscore.Rot>
1.3796

> <Gold.Chemscore.Internal.Correction>
   9.000000E+99

> <Gold.Chemscore.Hbonds>
donor molecule, donor type, donor heavy atom, donor atom, acceptor molecule, acceptor atom, score
      L1  H     3    22       P1  8029  0.34
      L1  H    10    32       P1  8029  0.92
      P1  H  6933  6944       L1     1  0.09

> <Gold.Chemscore.Hbond.Weighted>
-7.6279

> <Gold.Chemscore.Metal.Weighted>
-0.0000

> <Gold.Chemscore.Lipo.Weighted>
-11.4711

> <Gold.Chemscore.Internal_Hbond.Weighted>
0.0000

> <Gold.Chemscore.DEClash.Weighted>
0.0536

> <Gold.Chemscore.DEInternal.Weighted>
3.3794

> <Gold.Chemscore.Rot.Weighted>
3.5317

> <Gold.Chemscore.Internal.Correction.Weighted>
   9.000000E+99

> <Gold.Protein.RotatedTorsions>
[ 6907 6896 6895 6894 ] final   39.56 input  -60.11 | X-H torsion
[ 7974 7965 7964 7962 ] final   17.67 input  175.53 | X-H torsion
[ 8008 7997 7996 7995 ] final   75.80 input   59.86 | X-H torsion
[ 10167 10162 10161 10158 ] final  171.94 input  -65.29 | X-H torsion
[ 10718 10713 10712 10709 ] final  -14.50 input   66.30 | X-H torsion
[ 10763 10752 10751 10750 ] final   68.02 input  -60.55 | X-H torsion
[ 11005 11000 10999 10996 ] final  -23.87 input  -57.11 | X-H torsion

> <Gold.Protein.ActiveResidues>
 VAL166  LYS551  ARG553  GLY616  TRP617  ASP618  TYR619  PRO620  LYS621  CYS622 
 ASP623  PHE694  ASN695  SER759  ASP760  ASP761  ALA762  ILE779  LEU786  VAL792 
 PHE793  MET794  SER795  GLU796  ALA797  LYS798  CYS799  TRP800  GLU811  SER814 

> <Gold.Protein.RotatedAtoms>
  152.1712  134.8833  160.0534 H   0  0  0  0  0  0  0  0  0  0  0  0  # atno 6907 bound_to 6896
  151.9792  133.3747  159.4109 H   0  0  0  0  0  0  0  0  0  0  0  0  # atno 6908 bound_to 6896
  150.6902  134.3980  159.5150 H   0  0  0  0  0  0  0  0  0  0  0  0  # atno 6909 bound_to 6896
  146.2210  139.8568  142.8612 H   0  0  0  0  0  0  0  0  0  0  0  0  # atno 7974 bound_to 7965
  155.8181  140.3471  155.5498 H   0  0  0  0  0  0  0  0  0  0  0  0  # atno 8008 bound_to 7997
  155.8370  140.0936  157.1778 H   0  0  0  0  0  0  0  0  0  0  0  0  # atno 8009 bound_to 7997
  154.4004  140.1401  156.3670 H   0  0  0  0  0  0  0  0  0  0  0  0  # atno 8010 bound_to 7997
  139.5061  144.3429  152.0000 H   0  0  0  0  0  0  0  0  0  0  0  0  # atno 10167 bound_to 10162
  156.6151  130.4860  149.6186 H   0  0  0  0  0  0  0  0  0  0  0  0  # atno 10718 bound_to 10713
  153.0215  135.5262  154.7070 H   0  0  0  0  0  0  0  0  0  0  0  0  # atno 10763 bound_to 10752
  154.6163  135.2884  155.0378 H   0  0  0  0  0  0  0  0  0  0  0  0  # atno 10764 bound_to 10752
  154.1382  135.6582  153.4989 H   0  0  0  0  0  0  0  0  0  0  0  0  # atno 10765 bound_to 10752
  140.8792  133.7666  156.0281 H   0  0  0  0  0  0  0  0  0  0  0  0  # atno 11005 bound_to 11000
  145.2745  141.0119  143.3752 LP  0  0  0  0  0  0  0  0  0  0  0  0  # atno 17320 bound_to 7965
  144.9197  139.4426  143.6547 LP  0  0  0  0  0  0  0  0  0  0  0  0  # atno 17321 bound_to 7965
  140.2867  144.3799  150.6101 LP  0  0  0  0  0  0  0  0  0  0  0  0  # atno 17342 bound_to 10162
  140.5977  143.2167  151.7132 LP  0  0  0  0  0  0  0  0  0  0  0  0  # atno 17343 bound_to 10162
  156.2357  130.6821  151.1507 LP  0  0  0  0  0  0  0  0  0  0  0  0  # atno 17370 bound_to 10713
  157.7243  131.0660  150.5999 LP  0  0  0  0  0  0  0  0  0  0  0  0  # atno 17371 bound_to 10713
  140.8482  134.2986  157.5286 LP  0  0  0  0  0  0  0  0  0  0  0  0  # atno 17394 bound_to 11000
  139.8718  134.9453  156.3906 LP  0  0  0  0  0  0  0  0  0  0  0  0  # atno 17395 bound_to 11000

$$$$
