AV-unprocessed.smi:760|AV-procd|sdf|3629|dock5
  -GOLD-   22720 1 23D 1   1.00000     0.00000
 Structure written by MMmdl.
 43 44  0  0  0  0  0  0  0  0  1 V2000
  145.5604  131.7836  149.7396 C   0  0  0  0  0  0  0  0  0  0  0  0
  145.8815  131.5446  151.0217 C   0  0  0  0  0  0  0  0  0  0  0  0
  145.7058  130.1747  151.6523 C   0  0  0  0  0  0  0  0  0  0  0  0
  146.4159  132.6436  151.9284 C   0  0  0  0  0  0  0  0  0  0  0  0
  145.4855  133.7554  152.1400 N   0  0  0  0  0  0  0  0  0  0  0  0
  145.2313  134.5290  150.9204 C   0  0  0  0  0  0  0  0  0  0  0  0
  144.2109  135.6496  151.1886 C   0  0  0  0  0  0  0  0  0  0  0  0
  144.6855  136.5842  152.3100 C   0  0  0  0  0  0  0  0  0  0  0  0
  143.6381  137.5513  152.6237 N   0  0  0  0  0  0  0  0  0  0  0  0
  142.4059  137.2460  153.0542 C   0  0  0  0  0  0  0  0  0  0  0  0
  142.0143  136.0936  153.2397 O   0  0  0  0  0  0  0  0  0  0  0  0
  141.6704  138.3528  153.2493 N   0  0  0  0  0  0  0  0  0  0  0  0
  140.3259  138.4266  153.6929 C   0  0  0  0  0  0  0  0  0  0  0  0
  139.6964  137.4687  154.5299 C   0  0  0  0  0  0  0  0  0  0  0  0
  138.4386  137.8014  154.7775 N   0  0  0  0  0  0  0  0  0  0  0  0
  138.2465  138.9659  154.1112 N   0  0  0  0  0  0  0  0  0  0  0  0
  136.9531  139.6122  154.1730 C   0  0  0  0  0  0  0  0  0  0  0  0
  139.3788  139.3776  153.4368 C   0  0  0  0  0  0  0  0  0  0  0  0
  145.0423  135.7402  153.5447 C   0  0  0  0  0  0  0  0  0  0  0  0
  146.0376  134.6255  153.1812 C   0  0  0  0  0  0  0  0  0  0  0  0
  145.1716  131.0031  149.1019 H   0  0  0  0  0  0  0  0  0  0  0  0
  145.6835  132.7665  149.3088 H   0  0  0  0  0  0  0  0  0  0  0  0
  144.9744  130.2275  152.4590 H   0  0  0  0  0  0  0  0  0  0  0  0
  146.6416  129.8044  152.0689 H   0  0  0  0  0  0  0  0  0  0  0  0
  145.3505  129.4459  150.9229 H   0  0  0  0  0  0  0  0  0  0  0  0
  146.6436  132.1943  152.8962 H   0  0  0  0  0  0  0  0  0  0  0  0
  147.3614  133.0112  151.5262 H   0  0  0  0  0  0  0  0  0  0  0  0
  146.1650  134.9450  150.5390 H   0  0  0  0  0  0  0  0  0  0  0  0
  144.8216  133.8829  150.1452 H   0  0  0  0  0  0  0  0  0  0  0  0
  144.0428  136.2195  150.2740 H   0  0  0  0  0  0  0  0  0  0  0  0
  143.2511  135.2039  151.4554 H   0  0  0  0  0  0  0  0  0  0  0  0
  145.5769  137.1126  151.9658 H   0  0  0  0  0  0  0  0  0  0  0  0
  143.8704  138.5259  152.5015 H   0  0  0  0  0  0  0  0  0  0  0  0
  142.1189  139.2367  153.0582 H   0  0  0  0  0  0  0  0  0  0  0  0
  140.1006  136.5627  154.9567 H   0  0  0  0  0  0  0  0  0  0  0  0
  136.9888  140.5712  153.6553 H   0  0  0  0  0  0  0  0  0  0  0  0
  136.6731  139.7818  155.2133 H   0  0  0  0  0  0  0  0  0  0  0  0
  136.2024  138.9800  153.6977 H   0  0  0  0  0  0  0  0  0  0  0  0
  139.4017  140.2862  152.8535 H   0  0  0  0  0  0  0  0  0  0  0  0
  145.4708  136.3726  154.3228 H   0  0  0  0  0  0  0  0  0  0  0  0
  144.1400  135.2964  153.9685 H   0  0  0  0  0  0  0  0  0  0  0  0
  146.2537  134.0373  154.0741 H   0  0  0  0  0  0  0  0  0  0  0  0
  146.9823  135.0577  152.8472 H   0  0  0  0  0  0  0  0  0  0  0  0
  1  2  2  0  0  0  0
  1 21  1  0  0  0  0
  1 22  1  0  0  0  0
  2  3  1  0  0  0  0
  2  4  1  0  0  0  0
  3 23  1  0  0  0  0
  3 24  1  0  0  0  0
  3 25  1  0  0  0  0
  4  5  1  0  0  0  0
  4 26  1  0  0  0  0
  4 27  1  0  0  0  0
  5 20  1  0  0  0  0
  5  6  1  0  0  0  0
  6  7  1  0  0  0  0
  6 28  1  0  0  0  0
  6 29  1  0  0  0  0
  7  8  1  0  0  0  0
  7 30  1  0  0  0  0
  7 31  1  0  0  0  0
  8  9  1  0  0  0  0
  8 19  1  0  0  0  0
  8 32  1  0  0  0  0
  9 10  1  0  0  0  0
  9 33  1  0  0  0  0
 10 11  2  0  0  0  0
 10 12  1  0  0  0  0
 12 13  1  0  0  0  0
 12 34  1  0  0  0  0
 13 18  2  0  0  0  0
 13 14  1  0  0  0  0
 14 15  2  0  0  0  0
 14 35  1  0  0  0  0
 15 16  1  0  0  0  0
 16 17  1  0  0  0  0
 16 18  1  0  0  0  0
 17 36  1  0  0  0  0
 17 37  1  0  0  0  0
 17 38  1  0  0  0  0
 18 39  1  0  0  0  0
 19 20  1  0  0  0  0
 19 40  1  0  0  0  0
 19 41  1  0  0  0  0
 20 42  1  0  0  0  0
 20 43  1  0  0  0  0
M  END
> <s_m_source_file>
AV-unprocessed.smi

> <i_m_source_file_index>
760

> <i_lp_mmshare_version>
43012

> <i_f3d_flags>
0

> <s_epik_input>
W0NIMl09QyhbQ0gzXSlbQ0gyXU4xW0NIMl1bQ0gyXVtDSF0oW0NIMl1bQ0gyXTEpW05IXUMoPU8pW05IXWMyW2NIXW5uKFtDSDNdKVtjSF0y

> <s_epik_cmdline>
J2VwaWtfcHl0aG9uJywgJy1waCcsICc3LjAnLCAnLXRuJywgJzgnLCAnLW1hJywgJzIwMCcsICctbWV0YWxfYmluZGluZycsICctaW1hZScsICc8aW5maWxlLm1hZT4nLCAnLW9tYWUnLCAnPG91dGZpbGUubWFlPic=

> <r_lp_tautomer_probability>
1

> <r_epik_Ionization_Penalty>
2.03709

> <r_epik_Ionization_Penalty_Charging>
0

> <r_epik_Ionization_Penalty_Neutral>
2.03709

> <r_epik_State_Penalty>
2.16834

> <r_epik_Charging_Adjusted_Penalty>
2.16834

> <i_epik_Tot_Q>
0

> <i_epik_Tot_abs_Q>
0

> <r_epik_Metal_State_Penalty>
2.16831

> <b_epik_Metal_Only>
0

> <s_lp_Force_Field>
OPLS_2005

> <r_lp_Energy>
20.5491

> <b_lp_Chiralities_Consistent>
1

> <s_lp_Variant>
AV-unprocessed.smi:760-3

> <Gold.Version>
5.8.1

> <Gold.Id.Protein>
6NUR|6NUR_protein|mol2

> <Gold.PLP.Fitness>
42.0368

> <Gold.PLP.PLP>
-33.7037

> <Gold.PLP.part.hbond>
-3.0000

> <Gold.PLP.part.metal>
0.0000

> <Gold.PLP.part.buried>
-3.4731

> <Gold.PLP.part.nonpolar>
-27.9289

> <Gold.PLP.part.repulsive>
0.3412

> <Gold.PLP.ligand.clash>
0.0000

> <Gold.PLP.ligand.torsion>
0.2048

> <Gold.PLP.Chemscore.Hbond>
2.0000

> <Gold.PLP.Chemscore.CHOScore>
0.9064

> <Gold.PLP.Chemscore.Metal>
0.0000

> <Gold.Chemscore.Hbonds>
donor molecule, donor type, donor heavy atom, donor atom, acceptor molecule, acceptor atom, score
      L1  H     9    33       P1 10175  1.00
      L1  H    12    34       P1 10175  1.00
      L1  C    18    39       P1 10160  0.90

> <Gold.PLP.Chemscore.Internal.Correction>
0.0235

> <Gold.Rescore>
     Score         DG    S(hbond)    S(metal)    S(lipo)     H(rot)  DE(clash)    DE(int)     intcor
     15.70     -18.13       1.94        0.00      82.29       1.35       0.01       2.42       ----

> <Gold.Chemscore.Fitness>
15.6976

> <Gold.Chemscore.DG>
-18.1336

> <Gold.Chemscore.ZeroCoef>
-5.4800

> <Gold.Chemscore.Hbond>
1.9399

> <Gold.Chemscore.Metal>
0.0000

> <Gold.Chemscore.Lipo>
82.2903

> <Gold.Chemscore.Internal_Hbond>
0.0000

> <Gold.Chemscore.DEClash>
0.0142

> <Gold.Chemscore.DEInternal>
2.4217

> <Gold.Chemscore.Rot>
1.3491

> <Gold.Chemscore.Internal.Correction>
   9.000000E+99

> <Gold.Chemscore.Hbonds>
donor molecule, donor type, donor heavy atom, donor atom, acceptor molecule, acceptor atom, score
      L1  H     9    33       P1 10175  0.99
      L1  H    12    34       P1 10175  0.92

> <Gold.Chemscore.Hbond.Weighted>
-6.4794

> <Gold.Chemscore.Metal.Weighted>
-0.0000

> <Gold.Chemscore.Lipo.Weighted>
-9.6280

> <Gold.Chemscore.Internal_Hbond.Weighted>
0.0000

> <Gold.Chemscore.DEClash.Weighted>
0.0142

> <Gold.Chemscore.DEInternal.Weighted>
2.4217

> <Gold.Chemscore.Rot.Weighted>
3.4538

> <Gold.Chemscore.Internal.Correction.Weighted>
   9.000000E+99

> <Gold.Protein.RotatedTorsions>
[ 6907 6896 6895 6894 ] final   77.76 input  -60.11 | X-H torsion
[ 7974 7965 7964 7962 ] final   89.10 input  175.53 | X-H torsion
[ 8008 7997 7996 7995 ] final  112.94 input   59.86 | X-H torsion
[ 10167 10162 10161 10158 ] final -146.72 input  -65.29 | X-H torsion
[ 10718 10713 10712 10709 ] final  160.07 input   66.30 | X-H torsion
[ 10763 10752 10751 10750 ] final -158.09 input  -60.55 | X-H torsion
[ 11005 11000 10999 10996 ] final  125.81 input  -57.11 | X-H torsion

> <Gold.Protein.ActiveResidues>
 VAL166  LYS551  ARG553  GLY616  TRP617  ASP618  TYR619  PRO620  LYS621  CYS622 
 ASP623  PHE694  ASN695  SER759  ASP760  ASP761  ALA762  ILE779  LEU786  VAL792 
 PHE793  MET794  SER795  GLU796  ALA797  LYS798  CYS799  TRP800  GLU811  SER814 

> <Gold.Protein.RotatedAtoms>
  152.5131  134.3768  159.9336 H   0  0  0  0  0  0  0  0  0  0  0  0  # atno 6907 bound_to 6896
  151.3723  133.3844  159.2709 H   0  0  0  0  0  0  0  0  0  0  0  0  # atno 6908 bound_to 6896
  150.9568  134.8981  159.7764 H   0  0  0  0  0  0  0  0  0  0  0  0  # atno 6909 bound_to 6896
  145.5369  139.2286  143.2587 H   0  0  0  0  0  0  0  0  0  0  0  0  # atno 7974 bound_to 7965
  156.2225  140.2989  155.9987 H   0  0  0  0  0  0  0  0  0  0  0  0  # atno 8008 bound_to 7997
  155.2443  140.0423  157.2996 H   0  0  0  0  0  0  0  0  0  0  0  0  # atno 8009 bound_to 7997
  154.5863  140.2389  155.7990 H   0  0  0  0  0  0  0  0  0  0  0  0  # atno 8010 bound_to 7997
  139.7687  143.8270  152.2620 H   0  0  0  0  0  0  0  0  0  0  0  0  # atno 10167 bound_to 10162
  157.1555  131.0574  151.2258 H   0  0  0  0  0  0  0  0  0  0  0  0  # atno 10718 bound_to 10713
  154.7584  135.3111  154.8426 H   0  0  0  0  0  0  0  0  0  0  0  0  # atno 10763 bound_to 10752
  153.9193  135.6797  153.4752 H   0  0  0  0  0  0  0  0  0  0  0  0  # atno 10764 bound_to 10752
  153.1183  135.4834  154.9083 H   0  0  0  0  0  0  0  0  0  0  0  0  # atno 10765 bound_to 10752
  139.9425  134.9634  156.8614 H   0  0  0  0  0  0  0  0  0  0  0  0  # atno 11005 bound_to 11000
  146.2007  140.6188  142.9104 LP  0  0  0  0  0  0  0  0  0  0  0  0  # atno 17320 bound_to 7965
  144.7597  140.5392  143.6744 LP  0  0  0  0  0  0  0  0  0  0  0  0  # atno 17321 bound_to 7965
  139.8297  144.7259  150.9466 LP  0  0  0  0  0  0  0  0  0  0  0  0  # atno 17342 bound_to 10162
  140.7812  143.4081  151.1038 LP  0  0  0  0  0  0  0  0  0  0  0  0  # atno 17343 bound_to 10162
  157.4181  130.7422  149.6891 LP  0  0  0  0  0  0  0  0  0  0  0  0  # atno 17370 bound_to 10713
  155.9763  130.4078  150.3790 LP  0  0  0  0  0  0  0  0  0  0  0  0  # atno 17371 bound_to 10713
  140.5916  134.0256  155.7502 LP  0  0  0  0  0  0  0  0  0  0  0  0  # atno 17394 bound_to 11000
  141.1064  133.9686  157.2989 LP  0  0  0  0  0  0  0  0  0  0  0  0  # atno 17395 bound_to 11000

$$$$
