AV-unprocessed.smi:812|AV-procd|sdf|3816|dock5
  -GOLD-   22720 1253D 1   1.00000     0.00000
 Structure written by MMmdl.
 38 40  0  0  0  0  0  0  0  0  1 V2000
  154.7214  139.7817  161.0716 C   0  0  0  0  0  0  0  0  0  0  0  0
  153.7666  140.7616  160.5208 N   0  0  0  0  0  0  0  0  0  0  0  0
  153.3107  140.5765  159.2420 C   0  0  0  0  0  0  0  0  0  0  0  0
  153.6398  139.6446  158.5070 O   0  0  0  0  0  0  0  0  0  0  0  0
  152.3688  141.6078  158.7913 C   0  0  0  0  0  0  0  0  0  0  0  0
  151.9885  142.6508  159.5699 C   0  0  0  0  0  0  0  0  0  0  0  0
  151.0978  143.4820  158.8993 N   0  0  0  0  0  0  0  0  0  0  0  0
  150.9871  142.8774  157.7162 C   0  0  0  0  0  0  0  0  0  0  0  0
  151.7143  141.7519  157.5678 N   0  0  0  0  0  0  0  0  0  0  0  0
  151.7680  140.9197  156.3745 C   0  0  0  0  0  0  0  0  0  0  0  0
  150.3706  140.4813  155.8898 C   0  0  1  0  0  0  0  0  0  0  0  0
  150.4175  140.0916  154.5308 O   0  0  0  0  0  0  0  0  0  0  0  0
  149.7981  139.3859  156.7751 C   0  0  0  0  0  0  0  0  0  0  0  0
  148.4919  138.8967  156.5528 C   0  0  0  0  0  0  0  0  0  0  0  0
  147.9653  137.8799  157.3727 C   0  0  0  0  0  0  0  0  0  0  0  0
  148.7422  137.3448  158.4180 C   0  0  0  0  0  0  0  0  0  0  0  0
  148.2361  136.3669  159.2060 F   0  0  0  0  0  0  0  0  0  0  0  0
  150.0463  137.8263  158.6421 C   0  0  0  0  0  0  0  0  0  0  0  0
  150.5736  138.8432  157.8223 C   0  0  0  0  0  0  0  0  0  0  0  0
  152.5239  142.7470  160.8804 N   0  0  0  0  0  0  0  0  0  0  0  0
  152.1256  143.8699  161.7337 C   0  0  0  0  0  0  0  0  0  0  0  0
  153.4100  141.8105  161.3508 C   0  0  0  0  0  0  0  0  0  0  0  0
  153.8752  141.9103  162.4900 O   0  0  0  0  0  0  0  0  0  0  0  0
  154.9384  138.9353  160.4192 H   0  0  0  0  0  0  0  0  0  0  0  0
  154.3434  139.3588  162.0040 H   0  0  0  0  0  0  0  0  0  0  0  0
  155.6760  140.2650  161.2857 H   0  0  0  0  0  0  0  0  0  0  0  0
  150.3582  143.2678  156.9295 H   0  0  0  0  0  0  0  0  0  0  0  0
  152.3109  141.4450  155.5901 H   0  0  0  0  0  0  0  0  0  0  0  0
  152.3661  140.0379  156.6078 H   0  0  0  0  0  0  0  0  0  0  0  0
  149.7035  141.3432  155.9382 H   0  0  0  0  0  0  0  0  0  0  0  0
  149.5680  139.7585  154.2848 H   0  0  0  0  0  0  0  0  0  0  0  0
  147.8902  139.3000  155.7511 H   0  0  0  0  0  0  0  0  0  0  0  0
  146.9655  137.5104  157.1986 H   0  0  0  0  0  0  0  0  0  0  0  0
  150.6430  137.4153  159.4431 H   0  0  0  0  0  0  0  0  0  0  0  0
  151.5757  139.2041  158.0020 H   0  0  0  0  0  0  0  0  0  0  0  0
  151.6669  143.5084  162.6552 H   0  0  0  0  0  0  0  0  0  0  0  0
  151.4059  144.5319  161.2531 H   0  0  0  0  0  0  0  0  0  0  0  0
  152.9943  144.4735  161.9996 H   0  0  0  0  0  0  0  0  0  0  0  0
  1  2  1  0  0  0  0
  1 24  1  0  0  0  0
  1 25  1  0  0  0  0
  1 26  1  0  0  0  0
  2 22  1  0  0  0  0
  2  3  1  0  0  0  0
  3  4  2  0  0  0  0
  3  5  1  0  0  0  0
  5  9  1  0  0  0  0
  5  6  2  0  0  0  0
  6  7  1  0  0  0  0
  6 20  1  0  0  0  0
  7  8  2  0  0  0  0
  8  9  1  0  0  0  0
  8 27  1  0  0  0  0
  9 10  1  0  0  0  0
 10 11  1  0  0  0  0
 10 28  1  0  0  0  0
 10 29  1  0  0  0  0
 11 12  1  0  0  0  0
 11 13  1  0  0  0  0
 11 30  1  0  0  0  0
 12 31  1  0  0  0  0
 13 19  1  0  0  0  0
 13 14  2  0  0  0  0
 14 15  1  0  0  0  0
 14 32  1  0  0  0  0
 15 16  2  0  0  0  0
 15 33  1  0  0  0  0
 16 17  1  0  0  0  0
 16 18  1  0  0  0  0
 18 19  2  0  0  0  0
 18 34  1  0  0  0  0
 19 35  1  0  0  0  0
 20 21  1  0  0  0  0
 20 22  1  0  0  0  0
 21 36  1  0  0  0  0
 21 37  1  0  0  0  0
 21 38  1  0  0  0  0
 22 23  2  0  0  0  0
M  END
> <s_m_source_file>
AV-unprocessed.smi

> <i_m_source_file_index>
812

> <i_lp_mmshare_version>
43012

> <i_f3d_flags>
0

> <s_epik_input>
Tz1jMW4oW0NIM10pYyg9TyluKFtDSDNdKWMoYzEyKW5bY0hdbjJbQ0gyXVtDQEhdKFtPSF0pYzNbY0hdW2NIXWMoRilbY0hdW2NIXTM=

> <s_epik_cmdline>
J2VwaWtfcHl0aG9uJywgJy1waCcsICc3LjAnLCAnLXRuJywgJzgnLCAnLW1hJywgJzIwMCcsICctbWV0YWxfYmluZGluZycsICctaW1hZScsICc8aW5maWxlLm1hZT4nLCAnLW9tYWUnLCAnPG91dGZpbGUubWFlPic=

> <r_lp_tautomer_probability>
1

> <r_epik_Ionization_Penalty>
1.45649e-06

> <r_epik_Ionization_Penalty_Charging>
3.74189e-09

> <r_epik_Ionization_Penalty_Neutral>
1.45275e-06

> <r_epik_State_Penalty>
-0

> <r_epik_Charging_Adjusted_Penalty>
3.74189e-09

> <i_epik_Tot_Q>
0

> <i_epik_Tot_abs_Q>
0

> <r_epik_Metal_State_Penalty>
-0

> <b_epik_Metal_Only>
0

> <s_lp_Force_Field>
OPLS_2005

> <r_lp_Energy>
35.4349

> <b_lp_Chiralities_Consistent>
1

> <s_lp_Variant>
AV-unprocessed.smi:812-2

> <Gold.Version>
5.8.1

> <Gold.Id.Protein>
6NUR|6NUR_protein|mol2

> <Gold.PLP.Fitness>
51.3895

> <Gold.PLP.PLP>
-42.7883

> <Gold.PLP.part.hbond>
-3.0000

> <Gold.PLP.part.metal>
0.0000

> <Gold.PLP.part.buried>
-6.0365

> <Gold.PLP.part.nonpolar>
-32.6160

> <Gold.PLP.part.repulsive>
0.1046

> <Gold.PLP.ligand.clash>
0.0000

> <Gold.PLP.ligand.torsion>
0.2118

> <Gold.PLP.Chemscore.Hbond>
2.0000

> <Gold.PLP.Chemscore.CHOScore>
1.0000

> <Gold.PLP.Chemscore.Metal>
0.0000

> <Gold.Chemscore.Hbonds>
donor molecule, donor type, donor heavy atom, donor atom, acceptor molecule, acceptor atom, score
      P1  H  7989  7998       L1    12  1.00
      P1  H  7997  8009       L1     4  1.00
      L1  C     8    27       P1  8028  1.00

> <Gold.PLP.Chemscore.Internal.Correction>
0.0249

> <Gold.Rescore>
     Score         DG    S(hbond)    S(metal)    S(lipo)     H(rot)  DE(clash)    DE(int)     intcor
     12.33     -12.69       1.94        0.00      55.10       2.24       0.01       0.36       ----

> <Gold.Chemscore.Fitness>
12.3251

> <Gold.Chemscore.DG>
-12.6917

> <Gold.Chemscore.ZeroCoef>
-5.4800

> <Gold.Chemscore.Hbond>
1.9442

> <Gold.Chemscore.Metal>
0.0000

> <Gold.Chemscore.Lipo>
55.1016

> <Gold.Chemscore.Internal_Hbond>
0.0000

> <Gold.Chemscore.DEClash>
0.0089

> <Gold.Chemscore.DEInternal>
0.3577

> <Gold.Chemscore.Rot>
2.2377

> <Gold.Chemscore.Internal.Correction>
   9.000000E+99

> <Gold.Chemscore.Hbonds>
donor molecule, donor type, donor heavy atom, donor atom, acceptor molecule, acceptor atom, score
      P1  H  7989  7998       L1    12  0.95
      P1  H  7997  8009       L1     4  0.94

> <Gold.Chemscore.Hbond.Weighted>
-6.4935

> <Gold.Chemscore.Metal.Weighted>
-0.0000

> <Gold.Chemscore.Lipo.Weighted>
-6.4469

> <Gold.Chemscore.Internal_Hbond.Weighted>
0.0000

> <Gold.Chemscore.DEClash.Weighted>
0.0089

> <Gold.Chemscore.DEInternal.Weighted>
0.3577

> <Gold.Chemscore.Rot.Weighted>
5.7286

> <Gold.Chemscore.Internal.Correction.Weighted>
   9.000000E+99

> <Gold.Protein.RotatedTorsions>
[ 6907 6896 6895 6894 ] final   44.39 input  -60.11 | X-H torsion
[ 7974 7965 7964 7962 ] final  109.79 input  175.53 | X-H torsion
[ 8008 7997 7996 7995 ] final  151.56 input   59.86 | X-H torsion
[ 10167 10162 10161 10158 ] final   28.25 input  -65.29 | X-H torsion
[ 10718 10713 10712 10709 ] final   17.03 input   66.30 | X-H torsion
[ 10763 10752 10751 10750 ] final  -72.11 input  -60.55 | X-H torsion
[ 11005 11000 10999 10996 ] final  -93.50 input  -57.11 | X-H torsion

> <Gold.Protein.ActiveResidues>
 VAL166  LYS551  ARG553  GLY616  TRP617  ASP618  TYR619  PRO620  LYS621  CYS622 
 ASP623  PHE694  ASN695  SER759  ASP760  ASP761  ALA762  ILE779  LEU786  VAL792 
 PHE793  MET794  SER795  GLU796  ALA797  LYS798  CYS799  TRP800  GLU811  SER814 

> <Gold.Protein.RotatedAtoms>
  152.2319  134.8313  160.0472 H   0  0  0  0  0  0  0  0  0  0  0  0  # atno 6907 bound_to 6896
  151.9059  133.3544  159.3855 H   0  0  0  0  0  0  0  0  0  0  0  0  # atno 6908 bound_to 6896
  150.7028  134.4707  159.5468 H   0  0  0  0  0  0  0  0  0  0  0  0  # atno 6909 bound_to 6896
  145.2633  139.2694  143.4005 H   0  0  0  0  0  0  0  0  0  0  0  0  # atno 7974 bound_to 7965
  156.2668  140.2044  156.6195 H   0  0  0  0  0  0  0  0  0  0  0  0  # atno 8008 bound_to 7997
  154.6768  140.0544  157.0248 H   0  0  0  0  0  0  0  0  0  0  0  0  # atno 8009 bound_to 7997
  155.1058  140.3210  155.4537 H   0  0  0  0  0  0  0  0  0  0  0  0  # atno 8010 bound_to 7997
  140.4868  144.0529  150.6283 H   0  0  0  0  0  0  0  0  0  0  0  0  # atno 10167 bound_to 10162
  157.0764  130.6369  149.5816 H   0  0  0  0  0  0  0  0  0  0  0  0  # atno 10718 bound_to 10713
  154.4411  135.5940  153.6130 H   0  0  0  0  0  0  0  0  0  0  0  0  # atno 10763 bound_to 10752
  152.9805  135.5998  154.3722 H   0  0  0  0  0  0  0  0  0  0  0  0  # atno 10764 bound_to 10752
  154.3571  135.2841  155.2319 H   0  0  0  0  0  0  0  0  0  0  0  0  # atno 10765 bound_to 10752
  141.1495  133.7892  157.0167 H   0  0  0  0  0  0  0  0  0  0  0  0  # atno 11005 bound_to 11000
  146.3268  140.3056  142.8623 LP  0  0  0  0  0  0  0  0  0  0  0  0  # atno 17320 bound_to 7965
  144.9399  140.8067  143.5637 LP  0  0  0  0  0  0  0  0  0  0  0  0  # atno 17321 bound_to 7965
  140.3787  143.2814  152.0195 LP  0  0  0  0  0  0  0  0  0  0  0  0  # atno 17342 bound_to 10162
  139.4843  144.6172  151.7323 LP  0  0  0  0  0  0  0  0  0  0  0  0  # atno 17343 bound_to 10162
  155.9936  130.4997  150.7386 LP  0  0  0  0  0  0  0  0  0  0  0  0  # atno 17370 bound_to 10713
  157.4836  131.0904  151.0508 LP  0  0  0  0  0  0  0  0  0  0  0  0  # atno 17371 bound_to 10713
  140.0842  134.9630  157.1673 LP  0  0  0  0  0  0  0  0  0  0  0  0  # atno 17394 bound_to 11000
  140.3535  134.2573  155.7195 LP  0  0  0  0  0  0  0  0  0  0  0  0  # atno 17395 bound_to 11000

$$$$
