AV-unprocessed.smi:2482|AV-procd|sdf|9783|dock2
  -GOLD-   2272013423D 1   1.00000     0.00000
 Structure written by MMmdl.
 34 35  0  0  0  0  0  0  0  0  3 V2000
  152.2823  143.5948  161.3267 C   0  0  0  0  0  0  0  0  0  0  0  0
  152.0404  142.8790  160.0107 C   0  0  0  0  0  0  0  0  0  0  0  0
  151.1702  143.4812  159.1720 N   0  0  0  0  0  0  0  0  0  0  0  0
  150.9186  142.8815  157.9916 C   0  0  0  0  0  0  0  0  0  0  0  0
  151.5177  141.6705  157.5971 C   0  0  0  0  0  0  0  0  0  0  0  0
  152.4364  141.0331  158.4606 C   0  0  0  0  0  0  0  0  0  0  0  0
  153.0112  139.8739  158.0998 N   0  5  0  0  0  0  0  0  0  0  0  0
  152.2524  138.8704  157.5964 C   0  0  0  0  0  0  0  0  0  0  0  0
  151.3319  138.2579  158.1420 O   0  0  0  0  0  0  0  0  0  0  0  0
  152.6662  138.5199  156.1494 C   0  0  2  0  0  0  0  0  0  0  0  0
  151.9396  139.3420  155.0584 C   0  0  0  0  0  0  0  0  0  0  0  0
  150.5126  138.9537  154.9588 N   0  3  1  0  0  0  0  0  0  0  0  0
  149.7671  139.7649  153.9738 C   0  0  0  0  0  0  0  0  0  0  0  0
  150.3778  137.4984  154.7239 C   0  0  0  0  0  0  0  0  0  0  0  0
  151.1118  136.7104  155.8210 C   0  0  0  0  0  0  0  0  0  0  0  0
  152.4759  137.1258  155.8777 O   0  0  0  0  0  0  0  0  0  0  0  0
  152.6949  141.6613  159.7069 C   0  0  0  0  0  0  0  0  0  0  0  0
  153.7942  140.9553  160.8468 Cl  0  0  0  0  0  0  0  0  0  0  0  0
  153.3344  143.8636  161.4241 H   0  0  0  0  0  0  0  0  0  0  0  0
  152.0111  142.9505  162.1634 H   0  0  0  0  0  0  0  0  0  0  0  0
  151.6924  144.5092  161.4009 H   0  0  0  0  0  0  0  0  0  0  0  0
  150.2170  143.3812  157.3404 H   0  0  0  0  0  0  0  0  0  0  0  0
  151.2741  141.2376  156.6377 H   0  0  0  0  0  0  0  0  0  0  0  0
  153.7350  138.7234  156.0664 H   0  0  0  0  0  0  0  0  0  0  0  0
  152.0199  140.4095  155.2699 H   0  0  0  0  0  0  0  0  0  0  0  0
  152.4251  139.1800  154.0947 H   0  0  0  0  0  0  0  0  0  0  0  0
  150.1599  139.6173  152.9670 H   0  0  0  0  0  0  0  0  0  0  0  0
  149.8381  140.8253  154.2182 H   0  0  0  0  0  0  0  0  0  0  0  0
  148.7111  139.4934  153.9734 H   0  0  0  0  0  0  0  0  0  0  0  0
  149.3230  137.2215  154.7122 H   0  0  0  0  0  0  0  0  0  0  0  0
  150.7878  137.2458  153.7447 H   0  0  0  0  0  0  0  0  0  0  0  0
  150.6201  136.8356  156.7865 H   0  0  0  0  0  0  0  0  0  0  0  0
  151.0825  135.6442  155.5963 H   0  0  0  0  0  0  0  0  0  0  0  0
  150.1022  139.1419  155.8631 H   0  0  0  0  0  0  0  0  0  0  0  0
  1  2  1  0  0  0  0
  1 19  1  0  0  0  0
  1 20  1  0  0  0  0
  1 21  1  0  0  0  0
  2 17  1  0  0  0  0
  2  3  2  0  0  0  0
  3  4  1  0  0  0  0
  4  5  2  0  0  0  0
  4 22  1  0  0  0  0
  5  6  1  0  0  0  0
  5 23  1  0  0  0  0
  6  7  1  0  0  0  0
  6 17  2  0  0  0  0
  7  8  1  0  0  0  0
  8  9  2  0  0  0  0
  8 10  1  0  0  0  0
 10 16  1  0  0  0  0
 10 11  1  0  0  0  0
 10 24  1  0  0  0  0
 11 12  1  0  0  0  0
 11 25  1  0  0  0  0
 11 26  1  0  0  0  0
 12 13  1  0  0  0  0
 12 14  1  0  0  0  0
 12 34  1  0  0  0  0
 13 27  1  0  0  0  0
 13 28  1  0  0  0  0
 13 29  1  0  0  0  0
 14 15  1  0  0  0  0
 14 30  1  0  0  0  0
 14 31  1  0  0  0  0
 15 16  1  0  0  0  0
 15 32  1  0  0  0  0
 15 33  1  0  0  0  0
 17 18  1  0  0  0  0
M  CHG  1   7  -1
M  CHG  1  12   1
M  END
> <s_m_source_file>
AV-unprocessed.smi

> <i_m_source_file_index>
2482

> <i_lp_mmshare_version>
43012

> <i_f3d_flags>
0

> <s_epik_input>
W0NIM11jMW5bY0hdW2NIXWMoYzFDbClbTkhdQyg9TylbQ0BASF0yW0NIMl1OKFtDSDNdKVtDSDJdW0NIMl1PMg==

> <s_epik_cmdline>
J2VwaWtfcHl0aG9uJywgJy1waCcsICc3LjAnLCAnLXRuJywgJzgnLCAnLW1hJywgJzIwMCcsICctbWV0YWxfYmluZGluZycsICctaW1hZScsICc8aW5maWxlLm1hZT4nLCAnLW9tYWUnLCAnPG91dGZpbGUubWFlPic=

> <r_epik_Ionization_Penalty>
6.9249

> <r_epik_Ionization_Penalty_Charging>
6.74596

> <r_epik_Ionization_Penalty_Neutral>
0.178941

> <r_epik_State_Penalty>
6.78185

> <r_epik_Charging_Adjusted_Penalty>
13.5278

> <i_epik_Tot_Q>
0

> <i_epik_Tot_abs_Q>
2

> <r_epik_Metal_State_Penalty>
2.70608

> <b_epik_Metal_Only>
1

> <s_lp_Force_Field>
OPLS_2005

> <r_lp_Energy>
12.3895

> <b_lp_Chiralities_Consistent>
1

> <s_lp_Variant>
AV-unprocessed.smi:2482-9

> <Gold.Version>
5.8.1

> <Gold.Id.Protein>
6NUR|6NUR_protein|mol2

> <Gold.PLP.Fitness>
41.3566

> <Gold.PLP.PLP>
-32.6509

> <Gold.PLP.part.hbond>
-2.0000

> <Gold.PLP.part.metal>
0.0000

> <Gold.PLP.part.buried>
-3.5235

> <Gold.PLP.part.nonpolar>
-27.3869

> <Gold.PLP.part.repulsive>
0.1230

> <Gold.PLP.ligand.clash>
0.0000

> <Gold.PLP.ligand.torsion>
1.7348

> <Gold.PLP.Chemscore.Hbond>
2.8960

> <Gold.PLP.Chemscore.CHOScore>
1.0000

> <Gold.PLP.Chemscore.Metal>
0.0000

> <Gold.Chemscore.Hbonds>
donor molecule, donor type, donor heavy atom, donor atom, acceptor molecule, acceptor atom, score
      P1  H  7997  8008       L1     7  1.95
      P1  H 10752 10764       L1    16  0.56
      L1  C     4    22       P1  8028  1.00

> <Gold.PLP.Chemscore.Internal.Correction>
0.4873

> <Gold.Rescore>
     Score         DG    S(hbond)    S(metal)    S(lipo)     H(rot)  DE(clash)    DE(int)     intcor
     16.27     -19.41       1.70        0.00      92.43       1.00       0.06       3.08       ----

> <Gold.Chemscore.Fitness>
16.2659

> <Gold.Chemscore.DG>
-19.4078

> <Gold.Chemscore.ZeroCoef>
-5.4800

> <Gold.Chemscore.Hbond>
1.6985

> <Gold.Chemscore.Metal>
0.0000

> <Gold.Chemscore.Lipo>
92.4345

> <Gold.Chemscore.Internal_Hbond>
0.0000

> <Gold.Chemscore.DEClash>
0.0578

> <Gold.Chemscore.DEInternal>
3.0841

> <Gold.Chemscore.Rot>
1.0000

> <Gold.Chemscore.Internal.Correction>
   9.000000E+99

> <Gold.Chemscore.Hbonds>
donor molecule, donor type, donor heavy atom, donor atom, acceptor molecule, acceptor atom, score
      P1  H  7997  8008       L1     7  0.31
      P1  H 10752 10764       L1    16  0.06

> <Gold.Chemscore.Hbond.Weighted>
-5.6729

> <Gold.Chemscore.Metal.Weighted>
-0.0000

> <Gold.Chemscore.Lipo.Weighted>
-10.8148

> <Gold.Chemscore.Internal_Hbond.Weighted>
0.0000

> <Gold.Chemscore.DEClash.Weighted>
0.0578

> <Gold.Chemscore.DEInternal.Weighted>
3.0841

> <Gold.Chemscore.Rot.Weighted>
2.5600

> <Gold.Chemscore.Internal.Correction.Weighted>
   9.000000E+99

> <Gold.Protein.RotatedTorsions>
[ 6907 6896 6895 6894 ] final  -17.24 input  -60.11 | X-H torsion
[ 7974 7965 7964 7962 ] final  140.36 input  175.53 | X-H torsion
[ 8008 7997 7996 7995 ] final  -65.44 input   59.86 | X-H torsion
[ 10167 10162 10161 10158 ] final   83.62 input  -65.29 | X-H torsion
[ 10718 10713 10712 10709 ] final   75.95 input   66.30 | X-H torsion
[ 10763 10752 10751 10750 ] final  -30.26 input  -60.55 | X-H torsion
[ 11005 11000 10999 10996 ] final -106.66 input  -57.11 | X-H torsion

> <Gold.Protein.ActiveResidues>
 VAL166  LYS551  ARG553  GLY616  TRP617  ASP618  TYR619  PRO620  LYS621  CYS622 
 ASP623  PHE694  ASN695  SER759  ASP760  ASP761  ALA762  ILE779  LEU786  VAL792 
 PHE793  MET794  SER795  GLU796  ALA797  LYS798  CYS799  TRP800  GLU811  SER814 

> <Gold.Protein.RotatedAtoms>
  151.2964  135.0756  159.9222 H   0  0  0  0  0  0  0  0  0  0  0  0  # atno 6907 bound_to 6896
  152.5306  133.9879  159.7847 H   0  0  0  0  0  0  0  0  0  0  0  0  # atno 6908 bound_to 6896
  151.0158  133.5872  159.2707 H   0  0  0  0  0  0  0  0  0  0  0  0  # atno 6909 bound_to 6896
  144.9194  139.5187  143.5670 H   0  0  0  0  0  0  0  0  0  0  0  0  # atno 7974 bound_to 7965
  154.4672  140.0933  156.7051 H   0  0  0  0  0  0  0  0  0  0  0  0  # atno 8008 bound_to 7997
  155.4825  140.3468  155.4323 H   0  0  0  0  0  0  0  0  0  0  0  0  # atno 8009 bound_to 7997
  156.0977  140.1414  156.9498 H   0  0  0  0  0  0  0  0  0  0  0  0  # atno 8010 bound_to 7997
  139.9165  144.6239  150.8484 H   0  0  0  0  0  0  0  0  0  0  0  0  # atno 10167 bound_to 10162
  157.6654  130.9751  150.1427 H   0  0  0  0  0  0  0  0  0  0  0  0  # atno 10718 bound_to 10713
  153.7780  135.6907  153.4894 H   0  0  0  0  0  0  0  0  0  0  0  0  # atno 10763 bound_to 10752
  153.1830  135.4499  155.0051 H   0  0  0  0  0  0  0  0  0  0  0  0  # atno 10764 bound_to 10752
  154.8092  135.3370  154.7285 H   0  0  0  0  0  0  0  0  0  0  0  0  # atno 10765 bound_to 10752
  141.0993  133.8913  157.1883 H   0  0  0  0  0  0  0  0  0  0  0  0  # atno 11005 bound_to 11000
  146.3197  139.8062  142.8955 LP  0  0  0  0  0  0  0  0  0  0  0  0  # atno 17320 bound_to 7965
  145.3321  141.0269  143.3440 LP  0  0  0  0  0  0  0  0  0  0  0  0  # atno 17321 bound_to 7965
  140.7673  143.3328  151.2374 LP  0  0  0  0  0  0  0  0  0  0  0  0  # atno 17342 bound_to 10162
  139.6898  143.9711  152.2853 LP  0  0  0  0  0  0  0  0  0  0  0  0  # atno 17343 bound_to 10162
  156.2246  130.3677  149.8516 LP  0  0  0  0  0  0  0  0  0  0  0  0  # atno 17370 bound_to 10713
  156.6360  130.8685  151.3504 LP  0  0  0  0  0  0  0  0  0  0  0  0  # atno 17371 bound_to 10713
  139.9839  135.0088  156.9817 LP  0  0  0  0  0  0  0  0  0  0  0  0  # atno 17394 bound_to 11000
  140.5061  134.1048  155.7260 LP  0  0  0  0  0  0  0  0  0  0  0  0  # atno 17395 bound_to 11000

$$$$
