AV-unprocessed.smi:1292|AV-procd|sdf|5395|dock6
  -GOLD-   22720 4553D 1   1.00000     0.00000
 Structure written by MMmdl.
 40 41  0  0  0  0  0  0  0  0  1 V2000
  146.5476  138.4206  152.7236 C   0  0  0  0  0  0  0  0  0  0  0  0
  147.1567  139.3937  153.7425 C   0  0  2  0  0  0  0  0  0  0  0  0
  147.0222  140.8509  153.2777 C   0  0  0  0  0  0  0  0  0  0  0  0
  147.6365  141.7855  154.3241 C   0  0  0  0  0  0  0  0  0  0  0  0
  149.1006  141.4166  154.6111 C   0  0  0  0  0  0  0  0  0  0  0  0
  149.2270  139.9990  154.9990 N   0  0  0  0  0  0  0  0  0  0  0  0
  150.6898  139.5181  155.7970 S   0  0  0  0  0  0  0  0  0  0  0  0
  150.4732  138.1914  156.3935 O   0  0  0  0  0  0  0  0  0  0  0  0
  151.8266  139.7774  154.8998 O   0  0  0  0  0  0  0  0  0  0  0  0
  150.7256  140.6908  157.0628 N   0  0  0  0  0  0  0  0  0  0  0  0
  151.0006  140.2633  158.4347 C   0  0  0  0  0  0  0  0  0  0  0  0
  152.2454  140.9759  158.9781 C   0  0  0  0  0  0  0  0  0  0  0  0
  152.0681  142.4821  159.0181 C   0  0  0  0  0  0  0  0  0  0  0  0
  152.3545  143.2089  160.1936 C   0  0  0  0  0  0  0  0  0  0  0  0
  152.1596  144.6037  160.1841 C   0  0  0  0  0  0  0  0  0  0  0  0
  151.6869  145.2146  159.0067 C   0  0  0  0  0  0  0  0  0  0  0  0
  151.4282  144.3998  157.8864 C   0  0  0  0  0  0  0  0  0  0  0  0
  151.6112  143.0616  157.8850 N   0  0  0  0  0  0  0  0  0  0  0  0
  148.6328  139.0562  154.0284 C   0  0  0  0  0  0  0  0  0  0  0  0
  147.0599  138.4804  151.7629 H   0  0  0  0  0  0  0  0  0  0  0  0
  145.4933  138.6398  152.5532 H   0  0  0  0  0  0  0  0  0  0  0  0
  146.6171  137.3905  153.0743 H   0  0  0  0  0  0  0  0  0  0  0  0
  146.6007  139.2821  154.6748 H   0  0  0  0  0  0  0  0  0  0  0  0
  147.5239  140.9879  152.3186 H   0  0  0  0  0  0  0  0  0  0  0  0
  145.9731  141.1053  153.1234 H   0  0  0  0  0  0  0  0  0  0  0  0
  147.5746  142.8187  153.9820 H   0  0  0  0  0  0  0  0  0  0  0  0
  147.0588  141.7315  155.2480 H   0  0  0  0  0  0  0  0  0  0  0  0
  149.7214  141.6014  153.7336 H   0  0  0  0  0  0  0  0  0  0  0  0
  149.4823  142.0535  155.4091 H   0  0  0  0  0  0  0  0  0  0  0  0
  151.2003  141.5513  156.7918 H   0  0  0  0  0  0  0  0  0  0  0  0
  150.1307  140.4782  159.0563 H   0  0  0  0  0  0  0  0  0  0  0  0
  151.1541  139.1839  158.4532 H   0  0  0  0  0  0  0  0  0  0  0  0
  152.4724  140.6168  159.9830 H   0  0  0  0  0  0  0  0  0  0  0  0
  153.1142  140.7362  158.3628 H   0  0  0  0  0  0  0  0  0  0  0  0
  152.7112  142.7107  161.0830 H   0  0  0  0  0  0  0  0  0  0  0  0
  152.3672  145.1936  161.0646 H   0  0  0  0  0  0  0  0  0  0  0  0
  151.5252  146.2815  158.9633 H   0  0  0  0  0  0  0  0  0  0  0  0
  151.0644  144.8345  156.9673 H   0  0  0  0  0  0  0  0  0  0  0  0
  148.7038  138.0385  154.4111 H   0  0  0  0  0  0  0  0  0  0  0  0
  149.2176  139.0845  153.1077 H   0  0  0  0  0  0  0  0  0  0  0  0
  1  2  1  0  0  0  0
  1 20  1  0  0  0  0
  1 21  1  0  0  0  0
  1 22  1  0  0  0  0
  2 19  1  0  0  0  0
  2  3  1  0  0  0  0
  2 23  1  0  0  0  0
  3  4  1  0  0  0  0
  3 24  1  0  0  0  0
  3 25  1  0  0  0  0
  4  5  1  0  0  0  0
  4 26  1  0  0  0  0
  4 27  1  0  0  0  0
  5  6  1  0  0  0  0
  5 28  1  0  0  0  0
  5 29  1  0  0  0  0
  6  7  1  0  0  0  0
  6 19  1  0  0  0  0
  7  8  2  0  0  0  0
  7  9  2  0  0  0  0
  7 10  1  0  0  0  0
 10 11  1  0  0  0  0
 10 30  1  0  0  0  0
 11 12  1  0  0  0  0
 11 31  1  0  0  0  0
 11 32  1  0  0  0  0
 12 13  1  0  0  0  0
 12 33  1  0  0  0  0
 12 34  1  0  0  0  0
 13 18  1  0  0  0  0
 13 14  2  0  0  0  0
 14 15  1  0  0  0  0
 14 35  1  0  0  0  0
 15 16  2  0  0  0  0
 15 36  1  0  0  0  0
 16 17  1  0  0  0  0
 16 37  1  0  0  0  0
 17 18  2  0  0  0  0
 17 38  1  0  0  0  0
 19 39  1  0  0  0  0
 19 40  1  0  0  0  0
M  END
> <s_m_source_file>
AV-unprocessed.smi

> <i_m_source_file_index>
1292

> <i_lp_mmshare_version>
43012

> <i_f3d_flags>
0

> <s_epik_input>
W0NIM11bQ0BASF0xW0NIMl1bQ0gyXVtDSDJdTihbQ0gyXTEpUyg9TykoPU8pW05IXVtDSDJdW0NIMl1jMltjSF1bY0hdW2NIXVtjSF1uMg==

> <s_epik_cmdline>
J2VwaWtfcHl0aG9uJywgJy1waCcsICc3LjAnLCAnLXRuJywgJzgnLCAnLW1hJywgJzIwMCcsICctbWV0YWxfYmluZGluZycsICctaW1hZScsICc8aW5maWxlLm1hZT4nLCAnLW9tYWUnLCAnPG91dGZpbGUubWFlPic=

> <r_epik_Ionization_Penalty>
0.0252758

> <r_epik_Ionization_Penalty_Charging>
0

> <r_epik_Ionization_Penalty_Neutral>
0.0252758

> <r_epik_State_Penalty>
0.0138562

> <r_epik_Charging_Adjusted_Penalty>
0.0138562

> <i_epik_Tot_Q>
0

> <i_epik_Tot_abs_Q>
0

> <r_epik_Metal_State_Penalty>
0.204365

> <b_epik_Metal_Only>
0

> <s_lp_Force_Field>
OPLS_2005

> <r_lp_Energy>
7.0541

> <b_lp_Chiralities_Consistent>
1

> <s_lp_Variant>
AV-unprocessed.smi:1292-1

> <Gold.Version>
5.8.1

> <Gold.Id.Protein>
6NUR|6NUR_protein|mol2

> <Gold.PLP.Fitness>
46.0658

> <Gold.PLP.PLP>
-41.4340

> <Gold.PLP.part.hbond>
-1.0000

> <Gold.PLP.part.metal>
0.0000

> <Gold.PLP.part.buried>
-4.9136

> <Gold.PLP.part.nonpolar>
-36.4128

> <Gold.PLP.part.repulsive>
0.1906

> <Gold.PLP.ligand.clash>
0.0000

> <Gold.PLP.ligand.torsion>
1.0930

> <Gold.PLP.Chemscore.Hbond>
0.9920

> <Gold.PLP.Chemscore.CHOScore>
1.0000

> <Gold.PLP.Chemscore.Metal>
0.0000

> <Gold.Chemscore.Hbonds>
donor molecule, donor type, donor heavy atom, donor atom, acceptor molecule, acceptor atom, score
      P1  H  7989  7998       L1     9  0.99
      L1  C    17    38       P1  8028  1.00

> <Gold.PLP.Chemscore.Internal.Correction>
0.8418

> <Gold.Rescore>
     Score         DG    S(hbond)    S(metal)    S(lipo)     H(rot)  DE(clash)    DE(int)     intcor
     15.43     -17.79       0.93        0.00     114.52       1.64       0.02       2.35       ----

> <Gold.Chemscore.Fitness>
15.4296

> <Gold.Chemscore.DG>
-17.7945

> <Gold.Chemscore.ZeroCoef>
-5.4800

> <Gold.Chemscore.Hbond>
0.9318

> <Gold.Chemscore.Metal>
0.0000

> <Gold.Chemscore.Lipo>
114.5233

> <Gold.Chemscore.Internal_Hbond>
0.0000

> <Gold.Chemscore.DEClash>
0.0174

> <Gold.Chemscore.DEInternal>
2.3475

> <Gold.Chemscore.Rot>
1.6394

> <Gold.Chemscore.Internal.Correction>
   9.000000E+99

> <Gold.Chemscore.Hbonds>
donor molecule, donor type, donor heavy atom, donor atom, acceptor molecule, acceptor atom, score
      P1  H  7989  7998       L1     9  0.93

> <Gold.Chemscore.Hbond.Weighted>
-3.1121

> <Gold.Chemscore.Metal.Weighted>
-0.0000

> <Gold.Chemscore.Lipo.Weighted>
-13.3992

> <Gold.Chemscore.Internal_Hbond.Weighted>
0.0000

> <Gold.Chemscore.DEClash.Weighted>
0.0174

> <Gold.Chemscore.DEInternal.Weighted>
2.3475

> <Gold.Chemscore.Rot.Weighted>
4.1968

> <Gold.Chemscore.Internal.Correction.Weighted>
   9.000000E+99

> <Gold.Protein.RotatedTorsions>
[ 6907 6896 6895 6894 ] final -159.72 input  -60.11 | X-H torsion
[ 7974 7965 7964 7962 ] final -135.64 input  175.53 | X-H torsion
[ 8008 7997 7996 7995 ] final -111.27 input   59.86 | X-H torsion
[ 10167 10162 10161 10158 ] final   92.14 input  -65.29 | X-H torsion
[ 10718 10713 10712 10709 ] final   41.09 input   66.30 | X-H torsion
[ 10763 10752 10751 10750 ] final -162.45 input  -60.55 | X-H torsion
[ 11005 11000 10999 10996 ] final   37.54 input  -57.11 | X-H torsion

> <Gold.Protein.ActiveResidues>
 VAL166  LYS551  ARG553  GLY616  TRP617  ASP618  TYR619  PRO620  LYS621  CYS622 
 ASP623  PHE694  ASN695  SER759  ASP760  ASP761  ALA762  ILE779  LEU786  VAL792 
 PHE793  MET794  SER795  GLU796  ALA797  LYS798  CYS799  TRP800  GLU811  SER814 

> <Gold.Protein.RotatedAtoms>
  151.3380  133.3974  159.2668 H   0  0  0  0  0  0  0  0  0  0  0  0  # atno 6907 bound_to 6896
  150.9901  134.9238  159.7905 H   0  0  0  0  0  0  0  0  0  0  0  0  # atno 6908 bound_to 6896
  152.5244  134.3345  159.9247 H   0  0  0  0  0  0  0  0  0  0  0  0  # atno 6909 bound_to 6896
  144.8997  140.6754  143.5093 H   0  0  0  0  0  0  0  0  0  0  0  0  # atno 7974 bound_to 7965
  154.9872  140.0395  157.2304 H   0  0  0  0  0  0  0  0  0  0  0  0  # atno 8008 bound_to 7997
  154.7661  140.2793  155.6153 H   0  0  0  0  0  0  0  0  0  0  0  0  # atno 8009 bound_to 7997
  156.2913  140.2619  156.2451 H   0  0  0  0  0  0  0  0  0  0  0  0  # atno 8010 bound_to 7997
  139.8306  144.6689  150.9405 H   0  0  0  0  0  0  0  0  0  0  0  0  # atno 10167 bound_to 10162
  157.3896  130.7799  149.7258 H   0  0  0  0  0  0  0  0  0  0  0  0  # atno 10718 bound_to 10713
  154.7213  135.3026  154.9043 H   0  0  0  0  0  0  0  0  0  0  0  0  # atno 10763 bound_to 10752
  153.9914  135.6718  153.4758 H   0  0  0  0  0  0  0  0  0  0  0  0  # atno 10764 bound_to 10752
  153.0836  135.4996  154.8470 H   0  0  0  0  0  0  0  0  0  0  0  0  # atno 10765 bound_to 10752
  140.2215  134.3635  155.8003 H   0  0  0  0  0  0  0  0  0  0  0  0  # atno 11005 bound_to 11000
  145.3639  139.1675  143.4368 LP  0  0  0  0  0  0  0  0  0  0  0  0  # atno 17320 bound_to 7965
  146.3101  140.3704  142.8673 LP  0  0  0  0  0  0  0  0  0  0  0  0  # atno 17321 bound_to 7965
  140.7807  143.4005  151.1158 LP  0  0  0  0  0  0  0  0  0  0  0  0  # atno 17342 bound_to 10162
  139.7659  143.8567  152.3110 LP  0  0  0  0  0  0  0  0  0  0  0  0  # atno 17343 bound_to 10162
  155.9795  130.4039  150.3584 LP  0  0  0  0  0  0  0  0  0  0  0  0  # atno 17370 bound_to 10713
  157.1698  131.0366  151.2801 LP  0  0  0  0  0  0  0  0  0  0  0  0  # atno 17371 bound_to 10713
  141.2223  133.7196  156.8583 LP  0  0  0  0  0  0  0  0  0  0  0  0  # atno 17394 bound_to 11000
  140.1845  134.9010  157.2987 LP  0  0  0  0  0  0  0  0  0  0  0  0  # atno 17395 bound_to 11000

$$$$
