AV-unprocessed.smi:1116|AV-procd|sdf|4809|dock4
  -GOLD-   22720 3363D 1   1.00000     0.00000
 Structure written by MMmdl.
 35 36  0  0  0  0  0  0  0  0  2 V2000
  152.9192  142.9169  162.2117 C   0  0  0  0  0  0  0  0  0  0  0  0
  152.3953  143.0342  160.8214 C   0  0  0  0  0  0  0  0  0  0  0  0
  151.9253  142.0006  160.1179 N   0  0  0  0  0  0  0  0  0  0  0  0
  151.4960  142.3703  158.8392 C   0  0  0  0  0  0  0  0  0  0  0  0
  150.9474  141.3366  157.9037 C   0  0  0  0  0  0  0  0  0  0  0  0
  150.3114  141.9667  156.6531 C   0  0  0  0  0  0  0  0  0  0  0  0
  148.9047  142.2857  156.8644 N   0  0  0  0  0  0  0  0  0  0  0  0
  148.0254  141.5134  157.5205 C   0  0  0  0  0  0  0  0  0  0  0  0
  148.3176  140.4249  158.0163 O   0  0  0  0  0  0  0  0  0  0  0  0
  146.5975  142.0510  157.6277 C   0  0  0  0  0  0  0  0  0  0  0  0
  146.5431  143.4271  158.3169 C   0  0  0  0  0  0  0  0  0  0  0  0
  146.8432  143.3514  159.8285 C   0  0  2  0  0  0  0  0  0  0  0  0
  145.9515  142.4218  160.5002 N   0  5  0  0  0  0  0  0  0  0  0  0
  145.2788  143.0927  161.4648 C   0  0  0  0  0  0  0  0  0  0  0  0
  144.4453  142.6456  162.2495 O   0  0  0  0  0  0  0  0  0  0  0  0
  145.6326  144.3820  161.4788 N   0  0  0  0  0  0  0  0  0  0  0  0
  146.5390  144.6532  160.5453 C   0  0  0  0  0  0  0  0  0  0  0  0
  147.0501  145.7436  160.2939 O   0  0  0  0  0  0  0  0  0  0  0  0
  151.6447  143.7111  158.5854 C   0  0  0  0  0  0  0  0  0  0  0  0
  152.3352  144.5571  159.9427 S   0  0  0  0  0  0  0  0  0  0  0  0
  152.9534  141.8725  162.5237 H   0  0  0  0  0  0  0  0  0  0  0  0
  152.2759  143.4664  162.8990 H   0  0  0  0  0  0  0  0  0  0  0  0
  153.9260  143.3311  162.2668 H   0  0  0  0  0  0  0  0  0  0  0  0
  151.7408  140.6490  157.6084 H   0  0  0  0  0  0  0  0  0  0  0  0
  150.2038  140.7282  158.4203 H   0  0  0  0  0  0  0  0  0  0  0  0
  150.8295  142.8928  156.4019 H   0  0  0  0  0  0  0  0  0  0  0  0
  150.4193  141.3057  155.7915 H   0  0  0  0  0  0  0  0  0  0  0  0
  148.5741  143.1642  156.4914 H   0  0  0  0  0  0  0  0  0  0  0  0
  146.1577  142.1144  156.6313 H   0  0  0  0  0  0  0  0  0  0  0  0
  145.9966  141.3319  158.1851 H   0  0  0  0  0  0  0  0  0  0  0  0
  147.2687  144.0880  157.8396 H   0  0  0  0  0  0  0  0  0  0  0  0
  145.5660  143.8865  158.1534 H   0  0  0  0  0  0  0  0  0  0  0  0
  147.8951  143.1108  159.9889 H   0  0  0  0  0  0  0  0  0  0  0  0
  145.2496  145.0661  162.1141 H   0  0  0  0  0  0  0  0  0  0  0  0
  151.3930  144.2492  157.6834 H   0  0  0  0  0  0  0  0  0  0  0  0
  1  2  1  0  0  0  0
  1 21  1  0  0  0  0
  1 22  1  0  0  0  0
  1 23  1  0  0  0  0
  2 20  1  0  0  0  0
  2  3  2  0  0  0  0
  3  4  1  0  0  0  0
  4  5  1  0  0  0  0
  4 19  2  0  0  0  0
  5  6  1  0  0  0  0
  5 24  1  0  0  0  0
  5 25  1  0  0  0  0
  6  7  1  0  0  0  0
  6 26  1  0  0  0  0
  6 27  1  0  0  0  0
  7  8  1  0  0  0  0
  7 28  1  0  0  0  0
  8  9  2  0  0  0  0
  8 10  1  0  0  0  0
 10 11  1  0  0  0  0
 10 29  1  0  0  0  0
 10 30  1  0  0  0  0
 11 12  1  0  0  0  0
 11 31  1  0  0  0  0
 11 32  1  0  0  0  0
 12 17  1  0  0  0  0
 12 13  1  0  0  0  0
 12 33  1  0  0  0  0
 13 14  1  0  0  0  0
 14 15  2  0  0  0  0
 14 16  1  0  0  0  0
 16 17  1  0  0  0  0
 16 34  1  0  0  0  0
 17 18  2  0  0  0  0
 19 20  1  0  0  0  0
 19 35  1  0  0  0  0
M  CHG  1  13  -1
M  END
> <s_m_source_file>
AV-unprocessed.smi

> <i_m_source_file_index>
1116

> <i_lp_mmshare_version>
43012

> <i_f3d_flags>
0

> <s_epik_input>
W0NIM11jMW5jKFtjSF1zMSlbQ0gyXVtDSDJdW05IXUMoPU8pW0NIMl1bQ0gyXVtDQEBIXTJbTkhdQyg9TylbTkhdQzI9Tw==

> <s_epik_cmdline>
J2VwaWtfcHl0aG9uJywgJy1waCcsICc3LjAnLCAnLXRuJywgJzgnLCAnLW1hJywgJzIwMCcsICctbWV0YWxfYmluZGluZycsICctaW1hZScsICc8aW5maWxlLm1hZT4nLCAnLW9tYWUnLCAnPG91dGZpbGUubWFlPic=

> <r_lp_tautomer_probability>
1

> <r_epik_Ionization_Penalty>
5.7962

> <r_epik_Ionization_Penalty_Charging>
5.79516

> <r_epik_Ionization_Penalty_Neutral>
0.00104588

> <r_epik_State_Penalty>
5.80096

> <r_epik_Charging_Adjusted_Penalty>
11.5961

> <i_epik_Tot_Q>
-1

> <i_epik_Tot_abs_Q>
1

> <r_epik_Metal_State_Penalty>
2.1448

> <b_epik_Metal_Only>
1

> <s_lp_Force_Field>
OPLS_2005

> <r_lp_Energy>
4.59195

> <b_lp_Chiralities_Consistent>
1

> <s_lp_Variant>
AV-unprocessed.smi:1116-3

> <Gold.Version>
5.8.1

> <Gold.Id.Protein>
6NUR|6NUR_protein|mol2

> <Gold.PLP.Fitness>
46.6127

> <Gold.PLP.PLP>
-38.5249

> <Gold.PLP.part.hbond>
-4.5421

> <Gold.PLP.part.metal>
0.0000

> <Gold.PLP.part.buried>
-6.8204

> <Gold.PLP.part.nonpolar>
-25.9520

> <Gold.PLP.part.repulsive>
0.7404

> <Gold.PLP.ligand.clash>
0.0000

> <Gold.PLP.ligand.torsion>
0.4662

> <Gold.PLP.Chemscore.Hbond>
2.9760

> <Gold.PLP.Chemscore.CHOScore>
0.0000

> <Gold.PLP.Chemscore.Metal>
0.0000

> <Gold.Chemscore.Hbonds>
donor molecule, donor type, donor heavy atom, donor atom, acceptor molecule, acceptor atom, score
      L1  H     7    28       P1  8028  1.00
      P1  H  6934  6946       L1    13  2.00

> <Gold.PLP.Chemscore.Internal.Correction>
0.0922

> <Gold.Rescore>
     Score         DG    S(hbond)    S(metal)    S(lipo)     H(rot)  DE(clash)    DE(int)     intcor
      9.85     -13.36       1.85        0.00      75.13       2.77       1.61       1.89       ----

> <Gold.Chemscore.Fitness>
9.8548

> <Gold.Chemscore.DG>
-13.3598

> <Gold.Chemscore.ZeroCoef>
-5.4800

> <Gold.Chemscore.Hbond>
1.8500

> <Gold.Chemscore.Metal>
0.0000

> <Gold.Chemscore.Lipo>
75.1266

> <Gold.Chemscore.Internal_Hbond>
0.0000

> <Gold.Chemscore.DEClash>
1.6121

> <Gold.Chemscore.DEInternal>
1.8930

> <Gold.Chemscore.Rot>
2.7691

> <Gold.Chemscore.Internal.Correction>
   9.000000E+99

> <Gold.Chemscore.Hbonds>
donor molecule, donor type, donor heavy atom, donor atom, acceptor molecule, acceptor atom, score
      L1  H     7    28       P1  8028  0.79
      P1  H  6934  6946       L1    13  0.60

> <Gold.Chemscore.Hbond.Weighted>
-6.1789

> <Gold.Chemscore.Metal.Weighted>
-0.0000

> <Gold.Chemscore.Lipo.Weighted>
-8.7898

> <Gold.Chemscore.Internal_Hbond.Weighted>
0.0000

> <Gold.Chemscore.DEClash.Weighted>
1.6121

> <Gold.Chemscore.DEInternal.Weighted>
1.8930

> <Gold.Chemscore.Rot.Weighted>
7.0889

> <Gold.Chemscore.Internal.Correction.Weighted>
   9.000000E+99

> <Gold.Protein.RotatedTorsions>
[ 6907 6896 6895 6894 ] final   95.72 input  -60.11 | X-H torsion
[ 7974 7965 7964 7962 ] final  135.78 input  175.53 | X-H torsion
[ 8008 7997 7996 7995 ] final  -86.18 input   59.86 | X-H torsion
[ 10167 10162 10161 10158 ] final -153.21 input  -65.29 | X-H torsion
[ 10718 10713 10712 10709 ] final  -20.33 input   66.30 | X-H torsion
[ 10763 10752 10751 10750 ] final -110.77 input  -60.55 | X-H torsion
[ 11005 11000 10999 10996 ] final  -68.58 input  -57.11 | X-H torsion

> <Gold.Protein.ActiveResidues>
 VAL166  LYS551  ARG553  GLY616  TRP617  ASP618  TYR619  PRO620  LYS621  CYS622 
 ASP623  PHE694  ASN695  SER759  ASP760  ASP761  ALA762  ILE779  LEU786  VAL792 
 PHE793  MET794  SER795  GLU796  ALA797  LYS798  CYS799  TRP800  GLU811  SER814 

> <Gold.Protein.RotatedAtoms>
  152.5441  134.0996  159.8311 H   0  0  0  0  0  0  0  0  0  0  0  0  # atno 6907 bound_to 6896
  151.1075  133.5190  159.2614 H   0  0  0  0  0  0  0  0  0  0  0  0  # atno 6908 bound_to 6896
  151.1921  135.0416  159.8891 H   0  0  0  0  0  0  0  0  0  0  0  0  # atno 6909 bound_to 6896
  144.9629  139.4690  143.5470 H   0  0  0  0  0  0  0  0  0  0  0  0  # atno 7974 bound_to 7965
  154.6490  140.0582  156.9933 H   0  0  0  0  0  0  0  0  0  0  0  0  # atno 8008 bound_to 7997
  155.1401  140.3264  155.4435 H   0  0  0  0  0  0  0  0  0  0  0  0  # atno 8009 bound_to 7997
  156.2567  140.1965  156.6517 H   0  0  0  0  0  0  0  0  0  0  0  0  # atno 8010 bound_to 7997
  139.7116  143.9099  152.2470 H   0  0  0  0  0  0  0  0  0  0  0  0  # atno 10167 bound_to 10162
  156.5334  130.4660  149.6535 H   0  0  0  0  0  0  0  0  0  0  0  0  # atno 10718 bound_to 10713
  154.8265  135.4552  154.0936 H   0  0  0  0  0  0  0  0  0  0  0  0  # atno 10763 bound_to 10752
  153.2246  135.6898  153.7967 H   0  0  0  0  0  0  0  0  0  0  0  0  # atno 10764 bound_to 10752
  153.7372  135.3318  155.3273 H   0  0  0  0  0  0  0  0  0  0  0  0  # atno 10765 bound_to 10752
  141.1535  133.6744  156.6468 H   0  0  0  0  0  0  0  0  0  0  0  0  # atno 11005 bound_to 11000
  146.3359  139.8791  142.8827 LP  0  0  0  0  0  0  0  0  0  0  0  0  # atno 17320 bound_to 7965
  145.2673  141.0097  143.3792 LP  0  0  0  0  0  0  0  0  0  0  0  0  # atno 17321 bound_to 7965
  139.8970  144.6933  150.8707 LP  0  0  0  0  0  0  0  0  0  0  0  0  # atno 17342 bound_to 10162
  140.7734  143.3543  151.1953 LP  0  0  0  0  0  0  0  0  0  0  0  0  # atno 17343 bound_to 10162
  156.3038  130.7191  151.2069 LP  0  0  0  0  0  0  0  0  0  0  0  0  # atno 17370 bound_to 10713
  157.7418  131.0499  150.5072 LP  0  0  0  0  0  0  0  0  0  0  0  0  # atno 17371 bound_to 10713
  140.3351  134.7896  157.4355 LP  0  0  0  0  0  0  0  0  0  0  0  0  # atno 17394 bound_to 11000
  140.0984  134.5505  155.8376 LP  0  0  0  0  0  0  0  0  0  0  0  0  # atno 17395 bound_to 11000

$$$$
