AV-unprocessed.smi:332|AV-procd|sdf|2357|dock2
  -GOLD-   2262022273D 1   1.00000     0.00000
 Structure written by MMmdl.
 42 44  0  0  0  0  0  0  0  0  1 V2000
  151.1147  139.4798  154.9617 C   0  0  0  0  0  0  0  0  0  0  0  0
  150.0813  140.4788  155.5067 C   0  0  1  0  0  0  0  0  0  0  0  0
  150.7794  141.6284  156.0792 N   0  0  0  0  0  0  0  0  0  0  0  0
  150.6955  142.0471  157.3513 C   0  0  0  0  0  0  0  0  0  0  0  0
  149.9979  141.4918  158.2014 O   0  0  0  0  0  0  0  0  0  0  0  0
  151.5371  143.2844  157.6976 C   0  0  0  0  0  0  0  0  0  0  0  0
  151.9527  143.3445  159.1093 N   0  0  0  0  0  0  0  0  0  0  0  0
  152.6297  142.2206  159.6236 C   0  0  0  0  0  0  0  0  0  0  0  0
  153.0518  142.1668  160.8967 C   0  0  0  0  0  0  0  0  0  0  0  0
  152.7969  143.3039  161.7487 C   0  0  0  0  0  0  0  0  0  0  0  0
  152.1538  144.3857  161.2661 C   0  0  0  0  0  0  0  0  0  0  0  0
  151.6904  144.4489  159.8750 C   0  0  0  0  0  0  0  0  0  0  0  0
  151.1032  145.4337  159.4259 O   0  0  0  0  0  0  0  0  0  0  0  0
  149.0966  140.9703  154.4196 C   0  0  2  0  0  0  0  0  0  0  0  0
  148.0913  142.0437  154.8983 C   0  0  0  0  0  0  0  0  0  0  0  0
  146.7386  141.4966  154.4061 C   0  0  2  0  0  0  0  0  0  0  0  0
  146.3241  140.3076  155.2922 C   0  0  0  0  0  0  0  0  0  0  0  0
  147.2914  139.1983  154.8413 C   0  0  0  0  0  0  0  0  0  0  0  0
  148.1618  139.9100  153.7849 C   0  0  1  0  0  0  0  0  0  0  0  0
  147.1260  140.8012  153.1061 C   0  0  0  0  0  0  0  0  0  0  0  0
  150.6336  138.5789  154.5809 H   0  0  0  0  0  0  0  0  0  0  0  0
  151.8098  139.1687  155.7423 H   0  0  0  0  0  0  0  0  0  0  0  0
  151.6989  139.9150  154.1501 H   0  0  0  0  0  0  0  0  0  0  0  0
  149.5118  139.9858  156.2951 H   0  0  0  0  0  0  0  0  0  0  0  0
  151.3772  142.1485  155.4535 H   0  0  0  0  0  0  0  0  0  0  0  0
  152.4100  143.3080  157.0429 H   0  0  0  0  0  0  0  0  0  0  0  0
  150.9642  144.1760  157.4378 H   0  0  0  0  0  0  0  0  0  0  0  0
  152.7869  141.4157  158.9201 H   0  0  0  0  0  0  0  0  0  0  0  0
  153.5715  141.2977  161.2727 H   0  0  0  0  0  0  0  0  0  0  0  0
  153.1250  143.2881  162.7776 H   0  0  0  0  0  0  0  0  0  0  0  0
  151.9738  145.2280  161.9180 H   0  0  0  0  0  0  0  0  0  0  0  0
  149.6886  141.4029  153.6106 H   0  0  0  0  0  0  0  0  0  0  0  0
  148.0983  142.1844  155.9802 H   0  0  0  0  0  0  0  0  0  0  0  0
  148.3147  143.0079  154.4401 H   0  0  0  0  0  0  0  0  0  0  0  0
  145.9663  142.2604  154.3107 H   0  0  0  0  0  0  0  0  0  0  0  0
  146.4143  140.5318  156.3558 H   0  0  0  0  0  0  0  0  0  0  0  0
  145.2909  140.0167  155.0980 H   0  0  0  0  0  0  0  0  0  0  0  0
  147.8639  138.7736  155.6647 H   0  0  0  0  0  0  0  0  0  0  0  0
  146.7353  138.3798  154.3823 H   0  0  0  0  0  0  0  0  0  0  0  0
  148.6745  139.2244  153.1098 H   0  0  0  0  0  0  0  0  0  0  0  0
  146.3047  140.2445  152.6512 H   0  0  0  0  0  0  0  0  0  0  0  0
  147.5526  141.4782  152.3637 H   0  0  0  0  0  0  0  0  0  0  0  0
  1  2  1  0  0  0  0
  1 21  1  0  0  0  0
  1 22  1  0  0  0  0
  1 23  1  0  0  0  0
  2  3  1  0  0  0  0
  2 14  1  0  0  0  0
  2 24  1  0  0  0  0
  3  4  1  0  0  0  0
  3 25  1  0  0  0  0
  4  5  2  0  0  0  0
  4  6  1  0  0  0  0
  6  7  1  0  0  0  0
  6 26  1  0  0  0  0
  6 27  1  0  0  0  0
  7 12  1  0  0  0  0
  7  8  1  0  0  0  0
  8  9  2  0  0  0  0
  8 28  1  0  0  0  0
  9 10  1  0  0  0  0
  9 29  1  0  0  0  0
 10 11  2  0  0  0  0
 10 30  1  0  0  0  0
 11 12  1  0  0  0  0
 11 31  1  0  0  0  0
 12 13  2  0  0  0  0
 14 19  1  0  0  0  0
 14 15  1  0  0  0  0
 14 32  1  0  0  0  0
 15 16  1  0  0  0  0
 15 33  1  0  0  0  0
 15 34  1  0  0  0  0
 16 20  1  0  0  0  0
 16 17  1  0  0  0  0
 16 35  1  0  0  0  0
 17 18  1  0  0  0  0
 17 36  1  0  0  0  0
 17 37  1  0  0  0  0
 18 19  1  0  0  0  0
 18 38  1  0  0  0  0
 18 39  1  0  0  0  0
 19 20  1  0  0  0  0
 19 40  1  0  0  0  0
 20 41  1  0  0  0  0
 20 42  1  0  0  0  0
M  END
> <s_m_source_file>
AV-unprocessed.smi

> <i_m_source_file_index>
332

> <i_lp_mmshare_version>
43012

> <i_f3d_flags>
0

> <s_epik_input>
W0NIMl0xW0NIMl1bQ0BIXShbQ0gyXTIpW0NAQEhdKFtDSDJdW0NAQEhdMTIpW0NASF0oW0NIM10pW05IXUMoPU8pW0NIMl1uM1tjSF1bY0hdW2NIXVtjSF1jMz1P

> <s_epik_cmdline>
J2VwaWtfcHl0aG9uJywgJy1waCcsICc3LjAnLCAnLXRuJywgJzgnLCAnLW1hJywgJzIwMCcsICctbWV0YWxfYmluZGluZycsICctaW1hZScsICc8aW5maWxlLm1hZT4nLCAnLW9tYWUnLCAnPG91dGZpbGUubWFlPic=

> <r_lp_tautomer_probability>
1

> <r_epik_Ionization_Penalty>
4.05802e-07

> <r_epik_Ionization_Penalty_Charging>
3.84175e-07

> <r_epik_Ionization_Penalty_Neutral>
2.16269e-08

> <r_epik_State_Penalty>
-0

> <r_epik_Charging_Adjusted_Penalty>
3.84175e-07

> <i_epik_Tot_Q>
0

> <i_epik_Tot_abs_Q>
0

> <r_epik_Metal_State_Penalty>
-0

> <b_epik_Metal_Only>
0

> <s_lp_Force_Field>
OPLS_2005

> <r_lp_Energy>
60.6372

> <b_lp_Chiralities_Consistent>
1

> <s_lp_Variant>
AV-unprocessed.smi:332-6

> <Gold.Version>
5.8.1

> <Gold.Id.Protein>
6NUR|6NUR_protein|mol2

> <Gold.PLP.Fitness>
43.6514

> <Gold.PLP.PLP>
-44.5111

> <Gold.PLP.part.hbond>
-0.3877

> <Gold.PLP.part.metal>
0.0000

> <Gold.PLP.part.buried>
-2.1587

> <Gold.PLP.part.nonpolar>
-41.7457

> <Gold.PLP.part.repulsive>
0.3334

> <Gold.PLP.ligand.clash>
0.0000

> <Gold.PLP.ligand.torsion>
0.4383

> <Gold.PLP.Chemscore.Hbond>
0.0000

> <Gold.PLP.Chemscore.CHOScore>
0.0000

> <Gold.PLP.Chemscore.Metal>
0.0000

> <Gold.PLP.Chemscore.Internal.Correction>
0.0169

> <Gold.Rescore>
     Score         DG    S(hbond)    S(metal)    S(lipo)     H(rot)  DE(clash)    DE(int)     intcor
     13.41     -14.06       0.00        0.00     107.01       1.54       0.26       0.39       ----

> <Gold.Chemscore.Fitness>
13.4093

> <Gold.Chemscore.DG>
-14.0584

> <Gold.Chemscore.ZeroCoef>
-5.4800

> <Gold.Chemscore.Hbond>
0.0000

> <Gold.Chemscore.Metal>
0.0000

> <Gold.Chemscore.Lipo>
107.0113

> <Gold.Chemscore.Internal_Hbond>
0.0000

> <Gold.Chemscore.DEClash>
0.2583

> <Gold.Chemscore.DEInternal>
0.3908

> <Gold.Chemscore.Rot>
1.5398

> <Gold.Chemscore.Internal.Correction>
   9.000000E+99

> <Gold.Chemscore.Hbond.Weighted>
-0.0000

> <Gold.Chemscore.Metal.Weighted>
-0.0000

> <Gold.Chemscore.Lipo.Weighted>
-12.5203

> <Gold.Chemscore.Internal_Hbond.Weighted>
0.0000

> <Gold.Chemscore.DEClash.Weighted>
0.2583

> <Gold.Chemscore.DEInternal.Weighted>
0.3908

> <Gold.Chemscore.Rot.Weighted>
3.9419

> <Gold.Chemscore.Internal.Correction.Weighted>
   9.000000E+99

> <Gold.Protein.RotatedTorsions>
[ 6907 6896 6895 6894 ] final    8.73 input  -60.11 | X-H torsion
[ 7974 7965 7964 7962 ] final -176.07 input  175.53 | X-H torsion
[ 8008 7997 7996 7995 ] final  165.19 input   59.86 | X-H torsion
[ 10167 10162 10161 10158 ] final   17.29 input  -65.29 | X-H torsion
[ 10718 10713 10712 10709 ] final  122.39 input   66.30 | X-H torsion
[ 10763 10752 10751 10750 ] final   91.24 input  -60.55 | X-H torsion
[ 11005 11000 10999 10996 ] final  -51.98 input  -57.11 | X-H torsion

> <Gold.Protein.ActiveResidues>
 VAL166  LYS551  ARG553  GLY616  TRP617  ASP618  TYR619  PRO620  LYS621  CYS622 
 ASP623  PHE694  ASN695  SER759  ASP760  ASP761  ALA762  ILE779  LEU786  VAL792 
 PHE793  MET794  SER795  GLU796  ALA797  LYS798  CYS799  TRP800  GLU811  SER814 

> <Gold.Protein.RotatedAtoms>
  151.7107  135.0913  160.0266 H   0  0  0  0  0  0  0  0  0  0  0  0  # atno 6907 bound_to 6896
  152.3663  133.6357  159.6061 H   0  0  0  0  0  0  0  0  0  0  0  0  # atno 6908 bound_to 6896
  150.7640  133.9259  159.3453 H   0  0  0  0  0  0  0  0  0  0  0  0  # atno 6909 bound_to 6896
  144.7127  140.1225  143.6404 H   0  0  0  0  0  0  0  0  0  0  0  0  # atno 7974 bound_to 7965
  156.1820  140.1676  156.8256 H   0  0  0  0  0  0  0  0  0  0  0  0  # atno 8008 bound_to 7997
  154.5371  140.0744  156.8479 H   0  0  0  0  0  0  0  0  0  0  0  0  # atno 8009 bound_to 7997
  155.3289  140.3378  155.4242 H   0  0  0  0  0  0  0  0  0  0  0  0  # atno 8010 bound_to 7997
  140.5736  143.9114  150.6732 H   0  0  0  0  0  0  0  0  0  0  0  0  # atno 10167 bound_to 10162
  157.5746  131.1080  150.8304 H   0  0  0  0  0  0  0  0  0  0  0  0  # atno 10718 bound_to 10713
  153.2062  135.4404  155.0325 H   0  0  0  0  0  0  0  0  0  0  0  0  # atno 10763 bound_to 10752
  154.8174  135.3322  154.7138 H   0  0  0  0  0  0  0  0  0  0  0  0  # atno 10764 bound_to 10752
  153.7579  135.6993  153.4987 H   0  0  0  0  0  0  0  0  0  0  0  0  # atno 10765 bound_to 10752
  141.0900  133.6634  156.3956 H   0  0  0  0  0  0  0  0  0  0  0  0  # atno 11005 bound_to 11000
  145.9358  139.2636  143.1298 LP  0  0  0  0  0  0  0  0  0  0  0  0  # atno 17320 bound_to 7965
  145.9475  140.8934  143.0276 LP  0  0  0  0  0  0  0  0  0  0  0  0  # atno 17321 bound_to 7965
  140.2596  143.3533  152.1334 LP  0  0  0  0  0  0  0  0  0  0  0  0  # atno 17342 bound_to 10162
  139.5131  144.6926  151.5717 LP  0  0  0  0  0  0  0  0  0  0  0  0  # atno 17343 bound_to 10162
  156.8766  130.5165  149.5293 LP  0  0  0  0  0  0  0  0  0  0  0  0  # atno 17370 bound_to 10713
  156.0790  130.5805  150.9528 LP  0  0  0  0  0  0  0  0  0  0  0  0  # atno 17371 bound_to 10713
  140.5275  134.6245  157.5339 LP  0  0  0  0  0  0  0  0  0  0  0  0  # atno 17394 bound_to 11000
  139.9724  134.7271  156.0015 LP  0  0  0  0  0  0  0  0  0  0  0  0  # atno 17395 bound_to 11000

$$$$
