AV-unprocessed.smi:37|AV-procd|sdf|321|dock5
  -GOLD-   2262016143D 1   1.00000     0.00000
 Structure written by MMmdl.
 43 44  0  0  0  0  0  0  0  0  2 V2000
  146.3175  135.1798  162.7876 C   0  0  0  0  0  0  0  0  0  0  0  0
  147.6163  134.8483  162.0399 C   0  0  0  0  0  0  0  0  0  0  0  0
  147.7681  135.6487  160.7478 C   0  0  0  0  0  0  0  0  0  0  0  0
  147.7912  136.8795  160.7539 O   0  0  0  0  0  0  0  0  0  0  0  0
  147.8460  134.8656  159.6618 O   0  0  0  0  0  0  0  0  0  0  0  0
  147.9644  135.4484  158.3754 C   0  0  0  0  0  0  0  0  0  0  0  0
  148.6471  134.4508  157.4305 C   0  0  2  0  0  0  0  0  0  0  0  0
  150.0694  134.5492  157.5308 O   0  0  0  0  0  0  0  0  0  0  0  0
  150.6610  134.5007  156.2620 C   0  0  2  0  0  0  0  0  0  0  0  0
  151.1934  135.8723  155.8894 N   0  0  0  0  0  0  0  0  0  0  0  0
  150.6801  136.5873  154.8188 C   0  0  0  0  0  0  0  0  0  0  0  0
  151.1635  137.8029  154.4913 C   0  0  0  0  0  0  0  0  0  0  0  0
  150.6443  138.4695  153.4461 F   0  0  0  0  0  0  0  0  0  0  0  0
  152.2475  138.3867  155.2782 C   0  0  0  0  0  0  0  0  0  0  0  0
  152.6902  139.4920  154.9696 O   0  0  0  0  0  0  0  0  0  0  0  0
  152.7251  137.6689  156.3354 N   0  5  0  0  0  0  0  0  0  0  0  0
  152.2379  136.4387  156.6716 C   0  0  0  0  0  0  0  0  0  0  0  0
  152.6632  135.7853  157.6244 O   0  0  0  0  0  0  0  0  0  0  0  0
  149.5634  134.0726  155.2827 C   0  0  1  0  0  0  0  0  0  0  0  0
  149.4858  132.0784  155.2320 Br  0  0  0  0  0  0  0  0  0  0  0  0
  148.3263  134.6504  155.9452 C   0  0  1  0  0  0  0  0  0  0  0  0
  147.1534  133.9643  155.5224 O   0  0  0  0  0  0  0  0  0  0  0  0
  146.6552  134.1541  154.2882 C   0  0  0  0  0  0  0  0  0  0  0  0
  146.7457  135.1891  153.6254 O   0  0  0  0  0  0  0  0  0  0  0  0
  145.9261  132.9130  153.7707 C   0  0  0  0  0  0  0  0  0  0  0  0
  146.5415  132.3291  152.4904 C   0  0  0  0  0  0  0  0  0  0  0  0
  146.2144  134.5515  163.6723 H   0  0  0  0  0  0  0  0  0  0  0  0
  145.4428  135.0116  162.1586 H   0  0  0  0  0  0  0  0  0  0  0  0
  146.3007  136.2184  163.1197 H   0  0  0  0  0  0  0  0  0  0  0  0
  148.4767  135.0472  162.6793 H   0  0  0  0  0  0  0  0  0  0  0  0
  147.6412  133.7853  161.7988 H   0  0  0  0  0  0  0  0  0  0  0  0
  146.9845  135.7348  157.9918 H   0  0  0  0  0  0  0  0  0  0  0  0
  148.5657  136.3548  158.4554 H   0  0  0  0  0  0  0  0  0  0  0  0
  148.3936  133.4321  157.7286 H   0  0  0  0  0  0  0  0  0  0  0  0
  151.5362  133.8489  156.2718 H   0  0  0  0  0  0  0  0  0  0  0  0
  149.8767  136.1834  154.2244 H   0  0  0  0  0  0  0  0  0  0  0  0
  149.7302  134.4341  154.2680 H   0  0  0  0  0  0  0  0  0  0  0  0
  148.2833  135.7168  155.7172 H   0  0  0  0  0  0  0  0  0  0  0  0
  145.9292  132.1586  154.5577 H   0  0  0  0  0  0  0  0  0  0  0  0
  144.8836  133.1750  153.5889 H   0  0  0  0  0  0  0  0  0  0  0  0
  145.9913  131.4448  152.1692 H   0  0  0  0  0  0  0  0  0  0  0  0
  147.5794  132.0324  152.6450 H   0  0  0  0  0  0  0  0  0  0  0  0
  146.5129  133.0499  151.6725 H   0  0  0  0  0  0  0  0  0  0  0  0
  1  2  1  0  0  0  0
  1 27  1  0  0  0  0
  1 28  1  0  0  0  0
  1 29  1  0  0  0  0
  2  3  1  0  0  0  0
  2 30  1  0  0  0  0
  2 31  1  0  0  0  0
  3  4  2  0  0  0  0
  3  5  1  0  0  0  0
  5  6  1  0  0  0  0
  6  7  1  0  0  0  0
  6 32  1  0  0  0  0
  6 33  1  0  0  0  0
  7 21  1  0  0  0  0
  7  8  1  0  0  0  0
  7 34  1  0  0  0  0
  8  9  1  0  0  0  0
  9 10  1  0  0  0  0
  9 19  1  0  0  0  0
  9 35  1  0  0  0  0
 10 17  1  0  0  0  0
 10 11  1  0  0  0  0
 11 12  2  0  0  0  0
 11 36  1  0  0  0  0
 12 13  1  0  0  0  0
 12 14  1  0  0  0  0
 14 15  2  0  0  0  0
 14 16  1  0  0  0  0
 16 17  1  0  0  0  0
 17 18  2  0  0  0  0
 19 20  1  0  0  0  0
 19 21  1  0  0  0  0
 19 37  1  0  0  0  0
 21 22  1  0  0  0  0
 21 38  1  0  0  0  0
 22 23  1  0  0  0  0
 23 24  2  0  0  0  0
 23 25  1  0  0  0  0
 25 26  1  0  0  0  0
 25 39  1  0  0  0  0
 25 40  1  0  0  0  0
 26 41  1  0  0  0  0
 26 42  1  0  0  0  0
 26 43  1  0  0  0  0
M  CHG  1  16  -1
M  END
> <s_m_source_file>
AV-unprocessed.smi

> <i_m_source_file_index>
37

> <i_lp_mmshare_version>
43012

> <i_f3d_flags>
0

> <s_epik_input>
W0NIM11bQ0gyXUMoPU8pT1tDSDJdW0NAQEhdMU9bQ0BASF0objJbY0hdYyhGKWMoPU8pW25IXWMyPU8pW0NAQEhdKEJyKVtDQEhdMU9DKD1PKVtDSDJdW0NIM10=

> <s_epik_cmdline>
J2VwaWtfcHl0aG9uJywgJy1waCcsICc3LjAnLCAnLXRuJywgJzgnLCAnLW1hJywgJzIwMCcsICctbWV0YWxfYmluZGluZycsICctaW1hZScsICc8aW5maWxlLm1hZT4nLCAnLW9tYWUnLCAnPG91dGZpbGUubWFlPic=

> <r_epik_Ionization_Penalty>
1.08158

> <r_epik_Ionization_Penalty_Charging>
9.05154e-09

> <r_epik_Ionization_Penalty_Neutral>
1.08158

> <r_epik_State_Penalty>
1.13706

> <r_epik_Charging_Adjusted_Penalty>
1.13706

> <i_epik_Tot_Q>
-1

> <i_epik_Tot_abs_Q>
1

> <r_epik_Metal_State_Penalty>
0.00343535

> <b_epik_Metal_Only>
0

> <s_epik_Chemistry_Notes>
This compound has an ester and may undergo hydrolysis at high or low pH. This compound contains an acetal/aminal-like group ( X-CH(R)-Y where X, Y are N, S, or O) that may be acid/base labile, releasing an aldehyde.

> <s_lp_Force_Field>
OPLS_2005

> <r_lp_Energy>
31.9514

> <b_lp_Chiralities_Consistent>
1

> <s_lp_Variant>
AV-unprocessed.smi:37-19

> <Gold.Version>
5.8.1

> <Gold.Id.Protein>
6NUR|6NUR_protein|mol2

> <Gold.PLP.Fitness>
44.9120

> <Gold.PLP.PLP>
-32.0362

> <Gold.PLP.part.hbond>
-5.8343

> <Gold.PLP.part.metal>
0.0000

> <Gold.PLP.part.buried>
-2.7910

> <Gold.PLP.part.nonpolar>
-23.9092

> <Gold.PLP.part.repulsive>
1.0148

> <Gold.PLP.ligand.clash>
0.0000

> <Gold.PLP.ligand.torsion>
0.8752

> <Gold.PLP.Chemscore.Hbond>
3.9803

> <Gold.PLP.Chemscore.CHOScore>
0.8585

> <Gold.PLP.Chemscore.Metal>
0.0000

> <Gold.Chemscore.Hbonds>
donor molecule, donor type, donor heavy atom, donor atom, acceptor molecule, acceptor atom, score
      P1  H  6896  6907       L1     8  0.83
      P1  H  6931  6943       L1     4  0.61
      P1  H  6934  6947       L1     4  0.46
      P1  H  7989  7998       L1    15  0.27
      P1  H  7997  8008       L1    15  0.78
      L1  C    11    36       P1  7948  1.00

> <Gold.PLP.Chemscore.Internal.Correction>
0.1098

> <Gold.Rescore>
     Score         DG    S(hbond)    S(metal)    S(lipo)     H(rot)  DE(clash)    DE(int)     intcor
     13.50     -16.04       3.87        0.00      51.32       3.27       0.36       2.18       ----

> <Gold.Chemscore.Fitness>
13.4992

> <Gold.Chemscore.DG>
-16.0405

> <Gold.Chemscore.ZeroCoef>
-5.4800

> <Gold.Chemscore.Hbond>
3.8680

> <Gold.Chemscore.Metal>
0.0000

> <Gold.Chemscore.Lipo>
51.3235

> <Gold.Chemscore.Internal_Hbond>
0.0000

> <Gold.Chemscore.DEClash>
0.3584

> <Gold.Chemscore.DEInternal>
2.1829

> <Gold.Chemscore.Rot>
3.2669

> <Gold.Chemscore.Internal.Correction>
   9.000000E+99

> <Gold.Chemscore.Hbonds>
donor molecule, donor type, donor heavy atom, donor atom, acceptor molecule, acceptor atom, score
      P1  H  6896  6907       L1     8  0.63
      P1  H  6931  6943       L1     4  0.58
      P1  H  6934  6947       L1     4  0.45
      P1  H  7989  7998       L1    15  0.27
      P1  H  7997  8008       L1    15  0.75

> <Gold.Chemscore.Hbond.Weighted>
-12.9190

> <Gold.Chemscore.Metal.Weighted>
-0.0000

> <Gold.Chemscore.Lipo.Weighted>
-6.0049

> <Gold.Chemscore.Internal_Hbond.Weighted>
0.0000

> <Gold.Chemscore.DEClash.Weighted>
0.3584

> <Gold.Chemscore.DEInternal.Weighted>
2.1829

> <Gold.Chemscore.Rot.Weighted>
8.3634

> <Gold.Chemscore.Internal.Correction.Weighted>
   9.000000E+99

> <Gold.Protein.RotatedTorsions>
[ 6907 6896 6895 6894 ] final  -97.18 input  -60.11 | X-H torsion
[ 7974 7965 7964 7962 ] final  159.33 input  175.53 | X-H torsion
[ 8008 7997 7996 7995 ] final   -9.75 input   59.86 | X-H torsion
[ 10167 10162 10161 10158 ] final  135.98 input  -65.29 | X-H torsion
[ 10718 10713 10712 10709 ] final  137.27 input   66.30 | X-H torsion
[ 10763 10752 10751 10750 ] final  117.05 input  -60.55 | X-H torsion
[ 11005 11000 10999 10996 ] final  -53.65 input  -57.11 | X-H torsion

> <Gold.Protein.ActiveResidues>
 VAL166  LYS551  ARG553  GLY616  TRP617  ASP618  TYR619  PRO620  LYS621  CYS622 
 ASP623  PHE694  ASN695  SER759  ASP760  ASP761  ALA762  ILE779  LEU786  VAL792 
 PHE793  MET794  SER795  GLU796  ALA797  LYS798  CYS799  TRP800  GLU811  SER814 

> <Gold.Protein.RotatedAtoms>
  150.7009  134.1389  159.4097 H   0  0  0  0  0  0  0  0  0  0  0  0  # atno 6907 bound_to 6896
  151.9374  135.0227  160.0543 H   0  0  0  0  0  0  0  0  0  0  0  0  # atno 6908 bound_to 6896
  152.2123  133.4885  159.5154 H   0  0  0  0  0  0  0  0  0  0  0  0  # atno 6909 bound_to 6896
  144.7796  139.7603  143.6265 H   0  0  0  0  0  0  0  0  0  0  0  0  # atno 7974 bound_to 7965
  154.5617  140.2347  155.8325 H   0  0  0  0  0  0  0  0  0  0  0  0  # atno 8008 bound_to 7997
  156.2035  140.3046  155.9536 H   0  0  0  0  0  0  0  0  0  0  0  0  # atno 8009 bound_to 7997
  155.2876  140.0425  157.3011 H   0  0  0  0  0  0  0  0  0  0  0  0  # atno 8010 bound_to 7997
  139.5197  144.6489  151.5361 H   0  0  0  0  0  0  0  0  0  0  0  0  # atno 10167 bound_to 10162
  157.4378  131.1055  151.0177 H   0  0  0  0  0  0  0  0  0  0  0  0  # atno 10718 bound_to 10713
  153.5465  135.3548  155.2741 H   0  0  0  0  0  0  0  0  0  0  0  0  # atno 10763 bound_to 10752
  154.8712  135.4103  154.2985 H   0  0  0  0  0  0  0  0  0  0  0  0  # atno 10764 bound_to 10752
  153.3703  135.7064  153.6711 H   0  0  0  0  0  0  0  0  0  0  0  0  # atno 10765 bound_to 10752
  141.0986  133.6621  156.4204 H   0  0  0  0  0  0  0  0  0  0  0  0  # atno 11005 bound_to 11000
  146.1996  139.5283  142.9752 LP  0  0  0  0  0  0  0  0  0  0  0  0  # atno 17320 bound_to 7965
  145.6088  141.0343  143.1978 LP  0  0  0  0  0  0  0  0  0  0  0  0  # atno 17321 bound_to 7965
  140.6285  143.9122  150.6585 LP  0  0  0  0  0  0  0  0  0  0  0  0  # atno 17342 bound_to 10162
  140.2419  143.3658  152.1480 LP  0  0  0  0  0  0  0  0  0  0  0  0  # atno 17343 bound_to 10162
  157.1051  130.5998  149.5469 LP  0  0  0  0  0  0  0  0  0  0  0  0  # atno 17370 bound_to 10713
  155.9937  130.4999  150.7392 LP  0  0  0  0  0  0  0  0  0  0  0  0  # atno 17371 bound_to 10713
  140.5077  134.6425  157.5272 LP  0  0  0  0  0  0  0  0  0  0  0  0  # atno 17394 bound_to 11000
  139.9831  134.7105  155.9823 LP  0  0  0  0  0  0  0  0  0  0  0  0  # atno 17395 bound_to 11000

$$$$
