AV-unprocessed.smi:1610|AV-procd|sdf|6470|dock5
  -GOLD-   22720 7123D 1   1.00000     0.00000
 Structure written by MMmdl.
 44 45  0  0  0  0  0  0  0  0  1 V2000
  143.7856  136.8341  152.5819 C   0  0  0  0  0  0  0  0  0  0  0  0
  145.1704  135.6249  152.5203 S   0  0  0  0  0  0  0  0  0  0  0  0
  145.0230  134.6781  153.6364 O   0  0  0  0  0  0  0  0  0  0  0  0
  145.2937  135.1338  151.1397 O   0  0  0  0  0  0  0  0  0  0  0  0
  146.5515  136.6075  152.8408 N   0  0  0  0  0  0  0  0  0  0  0  0
  146.4186  137.9090  153.4979 C   0  0  0  0  0  0  0  0  0  0  0  0
  146.9314  139.0302  152.5712 C   0  0  0  0  0  0  0  0  0  0  0  0
  146.9582  140.3814  153.3090 C   0  0  0  0  0  0  0  0  0  0  0  0
  147.7807  140.2462  154.5246 N   0  0  0  0  0  0  0  0  0  0  0  0
  149.0301  140.7436  154.7089 C   0  0  0  0  0  0  0  0  0  0  0  0
  149.7508  141.1174  153.7822 O   0  0  0  0  0  0  0  0  0  0  0  0
  149.4435  140.7708  155.9875 N   0  0  0  0  0  0  0  0  0  0  0  0
  150.7460  141.2457  156.4393 C   0  0  0  0  0  0  0  0  0  0  0  0
  150.8840  141.1453  157.9669 C   0  0  0  0  0  0  0  0  0  0  0  0
  151.3089  142.4605  158.5888 C   0  0  0  0  0  0  0  0  0  0  0  0
  152.4276  142.5264  159.4446 C   0  0  0  0  0  0  0  0  0  0  0  0
  152.7835  143.7702  160.0007 C   0  0  0  0  0  0  0  0  0  0  0  0
  152.0026  144.8976  159.6767 C   0  0  0  0  0  0  0  0  0  0  0  0
  150.9285  144.8460  158.8596 N   0  0  0  0  0  0  0  0  0  0  0  0
  150.5941  143.6494  158.3303 C   0  0  0  0  0  0  0  0  0  0  0  0
  147.1750  139.3036  155.4747 C   0  0  0  0  0  0  0  0  0  0  0  0
  147.1633  137.8980  154.8474 C   0  0  0  0  0  0  0  0  0  0  0  0
  142.8488  136.3207  152.3661 H   0  0  0  0  0  0  0  0  0  0  0  0
  143.9489  137.6149  151.8396 H   0  0  0  0  0  0  0  0  0  0  0  0
  143.7298  137.2804  153.5744 H   0  0  0  0  0  0  0  0  0  0  0  0
  147.3001  136.5318  152.1524 H   0  0  0  0  0  0  0  0  0  0  0  0
  145.3628  138.0926  153.7017 H   0  0  0  0  0  0  0  0  0  0  0  0
  147.9371  138.7932  152.2205 H   0  0  0  0  0  0  0  0  0  0  0  0
  146.3017  139.1024  151.6838 H   0  0  0  0  0  0  0  0  0  0  0  0
  147.2956  141.1636  152.6292 H   0  0  0  0  0  0  0  0  0  0  0  0
  145.9449  140.6668  153.5949 H   0  0  0  0  0  0  0  0  0  0  0  0
  148.8077  140.4376  156.6974 H   0  0  0  0  0  0  0  0  0  0  0  0
  151.5131  140.6405  155.9555 H   0  0  0  0  0  0  0  0  0  0  0  0
  150.9048  142.2728  156.1062 H   0  0  0  0  0  0  0  0  0  0  0  0
  149.9382  140.8365  158.4143 H   0  0  0  0  0  0  0  0  0  0  0  0
  151.6126  140.3764  158.2274 H   0  0  0  0  0  0  0  0  0  0  0  0
  153.0025  141.6408  159.6727 H   0  0  0  0  0  0  0  0  0  0  0  0
  153.6340  143.8582  160.6604 H   0  0  0  0  0  0  0  0  0  0  0  0
  152.2471  145.8666  160.0858 H   0  0  0  0  0  0  0  0  0  0  0  0
  149.7294  143.6406  157.6832 H   0  0  0  0  0  0  0  0  0  0  0  0
  147.6931  139.2794  156.4343 H   0  0  0  0  0  0  0  0  0  0  0  0
  146.1560  139.6211  155.6998 H   0  0  0  0  0  0  0  0  0  0  0  0
  146.6936  137.1882  155.5294 H   0  0  0  0  0  0  0  0  0  0  0  0
  148.1906  137.5587  154.7046 H   0  0  0  0  0  0  0  0  0  0  0  0
  1  2  1  0  0  0  0
  1 23  1  0  0  0  0
  1 24  1  0  0  0  0
  1 25  1  0  0  0  0
  2  3  2  0  0  0  0
  2  4  2  0  0  0  0
  2  5  1  0  0  0  0
  5  6  1  0  0  0  0
  5 26  1  0  0  0  0
  6 22  1  0  0  0  0
  6  7  1  0  0  0  0
  6 27  1  0  0  0  0
  7  8  1  0  0  0  0
  7 28  1  0  0  0  0
  7 29  1  0  0  0  0
  8  9  1  0  0  0  0
  8 30  1  0  0  0  0
  8 31  1  0  0  0  0
  9 10  1  0  0  0  0
  9 21  1  0  0  0  0
 10 11  2  0  0  0  0
 10 12  1  0  0  0  0
 12 13  1  0  0  0  0
 12 32  1  0  0  0  0
 13 14  1  0  0  0  0
 13 33  1  0  0  0  0
 13 34  1  0  0  0  0
 14 15  1  0  0  0  0
 14 35  1  0  0  0  0
 14 36  1  0  0  0  0
 15 20  1  0  0  0  0
 15 16  2  0  0  0  0
 16 17  1  0  0  0  0
 16 37  1  0  0  0  0
 17 18  2  0  0  0  0
 17 38  1  0  0  0  0
 18 19  1  0  0  0  0
 18 39  1  0  0  0  0
 19 20  2  0  0  0  0
 20 40  1  0  0  0  0
 21 22  1  0  0  0  0
 21 41  1  0  0  0  0
 21 42  1  0  0  0  0
 22 43  1  0  0  0  0
 22 44  1  0  0  0  0
M  END
> <s_m_source_file>
AV-unprocessed.smi

> <i_m_source_file_index>
1610

> <i_lp_mmshare_version>
43012

> <i_f3d_flags>
0

> <s_epik_input>
W0NIM11TKD1PKSg9TylbTkhdW0NIXTFbQ0gyXVtDSDJdTihbQ0gyXVtDSDJdMSlDKD1PKVtOSF1bQ0gyXVtDSDJdYzJbY0hdW2NIXVtjSF1uW2NIXTI=

> <s_epik_cmdline>
J2VwaWtfcHl0aG9uJywgJy1waCcsICc3LjAnLCAnLXRuJywgJzgnLCAnLW1hJywgJzIwMCcsICctbWV0YWxfYmluZGluZycsICctaW1hZScsICc8aW5maWxlLm1hZT4nLCAnLW9tYWUnLCAnPG91dGZpbGUubWFlPic=

> <r_epik_Ionization_Penalty>
0.0145188

> <r_epik_Ionization_Penalty_Charging>
0

> <r_epik_Ionization_Penalty_Neutral>
0.0145188

> <r_epik_State_Penalty>
0.0113046

> <r_epik_Charging_Adjusted_Penalty>
0.0113046

> <i_epik_Tot_Q>
0

> <i_epik_Tot_abs_Q>
0

> <r_epik_Metal_State_Penalty>
0.0179141

> <b_epik_Metal_Only>
0

> <s_lp_Force_Field>
OPLS_2005

> <r_lp_Energy>
22.3117

> <b_lp_Chiralities_Consistent>
1

> <s_lp_Variant>
AV-unprocessed.smi:1610-1

> <Gold.Version>
5.8.1

> <Gold.Id.Protein>
6NUR|6NUR_protein|mol2

> <Gold.PLP.Fitness>
42.8828

> <Gold.PLP.PLP>
-34.5500

> <Gold.PLP.part.hbond>
-2.8534

> <Gold.PLP.part.metal>
0.0000

> <Gold.PLP.part.buried>
-5.0620

> <Gold.PLP.part.nonpolar>
-29.6741

> <Gold.PLP.part.repulsive>
2.5799

> <Gold.PLP.ligand.clash>
0.0031

> <Gold.PLP.ligand.torsion>
1.2264

> <Gold.PLP.Chemscore.Hbond>
2.2320

> <Gold.PLP.Chemscore.CHOScore>
1.0000

> <Gold.PLP.Chemscore.Metal>
0.0000

> <Gold.Chemscore.Hbonds>
donor molecule, donor type, donor heavy atom, donor atom, acceptor molecule, acceptor atom, score
      L1  H     5    26       P1  7948  0.98
      P1  H  7989  7998       L1    11  0.32
      P1  H  8011  8017       L1    11  0.88
      L1  C    20    40       P1  8028  1.00

> <Gold.PLP.Chemscore.Internal.Correction>
1.0928

> <Gold.Rescore>
     Score         DG    S(hbond)    S(metal)    S(lipo)     H(rot)  DE(clash)    DE(int)     intcor
     16.89     -19.40       2.22        0.00      93.42       1.73       1.33       1.17       ----

> <Gold.Chemscore.Fitness>
16.8943

> <Gold.Chemscore.DG>
-19.3962

> <Gold.Chemscore.ZeroCoef>
-5.4800

> <Gold.Chemscore.Hbond>
2.2180

> <Gold.Chemscore.Metal>
0.0000

> <Gold.Chemscore.Lipo>
93.4247

> <Gold.Chemscore.Internal_Hbond>
0.0000

> <Gold.Chemscore.DEClash>
1.3294

> <Gold.Chemscore.DEInternal>
1.1726

> <Gold.Chemscore.Rot>
1.7276

> <Gold.Chemscore.Internal.Correction>
   9.000000E+99

> <Gold.Chemscore.Hbonds>
donor molecule, donor type, donor heavy atom, donor atom, acceptor molecule, acceptor atom, score
      L1  H     5    26       P1  7948  0.93
      P1  H  7989  7998       L1    11  0.32
      P1  H  8011  8017       L1    11  0.86

> <Gold.Chemscore.Hbond.Weighted>
-7.4082

> <Gold.Chemscore.Metal.Weighted>
-0.0000

> <Gold.Chemscore.Lipo.Weighted>
-10.9307

> <Gold.Chemscore.Internal_Hbond.Weighted>
0.0000

> <Gold.Chemscore.DEClash.Weighted>
1.3294

> <Gold.Chemscore.DEInternal.Weighted>
1.1726

> <Gold.Chemscore.Rot.Weighted>
4.4226

> <Gold.Chemscore.Internal.Correction.Weighted>
   9.000000E+99

> <Gold.Protein.RotatedTorsions>
[ 6907 6896 6895 6894 ] final  -95.84 input  -60.11 | X-H torsion
[ 7974 7965 7964 7962 ] final   57.71 input  175.53 | X-H torsion
[ 8008 7997 7996 7995 ] final -112.17 input   59.86 | X-H torsion
[ 10167 10162 10161 10158 ] final  -35.43 input  -65.29 | X-H torsion
[ 10718 10713 10712 10709 ] final  -89.32 input   66.30 | X-H torsion
[ 10763 10752 10751 10750 ] final   12.08 input  -60.55 | X-H torsion
[ 11005 11000 10999 10996 ] final  -51.52 input  -57.11 | X-H torsion

> <Gold.Protein.ActiveResidues>
 VAL166  LYS551  ARG553  GLY616  TRP617  ASP618  TYR619  PRO620  LYS621  CYS622 
 ASP623  PHE694  ASN695  SER759  ASP760  ASP761  ALA762  ILE779  LEU786  VAL792 
 PHE793  MET794  SER795  GLU796  ALA797  LYS798  CYS799  TRP800  GLU811  SER814 

> <Gold.Protein.RotatedAtoms>
  150.6973  134.1595  159.4170 H   0  0  0  0  0  0  0  0  0  0  0  0  # atno 6907 bound_to 6896
  151.9576  135.0137  160.0555 H   0  0  0  0  0  0  0  0  0  0  0  0  # atno 6908 bound_to 6896
  152.1955  133.4768  159.5067 H   0  0  0  0  0  0  0  0  0  0  0  0  # atno 6909 bound_to 6896
  145.9261  139.3769  143.0449 H   0  0  0  0  0  0  0  0  0  0  0  0  # atno 7974 bound_to 7965
  155.0010  140.0394  157.2360 H   0  0  0  0  0  0  0  0  0  0  0  0  # atno 8008 bound_to 7997
  154.7543  140.2773  155.6243 H   0  0  0  0  0  0  0  0  0  0  0  0  # atno 8009 bound_to 7997
  156.2891  140.2641  156.2305 H   0  0  0  0  0  0  0  0  0  0  0  0  # atno 8010 bound_to 7997
  140.7165  143.3478  151.2219 H   0  0  0  0  0  0  0  0  0  0  0  0  # atno 10167 bound_to 10162
  155.9984  130.4868  150.5153 H   0  0  0  0  0  0  0  0  0  0  0  0  # atno 10718 bound_to 10713
  153.1860  135.6835  153.8415 H   0  0  0  0  0  0  0  0  0  0  0  0  # atno 10763 bound_to 10752
  153.7731  135.3193  155.3356 H   0  0  0  0  0  0  0  0  0  0  0  0  # atno 10764 bound_to 10752
  154.8088  135.4731  154.0559 H   0  0  0  0  0  0  0  0  0  0  0  0  # atno 10765 bound_to 10752
  141.0875  133.6639  156.3889 H   0  0  0  0  0  0  0  0  0  0  0  0  # atno 11005 bound_to 11000
  145.8487  140.9541  143.0761 LP  0  0  0  0  0  0  0  0  0  0  0  0  # atno 17320 bound_to 7965
  144.6759  140.0379  143.7481 LP  0  0  0  0  0  0  0  0  0  0  0  0  # atno 17321 bound_to 7965
  139.7001  143.9546  152.2901 LP  0  0  0  0  0  0  0  0  0  0  0  0  # atno 17342 bound_to 10162
  139.9237  144.6784  150.8435 LP  0  0  0  0  0  0  0  0  0  0  0  0  # atno 17343 bound_to 10162
  157.3121  131.0666  151.1993 LP  0  0  0  0  0  0  0  0  0  0  0  0  # atno 17370 bound_to 10713
  157.2935  130.6808  149.6126 LP  0  0  0  0  0  0  0  0  0  0  0  0  # atno 17371 bound_to 10713
  140.5329  134.6195  157.5355 LP  0  0  0  0  0  0  0  0  0  0  0  0  # atno 17394 bound_to 11000
  139.9695  134.7316  156.0069 LP  0  0  0  0  0  0  0  0  0  0  0  0  # atno 17395 bound_to 11000

$$$$
