AV-unprocessed.smi:2712|AV-procd|sdf|10475|dock5
  -GOLD-   2272014513D 1   1.00000     0.00000
 Structure written by MMmdl.
 52 53  0  0  0  0  0  0  0  0  1 V2000
  147.9357  133.2986  152.8693 C   0  0  0  0  0  0  0  0  0  0  0  0
  148.8218  133.0628  154.0564 C   0  0  0  0  0  0  0  0  0  0  0  0
  149.4698  131.7916  154.3170 C   0  0  0  0  0  0  0  0  0  0  0  0
  150.2517  131.6592  155.4098 C   0  0  0  0  0  0  0  0  0  0  0  0
  150.4637  132.7650  156.3416 C   0  0  0  0  0  0  0  0  0  0  0  0
  151.1684  132.6753  157.3468 O   0  0  0  0  0  0  0  0  0  0  0  0
  149.8023  133.9094  155.9954 N   0  0  0  0  0  0  0  0  0  0  0  0
  149.8790  135.1188  156.8279 C   0  0  0  0  0  0  0  0  0  0  0  0
  150.6577  136.2696  156.1725 C   0  0  0  0  0  0  0  0  0  0  0  0
  151.8898  136.2885  156.1740 O   0  0  0  0  0  0  0  0  0  0  0  0
  149.9112  137.2363  155.6160 N   0  0  0  0  0  0  0  0  0  0  0  0
  150.4266  138.4272  154.9427 C   0  0  1  0  0  0  0  0  0  0  0  0
  149.2671  139.4176  154.7276 C   0  0  0  0  0  0  0  0  0  0  0  0
  149.7052  140.8494  154.3848 C   0  0  0  0  0  0  0  0  0  0  0  0
  149.9224  141.7310  155.6298 C   0  0  0  0  0  0  0  0  0  0  0  0
  151.2037  141.4484  156.4639 C   0  0  1  0  0  0  0  0  0  0  0  0
  151.3825  142.4308  157.6809 C   0  0  0  0  0  0  0  0  0  0  0  0
  151.6489  143.8796  157.2171 C   0  0  0  0  0  0  0  0  0  0  0  0
  152.5548  141.9881  158.5872 C   0  0  0  0  0  0  0  0  0  0  0  0
  150.1214  142.4258  158.5779 C   0  0  0  0  0  0  0  0  0  0  0  0
  151.3068  139.9494  156.8680 C   0  0  0  0  0  0  0  0  0  0  0  0
  151.6429  139.0123  155.6942 C   0  0  0  0  0  0  0  0  0  0  0  0
  149.0024  134.0485  154.8728 N   0  0  0  0  0  0  0  0  0  0  0  0
  147.9100  132.4264  152.2159 H   0  0  0  0  0  0  0  0  0  0  0  0
  148.2899  134.1456  152.2810 H   0  0  0  0  0  0  0  0  0  0  0  0
  146.9136  133.5099  153.1856 H   0  0  0  0  0  0  0  0  0  0  0  0
  149.3219  130.9639  153.6392 H   0  0  0  0  0  0  0  0  0  0  0  0
  150.7323  130.7115  155.6036 H   0  0  0  0  0  0  0  0  0  0  0  0
  148.8784  135.4711  157.0843 H   0  0  0  0  0  0  0  0  0  0  0  0
  150.3553  134.8792  157.7807 H   0  0  0  0  0  0  0  0  0  0  0  0
  148.9071  137.1401  155.6597 H   0  0  0  0  0  0  0  0  0  0  0  0
  150.7787  138.1247  153.9546 H   0  0  0  0  0  0  0  0  0  0  0  0
  148.6441  139.0353  153.9179 H   0  0  0  0  0  0  0  0  0  0  0  0
  148.6161  139.4421  155.6030 H   0  0  0  0  0  0  0  0  0  0  0  0
  150.5843  140.8514  153.7394 H   0  0  0  0  0  0  0  0  0  0  0  0
  148.9092  141.3070  153.7963 H   0  0  0  0  0  0  0  0  0  0  0  0
  149.9537  142.7551  155.2613 H   0  0  0  0  0  0  0  0  0  0  0  0
  149.0382  141.6719  156.2637 H   0  0  0  0  0  0  0  0  0  0  0  0
  152.0433  141.6533  155.7980 H   0  0  0  0  0  0  0  0  0  0  0  0
  151.7808  144.5455  158.0706 H   0  0  0  0  0  0  0  0  0  0  0  0
  150.8223  144.2782  156.6292 H   0  0  0  0  0  0  0  0  0  0  0  0
  152.5519  143.9551  156.6120 H   0  0  0  0  0  0  0  0  0  0  0  0
  153.5229  142.1208  158.1045 H   0  0  0  0  0  0  0  0  0  0  0  0
  152.4623  140.9405  158.8758 H   0  0  0  0  0  0  0  0  0  0  0  0
  152.5926  142.5750  159.5058 H   0  0  0  0  0  0  0  0  0  0  0  0
  150.2868  142.9904  159.4963 H   0  0  0  0  0  0  0  0  0  0  0  0
  149.8424  141.4124  158.8690 H   0  0  0  0  0  0  0  0  0  0  0  0
  149.2579  142.8841  158.0988 H   0  0  0  0  0  0  0  0  0  0  0  0
  152.1073  139.8143  157.5904 H   0  0  0  0  0  0  0  0  0  0  0  0
  150.4027  139.6160  157.3783 H   0  0  0  0  0  0  0  0  0  0  0  0
  152.2621  138.1938  156.0637 H   0  0  0  0  0  0  0  0  0  0  0  0
  152.2863  139.5358  154.9866 H   0  0  0  0  0  0  0  0  0  0  0  0
  1  2  1  0  0  0  0
  1 24  1  0  0  0  0
  1 25  1  0  0  0  0
  1 26  1  0  0  0  0
  2 23  2  0  0  0  0
  2  3  1  0  0  0  0
  3  4  2  0  0  0  0
  3 27  1  0  0  0  0
  4  5  1  0  0  0  0
  4 28  1  0  0  0  0
  5  6  2  0  0  0  0
  5  7  1  0  0  0  0
  7  8  1  0  0  0  0
  7 23  1  0  0  0  0
  8  9  1  0  0  0  0
  8 29  1  0  0  0  0
  8 30  1  0  0  0  0
  9 10  2  0  0  0  0
  9 11  1  0  0  0  0
 11 12  1  0  0  0  0
 11 31  1  0  0  0  0
 12 22  1  0  0  0  0
 12 13  1  0  0  0  0
 12 32  1  0  0  0  0
 13 14  1  0  0  0  0
 13 33  1  0  0  0  0
 13 34  1  0  0  0  0
 14 15  1  0  0  0  0
 14 35  1  0  0  0  0
 14 36  1  0  0  0  0
 15 16  1  0  0  0  0
 15 37  1  0  0  0  0
 15 38  1  0  0  0  0
 16 17  1  0  0  0  0
 16 21  1  0  0  0  0
 16 39  1  0  0  0  0
 17 18  1  0  0  0  0
 17 19  1  0  0  0  0
 17 20  1  0  0  0  0
 18 40  1  0  0  0  0
 18 41  1  0  0  0  0
 18 42  1  0  0  0  0
 19 43  1  0  0  0  0
 19 44  1  0  0  0  0
 19 45  1  0  0  0  0
 20 46  1  0  0  0  0
 20 47  1  0  0  0  0
 20 48  1  0  0  0  0
 21 22  1  0  0  0  0
 21 49  1  0  0  0  0
 21 50  1  0  0  0  0
 22 51  1  0  0  0  0
 22 52  1  0  0  0  0
M  END
> <s_m_source_file>
AV-unprocessed.smi

> <i_m_source_file_index>
2712

> <i_lp_mmshare_version>
43012

> <i_f3d_flags>
0

> <s_epik_input>
W0NIM11jMVtjSF1bY0hdYyg9TyluKG4xKVtDSDJdQyg9TylbTkhdW0NAQEhdMltDSDJdW0NIMl1bQ0gyXVtDQEBIXShDKFtDSDNdKShbQ0gzXSlbQ0gzXSlbQ0gyXVtDSDJdMg==

> <s_epik_cmdline>
J2VwaWtfcHl0aG9uJywgJy1waCcsICc3LjAnLCAnLXRuJywgJzgnLCAnLW1hJywgJzIwMCcsICctbWV0YWxfYmluZGluZycsICctaW1hZScsICc8aW5maWxlLm1hZT4nLCAnLW9tYWUnLCAnPG91dGZpbGUubWFlPic=

> <r_lp_tautomer_probability>
1

> <r_epik_Ionization_Penalty>
8.71758e-07

> <r_epik_Ionization_Penalty_Charging>
8.50442e-07

> <r_epik_Ionization_Penalty_Neutral>
2.13165e-08

> <r_epik_State_Penalty>
-0

> <r_epik_Charging_Adjusted_Penalty>
8.50442e-07

> <i_epik_Tot_Q>
0

> <i_epik_Tot_abs_Q>
0

> <r_epik_Metal_State_Penalty>
-0

> <b_epik_Metal_Only>
0

> <s_lp_Force_Field>
OPLS_2005

> <r_lp_Energy>
40.0092

> <b_lp_Chiralities_Consistent>
1

> <s_lp_Variant>
AV-unprocessed.smi:2712-2

> <Gold.Version>
5.8.1

> <Gold.Id.Protein>
6NUR|6NUR_protein|mol2

> <Gold.PLP.Fitness>
43.8464

> <Gold.PLP.PLP>
-39.8301

> <Gold.PLP.part.hbond>
-2.0000

> <Gold.PLP.part.metal>
0.0000

> <Gold.PLP.part.buried>
-2.0557

> <Gold.PLP.part.nonpolar>
-35.4099

> <Gold.PLP.part.repulsive>
0.1301

> <Gold.PLP.ligand.clash>
0.0000

> <Gold.PLP.ligand.torsion>
0.7585

> <Gold.PLP.Chemscore.Hbond>
1.8160

> <Gold.PLP.Chemscore.CHOScore>
0.0000

> <Gold.PLP.Chemscore.Metal>
0.0000

> <Gold.Chemscore.Hbonds>
donor molecule, donor type, donor heavy atom, donor atom, acceptor molecule, acceptor atom, score
      P1  H  6896  6909       L1     6  0.55
      P1  H 10752 10763       L1    10  1.00

> <Gold.PLP.Chemscore.Internal.Correction>
0.0853

> <Gold.Rescore>
     Score         DG    S(hbond)    S(metal)    S(lipo)     H(rot)  DE(clash)    DE(int)     intcor
     17.64     -20.19       1.97        0.00     102.67       1.52       0.13       2.41       ----

> <Gold.Chemscore.Fitness>
17.6411

> <Gold.Chemscore.DG>
-20.1871

> <Gold.Chemscore.ZeroCoef>
-5.4800

> <Gold.Chemscore.Hbond>
1.9691

> <Gold.Chemscore.Metal>
0.0000

> <Gold.Chemscore.Lipo>
102.6656

> <Gold.Chemscore.Internal_Hbond>
0.0000

> <Gold.Chemscore.DEClash>
0.1342

> <Gold.Chemscore.DEInternal>
2.4117

> <Gold.Chemscore.Rot>
1.5162

> <Gold.Chemscore.Internal.Correction>
   9.000000E+99

> <Gold.Chemscore.Hbonds>
donor molecule, donor type, donor heavy atom, donor atom, acceptor molecule, acceptor atom, score
      P1  H  6896  6909       L1     6  0.55
      P1  H 10752 10763       L1    10  1.00

> <Gold.Chemscore.Hbond.Weighted>
-6.5767

> <Gold.Chemscore.Metal.Weighted>
-0.0000

> <Gold.Chemscore.Lipo.Weighted>
-12.0119

> <Gold.Chemscore.Internal_Hbond.Weighted>
0.0000

> <Gold.Chemscore.DEClash.Weighted>
0.1342

> <Gold.Chemscore.DEInternal.Weighted>
2.4117

> <Gold.Chemscore.Rot.Weighted>
3.8814

> <Gold.Chemscore.Internal.Correction.Weighted>
   9.000000E+99

> <Gold.Protein.RotatedTorsions>
[ 6907 6896 6895 6894 ] final  -67.29 input  -60.11 | X-H torsion
[ 7974 7965 7964 7962 ] final -118.03 input  175.53 | X-H torsion
[ 8008 7997 7996 7995 ] final  -28.52 input   59.86 | X-H torsion
[ 10167 10162 10161 10158 ] final  -49.25 input  -65.29 | X-H torsion
[ 10718 10713 10712 10709 ] final  168.15 input   66.30 | X-H torsion
[ 10763 10752 10751 10750 ] final   98.72 input  -60.55 | X-H torsion
[ 11005 11000 10999 10996 ] final  129.51 input  -57.11 | X-H torsion

> <Gold.Protein.ActiveResidues>
 VAL166  LYS551  ARG553  GLY616  TRP617  ASP618  TYR619  PRO620  LYS621  CYS622 
 ASP623  PHE694  ASN695  SER759  ASP760  ASP761  ALA762  ILE779  LEU786  VAL792 
 PHE793  MET794  SER795  GLU796  ALA797  LYS798  CYS799  TRP800  GLU811  SER814 

> <Gold.Protein.RotatedAtoms>
  150.7418  134.5902  159.5983 H   0  0  0  0  0  0  0  0  0  0  0  0  # atno 6907 bound_to 6896
  152.3292  134.7279  160.0303 H   0  0  0  0  0  0  0  0  0  0  0  0  # atno 6908 bound_to 6896
  151.7768  133.3310  159.3497 H   0  0  0  0  0  0  0  0  0  0  0  0  # atno 6909 bound_to 6896
  145.0785  140.8409  143.4053 H   0  0  0  0  0  0  0  0  0  0  0  0  # atno 7974 bound_to 7965
  154.4329  140.1843  156.1102 H   0  0  0  0  0  0  0  0  0  0  0  0  # atno 8008 bound_to 7997
  156.0224  140.3339  155.7027 H   0  0  0  0  0  0  0  0  0  0  0  0  # atno 8009 bound_to 7997
  155.5957  140.0635  157.2737 H   0  0  0  0  0  0  0  0  0  0  0  0  # atno 8010 bound_to 7997
  140.6693  143.2705  151.4189 H   0  0  0  0  0  0  0  0  0  0  0  0  # atno 10167 bound_to 10162
  157.0412  131.0287  151.2712 H   0  0  0  0  0  0  0  0  0  0  0  0  # atno 10718 bound_to 10713
  153.2925  135.4138  155.1180 H   0  0  0  0  0  0  0  0  0  0  0  0  # atno 10763 bound_to 10752
  154.8525  135.3522  154.5962 H   0  0  0  0  0  0  0  0  0  0  0  0  # atno 10764 bound_to 10752
  153.6385  135.7058  153.5308 H   0  0  0  0  0  0  0  0  0  0  0  0  # atno 10765 bound_to 10752
  139.9619  134.9600  156.9158 H   0  0  0  0  0  0  0  0  0  0  0  0  # atno 11005 bound_to 11000
  145.1207  139.2695  143.5590 LP  0  0  0  0  0  0  0  0  0  0  0  0  # atno 17320 bound_to 7965
  146.3530  140.0830  142.8616 LP  0  0  0  0  0  0  0  0  0  0  0  0  # atno 17321 bound_to 7965
  139.5955  144.1407  152.2139 LP  0  0  0  0  0  0  0  0  0  0  0  0  # atno 17342 bound_to 10162
  140.0774  144.5729  150.7147 LP  0  0  0  0  0  0  0  0  0  0  0  0  # atno 17343 bound_to 10162
  157.5103  130.7934  149.7697 LP  0  0  0  0  0  0  0  0  0  0  0  0  # atno 17370 bound_to 10713
  156.0037  130.3866  150.2509 LP  0  0  0  0  0  0  0  0  0  0  0  0  # atno 17371 bound_to 10713
  140.5481  134.0654  155.7361 LP  0  0  0  0  0  0  0  0  0  0  0  0  # atno 17394 bound_to 11000
  141.1297  133.9323  157.2562 LP  0  0  0  0  0  0  0  0  0  0  0  0  # atno 17395 bound_to 11000

$$$$
