AV-unprocessed.smi:38|AV-procd|sdf|344|dock2
  -GOLD-   2262016183D 1   1.00000     0.00000
 Structure written by MMmdl.
 27 28  0  0  0  0  0  0  0  0  2 V2000
  153.0172  135.6299  158.6197 O   0  0  0  0  0  0  0  0  0  0  0  0
  152.7327  136.6180  157.9445 C   0  0  0  0  0  0  0  0  0  0  0  0
  152.6695  136.5874  156.5819 N   0  5  0  0  0  0  0  0  0  0  0  0
  152.3563  137.6857  155.8337 C   0  0  0  0  0  0  0  0  0  0  0  0
  152.3009  137.6684  154.6036 O   0  0  0  0  0  0  0  0  0  0  0  0
  152.0825  138.9146  156.4947 N   0  0  0  0  0  0  0  0  0  0  0  0
  151.7378  140.1298  155.6579 C   0  0  2  0  0  0  0  0  0  0  0  0
  151.2858  141.2923  156.5552 C   0  0  0  0  0  0  0  0  0  0  0  0
  150.0131  141.7532  155.8719 C   0  0  2  0  0  0  0  0  0  0  0  0
  149.1212  142.3355  156.8003 O   0  0  0  0  0  0  0  0  0  0  0  0
  149.4764  140.4496  155.2814 C   0  0  1  0  0  0  0  0  0  0  0  0
  148.4938  140.6588  154.1192 C   0  0  0  0  0  0  0  0  0  0  0  0
  148.4477  139.5051  153.3067 O   0  0  0  0  0  0  0  0  0  0  0  0
  150.6694  139.8339  154.8039 O   0  0  0  0  0  0  0  0  0  0  0  0
  152.1373  138.9741  157.8782 C   0  0  0  0  0  0  0  0  0  0  0  0
  152.4483  137.8864  158.6130 C   0  0  0  0  0  0  0  0  0  0  0  0
  152.4945  137.9752  159.9536 F   0  0  0  0  0  0  0  0  0  0  0  0
  152.6247  140.3435  155.0590 H   0  0  0  0  0  0  0  0  0  0  0  0
  150.2506  142.4643  155.0792 H   0  0  0  0  0  0  0  0  0  0  0  0
  149.0339  139.8408  156.0725 H   0  0  0  0  0  0  0  0  0  0  0  0
  151.0770  140.9216  157.5608 H   0  0  0  0  0  0  0  0  0  0  0  0
  152.0524  142.0652  156.6153 H   0  0  0  0  0  0  0  0  0  0  0  0
  149.1392  143.2733  156.6847 H   0  0  0  0  0  0  0  0  0  0  0  0
  147.4879  140.8258  154.5051 H   0  0  0  0  0  0  0  0  0  0  0  0
  148.7621  141.5326  153.5249 H   0  0  0  0  0  0  0  0  0  0  0  0
  149.1299  139.5685  152.6561 H   0  0  0  0  0  0  0  0  0  0  0  0
  151.9311  139.8982  158.3962 H   0  0  0  0  0  0  0  0  0  0  0  0
  1  2  2  0  0  0  0
  2 16  1  0  0  0  0
  2  3  1  0  0  0  0
  3  4  1  0  0  0  0
  4  5  2  0  0  0  0
  4  6  1  0  0  0  0
  6  7  1  0  0  0  0
  6 15  1  0  0  0  0
  7 18  1  0  0  0  0
  7 14  1  0  0  0  0
  7  8  1  0  0  0  0
  8  9  1  0  0  0  0
  8 21  1  0  0  0  0
  8 22  1  0  0  0  0
  9 19  1  0  0  0  0
  9 10  1  0  0  0  0
  9 11  1  0  0  0  0
 10 23  1  0  0  0  0
 11 20  1  0  0  0  0
 11 12  1  0  0  0  0
 11 14  1  0  0  0  0
 12 13  1  0  0  0  0
 12 24  1  0  0  0  0
 12 25  1  0  0  0  0
 13 26  1  0  0  0  0
 15 16  2  0  0  0  0
 15 27  1  0  0  0  0
 16 17  1  0  0  0  0
M  CHG  1   3  -1
M  END
> <s_m_source_file>
AV-unprocessed.smi

> <i_m_source_file_index>
38

> <i_lp_mmshare_version>
43012

> <i_f3d_flags>
0

> <s_epik_input>
Tz1jMVtuSF1jKD1PKW4oW2NIXWMxRilbQ0BIXTJbQ0gyXVtDQEhdKFtPSF0pW0NASF0oTzIpW0NIMl1bT0hd

> <s_epik_cmdline>
J2VwaWtfcHl0aG9uJywgJy1waCcsICc3LjAnLCAnLXRuJywgJzgnLCAnLW1hJywgJzIwMCcsICctbWV0YWxfYmluZGluZycsICctaW1hZScsICc8aW5maWxlLm1hZT4nLCAnLW9tYWUnLCAnPG91dGZpbGUubWFlPic=

> <r_epik_Ionization_Penalty>
1.68146

> <r_epik_Ionization_Penalty_Charging>
3.4211e-08

> <r_epik_Ionization_Penalty_Neutral>
1.68146

> <r_epik_State_Penalty>
1.78593

> <r_epik_Charging_Adjusted_Penalty>
1.78593

> <i_epik_Tot_Q>
-1

> <i_epik_Tot_abs_Q>
1

> <r_epik_Metal_State_Penalty>
0.0113696

> <b_epik_Metal_Only>
0

> <s_epik_Chemistry_Notes>
This compound contains an acetal/aminal-like group ( X-CH(R)-Y where X, Y are N, S, or O) that may be acid/base labile, releasing an aldehyde.

> <s_lp_Force_Field>
OPLS_2005

> <r_lp_Energy>
37.5177

> <b_lp_Chiralities_Consistent>
1

> <s_lp_Variant>
AV-unprocessed.smi:38-10

> <Gold.Version>
5.8.1

> <Gold.Id.Protein>
6NUR|6NUR_protein|mol2

> <Gold.PLP.Fitness>
40.4482

> <Gold.PLP.PLP>
-26.1116

> <Gold.PLP.part.hbond>
-5.7998

> <Gold.PLP.part.metal>
0.0000

> <Gold.PLP.part.buried>
-3.3874

> <Gold.PLP.part.nonpolar>
-17.0710

> <Gold.PLP.part.repulsive>
0.1263

> <Gold.PLP.ligand.clash>
0.0000

> <Gold.PLP.ligand.torsion>
0.2779

> <Gold.PLP.Chemscore.Hbond>
4.9587

> <Gold.PLP.Chemscore.CHOScore>
0.0000

> <Gold.PLP.Chemscore.Metal>
0.0000

> <Gold.Chemscore.Hbonds>
donor molecule, donor type, donor heavy atom, donor atom, acceptor molecule, acceptor atom, score
      L1  H    10    23       P1  8028  1.00
      L1  H    13    26       P1  7957  0.98
      P1  H  6896  6909       L1     1  0.46
      P1  H  7989  7998       L1    14  0.25
      P1  H 10752 10763       L1     3  1.98
      P1  H 10752 10765       L1     5  0.06

> <Gold.PLP.Chemscore.Internal.Correction>
0.0164

> <Gold.Rescore>
     Score         DG    S(hbond)    S(metal)    S(lipo)     H(rot)  DE(clash)    DE(int)     intcor
     11.52     -13.17       3.27        0.00      35.59       2.88       0.05       1.60       ----

> <Gold.Chemscore.Fitness>
11.5238

> <Gold.Chemscore.DG>
-13.1738

> <Gold.Chemscore.ZeroCoef>
-5.4800

> <Gold.Chemscore.Hbond>
3.2653

> <Gold.Chemscore.Metal>
0.0000

> <Gold.Chemscore.Lipo>
35.5922

> <Gold.Chemscore.Internal_Hbond>
0.0000

> <Gold.Chemscore.DEClash>
0.0494

> <Gold.Chemscore.DEInternal>
1.6005

> <Gold.Chemscore.Rot>
2.8815

> <Gold.Chemscore.Internal.Correction>
   9.000000E+99

> <Gold.Chemscore.Hbonds>
donor molecule, donor type, donor heavy atom, donor atom, acceptor molecule, acceptor atom, score
      L1  H    10    23       P1  8028  0.92
      L1  H    13    26       P1  7957  0.93
      P1  H  6896  6909       L1     1  0.48
      P1  H 10752 10763       L1     3  0.42
      P1  H 10752 10765       L1     5  0.06

> <Gold.Chemscore.Hbond.Weighted>
-10.9060

> <Gold.Chemscore.Metal.Weighted>
-0.0000

> <Gold.Chemscore.Lipo.Weighted>
-4.1643

> <Gold.Chemscore.Internal_Hbond.Weighted>
0.0000

> <Gold.Chemscore.DEClash.Weighted>
0.0494

> <Gold.Chemscore.DEInternal.Weighted>
1.6005

> <Gold.Chemscore.Rot.Weighted>
7.3765

> <Gold.Chemscore.Internal.Correction.Weighted>
   9.000000E+99

> <Gold.Protein.RotatedTorsions>
[ 6907 6896 6895 6894 ] final  173.36 input  -60.11 | X-H torsion
[ 7974 7965 7964 7962 ] final  102.71 input  175.53 | X-H torsion
[ 8008 7997 7996 7995 ] final  -45.32 input   59.86 | X-H torsion
[ 10167 10162 10161 10158 ] final   57.22 input  -65.29 | X-H torsion
[ 10718 10713 10712 10709 ] final  -27.41 input   66.30 | X-H torsion
[ 10763 10752 10751 10750 ] final  117.82 input  -60.55 | X-H torsion
[ 11005 11000 10999 10996 ] final  -95.79 input  -57.11 | X-H torsion

> <Gold.Protein.ActiveResidues>
 VAL166  LYS551  ARG553  GLY616  TRP617  ASP618  TYR619  PRO620  LYS621  CYS622 
 ASP623  PHE694  ASN695  SER759  ASP760  ASP761  ALA762  ILE779  LEU786  VAL792 
 PHE793  MET794  SER795  GLU796  ALA797  LYS798  CYS799  TRP800  GLU811  SER814 

> <Gold.Protein.RotatedAtoms>
  151.7695  133.3340  159.3440 H   0  0  0  0  0  0  0  0  0  0  0  0  # atno 6907 bound_to 6896
  150.7467  134.6032  159.6056 H   0  0  0  0  0  0  0  0  0  0  0  0  # atno 6908 bound_to 6896
  152.3351  134.7211  160.0330 H   0  0  0  0  0  0  0  0  0  0  0  0  # atno 6909 bound_to 6896
  145.3555  139.2429  143.3535 H   0  0  0  0  0  0  0  0  0  0  0  0  # atno 7974 bound_to 7965
  154.4000  140.1399  156.3828 H   0  0  0  0  0  0  0  0  0  0  0  0  # atno 8008 bound_to 7997
  155.7987  140.3476  155.5370 H   0  0  0  0  0  0  0  0  0  0  0  0  # atno 8009 bound_to 7997
  155.8505  140.0941  157.1668 H   0  0  0  0  0  0  0  0  0  0  0  0  # atno 8010 bound_to 7997
  140.2003  144.3994  150.6532 H   0  0  0  0  0  0  0  0  0  0  0  0  # atno 10167 bound_to 10162
  156.4385  130.4459  149.7069 H   0  0  0  0  0  0  0  0  0  0  0  0  # atno 10718 bound_to 10713
  153.5582  135.3526  155.2788 H   0  0  0  0  0  0  0  0  0  0  0  0  # atno 10763 bound_to 10752
  154.8698  135.4130  154.2861 H   0  0  0  0  0  0  0  0  0  0  0  0  # atno 10764 bound_to 10752
  153.3601  135.7059  153.6788 H   0  0  0  0  0  0  0  0  0  0  0  0  # atno 10765 bound_to 10752
  141.1431  133.8051  157.0483 H   0  0  0  0  0  0  0  0  0  0  0  0  # atno 11005 bound_to 11000
  146.2950  140.4179  142.8725 LP  0  0  0  0  0  0  0  0  0  0  0  0  # atno 17320 bound_to 7965
  144.8685  140.7240  143.6062 LP  0  0  0  0  0  0  0  0  0  0  0  0  # atno 17321 bound_to 7965
  140.6395  143.2201  151.6322 LP  0  0  0  0  0  0  0  0  0  0  0  0  # atno 17342 bound_to 10162
  139.5220  144.3177  152.0938 LP  0  0  0  0  0  0  0  0  0  0  0  0  # atno 17343 bound_to 10162
  156.3943  130.7643  151.2646 LP  0  0  0  0  0  0  0  0  0  0  0  0  # atno 17370 bound_to 10713
  157.7507  131.0258  150.3937 LP  0  0  0  0  0  0  0  0  0  0  0  0  # atno 17371 bound_to 10713
  140.0648  134.9735  157.1367 LP  0  0  0  0  0  0  0  0  0  0  0  0  # atno 17394 bound_to 11000
  140.3796  134.2302  155.7172 LP  0  0  0  0  0  0  0  0  0  0  0  0  # atno 17395 bound_to 11000

$$$$
