AV-unprocessed.smi:1728|AV-procd|sdf|6967|dock8
  -GOLD-   22720 8183D 1   1.00000     0.00000
 Structure written by MMmdl.
 46 47  0  0  0  0  0  0  0  0  1 V2000
  152.0313  138.2171  154.1596 C   0  0  0  0  0  0  0  0  0  0  0  0
  150.6405  138.1146  153.8749 O   0  0  0  0  0  0  0  0  0  0  0  0
  149.8034  139.1321  154.2923 C   0  0  0  0  0  0  0  0  0  0  0  0
  150.3633  140.2634  154.7903 N   0  0  0  0  0  0  0  0  0  0  0  0
  149.5489  141.2595  155.1942 C   0  0  0  0  0  0  0  0  0  0  0  0
  148.1463  141.1858  155.1181 C   0  0  0  0  0  0  0  0  0  0  0  0
  147.5629  140.0143  154.6010 C   0  0  0  0  0  0  0  0  0  0  0  0
  148.4039  138.9529  154.1844 C   0  0  0  0  0  0  0  0  0  0  0  0
  147.9322  137.7273  153.6347 N   0  0  0  0  0  0  0  0  0  0  0  0
  146.8139  137.0390  153.9205 C   0  0  0  0  0  0  0  0  0  0  0  0
  145.9650  137.3597  154.7517 O   0  0  0  0  0  0  0  0  0  0  0  0
  146.7342  135.9258  153.1818 N   0  0  0  0  0  0  0  0  0  0  0  0
  145.6345  134.9676  153.2393 C   0  0  0  0  0  0  0  0  0  0  0  0
  145.8501  133.7677  152.2734 C   0  0  0  0  0  0  0  0  0  0  0  0
  144.4724  133.0706  152.1360 C   0  0  0  0  0  0  0  0  0  0  0  0
  146.2088  134.3527  150.8861 C   0  0  0  0  0  0  0  0  0  0  0  0
  146.8789  132.8230  152.7921 N   0  0  0  0  0  0  0  0  0  0  0  0
  146.9030  131.5113  152.1348 C   0  0  0  0  0  0  0  0  0  0  0  0
  147.9013  130.5488  152.8011 C   0  0  0  0  0  0  0  0  0  0  0  0
  149.1994  131.1303  152.8060 O   0  0  0  0  0  0  0  0  0  0  0  0
  149.2316  132.3792  153.4859 C   0  0  0  0  0  0  0  0  0  0  0  0
  148.2462  133.3559  152.8227 C   0  0  0  0  0  0  0  0  0  0  0  0
  152.5447  137.3408  153.7647 H   0  0  0  0  0  0  0  0  0  0  0  0
  152.2189  138.2537  155.2337 H   0  0  0  0  0  0  0  0  0  0  0  0
  152.4704  139.0976  153.6885 H   0  0  0  0  0  0  0  0  0  0  0  0
  150.0296  142.1440  155.5852 H   0  0  0  0  0  0  0  0  0  0  0  0
  147.5315  142.0111  155.4454 H   0  0  0  0  0  0  0  0  0  0  0  0
  146.4884  139.9653  154.5266 H   0  0  0  0  0  0  0  0  0  0  0  0
  148.5532  137.2960  152.9653 H   0  0  0  0  0  0  0  0  0  0  0  0
  147.4726  135.7306  152.5212 H   0  0  0  0  0  0  0  0  0  0  0  0
  145.5323  134.6090  154.2654 H   0  0  0  0  0  0  0  0  0  0  0  0
  144.6998  135.4868  153.0238 H   0  0  0  0  0  0  0  0  0  0  0  0
  143.6793  133.7886  151.9240 H   0  0  0  0  0  0  0  0  0  0  0  0
  144.1949  132.5419  153.0487 H   0  0  0  0  0  0  0  0  0  0  0  0
  144.4530  132.3502  151.3183 H   0  0  0  0  0  0  0  0  0  0  0  0
  145.4328  135.0350  150.5369 H   0  0  0  0  0  0  0  0  0  0  0  0
  146.3101  133.5787  150.1257 H   0  0  0  0  0  0  0  0  0  0  0  0
  147.1389  134.9202  150.9071 H   0  0  0  0  0  0  0  0  0  0  0  0
  145.9212  131.0426  152.1646 H   0  0  0  0  0  0  0  0  0  0  0  0
  147.1706  131.6214  151.0840 H   0  0  0  0  0  0  0  0  0  0  0  0
  147.5936  130.3187  153.8225 H   0  0  0  0  0  0  0  0  0  0  0  0
  147.9367  129.6048  152.2571 H   0  0  0  0  0  0  0  0  0  0  0  0
  148.9832  132.2366  154.5386 H   0  0  0  0  0  0  0  0  0  0  0  0
  150.2447  132.7797  153.4476 H   0  0  0  0  0  0  0  0  0  0  0  0
  148.5906  133.5696  151.8109 H   0  0  0  0  0  0  0  0  0  0  0  0
  148.2878  134.2924  153.3758 H   0  0  0  0  0  0  0  0  0  0  0  0
  1  2  1  0  0  0  0
  1 23  1  0  0  0  0
  1 24  1  0  0  0  0
  1 25  1  0  0  0  0
  2  3  1  0  0  0  0
  3  8  1  0  0  0  0
  3  4  2  0  0  0  0
  4  5  1  0  0  0  0
  5  6  2  0  0  0  0
  5 26  1  0  0  0  0
  6  7  1  0  0  0  0
  6 27  1  0  0  0  0
  7  8  2  0  0  0  0
  7 28  1  0  0  0  0
  8  9  1  0  0  0  0
  9 10  1  0  0  0  0
  9 29  1  0  0  0  0
 10 11  2  0  0  0  0
 10 12  1  0  0  0  0
 12 13  1  0  0  0  0
 12 30  1  0  0  0  0
 13 14  1  0  0  0  0
 13 31  1  0  0  0  0
 13 32  1  0  0  0  0
 14 15  1  0  0  0  0
 14 16  1  0  0  0  0
 14 17  1  0  0  0  0
 15 33  1  0  0  0  0
 15 34  1  0  0  0  0
 15 35  1  0  0  0  0
 16 36  1  0  0  0  0
 16 37  1  0  0  0  0
 16 38  1  0  0  0  0
 17 22  1  0  0  0  0
 17 18  1  0  0  0  0
 18 19  1  0  0  0  0
 18 39  1  0  0  0  0
 18 40  1  0  0  0  0
 19 20  1  0  0  0  0
 19 41  1  0  0  0  0
 19 42  1  0  0  0  0
 20 21  1  0  0  0  0
 21 22  1  0  0  0  0
 21 43  1  0  0  0  0
 21 44  1  0  0  0  0
 22 45  1  0  0  0  0
 22 46  1  0  0  0  0
M  END
> <s_m_source_file>
AV-unprocessed.smi

> <i_m_source_file_index>
1728

> <i_lp_mmshare_version>
43012

> <i_f3d_flags>
0

> <s_epik_input>
W0NIM11PYzFuW2NIXVtjSF1bY0hdYzFbTkhdQyg9TylbTkhdW0NIMl1DKFtDSDNdKShbQ0gzXSlOMltDSDJdW0NIMl1PW0NIMl1bQ0gyXTI=

> <s_epik_cmdline>
J2VwaWtfcHl0aG9uJywgJy1waCcsICc3LjAnLCAnLXRuJywgJzgnLCAnLW1hJywgJzIwMCcsICctbWV0YWxfYmluZGluZycsICctaW1hZScsICc8aW5maWxlLm1hZT4nLCAnLW9tYWUnLCAnPG91dGZpbGUubWFlPic=

> <r_lp_tautomer_probability>
1

> <r_epik_Ionization_Penalty>
0.266086

> <r_epik_Ionization_Penalty_Charging>
0

> <r_epik_Ionization_Penalty_Neutral>
0.266086

> <r_epik_State_Penalty>
0.257924

> <r_epik_Charging_Adjusted_Penalty>
0.257924

> <i_epik_Tot_Q>
0

> <i_epik_Tot_abs_Q>
0

> <r_epik_Metal_State_Penalty>
0.257921

> <b_epik_Metal_Only>
0

> <s_lp_Force_Field>
OPLS_2005

> <r_lp_Energy>
44.4816

> <b_lp_Chiralities_Consistent>
1

> <s_lp_Variant>
AV-unprocessed.smi:1728-1

> <Gold.Version>
5.8.1

> <Gold.Id.Protein>
6NUR|6NUR_protein|mol2

> <Gold.PLP.Fitness>
42.7924

> <Gold.PLP.PLP>
-32.2686

> <Gold.PLP.part.hbond>
-2.9572

> <Gold.PLP.part.metal>
0.0000

> <Gold.PLP.part.buried>
-3.9486

> <Gold.PLP.part.nonpolar>
-26.1078

> <Gold.PLP.part.repulsive>
0.6597

> <Gold.PLP.ligand.clash>
0.0000

> <Gold.PLP.ligand.torsion>
0.6208

> <Gold.PLP.Chemscore.Hbond>
2.9040

> <Gold.PLP.Chemscore.CHOScore>
1.0000

> <Gold.PLP.Chemscore.Metal>
0.0000

> <Gold.Chemscore.Hbonds>
donor molecule, donor type, donor heavy atom, donor atom, acceptor molecule, acceptor atom, score
      L1  H     9    29       P1  7948  1.00
      L1  H    12    30       P1  7948  0.96
      P1  H  7989  7998       L1     4  1.00
      L1  C     5    26       P1  8028  0.26

> <Gold.PLP.Chemscore.Internal.Correction>
0.0534

> <Gold.Rescore>
     Score         DG    S(hbond)    S(metal)    S(lipo)     H(rot)  DE(clash)    DE(int)     intcor
     15.94     -17.70       2.44        0.00      71.97       1.70       0.11       1.66       ----

> <Gold.Chemscore.Fitness>
15.9368

> <Gold.Chemscore.DG>
-17.7002

> <Gold.Chemscore.ZeroCoef>
-5.4800

> <Gold.Chemscore.Hbond>
2.4426

> <Gold.Chemscore.Metal>
0.0000

> <Gold.Chemscore.Lipo>
71.9674

> <Gold.Chemscore.Internal_Hbond>
0.0000

> <Gold.Chemscore.DEClash>
0.1080

> <Gold.Chemscore.DEInternal>
1.6553

> <Gold.Chemscore.Rot>
1.7024

> <Gold.Chemscore.Internal.Correction>
   9.000000E+99

> <Gold.Chemscore.Hbonds>
donor molecule, donor type, donor heavy atom, donor atom, acceptor molecule, acceptor atom, score
      L1  H     9    29       P1  7948  0.96
      L1  H    12    30       P1  7948  0.92
      P1  H  7989  7998       L1     4  0.47

> <Gold.Chemscore.Hbond.Weighted>
-8.1582

> <Gold.Chemscore.Metal.Weighted>
-0.0000

> <Gold.Chemscore.Lipo.Weighted>
-8.4202

> <Gold.Chemscore.Internal_Hbond.Weighted>
0.0000

> <Gold.Chemscore.DEClash.Weighted>
0.1080

> <Gold.Chemscore.DEInternal.Weighted>
1.6553

> <Gold.Chemscore.Rot.Weighted>
4.3583

> <Gold.Chemscore.Internal.Correction.Weighted>
   9.000000E+99

> <Gold.Protein.RotatedTorsions>
[ 6907 6896 6895 6894 ] final  133.71 input  -60.11 | X-H torsion
[ 7974 7965 7964 7962 ] final  138.79 input  175.53 | X-H torsion
[ 8008 7997 7996 7995 ] final  -22.83 input   59.86 | X-H torsion
[ 10167 10162 10161 10158 ] final   94.41 input  -65.29 | X-H torsion
[ 10718 10713 10712 10709 ] final -135.03 input   66.30 | X-H torsion
[ 10763 10752 10751 10750 ] final   37.08 input  -60.55 | X-H torsion
[ 11005 11000 10999 10996 ] final   43.12 input  -57.11 | X-H torsion

> <Gold.Protein.ActiveResidues>
 VAL166  LYS551  ARG553  GLY616  TRP617  ASP618  TYR619  PRO620  LYS621  CYS622 
 ASP623  PHE694  ASN695  SER759  ASP760  ASP761  ALA762  ILE779  LEU786  VAL792 
 PHE793  MET794  SER795  GLU796  ALA797  LYS798  CYS799  TRP800  GLU811  SER814 

> <Gold.Protein.RotatedAtoms>
  152.3191  133.5834  159.5731 H   0  0  0  0  0  0  0  0  0  0  0  0  # atno 6907 bound_to 6896
  150.7362  134.0038  159.3656 H   0  0  0  0  0  0  0  0  0  0  0  0  # atno 6908 bound_to 6896
  151.7924  135.0732  160.0440 H   0  0  0  0  0  0  0  0  0  0  0  0  # atno 6909 bound_to 6896
  144.9339  139.5013  143.5604 H   0  0  0  0  0  0  0  0  0  0  0  0  # atno 7974 bound_to 7965
  154.4621  140.1997  156.0217 H   0  0  0  0  0  0  0  0  0  0  0  0  # atno 8008 bound_to 7997
  156.0859  140.3265  155.7725 H   0  0  0  0  0  0  0  0  0  0  0  0  # atno 8009 bound_to 7997
  155.5036  140.0556  157.2926 H   0  0  0  0  0  0  0  0  0  0  0  0  # atno 8010 bound_to 7997
  139.8086  144.6783  150.9670 H   0  0  0  0  0  0  0  0  0  0  0  0  # atno 10167 bound_to 10162
  156.2618  130.7214  151.1151 H   0  0  0  0  0  0  0  0  0  0  0  0  # atno 10718 bound_to 10713
  153.0051  135.6287  154.2088 H   0  0  0  0  0  0  0  0  0  0  0  0  # atno 10763 bound_to 10752
  154.1832  135.2812  155.3047 H   0  0  0  0  0  0  0  0  0  0  0  0  # atno 10764 bound_to 10752
  154.5818  135.5645  153.7252 H   0  0  0  0  0  0  0  0  0  0  0  0  # atno 10765 bound_to 10752
  140.1674  134.4264  155.8278 H   0  0  0  0  0  0  0  0  0  0  0  0  # atno 11005 bound_to 11000
  146.3258  139.8310  142.8908 LP  0  0  0  0  0  0  0  0  0  0  0  0  # atno 17320 bound_to 7965
  145.3098  141.0216  143.3561 LP  0  0  0  0  0  0  0  0  0  0  0  0  # atno 17321 bound_to 7965
  140.7818  143.4208  151.0845 LP  0  0  0  0  0  0  0  0  0  0  0  0  # atno 17342 bound_to 10162
  139.7876  143.8265  152.3147 LP  0  0  0  0  0  0  0  0  0  0  0  0  # atno 17343 bound_to 10162
  157.7253  131.0654  150.5957 LP  0  0  0  0  0  0  0  0  0  0  0  0  # atno 17370 bound_to 10713
  156.6046  130.4363  149.5883 LP  0  0  0  0  0  0  0  0  0  0  0  0  # atno 17371 bound_to 10713
  141.2215  133.6940  156.7703 LP  0  0  0  0  0  0  0  0  0  0  0  0  # atno 17394 bound_to 11000
  140.2417  134.8608  157.3580 LP  0  0  0  0  0  0  0  0  0  0  0  0  # atno 17395 bound_to 11000

$$$$
