AV-unprocessed.smi:2931|AV-procd|sdf|11244|dock6
  -GOLD-   2272016133D 1   1.00000     0.00000
 Structure written by MMmdl.
 42 43  0  0  0  0  0  0  0  0  2 V2000
  147.0113  133.0084  152.6890 C   0  0  0  0  0  0  0  0  0  0  0  0
  146.6226  134.4089  152.4195 N   0  3  1  0  0  0  0  0  0  0  0  0
  145.7716  134.5376  151.2097 C   0  0  0  0  0  0  0  0  0  0  0  0
  145.4825  136.0143  150.8860 C   0  0  0  0  0  0  0  0  0  0  0  0
  144.8822  136.7493  152.0978 C   0  0  0  0  0  0  0  0  0  0  0  0
  145.7663  136.5688  153.3449 C   0  0  2  0  0  0  0  0  0  0  0  0
  147.0262  137.2893  153.1639 N   0  0  0  0  0  0  0  0  0  0  0  0
  147.3695  138.4228  153.7900 C   0  0  0  0  0  0  0  0  0  0  0  0
  146.6349  139.0327  154.5663 O   0  0  0  0  0  0  0  0  0  0  0  0
  148.6279  138.7817  153.5041 N   0  0  0  0  0  0  0  0  0  0  0  0
  149.3504  139.8841  154.1315 C   0  0  0  0  0  0  0  0  0  0  0  0
  150.5840  139.4198  154.9355 C   0  0  0  0  0  0  0  0  0  0  0  0
  151.0033  140.3877  156.0303 C   0  0  0  0  0  0  0  0  0  0  0  0
  150.5119  141.7103  156.0514 C   0  0  0  0  0  0  0  0  0  0  0  0
  150.9232  142.5631  157.0950 C   0  0  0  0  0  0  0  0  0  0  0  0
  151.7575  142.1771  158.0833 N   0  0  0  0  0  0  0  0  0  0  0  0
  152.2263  140.9106  158.0555 C   0  0  0  0  0  0  0  0  0  0  0  0
  151.8814  139.9795  157.0552 C   0  0  0  0  0  0  0  0  0  0  0  0
  146.0015  135.0620  153.5991 C   0  0  0  0  0  0  0  0  0  0  0  0
  146.1357  132.3911  152.8938 H   0  0  0  0  0  0  0  0  0  0  0  0
  147.6789  132.9524  153.5494 H   0  0  0  0  0  0  0  0  0  0  0  0
  147.5376  132.5847  151.8330 H   0  0  0  0  0  0  0  0  0  0  0  0
  146.2710  134.0700  150.3604 H   0  0  0  0  0  0  0  0  0  0  0  0
  144.8355  133.9983  151.3635 H   0  0  0  0  0  0  0  0  0  0  0  0
  146.4049  136.5059  150.5745 H   0  0  0  0  0  0  0  0  0  0  0  0
  144.8013  136.0817  150.0373 H   0  0  0  0  0  0  0  0  0  0  0  0
  144.7507  137.8081  151.8708 H   0  0  0  0  0  0  0  0  0  0  0  0
  143.8858  136.3544  152.3012 H   0  0  0  0  0  0  0  0  0  0  0  0
  145.2485  137.0004  154.2033 H   0  0  0  0  0  0  0  0  0  0  0  0
  147.7002  136.8737  152.5376 H   0  0  0  0  0  0  0  0  0  0  0  0
  149.1476  138.2167  152.8485 H   0  0  0  0  0  0  0  0  0  0  0  0
  149.6749  140.5473  153.3291 H   0  0  0  0  0  0  0  0  0  0  0  0
  148.6793  140.4688  154.7622 H   0  0  0  0  0  0  0  0  0  0  0  0
  150.3854  138.4456  155.3834 H   0  0  0  0  0  0  0  0  0  0  0  0
  151.4246  139.2692  154.2570 H   0  0  0  0  0  0  0  0  0  0  0  0
  149.8350  142.0653  155.2879 H   0  0  0  0  0  0  0  0  0  0  0  0
  150.5678  143.5817  157.1405 H   0  0  0  0  0  0  0  0  0  0  0  0
  152.8946  140.6299  158.8560 H   0  0  0  0  0  0  0  0  0  0  0  0
  152.2800  138.9757  157.0785 H   0  0  0  0  0  0  0  0  0  0  0  0
  145.0545  134.5702  153.8276 H   0  0  0  0  0  0  0  0  0  0  0  0
  146.6383  134.9199  154.4731 H   0  0  0  0  0  0  0  0  0  0  0  0
  147.4775  134.9124  152.2303 H   0  0  0  0  0  0  0  0  0  0  0  0
  1  2  1  0  0  0  0
  1 20  1  0  0  0  0
  1 21  1  0  0  0  0
  1 22  1  0  0  0  0
  2 19  1  0  0  0  0
  2  3  1  0  0  0  0
  2 42  1  0  0  0  0
  3  4  1  0  0  0  0
  3 23  1  0  0  0  0
  3 24  1  0  0  0  0
  4  5  1  0  0  0  0
  4 25  1  0  0  0  0
  4 26  1  0  0  0  0
  5  6  1  0  0  0  0
  5 27  1  0  0  0  0
  5 28  1  0  0  0  0
  6  7  1  0  0  0  0
  6 19  1  0  0  0  0
  6 29  1  0  0  0  0
  7  8  1  0  0  0  0
  7 30  1  0  0  0  0
  8  9  2  0  0  0  0
  8 10  1  0  0  0  0
 10 11  1  0  0  0  0
 10 31  1  0  0  0  0
 11 12  1  0  0  0  0
 11 32  1  0  0  0  0
 11 33  1  0  0  0  0
 12 13  1  0  0  0  0
 12 34  1  0  0  0  0
 12 35  1  0  0  0  0
 13 18  1  0  0  0  0
 13 14  2  0  0  0  0
 14 15  1  0  0  0  0
 14 36  1  0  0  0  0
 15 16  2  0  0  0  0
 15 37  1  0  0  0  0
 16 17  1  0  0  0  0
 17 18  2  0  0  0  0
 17 38  1  0  0  0  0
 18 39  1  0  0  0  0
 19 40  1  0  0  0  0
 19 41  1  0  0  0  0
M  CHG  1   2   1
M  END
> <s_m_source_file>
AV-unprocessed.smi

> <i_m_source_file_index>
2931

> <i_lp_mmshare_version>
43012

> <i_f3d_flags>
0

> <s_epik_input>
W0NIM11OMVtDSDJdW0NIMl1bQ0gyXVtDQEhdKFtDSDJdMSlbTkhdQyg9TylbTkhdW0NIMl1bQ0gyXWMyW2NIXVtjSF1uW2NIXVtjSF0y

> <s_epik_cmdline>
J2VwaWtfcHl0aG9uJywgJy1waCcsICc3LjAnLCAnLXRuJywgJzgnLCAnLW1hJywgJzIwMCcsICctbWV0YWxfYmluZGluZycsICctaW1hZScsICc8aW5maWxlLm1hZT4nLCAnLW9tYWUnLCAnPG91dGZpbGUubWFlPic=

> <r_epik_Ionization_Penalty>
0.0573876

> <r_epik_Ionization_Penalty_Charging>
0.00229982

> <r_epik_Ionization_Penalty_Neutral>
0.0550878

> <r_epik_State_Penalty>
0.0473925

> <r_epik_Charging_Adjusted_Penalty>
0.0496923

> <i_epik_Tot_Q>
1

> <i_epik_Tot_abs_Q>
1

> <r_epik_Metal_State_Penalty>
0.0433388

> <b_epik_Metal_Only>
0

> <s_lp_Force_Field>
OPLS_2005

> <r_lp_Energy>
20.0995

> <b_lp_Chiralities_Consistent>
1

> <s_lp_Variant>
AV-unprocessed.smi:2931-3

> <Gold.Version>
5.8.1

> <Gold.Id.Protein>
6NUR|6NUR_protein|mol2

> <Gold.PLP.Fitness>
43.8487

> <Gold.PLP.PLP>
-31.1992

> <Gold.PLP.part.hbond>
-3.9690

> <Gold.PLP.part.metal>
0.0000

> <Gold.PLP.part.buried>
-1.7455

> <Gold.PLP.part.nonpolar>
-25.9667

> <Gold.PLP.part.repulsive>
0.2034

> <Gold.PLP.ligand.clash>
0.0000

> <Gold.PLP.ligand.torsion>
0.4552

> <Gold.PLP.Chemscore.Hbond>
3.5136

> <Gold.PLP.Chemscore.CHOScore>
1.0000

> <Gold.PLP.Chemscore.Metal>
0.0000

> <Gold.Chemscore.Hbonds>
donor molecule, donor type, donor heavy atom, donor atom, acceptor molecule, acceptor atom, score
      L1  H     2    42       P1  7948  2.00
      L1  H     7    30       P1  7948  1.00
      L1  H    10    31       P1  7948  0.47
      L1  C    15    37       P1  8028  0.99

> <Gold.PLP.Chemscore.Internal.Correction>
0.0191

> <Gold.Rescore>
     Score         DG    S(hbond)    S(metal)    S(lipo)     H(rot)  DE(clash)    DE(int)     intcor
     17.55     -18.34       2.37        0.00      76.40       1.56       0.37       0.43       ----

> <Gold.Chemscore.Fitness>
17.5515

> <Gold.Chemscore.DG>
-18.3422

> <Gold.Chemscore.ZeroCoef>
-5.4800

> <Gold.Chemscore.Hbond>
2.3699

> <Gold.Chemscore.Metal>
0.0000

> <Gold.Chemscore.Lipo>
76.3963

> <Gold.Chemscore.Internal_Hbond>
0.0000

> <Gold.Chemscore.DEClash>
0.3652

> <Gold.Chemscore.DEInternal>
0.4255

> <Gold.Chemscore.Rot>
1.5592

> <Gold.Chemscore.Internal.Correction>
   9.000000E+99

> <Gold.Chemscore.Hbonds>
donor molecule, donor type, donor heavy atom, donor atom, acceptor molecule, acceptor atom, score
      L1  H     2    42       P1  7948  0.92
      L1  H     7    30       P1  7948  0.96
      L1  H    10    31       P1  7948  0.46

> <Gold.Chemscore.Hbond.Weighted>
-7.9154

> <Gold.Chemscore.Metal.Weighted>
-0.0000

> <Gold.Chemscore.Lipo.Weighted>
-8.9384

> <Gold.Chemscore.Internal_Hbond.Weighted>
0.0000

> <Gold.Chemscore.DEClash.Weighted>
0.3652

> <Gold.Chemscore.DEInternal.Weighted>
0.4255

> <Gold.Chemscore.Rot.Weighted>
3.9915

> <Gold.Chemscore.Internal.Correction.Weighted>
   9.000000E+99

> <Gold.Protein.RotatedTorsions>
[ 6907 6896 6895 6894 ] final  -33.59 input  -60.11 | X-H torsion
[ 7974 7965 7964 7962 ] final  122.60 input  175.53 | X-H torsion
[ 8008 7997 7996 7995 ] final  147.42 input   59.86 | X-H torsion
[ 10167 10162 10161 10158 ] final  -46.04 input  -65.29 | X-H torsion
[ 10718 10713 10712 10709 ] final   80.24 input   66.30 | X-H torsion
[ 10763 10752 10751 10750 ] final   54.34 input  -60.55 | X-H torsion
[ 11005 11000 10999 10996 ] final  142.78 input  -57.11 | X-H torsion

> <Gold.Protein.ActiveResidues>
 VAL166  LYS551  ARG553  GLY616  TRP617  ASP618  TYR619  PRO620  LYS621  CYS622 
 ASP623  PHE694  ASN695  SER759  ASP760  ASP761  ALA762  ILE779  LEU786  VAL792 
 PHE793  MET794  SER795  GLU796  ALA797  LYS798  CYS799  TRP800  GLU811  SER814 

> <Gold.Protein.RotatedAtoms>
  151.0636  134.9753  159.8272 H   0  0  0  0  0  0  0  0  0  0  0  0  # atno 6907 bound_to 6896
  152.5399  134.2386  159.8863 H   0  0  0  0  0  0  0  0  0  0  0  0  # atno 6908 bound_to 6896
  151.2407  133.4358  159.2641 H   0  0  0  0  0  0  0  0  0  0  0  0  # atno 6909 bound_to 6896
  145.1056  139.3488  143.4789 H   0  0  0  0  0  0  0  0  0  0  0  0  # atno 7974 bound_to 7965
  156.2825  140.2156  156.5535 H   0  0  0  0  0  0  0  0  0  0  0  0  # atno 8008 bound_to 7997
  154.7271  140.0498  157.0715 H   0  0  0  0  0  0  0  0  0  0  0  0  # atno 8009 bound_to 7997
  155.0402  140.3145  155.4730 H   0  0  0  0  0  0  0  0  0  0  0  0  # atno 8010 bound_to 7997
  140.6834  143.2850  151.3725 H   0  0  0  0  0  0  0  0  0  0  0  0  # atno 10167 bound_to 10162
  157.6800  130.9950  150.2050 H   0  0  0  0  0  0  0  0  0  0  0  0  # atno 10718 bound_to 10713
  152.9804  135.5748  154.4889 H   0  0  0  0  0  0  0  0  0  0  0  0  # atno 10763 bound_to 10752
  154.4426  135.2776  155.1839 H   0  0  0  0  0  0  0  0  0  0  0  0  # atno 10764 bound_to 10752
  154.3500  135.6211  153.5692 H   0  0  0  0  0  0  0  0  0  0  0  0  # atno 10765 bound_to 10752
  140.0503  134.9259  157.1004 H   0  0  0  0  0  0  0  0  0  0  0  0  # atno 11005 bound_to 11000
  146.3528  140.0953  142.8610 LP  0  0  0  0  0  0  0  0  0  0  0  0  # atno 17320 bound_to 7965
  145.0905  140.9281  143.4772 LP  0  0  0  0  0  0  0  0  0  0  0  0  # atno 17321 bound_to 7965
  139.6173  144.0977  152.2358 LP  0  0  0  0  0  0  0  0  0  0  0  0  # atno 17342 bound_to 10162
  140.0411  144.6007  150.7411 LP  0  0  0  0  0  0  0  0  0  0  0  0  # atno 17343 bound_to 10162
  156.2733  130.3724  149.8009 LP  0  0  0  0  0  0  0  0  0  0  0  0  # atno 17370 bound_to 10713
  156.5720  130.8429  151.3359 LP  0  0  0  0  0  0  0  0  0  0  0  0  # atno 17371 bound_to 10713
  140.3928  134.2166  155.7165 LP  0  0  0  0  0  0  0  0  0  0  0  0  # atno 17394 bound_to 11000
  141.1927  133.8167  157.0829 LP  0  0  0  0  0  0  0  0  0  0  0  0  # atno 17395 bound_to 11000

$$$$
