AV-unprocessed.smi:2878|AV-procd|sdf|11047|dock3
  -GOLD-   2272015513D 1   1.00000     0.00000
 Structure written by MMmdl.
 42 43  0  0  0  0  0  0  0  0  1 V2000
  154.6469  141.5183  162.4913 C   0  0  0  0  0  0  0  0  0  0  0  0
  154.2713  141.1877  160.7485 S   0  0  0  0  0  0  0  0  0  0  0  0
  153.4900  142.7589  160.2593 C   0  0  2  0  0  0  0  0  0  0  0  0
  152.5729  143.2826  161.3817 C   0  0  0  0  0  0  0  0  0  0  0  0
  151.9354  144.6290  161.0037 C   0  0  0  0  0  0  0  0  0  0  0  0
  151.1700  144.5303  159.6757 C   0  0  0  0  0  0  0  0  0  0  0  0
  152.0750  144.0036  158.5485 C   0  0  0  0  0  0  0  0  0  0  0  0
  152.7353  142.6551  158.9106 C   0  0  2  0  0  0  0  0  0  0  0  0
  151.7435  141.5794  158.9455 N   0  0  0  0  0  0  0  0  0  0  0  0
  151.8228  140.4300  158.2617 C   0  0  0  0  0  0  0  0  0  0  0  0
  152.7433  140.1440  157.4959 O   0  0  0  0  0  0  0  0  0  0  0  0
  150.7787  139.6285  158.5131 N   0  0  0  0  0  0  0  0  0  0  0  0
  150.5732  138.3149  157.9133 C   0  0  0  0  0  0  0  0  0  0  0  0
  149.0943  137.8971  157.9484 C   0  0  0  0  0  0  0  0  0  0  0  0
  148.8370  136.8032  158.9301 C   0  0  0  0  0  0  0  0  0  0  0  0
  148.5535  136.9345  160.2238 N   0  0  0  0  0  0  0  0  0  0  0  0
  148.3656  135.6346  160.5824 C   0  0  0  0  0  0  0  0  0  0  0  0
  148.0219  135.2187  161.9718 C   0  0  0  0  0  0  0  0  0  0  0  0
  148.4958  134.7396  159.6110 N   0  0  0  0  0  0  0  0  0  0  0  0
  148.8036  135.5226  158.4890 O   0  0  0  0  0  0  0  0  0  0  0  0
  155.0722  140.6290  162.9561 H   0  0  0  0  0  0  0  0  0  0  0  0
  153.7403  141.7892  163.0325 H   0  0  0  0  0  0  0  0  0  0  0  0
  155.3681  142.3295  162.5867 H   0  0  0  0  0  0  0  0  0  0  0  0
  154.2997  143.4803  160.1400 H   0  0  0  0  0  0  0  0  0  0  0  0
  151.7892  142.5546  161.5948 H   0  0  0  0  0  0  0  0  0  0  0  0
  153.1433  143.3971  162.3041 H   0  0  0  0  0  0  0  0  0  0  0  0
  151.2631  144.9581  161.7965 H   0  0  0  0  0  0  0  0  0  0  0  0
  152.7121  145.3903  160.9209 H   0  0  0  0  0  0  0  0  0  0  0  0
  150.3088  143.8720  159.7968 H   0  0  0  0  0  0  0  0  0  0  0  0
  150.7722  145.5086  159.4041 H   0  0  0  0  0  0  0  0  0  0  0  0
  151.5046  143.9146  157.6234 H   0  0  0  0  0  0  0  0  0  0  0  0
  152.8557  144.7387  158.3489 H   0  0  0  0  0  0  0  0  0  0  0  0
  153.4620  142.4221  158.1313 H   0  0  0  0  0  0  0  0  0  0  0  0
  150.9483  141.7184  159.5516 H   0  0  0  0  0  0  0  0  0  0  0  0
  150.0739  139.9511  159.1600 H   0  0  0  0  0  0  0  0  0  0  0  0
  150.9216  138.3563  156.8809 H   0  0  0  0  0  0  0  0  0  0  0  0
  151.1922  137.5730  158.4209 H   0  0  0  0  0  0  0  0  0  0  0  0
  148.4633  138.7477  158.2093 H   0  0  0  0  0  0  0  0  0  0  0  0
  148.7745  137.5618  156.9611 H   0  0  0  0  0  0  0  0  0  0  0  0
  148.6212  134.3584  162.2715 H   0  0  0  0  0  0  0  0  0  0  0  0
  146.9680  134.9463  162.0328 H   0  0  0  0  0  0  0  0  0  0  0  0
  148.2110  136.0306  162.6748 H   0  0  0  0  0  0  0  0  0  0  0  0
  1  2  1  0  0  0  0
  1 21  1  0  0  0  0
  1 22  1  0  0  0  0
  1 23  1  0  0  0  0
  2  3  1  0  0  0  0
  3  8  1  0  0  0  0
  3  4  1  0  0  0  0
  3 24  1  0  0  0  0
  4  5  1  0  0  0  0
  4 25  1  0  0  0  0
  4 26  1  0  0  0  0
  5  6  1  0  0  0  0
  5 27  1  0  0  0  0
  5 28  1  0  0  0  0
  6  7  1  0  0  0  0
  6 29  1  0  0  0  0
  6 30  1  0  0  0  0
  7  8  1  0  0  0  0
  7 31  1  0  0  0  0
  7 32  1  0  0  0  0
  8  9  1  0  0  0  0
  8 33  1  0  0  0  0
  9 10  1  0  0  0  0
  9 34  1  0  0  0  0
 10 11  2  0  0  0  0
 10 12  1  0  0  0  0
 12 13  1  0  0  0  0
 12 35  1  0  0  0  0
 13 14  1  0  0  0  0
 13 36  1  0  0  0  0
 13 37  1  0  0  0  0
 14 15  1  0  0  0  0
 14 38  1  0  0  0  0
 14 39  1  0  0  0  0
 15 20  1  0  0  0  0
 15 16  2  0  0  0  0
 16 17  1  0  0  0  0
 17 18  1  0  0  0  0
 17 19  2  0  0  0  0
 18 40  1  0  0  0  0
 18 41  1  0  0  0  0
 18 42  1  0  0  0  0
 19 20  1  0  0  0  0
M  END
> <s_m_source_file>
AV-unprocessed.smi

> <i_m_source_file_index>
2878

> <i_lp_mmshare_version>
43012

> <i_f3d_flags>
0

> <s_epik_input>
W0NIM11TW0NAQEhdMVtDSDJdW0NIMl1bQ0gyXVtDSDJdW0NASF0xW05IXUMoPU8pW05IXVtDSDJdW0NIMl1jMm5jKFtDSDNdKW5vMg==

> <s_epik_cmdline>
J2VwaWtfcHl0aG9uJywgJy1waCcsICc3LjAnLCAnLXRuJywgJzgnLCAnLW1hJywgJzIwMCcsICctbWV0YWxfYmluZGluZycsICctaW1hZScsICc8aW5maWxlLm1hZT4nLCAnLW9tYWUnLCAnPG91dGZpbGUubWFlPic=

> <r_lp_tautomer_probability>
1

> <r_epik_Ionization_Penalty>
4.9299e-05

> <r_epik_Ionization_Penalty_Charging>
0

> <r_epik_Ionization_Penalty_Neutral>
4.9299e-05

> <r_epik_State_Penalty>
-0

> <r_epik_Charging_Adjusted_Penalty>
0

> <i_epik_Tot_Q>
0

> <i_epik_Tot_abs_Q>
0

> <r_epik_Metal_State_Penalty>
-0

> <b_epik_Metal_Only>
0

> <s_lp_Force_Field>
OPLS_2005

> <r_lp_Energy>
0.628987

> <b_lp_Chiralities_Consistent>
1

> <s_lp_Variant>
AV-unprocessed.smi:2878-3

> <Gold.Version>
5.8.1

> <Gold.Id.Protein>
6NUR|6NUR_protein|mol2

> <Gold.PLP.Fitness>
55.0989

> <Gold.PLP.PLP>
-47.1203

> <Gold.PLP.part.hbond>
-4.0000

> <Gold.PLP.part.metal>
0.0000

> <Gold.PLP.part.buried>
-5.9606

> <Gold.PLP.part.nonpolar>
-37.7878

> <Gold.PLP.part.repulsive>
0.3041

> <Gold.PLP.ligand.clash>
0.0000

> <Gold.PLP.ligand.torsion>
1.0634

> <Gold.PLP.Chemscore.Hbond>
3.3436

> <Gold.PLP.Chemscore.CHOScore>
0.0000

> <Gold.PLP.Chemscore.Metal>
0.0000

> <Gold.Chemscore.Hbonds>
donor molecule, donor type, donor heavy atom, donor atom, acceptor molecule, acceptor atom, score
      P1  H  6931  6943       L1    16  0.46
      P1  H  7997  8008       L1    11  0.93

> <Gold.PLP.Chemscore.Internal.Correction>
0.0745

> <Gold.Rescore>
     Score         DG    S(hbond)    S(metal)    S(lipo)     H(rot)  DE(clash)    DE(int)     intcor
     19.59     -21.18       2.54        0.00     107.56       2.09       0.07       1.53       ----

> <Gold.Chemscore.Fitness>
19.5891

> <Gold.Chemscore.DG>
-21.1843

> <Gold.Chemscore.ZeroCoef>
-5.4800

> <Gold.Chemscore.Hbond>
2.5376

> <Gold.Chemscore.Metal>
0.0000

> <Gold.Chemscore.Lipo>
107.5640

> <Gold.Chemscore.Internal_Hbond>
0.0000

> <Gold.Chemscore.DEClash>
0.0682

> <Gold.Chemscore.DEInternal>
1.5270

> <Gold.Chemscore.Rot>
2.0923

> <Gold.Chemscore.Internal.Correction>
   9.000000E+99

> <Gold.Chemscore.Hbonds>
donor molecule, donor type, donor heavy atom, donor atom, acceptor molecule, acceptor atom, score
      P1  H  6931  6943       L1    16  0.41
      P1  H  7997  8008       L1    11  0.91

> <Gold.Chemscore.Hbond.Weighted>
-8.4755

> <Gold.Chemscore.Metal.Weighted>
-0.0000

> <Gold.Chemscore.Lipo.Weighted>
-12.5850

> <Gold.Chemscore.Internal_Hbond.Weighted>
0.0000

> <Gold.Chemscore.DEClash.Weighted>
0.0682

> <Gold.Chemscore.DEInternal.Weighted>
1.5270

> <Gold.Chemscore.Rot.Weighted>
5.3562

> <Gold.Chemscore.Internal.Correction.Weighted>
   9.000000E+99

> <Gold.Protein.RotatedTorsions>
[ 6907 6896 6895 6894 ] final  176.74 input  -60.11 | X-H torsion
[ 7974 7965 7964 7962 ] final   26.71 input  175.53 | X-H torsion
[ 8008 7997 7996 7995 ] final  -80.35 input   59.86 | X-H torsion
[ 10167 10162 10161 10158 ] final -109.34 input  -65.29 | X-H torsion
[ 10718 10713 10712 10709 ] final  -87.00 input   66.30 | X-H torsion
[ 10763 10752 10751 10750 ] final    7.29 input  -60.55 | X-H torsion
[ 11005 11000 10999 10996 ] final -167.85 input  -57.11 | X-H torsion

> <Gold.Protein.ActiveResidues>
 VAL166  LYS551  ARG553  GLY616  TRP617  ASP618  TYR619  PRO620  LYS621  CYS622 
 ASP623  PHE694  ASN695  SER759  ASP760  ASP761  ALA762  ILE779  LEU786  VAL792 
 PHE793  MET794  SER795  GLU796  ALA797  LYS798  CYS799  TRP800  GLU811  SER814 

> <Gold.Protein.RotatedAtoms>
  151.7152  133.3313  159.3300 H   0  0  0  0  0  0  0  0  0  0  0  0  # atno 6907 bound_to 6896
  150.7676  134.6496  159.6290 H   0  0  0  0  0  0  0  0  0  0  0  0  # atno 6908 bound_to 6896
  152.3686  134.6770  160.0235 H   0  0  0  0  0  0  0  0  0  0  0  0  # atno 6909 bound_to 6896
  146.1823  139.7290  142.8892 H   0  0  0  0  0  0  0  0  0  0  0  0  # atno 7974 bound_to 7965
  154.5874  140.0664  156.9190 H   0  0  0  0  0  0  0  0  0  0  0  0  # atno 8008 bound_to 7997
  155.2355  140.3341  155.4280 H   0  0  0  0  0  0  0  0  0  0  0  0  # atno 8009 bound_to 7997
  156.2232  140.1808  156.7411 H   0  0  0  0  0  0  0  0  0  0  0  0  # atno 8010 bound_to 7997
  140.1564  143.4156  152.1458 H   0  0  0  0  0  0  0  0  0  0  0  0  # atno 10167 bound_to 10162
  155.9987  130.4785  150.4801 H   0  0  0  0  0  0  0  0  0  0  0  0  # atno 10718 bound_to 10713
  153.2380  135.6900  153.7815 H   0  0  0  0  0  0  0  0  0  0  0  0  # atno 10763 bound_to 10752
  153.6955  135.3306  155.3213 H   0  0  0  0  0  0  0  0  0  0  0  0  # atno 10764 bound_to 10752
  154.8343  135.4555  154.1291 H   0  0  0  0  0  0  0  0  0  0  0  0  # atno 10765 bound_to 10752
  140.5486  134.5451  157.5117 H   0  0  0  0  0  0  0  0  0  0  0  0  # atno 11005 bound_to 11000
  145.4041  141.0389  143.3054 LP  0  0  0  0  0  0  0  0  0  0  0  0  # atno 17320 bound_to 7965
  144.8336  139.5587  143.6932 LP  0  0  0  0  0  0  0  0  0  0  0  0  # atno 17321 bound_to 7965
  139.5402  144.7249  151.4760 LP  0  0  0  0  0  0  0  0  0  0  0  0  # atno 17342 bound_to 10162
  140.6670  143.8375  150.6954 LP  0  0  0  0  0  0  0  0  0  0  0  0  # atno 17343 bound_to 10162
  157.2807  131.0606  151.2199 LP  0  0  0  0  0  0  0  0  0  0  0  0  # atno 17370 bound_to 10713
  157.3247  130.6954  149.6289 LP  0  0  0  0  0  0  0  0  0  0  0  0  # atno 17371 bound_to 10713
  139.9467  134.7690  156.0546 LP  0  0  0  0  0  0  0  0  0  0  0  0  # atno 17394 bound_to 11000
  141.1185  133.6620  156.3155 LP  0  0  0  0  0  0  0  0  0  0  0  0  # atno 17395 bound_to 11000

$$$$
