AV-unprocessed.smi:2648|AV-procd|sdf|10287|dock2
  -GOLD-   2272014303D 1   1.00000     0.00000
 Structure written by MMmdl.
 31 32  0  0  0  0  0  0  0  0  2 V2000
  144.3287  136.3428  151.9513 O   0  0  0  0  0  0  0  0  0  0  0  0
  145.5332  136.1796  151.7576 C   0  0  0  0  0  0  0  0  0  0  0  0
  146.4636  137.0883  152.0829 N   0  0  0  0  0  0  0  0  0  0  0  0
  146.1885  138.3762  152.7074 C   0  0  0  0  0  0  0  0  0  0  0  0
  146.6367  138.3938  154.1799 C   0  0  0  0  0  0  0  0  0  0  0  0
  147.7349  139.3416  154.3860 N   0  0  0  0  0  0  0  0  0  0  0  0
  147.5872  140.6695  154.4121 C   0  0  0  0  0  0  0  0  0  0  0  0
  146.5518  141.3190  154.2624 O   0  0  0  0  0  0  0  0  0  0  0  0
  148.9469  141.2734  154.6765 C   0  0  0  0  0  0  0  0  0  0  0  0
  149.7876  140.1031  154.7896 N   0  5  0  0  0  0  0  0  0  0  0  0
  149.0183  139.0030  154.6143 C   0  0  0  0  0  0  0  0  0  0  0  0
  149.3919  137.8311  154.6537 O   0  0  0  0  0  0  0  0  0  0  0  0
  146.0941  135.0813  151.2222 N   0  0  0  0  0  0  0  0  0  0  0  0
  145.4586  133.9048  150.7402 C   0  0  0  0  0  0  0  0  0  0  0  0
  146.2794  132.8170  150.3771 C   0  0  0  0  0  0  0  0  0  0  0  0
  145.6741  131.6448  149.8812 C   0  0  0  0  0  0  0  0  0  0  0  0
  144.3407  131.5083  149.7239 N   0  0  0  0  0  0  0  0  0  0  0  0
  143.5576  132.5558  150.0579 C   0  0  0  0  0  0  0  0  0  0  0  0
  144.0603  133.7715  150.5632 C   0  0  0  0  0  0  0  0  0  0  0  0
  147.4312  136.8723  151.8940 H   0  0  0  0  0  0  0  0  0  0  0  0
  146.7225  139.1434  152.1459 H   0  0  0  0  0  0  0  0  0  0  0  0
  145.1266  138.6152  152.6254 H   0  0  0  0  0  0  0  0  0  0  0  0
  145.7974  138.6526  154.8277 H   0  0  0  0  0  0  0  0  0  0  0  0
  146.9472  137.3938  154.4876 H   0  0  0  0  0  0  0  0  0  0  0  0
  149.2286  141.9285  153.8516 H   0  0  0  0  0  0  0  0  0  0  0  0
  148.9166  141.8717  155.5877 H   0  0  0  0  0  0  0  0  0  0  0  0
  147.1032  135.0638  151.2064 H   0  0  0  0  0  0  0  0  0  0  0  0
  147.3533  132.8724  150.4799 H   0  0  0  0  0  0  0  0  0  0  0  0
  146.2783  130.7946  149.6012 H   0  0  0  0  0  0  0  0  0  0  0  0
  142.4957  132.4240  149.9118 H   0  0  0  0  0  0  0  0  0  0  0  0
  143.3710  134.5701  150.7897 H   0  0  0  0  0  0  0  0  0  0  0  0
  1  2  2  0  0  0  0
  2  3  1  0  0  0  0
  2 13  1  0  0  0  0
  3  4  1  0  0  0  0
  3 20  1  0  0  0  0
  4  5  1  0  0  0  0
  4 21  1  0  0  0  0
  4 22  1  0  0  0  0
  5  6  1  0  0  0  0
  5 23  1  0  0  0  0
  5 24  1  0  0  0  0
  6 11  1  0  0  0  0
  6  7  1  0  0  0  0
  7  8  2  0  0  0  0
  7  9  1  0  0  0  0
  9 10  1  0  0  0  0
  9 25  1  0  0  0  0
  9 26  1  0  0  0  0
 10 11  1  0  0  0  0
 11 12  2  0  0  0  0
 13 14  1  0  0  0  0
 13 27  1  0  0  0  0
 14 19  1  0  0  0  0
 14 15  2  0  0  0  0
 15 16  1  0  0  0  0
 15 28  1  0  0  0  0
 16 17  2  0  0  0  0
 16 29  1  0  0  0  0
 17 18  1  0  0  0  0
 18 19  2  0  0  0  0
 18 30  1  0  0  0  0
 19 31  1  0  0  0  0
M  CHG  1  10  -1
M  END
> <s_m_source_file>
AV-unprocessed.smi

> <i_m_source_file_index>
2648

> <i_lp_mmshare_version>
43012

> <i_f3d_flags>
0

> <s_epik_input>
W2NIXTFbY0hdbltjSF1bY0hdYzFbTkhdQyg9TylbTkhdW0NIMl1bQ0gyXU4yQyg9TylbQ0gyXVtOSF1DMj1P

> <s_epik_cmdline>
J2VwaWtfcHl0aG9uJywgJy1waCcsICc3LjAnLCAnLXRuJywgJzgnLCAnLW1hJywgJzIwMCcsICctbWV0YWxfYmluZGluZycsICctaW1hZScsICc8aW5maWxlLm1hZT4nLCAnLW9tYWUnLCAnPG91dGZpbGUubWFlPic=

> <r_lp_tautomer_probability>
1

> <r_epik_Ionization_Penalty>
5.93063

> <r_epik_Ionization_Penalty_Charging>
5.82164

> <r_epik_Ionization_Penalty_Neutral>
0.10899

> <r_epik_State_Penalty>
5.92035

> <r_epik_Charging_Adjusted_Penalty>
11.742

> <i_epik_Tot_Q>
-1

> <i_epik_Tot_abs_Q>
1

> <r_epik_Metal_State_Penalty>
1.97767

> <b_epik_Metal_Only>
1

> <s_lp_Force_Field>
OPLS_2005

> <r_lp_Energy>
14.3233

> <b_lp_Chiralities_Consistent>
1

> <s_lp_Variant>
AV-unprocessed.smi:2648-3

> <Gold.Version>
5.8.1

> <Gold.Id.Protein>
6NUR|6NUR_protein|mol2

> <Gold.PLP.Fitness>
44.9565

> <Gold.PLP.PLP>
-32.2118

> <Gold.PLP.part.hbond>
-4.0000

> <Gold.PLP.part.metal>
0.0000

> <Gold.PLP.part.buried>
-4.1267

> <Gold.PLP.part.nonpolar>
-26.3138

> <Gold.PLP.part.repulsive>
1.5004

> <Gold.PLP.ligand.clash>
0.0000

> <Gold.PLP.ligand.torsion>
0.6083

> <Gold.PLP.Chemscore.Hbond>
3.0385

> <Gold.PLP.Chemscore.CHOScore>
1.6124

> <Gold.PLP.Chemscore.Metal>
0.0000

> <Gold.Chemscore.Hbonds>
donor molecule, donor type, donor heavy atom, donor atom, acceptor molecule, acceptor atom, score
      L1  H     3    20       P1  7948  1.00
      L1  H    13    27       P1  7948  0.44
      P1  H  7989  7998       L1    10  0.13
      P1  H 10785 10796       L1    17  0.51
      L1  C    16    29       P1 10747  0.33
      L1  C    18    30       P1 10186  0.82
      L1  C    18    30       P1 10952  0.62

> <Gold.PLP.Chemscore.Internal.Correction>
0.0086

> <Gold.Rescore>
     Score         DG    S(hbond)    S(metal)    S(lipo)     H(rot)  DE(clash)    DE(int)     intcor
     14.23     -16.28       2.60        0.00      59.70       1.90       0.19       1.86       ----

> <Gold.Chemscore.Fitness>
14.2321

> <Gold.Chemscore.DG>
-16.2788

> <Gold.Chemscore.ZeroCoef>
-5.4800

> <Gold.Chemscore.Hbond>
2.5958

> <Gold.Chemscore.Metal>
0.0000

> <Gold.Chemscore.Lipo>
59.7009

> <Gold.Chemscore.Internal_Hbond>
0.0000

> <Gold.Chemscore.DEClash>
0.1875

> <Gold.Chemscore.DEInternal>
1.8592

> <Gold.Chemscore.Rot>
1.8969

> <Gold.Chemscore.Internal.Correction>
   9.000000E+99

> <Gold.Chemscore.Hbonds>
donor molecule, donor type, donor heavy atom, donor atom, acceptor molecule, acceptor atom, score
      L1  H     3    20       P1  7948  0.99
      L1  H    13    27       P1  7948  0.30
      P1  H  7989  7998       L1    10  0.03
      P1  H 10785 10796       L1    17  0.34

> <Gold.Chemscore.Hbond.Weighted>
-8.6699

> <Gold.Chemscore.Metal.Weighted>
-0.0000

> <Gold.Chemscore.Lipo.Weighted>
-6.9850

> <Gold.Chemscore.Internal_Hbond.Weighted>
0.0000

> <Gold.Chemscore.DEClash.Weighted>
0.1875

> <Gold.Chemscore.DEInternal.Weighted>
1.8592

> <Gold.Chemscore.Rot.Weighted>
4.8561

> <Gold.Chemscore.Internal.Correction.Weighted>
   9.000000E+99

> <Gold.Protein.RotatedTorsions>
[ 6907 6896 6895 6894 ] final   41.96 input  -60.11 | X-H torsion
[ 7974 7965 7964 7962 ] final -133.45 input  175.53 | X-H torsion
[ 8008 7997 7996 7995 ] final  173.72 input   59.86 | X-H torsion
[ 10167 10162 10161 10158 ] final   63.69 input  -65.29 | X-H torsion
[ 10718 10713 10712 10709 ] final -154.20 input   66.30 | X-H torsion
[ 10763 10752 10751 10750 ] final   92.11 input  -60.55 | X-H torsion
[ 11005 11000 10999 10996 ] final  146.65 input  -57.11 | X-H torsion

> <Gold.Protein.ActiveResidues>
 VAL166  LYS551  ARG553  GLY616  TRP617  ASP618  TYR619  PRO620  LYS621  CYS622 
 ASP623  PHE694  ASN695  SER759  ASP760  ASP761  ALA762  ILE779  LEU786  VAL792 
 PHE793  MET794  SER795  GLU796  ALA797  LYS798  CYS799  TRP800  GLU811  SER814 

> <Gold.Protein.RotatedAtoms>
  152.2019  134.8580  160.0506 H   0  0  0  0  0  0  0  0  0  0  0  0  # atno 6907 bound_to 6896
  151.9430  133.3638  159.3980 H   0  0  0  0  0  0  0  0  0  0  0  0  # atno 6908 bound_to 6896
  150.6956  134.4343  159.5307 H   0  0  0  0  0  0  0  0  0  0  0  0  # atno 6909 bound_to 6896
  144.9192  140.6993  143.4976 H   0  0  0  0  0  0  0  0  0  0  0  0  # atno 7974 bound_to 7965
  156.1047  140.1453  156.9420 H   0  0  0  0  0  0  0  0  0  0  0  0  # atno 8008 bound_to 7997
  154.4726  140.0905  156.7227 H   0  0  0  0  0  0  0  0  0  0  0  0  # atno 8009 bound_to 7997
  155.4700  140.3441  155.4326 H   0  0  0  0  0  0  0  0  0  0  0  0  # atno 8010 bound_to 7997
  140.1303  144.4649  150.6869 H   0  0  0  0  0  0  0  0  0  0  0  0  # atno 10167 bound_to 10162
  156.4961  130.8370  151.2590 H   0  0  0  0  0  0  0  0  0  0  0  0  # atno 10718 bound_to 10713
  153.2156  135.4373  155.0430 H   0  0  0  0  0  0  0  0  0  0  0  0  # atno 10763 bound_to 10752
  154.8223  135.3343  154.7004 H   0  0  0  0  0  0  0  0  0  0  0  0  # atno 10764 bound_to 10752
  153.7439  135.7003  153.5016 H   0  0  0  0  0  0  0  0  0  0  0  0  # atno 10765 bound_to 10752
  140.0811  134.9096  157.1502 H   0  0  0  0  0  0  0  0  0  0  0  0  # atno 11005 bound_to 11000
  145.3324  139.1755  143.4529 LP  0  0  0  0  0  0  0  0  0  0  0  0  # atno 17320 bound_to 7965
  146.3196  140.3356  142.8644 LP  0  0  0  0  0  0  0  0  0  0  0  0  # atno 17321 bound_to 7965
  140.6821  143.2332  151.5357 LP  0  0  0  0  0  0  0  0  0  0  0  0  # atno 17342 bound_to 10162
  139.5523  144.2364  152.1552 LP  0  0  0  0  0  0  0  0  0  0  0  0  # atno 17343 bound_to 10162
  157.7468  130.9997  150.2899 LP  0  0  0  0  0  0  0  0  0  0  0  0  # atno 17370 bound_to 10713
  156.3378  130.3810  149.7435 LP  0  0  0  0  0  0  0  0  0  0  0  0  # atno 17371 bound_to 10713
  140.3486  134.2623  155.7201 LP  0  0  0  0  0  0  0  0  0  0  0  0  # atno 17394 bound_to 11000
  141.2047  133.7880  157.0274 LP  0  0  0  0  0  0  0  0  0  0  0  0  # atno 17395 bound_to 11000

$$$$
