AV-unprocessed.smi:1648|AV-procd|sdf|6632|dock7
  -GOLD-   22720 7333D 1   1.00000     0.00000
 Structure written by MMmdl.
 41 41  0  0  0  0  0  0  0  0  1 V2000
  150.0996  141.0749  156.5320 C   0  0  0  0  0  0  0  0  0  0  0  0
  149.7711  140.1838  155.3325 C   0  0  0  0  0  0  0  0  0  0  0  0
  150.5778  140.0927  154.4101 O   0  0  0  0  0  0  0  0  0  0  0  0
  148.6059  139.5131  155.3082 N   0  0  0  0  0  0  0  0  0  0  0  0
  148.1099  138.6162  154.2591 C   0  0  1  0  0  0  0  0  0  0  0  0
  147.4847  137.3709  154.9199 C   0  0  0  0  0  0  0  0  0  0  0  0
  147.1218  137.4021  156.0966 O   0  0  0  0  0  0  0  0  0  0  0  0
  147.3675  136.2828  154.1417 N   0  0  0  0  0  0  0  0  0  0  0  0
  146.8704  134.9742  154.5636 C   0  0  2  0  0  0  0  0  0  0  0  0
  147.5633  134.5906  155.8782 C   0  0  0  0  0  0  0  0  0  0  0  0
  147.1063  133.9025  153.4766 C   0  0  0  0  0  0  0  0  0  0  0  0
  146.0570  133.8624  152.4735 N   0  0  0  0  0  0  0  0  0  0  0  0
  146.1180  134.3499  151.1741 C   0  0  0  0  0  0  0  0  0  0  0  0
  144.8914  134.1008  150.6015 C   0  0  0  0  0  0  0  0  0  0  0  0
  144.0567  133.4856  151.5312 N   0  0  0  0  0  0  0  0  0  0  0  0
  144.8123  133.3865  152.6169 C   0  0  0  0  0  0  0  0  0  0  0  0
  147.0355  139.3695  153.4194 C   0  0  0  0  0  0  0  0  0  0  0  0
  146.7891  138.7213  152.0418 C   0  0  0  0  0  0  0  0  0  0  0  0
  147.3943  140.8549  153.2113 C   0  0  0  0  0  0  0  0  0  0  0  0
  149.3613  141.8696  156.6398 H   0  0  0  0  0  0  0  0  0  0  0  0
  151.0760  141.5431  156.4041 H   0  0  0  0  0  0  0  0  0  0  0  0
  150.1267  140.4922  157.4527 H   0  0  0  0  0  0  0  0  0  0  0  0
  148.0018  139.6252  156.1095 H   0  0  0  0  0  0  0  0  0  0  0  0
  148.9316  138.3209  153.6044 H   0  0  0  0  0  0  0  0  0  0  0  0
  147.6818  136.3576  153.1850 H   0  0  0  0  0  0  0  0  0  0  0  0
  145.8017  135.0403  154.7764 H   0  0  0  0  0  0  0  0  0  0  0  0
  147.1927  133.6362  156.2534 H   0  0  0  0  0  0  0  0  0  0  0  0
  147.3825  135.3385  156.6511 H   0  0  0  0  0  0  0  0  0  0  0  0
  148.6423  134.4998  155.7471 H   0  0  0  0  0  0  0  0  0  0  0  0
  148.0662  134.0622  152.9831 H   0  0  0  0  0  0  0  0  0  0  0  0
  147.1535  132.9135  153.9338 H   0  0  0  0  0  0  0  0  0  0  0  0
  147.0074  134.8120  150.7721 H   0  0  0  0  0  0  0  0  0  0  0  0
  144.5459  134.3225  149.6026 H   0  0  0  0  0  0  0  0  0  0  0  0
  144.4504  132.9551  153.5387 H   0  0  0  0  0  0  0  0  0  0  0  0
  146.0896  139.3438  153.9641 H   0  0  0  0  0  0  0  0  0  0  0  0
  147.7052  138.6888  151.4511 H   0  0  0  0  0  0  0  0  0  0  0  0
  146.0480  139.2817  151.4714 H   0  0  0  0  0  0  0  0  0  0  0  0
  146.4142  137.7033  152.1272 H   0  0  0  0  0  0  0  0  0  0  0  0
  148.3559  140.9615  152.7084 H   0  0  0  0  0  0  0  0  0  0  0  0
  147.4485  141.4004  154.1534 H   0  0  0  0  0  0  0  0  0  0  0  0
  146.6443  141.3577  152.6001 H   0  0  0  0  0  0  0  0  0  0  0  0
  1  2  1  0  0  0  0
  1 20  1  0  0  0  0
  1 21  1  0  0  0  0
  1 22  1  0  0  0  0
  2  3  2  0  0  0  0
  2  4  1  0  0  0  0
  4  5  1  0  0  0  0
  4 23  1  0  0  0  0
  5  6  1  0  0  0  0
  5 17  1  0  0  0  0
  5 24  1  0  0  0  0
  6  7  2  0  0  0  0
  6  8  1  0  0  0  0
  8  9  1  0  0  0  0
  8 25  1  0  0  0  0
  9 10  1  0  0  0  0
  9 11  1  0  0  0  0
  9 26  1  0  0  0  0
 10 27  1  0  0  0  0
 10 28  1  0  0  0  0
 10 29  1  0  0  0  0
 11 12  1  0  0  0  0
 11 30  1  0  0  0  0
 11 31  1  0  0  0  0
 12 16  1  0  0  0  0
 12 13  1  0  0  0  0
 13 14  2  0  0  0  0
 13 32  1  0  0  0  0
 14 15  1  0  0  0  0
 14 33  1  0  0  0  0
 15 16  2  0  0  0  0
 16 34  1  0  0  0  0
 17 18  1  0  0  0  0
 17 19  1  0  0  0  0
 17 35  1  0  0  0  0
 18 36  1  0  0  0  0
 18 37  1  0  0  0  0
 18 38  1  0  0  0  0
 19 39  1  0  0  0  0
 19 40  1  0  0  0  0
 19 41  1  0  0  0  0
M  END
> <s_m_source_file>
AV-unprocessed.smi

> <i_m_source_file_index>
1648

> <i_lp_mmshare_version>
43012

> <i_f3d_flags>
0

> <s_epik_input>
W0NIM11DKD1PKVtOSF1bQ0BASF0oW0NIXShbQ0gzXSlbQ0gzXSlDKD1PKVtOSF1bQ0BIXShbQ0gzXSlbQ0gyXW4xW2NIXVtjSF1uW2NIXTE=

> <s_epik_cmdline>
J2VwaWtfcHl0aG9uJywgJy1waCcsICc3LjAnLCAnLXRuJywgJzgnLCAnLW1hJywgJzIwMCcsICctbWV0YWxfYmluZGluZycsICctaW1hZScsICc8aW5maWxlLm1hZT4nLCAnLW9tYWUnLCAnPG91dGZpbGUubWFlPic=

> <r_lp_tautomer_probability>
1

> <r_epik_Ionization_Penalty>
0.628885

> <r_epik_Ionization_Penalty_Charging>
0.628884

> <r_epik_Ionization_Penalty_Neutral>
4.35155e-07

> <r_epik_State_Penalty>
0.64556

> <r_epik_Charging_Adjusted_Penalty>
1.27444

> <i_epik_Tot_Q>
0

> <i_epik_Tot_abs_Q>
0

> <r_epik_Metal_State_Penalty>
0.30874

> <b_epik_Metal_Only>
0

> <s_lp_Force_Field>
OPLS_2005

> <r_lp_Energy>
9.77282

> <b_lp_Chiralities_Consistent>
1

> <s_lp_Variant>
AV-unprocessed.smi:1648-6

> <Gold.Version>
5.8.1

> <Gold.Id.Protein>
6NUR|6NUR_protein|mol2

> <Gold.PLP.Fitness>
35.4664

> <Gold.PLP.PLP>
-24.4130

> <Gold.PLP.part.hbond>
-2.0000

> <Gold.PLP.part.metal>
0.0000

> <Gold.PLP.part.buried>
-2.8026

> <Gold.PLP.part.nonpolar>
-19.9949

> <Gold.PLP.part.repulsive>
0.2676

> <Gold.PLP.ligand.clash>
0.0000

> <Gold.PLP.ligand.torsion>
1.8096

> <Gold.PLP.Chemscore.Hbond>
2.0000

> <Gold.PLP.Chemscore.CHOScore>
2.8784

> <Gold.PLP.Chemscore.Metal>
0.0000

> <Gold.Chemscore.Hbonds>
donor molecule, donor type, donor heavy atom, donor atom, acceptor molecule, acceptor atom, score
      L1  H     8    25       P1  7948  1.00
      P1  H  7989  7998       L1     3  1.00
      L1  C    13    32       P1  7948  0.89
      L1  C    14    33       P1  7921  0.77
      L1  C    16    34       P1 10957  1.00

> <Gold.PLP.Chemscore.Internal.Correction>
0.0373

> <Gold.Rescore>
     Score         DG    S(hbond)    S(metal)    S(lipo)     H(rot)  DE(clash)    DE(int)     intcor
      9.45     -11.86       1.97        0.00      53.49       2.52       0.00       2.41       ----

> <Gold.Chemscore.Fitness>
9.4535

> <Gold.Chemscore.DG>
-11.8634

> <Gold.Chemscore.ZeroCoef>
-5.4800

> <Gold.Chemscore.Hbond>
1.9702

> <Gold.Chemscore.Metal>
0.0000

> <Gold.Chemscore.Lipo>
53.4884

> <Gold.Chemscore.Internal_Hbond>
0.0000

> <Gold.Chemscore.DEClash>
0.0000

> <Gold.Chemscore.DEInternal>
2.4099

> <Gold.Chemscore.Rot>
2.5216

> <Gold.Chemscore.Internal.Correction>
   9.000000E+99

> <Gold.Chemscore.Hbonds>
donor molecule, donor type, donor heavy atom, donor atom, acceptor molecule, acceptor atom, score
      L1  H     8    25       P1  7948  0.97
      P1  H  7989  7998       L1     3  0.98

> <Gold.Chemscore.Hbond.Weighted>
-6.5805

> <Gold.Chemscore.Metal.Weighted>
-0.0000

> <Gold.Chemscore.Lipo.Weighted>
-6.2581

> <Gold.Chemscore.Internal_Hbond.Weighted>
0.0000

> <Gold.Chemscore.DEClash.Weighted>
0.0000

> <Gold.Chemscore.DEInternal.Weighted>
2.4099

> <Gold.Chemscore.Rot.Weighted>
6.4553

> <Gold.Chemscore.Internal.Correction.Weighted>
   9.000000E+99

> <Gold.Protein.RotatedTorsions>
[ 6907 6896 6895 6894 ] final -139.55 input  -60.11 | X-H torsion
[ 7974 7965 7964 7962 ] final   -8.72 input  175.53 | X-H torsion
[ 8008 7997 7996 7995 ] final   -3.40 input   59.86 | X-H torsion
[ 10167 10162 10161 10158 ] final   25.77 input  -65.29 | X-H torsion
[ 10718 10713 10712 10709 ] final   32.60 input   66.30 | X-H torsion
[ 10763 10752 10751 10750 ] final  -23.45 input  -60.55 | X-H torsion
[ 11005 11000 10999 10996 ] final -173.98 input  -57.11 | X-H torsion

> <Gold.Protein.ActiveResidues>
 VAL166  LYS551  ARG553  GLY616  TRP617  ASP618  TYR619  PRO620  LYS621  CYS622 
 ASP623  PHE694  ASN695  SER759  ASP760  ASP761  ALA762  ILE779  LEU786  VAL792 
 PHE793  MET794  SER795  GLU796  ALA797  LYS798  CYS799  TRP800  GLU811  SER814 

> <Gold.Protein.RotatedAtoms>
  151.0493  133.5638  159.2643 H   0  0  0  0  0  0  0  0  0  0  0  0  # atno 6907 bound_to 6896
  151.2655  135.0667  159.9124 H   0  0  0  0  0  0  0  0  0  0  0  0  # atno 6908 bound_to 6896
  152.5379  134.0231  159.8045 H   0  0  0  0  0  0  0  0  0  0  0  0  # atno 6909 bound_to 6896
  146.2272  140.2510  142.8347 H   0  0  0  0  0  0  0  0  0  0  0  0  # atno 7974 bound_to 7965
  154.6253  140.2510  155.7499 H   0  0  0  0  0  0  0  0  0  0  0  0  # atno 8008 bound_to 7997
  156.2450  140.2918  156.0500 H   0  0  0  0  0  0  0  0  0  0  0  0  # atno 8009 bound_to 7997
  155.1831  140.0389  157.2876 H   0  0  0  0  0  0  0  0  0  0  0  0  # atno 8010 bound_to 7997
  140.5079  144.0209  150.6360 H   0  0  0  0  0  0  0  0  0  0  0  0  # atno 10167 bound_to 10162
  157.2872  130.7285  149.6590 H   0  0  0  0  0  0  0  0  0  0  0  0  # atno 10718 bound_to 10713
  153.6681  135.6973  153.5156 H   0  0  0  0  0  0  0  0  0  0  0  0  # atno 10763 bound_to 10752
  153.2579  135.4254  155.0864 H   0  0  0  0  0  0  0  0  0  0  0  0  # atno 10764 bound_to 10752
  154.8434  135.3547  154.6225 H   0  0  0  0  0  0  0  0  0  0  0  0  # atno 10765 bound_to 10752
  140.4796  134.6087  157.4914 H   0  0  0  0  0  0  0  0  0  0  0  0  # atno 11005 bound_to 11000
  144.9411  140.8080  143.5629 LP  0  0  0  0  0  0  0  0  0  0  0  0  # atno 17320 bound_to 7965
  145.2462  139.2051  143.4966 LP  0  0  0  0  0  0  0  0  0  0  0  0  # atno 17321 bound_to 7965
  140.3523  143.2956  152.0473 LP  0  0  0  0  0  0  0  0  0  0  0  0  # atno 17342 bound_to 10162
  139.4888  144.6364  151.6966 LP  0  0  0  0  0  0  0  0  0  0  0  0  # atno 17343 bound_to 10162
  155.9666  130.4320  150.4943 LP  0  0  0  0  0  0  0  0  0  0  0  0  # atno 17370 bound_to 10713
  157.2899  131.0624  151.2141 LP  0  0  0  0  0  0  0  0  0  0  0  0  # atno 17371 bound_to 10713
  139.9834  134.7100  155.9817 LP  0  0  0  0  0  0  0  0  0  0  0  0  # atno 17394 bound_to 11000
  141.1537  133.6545  156.4094 LP  0  0  0  0  0  0  0  0  0  0  0  0  # atno 17395 bound_to 11000

$$$$
