AV-unprocessed.smi:487|AV-procd|sdf|2700|dock10
  -GOLD-   2262023133D 1   1.00000     0.00000
 Structure written by MMmdl.
 40 41  0  0  0  0  0  0  0  0  2 V2000
  152.4657  140.1463  156.5980 O   0  0  0  0  0  0  0  0  0  0  0  0
  151.3071  140.5231  156.4238 C   0  0  0  0  0  0  0  0  0  0  0  0
  150.5076  139.9573  155.2371 C   0  0  0  0  0  0  0  0  0  0  0  0
  150.4345  138.4854  155.1831 N   0  0  0  0  0  0  0  0  0  0  0  0
  149.1740  137.8905  155.3685 C   0  0  0  0  0  0  0  0  0  0  0  0
  149.0084  136.5543  155.3457 C   0  0  0  0  0  0  0  0  0  0  0  0
  150.1803  135.7174  155.1207 C   0  0  0  0  0  0  0  0  0  0  0  0
  150.0479  134.4954  155.0958 O   0  0  0  0  0  0  0  0  0  0  0  0
  151.3821  136.3416  154.9481 N   0  5  0  0  0  0  0  0  0  0  0  0
  151.5360  137.7017  154.9761 C   0  0  0  0  0  0  0  0  0  0  0  0
  152.6314  138.2441  154.8296 O   0  0  0  0  0  0  0  0  0  0  0  0
  150.7034  141.4191  157.2238 N   0  0  0  0  0  0  0  0  0  0  0  0
  151.2881  142.0575  158.4000 C   0  0  0  0  0  0  0  0  0  0  0  0
  152.1036  143.2965  157.9618 C   0  0  0  0  0  0  0  0  0  0  0  0
  151.6833  144.6189  158.6320 C   0  0  0  0  0  0  0  0  0  0  0  0
  151.4117  144.5968  160.1509 C   0  0  0  0  0  0  0  0  0  0  0  0
  152.5167  143.9950  161.0367 C   0  0  0  0  0  0  0  0  0  0  0  0
  152.3770  142.4863  161.3360 C   0  0  0  0  0  0  0  0  0  0  0  0
  153.0352  141.5511  160.3069 C   0  0  0  0  0  0  0  0  0  0  0  0
  152.1220  141.0181  159.1834 C   0  0  0  0  0  0  0  0  0  0  0  0
  149.5018  140.3773  155.2787 H   0  0  0  0  0  0  0  0  0  0  0  0
  150.9366  140.3486  154.3132 H   0  0  0  0  0  0  0  0  0  0  0  0
  148.3599  138.5805  155.5350 H   0  0  0  0  0  0  0  0  0  0  0  0
  148.0336  136.1132  155.4926 H   0  0  0  0  0  0  0  0  0  0  0  0
  149.7474  141.6627  157.0062 H   0  0  0  0  0  0  0  0  0  0  0  0
  150.4589  142.3770  159.0296 H   0  0  0  0  0  0  0  0  0  0  0  0
  153.1678  143.1336  158.1234 H   0  0  0  0  0  0  0  0  0  0  0  0
  152.0237  143.4391  156.8828 H   0  0  0  0  0  0  0  0  0  0  0  0
  152.4482  145.3664  158.4193 H   0  0  0  0  0  0  0  0  0  0  0  0
  150.7797  144.9803  158.1395 H   0  0  0  0  0  0  0  0  0  0  0  0
  151.2702  145.6340  160.4564 H   0  0  0  0  0  0  0  0  0  0  0  0
  150.4569  144.1194  160.3698 H   0  0  0  0  0  0  0  0  0  0  0  0
  153.5057  144.2330  160.6434 H   0  0  0  0  0  0  0  0  0  0  0  0
  152.4618  144.5091  161.9970 H   0  0  0  0  0  0  0  0  0  0  0  0
  152.8807  142.3096  162.2873 H   0  0  0  0  0  0  0  0  0  0  0  0
  151.3367  142.2084  161.5097 H   0  0  0  0  0  0  0  0  0  0  0  0
  153.9260  142.0219  159.8918 H   0  0  0  0  0  0  0  0  0  0  0  0
  153.4143  140.6796  160.8419 H   0  0  0  0  0  0  0  0  0  0  0  0
  151.4408  140.2816  159.6115 H   0  0  0  0  0  0  0  0  0  0  0  0
  152.7494  140.4627  158.4846 H   0  0  0  0  0  0  0  0  0  0  0  0
  1  2  2  0  0  0  0
  2  3  1  0  0  0  0
  2 12  1  0  0  0  0
  3  4  1  0  0  0  0
  3 21  1  0  0  0  0
  3 22  1  0  0  0  0
  4 10  1  0  0  0  0
  4  5  1  0  0  0  0
  5  6  2  0  0  0  0
  5 23  1  0  0  0  0
  6  7  1  0  0  0  0
  6 24  1  0  0  0  0
  7  8  2  0  0  0  0
  7  9  1  0  0  0  0
  9 10  1  0  0  0  0
 10 11  2  0  0  0  0
 12 13  1  0  0  0  0
 12 25  1  0  0  0  0
 13 20  1  0  0  0  0
 13 14  1  0  0  0  0
 13 26  1  0  0  0  0
 14 15  1  0  0  0  0
 14 27  1  0  0  0  0
 14 28  1  0  0  0  0
 15 16  1  0  0  0  0
 15 29  1  0  0  0  0
 15 30  1  0  0  0  0
 16 17  1  0  0  0  0
 16 31  1  0  0  0  0
 16 32  1  0  0  0  0
 17 18  1  0  0  0  0
 17 33  1  0  0  0  0
 17 34  1  0  0  0  0
 18 19  1  0  0  0  0
 18 35  1  0  0  0  0
 18 36  1  0  0  0  0
 19 20  1  0  0  0  0
 19 37  1  0  0  0  0
 19 38  1  0  0  0  0
 20 39  1  0  0  0  0
 20 40  1  0  0  0  0
M  CHG  1   9  -1
M  END
> <s_m_source_file>
AV-unprocessed.smi

> <i_m_source_file_index>
487

> <i_lp_mmshare_version>
43012

> <i_f3d_flags>
0

> <s_epik_input>
Tz1jMVtuSF1jKD1PKVtjSF1bY0hdbjFbQ0gyXUMoPU8pW05IXVtDSF0yW0NIMl1bQ0gyXVtDSDJdW0NIMl1bQ0gyXVtDSDJdW0NIMl0y

> <s_epik_cmdline>
J2VwaWtfcHl0aG9uJywgJy1waCcsICc3LjAnLCAnLXRuJywgJzgnLCAnLW1hJywgJzIwMCcsICctbWV0YWxfYmluZGluZycsICctaW1hZScsICc8aW5maWxlLm1hZT4nLCAnLW9tYWUnLCAnPG91dGZpbGUubWFlPic=

> <r_lp_tautomer_probability>
0.999537

> <r_epik_Ionization_Penalty>
3.09244

> <r_epik_Ionization_Penalty_Charging>
2.84692e-08

> <r_epik_Ionization_Penalty_Neutral>
3.09244

> <r_epik_State_Penalty>
3.09149

> <r_epik_Charging_Adjusted_Penalty>
3.09149

> <i_epik_Tot_Q>
-1

> <i_epik_Tot_abs_Q>
1

> <r_epik_Metal_State_Penalty>
0.461034

> <b_epik_Metal_Only>
1

> <s_lp_Force_Field>
OPLS_2005

> <r_lp_Energy>
30.2877

> <b_lp_Chiralities_Consistent>
1

> <s_lp_Variant>
AV-unprocessed.smi:487-2

> <Gold.Version>
5.8.1

> <Gold.Id.Protein>
6NUR|6NUR_protein|mol2

> <Gold.PLP.Fitness>
47.5319

> <Gold.PLP.PLP>
-39.2763

> <Gold.PLP.part.hbond>
-2.0000

> <Gold.PLP.part.metal>
0.0000

> <Gold.PLP.part.buried>
-4.9142

> <Gold.PLP.part.nonpolar>
-31.9129

> <Gold.PLP.part.repulsive>
0.3436

> <Gold.PLP.ligand.clash>
0.0000

> <Gold.PLP.ligand.torsion>
0.3786

> <Gold.PLP.Chemscore.Hbond>
3.0000

> <Gold.PLP.Chemscore.CHOScore>
0.0000

> <Gold.PLP.Chemscore.Metal>
0.0000

> <Gold.Chemscore.Hbonds>
donor molecule, donor type, donor heavy atom, donor atom, acceptor molecule, acceptor atom, score
      P1  H  7997  8010       L1     1  1.00
      P1  H 10752 10765       L1     9  2.00

> <Gold.PLP.Chemscore.Internal.Correction>
0.0127

> <Gold.Rescore>
     Score         DG    S(hbond)    S(metal)    S(lipo)     H(rot)  DE(clash)    DE(int)     intcor
     15.30     -18.93       1.87        0.00      97.44       1.64       0.24       3.39       ----

> <Gold.Chemscore.Fitness>
15.2973

> <Gold.Chemscore.DG>
-18.9271

> <Gold.Chemscore.ZeroCoef>
-5.4800

> <Gold.Chemscore.Hbond>
1.8727

> <Gold.Chemscore.Metal>
0.0000

> <Gold.Chemscore.Lipo>
97.4385

> <Gold.Chemscore.Internal_Hbond>
0.0000

> <Gold.Chemscore.DEClash>
0.2447

> <Gold.Chemscore.DEInternal>
3.3851

> <Gold.Chemscore.Rot>
1.6438

> <Gold.Chemscore.Internal.Correction>
   9.000000E+99

> <Gold.Chemscore.Hbonds>
donor molecule, donor type, donor heavy atom, donor atom, acceptor molecule, acceptor atom, score
      P1  H  7997  8010       L1     1  0.98
      P1  H 10752 10765       L1     9  0.74

> <Gold.Chemscore.Hbond.Weighted>
-6.2548

> <Gold.Chemscore.Metal.Weighted>
-0.0000

> <Gold.Chemscore.Lipo.Weighted>
-11.4003

> <Gold.Chemscore.Internal_Hbond.Weighted>
0.0000

> <Gold.Chemscore.DEClash.Weighted>
0.2447

> <Gold.Chemscore.DEInternal.Weighted>
3.3851

> <Gold.Chemscore.Rot.Weighted>
4.2080

> <Gold.Chemscore.Internal.Correction.Weighted>
   9.000000E+99

> <Gold.Protein.RotatedTorsions>
[ 6907 6896 6895 6894 ] final   58.63 input  -60.11 | X-H torsion
[ 7974 7965 7964 7962 ] final -175.69 input  175.53 | X-H torsion
[ 8008 7997 7996 7995 ] final   66.30 input   59.86 | X-H torsion
[ 10167 10162 10161 10158 ] final  163.73 input  -65.29 | X-H torsion
[ 10718 10713 10712 10709 ] final  163.56 input   66.30 | X-H torsion
[ 10763 10752 10751 10750 ] final -172.30 input  -60.55 | X-H torsion
[ 11005 11000 10999 10996 ] final   51.97 input  -57.11 | X-H torsion

> <Gold.Protein.ActiveResidues>
 VAL166  LYS551  ARG553  GLY616  TRP617  ASP618  TYR619  PRO620  LYS621  CYS622 
 ASP623  PHE694  ASN695  SER759  ASP760  ASP761  ALA762  ILE779  LEU786  VAL792 
 PHE793  MET794  SER795  GLU796  ALA797  LYS798  CYS799  TRP800  GLU811  SER814 

> <Gold.Protein.RotatedAtoms>
  152.3842  134.6544  160.0131 H   0  0  0  0  0  0  0  0  0  0  0  0  # atno 6907 bound_to 6896
  151.6797  133.3306  159.3224 H   0  0  0  0  0  0  0  0  0  0  0  0  # atno 6908 bound_to 6896
  150.7772  134.6727  159.6445 H   0  0  0  0  0  0  0  0  0  0  0  0  # atno 6909 bound_to 6896
  144.7127  140.1282  143.6400 H   0  0  0  0  0  0  0  0  0  0  0  0  # atno 7974 bound_to 7965
  155.6752  140.3497  155.4834 H   0  0  0  0  0  0  0  0  0  0  0  0  # atno 8008 bound_to 7997
  155.9654  140.1145  157.0882 H   0  0  0  0  0  0  0  0  0  0  0  0  # atno 8009 bound_to 7997
  154.4153  140.1167  156.5221 H   0  0  0  0  0  0  0  0  0  0  0  0  # atno 8010 bound_to 7997
  139.4878  144.4308  151.9073 H   0  0  0  0  0  0  0  0  0  0  0  0  # atno 10167 bound_to 10162
  157.1068  131.0457  151.2474 H   0  0  0  0  0  0  0  0  0  0  0  0  # atno 10718 bound_to 10713
  154.6209  135.2875  155.0327 H   0  0  0  0  0  0  0  0  0  0  0  0  # atno 10763 bound_to 10752
  154.1523  135.6501  153.4970 H   0  0  0  0  0  0  0  0  0  0  0  0  # atno 10764 bound_to 10752
  153.0235  135.5358  154.6998 H   0  0  0  0  0  0  0  0  0  0  0  0  # atno 10765 bound_to 10752
  140.0888  134.5237  155.8872 H   0  0  0  0  0  0  0  0  0  0  0  0  # atno 11005 bound_to 11000
  145.9310  139.2606  143.1325 LP  0  0  0  0  0  0  0  0  0  0  0  0  # atno 17320 bound_to 7965
  145.9523  140.8899  143.0253 LP  0  0  0  0  0  0  0  0  0  0  0  0  # atno 17321 bound_to 7965
  140.3755  144.2802  150.5914 LP  0  0  0  0  0  0  0  0  0  0  0  0  # atno 17342 bound_to 10162
  140.5280  143.2250  151.8283 LP  0  0  0  0  0  0  0  0  0  0  0  0  # atno 17343 bound_to 10162
  157.4594  130.7644  149.7222 LP  0  0  0  0  0  0  0  0  0  0  0  0  # atno 17370 bound_to 10713
  155.9860  130.3978  150.3234 LP  0  0  0  0  0  0  0  0  0  0  0  0  # atno 17371 bound_to 10713
  141.2071  133.6661  156.6285 LP  0  0  0  0  0  0  0  0  0  0  0  0  # atno 17394 bound_to 11000
  140.3382  134.7872  157.4377 LP  0  0  0  0  0  0  0  0  0  0  0  0  # atno 17395 bound_to 11000

$$$$
