AV-unprocessed.smi:755|AV-procd|sdf|3611|dock9
  -GOLD-   22720 1 03D 1   1.00000     0.00000
 Structure written by MMmdl.
 33 34  0  0  0  0  0  0  0  0  1 V2000
  155.2112  138.9396  158.7058 O   0  0  0  0  0  0  0  0  0  0  0  0
  154.1786  138.8946  159.3738 C   0  0  0  0  0  0  0  0  0  0  0  0
  153.4446  137.5645  159.5570 C   0  0  0  0  0  0  0  0  0  0  0  0
  153.6917  136.9950  160.8704 N   0  0  0  0  0  0  0  0  0  0  0  0
  153.4652  137.5703  162.1064 C   0  0  0  0  0  0  0  0  0  0  0  0
  153.8605  136.6394  163.0177 C   0  0  0  0  0  0  0  0  0  0  0  0
  153.8155  136.7915  164.7350 Cl  0  0  0  0  0  0  0  0  0  0  0  0
  154.3167  135.5204  162.2760 C   0  0  0  0  0  0  0  0  0  0  0  0
  154.2115  135.7441  160.9741 N   0  0  0  0  0  0  0  0  0  0  0  0
  153.6421  139.9663  159.9791 N   0  0  0  0  0  0  0  0  0  0  0  0
  154.1980  141.3174  159.9551 C   0  0  0  0  0  0  0  0  0  0  0  0
  153.4268  142.3053  160.8492 C   0  0  0  0  0  0  0  0  0  0  0  0
  153.3501  142.1057  162.0630 O   0  0  0  0  0  0  0  0  0  0  0  0
  152.8378  143.3674  160.2616 N   0  0  0  0  0  0  0  0  0  0  0  0
  152.8651  143.6778  158.8325 C   0  0  0  0  0  0  0  0  0  0  0  0
  151.8704  144.8228  158.6385 C   0  0  0  0  0  0  0  0  0  0  0  0
  151.8177  145.5062  159.9979 C   0  0  0  0  0  0  0  0  0  0  0  0
  152.0723  144.3745  160.9937 C   0  0  0  0  0  0  0  0  0  0  0  0
  152.3701  137.7110  159.4380 H   0  0  0  0  0  0  0  0  0  0  0  0
  153.7601  136.8603  158.7855 H   0  0  0  0  0  0  0  0  0  0  0  0
  153.0558  138.5630  162.2233 H   0  0  0  0  0  0  0  0  0  0  0  0
  154.7104  134.5782  162.6277 H   0  0  0  0  0  0  0  0  0  0  0  0
  152.7944  139.8322  160.5113 H   0  0  0  0  0  0  0  0  0  0  0  0
  155.2501  141.2920  160.2436 H   0  0  0  0  0  0  0  0  0  0  0  0
  154.1619  141.6759  158.9263 H   0  0  0  0  0  0  0  0  0  0  0  0
  153.8707  143.9984  158.5567 H   0  0  0  0  0  0  0  0  0  0  0  0
  152.5985  142.8189  158.2150 H   0  0  0  0  0  0  0  0  0  0  0  0
  152.1575  145.5009  157.8343 H   0  0  0  0  0  0  0  0  0  0  0  0
  150.8870  144.4165  158.3977 H   0  0  0  0  0  0  0  0  0  0  0  0
  152.6205  146.2417  160.0669 H   0  0  0  0  0  0  0  0  0  0  0  0
  150.8744  146.0232  160.1765 H   0  0  0  0  0  0  0  0  0  0  0  0
  151.1295  143.9331  161.3205 H   0  0  0  0  0  0  0  0  0  0  0  0
  152.6025  144.7346  161.8769 H   0  0  0  0  0  0  0  0  0  0  0  0
  1  2  2  0  0  0  0
  2  3  1  0  0  0  0
  2 10  1  0  0  0  0
  3  4  1  0  0  0  0
  3 19  1  0  0  0  0
  3 20  1  0  0  0  0
  4  9  1  0  0  0  0
  4  5  1  0  0  0  0
  5  6  2  0  0  0  0
  5 21  1  0  0  0  0
  6  7  1  0  0  0  0
  6  8  1  0  0  0  0
  8  9  2  0  0  0  0
  8 22  1  0  0  0  0
 10 11  1  0  0  0  0
 10 23  1  0  0  0  0
 11 12  1  0  0  0  0
 11 24  1  0  0  0  0
 11 25  1  0  0  0  0
 12 13  2  0  0  0  0
 12 14  1  0  0  0  0
 14 18  1  0  0  0  0
 14 15  1  0  0  0  0
 15 16  1  0  0  0  0
 15 26  1  0  0  0  0
 15 27  1  0  0  0  0
 16 17  1  0  0  0  0
 16 28  1  0  0  0  0
 16 29  1  0  0  0  0
 17 18  1  0  0  0  0
 17 30  1  0  0  0  0
 17 31  1  0  0  0  0
 18 32  1  0  0  0  0
 18 33  1  0  0  0  0
M  END
> <s_m_source_file>
AV-unprocessed.smi

> <i_m_source_file_index>
755

> <i_lp_mmshare_version>
43012

> <i_f3d_flags>
0

> <s_epik_input>
bjFbY0hdYyhDbClbY0hdbjFbQ0gyXUMoPU8pW05IXVtDSDJdQyg9TylOMltDSDJdW0NIMl1bQ0gyXVtDSDJdMg==

> <s_epik_cmdline>
J2VwaWtfcHl0aG9uJywgJy1waCcsICc3LjAnLCAnLXRuJywgJzgnLCAnLW1hJywgJzIwMCcsICctbWV0YWxfYmluZGluZycsICctaW1hZScsICc8aW5maWxlLm1hZT4nLCAnLW9tYWUnLCAnPG91dGZpbGUubWFlPic=

> <r_lp_tautomer_probability>
1

> <r_epik_Ionization_Penalty>
4.35059e-07

> <r_epik_Ionization_Penalty_Charging>
0

> <r_epik_Ionization_Penalty_Neutral>
4.35059e-07

> <r_epik_State_Penalty>
-0

> <r_epik_Charging_Adjusted_Penalty>
0

> <i_epik_Tot_Q>
0

> <i_epik_Tot_abs_Q>
0

> <r_epik_Metal_State_Penalty>
-0

> <b_epik_Metal_Only>
0

> <s_lp_Force_Field>
OPLS_2005

> <r_lp_Energy>
27.1331

> <b_lp_Chiralities_Consistent>
1

> <s_lp_Variant>
AV-unprocessed.smi:755-1

> <Gold.Version>
5.8.1

> <Gold.Id.Protein>
6NUR|6NUR_protein|mol2

> <Gold.PLP.Fitness>
49.0911

> <Gold.PLP.PLP>
-46.5949

> <Gold.PLP.part.hbond>
-1.0000

> <Gold.PLP.part.metal>
0.0000

> <Gold.PLP.part.buried>
-5.3931

> <Gold.PLP.part.nonpolar>
-40.4161

> <Gold.PLP.part.repulsive>
0.1083

> <Gold.PLP.ligand.clash>
0.0000

> <Gold.PLP.ligand.torsion>
0.2532

> <Gold.PLP.Chemscore.Hbond>
1.0000

> <Gold.PLP.Chemscore.CHOScore>
0.0000

> <Gold.PLP.Chemscore.Metal>
0.0000

> <Gold.Chemscore.Hbonds>
donor molecule, donor type, donor heavy atom, donor atom, acceptor molecule, acceptor atom, score
      P1  H  7997  8008       L1     1  1.00

> <Gold.PLP.Chemscore.Internal.Correction>
0.0027

> <Gold.Rescore>
     Score         DG    S(hbond)    S(metal)    S(lipo)     H(rot)  DE(clash)    DE(int)     intcor
     15.57     -15.89       0.98        0.00     100.20       1.80       0.04       0.28       ----

> <Gold.Chemscore.Fitness>
15.5701

> <Gold.Chemscore.DG>
-15.8867

> <Gold.Chemscore.ZeroCoef>
-5.4800

> <Gold.Chemscore.Hbond>
0.9843

> <Gold.Chemscore.Metal>
0.0000

> <Gold.Chemscore.Lipo>
100.2050

> <Gold.Chemscore.Internal_Hbond>
0.0000

> <Gold.Chemscore.DEClash>
0.0410

> <Gold.Chemscore.DEInternal>
0.2756

> <Gold.Chemscore.Rot>
1.7988

> <Gold.Chemscore.Internal.Correction>
   9.000000E+99

> <Gold.Chemscore.Hbonds>
donor molecule, donor type, donor heavy atom, donor atom, acceptor molecule, acceptor atom, score
      P1  H  7997  8008       L1     1  0.98

> <Gold.Chemscore.Hbond.Weighted>
-3.2876

> <Gold.Chemscore.Metal.Weighted>
-0.0000

> <Gold.Chemscore.Lipo.Weighted>
-11.7240

> <Gold.Chemscore.Internal_Hbond.Weighted>
0.0000

> <Gold.Chemscore.DEClash.Weighted>
0.0410

> <Gold.Chemscore.DEInternal.Weighted>
0.2756

> <Gold.Chemscore.Rot.Weighted>
4.6048

> <Gold.Chemscore.Internal.Correction.Weighted>
   9.000000E+99

> <Gold.Protein.RotatedTorsions>
[ 6907 6896 6895 6894 ] final  -97.18 input  -60.11 | X-H torsion
[ 7974 7965 7964 7962 ] final   59.06 input  175.53 | X-H torsion
[ 8008 7997 7996 7995 ] final -131.71 input   59.86 | X-H torsion
[ 10167 10162 10161 10158 ] final   59.50 input  -65.29 | X-H torsion
[ 10718 10713 10712 10709 ] final  -39.11 input   66.30 | X-H torsion
[ 10763 10752 10751 10750 ] final  -10.41 input  -60.55 | X-H torsion
[ 11005 11000 10999 10996 ] final -172.05 input  -57.11 | X-H torsion

> <Gold.Protein.ActiveResidues>
 VAL166  LYS551  ARG553  GLY616  TRP617  ASP618  TYR619  PRO620  LYS621  CYS622 
 ASP623  PHE694  ASN695  SER759  ASP760  ASP761  ALA762  ILE779  LEU786  VAL792 
 PHE793  MET794  SER795  GLU796  ALA797  LYS798  CYS799  TRP800  GLU811  SER814 

> <Gold.Protein.RotatedAtoms>
  150.7009  134.1389  159.4097 H   0  0  0  0  0  0  0  0  0  0  0  0  # atno 6907 bound_to 6896
  151.9374  135.0227  160.0543 H   0  0  0  0  0  0  0  0  0  0  0  0  # atno 6908 bound_to 6896
  152.2124  133.4886  159.5154 H   0  0  0  0  0  0  0  0  0  0  0  0  # atno 6909 bound_to 6896
  145.9114  139.3657  143.0533 H   0  0  0  0  0  0  0  0  0  0  0  0  # atno 7974 bound_to 7965
  155.3169  140.0460  157.3037 H   0  0  0  0  0  0  0  0  0  0  0  0  # atno 8008 bound_to 7997
  154.5402  140.2285  155.8621 H   0  0  0  0  0  0  0  0  0  0  0  0  # atno 8009 bound_to 7997
  156.1873  140.3059  155.9270 H   0  0  0  0  0  0  0  0  0  0  0  0  # atno 8010 bound_to 7997
  140.1758  144.4231  150.6639 H   0  0  0  0  0  0  0  0  0  0  0  0  # atno 10167 bound_to 10162
  156.2961  130.4234  149.8189 H   0  0  0  0  0  0  0  0  0  0  0  0  # atno 10718 bound_to 10713
  153.4687  135.7016  153.6006 H   0  0  0  0  0  0  0  0  0  0  0  0  # atno 10763 bound_to 10752
  153.4269  135.3812  155.2146 H   0  0  0  0  0  0  0  0  0  0  0  0  # atno 10764 bound_to 10752
  154.8726  135.3941  154.4123 H   0  0  0  0  0  0  0  0  0  0  0  0  # atno 10765 bound_to 10752
  140.5013  134.5891  157.4988 H   0  0  0  0  0  0  0  0  0  0  0  0  # atno 11005 bound_to 11000
  145.8667  140.9444  143.0672 LP  0  0  0  0  0  0  0  0  0  0  0  0  # atno 17320 bound_to 7965
  144.6743  140.0601  143.7476 LP  0  0  0  0  0  0  0  0  0  0  0  0  # atno 17321 bound_to 7965
  140.6552  143.2236  151.5985 LP  0  0  0  0  0  0  0  0  0  0  0  0  # atno 17342 bound_to 10162
  139.5318  144.2895  152.1164 LP  0  0  0  0  0  0  0  0  0  0  0  0  # atno 17343 bound_to 10162
  156.5584  130.8373  151.3321 LP  0  0  0  0  0  0  0  0  0  0  0  0  # atno 17370 bound_to 10713
  157.7356  130.9764  150.2089 LP  0  0  0  0  0  0  0  0  0  0  0  0  # atno 17371 bound_to 10713
  139.9712  134.7290  156.0039 LP  0  0  0  0  0  0  0  0  0  0  0  0  # atno 17394 bound_to 11000
  141.1434  133.6560  156.3796 LP  0  0  0  0  0  0  0  0  0  0  0  0  # atno 17395 bound_to 11000

$$$$
