AV-unprocessed.smi:477|AV-procd|sdf|2670|dock2
  -GOLD-   2262023 83D 1   1.00000     0.00000
 Structure written by MMmdl.
 45 46  0  0  0  0  0  0  0  0  1 V2000
  146.7046  136.9464  162.8642 C   0  0  0  0  0  0  0  0  0  0  0  0
  147.3430  136.2930  161.6680 C   0  0  0  0  0  0  0  0  0  0  0  0
  147.9424  137.0744  160.8312 N   0  0  0  0  0  0  0  0  0  0  0  0
  148.5623  136.5786  159.7003 N   0  0  0  0  0  0  0  0  0  0  0  0
  149.2156  137.6091  158.8803 C   0  0  0  0  0  0  0  0  0  0  0  0
  150.7384  137.6621  159.0723 C   0  0  0  0  0  0  0  0  0  0  0  0
  151.3163  136.8638  159.8114 O   0  0  0  0  0  0  0  0  0  0  0  0
  151.3770  138.6272  158.3943 N   0  0  0  0  0  0  0  0  0  0  0  0
  152.8094  138.8929  158.4626 C   0  0  0  0  0  0  0  0  0  0  0  0
  153.2171  139.7081  159.7073 C   0  0  0  0  0  0  0  0  0  0  0  0
  152.7591  141.1589  159.6732 C   0  0  0  0  0  0  0  0  0  0  0  0
  152.0403  141.6478  158.6442 C   0  0  0  0  0  0  0  0  0  0  0  0
  151.5861  143.0924  158.5295 C   0  0  0  0  0  0  0  0  0  0  0  0
  152.3261  144.0187  159.5088 C   0  0  0  0  0  0  0  0  0  0  0  0
  152.4414  143.3783  160.8975 C   0  0  0  0  0  0  0  0  0  0  0  0
  153.2007  142.0412  160.8373 C   0  0  0  0  0  0  0  0  0  0  0  0
  148.6021  135.2602  159.3516 C   0  0  0  0  0  0  0  0  0  0  0  0
  149.1660  134.8605  158.3318 O   0  0  0  0  0  0  0  0  0  0  0  0
  147.9201  134.3808  160.3037 C   0  0  0  0  0  0  0  0  0  0  0  0
  147.9378  132.9916  159.9759 C   0  0  0  0  0  0  0  0  0  0  0  0
  147.9647  131.8617  159.7256 N   0  0  0  0  0  0  0  0  0  0  0  0
  147.3144  134.8547  161.4212 C   0  0  0  0  0  0  0  0  0  0  0  0
  146.5955  133.9824  162.4413 C   0  0  0  0  0  0  0  0  0  0  0  0
  145.6513  136.6754  162.9393 H   0  0  0  0  0  0  0  0  0  0  0  0
  146.7595  138.0349  162.8108 H   0  0  0  0  0  0  0  0  0  0  0  0
  147.2007  136.6356  163.7839 H   0  0  0  0  0  0  0  0  0  0  0  0
  149.0005  137.4625  157.8207 H   0  0  0  0  0  0  0  0  0  0  0  0
  148.7972  138.5869  159.1276 H   0  0  0  0  0  0  0  0  0  0  0  0
  150.8277  139.2385  157.8075 H   0  0  0  0  0  0  0  0  0  0  0  0
  153.3621  137.9524  158.4346 H   0  0  0  0  0  0  0  0  0  0  0  0
  153.0915  139.4369  157.5608 H   0  0  0  0  0  0  0  0  0  0  0  0
  152.8444  139.2353  160.6168 H   0  0  0  0  0  0  0  0  0  0  0  0
  154.3045  139.6924  159.7900 H   0  0  0  0  0  0  0  0  0  0  0  0
  151.7433  140.9909  157.8394 H   0  0  0  0  0  0  0  0  0  0  0  0
  151.7384  143.4375  157.5066 H   0  0  0  0  0  0  0  0  0  0  0  0
  150.5127  143.1243  158.7187 H   0  0  0  0  0  0  0  0  0  0  0  0
  153.3267  144.2271  159.1275 H   0  0  0  0  0  0  0  0  0  0  0  0
  151.8142  144.9791  159.5732 H   0  0  0  0  0  0  0  0  0  0  0  0
  152.9402  144.0580  161.5889 H   0  0  0  0  0  0  0  0  0  0  0  0
  151.4410  143.2100  161.2985 H   0  0  0  0  0  0  0  0  0  0  0  0
  153.0758  141.5172  161.7834 H   0  0  0  0  0  0  0  0  0  0  0  0
  154.2694  142.2272  160.7262 H   0  0  0  0  0  0  0  0  0  0  0  0
  146.7064  132.9200  162.2258 H   0  0  0  0  0  0  0  0  0  0  0  0
  145.5287  134.2082  162.4495 H   0  0  0  0  0  0  0  0  0  0  0  0
  146.9916  134.1530  163.4429 H   0  0  0  0  0  0  0  0  0  0  0  0
  1  2  1  0  0  0  0
  1 24  1  0  0  0  0
  1 25  1  0  0  0  0
  1 26  1  0  0  0  0
  2 22  1  0  0  0  0
  2  3  2  0  0  0  0
  3  4  1  0  0  0  0
  4  5  1  0  0  0  0
  4 17  1  0  0  0  0
  5  6  1  0  0  0  0
  5 27  1  0  0  0  0
  5 28  1  0  0  0  0
  6  7  2  0  0  0  0
  6  8  1  0  0  0  0
  8  9  1  0  0  0  0
  8 29  1  0  0  0  0
  9 10  1  0  0  0  0
  9 30  1  0  0  0  0
  9 31  1  0  0  0  0
 10 11  1  0  0  0  0
 10 32  1  0  0  0  0
 10 33  1  0  0  0  0
 11 16  1  0  0  0  0
 11 12  2  0  0  0  0
 12 13  1  0  0  0  0
 12 34  1  0  0  0  0
 13 14  1  0  0  0  0
 13 35  1  0  0  0  0
 13 36  1  0  0  0  0
 14 15  1  0  0  0  0
 14 37  1  0  0  0  0
 14 38  1  0  0  0  0
 15 16  1  0  0  0  0
 15 39  1  0  0  0  0
 15 40  1  0  0  0  0
 16 41  1  0  0  0  0
 16 42  1  0  0  0  0
 17 18  2  0  0  0  0
 17 19  1  0  0  0  0
 19 20  1  0  0  0  0
 19 22  2  0  0  0  0
 20 21  3  0  0  0  0
 22 23  1  0  0  0  0
 23 43  1  0  0  0  0
 23 44  1  0  0  0  0
 23 45  1  0  0  0  0
M  END
> <s_m_source_file>
AV-unprocessed.smi

> <i_m_source_file_index>
477

> <i_lp_mmshare_version>
43012

> <i_f3d_flags>
0

> <s_epik_input>
TiNDYyhjMVtDSDNdKWMoPU8pbihuYzFbQ0gzXSlbQ0gyXUMoPU8pW05IXVtDSDJdW0NIMl1DMj1bQ0hdW0NIMl1bQ0gyXVtDSDJdW0NIMl0y

> <s_epik_cmdline>
J2VwaWtfcHl0aG9uJywgJy1waCcsICc3LjAnLCAnLXRuJywgJzgnLCAnLW1hJywgJzIwMCcsICctbWV0YWxfYmluZGluZycsICctaW1hZScsICc8aW5maWxlLm1hZT4nLCAnLW9tYWUnLCAnPG91dGZpbGUubWFlPic=

> <r_lp_tautomer_probability>
1

> <r_epik_Ionization_Penalty>
1.81256e-08

> <r_epik_Ionization_Penalty_Charging>
2.1856e-11

> <r_epik_Ionization_Penalty_Neutral>
1.81037e-08

> <r_epik_State_Penalty>
-0

> <r_epik_Charging_Adjusted_Penalty>
2.1856e-11

> <i_epik_Tot_Q>
0

> <i_epik_Tot_abs_Q>
0

> <r_epik_Metal_State_Penalty>
-0

> <b_epik_Metal_Only>
0

> <s_lp_Force_Field>
OPLS_2005

> <r_lp_Energy>
23.5318

> <b_lp_Chiralities_Consistent>
1

> <s_lp_Variant>
AV-unprocessed.smi:477-1

> <Gold.Version>
5.8.1

> <Gold.Id.Protein>
6NUR|6NUR_protein|mol2

> <Gold.PLP.Fitness>
56.4354

> <Gold.PLP.PLP>
-47.2546

> <Gold.PLP.part.hbond>
-4.0000

> <Gold.PLP.part.metal>
0.0000

> <Gold.PLP.part.buried>
-4.4921

> <Gold.PLP.part.nonpolar>
-39.1127

> <Gold.PLP.part.repulsive>
0.0605

> <Gold.PLP.ligand.clash>
0.0000

> <Gold.PLP.ligand.torsion>
0.4276

> <Gold.PLP.Chemscore.Hbond>
3.3200

> <Gold.PLP.Chemscore.CHOScore>
0.0000

> <Gold.PLP.Chemscore.Metal>
0.0000

> <Gold.Chemscore.Hbonds>
donor molecule, donor type, donor heavy atom, donor atom, acceptor molecule, acceptor atom, score
      P1  H  6896  6908       L1    18  0.68
      P1  H  6896  6909       L1     7  0.99
      P1  H  6931  6943       L1     3  0.93
      P1  H  6934  6947       L1     3  0.69

> <Gold.PLP.Chemscore.Internal.Correction>
0.0759

> <Gold.Rescore>
     Score         DG    S(hbond)    S(metal)    S(lipo)     H(rot)  DE(clash)    DE(int)     intcor
     22.28     -23.75       2.66        0.00     120.36       1.83       0.45       1.02       ----

> <Gold.Chemscore.Fitness>
22.2822

> <Gold.Chemscore.DG>
-23.7486

> <Gold.Chemscore.ZeroCoef>
-5.4800

> <Gold.Chemscore.Hbond>
2.6564

> <Gold.Chemscore.Metal>
0.0000

> <Gold.Chemscore.Lipo>
120.3614

> <Gold.Chemscore.Internal_Hbond>
0.0000

> <Gold.Chemscore.DEClash>
0.4463

> <Gold.Chemscore.DEInternal>
1.0201

> <Gold.Chemscore.Rot>
1.8305

> <Gold.Chemscore.Internal.Correction>
   9.000000E+99

> <Gold.Chemscore.Hbonds>
donor molecule, donor type, donor heavy atom, donor atom, acceptor molecule, acceptor atom, score
      P1  H  6896  6908       L1    18  0.07
      P1  H  6896  6909       L1     7  0.94
      P1  H  6931  6943       L1     3  0.45
      P1  H  6934  6947       L1     3  0.54

> <Gold.Chemscore.Hbond.Weighted>
-8.8723

> <Gold.Chemscore.Metal.Weighted>
-0.0000

> <Gold.Chemscore.Lipo.Weighted>
-14.0823

> <Gold.Chemscore.Internal_Hbond.Weighted>
0.0000

> <Gold.Chemscore.DEClash.Weighted>
0.4463

> <Gold.Chemscore.DEInternal.Weighted>
1.0201

> <Gold.Chemscore.Rot.Weighted>
4.6860

> <Gold.Chemscore.Internal.Correction.Weighted>
   9.000000E+99

> <Gold.Protein.RotatedTorsions>
[ 6907 6896 6895 6894 ] final  132.74 input  -60.11 | X-H torsion
[ 7974 7965 7964 7962 ] final -173.16 input  175.53 | X-H torsion
[ 8008 7997 7996 7995 ] final  -56.02 input   59.86 | X-H torsion
[ 10167 10162 10161 10158 ] final   30.50 input  -65.29 | X-H torsion
[ 10718 10713 10712 10709 ] final  -22.41 input   66.30 | X-H torsion
[ 10763 10752 10751 10750 ] final    6.57 input  -60.55 | X-H torsion
[ 11005 11000 10999 10996 ] final   63.05 input  -57.11 | X-H torsion

> <Gold.Protein.ActiveResidues>
 VAL166  LYS551  ARG553  GLY616  TRP617  ASP618  TYR619  PRO620  LYS621  CYS622 
 ASP623  PHE694  ASN695  SER759  ASP760  ASP761  ALA762  ILE779  LEU786  VAL792 
 PHE793  MET794  SER795  GLU796  ALA797  LYS798  CYS799  TRP800  GLU811  SER814 

> <Gold.Protein.RotatedAtoms>
  152.3292  133.5939  159.5797 H   0  0  0  0  0  0  0  0  0  0  0  0  # atno 6907 bound_to 6896
  150.7413  133.9894  159.3611 H   0  0  0  0  0  0  0  0  0  0  0  0  # atno 6908 bound_to 6896
  151.7770  135.0772  160.0419 H   0  0  0  0  0  0  0  0  0  0  0  0  # atno 6909 bound_to 6896
  144.7140  140.1664  143.6371 H   0  0  0  0  0  0  0  0  0  0  0  0  # atno 7974 bound_to 7965
  154.4215  140.1139  156.5571 H   0  0  0  0  0  0  0  0  0  0  0  0  # atno 8008 bound_to 7997
  155.6350  140.3496  155.4676 H   0  0  0  0  0  0  0  0  0  0  0  0  # atno 8009 bound_to 7997
  155.9917  140.1181  157.0621 H   0  0  0  0  0  0  0  0  0  0  0  0  # atno 8010 bound_to 7997
  140.4673  144.0817  150.6228 H   0  0  0  0  0  0  0  0  0  0  0  0  # atno 10167 bound_to 10162
  156.5050  130.4596  149.6680 H   0  0  0  0  0  0  0  0  0  0  0  0  # atno 10718 bound_to 10713
  153.2462  135.6909  153.7729 H   0  0  0  0  0  0  0  0  0  0  0  0  # atno 10763 bound_to 10752
  153.6840  135.3324  155.3186 H   0  0  0  0  0  0  0  0  0  0  0  0  # atno 10764 bound_to 10752
  154.8376  135.4529  154.1402 H   0  0  0  0  0  0  0  0  0  0  0  0  # atno 10765 bound_to 10752
  140.0051  134.6383  155.9869 H   0  0  0  0  0  0  0  0  0  0  0  0  # atno 11005 bound_to 11000
  145.8983  139.2415  143.1508 LP  0  0  0  0  0  0  0  0  0  0  0  0  # atno 17320 bound_to 7965
  145.9835  140.8662  143.0102 LP  0  0  0  0  0  0  0  0  0  0  0  0  # atno 17321 bound_to 7965
  140.4021  143.2699  151.9935 LP  0  0  0  0  0  0  0  0  0  0  0  0  # atno 17342 bound_to 10162
  139.4813  144.5989  151.7641 LP  0  0  0  0  0  0  0  0  0  0  0  0  # atno 17343 bound_to 10162
  156.3296  130.7324  151.2251 LP  0  0  0  0  0  0  0  0  0  0  0  0  # atno 17370 bound_to 10713
  157.7458  131.0433  150.4739 LP  0  0  0  0  0  0  0  0  0  0  0  0  # atno 17371 bound_to 10713
  141.1670  133.6537  156.4516 LP  0  0  0  0  0  0  0  0  0  0  0  0  # atno 17394 bound_to 11000
  140.4657  134.6800  157.5106 LP  0  0  0  0  0  0  0  0  0  0  0  0  # atno 17395 bound_to 11000

$$$$
