AV-unprocessed.smi:1583|AV-procd|sdf|6364|dock3
  -GOLD-   22720 6593D 1   1.00000     0.00000
 Structure written by MMmdl.
 37 38  0  0  0  0  0  0  0  0  2 V2000
  146.7806  139.0681  152.3968 C   0  0  0  0  0  0  0  0  0  0  0  0
  147.5529  140.0133  153.1886 N   0  0  0  0  0  0  0  0  0  0  0  0
  147.1163  140.5804  154.3227 C   0  0  0  0  0  0  0  0  0  0  0  0
  146.0085  140.3564  154.8097 O   0  0  0  0  0  0  0  0  0  0  0  0
  148.0685  141.5561  155.0088 C   0  0  0  0  0  0  0  0  0  0  0  0
  149.7892  140.9823  154.9873 S   0  0  0  0  0  0  0  0  0  0  0  0
  150.5707  141.7757  156.3555 C   0  0  0  0  0  0  0  0  0  0  0  0
  150.5774  143.1139  156.6090 N   0  3  0  0  0  0  0  0  0  0  0  0
  151.3041  143.3641  157.7740 C   0  0  0  0  0  0  0  0  0  0  0  0
  151.5924  144.5571  158.4295 C   0  0  0  0  0  0  0  0  0  0  0  0
  152.3695  144.4625  159.6028 C   0  0  0  0  0  0  0  0  0  0  0  0
  152.8280  143.2181  160.0823 C   0  0  0  0  0  0  0  0  0  0  0  0
  152.5288  142.0147  159.4099 C   0  0  0  0  0  0  0  0  0  0  0  0
  151.7595  142.1169  158.2514 C   0  0  0  0  0  0  0  0  0  0  0  0
  151.2799  141.1647  157.3457 N   0  0  0  0  0  0  0  0  0  0  0  0
  151.5926  139.7449  157.5607 C   0  0  0  0  0  0  0  0  0  0  0  0
  151.9752  139.0292  156.2572 C   0  0  0  0  0  0  0  0  0  0  0  0
  153.3597  138.7213  156.2724 O   0  0  0  0  0  0  0  0  0  0  0  0
  153.6955  137.7811  157.2772 C   0  0  0  0  0  0  0  0  0  0  0  0
  147.3629  138.7417  151.5349 H   0  0  0  0  0  0  0  0  0  0  0  0
  145.8606  139.5277  152.0329 H   0  0  0  0  0  0  0  0  0  0  0  0
  146.5211  138.1877  152.9862 H   0  0  0  0  0  0  0  0  0  0  0  0
  148.4773  140.2483  152.8566 H   0  0  0  0  0  0  0  0  0  0  0  0
  148.0078  142.5272  154.5164 H   0  0  0  0  0  0  0  0  0  0  0  0
  147.7567  141.7009  156.0439 H   0  0  0  0  0  0  0  0  0  0  0  0
  151.2433  145.5119  158.0640 H   0  0  0  0  0  0  0  0  0  0  0  0
  152.6195  145.3627  160.1456 H   0  0  0  0  0  0  0  0  0  0  0  0
  153.4219  143.1855  160.9843 H   0  0  0  0  0  0  0  0  0  0  0  0
  152.8859  141.0666  159.7843 H   0  0  0  0  0  0  0  0  0  0  0  0
  152.3893  139.6660  158.3010 H   0  0  0  0  0  0  0  0  0  0  0  0
  150.7143  139.2726  158.0013 H   0  0  0  0  0  0  0  0  0  0  0  0
  151.3928  138.1131  156.1479 H   0  0  0  0  0  0  0  0  0  0  0  0
  151.7413  139.6672  155.4040 H   0  0  0  0  0  0  0  0  0  0  0  0
  154.7666  137.5810  157.2483 H   0  0  0  0  0  0  0  0  0  0  0  0
  153.1723  136.8364  157.1240 H   0  0  0  0  0  0  0  0  0  0  0  0
  153.4507  138.1603  158.2701 H   0  0  0  0  0  0  0  0  0  0  0  0
  150.1200  143.8025  156.0259 H   0  0  0  0  0  0  0  0  0  0  0  0
  1  2  1  0  0  0  0
  1 20  1  0  0  0  0
  1 21  1  0  0  0  0
  1 22  1  0  0  0  0
  2  3  1  0  0  0  0
  2 23  1  0  0  0  0
  3  4  2  0  0  0  0
  3  5  1  0  0  0  0
  5  6  1  0  0  0  0
  5 24  1  0  0  0  0
  5 25  1  0  0  0  0
  6  7  1  0  0  0  0
  7 15  1  0  0  0  0
  7  8  2  0  0  0  0
  8  9  1  0  0  0  0
  8 37  1  0  0  0  0
  9 14  2  0  0  0  0
  9 10  1  0  0  0  0
 10 11  2  0  0  0  0
 10 26  1  0  0  0  0
 11 12  1  0  0  0  0
 11 27  1  0  0  0  0
 12 13  2  0  0  0  0
 12 28  1  0  0  0  0
 13 14  1  0  0  0  0
 13 29  1  0  0  0  0
 14 15  1  0  0  0  0
 15 16  1  0  0  0  0
 16 17  1  0  0  0  0
 16 30  1  0  0  0  0
 16 31  1  0  0  0  0
 17 18  1  0  0  0  0
 17 32  1  0  0  0  0
 17 33  1  0  0  0  0
 18 19  1  0  0  0  0
 19 34  1  0  0  0  0
 19 35  1  0  0  0  0
 19 36  1  0  0  0  0
M  CHG  1   8   1
M  END
> <s_m_source_file>
AV-unprocessed.smi

> <i_m_source_file_index>
1583

> <i_lp_mmshare_version>
43012

> <i_f3d_flags>
0

> <s_epik_input>
W0NIM11bTkhdQyg9TylbQ0gyXVNjKG4xKW4oW0NIMl1bQ0gyXU9bQ0gzXSljKGMxMilbY0hdW2NIXVtjSF1bY0hdMg==

> <s_epik_cmdline>
J2VwaWtfcHl0aG9uJywgJy1waCcsICc3LjAnLCAnLXRuJywgJzgnLCAnLW1hJywgJzIwMCcsICctbWV0YWxfYmluZGluZycsICctaW1hZScsICc8aW5maWxlLm1hZT4nLCAnLW9tYWUnLCAnPG91dGZpbGUubWFlPic=

> <r_epik_Ionization_Penalty>
1.68337

> <r_epik_Ionization_Penalty_Charging>
1.68337

> <r_epik_Ionization_Penalty_Neutral>
1.65978e-07

> <r_epik_State_Penalty>
1.78799

> <r_epik_Charging_Adjusted_Penalty>
3.47136

> <i_epik_Tot_Q>
1

> <i_epik_Tot_abs_Q>
1

> <r_epik_Metal_State_Penalty>
1.82204

> <b_epik_Metal_Only>
0

> <s_lp_Force_Field>
OPLS_2005

> <r_lp_Energy>
8.62321

> <b_lp_Chiralities_Consistent>
1

> <s_lp_Variant>
AV-unprocessed.smi:1583-2

> <Gold.Version>
5.8.1

> <Gold.Id.Protein>
6NUR|6NUR_protein|mol2

> <Gold.PLP.Fitness>
52.1740

> <Gold.PLP.PLP>
-43.0577

> <Gold.PLP.part.hbond>
-2.8838

> <Gold.PLP.part.metal>
0.0000

> <Gold.PLP.part.buried>
-3.8991

> <Gold.PLP.part.nonpolar>
-36.9966

> <Gold.PLP.part.repulsive>
0.2335

> <Gold.PLP.ligand.clash>
0.0000

> <Gold.PLP.ligand.torsion>
1.0545

> <Gold.PLP.Chemscore.Hbond>
3.7280

> <Gold.PLP.Chemscore.CHOScore>
0.0000

> <Gold.PLP.Chemscore.Metal>
0.0000

> <Gold.Chemscore.Hbonds>
donor molecule, donor type, donor heavy atom, donor atom, acceptor molecule, acceptor atom, score
      L1  H     2    23       P1  7957  0.74
      L1  H     8    37       P1  8028  2.00
      P1  H  7997  8010       L1    18  0.98

> <Gold.PLP.Chemscore.Internal.Correction>
0.0412

> <Gold.Rescore>
     Score         DG    S(hbond)    S(metal)    S(lipo)     H(rot)  DE(clash)    DE(int)     intcor
     17.91     -18.81       2.20        0.00     100.36       2.25       0.05       0.85       ----

> <Gold.Chemscore.Fitness>
17.9130

> <Gold.Chemscore.DG>
-18.8125

> <Gold.Chemscore.ZeroCoef>
-5.4800

> <Gold.Chemscore.Hbond>
2.2042

> <Gold.Chemscore.Metal>
0.0000

> <Gold.Chemscore.Lipo>
100.3624

> <Gold.Chemscore.Internal_Hbond>
0.0000

> <Gold.Chemscore.DEClash>
0.0515

> <Gold.Chemscore.DEInternal>
0.8480

> <Gold.Chemscore.Rot>
2.2546

> <Gold.Chemscore.Internal.Correction>
   9.000000E+99

> <Gold.Chemscore.Hbonds>
donor molecule, donor type, donor heavy atom, donor atom, acceptor molecule, acceptor atom, score
      L1  H     2    23       P1  7957  0.69
      L1  H     8    37       P1  8028  0.94
      P1  H  7997  8010       L1    18  0.54

> <Gold.Chemscore.Hbond.Weighted>
-7.3620

> <Gold.Chemscore.Metal.Weighted>
-0.0000

> <Gold.Chemscore.Lipo.Weighted>
-11.7424

> <Gold.Chemscore.Internal_Hbond.Weighted>
0.0000

> <Gold.Chemscore.DEClash.Weighted>
0.0515

> <Gold.Chemscore.DEInternal.Weighted>
0.8480

> <Gold.Chemscore.Rot.Weighted>
5.7719

> <Gold.Chemscore.Internal.Correction.Weighted>
   9.000000E+99

> <Gold.Protein.RotatedTorsions>
[ 6907 6896 6895 6894 ] final  -11.03 input  -60.11 | X-H torsion
[ 7974 7965 7964 7962 ] final  121.44 input  175.53 | X-H torsion
[ 8008 7997 7996 7995 ] final   69.50 input   59.86 | X-H torsion
[ 10167 10162 10161 10158 ] final  -95.98 input  -65.29 | X-H torsion
[ 10718 10713 10712 10709 ] final -166.02 input   66.30 | X-H torsion
[ 10763 10752 10751 10750 ] final   -5.71 input  -60.55 | X-H torsion
[ 11005 11000 10999 10996 ] final  121.84 input  -57.11 | X-H torsion

> <Gold.Protein.ActiveResidues>
 VAL166  LYS551  ARG553  GLY616  TRP617  ASP618  TYR619  PRO620  LYS621  CYS622 
 ASP623  PHE694  ASN695  SER759  ASP760  ASP761  ALA762  ILE779  LEU786  VAL792 
 PHE793  MET794  SER795  GLU796  ALA797  LYS798  CYS799  TRP800  GLU811  SER814 

> <Gold.Protein.RotatedAtoms>
  151.3926  135.0958  159.9530 H   0  0  0  0  0  0  0  0  0  0  0  0  # atno 6907 bound_to 6896
  152.5075  133.8965  159.7430 H   0  0  0  0  0  0  0  0  0  0  0  0  # atno 6908 bound_to 6896
  150.9422  133.6588  159.2817 H   0  0  0  0  0  0  0  0  0  0  0  0  # atno 6909 bound_to 6896
  145.1193  139.3400  143.4722 H   0  0  0  0  0  0  0  0  0  0  0  0  # atno 7974 bound_to 7965
  155.7246  140.3493  155.5031 H   0  0  0  0  0  0  0  0  0  0  0  0  # atno 8008 bound_to 7997
  155.9238  140.1072  157.1207 H   0  0  0  0  0  0  0  0  0  0  0  0  # atno 8009 bound_to 7997
  154.4074  140.1244  156.4701 H   0  0  0  0  0  0  0  0  0  0  0  0  # atno 8010 bound_to 7997
  140.2985  143.3177  152.0273 H   0  0  0  0  0  0  0  0  0  0  0  0  # atno 10167 bound_to 10162
  156.6618  130.9049  151.3030 H   0  0  0  0  0  0  0  0  0  0  0  0  # atno 10718 bound_to 10713
  153.4023  135.7005  153.6417 H   0  0  0  0  0  0  0  0  0  0  0  0  # atno 10763 bound_to 10752
  153.4946  135.3665  155.2509 H   0  0  0  0  0  0  0  0  0  0  0  0  # atno 10764 bound_to 10752
  154.8711  135.4097  154.3360 H   0  0  0  0  0  0  0  0  0  0  0  0  # atno 10765 bound_to 10752
  139.9243  134.9640  156.8020 H   0  0  0  0  0  0  0  0  0  0  0  0  # atno 11005 bound_to 11000
  146.3522  140.1145  142.8602 LP  0  0  0  0  0  0  0  0  0  0  0  0  # atno 17320 bound_to 7965
  145.0758  140.9187  143.4854 LP  0  0  0  0  0  0  0  0  0  0  0  0  # atno 17321 bound_to 7965
  139.4920  144.6473  151.6751 LP  0  0  0  0  0  0  0  0  0  0  0  0  # atno 17342 bound_to 10162
  140.5671  144.0171  150.6198 LP  0  0  0  0  0  0  0  0  0  0  0  0  # atno 17343 bound_to 10162
  157.7107  130.9437  150.1079 LP  0  0  0  0  0  0  0  0  0  0  0  0  # atno 17370 bound_to 10713
  156.2005  130.3660  149.8794 LP  0  0  0  0  0  0  0  0  0  0  0  0  # atno 17371 bound_to 10713
  140.6382  133.9842  155.7694 LP  0  0  0  0  0  0  0  0  0  0  0  0  # atno 17394 bound_to 11000
  141.0788  134.0093  157.3417 LP  0  0  0  0  0  0  0  0  0  0  0  0  # atno 17395 bound_to 11000

$$$$
