AV-unprocessed.smi:515|AV-procd|sdf|2781|dock1
  -GOLD-   2262023253D 1   1.00000     0.00000
 Structure written by MMmdl.
 48 50  0  0  0  0  0  0  0  0  2 V2000
  148.3761  135.5774  160.1241 C   0  0  0  0  0  0  0  0  0  0  0  0
  148.0549  134.5783  159.0108 C   0  0  0  0  0  0  0  0  0  0  0  0
  149.2031  134.4231  158.1963 O   0  0  0  0  0  0  0  0  0  0  0  0
  148.9585  133.6510  157.0327 C   0  0  0  0  0  0  0  0  0  0  0  0
  149.6777  134.2855  155.8336 C   0  0  0  0  0  0  0  0  0  0  0  0
  149.1572  135.6128  155.5212 N   0  0  0  0  0  0  0  0  0  0  0  0
  147.9238  135.9300  155.0454 C   0  0  0  0  0  0  0  0  0  0  0  0
  146.8528  134.9144  154.7628 C   0  0  0  0  0  0  0  0  0  0  0  0
  146.5965  135.0287  153.3046 N   0  3  0  0  0  0  0  0  0  0  0  0
  146.3822  133.7256  152.6248 C   0  0  0  0  0  0  0  0  0  0  0  0
  146.1619  133.9366  151.1177 C   0  0  0  0  0  0  0  0  0  0  0  0
  145.0623  134.8151  150.9133 O   0  0  0  0  0  0  0  0  0  0  0  0
  145.2941  136.0975  151.4826 C   0  0  0  0  0  0  0  0  0  0  0  0
  145.4839  135.9595  153.0026 C   0  0  0  0  0  0  0  0  0  0  0  0
  147.7317  137.2393  154.8530 N   0  0  0  0  0  0  0  0  0  0  0  0
  148.9374  137.8012  155.2449 C   0  0  0  0  0  0  0  0  0  0  0  0
  149.8048  136.8420  155.6547 C   0  0  0  0  0  0  0  0  0  0  0  0
  151.1555  137.1574  156.1423 C   0  0  0  0  0  0  0  0  0  0  0  0
  151.9559  136.3068  156.5240 O   0  0  0  0  0  0  0  0  0  0  0  0
  151.4274  138.4849  156.1307 N   0  0  0  0  0  0  0  0  0  0  0  0
  150.6027  139.4994  155.7284 C   0  0  0  0  0  0  0  0  0  0  0  0
  150.9924  140.6658  155.7780 O   0  0  0  0  0  0  0  0  0  0  0  0
  149.3515  139.1630  155.2783 N   0  0  0  0  0  0  0  0  0  0  0  0
  148.4284  140.2089  154.8337 C   0  0  0  0  0  0  0  0  0  0  0  0
  152.3431  138.7565  156.4582 H   0  0  0  0  0  0  0  0  0  0  0  0
  147.5146  135.7250  160.7755 H   0  0  0  0  0  0  0  0  0  0  0  0
  148.6548  136.5471  159.7111 H   0  0  0  0  0  0  0  0  0  0  0  0
  149.2044  135.2244  160.7391 H   0  0  0  0  0  0  0  0  0  0  0  0
  147.7654  133.6193  159.4427 H   0  0  0  0  0  0  0  0  0  0  0  0
  147.2165  134.9407  158.4142 H   0  0  0  0  0  0  0  0  0  0  0  0
  149.3145  132.6304  157.1791 H   0  0  0  0  0  0  0  0  0  0  0  0
  147.8859  133.5988  156.8412 H   0  0  0  0  0  0  0  0  0  0  0  0
  150.7473  134.3513  156.0252 H   0  0  0  0  0  0  0  0  0  0  0  0
  149.5872  133.6463  154.9562 H   0  0  0  0  0  0  0  0  0  0  0  0
  147.1341  133.9023  155.0506 H   0  0  0  0  0  0  0  0  0  0  0  0
  145.9647  135.1856  155.3353 H   0  0  0  0  0  0  0  0  0  0  0  0
  147.2402  133.0696  152.7723 H   0  0  0  0  0  0  0  0  0  0  0  0
  145.5173  133.2237  153.0614 H   0  0  0  0  0  0  0  0  0  0  0  0
  147.0591  134.3400  150.6455 H   0  0  0  0  0  0  0  0  0  0  0  0
  145.9480  132.9841  150.6327 H   0  0  0  0  0  0  0  0  0  0  0  0
  146.1662  136.5630  151.0205 H   0  0  0  0  0  0  0  0  0  0  0  0
  144.4396  136.7393  151.2677 H   0  0  0  0  0  0  0  0  0  0  0  0
  144.5649  135.5931  153.4630 H   0  0  0  0  0  0  0  0  0  0  0  0
  145.6923  136.9387  153.4358 H   0  0  0  0  0  0  0  0  0  0  0  0
  148.8736  140.7988  154.0312 H   0  0  0  0  0  0  0  0  0  0  0  0
  148.1895  140.8814  155.6588 H   0  0  0  0  0  0  0  0  0  0  0  0
  147.4883  139.8071  154.4563 H   0  0  0  0  0  0  0  0  0  0  0  0
  147.4276  135.4398  152.9027 H   0  0  0  0  0  0  0  0  0  0  0  0
  1  2  1  0  0  0  0
  1 26  1  0  0  0  0
  1 27  1  0  0  0  0
  1 28  1  0  0  0  0
  2  3  1  0  0  0  0
  2 29  1  0  0  0  0
  2 30  1  0  0  0  0
  3  4  1  0  0  0  0
  4  5  1  0  0  0  0
  4 31  1  0  0  0  0
  4 32  1  0  0  0  0
  5  6  1  0  0  0  0
  5 33  1  0  0  0  0
  5 34  1  0  0  0  0
  6 17  1  0  0  0  0
  6  7  1  0  0  0  0
  7  8  1  0  0  0  0
  7 15  2  0  0  0  0
  8  9  1  0  0  0  0
  8 35  1  0  0  0  0
  8 36  1  0  0  0  0
  9 14  1  0  0  0  0
  9 10  1  0  0  0  0
  9 48  1  0  0  0  0
 10 11  1  0  0  0  0
 10 37  1  0  0  0  0
 10 38  1  0  0  0  0
 11 12  1  0  0  0  0
 11 39  1  0  0  0  0
 11 40  1  0  0  0  0
 12 13  1  0  0  0  0
 13 14  1  0  0  0  0
 13 41  1  0  0  0  0
 13 42  1  0  0  0  0
 14 43  1  0  0  0  0
 14 44  1  0  0  0  0
 15 16  1  0  0  0  0
 16 23  1  0  0  0  0
 16 17  2  0  0  0  0
 17 18  1  0  0  0  0
 18 19  2  0  0  0  0
 18 20  1  0  0  0  0
 20 25  1  0  0  0  0
 20 21  1  0  0  0  0
 21 22  2  0  0  0  0
 21 23  1  0  0  0  0
 23 24  1  0  0  0  0
 24 45  1  0  0  0  0
 24 46  1  0  0  0  0
 24 47  1  0  0  0  0
M  CHG  1   9   1
M  END
> <s_m_source_file>
AV-unprocessed.smi

> <i_m_source_file_index>
515

> <i_lp_mmshare_version>
43012

> <i_f3d_flags>
0

> <s_epik_input>
W0NIM11uMWMoPU8pW25IXWMoPU8pYyhjMTIpbihbQ0gyXVtDSDJdT1tDSDJdW0NIM10pYyhuMilbQ0gyXU4zW0NIMl1bQ0gyXU9bQ0gyXVtDSDJdMw==

> <s_epik_cmdline>
J2VwaWtfcHl0aG9uJywgJy1waCcsICc3LjAnLCAnLXRuJywgJzgnLCAnLW1hJywgJzIwMCcsICctbWV0YWxfYmluZGluZycsICctaW1hZScsICc8aW5maWxlLm1hZT4nLCAnLW9tYWUnLCAnPG91dGZpbGUubWFlPic=

> <r_epik_Ionization_Penalty>
1.12075

> <r_epik_Ionization_Penalty_Charging>
1.12075

> <r_epik_Ionization_Penalty_Neutral>
5.33793e-09

> <r_epik_State_Penalty>
1.17893

> <r_epik_Charging_Adjusted_Penalty>
2.29968

> <i_epik_Tot_Q>
1

> <i_epik_Tot_abs_Q>
1

> <r_epik_Metal_State_Penalty>
1.3264

> <b_epik_Metal_Only>
0

> <s_lp_Force_Field>
OPLS_2005

> <r_lp_Energy>
34.9817

> <b_lp_Chiralities_Consistent>
1

> <s_lp_Variant>
AV-unprocessed.smi:515-2

> <Gold.Version>
5.8.1

> <Gold.Id.Protein>
6NUR|6NUR_protein|mol2

> <Gold.PLP.Fitness>
42.0731

> <Gold.PLP.PLP>
-29.1457

> <Gold.PLP.part.hbond>
-4.0000

> <Gold.PLP.part.metal>
0.0000

> <Gold.PLP.part.buried>
-5.3945

> <Gold.PLP.part.nonpolar>
-21.7314

> <Gold.PLP.part.repulsive>
0.9199

> <Gold.PLP.ligand.clash>
0.0000

> <Gold.PLP.ligand.torsion>
0.8713

> <Gold.PLP.Chemscore.Hbond>
4.8640

> <Gold.PLP.Chemscore.CHOScore>
0.0000

> <Gold.PLP.Chemscore.Metal>
0.0000

> <Gold.Chemscore.Hbonds>
donor molecule, donor type, donor heavy atom, donor atom, acceptor molecule, acceptor atom, score
      L1  H     9    48       P1  7948  2.00
      P1  H  6896  6907       L1     3  1.00
      P1  H  7989  7998       L1    22  0.12
      P1  H 10752 10765       L1    19  0.60

> <Gold.PLP.Chemscore.Internal.Correction>
0.0780

> <Gold.Rescore>
     Score         DG    S(hbond)    S(metal)    S(lipo)     H(rot)  DE(clash)    DE(int)     intcor
     15.35     -16.55       3.45        0.00      44.65       2.22       0.37       0.82       ----

> <Gold.Chemscore.Fitness>
15.3531

> <Gold.Chemscore.DG>
-16.5477

> <Gold.Chemscore.ZeroCoef>
-5.4800

> <Gold.Chemscore.Hbond>
3.4498

> <Gold.Chemscore.Metal>
0.0000

> <Gold.Chemscore.Lipo>
44.6494

> <Gold.Chemscore.Internal_Hbond>
0.0000

> <Gold.Chemscore.DEClash>
0.3733

> <Gold.Chemscore.DEInternal>
0.8214

> <Gold.Chemscore.Rot>
2.2182

> <Gold.Chemscore.Internal.Correction>
   9.000000E+99

> <Gold.Chemscore.Hbonds>
donor molecule, donor type, donor heavy atom, donor atom, acceptor molecule, acceptor atom, score
      L1  H     9    48       P1  7948  0.97
      P1  H  6896  6907       L1     3  0.45
      P1  H  7989  7998       L1    22  0.03
      P1  H 10752 10765       L1    19  0.59

> <Gold.Chemscore.Hbond.Weighted>
-11.5223

> <Gold.Chemscore.Metal.Weighted>
-0.0000

> <Gold.Chemscore.Lipo.Weighted>
-5.2240

> <Gold.Chemscore.Internal_Hbond.Weighted>
0.0000

> <Gold.Chemscore.DEClash.Weighted>
0.3733

> <Gold.Chemscore.DEInternal.Weighted>
0.8214

> <Gold.Chemscore.Rot.Weighted>
5.6785

> <Gold.Chemscore.Internal.Correction.Weighted>
   9.000000E+99

> <Gold.Protein.RotatedTorsions>
[ 6907 6896 6895 6894 ] final  -84.34 input  -60.11 | X-H torsion
[ 7974 7965 7964 7962 ] final -105.54 input  175.53 | X-H torsion
[ 8008 7997 7996 7995 ] final  -52.37 input   59.86 | X-H torsion
[ 10167 10162 10161 10158 ] final   -1.49 input  -65.29 | X-H torsion
[ 10718 10713 10712 10709 ] final -163.38 input   66.30 | X-H torsion
[ 10763 10752 10751 10750 ] final -122.20 input  -60.55 | X-H torsion
[ 11005 11000 10999 10996 ] final  -78.65 input  -57.11 | X-H torsion

> <Gold.Protein.ActiveResidues>
 VAL166  LYS551  ARG553  GLY616  TRP617  ASP618  TYR619  PRO620  LYS621  CYS622 
 ASP623  PHE694  ASN695  SER759  ASP760  ASP761  ALA762  ILE779  LEU786  VAL792 
 PHE793  MET794  SER795  GLU796  ALA797  LYS798  CYS799  TRP800  GLU811  SER814 

> <Gold.Protein.RotatedAtoms>
  150.6877  134.3374  159.4852 H   0  0  0  0  0  0  0  0  0  0  0  0  # atno 6907 bound_to 6896
  152.1231  134.9188  160.0571 H   0  0  0  0  0  0  0  0  0  0  0  0  # atno 6908 bound_to 6896
  152.0386  133.3933  159.4364 H   0  0  0  0  0  0  0  0  0  0  0  0  # atno 6909 bound_to 6896
  145.2292  140.9164  143.3214 H   0  0  0  0  0  0  0  0  0  0  0  0  # atno 7974 bound_to 7965
  154.4105  140.1225  156.4981 H   0  0  0  0  0  0  0  0  0  0  0  0  # atno 8008 bound_to 7997
  155.6923  140.3495  155.4879 H   0  0  0  0  0  0  0  0  0  0  0  0  # atno 8009 bound_to 7997
  155.9458  140.1095  157.1008 H   0  0  0  0  0  0  0  0  0  0  0  0  # atno 8010 bound_to 7997
  140.6812  143.6769  150.8138 H   0  0  0  0  0  0  0  0  0  0  0  0  # atno 10167 bound_to 10162
  156.6239  130.8902  151.2963 H   0  0  0  0  0  0  0  0  0  0  0  0  # atno 10718 bound_to 10713
  154.8684  135.4141  154.2744 H   0  0  0  0  0  0  0  0  0  0  0  0  # atno 10763 bound_to 10752
  153.3648  135.7005  153.6689 H   0  0  0  0  0  0  0  0  0  0  0  0  # atno 10764 bound_to 10752
  153.5575  135.3616  155.2758 H   0  0  0  0  0  0  0  0  0  0  0  0  # atno 10765 bound_to 10752
  141.1665  133.7072  156.8004 H   0  0  0  0  0  0  0  0  0  0  0  0  # atno 11005 bound_to 11000
  144.9692  139.3897  143.6317 LP  0  0  0  0  0  0  0  0  0  0  0  0  # atno 17320 bound_to 7965
  146.3357  139.8782  142.8828 LP  0  0  0  0  0  0  0  0  0  0  0  0  # atno 17321 bound_to 7965
  140.0470  143.5288  152.2691 LP  0  0  0  0  0  0  0  0  0  0  0  0  # atno 17342 bound_to 10162
  139.6136  144.7614  151.2896 LP  0  0  0  0  0  0  0  0  0  0  0  0  # atno 17343 bound_to 10162
  157.7219  130.9570  150.1476 LP  0  0  0  0  0  0  0  0  0  0  0  0  # atno 17370 bound_to 10713
  156.2289  130.3680  149.8468 LP  0  0  0  0  0  0  0  0  0  0  0  0  # atno 17371 bound_to 10713
  140.2261  134.8721  157.3428 LP  0  0  0  0  0  0  0  0  0  0  0  0  # atno 17394 bound_to 11000
  140.1939  134.4338  155.7700 LP  0  0  0  0  0  0  0  0  0  0  0  0  # atno 17395 bound_to 11000

$$$$
