AV-unprocessed.smi:1772|AV-procd|sdf|7159|dock2
  -GOLD-   22720 8393D 1   1.00000     0.00000
 Structure written by MMmdl.
 33 34  0  0  0  0  0  0  0  0  1 V2000
  144.6757  137.1245  151.4498 O   0  0  0  0  0  0  0  0  0  0  0  0
  145.8747  136.8513  151.5024 C   0  0  0  0  0  0  0  0  0  0  0  0
  146.8264  137.7615  151.7526 N   0  0  0  0  0  0  0  0  0  0  0  0
  146.5829  139.1774  152.0097 C   0  0  0  0  0  0  0  0  0  0  0  0
  147.0922  139.6228  153.3957 C   0  0  2  0  0  0  0  0  0  0  0  0
  147.3427  141.1422  153.5008 C   0  0  0  0  0  0  0  0  0  0  0  0
  148.1225  141.4219  154.7890 C   0  0  0  0  0  0  0  0  0  0  0  0
  149.2333  139.9842  155.0119 S   0  0  0  0  0  0  0  0  0  0  0  0
  150.5716  140.3168  154.5004 O   0  0  0  0  0  0  0  0  0  0  0  0
  149.0537  139.4433  156.3676 O   0  0  0  0  0  0  0  0  0  0  0  0
  148.3882  138.9000  153.7982 C   0  0  0  0  0  0  0  0  0  0  0  0
  146.4078  135.6333  151.3013 N   0  0  0  0  0  0  0  0  0  0  0  0
  145.7452  134.4029  151.0395 C   0  0  0  0  0  0  0  0  0  0  0  0
  146.5352  133.2373  150.9551 C   0  0  0  0  0  0  0  0  0  0  0  0
  145.9009  132.0023  150.7138 C   0  0  0  0  0  0  0  0  0  0  0  0
  144.5659  131.8707  150.5659 N   0  0  0  0  0  0  0  0  0  0  0  0
  143.8097  132.9848  150.6606 C   0  0  0  0  0  0  0  0  0  0  0  0
  144.3427  134.2674  150.8993 C   0  0  0  0  0  0  0  0  0  0  0  0
  147.7876  137.4535  151.7744 H   0  0  0  0  0  0  0  0  0  0  0  0
  147.0476  139.7781  151.2259 H   0  0  0  0  0  0  0  0  0  0  0  0
  145.5094  139.3520  151.9326 H   0  0  0  0  0  0  0  0  0  0  0  0
  146.3403  139.3684  154.1442 H   0  0  0  0  0  0  0  0  0  0  0  0
  147.9414  141.4669  152.6488 H   0  0  0  0  0  0  0  0  0  0  0  0
  146.4129  141.7114  153.4730 H   0  0  0  0  0  0  0  0  0  0  0  0
  148.7002  142.3452  154.7498 H   0  0  0  0  0  0  0  0  0  0  0  0
  147.4502  141.4646  155.6463 H   0  0  0  0  0  0  0  0  0  0  0  0
  148.2048  137.9187  154.2364 H   0  0  0  0  0  0  0  0  0  0  0  0
  149.0548  138.7775  152.9442 H   0  0  0  0  0  0  0  0  0  0  0  0
  147.4161  135.5877  151.2962 H   0  0  0  0  0  0  0  0  0  0  0  0
  147.6087  133.2835  151.0677 H   0  0  0  0  0  0  0  0  0  0  0  0
  146.4822  131.0951  150.6397 H   0  0  0  0  0  0  0  0  0  0  0  0
  142.7439  132.8504  150.5491 H   0  0  0  0  0  0  0  0  0  0  0  0
  143.6696  135.1066  150.9809 H   0  0  0  0  0  0  0  0  0  0  0  0
  1  2  2  0  0  0  0
  2  3  1  0  0  0  0
  2 12  1  0  0  0  0
  3  4  1  0  0  0  0
  3 19  1  0  0  0  0
  4  5  1  0  0  0  0
  4 20  1  0  0  0  0
  4 21  1  0  0  0  0
  5 11  1  0  0  0  0
  5  6  1  0  0  0  0
  5 22  1  0  0  0  0
  6  7  1  0  0  0  0
  6 23  1  0  0  0  0
  6 24  1  0  0  0  0
  7  8  1  0  0  0  0
  7 25  1  0  0  0  0
  7 26  1  0  0  0  0
  8  9  2  0  0  0  0
  8 10  2  0  0  0  0
  8 11  1  0  0  0  0
 11 27  1  0  0  0  0
 11 28  1  0  0  0  0
 12 13  1  0  0  0  0
 12 29  1  0  0  0  0
 13 18  1  0  0  0  0
 13 14  2  0  0  0  0
 14 15  1  0  0  0  0
 14 30  1  0  0  0  0
 15 16  2  0  0  0  0
 15 31  1  0  0  0  0
 16 17  1  0  0  0  0
 17 18  2  0  0  0  0
 17 32  1  0  0  0  0
 18 33  1  0  0  0  0
M  END
> <s_m_source_file>
AV-unprocessed.smi

> <i_m_source_file_index>
1772

> <i_lp_mmshare_version>
43012

> <i_f3d_flags>
0

> <s_epik_input>
W2NIXTFbY0hdbltjSF1bY0hdYzFbTkhdQyg9TylbTkhdW0NIMl1bQ0BASF0oW0NIMl0yKVtDSDJdW0NIMl1TMig9Tyk9Tw==

> <s_epik_cmdline>
J2VwaWtfcHl0aG9uJywgJy1waCcsICc3LjAnLCAnLXRuJywgJzgnLCAnLW1hJywgJzIwMCcsICctbWV0YWxfYmluZGluZycsICctaW1hZScsICc8aW5maWxlLm1hZT4nLCAnLW9tYWUnLCAnPG91dGZpbGUubWFlPic=

> <r_epik_Ionization_Penalty>
0.110577

> <r_epik_Ionization_Penalty_Charging>
0

> <r_epik_Ionization_Penalty_Neutral>
0.110577

> <r_epik_State_Penalty>
0.100289

> <r_epik_Charging_Adjusted_Penalty>
0.100289

> <i_epik_Tot_Q>
0

> <i_epik_Tot_abs_Q>
0

> <r_epik_Metal_State_Penalty>
0.0843891

> <b_epik_Metal_Only>
0

> <s_lp_Force_Field>
OPLS_2005

> <r_lp_Energy>
10.6243

> <b_lp_Chiralities_Consistent>
1

> <s_lp_Variant>
AV-unprocessed.smi:1772-1

> <Gold.Version>
5.8.1

> <Gold.Id.Protein>
6NUR|6NUR_protein|mol2

> <Gold.PLP.Fitness>
42.5351

> <Gold.PLP.PLP>
-28.1698

> <Gold.PLP.part.hbond>
-2.9753

> <Gold.PLP.part.metal>
0.0000

> <Gold.PLP.part.buried>
-2.0494

> <Gold.PLP.part.nonpolar>
-28.1426

> <Gold.PLP.part.repulsive>
5.5645

> <Gold.PLP.ligand.clash>
0.0000

> <Gold.PLP.ligand.torsion>
0.2462

> <Gold.PLP.Chemscore.Hbond>
3.0000

> <Gold.PLP.Chemscore.CHOScore>
1.9513

> <Gold.PLP.Chemscore.Metal>
0.0000

> <Gold.Chemscore.Hbonds>
donor molecule, donor type, donor heavy atom, donor atom, acceptor molecule, acceptor atom, score
      L1  H     3    19       P1  7948  1.00
      L1  H    12    29       P1  7948  1.00
      P1  H  7989  7998       L1     9  1.00
      L1  C    15    31       P1 10747  0.97
      L1  C    17    32       P1 10186  0.97

> <Gold.PLP.Chemscore.Internal.Correction>
0.0036

> <Gold.Rescore>
     Score         DG    S(hbond)    S(metal)    S(lipo)     H(rot)  DE(clash)    DE(int)     intcor
     16.76     -19.98       2.81        0.00      72.06       1.30       1.76       1.45       ----

> <Gold.Chemscore.Fitness>
16.7647

> <Gold.Chemscore.DG>
-19.9814

> <Gold.Chemscore.ZeroCoef>
-5.4800

> <Gold.Chemscore.Hbond>
2.8131

> <Gold.Chemscore.Metal>
0.0000

> <Gold.Chemscore.Lipo>
72.0637

> <Gold.Chemscore.Internal_Hbond>
0.0000

> <Gold.Chemscore.DEClash>
1.7629

> <Gold.Chemscore.DEInternal>
1.4538

> <Gold.Chemscore.Rot>
1.2992

> <Gold.Chemscore.Internal.Correction>
   9.000000E+99

> <Gold.Chemscore.Hbonds>
donor molecule, donor type, donor heavy atom, donor atom, acceptor molecule, acceptor atom, score
      L1  H     3    19       P1  7948  0.96
      L1  H    12    29       P1  7948  0.84
      P1  H  7989  7998       L1     9  0.95

> <Gold.Chemscore.Hbond.Weighted>
-9.3958

> <Gold.Chemscore.Metal.Weighted>
-0.0000

> <Gold.Chemscore.Lipo.Weighted>
-8.4315

> <Gold.Chemscore.Internal_Hbond.Weighted>
0.0000

> <Gold.Chemscore.DEClash.Weighted>
1.7629

> <Gold.Chemscore.DEInternal.Weighted>
1.4538

> <Gold.Chemscore.Rot.Weighted>
3.3259

> <Gold.Chemscore.Internal.Correction.Weighted>
   9.000000E+99

> <Gold.Protein.RotatedTorsions>
[ 6907 6896 6895 6894 ] final   32.26 input  -60.11 | X-H torsion
[ 7974 7965 7964 7962 ] final  143.28 input  175.53 | X-H torsion
[ 8008 7997 7996 7995 ] final  -91.11 input   59.86 | X-H torsion
[ 10167 10162 10161 10158 ] final  -53.19 input  -65.29 | X-H torsion
[ 10718 10713 10712 10709 ] final -141.03 input   66.30 | X-H torsion
[ 10763 10752 10751 10750 ] final  148.31 input  -60.55 | X-H torsion
[ 11005 11000 10999 10996 ] final  -70.48 input  -57.11 | X-H torsion

> <Gold.Protein.ActiveResidues>
 VAL166  LYS551  ARG553  GLY616  TRP617  ASP618  TYR619  PRO620  LYS621  CYS622 
 ASP623  PHE694  ASN695  SER759  ASP760  ASP761  ALA762  ILE779  LEU786  VAL792 
 PHE793  MET794  SER795  GLU796  ALA797  LYS798  CYS799  TRP800  GLU811  SER814 

> <Gold.Protein.RotatedAtoms>
  152.0720  134.9527  160.0574 H   0  0  0  0  0  0  0  0  0  0  0  0  # atno 6907 bound_to 6896
  152.0850  133.4167  159.4526 H   0  0  0  0  0  0  0  0  0  0  0  0  # atno 6908 bound_to 6896
  150.6836  134.2858  159.4689 H   0  0  0  0  0  0  0  0  0  0  0  0  # atno 6909 bound_to 6896
  144.8934  139.5525  143.5787 H   0  0  0  0  0  0  0  0  0  0  0  0  # atno 7974 bound_to 7965
  154.7068  140.0523  157.0511 H   0  0  0  0  0  0  0  0  0  0  0  0  # atno 8008 bound_to 7997
  155.0610  140.3189  155.4642 H   0  0  0  0  0  0  0  0  0  0  0  0  # atno 8009 bound_to 7997
  156.2777  140.2099  156.5736 H   0  0  0  0  0  0  0  0  0  0  0  0  # atno 8010 bound_to 7997
  140.6498  143.2558  151.4756 H   0  0  0  0  0  0  0  0  0  0  0  0  # atno 10167 bound_to 10162
  156.3292  130.7577  151.1691 H   0  0  0  0  0  0  0  0  0  0  0  0  # atno 10718 bound_to 10713
  154.0527  135.2880  155.3338 H   0  0  0  0  0  0  0  0  0  0  0  0  # atno 10763 bound_to 10752
  154.6859  135.5245  153.8328 H   0  0  0  0  0  0  0  0  0  0  0  0  # atno 10764 bound_to 10752
  153.0554  135.6593  154.0722 H   0  0  0  0  0  0  0  0  0  0  0  0  # atno 10765 bound_to 10752
  141.1575  133.6791  156.6760 H   0  0  0  0  0  0  0  0  0  0  0  0  # atno 11005 bound_to 11000
  146.3067  139.7605  142.9050 LP  0  0  0  0  0  0  0  0  0  0  0  0  # atno 17320 bound_to 7965
  145.3742  141.0348  143.3214 LP  0  0  0  0  0  0  0  0  0  0  0  0  # atno 17321 bound_to 7965
  139.5712  144.1925  152.1838 LP  0  0  0  0  0  0  0  0  0  0  0  0  # atno 17342 bound_to 10162
  140.1221  144.5364  150.6856 LP  0  0  0  0  0  0  0  0  0  0  0  0  # atno 17343 bound_to 10162
  157.7427  131.0486  150.5003 LP  0  0  0  0  0  0  0  0  0  0  0  0  # atno 17370 bound_to 10713
  156.5166  130.4152  149.6272 LP  0  0  0  0  0  0  0  0  0  0  0  0  # atno 17371 bound_to 10713
  140.3139  134.8064  157.4198 LP  0  0  0  0  0  0  0  0  0  0  0  0  # atno 17394 bound_to 11000
  140.1155  134.5289  155.8229 LP  0  0  0  0  0  0  0  0  0  0  0  0  # atno 17395 bound_to 11000

$$$$
