AV-unprocessed.smi:646|AV-procd|sdf|3168|dock5
  -GOLD-   22720 0 93D 1   1.00000     0.00000
 Structure written by MMmdl.
 44 45  0  0  0  0  0  0  0  0  1 V2000
  142.0307  134.7961  153.3796 C   0  0  0  0  0  0  0  0  0  0  0  0
  143.2850  135.2145  152.8572 O   0  0  0  0  0  0  0  0  0  0  0  0
  144.0816  134.2049  152.2359 C   0  0  2  0  0  0  0  0  0  0  0  0
  143.1889  133.2653  151.4102 C   0  0  0  0  0  0  0  0  0  0  0  0
  145.0860  133.5691  153.2147 C   0  0  0  0  0  0  0  0  0  0  0  0
  146.1143  133.6765  152.0907 C   0  0  2  0  0  0  0  0  0  0  0  0
  147.4467  134.0093  152.5790 N   0  0  0  0  0  0  0  0  0  0  0  0
  148.0999  133.3248  153.5295 C   0  0  0  0  0  0  0  0  0  0  0  0
  147.6058  132.3833  154.1491 O   0  0  0  0  0  0  0  0  0  0  0  0
  149.5414  133.7518  153.8044 C   0  0  0  0  0  0  0  0  0  0  0  0
  150.0567  133.0265  155.0220 C   0  0  0  0  0  0  0  0  0  0  0  0
  150.4630  133.5848  156.2680 C   0  0  0  0  0  0  0  0  0  0  0  0
  150.4833  135.0283  156.6814 C   0  0  0  0  0  0  0  0  0  0  0  0
  150.8444  132.6534  157.1259 N   0  0  0  0  0  0  0  0  0  0  0  0
  150.7003  131.4343  156.4567 O   0  0  0  0  0  0  0  0  0  0  0  0
  150.2289  131.6825  155.2085 C   0  0  0  0  0  0  0  0  0  0  0  0
  149.9979  130.4979  154.3331 C   0  0  0  0  0  0  0  0  0  0  0  0
  145.3085  134.8833  151.5439 C   0  0  0  0  0  0  0  0  0  0  0  0
  145.2553  135.0159  150.0187 C   0  0  0  0  0  0  0  0  0  0  0  0
  145.7015  136.2788  152.0731 C   0  0  0  0  0  0  0  0  0  0  0  0
  141.5700  135.6300  153.9086 H   0  0  0  0  0  0  0  0  0  0  0  0
  142.1361  133.9748  154.0886 H   0  0  0  0  0  0  0  0  0  0  0  0
  141.3416  134.4940  152.5915 H   0  0  0  0  0  0  0  0  0  0  0  0
  143.7763  132.5669  150.8144 H   0  0  0  0  0  0  0  0  0  0  0  0
  142.5530  133.8248  150.7239 H   0  0  0  0  0  0  0  0  0  0  0  0
  142.5418  132.6587  152.0427 H   0  0  0  0  0  0  0  0  0  0  0  0
  145.3134  134.1957  154.0794 H   0  0  0  0  0  0  0  0  0  0  0  0
  144.8487  132.5479  153.5139 H   0  0  0  0  0  0  0  0  0  0  0  0
  146.0880  132.8068  151.4301 H   0  0  0  0  0  0  0  0  0  0  0  0
  147.9285  134.7689  152.1206 H   0  0  0  0  0  0  0  0  0  0  0  0
  150.1466  133.5405  152.9224 H   0  0  0  0  0  0  0  0  0  0  0  0
  149.5763  134.8328  153.9447 H   0  0  0  0  0  0  0  0  0  0  0  0
  150.8687  135.6587  155.8799 H   0  0  0  0  0  0  0  0  0  0  0  0
  151.1122  135.1883  157.5579 H   0  0  0  0  0  0  0  0  0  0  0  0
  149.4788  135.3766  156.9227 H   0  0  0  0  0  0  0  0  0  0  0  0
  149.1637  130.6729  153.6536 H   0  0  0  0  0  0  0  0  0  0  0  0
  149.7673  129.6124  154.9261 H   0  0  0  0  0  0  0  0  0  0  0  0
  150.8835  130.2841  153.7344 H   0  0  0  0  0  0  0  0  0  0  0  0
  146.1832  135.4266  149.6191 H   0  0  0  0  0  0  0  0  0  0  0  0
  144.4423  135.6712  149.7047 H   0  0  0  0  0  0  0  0  0  0  0  0
  145.1049  134.0537  149.5299 H   0  0  0  0  0  0  0  0  0  0  0  0
  146.6641  136.6044  151.6776 H   0  0  0  0  0  0  0  0  0  0  0  0
  145.7803  136.3039  153.1600 H   0  0  0  0  0  0  0  0  0  0  0  0
  144.9670  137.0333  151.7896 H   0  0  0  0  0  0  0  0  0  0  0  0
  1  2  1  0  0  0  0
  1 21  1  0  0  0  0
  1 22  1  0  0  0  0
  1 23  1  0  0  0  0
  2  3  1  0  0  0  0
  3 18  1  0  0  0  0
  3  4  1  0  0  0  0
  3  5  1  0  0  0  0
  4 24  1  0  0  0  0
  4 25  1  0  0  0  0
  4 26  1  0  0  0  0
  5  6  1  0  0  0  0
  5 27  1  0  0  0  0
  5 28  1  0  0  0  0
  6  7  1  0  0  0  0
  6 18  1  0  0  0  0
  6 29  1  0  0  0  0
  7  8  1  0  0  0  0
  7 30  1  0  0  0  0
  8  9  2  0  0  0  0
  8 10  1  0  0  0  0
 10 11  1  0  0  0  0
 10 31  1  0  0  0  0
 10 32  1  0  0  0  0
 11 16  2  0  0  0  0
 11 12  1  0  0  0  0
 12 13  1  0  0  0  0
 12 14  2  0  0  0  0
 13 33  1  0  0  0  0
 13 34  1  0  0  0  0
 13 35  1  0  0  0  0
 14 15  1  0  0  0  0
 15 16  1  0  0  0  0
 16 17  1  0  0  0  0
 17 36  1  0  0  0  0
 17 37  1  0  0  0  0
 17 38  1  0  0  0  0
 18 19  1  0  0  0  0
 18 20  1  0  0  0  0
 19 39  1  0  0  0  0
 19 40  1  0  0  0  0
 19 41  1  0  0  0  0
 20 42  1  0  0  0  0
 20 43  1  0  0  0  0
 20 44  1  0  0  0  0
M  END
> <s_m_source_file>
AV-unprocessed.smi

> <i_m_source_file_index>
646

> <i_lp_mmshare_version>
43012

> <i_f3d_flags>
0

> <s_epik_input>
W0NIM11PW0NAQF0xKFtDSDNdKVtDSDJdW0NASF0oQzEoW0NIM10pW0NIM10pW05IXUMoPU8pW0NIMl1jMmMoW0NIM10pbm9jMltDSDNd

> <s_epik_cmdline>
J2VwaWtfcHl0aG9uJywgJy1waCcsICc3LjAnLCAnLXRuJywgJzgnLCAnLW1hJywgJzIwMCcsICctbWV0YWxfYmluZGluZycsICctaW1hZScsICc8aW5maWxlLm1hZT4nLCAnLW9tYWUnLCAnPG91dGZpbGUubWFlPic=

> <r_lp_tautomer_probability>
1

> <r_epik_Ionization_Penalty>
2.13169e-08

> <r_epik_Ionization_Penalty_Charging>
0

> <r_epik_Ionization_Penalty_Neutral>
2.13169e-08

> <r_epik_State_Penalty>
-0

> <r_epik_Charging_Adjusted_Penalty>
0

> <i_epik_Tot_Q>
0

> <i_epik_Tot_abs_Q>
0

> <r_epik_Metal_State_Penalty>
-0

> <b_epik_Metal_Only>
0

> <s_lp_Force_Field>
OPLS_2005

> <r_lp_Energy>
15.4726

> <b_lp_Chiralities_Consistent>
1

> <s_lp_Variant>
AV-unprocessed.smi:646-4

> <Gold.Version>
5.8.1

> <Gold.Id.Protein>
6NUR|6NUR_protein|mol2

> <Gold.PLP.Fitness>
33.8406

> <Gold.PLP.PLP>
-28.7016

> <Gold.PLP.part.hbond>
-2.0000

> <Gold.PLP.part.metal>
0.0000

> <Gold.PLP.part.buried>
1.1231

> <Gold.PLP.part.nonpolar>
-28.0354

> <Gold.PLP.part.repulsive>
0.1955

> <Gold.PLP.ligand.clash>
0.0000

> <Gold.PLP.ligand.torsion>
0.6213

> <Gold.PLP.Chemscore.Hbond>
2.0000

> <Gold.PLP.Chemscore.CHOScore>
0.0000

> <Gold.PLP.Chemscore.Metal>
0.0000

> <Gold.Chemscore.Hbonds>
donor molecule, donor type, donor heavy atom, donor atom, acceptor molecule, acceptor atom, score
      L1  H     7    30       P1  7948  1.00
      P1  H  6896  6909       L1    14  0.42

> <Gold.PLP.Chemscore.Internal.Correction>
0.3816

> <Gold.Rescore>
     Score         DG    S(hbond)    S(metal)    S(lipo)     H(rot)  DE(clash)    DE(int)     intcor
     12.02     -16.59       1.96        0.00      71.66       1.49       1.59       2.99       ----

> <Gold.Chemscore.Fitness>
12.0161

> <Gold.Chemscore.DG>
-16.5920

> <Gold.Chemscore.ZeroCoef>
-5.4800

> <Gold.Chemscore.Hbond>
1.9609

> <Gold.Chemscore.Metal>
0.0000

> <Gold.Chemscore.Lipo>
71.6593

> <Gold.Chemscore.Internal_Hbond>
0.0000

> <Gold.Chemscore.DEClash>
1.5895

> <Gold.Chemscore.DEInternal>
2.9864

> <Gold.Chemscore.Rot>
1.4928

> <Gold.Chemscore.Internal.Correction>
   9.000000E+99

> <Gold.Chemscore.Hbonds>
donor molecule, donor type, donor heavy atom, donor atom, acceptor molecule, acceptor atom, score
      L1  H     7    30       P1  7948  0.50
      P1  H  6896  6909       L1    14  0.31

> <Gold.Chemscore.Hbond.Weighted>
-6.5495

> <Gold.Chemscore.Metal.Weighted>
-0.0000

> <Gold.Chemscore.Lipo.Weighted>
-8.3841

> <Gold.Chemscore.Internal_Hbond.Weighted>
0.0000

> <Gold.Chemscore.DEClash.Weighted>
1.5895

> <Gold.Chemscore.DEInternal.Weighted>
2.9864

> <Gold.Chemscore.Rot.Weighted>
3.8217

> <Gold.Chemscore.Internal.Correction.Weighted>
   9.000000E+99

> <Gold.Protein.RotatedTorsions>
[ 6907 6896 6895 6894 ] final  -20.88 input  -60.11 | X-H torsion
[ 7974 7965 7964 7962 ] final  150.67 input  175.53 | X-H torsion
[ 8008 7997 7996 7995 ] final  -66.51 input   59.86 | X-H torsion
[ 10167 10162 10161 10158 ] final -107.58 input  -65.29 | X-H torsion
[ 10718 10713 10712 10709 ] final  125.63 input   66.30 | X-H torsion
[ 10763 10752 10751 10750 ] final  -64.00 input  -60.55 | X-H torsion
[ 11005 11000 10999 10996 ] final -170.68 input  -57.11 | X-H torsion

> <Gold.Protein.ActiveResidues>
 VAL166  LYS551  ARG553  GLY616  TRP617  ASP618  TYR619  PRO620  LYS621  CYS622 
 ASP623  PHE694  ASN695  SER759  ASP760  ASP761  ALA762  ILE779  LEU786  VAL792 
 PHE793  MET794  SER795  GLU796  ALA797  LYS798  CYS799  TRP800  GLU811  SER814 

> <Gold.Protein.RotatedAtoms>
  151.2415  135.0590  159.9026 H   0  0  0  0  0  0  0  0  0  0  0  0  # atno 6907 bound_to 6896
  152.5392  134.0429  159.8086 H   0  0  0  0  0  0  0  0  0  0  0  0  # atno 6908 bound_to 6896
  151.0623  133.5485  159.2664 H   0  0  0  0  0  0  0  0  0  0  0  0  # atno 6909 bound_to 6896
  144.8347  139.6438  143.6043 H   0  0  0  0  0  0  0  0  0  0  0  0  # atno 7974 bound_to 7965
  154.4739  140.0911  156.7214 H   0  0  0  0  0  0  0  0  0  0  0  0  # atno 8008 bound_to 7997
  155.4649  140.3462  155.4299 H   0  0  0  0  0  0  0  0  0  0  0  0  # atno 8009 bound_to 7997
  156.1085  140.1441  156.9360 H   0  0  0  0  0  0  0  0  0  0  0  0  # atno 8010 bound_to 7997
  140.1754  143.4009  152.1322 H   0  0  0  0  0  0  0  0  0  0  0  0  # atno 10167 bound_to 10162
  157.5487  131.1095  150.8739 H   0  0  0  0  0  0  0  0  0  0  0  0  # atno 10718 bound_to 10713
  154.3234  135.6191  153.5518 H   0  0  0  0  0  0  0  0  0  0  0  0  # atno 10763 bound_to 10752
  152.9818  135.5729  154.5043 H   0  0  0  0  0  0  0  0  0  0  0  0  # atno 10764 bound_to 10752
  154.4716  135.2859  155.1615 H   0  0  0  0  0  0  0  0  0  0  0  0  # atno 10765 bound_to 10752
  140.5168  134.5748  157.5036 H   0  0  0  0  0  0  0  0  0  0  0  0  # atno 11005 bound_to 11000
  146.2647  139.6492  142.9337 LP  0  0  0  0  0  0  0  0  0  0  0  0  # atno 17320 bound_to 7965
  145.4820  141.0438  143.2641 LP  0  0  0  0  0  0  0  0  0  0  0  0  # atno 17321 bound_to 7965
  139.5319  144.7168  151.5025 LP  0  0  0  0  0  0  0  0  0  0  0  0  # atno 17342 bound_to 10162
  140.6555  143.8609  150.6830 LP  0  0  0  0  0  0  0  0  0  0  0  0  # atno 17343 bound_to 10162
  156.9270  130.5336  149.5279 LP  0  0  0  0  0  0  0  0  0  0  0  0  # atno 17370 bound_to 10713
  156.0557  130.5619  150.9087 LP  0  0  0  0  0  0  0  0  0  0  0  0  # atno 17371 bound_to 10713
  139.9628  134.7424  156.0201 LP  0  0  0  0  0  0  0  0  0  0  0  0  # atno 17394 bound_to 11000
  141.1356  133.6576  156.3584 LP  0  0  0  0  0  0  0  0  0  0  0  0  # atno 17395 bound_to 11000

$$$$
