AV-unprocessed.smi:204|AV-procd|sdf|1598|dock8
  -GOLD-   2262019503D 1   1.00000     0.00000
 Structure written by MMmdl.
 53 56  0  0  0  0  0  0  0  0  1 V2000
  147.1482  145.2147  159.9941 C   0  0  0  0  0  0  0  0  0  0  0  0
  148.5687  144.9156  160.4618 C   0  0  0  0  0  0  0  0  0  0  0  0
  148.7638  144.4256  161.5737 O   0  0  0  0  0  0  0  0  0  0  0  0
  149.5515  145.2164  159.6018 N   0  0  0  0  0  0  0  0  0  0  0  0
  150.9705  145.0089  159.8635 C   0  0  0  0  0  0  0  0  0  0  0  0
  151.3367  143.5133  159.8441 C   0  0  2  0  0  0  0  0  0  0  0  0
  152.7251  143.2344  160.4607 C   0  0  0  0  0  0  0  0  0  0  0  0
  153.0683  141.7387  160.3778 C   0  0  0  0  0  0  0  0  0  0  0  0
  152.9552  141.2277  158.9332 C   0  0  0  0  0  0  0  0  0  0  0  0
  151.6395  141.5374  158.3834 N   0  0  0  0  0  0  0  0  0  0  0  0
  151.4019  140.9314  157.2016 C   0  0  0  0  0  0  0  0  0  0  0  0
  152.4125  140.2064  156.6637 N   0  0  0  0  0  0  0  0  0  0  0  0
  152.2373  139.5849  155.4934 C   0  0  0  0  0  0  0  0  0  0  0  0
  151.1545  139.5636  154.7128 N   0  0  0  0  0  0  0  0  0  0  0  0
  150.1388  140.2989  155.2494 C   0  0  0  0  0  0  0  0  0  0  0  0
  150.1759  141.0086  156.4828 C   0  0  0  0  0  0  0  0  0  0  0  0
  148.9576  141.6386  156.7054 N   0  0  0  0  0  0  0  0  0  0  0  0
  148.2391  141.3151  155.6653 C   0  0  0  0  0  0  0  0  0  0  0  0
  148.8734  140.5225  154.7347 N   0  0  0  0  0  0  0  0  0  0  0  0
  148.3061  140.0260  153.4898 C   0  0  0  0  0  0  0  0  0  0  0  0
  147.1310  139.0428  153.6754 C   0  0  0  0  0  0  0  0  0  0  0  0
  146.6935  138.4468  152.3254 C   0  0  0  0  0  0  0  0  0  0  0  0
  146.2474  139.4513  151.4366 O   0  0  0  0  0  0  0  0  0  0  0  0
  147.2900  138.0083  154.7995 C   0  0  0  0  0  0  0  0  0  0  0  0
  146.0022  138.3385  155.3605 O   0  0  0  0  0  0  0  0  0  0  0  0
  145.9805  139.5402  154.5615 C   0  0  0  0  0  0  0  0  0  0  0  0
  151.2812  142.9533  158.4086 C   0  0  0  0  0  0  0  0  0  0  0  0
  147.0260  146.2818  159.8063 H   0  0  0  0  0  0  0  0  0  0  0  0
  146.4195  144.9153  160.7480 H   0  0  0  0  0  0  0  0  0  0  0  0
  146.9284  144.6735  159.0735 H   0  0  0  0  0  0  0  0  0  0  0  0
  149.3015  145.6160  158.7087 H   0  0  0  0  0  0  0  0  0  0  0  0
  151.5466  145.5425  159.1060 H   0  0  0  0  0  0  0  0  0  0  0  0
  151.2325  145.4457  160.8289 H   0  0  0  0  0  0  0  0  0  0  0  0
  150.5911  142.9787  160.4354 H   0  0  0  0  0  0  0  0  0  0  0  0
  153.4858  143.8122  159.9338 H   0  0  0  0  0  0  0  0  0  0  0  0
  152.7571  143.5548  161.5024 H   0  0  0  0  0  0  0  0  0  0  0  0
  154.0743  141.5627  160.7591 H   0  0  0  0  0  0  0  0  0  0  0  0
  152.3896  141.1733  161.0177 H   0  0  0  0  0  0  0  0  0  0  0  0
  153.7267  141.6891  158.3152 H   0  0  0  0  0  0  0  0  0  0  0  0
  153.1245  140.1501  158.9068 H   0  0  0  0  0  0  0  0  0  0  0  0
  153.0866  139.0254  155.1298 H   0  0  0  0  0  0  0  0  0  0  0  0
  147.2210  141.6555  155.5426 H   0  0  0  0  0  0  0  0  0  0  0  0
  147.9947  140.8883  152.8989 H   0  0  0  0  0  0  0  0  0  0  0  0
  149.1061  139.5563  152.9165 H   0  0  0  0  0  0  0  0  0  0  0  0
  147.4973  137.8810  151.8543 H   0  0  0  0  0  0  0  0  0  0  0  0
  145.8742  137.7408  152.4670 H   0  0  0  0  0  0  0  0  0  0  0  0
  145.4909  139.8730  151.8155 H   0  0  0  0  0  0  0  0  0  0  0  0
  147.3477  136.9764  154.4509 H   0  0  0  0  0  0  0  0  0  0  0  0
  148.0960  138.2273  155.5009 H   0  0  0  0  0  0  0  0  0  0  0  0
  146.2269  140.4234  155.1532 H   0  0  0  0  0  0  0  0  0  0  0  0
  145.0362  139.6770  154.0333 H   0  0  0  0  0  0  0  0  0  0  0  0
  150.2784  143.0813  157.9982 H   0  0  0  0  0  0  0  0  0  0  0  0
  151.9620  143.5157  157.7687 H   0  0  0  0  0  0  0  0  0  0  0  0
  1  2  1  0  0  0  0
  1 28  1  0  0  0  0
  1 29  1  0  0  0  0
  1 30  1  0  0  0  0
  2  3  2  0  0  0  0
  2  4  1  0  0  0  0
  4  5  1  0  0  0  0
  4 31  1  0  0  0  0
  5  6  1  0  0  0  0
  5 32  1  0  0  0  0
  5 33  1  0  0  0  0
  6 27  1  0  0  0  0
  6  7  1  0  0  0  0
  6 34  1  0  0  0  0
  7  8  1  0  0  0  0
  7 35  1  0  0  0  0
  7 36  1  0  0  0  0
  8  9  1  0  0  0  0
  8 37  1  0  0  0  0
  8 38  1  0  0  0  0
  9 10  1  0  0  0  0
  9 39  1  0  0  0  0
  9 40  1  0  0  0  0
 10 11  1  0  0  0  0
 10 27  1  0  0  0  0
 11 16  1  0  0  0  0
 11 12  2  0  0  0  0
 12 13  1  0  0  0  0
 13 14  2  0  0  0  0
 13 41  1  0  0  0  0
 14 15  1  0  0  0  0
 15 19  1  0  0  0  0
 15 16  2  0  0  0  0
 16 17  1  0  0  0  0
 17 18  2  0  0  0  0
 18 19  1  0  0  0  0
 18 42  1  0  0  0  0
 19 20  1  0  0  0  0
 20 21  1  0  0  0  0
 20 43  1  0  0  0  0
 20 44  1  0  0  0  0
 21 26  1  0  0  0  0
 21 22  1  0  0  0  0
 21 24  1  0  0  0  0
 22 23  1  0  0  0  0
 22 45  1  0  0  0  0
 22 46  1  0  0  0  0
 23 47  1  0  0  0  0
 24 25  1  0  0  0  0
 24 48  1  0  0  0  0
 24 49  1  0  0  0  0
 25 26  1  0  0  0  0
 26 50  1  0  0  0  0
 26 51  1  0  0  0  0
 27 52  1  0  0  0  0
 27 53  1  0  0  0  0
M  END
> <s_m_source_file>
AV-unprocessed.smi

> <i_m_source_file_index>
204

> <i_lp_mmshare_version>
43012

> <i_f3d_flags>
0

> <s_epik_input>
W0NIM11DKD1PKVtOSF1bQ0gyXVtDQEBIXTFbQ0gyXVtDSDJdW0NIMl1OKFtDSDJdMSljKG5bY0hdbjIpYyhjMjMpbltjSF1uM1tDSDJdQzQoW0NIMl1bT0hdKVtDSDJdT1tDSDJdNA==

> <s_epik_cmdline>
J2VwaWtfcHl0aG9uJywgJy1waCcsICc3LjAnLCAnLXRuJywgJzgnLCAnLW1hJywgJzIwMCcsICctbWV0YWxfYmluZGluZycsICctaW1hZScsICc8aW5maWxlLm1hZT4nLCAnLW9tYWUnLCAnPG91dGZpbGUubWFlPic=

> <r_lp_tautomer_probability>
1

> <r_epik_Ionization_Penalty>
0.00166599

> <r_epik_Ionization_Penalty_Charging>
0

> <r_epik_Ionization_Penalty_Neutral>
0.00166599

> <r_epik_State_Penalty>
0.000989951

> <r_epik_Charging_Adjusted_Penalty>
0.000989951

> <i_epik_Tot_Q>
0

> <i_epik_Tot_abs_Q>
0

> <r_epik_Metal_State_Penalty>
-0

> <b_epik_Metal_Only>
0

> <s_lp_Force_Field>
OPLS_2005

> <r_lp_Energy>
36.8691

> <b_lp_Chiralities_Consistent>
1

> <s_lp_Variant>
AV-unprocessed.smi:204-1

> <Gold.Version>
5.8.1

> <Gold.Id.Protein>
6NUR|6NUR_protein|mol2

> <Gold.PLP.Fitness>
56.5491

> <Gold.PLP.PLP>
-44.3931

> <Gold.PLP.part.hbond>
-6.0000

> <Gold.PLP.part.metal>
0.0000

> <Gold.PLP.part.buried>
-1.0109

> <Gold.PLP.part.nonpolar>
-38.6662

> <Gold.PLP.part.repulsive>
0.7045

> <Gold.PLP.ligand.clash>
0.0000

> <Gold.PLP.ligand.torsion>
0.4793

> <Gold.PLP.Chemscore.Hbond>
4.1760

> <Gold.PLP.Chemscore.CHOScore>
0.0000

> <Gold.PLP.Chemscore.Metal>
0.0000

> <Gold.Chemscore.Hbonds>
donor molecule, donor type, donor heavy atom, donor atom, acceptor molecule, acceptor atom, score
      L1  H     4    31       P1  8029  1.00
      L1  H    23    47       P1 10175  1.00
      P1  H  6933  6944       L1     3  0.62
      P1  H  7989  7998       L1    14  0.71
      P1  H  7997  8008       L1    12  0.75

> <Gold.PLP.Chemscore.Internal.Correction>
0.5866

> <Gold.Rescore>
     Score         DG    S(hbond)    S(metal)    S(lipo)     H(rot)  DE(clash)    DE(int)     intcor
     15.45     -17.66       3.01        0.00      90.94       3.33       1.65       0.56       ----

> <Gold.Chemscore.Fitness>
15.4475

> <Gold.Chemscore.DG>
-17.6645

> <Gold.Chemscore.ZeroCoef>
-5.4800

> <Gold.Chemscore.Hbond>
3.0116

> <Gold.Chemscore.Metal>
0.0000

> <Gold.Chemscore.Lipo>
90.9441

> <Gold.Chemscore.Internal_Hbond>
0.0000

> <Gold.Chemscore.DEClash>
1.6545

> <Gold.Chemscore.DEInternal>
0.5625

> <Gold.Chemscore.Rot>
3.3261

> <Gold.Chemscore.Internal.Correction>
   9.000000E+99

> <Gold.Chemscore.Hbonds>
donor molecule, donor type, donor heavy atom, donor atom, acceptor molecule, acceptor atom, score
      L1  H     4    31       P1  8029  0.87
      L1  H    23    47       P1 10175  0.53
      P1  H  6933  6944       L1     3  0.43
      P1  H  7989  7998       L1    14  0.02
      P1  H  7997  8008       L1    12  0.09

> <Gold.Chemscore.Hbond.Weighted>
-10.0589

> <Gold.Chemscore.Metal.Weighted>
-0.0000

> <Gold.Chemscore.Lipo.Weighted>
-10.6405

> <Gold.Chemscore.Internal_Hbond.Weighted>
0.0000

> <Gold.Chemscore.DEClash.Weighted>
1.6545

> <Gold.Chemscore.DEInternal.Weighted>
0.5625

> <Gold.Chemscore.Rot.Weighted>
8.5149

> <Gold.Chemscore.Internal.Correction.Weighted>
   9.000000E+99

> <Gold.Protein.RotatedTorsions>
[ 6907 6896 6895 6894 ] final -134.79 input  -60.11 | X-H torsion
[ 7974 7965 7964 7962 ] final  106.87 input  175.53 | X-H torsion
[ 8008 7997 7996 7995 ] final  -59.03 input   59.86 | X-H torsion
[ 10167 10162 10161 10158 ] final -129.03 input  -65.29 | X-H torsion
[ 10718 10713 10712 10709 ] final -110.11 input   66.30 | X-H torsion
[ 10763 10752 10751 10750 ] final    3.09 input  -60.55 | X-H torsion
[ 11005 11000 10999 10996 ] final -147.73 input  -57.11 | X-H torsion

> <Gold.Protein.ActiveResidues>
 VAL166  LYS551  ARG553  GLY616  TRP617  ASP618  TYR619  PRO620  LYS621  CYS622 
 ASP623  PHE694  ASN695  SER759  ASP760  ASP761  ALA762  ILE779  LEU786  VAL792 
 PHE793  MET794  SER795  GLU796  ALA797  LYS798  CYS799  TRP800  GLU811  SER814 

> <Gold.Protein.RotatedAtoms>
  150.9901  133.6158  159.2709 H   0  0  0  0  0  0  0  0  0  0  0  0  # atno 6907 bound_to 6896
  151.3382  135.0856  159.9372 H   0  0  0  0  0  0  0  0  0  0  0  0  # atno 6908 bound_to 6896
  152.5243  133.9517  159.7729 H   0  0  0  0  0  0  0  0  0  0  0  0  # atno 6909 bound_to 6896
  145.3010  139.2569  143.3814 H   0  0  0  0  0  0  0  0  0  0  0  0  # atno 7974 bound_to 7965
  154.4334  140.1071  156.6051 H   0  0  0  0  0  0  0  0  0  0  0  0  # atno 8008 bound_to 7997
  155.5870  140.3491  155.4537 H   0  0  0  0  0  0  0  0  0  0  0  0  # atno 8009 bound_to 7997
  156.0276  140.1253  157.0282 H   0  0  0  0  0  0  0  0  0  0  0  0  # atno 8010 bound_to 7997
  139.9441  143.6130  152.2495 H   0  0  0  0  0  0  0  0  0  0  0  0  # atno 10167 bound_to 10162
  156.0573  130.5798  150.8192 H   0  0  0  0  0  0  0  0  0  0  0  0  # atno 10718 bound_to 10713
  153.2876  135.6946  153.7324 H   0  0  0  0  0  0  0  0  0  0  0  0  # atno 10763 bound_to 10752
  153.6288  135.3414  155.3035 H   0  0  0  0  0  0  0  0  0  0  0  0  # atno 10764 bound_to 10752
  154.8514  135.4404  154.1949 H   0  0  0  0  0  0  0  0  0  0  0  0  # atno 10765 bound_to 10752
  140.7687  134.3215  157.5081 H   0  0  0  0  0  0  0  0  0  0  0  0  # atno 11005 bound_to 11000
  146.3152  140.3524  142.8657 LP  0  0  0  0  0  0  0  0  0  0  0  0  # atno 17320 bound_to 7965
  144.9094  140.7739  143.5817 LP  0  0  0  0  0  0  0  0  0  0  0  0  # atno 17321 bound_to 7965
  139.6681  144.7661  151.1835 LP  0  0  0  0  0  0  0  0  0  0  0  0  # atno 17342 bound_to 10162
  140.7602  143.5907  150.8799 LP  0  0  0  0  0  0  0  0  0  0  0  0  # atno 17343 bound_to 10162
  157.5553  131.0945  150.9637 LP  0  0  0  0  0  0  0  0  0  0  0  0  # atno 17370 bound_to 10713
  156.9887  130.5555  149.5301 LP  0  0  0  0  0  0  0  0  0  0  0  0  # atno 17371 bound_to 10713
  139.8759  134.9247  156.3356 LP  0  0  0  0  0  0  0  0  0  0  0  0  # atno 17394 bound_to 11000
  140.9595  133.7398  156.0381 LP  0  0  0  0  0  0  0  0  0  0  0  0  # atno 17395 bound_to 11000

$$$$
