AV-unprocessed.smi:2226|AV-procd|sdf|9006|dock7
  -GOLD-   2272012213D 1   1.00000     0.00000
 Structure written by MMmdl.
 41 43  0  0  0  0  0  0  0  0  3 V2000
  144.1301  134.6803  154.9645 C   0  0  0  0  0  0  0  0  0  0  0  0
  144.1114  134.0007  153.6474 N   0  3  2  0  0  0  0  0  0  0  0  0
  145.4334  133.5275  153.1694 C   0  0  1  0  0  0  0  0  0  0  0  0
  145.2133  132.4785  152.0538 C   0  0  0  0  0  0  0  0  0  0  0  0
  144.2987  132.9630  150.9095 C   0  0  0  0  0  0  0  0  0  0  0  0
  143.0833  133.7641  151.4208 C   0  0  0  0  0  0  0  0  0  0  0  0
  143.4155  134.7453  152.5697 C   0  0  2  0  0  0  0  0  0  0  0  0
  144.2178  136.0011  152.1427 C   0  0  0  0  0  0  0  0  0  0  0  0
  145.7026  135.7310  151.8068 C   0  0  1  0  0  0  0  0  0  0  0  0
  146.4496  136.9891  151.8483 N   0  0  0  0  0  0  0  0  0  0  0  0
  146.2792  137.9740  152.7454 C   0  0  0  0  0  0  0  0  0  0  0  0
  145.4557  137.9339  153.6597 O   0  0  0  0  0  0  0  0  0  0  0  0
  147.1146  139.0004  152.5207 N   0  0  0  0  0  0  0  0  0  0  0  0
  147.1851  140.1878  153.2861 C   0  0  0  0  0  0  0  0  0  0  0  0
  146.1451  140.9868  153.5204 N   0  3  0  0  0  0  0  0  0  0  0  0
  146.5649  142.0414  154.2925 C   0  0  0  0  0  0  0  0  0  0  0  0
  147.9062  141.8352  154.5091 C   0  0  0  0  0  0  0  0  0  0  0  0
  148.3109  140.6735  153.8826 O   0  0  0  0  0  0  0  0  0  0  0  0
  146.3492  134.7147  152.7761 C   0  0  0  0  0  0  0  0  0  0  0  0
  144.6978  135.6100  154.9428 H   0  0  0  0  0  0  0  0  0  0  0  0
  144.5737  134.0311  155.7197 H   0  0  0  0  0  0  0  0  0  0  0  0
  143.1144  134.9120  155.2860 H   0  0  0  0  0  0  0  0  0  0  0  0
  145.9181  133.0028  153.9943 H   0  0  0  0  0  0  0  0  0  0  0  0
  146.1697  132.1424  151.6517 H   0  0  0  0  0  0  0  0  0  0  0  0
  144.7544  131.5967  152.5032 H   0  0  0  0  0  0  0  0  0  0  0  0
  144.8661  133.5499  150.1927 H   0  0  0  0  0  0  0  0  0  0  0  0
  143.9500  132.1030  150.3365 H   0  0  0  0  0  0  0  0  0  0  0  0
  142.6081  134.2919  150.5932 H   0  0  0  0  0  0  0  0  0  0  0  0
  142.3395  133.0542  151.7855 H   0  0  0  0  0  0  0  0  0  0  0  0
  142.4593  135.0903  152.9664 H   0  0  0  0  0  0  0  0  0  0  0  0
  143.7300  136.4836  151.2949 H   0  0  0  0  0  0  0  0  0  0  0  0
  144.1647  136.7274  152.9548 H   0  0  0  0  0  0  0  0  0  0  0  0
  145.7566  135.3250  150.8007 H   0  0  0  0  0  0  0  0  0  0  0  0
  147.1526  137.1172  151.1347 H   0  0  0  0  0  0  0  0  0  0  0  0
  145.1906  140.8735  153.2025 H   0  0  0  0  0  0  0  0  0  0  0  0
  145.8817  142.8183  154.6049 H   0  0  0  0  0  0  0  0  0  0  0  0
  148.6675  142.3800  155.0486 H   0  0  0  0  0  0  0  0  0  0  0  0
  146.6406  135.2332  153.6905 H   0  0  0  0  0  0  0  0  0  0  0  0
  147.2809  134.3405  152.3500 H   0  0  0  0  0  0  0  0  0  0  0  0
  143.5625  133.1661  153.7995 H   0  0  0  0  0  0  0  0  0  0  0  0
  147.7510  138.9284  151.7408 H   0  0  0  0  0  0  0  0  0  0  0  0
  1  2  1  0  0  0  0
  1 20  1  0  0  0  0
  1 21  1  0  0  0  0
  1 22  1  0  0  0  0
  2  7  1  0  0  0  0
  2  3  1  0  0  0  0
  2 40  1  0  0  0  0
  3 19  1  0  0  0  0
  3  4  1  0  0  0  0
  3 23  1  0  0  0  0
  4  5  1  0  0  0  0
  4 24  1  0  0  0  0
  4 25  1  0  0  0  0
  5  6  1  0  0  0  0
  5 26  1  0  0  0  0
  5 27  1  0  0  0  0
  6  7  1  0  0  0  0
  6 28  1  0  0  0  0
  6 29  1  0  0  0  0
  7  8  1  0  0  0  0
  7 30  1  0  0  0  0
  8  9  1  0  0  0  0
  8 31  1  0  0  0  0
  8 32  1  0  0  0  0
  9 10  1  0  0  0  0
  9 19  1  0  0  0  0
  9 33  1  0  0  0  0
 10 34  1  0  0  0  0
 10 11  1  0  0  0  0
 11 13  1  0  0  0  0
 11 12  2  0  0  0  0
 13 14  1  0  0  0  0
 13 41  1  0  0  0  0
 14 18  1  0  0  0  0
 14 15  2  0  0  0  0
 15 35  1  0  0  0  0
 15 16  1  0  0  0  0
 16 36  1  0  0  0  0
 16 17  2  0  0  0  0
 17 37  1  0  0  0  0
 17 18  1  0  0  0  0
 19 38  1  0  0  0  0
 19 39  1  0  0  0  0
M  CHG  1   2   1
M  CHG  1  15   1
M  END
> <s_m_source_file>
AV-unprocessed.smi

> <i_m_source_file_index>
2226

> <i_lp_mmshare_version>
43012

> <i_f3d_flags>
0

> <s_epik_input>
W0NIMl0xW0NIMl1bQ0gyXVtDQEhdKE4oW0NIM10pW0NIXTEyKVtDSDJdW0NASF0oW0NIMl0yKVtOSF1DKD1PKVtOSF1jM25bY0hdW2NIXW8z

> <s_epik_cmdline>
J2VwaWtfcHl0aG9uJywgJy1waCcsICc3LjAnLCAnLXRuJywgJzgnLCAnLW1hJywgJzIwMCcsICctbWV0YWxfYmluZGluZycsICctaW1hZScsICc8aW5maWxlLm1hZT4nLCAnLW9tYWUnLCAnPG91dGZpbGUubWFlPic=

> <r_epik_Ionization_Penalty>
6.92532

> <r_epik_Ionization_Penalty_Charging>
6.82059

> <r_epik_Ionization_Penalty_Neutral>
0.104727

> <r_epik_State_Penalty>
2.17671

> <r_epik_Charging_Adjusted_Penalty>
8.99731

> <i_epik_Tot_Q>
2

> <i_epik_Tot_abs_Q>
2

> <r_epik_Metal_State_Penalty>
2.20618

> <b_epik_Metal_Only>
0

> <s_lp_Force_Field>
OPLS_2005

> <r_lp_Energy>
47.1954

> <b_lp_Chiralities_Consistent>
1

> <s_lp_Variant>
AV-unprocessed.smi:2226-6

> <Gold.Version>
5.8.1

> <Gold.Id.Protein>
6NUR|6NUR_protein|mol2

> <Gold.PLP.Fitness>
42.8964

> <Gold.PLP.PLP>
-27.3265

> <Gold.PLP.part.hbond>
-4.0000

> <Gold.PLP.part.metal>
0.0000

> <Gold.PLP.part.buried>
-0.2518

> <Gold.PLP.part.nonpolar>
-24.0237

> <Gold.PLP.part.repulsive>
1.2659

> <Gold.PLP.ligand.clash>
0.0000

> <Gold.PLP.ligand.torsion>
0.8254

> <Gold.PLP.Chemscore.Hbond>
4.7380

> <Gold.PLP.Chemscore.CHOScore>
1.0000

> <Gold.PLP.Chemscore.Metal>
0.0000

> <Gold.Chemscore.Hbonds>
donor molecule, donor type, donor heavy atom, donor atom, acceptor molecule, acceptor atom, score
      L1  H     2    40       P1 10957  2.00
      L1  H    10    34       P1  7948  0.15
      L1  H    13    41       P1  7957  0.40
      L1  H    15    35       P1 10175  2.00
      L1  C    17    37       P1  8028  1.00

> <Gold.PLP.Chemscore.Internal.Correction>
0.0066

> <Gold.Rescore>
     Score         DG    S(hbond)    S(metal)    S(lipo)     H(rot)  DE(clash)    DE(int)     intcor
     15.60     -17.95       2.74        0.00      50.23       1.00       0.18       2.16       ----

> <Gold.Chemscore.Fitness>
15.6049

> <Gold.Chemscore.DG>
-17.9484

> <Gold.Chemscore.ZeroCoef>
-5.4800

> <Gold.Chemscore.Hbond>
2.7399

> <Gold.Chemscore.Metal>
0.0000

> <Gold.Chemscore.Lipo>
50.2303

> <Gold.Chemscore.Internal_Hbond>
0.0000

> <Gold.Chemscore.DEClash>
0.1791

> <Gold.Chemscore.DEInternal>
2.1644

> <Gold.Chemscore.Rot>
1.0000

> <Gold.Chemscore.Internal.Correction>
   9.000000E+99

> <Gold.Chemscore.Hbonds>
donor molecule, donor type, donor heavy atom, donor atom, acceptor molecule, acceptor atom, score
      L1  H     2    40       P1 10957  0.98
      L1  H    10    34       P1  7948  0.16
      L1  H    13    41       P1  7957  0.36
      L1  H    15    35       P1 10175  0.60

> <Gold.Chemscore.Hbond.Weighted>
-9.1514

> <Gold.Chemscore.Metal.Weighted>
-0.0000

> <Gold.Chemscore.Lipo.Weighted>
-5.8769

> <Gold.Chemscore.Internal_Hbond.Weighted>
0.0000

> <Gold.Chemscore.DEClash.Weighted>
0.1791

> <Gold.Chemscore.DEInternal.Weighted>
2.1644

> <Gold.Chemscore.Rot.Weighted>
2.5600

> <Gold.Chemscore.Internal.Correction.Weighted>
   9.000000E+99

> <Gold.Protein.RotatedTorsions>
[ 6907 6896 6895 6894 ] final  -75.94 input  -60.11 | X-H torsion
[ 7974 7965 7964 7962 ] final   17.07 input  175.53 | X-H torsion
[ 8008 7997 7996 7995 ] final -172.45 input   59.86 | X-H torsion
[ 10167 10162 10161 10158 ] final  146.87 input  -65.29 | X-H torsion
[ 10718 10713 10712 10709 ] final   42.81 input   66.30 | X-H torsion
[ 10763 10752 10751 10750 ] final   34.12 input  -60.55 | X-H torsion
[ 11005 11000 10999 10996 ] final  151.35 input  -57.11 | X-H torsion

> <Gold.Protein.ActiveResidues>
 VAL166  LYS551  ARG553  GLY616  TRP617  ASP618  TYR619  PRO620  LYS621  CYS622 
 ASP623  PHE694  ASN695  SER759  ASP760  ASP761  ALA762  ILE779  LEU786  VAL792 
 PHE793  MET794  SER795  GLU796  ALA797  LYS798  CYS799  TRP800  GLU811  SER814 

> <Gold.Protein.RotatedAtoms>
  150.7043  134.4645  159.5396 H   0  0  0  0  0  0  0  0  0  0  0  0  # atno 6907 bound_to 6896
  152.2313  134.8316  160.0482 H   0  0  0  0  0  0  0  0  0  0  0  0  # atno 6908 bound_to 6896
  151.9130  133.3531  159.3907 H   0  0  0  0  0  0  0  0  0  0  0  0  # atno 6909 bound_to 6896
  146.2230  139.8656  142.8596 H   0  0  0  0  0  0  0  0  0  0  0  0  # atno 7974 bound_to 7965
  155.9447  140.1115  157.1027 H   0  0  0  0  0  0  0  0  0  0  0  0  # atno 8008 bound_to 7997
  154.4096  140.1212  156.5039 H   0  0  0  0  0  0  0  0  0  0  0  0  # atno 8009 bound_to 7997
  155.6918  140.3472  155.4899 H   0  0  0  0  0  0  0  0  0  0  0  0  # atno 8010 bound_to 7997
  139.4899  144.5797  151.6895 H   0  0  0  0  0  0  0  0  0  0  0  0  # atno 10167 bound_to 10162
  157.4090  130.7903  149.7414 H   0  0  0  0  0  0  0  0  0  0  0  0  # atno 10718 bound_to 10713
  153.0179  135.6369  154.1619 H   0  0  0  0  0  0  0  0  0  0  0  0  # atno 10763 bound_to 10752
  154.1356  135.2838  155.3176 H   0  0  0  0  0  0  0  0  0  0  0  0  # atno 10764 bound_to 10752
  154.6162  135.5540  153.7588 H   0  0  0  0  0  0  0  0  0  0  0  0  # atno 10765 bound_to 10752
  140.1211  134.8863  157.2074 H   0  0  0  0  0  0  0  0  0  0  0  0  # atno 11005 bound_to 11000
  145.2660  141.0093  143.3799 LP  0  0  0  0  0  0  0  0  0  0  0  0  # atno 17320 bound_to 7965
  144.9261  139.4354  143.6518 LP  0  0  0  0  0  0  0  0  0  0  0  0  # atno 17321 bound_to 7965
  140.5401  144.0593  150.6085 LP  0  0  0  0  0  0  0  0  0  0  0  0  # atno 17342 bound_to 10162
  140.3612  143.2907  152.0382 LP  0  0  0  0  0  0  0  0  0  0  0  0  # atno 17343 bound_to 10162
  155.9845  130.3991  150.3309 LP  0  0  0  0  0  0  0  0  0  0  0  0  # atno 17370 bound_to 10713
  157.1445  131.0305  151.2913 LP  0  0  0  0  0  0  0  0  0  0  0  0  # atno 17371 bound_to 10713
  140.2964  134.3182  155.7301 LP  0  0  0  0  0  0  0  0  0  0  0  0  # atno 17394 bound_to 11000
  141.2152  133.7565  156.9577 LP  0  0  0  0  0  0  0  0  0  0  0  0  # atno 17395 bound_to 11000

$$$$
