AV-unprocessed.smi:2340|AV-procd|sdf|9347|dock10
  -GOLD-   2272012573D 1   1.00000     0.00000
 Structure written by MMmdl.
 40 41  0  0  0  0  0  0  0  0  1 V2000
  151.5700  145.7283  160.1182 C   0  0  0  0  0  0  0  0  0  0  0  0
  151.7146  144.3649  159.5201 C   0  0  0  0  0  0  0  0  0  0  0  0
  152.6812  143.4337  159.8069 C   0  0  0  0  0  0  0  0  0  0  0  0
  152.4857  141.9832  158.8623 S   0  0  0  0  0  0  0  0  0  0  0  0
  151.0726  142.7055  158.1000 C   0  0  0  0  0  0  0  0  0  0  0  0
  150.2818  142.0241  157.0244 C   0  0  1  0  0  0  0  0  0  0  0  0
  151.0268  140.8142  156.4423 C   0  0  0  0  0  0  0  0  0  0  0  0
  148.8352  141.6910  157.4497 C   0  0  0  0  0  0  0  0  0  0  0  0
  148.0481  142.8916  157.7271 N   0  0  0  0  0  0  0  0  0  0  0  0
  147.2182  143.0567  158.7674 C   0  0  0  0  0  0  0  0  0  0  0  0
  146.9780  142.1890  159.6067 O   0  0  0  0  0  0  0  0  0  0  0  0
  146.6896  144.2880  158.7885 N   0  0  0  0  0  0  0  0  0  0  0  0
  145.7839  144.8012  159.8170 C   0  0  1  0  0  0  0  0  0  0  0  0
  144.6537  143.8072  160.0801 C   0  0  0  0  0  0  0  0  0  0  0  0
  144.6284  143.6648  161.5982 C   0  0  0  0  0  0  0  0  0  0  0  0
  145.9786  143.8806  161.9679 O   0  0  0  0  0  0  0  0  0  0  0  0
  146.4511  144.9784  161.2009 C   0  0  1  0  0  0  0  0  0  0  0  0
  147.9865  145.0347  161.2502 C   0  0  0  0  0  0  0  0  0  0  0  0
  150.8016  143.9325  158.5550 N   0  0  0  0  0  0  0  0  0  0  0  0
  152.3425  145.9221  160.8627 H   0  0  0  0  0  0  0  0  0  0  0  0
  150.6030  145.8430  160.6081 H   0  0  0  0  0  0  0  0  0  0  0  0
  151.6487  146.5015  159.3536 H   0  0  0  0  0  0  0  0  0  0  0  0
  153.4968  143.5142  160.5100 H   0  0  0  0  0  0  0  0  0  0  0  0
  150.2013  142.7453  156.2099 H   0  0  0  0  0  0  0  0  0  0  0  0
  152.0069  141.1027  156.0610 H   0  0  0  0  0  0  0  0  0  0  0  0
  150.4692  140.3699  155.6174 H   0  0  0  0  0  0  0  0  0  0  0  0
  151.1764  140.0407  157.1961 H   0  0  0  0  0  0  0  0  0  0  0  0
  148.3352  141.1374  156.6545 H   0  0  0  0  0  0  0  0  0  0  0  0
  148.8452  141.0291  158.3175 H   0  0  0  0  0  0  0  0  0  0  0  0
  148.1702  143.6675  157.0929 H   0  0  0  0  0  0  0  0  0  0  0  0
  146.9439  144.9272  158.0498 H   0  0  0  0  0  0  0  0  0  0  0  0
  145.3581  145.7555  159.5013 H   0  0  0  0  0  0  0  0  0  0  0  0
  143.6961  144.1432  159.6816 H   0  0  0  0  0  0  0  0  0  0  0  0
  144.8739  142.8367  159.6327 H   0  0  0  0  0  0  0  0  0  0  0  0
  143.9985  144.4318  162.0515 H   0  0  0  0  0  0  0  0  0  0  0  0
  144.2705  142.6882  161.9246 H   0  0  0  0  0  0  0  0  0  0  0  0
  146.0562  145.8872  161.6589 H   0  0  0  0  0  0  0  0  0  0  0  0
  148.3689  145.8646  160.6556 H   0  0  0  0  0  0  0  0  0  0  0  0
  148.4353  144.1136  160.8774 H   0  0  0  0  0  0  0  0  0  0  0  0
  148.3332  145.1754  162.2741 H   0  0  0  0  0  0  0  0  0  0  0  0
  1  2  1  0  0  0  0
  1 20  1  0  0  0  0
  1 21  1  0  0  0  0
  1 22  1  0  0  0  0
  2 19  1  0  0  0  0
  2  3  2  0  0  0  0
  3  4  1  0  0  0  0
  3 23  1  0  0  0  0
  4  5  1  0  0  0  0
  5  6  1  0  0  0  0
  5 19  2  0  0  0  0
  6  7  1  0  0  0  0
  6  8  1  0  0  0  0
  6 24  1  0  0  0  0
  7 25  1  0  0  0  0
  7 26  1  0  0  0  0
  7 27  1  0  0  0  0
  8  9  1  0  0  0  0
  8 28  1  0  0  0  0
  8 29  1  0  0  0  0
  9 10  1  0  0  0  0
  9 30  1  0  0  0  0
 10 11  2  0  0  0  0
 10 12  1  0  0  0  0
 12 13  1  0  0  0  0
 12 31  1  0  0  0  0
 13 17  1  0  0  0  0
 13 14  1  0  0  0  0
 13 32  1  0  0  0  0
 14 15  1  0  0  0  0
 14 33  1  0  0  0  0
 14 34  1  0  0  0  0
 15 16  1  0  0  0  0
 15 35  1  0  0  0  0
 15 36  1  0  0  0  0
 16 17  1  0  0  0  0
 17 18  1  0  0  0  0
 17 37  1  0  0  0  0
 18 38  1  0  0  0  0
 18 39  1  0  0  0  0
 18 40  1  0  0  0  0
M  END
> <s_m_source_file>
AV-unprocessed.smi

> <i_m_source_file_index>
2340

> <i_lp_mmshare_version>
43012

> <i_f3d_flags>
0

> <s_epik_input>
W0NIM11jMVtjSF1zYyhuMSlbQ0BIXShbQ0gzXSlbQ0gyXVtOSF1DKD1PKVtOSF1bQ0BASF0yW0NIMl1bQ0gyXU9bQ0BIXTJbQ0gzXQ==

> <s_epik_cmdline>
J2VwaWtfcHl0aG9uJywgJy1waCcsICc3LjAnLCAnLXRuJywgJzgnLCAnLW1hJywgJzIwMCcsICctbWV0YWxfYmluZGluZycsICctaW1hZScsICc8aW5maWxlLm1hZT4nLCAnLW9tYWUnLCAnPG91dGZpbGUubWFlPic=

> <r_epik_Ionization_Penalty>
0.00156622

> <r_epik_Ionization_Penalty_Charging>
0

> <r_epik_Ionization_Penalty_Neutral>
0.00156622

> <r_epik_State_Penalty>
0.00101902

> <r_epik_Charging_Adjusted_Penalty>
0.00101902

> <i_epik_Tot_Q>
0

> <i_epik_Tot_abs_Q>
0

> <r_epik_Metal_State_Penalty>
-0

> <b_epik_Metal_Only>
0

> <s_lp_Force_Field>
OPLS_2005

> <r_lp_Energy>
5.75985

> <b_lp_Chiralities_Consistent>
1

> <s_lp_Variant>
AV-unprocessed.smi:2340-4

> <Gold.Version>
5.8.1

> <Gold.Id.Protein>
6NUR|6NUR_protein|mol2

> <Gold.PLP.Fitness>
45.3432

> <Gold.PLP.PLP>
-39.2686

> <Gold.PLP.part.hbond>
-4.7236

> <Gold.PLP.part.metal>
0.0000

> <Gold.PLP.part.buried>
-5.5769

> <Gold.PLP.part.nonpolar>
-30.9741

> <Gold.PLP.part.repulsive>
0.3335

> <Gold.PLP.ligand.clash>
0.0000

> <Gold.PLP.ligand.torsion>
0.4497

> <Gold.PLP.Chemscore.Hbond>
2.2835

> <Gold.PLP.Chemscore.CHOScore>
0.0000

> <Gold.PLP.Chemscore.Metal>
0.0000

> <Gold.Chemscore.Hbonds>
donor molecule, donor type, donor heavy atom, donor atom, acceptor molecule, acceptor atom, score
      L1  H     9    30       P1  8028  0.35
      L1  H    12    31       P1  8029  1.00
      P1  H  6933  6944       L1    11  0.08
      P1  H  6934  6946       L1    11  0.82

> <Gold.PLP.Chemscore.Internal.Correction>
0.1233

> <Gold.Rescore>
     Score         DG    S(hbond)    S(metal)    S(lipo)     H(rot)  DE(clash)    DE(int)     intcor
     17.67     -20.01       2.10        0.00      97.70       1.53       0.16       2.19       ----

> <Gold.Chemscore.Fitness>
17.6717

> <Gold.Chemscore.DG>
-20.0131

> <Gold.Chemscore.ZeroCoef>
-5.4800

> <Gold.Chemscore.Hbond>
2.1033

> <Gold.Chemscore.Metal>
0.0000

> <Gold.Chemscore.Lipo>
97.7047

> <Gold.Chemscore.Internal_Hbond>
0.0000

> <Gold.Chemscore.DEClash>
0.1561

> <Gold.Chemscore.DEInternal>
2.1853

> <Gold.Chemscore.Rot>
1.5325

> <Gold.Chemscore.Internal.Correction>
   9.000000E+99

> <Gold.Chemscore.Hbonds>
donor molecule, donor type, donor heavy atom, donor atom, acceptor molecule, acceptor atom, score
      L1  H     9    30       P1  8028  0.01
      L1  H    12    31       P1  8029  0.82
      P1  H  6933  6944       L1    11  0.07
      P1  H  6934  6946       L1    11  0.81

> <Gold.Chemscore.Hbond.Weighted>
-7.0249

> <Gold.Chemscore.Metal.Weighted>
-0.0000

> <Gold.Chemscore.Lipo.Weighted>
-11.4315

> <Gold.Chemscore.Internal_Hbond.Weighted>
0.0000

> <Gold.Chemscore.DEClash.Weighted>
0.1561

> <Gold.Chemscore.DEInternal.Weighted>
2.1853

> <Gold.Chemscore.Rot.Weighted>
3.9233

> <Gold.Chemscore.Internal.Correction.Weighted>
   9.000000E+99

> <Gold.Protein.RotatedTorsions>
[ 6907 6896 6895 6894 ] final  -51.91 input  -60.11 | X-H torsion
[ 7974 7965 7964 7962 ] final  107.33 input  175.53 | X-H torsion
[ 8008 7997 7996 7995 ] final   52.21 input   59.86 | X-H torsion
[ 10167 10162 10161 10158 ] final  -50.68 input  -65.29 | X-H torsion
[ 10718 10713 10712 10709 ] final  130.74 input   66.30 | X-H torsion
[ 10763 10752 10751 10750 ] final   98.41 input  -60.55 | X-H torsion
[ 11005 11000 10999 10996 ] final  175.10 input  -57.11 | X-H torsion

> <Gold.Protein.ActiveResidues>
 VAL166  LYS551  ARG553  GLY616  TRP617  ASP618  TYR619  PRO620  LYS621  CYS622 
 ASP623  PHE694  ASN695  SER759  ASP760  ASP761  ALA762  ILE779  LEU786  VAL792 
 PHE793  MET794  SER795  GLU796  ALA797  LYS798  CYS799  TRP800  GLU811  SER814 

> <Gold.Protein.RotatedAtoms>
  150.8567  134.7908  159.7051 H   0  0  0  0  0  0  0  0  0  0  0  0  # atno 6907 bound_to 6896
  152.4617  134.5166  159.9780 H   0  0  0  0  0  0  0  0  0  0  0  0  # atno 6908 bound_to 6896
  151.5277  133.3416  159.2948 H   0  0  0  0  0  0  0  0  0  0  0  0  # atno 6909 bound_to 6896
  145.2950  139.2588  143.3844 H   0  0  0  0  0  0  0  0  0  0  0  0  # atno 7974 bound_to 7965
  155.4480  140.3457  155.4297 H   0  0  0  0  0  0  0  0  0  0  0  0  # atno 8008 bound_to 7997
  156.1238  140.1494  156.9196 H   0  0  0  0  0  0  0  0  0  0  0  0  # atno 8009 bound_to 7997
  154.4843  140.0860  156.7429 H   0  0  0  0  0  0  0  0  0  0  0  0  # atno 8010 bound_to 7997
  140.6625  143.2648  151.4395 H   0  0  0  0  0  0  0  0  0  0  0  0  # atno 10167 bound_to 10162
  157.5034  131.1095  150.9395 H   0  0  0  0  0  0  0  0  0  0  0  0  # atno 10718 bound_to 10713
  153.2887  135.4149  155.1146 H   0  0  0  0  0  0  0  0  0  0  0  0  # atno 10763 bound_to 10752
  154.8513  135.3513  154.6011 H   0  0  0  0  0  0  0  0  0  0  0  0  # atno 10764 bound_to 10752
  153.6433  135.7056  153.5292 H   0  0  0  0  0  0  0  0  0  0  0  0  # atno 10765 bound_to 10752
  140.3585  134.7133  157.4315 H   0  0  0  0  0  0  0  0  0  0  0  0  # atno 11005 bound_to 11000
  146.3172  140.3450  142.8651 LP  0  0  0  0  0  0  0  0  0  0  0  0  # atno 17320 bound_to 7965
  144.9141  140.7792  143.5789 LP  0  0  0  0  0  0  0  0  0  0  0  0  # atno 17321 bound_to 7965
  139.5864  144.1596  152.2034 LP  0  0  0  0  0  0  0  0  0  0  0  0  # atno 17342 bound_to 10162
  140.0937  144.5599  150.7037 LP  0  0  0  0  0  0  0  0  0  0  0  0  # atno 17343 bound_to 10162
  157.0059  130.5618  149.5316 LP  0  0  0  0  0  0  0  0  0  0  0  0  # atno 17370 bound_to 10713
  156.0243  130.5337  150.8363 LP  0  0  0  0  0  0  0  0  0  0  0  0  # atno 17371 bound_to 10713
  140.0646  134.5948  155.8710 LP  0  0  0  0  0  0  0  0  0  0  0  0  # atno 17394 bound_to 11000
  141.1991  133.6605  156.5827 LP  0  0  0  0  0  0  0  0  0  0  0  0  # atno 17395 bound_to 11000

$$$$
