AV-unprocessed.smi:2843|AV-procd|sdf|10937|dock4
  -GOLD-   2272015383D 1   1.00000     0.00000
 Structure written by MMmdl.
 29 29  0  0  0  0  0  0  0  0  1 V2000
  153.4930  141.3115  160.1335 C   0  0  0  0  0  0  0  0  0  0  0  0
  153.0875  140.3471  159.0723 C   0  0  0  0  0  0  0  0  0  0  0  0
  151.9071  140.1141  158.4260 C   0  0  0  0  0  0  0  0  0  0  0  0
  152.2190  139.0571  157.5269 C   0  0  0  0  0  0  0  0  0  0  0  0
  151.3153  138.3720  156.5423 C   0  0  0  0  0  0  0  0  0  0  0  0
  151.9311  138.6722  154.8323 S   0  0  0  0  0  0  0  0  0  0  0  0
  153.1609  139.4767  154.8963 O   0  0  0  0  0  0  0  0  0  0  0  0
  151.9259  137.3960  154.1005 O   0  0  0  0  0  0  0  0  0  0  0  0
  150.6962  139.6684  154.1581 N   0  0  0  0  0  0  0  0  0  0  0  0
  149.8456  140.4188  155.0797 C   0  0  0  0  0  0  0  0  0  0  0  0
  149.0852  141.5184  154.3273 C   0  0  0  0  0  0  0  0  0  0  0  0
  147.7656  141.0116  153.7309 C   0  0  0  0  0  0  0  0  0  0  0  0
  147.9815  139.7890  153.0605 O   0  0  0  0  0  0  0  0  0  0  0  0
  153.4832  138.6815  157.6318 N   0  0  0  0  0  0  0  0  0  0  0  0
  154.0468  139.5015  158.6156 O   0  0  0  0  0  0  0  0  0  0  0  0
  152.6691  141.9777  160.3905 H   0  0  0  0  0  0  0  0  0  0  0  0
  154.3307  141.9239  159.7994 H   0  0  0  0  0  0  0  0  0  0  0  0
  153.7974  140.7848  161.0380 H   0  0  0  0  0  0  0  0  0  0  0  0
  150.9664  140.6247  158.5695 H   0  0  0  0  0  0  0  0  0  0  0  0
  151.2811  137.2951  156.7114 H   0  0  0  0  0  0  0  0  0  0  0  0
  150.2972  138.7537  156.6154 H   0  0  0  0  0  0  0  0  0  0  0  0
  150.1307  139.1418  153.4926 H   0  0  0  0  0  0  0  0  0  0  0  0
  149.1457  139.7318  155.5570 H   0  0  0  0  0  0  0  0  0  0  0  0
  150.4642  140.8528  155.8660 H   0  0  0  0  0  0  0  0  0  0  0  0
  148.8821  142.3489  155.0054 H   0  0  0  0  0  0  0  0  0  0  0  0
  149.7148  141.9161  153.5297 H   0  0  0  0  0  0  0  0  0  0  0  0
  147.0217  140.8609  154.5141 H   0  0  0  0  0  0  0  0  0  0  0  0
  147.3572  141.7367  153.0261 H   0  0  0  0  0  0  0  0  0  0  0  0
  148.6629  139.9143  152.4175 H   0  0  0  0  0  0  0  0  0  0  0  0
  1  2  1  0  0  0  0
  1 16  1  0  0  0  0
  1 17  1  0  0  0  0
  1 18  1  0  0  0  0
  2 15  1  0  0  0  0
  2  3  2  0  0  0  0
  3  4  1  0  0  0  0
  3 19  1  0  0  0  0
  4  5  1  0  0  0  0
  4 14  2  0  0  0  0
  5  6  1  0  0  0  0
  5 20  1  0  0  0  0
  5 21  1  0  0  0  0
  6  7  2  0  0  0  0
  6  8  2  0  0  0  0
  6  9  1  0  0  0  0
  9 10  1  0  0  0  0
  9 22  1  0  0  0  0
 10 11  1  0  0  0  0
 10 23  1  0  0  0  0
 10 24  1  0  0  0  0
 11 12  1  0  0  0  0
 11 25  1  0  0  0  0
 11 26  1  0  0  0  0
 12 13  1  0  0  0  0
 12 27  1  0  0  0  0
 12 28  1  0  0  0  0
 13 29  1  0  0  0  0
 14 15  1  0  0  0  0
M  END
> <s_m_source_file>
AV-unprocessed.smi

> <i_m_source_file_index>
2843

> <i_lp_mmshare_version>
43012

> <i_f3d_flags>
0

> <s_epik_input>
W0NIM11jMVtjSF1jKG5vMSlbQ0gyXVMoPU8pKD1PKVtOSF1bQ0gyXVtDSDJdW0NIMl1bT0hd

> <s_epik_cmdline>
J2VwaWtfcHl0aG9uJywgJy1waCcsICc3LjAnLCAnLXRuJywgJzgnLCAnLW1hJywgJzIwMCcsICctbWV0YWxfYmluZGluZycsICctaW1hZScsICc8aW5maWxlLm1hZT4nLCAnLW9tYWUnLCAnPG91dGZpbGUubWFlPic=

> <r_lp_tautomer_probability>
1

> <r_epik_Ionization_Penalty>
0.000153409

> <r_epik_Ionization_Penalty_Charging>
0

> <r_epik_Ionization_Penalty_Neutral>
0.000153409

> <r_epik_State_Penalty>
-0

> <r_epik_Charging_Adjusted_Penalty>
0

> <i_epik_Tot_Q>
0

> <i_epik_Tot_abs_Q>
0

> <r_epik_Metal_State_Penalty>
0.110712

> <b_epik_Metal_Only>
0

> <s_lp_Force_Field>
OPLS_2005

> <r_lp_Energy>
-3.16936

> <b_lp_Chiralities_Consistent>
1

> <s_lp_Variant>
AV-unprocessed.smi:2843-1

> <Gold.Version>
5.8.1

> <Gold.Id.Protein>
6NUR|6NUR_protein|mol2

> <Gold.PLP.Fitness>
40.2174

> <Gold.PLP.PLP>
-29.3245

> <Gold.PLP.part.hbond>
-7.2846

> <Gold.PLP.part.metal>
0.0000

> <Gold.PLP.part.buried>
-3.6435

> <Gold.PLP.part.nonpolar>
-19.4524

> <Gold.PLP.part.repulsive>
0.4862

> <Gold.PLP.ligand.clash>
0.0000

> <Gold.PLP.ligand.torsion>
0.8333

> <Gold.PLP.Chemscore.Hbond>
4.1308

> <Gold.PLP.Chemscore.CHOScore>
0.0000

> <Gold.PLP.Chemscore.Metal>
0.0000

> <Gold.Chemscore.Hbonds>
donor molecule, donor type, donor heavy atom, donor atom, acceptor molecule, acceptor atom, score
      L1  H    13    29       P1  7957  1.00
      P1  H  7989  7998       L1     9  1.00
      P1  H  7997  8008       L1    15  0.25
      P1  H  7997  8009       L1     7  1.00
      P1  H 10752 10765       L1     8  0.99

> <Gold.PLP.Chemscore.Internal.Correction>
0.1670

> <Gold.Rescore>
     Score         DG    S(hbond)    S(metal)    S(lipo)     H(rot)  DE(clash)    DE(int)     intcor
     13.17     -14.02       3.02        0.00      54.53       3.09       0.02       0.83       ----

> <Gold.Chemscore.Fitness>
13.1731

> <Gold.Chemscore.DG>
-14.0217

> <Gold.Chemscore.ZeroCoef>
-5.4800

> <Gold.Chemscore.Hbond>
3.0185

> <Gold.Chemscore.Metal>
0.0000

> <Gold.Chemscore.Lipo>
54.5262

> <Gold.Chemscore.Internal_Hbond>
0.0000

> <Gold.Chemscore.DEClash>
0.0158

> <Gold.Chemscore.DEInternal>
0.8327

> <Gold.Chemscore.Rot>
3.0935

> <Gold.Chemscore.Internal.Correction>
   9.000000E+99

> <Gold.Chemscore.Hbonds>
donor molecule, donor type, donor heavy atom, donor atom, acceptor molecule, acceptor atom, score
      L1  H    13    29       P1  7957  0.97
      P1  H  7989  7998       L1     9  0.09
      P1  H  7997  8009       L1     7  1.00
      P1  H 10752 10765       L1     8  0.91

> <Gold.Chemscore.Hbond.Weighted>
-10.0816

> <Gold.Chemscore.Metal.Weighted>
-0.0000

> <Gold.Chemscore.Lipo.Weighted>
-6.3796

> <Gold.Chemscore.Internal_Hbond.Weighted>
0.0000

> <Gold.Chemscore.DEClash.Weighted>
0.0158

> <Gold.Chemscore.DEInternal.Weighted>
0.8327

> <Gold.Chemscore.Rot.Weighted>
7.9195

> <Gold.Chemscore.Internal.Correction.Weighted>
   9.000000E+99

> <Gold.Protein.RotatedTorsions>
[ 6907 6896 6895 6894 ] final  100.31 input  -60.11 | X-H torsion
[ 7974 7965 7964 7962 ] final  -66.99 input  175.53 | X-H torsion
[ 8008 7997 7996 7995 ] final -123.51 input   59.86 | X-H torsion
[ 10167 10162 10161 10158 ] final -165.09 input  -65.29 | X-H torsion
[ 10718 10713 10712 10709 ] final -156.80 input   66.30 | X-H torsion
[ 10763 10752 10751 10750 ] final  149.85 input  -60.55 | X-H torsion
[ 11005 11000 10999 10996 ] final   31.79 input  -57.11 | X-H torsion

> <Gold.Protein.ActiveResidues>
 VAL166  LYS551  ARG553  GLY616  TRP617  ASP618  TYR619  PRO620  LYS621  CYS622 
 ASP623  PHE694  ASN695  SER759  ASP760  ASP761  ALA762  ILE779  LEU786  VAL792 
 PHE793  MET794  SER795  GLU796  ALA797  LYS798  CYS799  TRP800  GLU811  SER814 

> <Gold.Protein.RotatedAtoms>
  152.5374  134.0296  159.8018 H   0  0  0  0  0  0  0  0  0  0  0  0  # atno 6907 bound_to 6896
  151.0469  133.5650  159.2653 H   0  0  0  0  0  0  0  0  0  0  0  0  # atno 6908 bound_to 6896
  151.2599  135.0658  159.9148 H   0  0  0  0  0  0  0  0  0  0  0  0  # atno 6909 bound_to 6896
  145.7348  140.8981  143.0561 H   0  0  0  0  0  0  0  0  0  0  0  0  # atno 7974 bound_to 7965
  155.1817  140.0411  157.2883 H   0  0  0  0  0  0  0  0  0  0  0  0  # atno 8008 bound_to 7997
  154.6199  140.2498  155.7535 H   0  0  0  0  0  0  0  0  0  0  0  0  # atno 8009 bound_to 7997
  156.2427  140.2897  156.0501 H   0  0  0  0  0  0  0  0  0  0  0  0  # atno 8010 bound_to 7997
  139.6206  144.0633  152.1928 H   0  0  0  0  0  0  0  0  0  0  0  0  # atno 10167 bound_to 10162
  156.5314  130.8522  151.2717 H   0  0  0  0  0  0  0  0  0  0  0  0  # atno 10718 bound_to 10713
  154.0779  135.2861  155.3296 H   0  0  0  0  0  0  0  0  0  0  0  0  # atno 10763 bound_to 10752
  154.6703  135.5302  153.8133 H   0  0  0  0  0  0  0  0  0  0  0  0  # atno 10764 bound_to 10752
  153.0460  135.6556  154.0956 H   0  0  0  0  0  0  0  0  0  0  0  0  # atno 10765 bound_to 10752
  140.2802  134.2981  155.7803 H   0  0  0  0  0  0  0  0  0  0  0  0  # atno 11005 bound_to 11000
  144.6884  139.9380  143.7474 LP  0  0  0  0  0  0  0  0  0  0  0  0  # atno 17320 bound_to 7965
  146.0504  139.3505  143.0643 LP  0  0  0  0  0  0  0  0  0  0  0  0  # atno 17321 bound_to 7965
  140.0274  144.6107  150.7516 LP  0  0  0  0  0  0  0  0  0  0  0  0  # atno 17342 bound_to 10162
  140.7379  143.2771  151.3708 LP  0  0  0  0  0  0  0  0  0  0  0  0  # atno 17343 bound_to 10162
  157.7421  130.9883  150.2492 LP  0  0  0  0  0  0  0  0  0  0  0  0  # atno 17370 bound_to 10713
  156.3056  130.3764  149.7709 LP  0  0  0  0  0  0  0  0  0  0  0  0  # atno 17371 bound_to 10713
  141.2164  133.7521  156.9469 LP  0  0  0  0  0  0  0  0  0  0  0  0  # atno 17394 bound_to 11000
  140.1290  134.9368  157.2311 LP  0  0  0  0  0  0  0  0  0  0  0  0  # atno 17395 bound_to 11000

$$$$
