AV-unprocessed.smi:697|AV-procd|sdf|3396|dock9
  -GOLD-   22720 0373D 1   1.00000     0.00000
 Structure written by MMmdl.
 43 44  0  0  0  0  0  0  0  0  2 V2000
  150.0778  141.4068  155.5639 C   0  0  0  0  0  0  0  0  0  0  0  0
  150.7002  140.4015  154.7743 O   0  0  0  0  0  0  0  0  0  0  0  0
  151.0356  139.1860  155.4458 C   0  0  2  0  0  0  0  0  0  0  0  0
  151.9368  139.4840  156.6543 C   0  0  0  0  0  0  0  0  0  0  0  0
  151.4850  138.0874  154.4654 C   0  0  0  0  0  0  0  0  0  0  0  0
  150.6079  137.1315  155.2706 C   0  0  2  0  0  0  0  0  0  0  0  0
  149.9404  136.1407  154.4333 N   0  0  0  0  0  0  0  0  0  0  0  0
  149.8732  134.8328  154.7146 C   0  0  0  0  0  0  0  0  0  0  0  0
  150.4007  134.3321  155.7075 O   0  0  0  0  0  0  0  0  0  0  0  0
  149.1671  134.1789  153.7744 N   0  0  0  0  0  0  0  0  0  0  0  0
  148.8136  132.8205  153.6966 C   0  0  0  0  0  0  0  0  0  0  0  0
  149.5795  131.7854  154.1410 C   0  0  0  0  0  0  0  0  0  0  0  0
  149.1477  130.3970  154.0441 C   0  0  0  0  0  0  0  0  0  0  0  0
  150.0152  129.2161  154.4426 C   0  0  0  0  0  0  0  0  0  0  0  0
  149.7176  128.1356  153.7206 F   0  0  0  0  0  0  0  0  0  0  0  0
  151.3077  129.4937  154.2715 F   0  0  0  0  0  0  0  0  0  0  0  0
  149.8199  128.9239  155.7275 F   0  0  0  0  0  0  0  0  0  0  0  0
  147.9065  130.2740  153.4505 C   0  0  0  0  0  0  0  0  0  0  0  0
  147.0758  131.2428  153.0076 N   0  5  0  0  0  0  0  0  0  0  0  0
  147.4882  132.5381  153.1065 C   0  0  0  0  0  0  0  0  0  0  0  0
  146.7821  133.4694  152.7180 O   0  0  0  0  0  0  0  0  0  0  0  0
  149.7324  138.3498  155.6623 C   0  0  0  0  0  0  0  0  0  0  0  0
  149.1541  138.3263  157.0811 C   0  0  0  0  0  0  0  0  0  0  0  0
  148.5489  138.6842  154.7315 C   0  0  0  0  0  0  0  0  0  0  0  0
  149.9737  142.3135  154.9682 H   0  0  0  0  0  0  0  0  0  0  0  0
  150.6675  141.6583  156.4456 H   0  0  0  0  0  0  0  0  0  0  0  0
  149.0781  141.1126  155.8818 H   0  0  0  0  0  0  0  0  0  0  0  0
  152.0949  138.5996  157.2711 H   0  0  0  0  0  0  0  0  0  0  0  0
  151.5023  140.2537  157.2925 H   0  0  0  0  0  0  0  0  0  0  0  0
  152.9257  139.8249  156.3492 H   0  0  0  0  0  0  0  0  0  0  0  0
  151.1393  138.2441  153.4418 H   0  0  0  0  0  0  0  0  0  0  0  0
  152.5499  137.8556  154.4954 H   0  0  0  0  0  0  0  0  0  0  0  0
  151.1481  136.7025  156.1175 H   0  0  0  0  0  0  0  0  0  0  0  0
  149.4866  136.4756  153.5961 H   0  0  0  0  0  0  0  0  0  0  0  0
  148.8454  134.7320  152.9934 H   0  0  0  0  0  0  0  0  0  0  0  0
  150.5370  131.9586  154.6026 H   0  0  0  0  0  0  0  0  0  0  0  0
  147.5242  129.2409  153.3072 H   0  0  0  0  0  0  0  0  0  0  0  0
  148.2842  137.6721  157.1490 H   0  0  0  0  0  0  0  0  0  0  0  0
  148.8439  139.3212  157.4016 H   0  0  0  0  0  0  0  0  0  0  0  0
  149.8759  137.9593  157.8101 H   0  0  0  0  0  0  0  0  0  0  0  0
  147.7541  137.9414  154.8074 H   0  0  0  0  0  0  0  0  0  0  0  0
  148.8452  138.7271  153.6835 H   0  0  0  0  0  0  0  0  0  0  0  0
  148.1091  139.6509  154.9785 H   0  0  0  0  0  0  0  0  0  0  0  0
  1  2  1  0  0  0  0
  1 25  1  0  0  0  0
  1 26  1  0  0  0  0
  1 27  1  0  0  0  0
  2  3  1  0  0  0  0
  3 22  1  0  0  0  0
  3  4  1  0  0  0  0
  3  5  1  0  0  0  0
  4 28  1  0  0  0  0
  4 29  1  0  0  0  0
  4 30  1  0  0  0  0
  5  6  1  0  0  0  0
  5 31  1  0  0  0  0
  5 32  1  0  0  0  0
  6  7  1  0  0  0  0
  6 22  1  0  0  0  0
  6 33  1  0  0  0  0
  7  8  1  0  0  0  0
  7 34  1  0  0  0  0
  8  9  2  0  0  0  0
  8 10  1  0  0  0  0
 10 11  1  0  0  0  0
 10 35  1  0  0  0  0
 11 20  1  0  0  0  0
 11 12  2  0  0  0  0
 12 13  1  0  0  0  0
 12 36  1  0  0  0  0
 13 14  1  0  0  0  0
 13 18  2  0  0  0  0
 14 15  1  0  0  0  0
 14 16  1  0  0  0  0
 14 17  1  0  0  0  0
 18 19  1  0  0  0  0
 18 37  1  0  0  0  0
 19 20  1  0  0  0  0
 20 21  2  0  0  0  0
 22 23  1  0  0  0  0
 22 24  1  0  0  0  0
 23 38  1  0  0  0  0
 23 39  1  0  0  0  0
 23 40  1  0  0  0  0
 24 41  1  0  0  0  0
 24 42  1  0  0  0  0
 24 43  1  0  0  0  0
M  CHG  1  19  -1
M  END
> <s_m_source_file>
AV-unprocessed.smi

> <i_m_source_file_index>
697

> <i_lp_mmshare_version>
43012

> <i_f3d_flags>
0

> <s_epik_input>
W0NIM11PW0NAQF0xKFtDSDNdKVtDSDJdW0NASF0oQzEoW0NIM10pW0NIM10pW05IXUMoPU8pW05IXWMyW2NIXWMoQyhGKShGKUYpW2NIXVtuSF1jMj1P

> <s_epik_cmdline>
J2VwaWtfcHl0aG9uJywgJy1waCcsICc3LjAnLCAnLXRuJywgJzgnLCAnLW1hJywgJzIwMCcsICctbWV0YWxfYmluZGluZycsICctaW1hZScsICc8aW5maWxlLm1hZT4nLCAnLW9tYWUnLCAnPG91dGZpbGUubWFlPic=

> <r_lp_tautomer_probability>
1

> <r_epik_Ionization_Penalty>
3.20094

> <r_epik_Ionization_Penalty_Charging>
0.180017

> <r_epik_Ionization_Penalty_Neutral>
3.02092

> <r_epik_State_Penalty>
3.01726

> <r_epik_Charging_Adjusted_Penalty>
3.19727

> <i_epik_Tot_Q>
-1

> <i_epik_Tot_abs_Q>
1

> <r_epik_Metal_State_Penalty>
0.455096

> <b_epik_Metal_Only>
1

> <s_lp_Force_Field>
OPLS_2005

> <r_lp_Energy>
36.1222

> <b_lp_Chiralities_Consistent>
1

> <s_lp_Variant>
AV-unprocessed.smi:697-8

> <Gold.Version>
5.8.1

> <Gold.Id.Protein>
6NUR|6NUR_protein|mol2

> <Gold.PLP.Fitness>
42.2713

> <Gold.PLP.PLP>
-36.4956

> <Gold.PLP.part.hbond>
-3.4817

> <Gold.PLP.part.metal>
0.0000

> <Gold.PLP.part.buried>
-3.1761

> <Gold.PLP.part.nonpolar>
-29.9603

> <Gold.PLP.part.repulsive>
0.4289

> <Gold.PLP.ligand.clash>
0.0000

> <Gold.PLP.ligand.torsion>
1.5216

> <Gold.PLP.Chemscore.Hbond>
2.8000

> <Gold.PLP.Chemscore.CHOScore>
0.0000

> <Gold.PLP.Chemscore.Metal>
0.0000

> <Gold.Chemscore.Hbonds>
donor molecule, donor type, donor heavy atom, donor atom, acceptor molecule, acceptor atom, score
      L1  H     7    34       P1  7948  0.99
      L1  H    10    35       P1  7948  0.80
      P1  H  7989  7998       L1     2  1.00

> <Gold.PLP.Chemscore.Internal.Correction>
0.4188

> <Gold.Rescore>
     Score         DG    S(hbond)    S(metal)    S(lipo)     H(rot)  DE(clash)    DE(int)     intcor
     15.71     -17.12       2.21        0.00      64.69       1.30       0.02       1.40       ----

> <Gold.Chemscore.Fitness>
15.7051

> <Gold.Chemscore.DG>
-17.1236

> <Gold.Chemscore.ZeroCoef>
-5.4800

> <Gold.Chemscore.Hbond>
2.2143

> <Gold.Chemscore.Metal>
0.0000

> <Gold.Chemscore.Lipo>
64.6917

> <Gold.Chemscore.Internal_Hbond>
0.0000

> <Gold.Chemscore.DEClash>
0.0215

> <Gold.Chemscore.DEInternal>
1.3970

> <Gold.Chemscore.Rot>
1.2973

> <Gold.Chemscore.Internal.Correction>
   9.000000E+99

> <Gold.Chemscore.Hbonds>
donor molecule, donor type, donor heavy atom, donor atom, acceptor molecule, acceptor atom, score
      L1  H     7    34       P1  7948  0.70
      L1  H    10    35       P1  7948  0.11
      P1  H  7989  7998       L1     2  0.91

> <Gold.Chemscore.Hbond.Weighted>
-7.3956

> <Gold.Chemscore.Metal.Weighted>
-0.0000

> <Gold.Chemscore.Lipo.Weighted>
-7.5689

> <Gold.Chemscore.Internal_Hbond.Weighted>
0.0000

> <Gold.Chemscore.DEClash.Weighted>
0.0215

> <Gold.Chemscore.DEInternal.Weighted>
1.3970

> <Gold.Chemscore.Rot.Weighted>
3.3210

> <Gold.Chemscore.Internal.Correction.Weighted>
   9.000000E+99

> <Gold.Protein.RotatedTorsions>
[ 6907 6896 6895 6894 ] final  109.84 input  -60.11 | X-H torsion
[ 7974 7965 7964 7962 ] final  -91.70 input  175.53 | X-H torsion
[ 8008 7997 7996 7995 ] final   49.61 input   59.86 | X-H torsion
[ 10167 10162 10161 10158 ] final -169.90 input  -65.29 | X-H torsion
[ 10718 10713 10712 10709 ] final  -73.88 input   66.30 | X-H torsion
[ 10763 10752 10751 10750 ] final -110.26 input  -60.55 | X-H torsion
[ 11005 11000 10999 10996 ] final  159.87 input  -57.11 | X-H torsion

> <Gold.Protein.ActiveResidues>
 VAL166  LYS551  ARG553  GLY616  TRP617  ASP618  TYR619  PRO620  LYS621  CYS622 
 ASP623  PHE694  ASN695  SER759  ASP760  ASP761  ALA762  ILE779  LEU786  VAL792 
 PHE793  MET794  SER795  GLU796  ALA797  LYS798  CYS799  TRP800  GLU811  SER814 

> <Gold.Protein.RotatedAtoms>
  152.5048  133.8886  159.7382 H   0  0  0  0  0  0  0  0  0  0  0  0  # atno 6907 bound_to 6896
  150.9330  133.6735  159.2813 H   0  0  0  0  0  0  0  0  0  0  0  0  # atno 6908 bound_to 6896
  151.4073  135.0984  159.9627 H   0  0  0  0  0  0  0  0  0  0  0  0  # atno 6909 bound_to 6896
  145.4097  140.9544  143.2241 H   0  0  0  0  0  0  0  0  0  0  0  0  # atno 7974 bound_to 7965
  155.4050  140.3439  155.4259 H   0  0  0  0  0  0  0  0  0  0  0  0  # atno 8008 bound_to 7997
  156.1482  140.1562  156.8845 H   0  0  0  0  0  0  0  0  0  0  0  0  # atno 8009 bound_to 7997
  154.5029  140.0810  156.7815 H   0  0  0  0  0  0  0  0  0  0  0  0  # atno 8010 bound_to 7997
  139.5894  144.1246  152.1616 H   0  0  0  0  0  0  0  0  0  0  0  0  # atno 10167 bound_to 10162
  156.0263  130.4404  150.2808 H   0  0  0  0  0  0  0  0  0  0  0  0  # atno 10718 bound_to 10713
  154.8238  135.4571  154.0858 H   0  0  0  0  0  0  0  0  0  0  0  0  # atno 10763 bound_to 10752
  153.2189  135.6891  153.8030 H   0  0  0  0  0  0  0  0  0  0  0  0  # atno 10764 bound_to 10752
  153.7455  135.3306  155.3288 H   0  0  0  0  0  0  0  0  0  0  0  0  # atno 10765 bound_to 10752
  140.2004  134.8342  157.3011 H   0  0  0  0  0  0  0  0  0  0  0  0  # atno 11005 bound_to 11000
  144.8317  139.5617  143.6940 LP  0  0  0  0  0  0  0  0  0  0  0  0  # atno 17320 bound_to 7965
  146.2711  139.6637  142.9295 LP  0  0  0  0  0  0  0  0  0  0  0  0  # atno 17321 bound_to 7965
  140.0817  144.5695  150.7117 LP  0  0  0  0  0  0  0  0  0  0  0  0  # atno 17342 bound_to 10162
  140.7160  143.2545  151.4433 LP  0  0  0  0  0  0  0  0  0  0  0  0  # atno 17343 bound_to 10162
  157.0911  131.0170  151.3121 LP  0  0  0  0  0  0  0  0  0  0  0  0  # atno 17370 bound_to 10713
  157.4853  130.7789  149.7454 LP  0  0  0  0  0  0  0  0  0  0  0  0  # atno 17371 bound_to 10713
  140.2061  134.4196  155.7637 LP  0  0  0  0  0  0  0  0  0  0  0  0  # atno 17394 bound_to 11000
  141.2227  133.7095  156.8262 LP  0  0  0  0  0  0  0  0  0  0  0  0  # atno 17395 bound_to 11000

$$$$
