AV-unprocessed.smi:1830|AV-procd|sdf|7436|dock9
  -GOLD-   22720 9123D 1   1.00000     0.00000
 Structure written by MMmdl.
 53 56  0  0  0  0  0  0  0  0  2 V2000
  149.9980  135.1148  156.1675 O   0  0  0  0  0  0  0  0  0  0  0  0
  149.6058  135.3860  155.0328 C   0  0  0  0  0  0  0  0  0  0  0  0
  148.8970  134.5404  154.2718 N   0  0  0  0  0  0  0  0  0  0  0  0
  148.5088  133.1883  154.6591 C   0  0  0  0  0  0  0  0  0  0  0  0
  148.0314  132.3654  153.4492 C   0  0  2  0  0  0  0  0  0  0  0  0
  147.3717  133.2522  152.3802 C   0  0  0  0  0  0  0  0  0  0  0  0
  146.8750  132.4483  151.2343 N   0  3  2  0  0  0  0  0  0  0  0  0
  145.9847  133.2282  150.3468 C   0  0  0  0  0  0  0  0  0  0  0  0
  144.5420  132.9090  150.7800 C   0  0  0  0  0  0  0  0  0  0  0  0
  144.6602  131.8085  151.8409 C   0  0  0  0  0  0  0  0  0  0  0  0
  146.0798  131.2729  151.6514 C   0  0  2  0  0  0  0  0  0  0  0  0
  146.6853  130.5248  152.8559 C   0  0  0  0  0  0  0  0  0  0  0  0
  147.0528  131.4305  153.8851 O   0  0  0  0  0  0  0  0  0  0  0  0
  149.8437  136.5381  154.3846 N   0  0  0  0  0  0  0  0  0  0  0  0
  150.6124  137.6522  154.8258 C   0  0  0  0  0  0  0  0  0  0  0  0
  151.8310  137.4833  155.5278 C   0  0  0  0  0  0  0  0  0  0  0  0
  152.5616  138.6166  155.9240 C   0  0  0  0  0  0  0  0  0  0  0  0
  152.0457  139.8840  155.6069 C   0  0  0  0  0  0  0  0  0  0  0  0
  150.8781  140.0620  154.9575 N   0  0  0  0  0  0  0  0  0  0  0  0
  150.1539  138.9788  154.5826 C   0  0  0  0  0  0  0  0  0  0  0  0
  148.9273  139.2263  153.9248 N   0  0  0  0  0  0  0  0  0  0  0  0
  148.6262  140.5515  153.3935 C   0  0  0  0  0  0  0  0  0  0  0  0
  147.1215  140.5427  153.1395 C   0  0  0  0  0  0  0  0  0  0  0  0
  146.6034  139.6866  154.2907 C   0  0  0  0  0  0  0  0  0  0  0  0
  147.7146  138.6529  154.5008 C   0  0  0  0  0  0  0  0  0  0  0  0
  148.6160  134.8499  153.3529 H   0  0  0  0  0  0  0  0  0  0  0  0
  149.3261  132.6812  155.1748 H   0  0  0  0  0  0  0  0  0  0  0  0
  147.6987  133.2782  155.3834 H   0  0  0  0  0  0  0  0  0  0  0  0
  148.8868  131.8409  153.0184 H   0  0  0  0  0  0  0  0  0  0  0  0
  146.5447  133.8047  152.8300 H   0  0  0  0  0  0  0  0  0  0  0  0
  148.0818  133.9931  152.0107 H   0  0  0  0  0  0  0  0  0  0  0  0
  146.2025  134.2972  150.3675 H   0  0  0  0  0  0  0  0  0  0  0  0
  146.1416  132.8874  149.3227 H   0  0  0  0  0  0  0  0  0  0  0  0
  144.0415  133.7875  151.1883 H   0  0  0  0  0  0  0  0  0  0  0  0
  143.9576  132.5660  149.9255 H   0  0  0  0  0  0  0  0  0  0  0  0
  144.5494  132.2415  152.8361 H   0  0  0  0  0  0  0  0  0  0  0  0
  143.9017  131.0332  151.7297 H   0  0  0  0  0  0  0  0  0  0  0  0
  146.0565  130.5858  150.8039 H   0  0  0  0  0  0  0  0  0  0  0  0
  145.9709  129.8025  153.2516 H   0  0  0  0  0  0  0  0  0  0  0  0
  147.5633  129.9554  152.5467 H   0  0  0  0  0  0  0  0  0  0  0  0
  149.5399  136.5783  153.4230 H   0  0  0  0  0  0  0  0  0  0  0  0
  152.2126  136.5044  155.7746 H   0  0  0  0  0  0  0  0  0  0  0  0
  153.4956  138.5157  156.4568 H   0  0  0  0  0  0  0  0  0  0  0  0
  152.5797  140.7793  155.8884 H   0  0  0  0  0  0  0  0  0  0  0  0
  148.8648  141.3266  154.1230 H   0  0  0  0  0  0  0  0  0  0  0  0
  149.1904  140.7520  152.4822 H   0  0  0  0  0  0  0  0  0  0  0  0
  146.6871  141.5423  153.1199 H   0  0  0  0  0  0  0  0  0  0  0  0
  146.9053  140.0575  152.1867 H   0  0  0  0  0  0  0  0  0  0  0  0
  146.5005  140.3021  155.1854 H   0  0  0  0  0  0  0  0  0  0  0  0
  145.6348  139.2315  154.0824 H   0  0  0  0  0  0  0  0  0  0  0  0
  147.4721  137.7355  153.9640 H   0  0  0  0  0  0  0  0  0  0  0  0
  147.8356  138.4073  155.5567 H   0  0  0  0  0  0  0  0  0  0  0  0
  147.6804  132.1316  150.7136 H   0  0  0  0  0  0  0  0  0  0  0  0
  1  2  2  0  0  0  0
  2  3  1  0  0  0  0
  2 14  1  0  0  0  0
  3  4  1  0  0  0  0
  3 26  1  0  0  0  0
  4  5  1  0  0  0  0
  4 27  1  0  0  0  0
  4 28  1  0  0  0  0
  5 13  1  0  0  0  0
  5  6  1  0  0  0  0
  5 29  1  0  0  0  0
  6  7  1  0  0  0  0
  6 30  1  0  0  0  0
  6 31  1  0  0  0  0
  7 11  1  0  0  0  0
  7  8  1  0  0  0  0
  7 53  1  0  0  0  0
  8  9  1  0  0  0  0
  8 32  1  0  0  0  0
  8 33  1  0  0  0  0
  9 10  1  0  0  0  0
  9 34  1  0  0  0  0
  9 35  1  0  0  0  0
 10 11  1  0  0  0  0
 10 36  1  0  0  0  0
 10 37  1  0  0  0  0
 11 12  1  0  0  0  0
 11 38  1  0  0  0  0
 12 13  1  0  0  0  0
 12 39  1  0  0  0  0
 12 40  1  0  0  0  0
 14 15  1  0  0  0  0
 14 41  1  0  0  0  0
 15 20  1  0  0  0  0
 15 16  2  0  0  0  0
 16 17  1  0  0  0  0
 16 42  1  0  0  0  0
 17 18  2  0  0  0  0
 17 43  1  0  0  0  0
 18 19  1  0  0  0  0
 18 44  1  0  0  0  0
 19 20  2  0  0  0  0
 20 21  1  0  0  0  0
 21 25  1  0  0  0  0
 21 22  1  0  0  0  0
 22 23  1  0  0  0  0
 22 45  1  0  0  0  0
 22 46  1  0  0  0  0
 23 24  1  0  0  0  0
 23 47  1  0  0  0  0
 23 48  1  0  0  0  0
 24 25  1  0  0  0  0
 24 49  1  0  0  0  0
 24 50  1  0  0  0  0
 25 51  1  0  0  0  0
 25 52  1  0  0  0  0
M  CHG  1   7   1
M  END
> <s_m_source_file>
AV-unprocessed.smi

> <i_m_source_file_index>
1830

> <i_lp_mmshare_version>
43012

> <i_f3d_flags>
0

> <s_epik_input>
W0NIMl0xW0NIMl1bQ0gyXVtDQEhdKE4xMilbQ0gyXU9bQ0BASF0oW0NIMl0yKVtDSDJdW05IXUMoPU8pW05IXWMzW2NIXVtjSF1bY0hdbmMzTjRbQ0gyXVtDSDJdW0NIMl1bQ0gyXTQ=

> <s_epik_cmdline>
J2VwaWtfcHl0aG9uJywgJy1waCcsICc3LjAnLCAnLXRuJywgJzgnLCAnLW1hJywgJzIwMCcsICctbWV0YWxfYmluZGluZycsICctaW1hZScsICc8aW5maWxlLm1hZT4nLCAnLW9tYWUnLCAnPG91dGZpbGUubWFlPic=

> <r_lp_tautomer_probability>
1

> <r_epik_Ionization_Penalty>
0.193547

> <r_epik_Ionization_Penalty_Charging>
0.10673

> <r_epik_Ionization_Penalty_Neutral>
0.0868166

> <r_epik_State_Penalty>
0.173595

> <r_epik_Charging_Adjusted_Penalty>
0.280326

> <i_epik_Tot_Q>
1

> <i_epik_Tot_abs_Q>
1

> <r_epik_Metal_State_Penalty>
0.164683

> <b_epik_Metal_Only>
0

> <s_lp_Force_Field>
OPLS_2005

> <r_lp_Energy>
65.0875

> <b_lp_Chiralities_Consistent>
1

> <s_lp_Variant>
AV-unprocessed.smi:1830-5

> <Gold.Version>
5.8.1

> <Gold.Id.Protein>
6NUR|6NUR_protein|mol2

> <Gold.PLP.Fitness>
48.9749

> <Gold.PLP.PLP>
-39.6841

> <Gold.PLP.part.hbond>
-4.4662

> <Gold.PLP.part.metal>
0.0000

> <Gold.PLP.part.buried>
0.8823

> <Gold.PLP.part.nonpolar>
-36.8149

> <Gold.PLP.part.repulsive>
1.3665

> <Gold.PLP.ligand.clash>
0.0000

> <Gold.PLP.ligand.torsion>
0.9756

> <Gold.PLP.Chemscore.Hbond>
3.6380

> <Gold.PLP.Chemscore.CHOScore>
0.0000

> <Gold.PLP.Chemscore.Metal>
0.0000

> <Gold.Chemscore.Hbonds>
donor molecule, donor type, donor heavy atom, donor atom, acceptor molecule, acceptor atom, score
      L1  H     3    26       P1  7948  0.90
      L1  H     7    53       P1 10747  1.00
      L1  H    14    41       P1  7948  1.00
      P1  H  7989  7998       L1    19  0.75

> <Gold.PLP.Chemscore.Internal.Correction>
0.3281

> <Gold.Rescore>
     Score         DG    S(hbond)    S(metal)    S(lipo)     H(rot)  DE(clash)    DE(int)     intcor
     17.96     -21.87       2.32        0.00     104.60       1.41       2.06       1.85       ----

> <Gold.Chemscore.Fitness>
17.9553

> <Gold.Chemscore.DG>
-21.8665

> <Gold.Chemscore.ZeroCoef>
-5.4800

> <Gold.Chemscore.Hbond>
2.3200

> <Gold.Chemscore.Metal>
0.0000

> <Gold.Chemscore.Lipo>
104.6050

> <Gold.Chemscore.Internal_Hbond>
0.0000

> <Gold.Chemscore.DEClash>
2.0645

> <Gold.Chemscore.DEInternal>
1.8468

> <Gold.Chemscore.Rot>
1.4067

> <Gold.Chemscore.Internal.Correction>
   9.000000E+99

> <Gold.Chemscore.Hbonds>
donor molecule, donor type, donor heavy atom, donor atom, acceptor molecule, acceptor atom, score
      L1  H     3    26       P1  7948  0.50
      L1  H     7    53       P1 10747  0.97
      L1  H    14    41       P1  7948  0.65
      P1  H  7989  7998       L1    19  0.07

> <Gold.Chemscore.Hbond.Weighted>
-7.7489

> <Gold.Chemscore.Metal.Weighted>
-0.0000

> <Gold.Chemscore.Lipo.Weighted>
-12.2388

> <Gold.Chemscore.Internal_Hbond.Weighted>
0.0000

> <Gold.Chemscore.DEClash.Weighted>
2.0645

> <Gold.Chemscore.DEInternal.Weighted>
1.8468

> <Gold.Chemscore.Rot.Weighted>
3.6011

> <Gold.Chemscore.Internal.Correction.Weighted>
   9.000000E+99

> <Gold.Protein.RotatedTorsions>
[ 6907 6896 6895 6894 ] final -138.45 input  -60.11 | X-H torsion
[ 7974 7965 7964 7962 ] final   91.70 input  175.53 | X-H torsion
[ 8008 7997 7996 7995 ] final  -35.82 input   59.86 | X-H torsion
[ 10167 10162 10161 10158 ] final   51.88 input  -65.29 | X-H torsion
[ 10718 10713 10712 10709 ] final  173.26 input   66.30 | X-H torsion
[ 10763 10752 10751 10750 ] final -114.71 input  -60.55 | X-H torsion
[ 11005 11000 10999 10996 ] final   69.95 input  -57.11 | X-H torsion

> <Gold.Protein.ActiveResidues>
 VAL166  LYS551  ARG553  GLY616  TRP617  ASP618  TYR619  PRO620  LYS621  CYS622 
 ASP623  PHE694  ASN695  SER759  ASP760  ASP761  ALA762  ILE779  LEU786  VAL792 
 PHE793  MET794  SER795  GLU796  ALA797  LYS798  CYS799  TRP800  GLU811  SER814 

> <Gold.Protein.RotatedAtoms>
  151.0352  133.5754  159.2656 H   0  0  0  0  0  0  0  0  0  0  0  0  # atno 6907 bound_to 6896
  151.2821  135.0716  159.9183 H   0  0  0  0  0  0  0  0  0  0  0  0  # atno 6908 bound_to 6896
  152.5353  134.0065  159.7973 H   0  0  0  0  0  0  0  0  0  0  0  0  # atno 6909 bound_to 6896
  145.5022  139.2276  143.2771 H   0  0  0  0  0  0  0  0  0  0  0  0  # atno 7974 bound_to 7965
  154.4087  140.1647  156.2273 H   0  0  0  0  0  0  0  0  0  0  0  0  # atno 8008 bound_to 7997
  155.9313  140.3414  155.6228 H   0  0  0  0  0  0  0  0  0  0  0  0  # atno 8009 bound_to 7997
  155.7103  140.0756  157.2364 H   0  0  0  0  0  0  0  0  0  0  0  0  # atno 8010 bound_to 7997
  140.2572  144.3413  150.6329 H   0  0  0  0  0  0  0  0  0  0  0  0  # atno 10167 bound_to 10162
  156.9669  131.0078  151.2914 H   0  0  0  0  0  0  0  0  0  0  0  0  # atno 10718 bound_to 10713
  154.8451  135.4408  154.1549 H   0  0  0  0  0  0  0  0  0  0  0  0  # atno 10763 bound_to 10752
  153.2700  135.6944  153.7496 H   0  0  0  0  0  0  0  0  0  0  0  0  # atno 10764 bound_to 10752
  153.6740  135.3414  155.3136 H   0  0  0  0  0  0  0  0  0  0  0  0  # atno 10765 bound_to 10752
  139.9625  134.7037  156.0616 H   0  0  0  0  0  0  0  0  0  0  0  0  # atno 11005 bound_to 11000
  146.2219  140.5823  142.9013 LP  0  0  0  0  0  0  0  0  0  0  0  0  # atno 17320 bound_to 7965
  144.7774  140.5768  143.6629 LP  0  0  0  0  0  0  0  0  0  0  0  0  # atno 17321 bound_to 7965
  140.5994  143.2167  151.7101 LP  0  0  0  0  0  0  0  0  0  0  0  0  # atno 17342 bound_to 10162
  139.5028  144.3816  152.0370 LP  0  0  0  0  0  0  0  0  0  0  0  0  # atno 17343 bound_to 10162
  157.5619  130.8251  149.8277 LP  0  0  0  0  0  0  0  0  0  0  0  0  # atno 17370 bound_to 10713
  156.0299  130.3768  150.1718 LP  0  0  0  0  0  0  0  0  0  0  0  0  # atno 17371 bound_to 10713
  141.1303  133.6588  156.3446 LP  0  0  0  0  0  0  0  0  0  0  0  0  # atno 17394 bound_to 11000
  140.5469  134.6066  157.5396 LP  0  0  0  0  0  0  0  0  0  0  0  0  # atno 17395 bound_to 11000

$$$$
