AV-unprocessed.smi:420|AV-procd|sdf|2533|dock7
  -GOLD-   2262022493D 1   1.00000     0.00000
 Structure written by MMmdl.
 36 38  0  0  0  0  0  0  0  0  1 V2000
  151.6378  142.4379  157.8589 C   0  0  0  0  0  0  0  0  0  0  0  0
  152.3886  141.8085  158.9386 N   0  0  0  0  0  0  0  0  0  0  0  0
  153.0197  140.6116  158.9045 C   0  0  0  0  0  0  0  0  0  0  0  0
  153.0680  139.8439  157.9434 O   0  0  0  0  0  0  0  0  0  0  0  0
  153.5970  140.4072  160.1126 N   0  0  0  0  0  0  0  0  0  0  0  0
  154.3837  139.2416  160.5136 C   0  0  0  0  0  0  0  0  0  0  0  0
  153.5971  137.9280  160.3332 C   0  0  1  0  0  0  0  0  0  0  0  0
  153.8801  137.4050  159.0500 O   0  0  0  0  0  0  0  0  0  0  0  0
  153.9411  136.9329  161.4313 C   0  0  0  0  0  0  0  0  0  0  0  0
  154.5481  135.6950  161.1224 C   0  0  0  0  0  0  0  0  0  0  0  0
  154.8708  134.7865  162.1492 C   0  0  0  0  0  0  0  0  0  0  0  0
  154.5932  135.1116  163.4909 C   0  0  0  0  0  0  0  0  0  0  0  0
  154.9058  134.2392  164.4781 F   0  0  0  0  0  0  0  0  0  0  0  0
  153.9924  136.3456  163.8051 C   0  0  0  0  0  0  0  0  0  0  0  0
  153.6680  137.2537  162.7784 C   0  0  0  0  0  0  0  0  0  0  0  0
  153.3346  141.5093  160.9395 C   0  0  0  0  0  0  0  0  0  0  0  0
  153.7154  141.7883  162.2640 C   0  0  0  0  0  0  0  0  0  0  0  0
  153.2798  143.0153  162.8174 C   0  0  0  0  0  0  0  0  0  0  0  0
  152.4931  143.9183  162.0559 C   0  0  0  0  0  0  0  0  0  0  0  0
  152.1270  143.6145  160.7235 C   0  0  0  0  0  0  0  0  0  0  0  0
  152.5727  142.3891  160.1996 C   0  0  0  0  0  0  0  0  0  0  0  0
  151.5975  141.8116  156.9668 H   0  0  0  0  0  0  0  0  0  0  0  0
  152.0991  143.3867  157.5836 H   0  0  0  0  0  0  0  0  0  0  0  0
  150.6143  142.6354  158.1779 H   0  0  0  0  0  0  0  0  0  0  0  0
  155.3383  139.2058  159.9874 H   0  0  0  0  0  0  0  0  0  0  0  0
  154.6359  139.3694  161.5679 H   0  0  0  0  0  0  0  0  0  0  0  0
  152.5252  138.1258  160.3784 H   0  0  0  0  0  0  0  0  0  0  0  0
  154.6793  136.9035  159.1018 H   0  0  0  0  0  0  0  0  0  0  0  0
  154.7711  135.4382  160.0970 H   0  0  0  0  0  0  0  0  0  0  0  0
  155.3331  133.8409  161.9075 H   0  0  0  0  0  0  0  0  0  0  0  0
  153.7812  136.5969  164.8341 H   0  0  0  0  0  0  0  0  0  0  0  0
  153.2108  138.1996  163.0303 H   0  0  0  0  0  0  0  0  0  0  0  0
  154.3177  141.1007  162.8387 H   0  0  0  0  0  0  0  0  0  0  0  0
  153.5502  143.2681  163.8320 H   0  0  0  0  0  0  0  0  0  0  0  0
  152.1713  144.8496  162.4981 H   0  0  0  0  0  0  0  0  0  0  0  0
  151.5309  144.2969  160.1360 H   0  0  0  0  0  0  0  0  0  0  0  0
  1  2  1  0  0  0  0
  1 22  1  0  0  0  0
  1 23  1  0  0  0  0
  1 24  1  0  0  0  0
  2 21  1  0  0  0  0
  2  3  1  0  0  0  0
  3  4  2  0  0  0  0
  3  5  1  0  0  0  0
  5  6  1  0  0  0  0
  5 16  1  0  0  0  0
  6  7  1  0  0  0  0
  6 25  1  0  0  0  0
  6 26  1  0  0  0  0
  7  8  1  0  0  0  0
  7  9  1  0  0  0  0
  7 27  1  0  0  0  0
  8 28  1  0  0  0  0
  9 15  1  0  0  0  0
  9 10  2  0  0  0  0
 10 11  1  0  0  0  0
 10 29  1  0  0  0  0
 11 12  2  0  0  0  0
 11 30  1  0  0  0  0
 12 13  1  0  0  0  0
 12 14  1  0  0  0  0
 14 15  2  0  0  0  0
 14 31  1  0  0  0  0
 15 32  1  0  0  0  0
 16 21  2  0  0  0  0
 16 17  1  0  0  0  0
 17 18  2  0  0  0  0
 17 33  1  0  0  0  0
 18 19  1  0  0  0  0
 18 34  1  0  0  0  0
 19 20  2  0  0  0  0
 19 35  1  0  0  0  0
 20 21  1  0  0  0  0
 20 36  1  0  0  0  0
M  END
> <s_m_source_file>
AV-unprocessed.smi

> <i_m_source_file_index>
420

> <i_lp_mmshare_version>
43012

> <i_f3d_flags>
0

> <s_epik_input>
W2NIXTFbY0hdW2NIXVtjSF1jKGMxMiluKFtDSDNdKWMoPU8pbjJbQ0gyXVtDQEhdKFtPSF0pYzNbY0hdW2NIXWMoRilbY0hdW2NIXTM=

> <s_epik_cmdline>
J2VwaWtfcHl0aG9uJywgJy1waCcsICc3LjAnLCAnLXRuJywgJzgnLCAnLW1hJywgJzIwMCcsICctbWV0YWxfYmluZGluZycsICctaW1hZScsICc8aW5maWxlLm1hZT4nLCAnLW9tYWUnLCAnPG91dGZpbGUubWFlPic=

> <r_lp_tautomer_probability>
1

> <r_epik_Ionization_Penalty>
1.79795e-06

> <r_epik_Ionization_Penalty_Charging>
2.57375e-09

> <r_epik_Ionization_Penalty_Neutral>
1.79538e-06

> <r_epik_State_Penalty>
-0

> <r_epik_Charging_Adjusted_Penalty>
2.57375e-09

> <i_epik_Tot_Q>
0

> <i_epik_Tot_abs_Q>
0

> <r_epik_Metal_State_Penalty>
-0

> <b_epik_Metal_Only>
0

> <s_lp_Force_Field>
OPLS_2005

> <r_lp_Energy>
43.03

> <b_lp_Chiralities_Consistent>
1

> <s_lp_Variant>
AV-unprocessed.smi:420-2

> <Gold.Version>
5.8.1

> <Gold.Id.Protein>
6NUR|6NUR_protein|mol2

> <Gold.PLP.Fitness>
53.6638

> <Gold.PLP.PLP>
-51.6132

> <Gold.PLP.part.hbond>
-1.0000

> <Gold.PLP.part.metal>
0.0000

> <Gold.PLP.part.buried>
-4.7007

> <Gold.PLP.part.nonpolar>
-44.3301

> <Gold.PLP.part.repulsive>
0.0000

> <Gold.PLP.ligand.clash>
0.0000

> <Gold.PLP.ligand.torsion>
0.4799

> <Gold.PLP.Chemscore.Hbond>
1.0000

> <Gold.PLP.Chemscore.CHOScore>
0.0000

> <Gold.PLP.Chemscore.Metal>
0.0000

> <Gold.Chemscore.Hbonds>
donor molecule, donor type, donor heavy atom, donor atom, acceptor molecule, acceptor atom, score
      P1  H  7997  8010       L1     4  1.00

> <Gold.PLP.Chemscore.Internal.Correction>
0.0104

> <Gold.Rescore>
     Score         DG    S(hbond)    S(metal)    S(lipo)     H(rot)  DE(clash)    DE(int)     intcor
     18.74     -19.52       0.90        0.00     134.59       1.85       0.18       0.60       ----

> <Gold.Chemscore.Fitness>
18.7416

> <Gold.Chemscore.DG>
-19.5229

> <Gold.Chemscore.ZeroCoef>
-5.4800

> <Gold.Chemscore.Hbond>
0.9050

> <Gold.Chemscore.Metal>
0.0000

> <Gold.Chemscore.Lipo>
134.5924

> <Gold.Chemscore.Internal_Hbond>
0.0000

> <Gold.Chemscore.DEClash>
0.1846

> <Gold.Chemscore.DEInternal>
0.5967

> <Gold.Chemscore.Rot>
1.8465

> <Gold.Chemscore.Internal.Correction>
   9.000000E+99

> <Gold.Chemscore.Hbonds>
donor molecule, donor type, donor heavy atom, donor atom, acceptor molecule, acceptor atom, score
      P1  H  7997  8010       L1     4  0.78

> <Gold.Chemscore.Hbond.Weighted>
-3.0226

> <Gold.Chemscore.Metal.Weighted>
-0.0000

> <Gold.Chemscore.Lipo.Weighted>
-15.7473

> <Gold.Chemscore.Internal_Hbond.Weighted>
0.0000

> <Gold.Chemscore.DEClash.Weighted>
0.1846

> <Gold.Chemscore.DEInternal.Weighted>
0.5967

> <Gold.Chemscore.Rot.Weighted>
4.7270

> <Gold.Chemscore.Internal.Correction.Weighted>
   9.000000E+99

> <Gold.Protein.RotatedTorsions>
[ 6907 6896 6895 6894 ] final   -4.10 input  -60.11 | X-H torsion
[ 7974 7965 7964 7962 ] final  114.14 input  175.53 | X-H torsion
[ 8008 7997 7996 7995 ] final   33.37 input   59.86 | X-H torsion
[ 10167 10162 10161 10158 ] final   76.10 input  -65.29 | X-H torsion
[ 10718 10713 10712 10709 ] final -165.29 input   66.30 | X-H torsion
[ 10763 10752 10751 10750 ] final    1.84 input  -60.55 | X-H torsion
[ 11005 11000 10999 10996 ] final  152.11 input  -57.11 | X-H torsion

> <Gold.Protein.ActiveResidues>
 VAL166  LYS551  ARG553  GLY616  TRP617  ASP618  TYR619  PRO620  LYS621  CYS622 
 ASP623  PHE694  ASN695  SER759  ASP760  ASP761  ALA762  ILE779  LEU786  VAL792 
 PHE793  MET794  SER795  GLU796  ALA797  LYS798  CYS799  TRP800  GLU811  SER814 

> <Gold.Protein.RotatedAtoms>
  151.5031  135.1062  159.9833 H   0  0  0  0  0  0  0  0  0  0  0  0  # atno 6907 bound_to 6896
  152.4693  133.7990  159.6953 H   0  0  0  0  0  0  0  0  0  0  0  0  # atno 6908 bound_to 6896
  150.8694  133.7464  159.2992 H   0  0  0  0  0  0  0  0  0  0  0  0  # atno 6909 bound_to 6896
  145.2082  139.2919  143.4282 H   0  0  0  0  0  0  0  0  0  0  0  0  # atno 7974 bound_to 7965
  155.1374  140.3263  155.4460 H   0  0  0  0  0  0  0  0  0  0  0  0  # atno 8008 bound_to 7997
  156.2615  140.1999  156.6441 H   0  0  0  0  0  0  0  0  0  0  0  0  # atno 8009 bound_to 7997
  154.6567  140.0552  157.0003 H   0  0  0  0  0  0  0  0  0  0  0  0  # atno 8010 bound_to 7997
  139.9958  144.5723  150.7778 H   0  0  0  0  0  0  0  0  0  0  0  0  # atno 10167 bound_to 10162
  156.6513  130.9008  151.3013 H   0  0  0  0  0  0  0  0  0  0  0  0  # atno 10718 bound_to 10713
  153.3030  135.6957  153.7185 H   0  0  0  0  0  0  0  0  0  0  0  0  # atno 10763 bound_to 10752
  153.6092  135.3447  155.2973 H   0  0  0  0  0  0  0  0  0  0  0  0  # atno 10764 bound_to 10752
  154.8555  135.4359  154.2147 H   0  0  0  0  0  0  0  0  0  0  0  0  # atno 10765 bound_to 10752
  140.1278  134.8821  157.2162 H   0  0  0  0  0  0  0  0  0  0  0  0  # atno 11005 bound_to 11000
  146.3403  140.2349  142.8594 LP  0  0  0  0  0  0  0  0  0  0  0  0  # atno 17320 bound_to 7965
  144.9881  140.8522  143.5356 LP  0  0  0  0  0  0  0  0  0  0  0  0  # atno 17321 bound_to 7965
  140.7437  143.2850  151.3488 LP  0  0  0  0  0  0  0  0  0  0  0  0  # atno 17342 bound_to 10162
  139.6307  144.0727  152.2473 LP  0  0  0  0  0  0  0  0  0  0  0  0  # atno 17343 bound_to 10162
  157.7140  130.9474  150.1188 LP  0  0  0  0  0  0  0  0  0  0  0  0  # atno 17370 bound_to 10713
  156.2082  130.3665  149.8703 LP  0  0  0  0  0  0  0  0  0  0  0  0  # atno 17371 bound_to 10713
  140.2881  134.3272  155.7323 LP  0  0  0  0  0  0  0  0  0  0  0  0  # atno 17394 bound_to 11000
  141.2164  133.7518  156.9462 LP  0  0  0  0  0  0  0  0  0  0  0  0  # atno 17395 bound_to 11000

$$$$
