AV-unprocessed.smi:1481|AV-procd|sdf|5987|dock4
  -GOLD-   22720 6 83D 1   1.00000     0.00000
 Structure written by MMmdl.
 39 40  0  0  0  0  0  0  0  0  1 V2000
  149.2898  137.6539  156.1333 O   0  0  0  0  0  0  0  0  0  0  0  0
  149.2303  137.2767  154.9628 C   0  0  0  0  0  0  0  0  0  0  0  0
  148.7638  138.0277  153.9551 N   0  0  0  0  0  0  0  0  0  0  0  0
  148.2798  139.3979  154.0946 C   0  0  0  0  0  0  0  0  0  0  0  0
  149.0602  140.2414  155.0934 C   0  0  0  0  0  0  0  0  0  0  0  0
  150.4685  140.3223  155.0678 C   0  0  0  0  0  0  0  0  0  0  0  0
  151.1252  141.1214  156.0226 C   0  0  0  0  0  0  0  0  0  0  0  0
  150.3576  141.8244  156.9815 C   0  0  0  0  0  0  0  0  0  0  0  0
  150.9958  142.6245  157.9546 N   0  0  0  0  0  0  0  0  0  0  0  0
  151.7894  141.9510  158.9812 C   0  0  0  0  0  0  0  0  0  0  0  0
  152.1662  142.9357  160.1007 C   0  0  0  0  0  0  0  0  0  0  0  0
  152.8338  144.0626  159.5431 O   0  0  0  0  0  0  0  0  0  0  0  0
  152.0030  144.7696  158.6285 C   0  0  0  0  0  0  0  0  0  0  0  0
  151.6154  143.8506  157.4569 C   0  0  0  0  0  0  0  0  0  0  0  0
  149.0032  141.7574  156.9911 N   0  0  0  0  0  0  0  0  0  0  0  0
  148.3787  140.9883  156.0748 C   0  0  0  0  0  0  0  0  0  0  0  0
  149.6348  136.0717  154.5399 N   0  0  0  0  0  0  0  0  0  0  0  0
  150.2369  135.0473  155.3871 C   0  0  0  0  0  0  0  0  0  0  0  0
  149.4881  133.7072  155.2889 C   0  0  0  0  0  0  0  0  0  0  0  0
  148.2279  133.8809  155.6846 F   0  0  0  0  0  0  0  0  0  0  0  0
  149.4835  133.2741  154.0280 F   0  0  0  0  0  0  0  0  0  0  0  0
  150.0546  132.7849  156.0670 F   0  0  0  0  0  0  0  0  0  0  0  0
  148.7534  137.6316  153.0267 H   0  0  0  0  0  0  0  0  0  0  0  0
  148.3410  139.8808  153.1191 H   0  0  0  0  0  0  0  0  0  0  0  0
  147.2230  139.3862  154.3672 H   0  0  0  0  0  0  0  0  0  0  0  0
  151.0447  139.7848  154.3295 H   0  0  0  0  0  0  0  0  0  0  0  0
  152.2020  141.1950  155.9994 H   0  0  0  0  0  0  0  0  0  0  0  0
  151.2280  141.1186  159.4074 H   0  0  0  0  0  0  0  0  0  0  0  0
  152.6921  141.5388  158.5276 H   0  0  0  0  0  0  0  0  0  0  0  0
  151.2800  143.2585  160.6497 H   0  0  0  0  0  0  0  0  0  0  0  0
  152.8269  142.4515  160.8199 H   0  0  0  0  0  0  0  0  0  0  0  0
  151.1141  145.1419  159.1407 H   0  0  0  0  0  0  0  0  0  0  0  0
  152.5441  145.6404  158.2583 H   0  0  0  0  0  0  0  0  0  0  0  0
  152.5034  143.5867  156.8809 H   0  0  0  0  0  0  0  0  0  0  0  0
  150.9535  144.3955  156.7854 H   0  0  0  0  0  0  0  0  0  0  0  0
  147.3002  140.9674  156.1306 H   0  0  0  0  0  0  0  0  0  0  0  0
  149.5476  135.8558  153.5576 H   0  0  0  0  0  0  0  0  0  0  0  0
  151.2911  134.9137  155.1382 H   0  0  0  0  0  0  0  0  0  0  0  0
  150.2093  135.4074  156.4158 H   0  0  0  0  0  0  0  0  0  0  0  0
  1  2  2  0  0  0  0
  2  3  1  0  0  0  0
  2 17  1  0  0  0  0
  3  4  1  0  0  0  0
  3 23  1  0  0  0  0
  4  5  1  0  0  0  0
  4 24  1  0  0  0  0
  4 25  1  0  0  0  0
  5 16  1  0  0  0  0
  5  6  2  0  0  0  0
  6  7  1  0  0  0  0
  6 26  1  0  0  0  0
  7  8  2  0  0  0  0
  7 27  1  0  0  0  0
  8  9  1  0  0  0  0
  8 15  1  0  0  0  0
  9 14  1  0  0  0  0
  9 10  1  0  0  0  0
 10 11  1  0  0  0  0
 10 28  1  0  0  0  0
 10 29  1  0  0  0  0
 11 12  1  0  0  0  0
 11 30  1  0  0  0  0
 11 31  1  0  0  0  0
 12 13  1  0  0  0  0
 13 14  1  0  0  0  0
 13 32  1  0  0  0  0
 13 33  1  0  0  0  0
 14 34  1  0  0  0  0
 14 35  1  0  0  0  0
 15 16  2  0  0  0  0
 16 36  1  0  0  0  0
 17 18  1  0  0  0  0
 17 37  1  0  0  0  0
 18 19  1  0  0  0  0
 18 38  1  0  0  0  0
 18 39  1  0  0  0  0
 19 20  1  0  0  0  0
 19 21  1  0  0  0  0
 19 22  1  0  0  0  0
M  END
> <s_m_source_file>
AV-unprocessed.smi

> <i_m_source_file_index>
1481

> <i_lp_mmshare_version>
43012

> <i_f3d_flags>
0

> <s_epik_input>
RkMoRikoRilbQ0gyXVtOSF1DKD1PKVtOSF1bQ0gyXWMxW2NIXVtjSF1jKG5bY0hdMSlOMltDSDJdW0NIMl1PW0NIMl1bQ0gyXTI=

> <s_epik_cmdline>
J2VwaWtfcHl0aG9uJywgJy1waCcsICc3LjAnLCAnLXRuJywgJzgnLCAnLW1hJywgJzIwMCcsICctbWV0YWxfYmluZGluZycsICctaW1hZScsICc8aW5maWxlLm1hZT4nLCAnLW9tYWUnLCAnPG91dGZpbGUubWFlPic=

> <r_lp_tautomer_probability>
1

> <r_epik_Ionization_Penalty>
0.00288034

> <r_epik_Ionization_Penalty_Charging>
0

> <r_epik_Ionization_Penalty_Neutral>
0.00288034

> <r_epik_State_Penalty>
0.00199456

> <r_epik_Charging_Adjusted_Penalty>
0.00199456

> <i_epik_Tot_Q>
0

> <i_epik_Tot_abs_Q>
0

> <r_epik_Metal_State_Penalty>
-0

> <b_epik_Metal_Only>
0

> <s_lp_Force_Field>
OPLS_2005

> <r_lp_Energy>
12.6538

> <b_lp_Chiralities_Consistent>
1

> <s_lp_Variant>
AV-unprocessed.smi:1481-1

> <Gold.Version>
5.8.1

> <Gold.Id.Protein>
6NUR|6NUR_protein|mol2

> <Gold.PLP.Fitness>
42.7500

> <Gold.PLP.PLP>
-37.2824

> <Gold.PLP.part.hbond>
-2.0000

> <Gold.PLP.part.metal>
0.0000

> <Gold.PLP.part.buried>
-3.7863

> <Gold.PLP.part.nonpolar>
-32.0848

> <Gold.PLP.part.repulsive>
0.2778

> <Gold.PLP.ligand.clash>
0.0000

> <Gold.PLP.ligand.torsion>
0.4467

> <Gold.PLP.Chemscore.Hbond>
2.0000

> <Gold.PLP.Chemscore.CHOScore>
0.0000

> <Gold.PLP.Chemscore.Metal>
0.0000

> <Gold.Chemscore.Hbonds>
donor molecule, donor type, donor heavy atom, donor atom, acceptor molecule, acceptor atom, score
      L1  H     3    23       P1  7948  1.00
      L1  H    17    37       P1  7948  1.00

> <Gold.PLP.Chemscore.Internal.Correction>
0.3610

> <Gold.Rescore>
     Score         DG    S(hbond)    S(metal)    S(lipo)     H(rot)  DE(clash)    DE(int)     intcor
     13.77     -15.63       1.74        0.00      82.84       2.09       0.07       1.79       ----

> <Gold.Chemscore.Fitness>
13.7693

> <Gold.Chemscore.DG>
-15.6282

> <Gold.Chemscore.ZeroCoef>
-5.4800

> <Gold.Chemscore.Hbond>
1.7383

> <Gold.Chemscore.Metal>
0.0000

> <Gold.Chemscore.Lipo>
82.8432

> <Gold.Chemscore.Internal_Hbond>
0.0000

> <Gold.Chemscore.DEClash>
0.0703

> <Gold.Chemscore.DEInternal>
1.7887

> <Gold.Chemscore.Rot>
2.0899

> <Gold.Chemscore.Internal.Correction>
   9.000000E+99

> <Gold.Chemscore.Hbonds>
donor molecule, donor type, donor heavy atom, donor atom, acceptor molecule, acceptor atom, score
      L1  H     3    23       P1  7948  0.97
      L1  H    17    37       P1  7948  0.29

> <Gold.Chemscore.Hbond.Weighted>
-5.8058

> <Gold.Chemscore.Metal.Weighted>
-0.0000

> <Gold.Chemscore.Lipo.Weighted>
-9.6927

> <Gold.Chemscore.Internal_Hbond.Weighted>
0.0000

> <Gold.Chemscore.DEClash.Weighted>
0.0703

> <Gold.Chemscore.DEInternal.Weighted>
1.7887

> <Gold.Chemscore.Rot.Weighted>
5.3502

> <Gold.Chemscore.Internal.Correction.Weighted>
   9.000000E+99

> <Gold.Protein.RotatedTorsions>
[ 6907 6896 6895 6894 ] final -145.76 input  -60.11 | X-H torsion
[ 7974 7965 7964 7962 ] final  -72.94 input  175.53 | X-H torsion
[ 8008 7997 7996 7995 ] final   18.67 input   59.86 | X-H torsion
[ 10167 10162 10161 10158 ] final   18.89 input  -65.29 | X-H torsion
[ 10718 10713 10712 10709 ] final  148.86 input   66.30 | X-H torsion
[ 10763 10752 10751 10750 ] final  -65.06 input  -60.55 | X-H torsion
[ 11005 11000 10999 10996 ] final  106.81 input  -57.11 | X-H torsion

> <Gold.Protein.ActiveResidues>
 VAL166  LYS551  ARG553  GLY616  TRP617  ASP618  TYR619  PRO620  LYS621  CYS622 
 ASP623  PHE694  ASN695  SER759  ASP760  ASP761  ALA762  ILE779  LEU786  VAL792 
 PHE793  MET794  SER795  GLU796  ALA797  LYS798  CYS799  TRP800  GLU811  SER814 

> <Gold.Protein.RotatedAtoms>
  151.1322  133.5029  159.2598 H   0  0  0  0  0  0  0  0  0  0  0  0  # atno 6907 bound_to 6896
  151.1745  135.0333  159.8776 H   0  0  0  0  0  0  0  0  0  0  0  0  # atno 6908 bound_to 6896
  152.5460  134.1181  159.8440 H   0  0  0  0  0  0  0  0  0  0  0  0  # atno 6909 bound_to 6896
  145.6586  140.9260  143.0946 H   0  0  0  0  0  0  0  0  0  0  0  0  # atno 7974 bound_to 7965
  154.9094  140.3012  155.5274 H   0  0  0  0  0  0  0  0  0  0  0  0  # atno 8008 bound_to 7997
  156.3015  140.2392  156.4067 H   0  0  0  0  0  0  0  0  0  0  0  0  # atno 8009 bound_to 7997
  154.8440  140.0412  157.1549 H   0  0  0  0  0  0  0  0  0  0  0  0  # atno 8010 bound_to 7997
  140.5620  143.9320  150.6649 H   0  0  0  0  0  0  0  0  0  0  0  0  # atno 10167 bound_to 10162
  157.3034  131.0875  151.1372 H   0  0  0  0  0  0  0  0  0  0  0  0  # atno 10718 bound_to 10713
  154.3394  135.6160  153.5589 H   0  0  0  0  0  0  0  0  0  0  0  0  # atno 10763 bound_to 10752
  152.9805  135.5766  154.4870 H   0  0  0  0  0  0  0  0  0  0  0  0  # atno 10764 bound_to 10752
  154.4571  135.2854  155.1716 H   0  0  0  0  0  0  0  0  0  0  0  0  # atno 10765 bound_to 10752
  139.8819  134.9381  156.5723 H   0  0  0  0  0  0  0  0  0  0  0  0  # atno 11005 bound_to 11000
  144.7097  139.8419  143.7418 LP  0  0  0  0  0  0  0  0  0  0  0  0  # atno 17320 bound_to 7965
  146.1144  139.4153  143.0267 LP  0  0  0  0  0  0  0  0  0  0  0  0  # atno 17321 bound_to 7965
  140.2773  143.3414  152.1183 LP  0  0  0  0  0  0  0  0  0  0  0  0  # atno 17342 bound_to 10162
  139.5075  144.6832  151.5954 LP  0  0  0  0  0  0  0  0  0  0  0  0  # atno 17343 bound_to 10162
  157.2723  130.6710  149.6025 LP  0  0  0  0  0  0  0  0  0  0  0  0  # atno 17370 bound_to 10713
  155.9673  130.4475  150.5584 LP  0  0  0  0  0  0  0  0  0  0  0  0  # atno 17371 bound_to 10713
  140.8089  133.8445  155.8792 LP  0  0  0  0  0  0  0  0  0  0  0  0  # atno 17394 bound_to 11000
  140.9525  134.1761  157.4717 LP  0  0  0  0  0  0  0  0  0  0  0  0  # atno 17395 bound_to 11000

$$$$
