AV-unprocessed.smi:1531|AV-procd|sdf|6157|dock2
  -GOLD-   22720 6303D 1   1.00000     0.00000
 Structure written by MMmdl.
 44 45  0  0  0  0  0  0  0  0  1 V2000
  142.7816  136.9086  153.7479 C   0  0  0  0  0  0  0  0  0  0  0  0
  143.4279  136.7626  152.3631 C   0  0  0  0  0  0  0  0  0  0  0  0
  143.9924  135.3529  152.0738 C   0  0  1  0  0  0  0  0  0  0  0  0
  144.3643  135.2062  150.5819 C   0  0  0  0  0  0  0  0  0  0  0  0
  144.8785  133.7953  150.2546 C   0  0  0  0  0  0  0  0  0  0  0  0
  146.0720  133.4167  151.1425 C   0  0  0  0  0  0  0  0  0  0  0  0
  145.7169  133.5489  152.6323 C   0  0  0  0  0  0  0  0  0  0  0  0
  145.1846  134.9533  152.9838 C   0  0  1  0  0  0  0  0  0  0  0  0
  146.2625  135.9406  152.9082 N   0  0  0  0  0  0  0  0  0  0  0  0
  146.3251  137.0924  153.5908 C   0  0  0  0  0  0  0  0  0  0  0  0
  145.4655  137.4635  154.3902 O   0  0  0  0  0  0  0  0  0  0  0  0
  147.4411  137.7743  153.2864 N   0  0  0  0  0  0  0  0  0  0  0  0
  147.8343  139.0448  153.7763 C   0  0  0  0  0  0  0  0  0  0  0  0
  147.0201  140.2068  153.7582 C   0  0  0  0  0  0  0  0  0  0  0  0
  147.6511  141.2423  154.2903 N   0  0  0  0  0  0  0  0  0  0  0  0
  148.8671  140.7643  154.6561 N   0  0  0  0  0  0  0  0  0  0  0  0
  149.8270  141.6495  155.2914 C   0  0  0  0  0  0  0  0  0  0  0  0
  151.0240  140.8677  155.8362 C   0  0  0  0  0  0  0  0  0  0  0  0
  151.2907  140.9888  157.1398 N   0  0  0  0  0  0  0  0  0  0  0  0
  151.6995  140.1617  155.0905 O   0  0  0  0  0  0  0  0  0  0  0  0
  149.0125  139.4241  154.3542 C   0  0  0  0  0  0  0  0  0  0  0  0
  142.3182  137.8896  153.8545 H   0  0  0  0  0  0  0  0  0  0  0  0
  143.5162  136.8085  154.5470 H   0  0  0  0  0  0  0  0  0  0  0  0
  142.0074  136.1572  153.9041 H   0  0  0  0  0  0  0  0  0  0  0  0
  142.6732  136.9987  151.6121 H   0  0  0  0  0  0  0  0  0  0  0  0
  144.2070  137.5164  152.2452 H   0  0  0  0  0  0  0  0  0  0  0  0
  143.1876  134.6423  152.2693 H   0  0  0  0  0  0  0  0  0  0  0  0
  143.4963  135.4249  149.9589 H   0  0  0  0  0  0  0  0  0  0  0  0
  145.1240  135.9415  150.3136 H   0  0  0  0  0  0  0  0  0  0  0  0
  144.0744  133.0717  150.3946 H   0  0  0  0  0  0  0  0  0  0  0  0
  145.1651  133.7386  149.2040 H   0  0  0  0  0  0  0  0  0  0  0  0
  146.3861  132.3954  150.9259 H   0  0  0  0  0  0  0  0  0  0  0  0
  146.9233  134.0568  150.9070 H   0  0  0  0  0  0  0  0  0  0  0  0
  144.9569  132.8075  152.8824 H   0  0  0  0  0  0  0  0  0  0  0  0
  146.5858  133.3082  153.2463 H   0  0  0  0  0  0  0  0  0  0  0  0
  144.8172  134.9053  154.0099 H   0  0  0  0  0  0  0  0  0  0  0  0
  147.0206  135.7263  152.2769 H   0  0  0  0  0  0  0  0  0  0  0  0
  148.0706  137.3445  152.6245 H   0  0  0  0  0  0  0  0  0  0  0  0
  146.0138  140.3312  153.3862 H   0  0  0  0  0  0  0  0  0  0  0  0
  150.1596  142.3902  154.5629 H   0  0  0  0  0  0  0  0  0  0  0  0
  149.3385  142.1945  156.1010 H   0  0  0  0  0  0  0  0  0  0  0  0
  152.0685  140.4895  157.5461 H   0  0  0  0  0  0  0  0  0  0  0  0
  150.7083  141.5793  157.7161 H   0  0  0  0  0  0  0  0  0  0  0  0
  149.9185  138.8809  154.5790 H   0  0  0  0  0  0  0  0  0  0  0  0
  1  2  1  0  0  0  0
  1 22  1  0  0  0  0
  1 23  1  0  0  0  0
  1 24  1  0  0  0  0
  2  3  1  0  0  0  0
  2 25  1  0  0  0  0
  2 26  1  0  0  0  0
  3  8  1  0  0  0  0
  3  4  1  0  0  0  0
  3 27  1  0  0  0  0
  4  5  1  0  0  0  0
  4 28  1  0  0  0  0
  4 29  1  0  0  0  0
  5  6  1  0  0  0  0
  5 30  1  0  0  0  0
  5 31  1  0  0  0  0
  6  7  1  0  0  0  0
  6 32  1  0  0  0  0
  6 33  1  0  0  0  0
  7  8  1  0  0  0  0
  7 34  1  0  0  0  0
  7 35  1  0  0  0  0
  8  9  1  0  0  0  0
  8 36  1  0  0  0  0
  9 10  1  0  0  0  0
  9 37  1  0  0  0  0
 10 11  2  0  0  0  0
 10 12  1  0  0  0  0
 12 13  1  0  0  0  0
 12 38  1  0  0  0  0
 13 21  2  0  0  0  0
 13 14  1  0  0  0  0
 14 15  2  0  0  0  0
 14 39  1  0  0  0  0
 15 16  1  0  0  0  0
 16 17  1  0  0  0  0
 16 21  1  0  0  0  0
 17 18  1  0  0  0  0
 17 40  1  0  0  0  0
 17 41  1  0  0  0  0
 18 19  1  0  0  0  0
 18 20  2  0  0  0  0
 19 42  1  0  0  0  0
 19 43  1  0  0  0  0
 21 44  1  0  0  0  0
M  END
> <s_m_source_file>
AV-unprocessed.smi

> <i_m_source_file_index>
1531

> <i_lp_mmshare_version>
43012

> <i_f3d_flags>
0

> <s_epik_input>
W0NIM11bQ0gyXVtDQEBIXTFbQ0gyXVtDSDJdW0NIMl1bQ0gyXVtDQEhdMVtOSF1DKD1PKVtOSF1jMltjSF1ubihbY0hdMilbQ0gyXUMoPU8pW05IMl0=

> <s_epik_cmdline>
J2VwaWtfcHl0aG9uJywgJy1waCcsICc3LjAnLCAnLXRuJywgJzgnLCAnLW1hJywgJzIwMCcsICctbWV0YWxfYmluZGluZycsICctaW1hZScsICc8aW5maWxlLm1hZT4nLCAnLW9tYWUnLCAnPG91dGZpbGUubWFlPic=

> <r_lp_tautomer_probability>
1

> <r_epik_Ionization_Penalty>
4.83437e-05

> <r_epik_Ionization_Penalty_Charging>
0

> <r_epik_Ionization_Penalty_Neutral>
4.83437e-05

> <r_epik_State_Penalty>
-0

> <r_epik_Charging_Adjusted_Penalty>
0

> <i_epik_Tot_Q>
0

> <i_epik_Tot_abs_Q>
0

> <r_epik_Metal_State_Penalty>
-0

> <b_epik_Metal_Only>
0

> <s_lp_Force_Field>
OPLS_2005

> <r_lp_Energy>
14.4879

> <b_lp_Chiralities_Consistent>
1

> <s_lp_Variant>
AV-unprocessed.smi:1531-2

> <Gold.Version>
5.8.1

> <Gold.Id.Protein>
6NUR|6NUR_protein|mol2

> <Gold.PLP.Fitness>
41.7306

> <Gold.PLP.PLP>
-32.0980

> <Gold.PLP.part.hbond>
-3.0000

> <Gold.PLP.part.metal>
0.0000

> <Gold.PLP.part.buried>
-4.0787

> <Gold.PLP.part.nonpolar>
-25.1981

> <Gold.PLP.part.repulsive>
0.3499

> <Gold.PLP.ligand.clash>
0.0000

> <Gold.PLP.ligand.torsion>
0.9424

> <Gold.PLP.Chemscore.Hbond>
2.8240

> <Gold.PLP.Chemscore.CHOScore>
1.0000

> <Gold.PLP.Chemscore.Metal>
0.0000

> <Gold.Chemscore.Hbonds>
donor molecule, donor type, donor heavy atom, donor atom, acceptor molecule, acceptor atom, score
      L1  H     9    37       P1  7948  0.86
      L1  H    12    38       P1  7948  1.00
      P1  H  7989  7998       L1    20  0.94
      L1  C    14    39       P1 10175  1.00

> <Gold.PLP.Chemscore.Internal.Correction>
0.0454

> <Gold.Rescore>
     Score         DG    S(hbond)    S(metal)    S(lipo)     H(rot)  DE(clash)    DE(int)     intcor
     13.88     -16.34       2.80        0.00      59.57       2.13       0.03       2.43       ----

> <Gold.Chemscore.Fitness>
13.8812

> <Gold.Chemscore.DG>
-16.3436

> <Gold.Chemscore.ZeroCoef>
-5.4800

> <Gold.Chemscore.Hbond>
2.8010

> <Gold.Chemscore.Metal>
0.0000

> <Gold.Chemscore.Lipo>
59.5738

> <Gold.Chemscore.Internal_Hbond>
0.0000

> <Gold.Chemscore.DEClash>
0.0340

> <Gold.Chemscore.DEInternal>
2.4284

> <Gold.Chemscore.Rot>
2.1335

> <Gold.Chemscore.Internal.Correction>
   9.000000E+99

> <Gold.Chemscore.Hbonds>
donor molecule, donor type, donor heavy atom, donor atom, acceptor molecule, acceptor atom, score
      L1  H     9    37       P1  7948  0.80
      L1  H    12    38       P1  7948  0.98
      P1  H  7989  7998       L1    20  0.59

> <Gold.Chemscore.Hbond.Weighted>
-9.3553

> <Gold.Chemscore.Metal.Weighted>
-0.0000

> <Gold.Chemscore.Lipo.Weighted>
-6.9701

> <Gold.Chemscore.Internal_Hbond.Weighted>
0.0000

> <Gold.Chemscore.DEClash.Weighted>
0.0340

> <Gold.Chemscore.DEInternal.Weighted>
2.4284

> <Gold.Chemscore.Rot.Weighted>
5.4618

> <Gold.Chemscore.Internal.Correction.Weighted>
   9.000000E+99

> <Gold.Protein.RotatedTorsions>
[ 6907 6896 6895 6894 ] final  -90.66 input  -60.11 | X-H torsion
[ 7974 7965 7964 7962 ] final -121.05 input  175.53 | X-H torsion
[ 8008 7997 7996 7995 ] final   84.63 input   59.86 | X-H torsion
[ 10167 10162 10161 10158 ] final -146.43 input  -65.29 | X-H torsion
[ 10718 10713 10712 10709 ] final  141.63 input   66.30 | X-H torsion
[ 10763 10752 10751 10750 ] final  -18.03 input  -60.55 | X-H torsion
[ 11005 11000 10999 10996 ] final -169.64 input  -57.11 | X-H torsion

> <Gold.Protein.ActiveResidues>
 VAL166  LYS551  ARG553  GLY616  TRP617  ASP618  TYR619  PRO620  LYS621  CYS622 
 ASP623  PHE694  ASN695  SER759  ASP760  ASP761  ALA762  ILE779  LEU786  VAL792 
 PHE793  MET794  SER795  GLU796  ALA797  LYS798  CYS799  TRP800  GLU811  SER814 

> <Gold.Protein.RotatedAtoms>
  150.6884  134.2398  159.4467 H   0  0  0  0  0  0  0  0  0  0  0  0  # atno 6907 bound_to 6896
  152.0343  134.9747  160.0582 H   0  0  0  0  0  0  0  0  0  0  0  0  # atno 6908 bound_to 6896
  152.1274  133.4353  159.4741 H   0  0  0  0  0  0  0  0  0  0  0  0  # atno 6909 bound_to 6896
  145.0446  140.8171  143.4245 H   0  0  0  0  0  0  0  0  0  0  0  0  # atno 7974 bound_to 7965
  155.9395  140.3409  155.6316 H   0  0  0  0  0  0  0  0  0  0  0  0  # atno 8008 bound_to 7997
  155.7057  140.0765  157.2410 H   0  0  0  0  0  0  0  0  0  0  0  0  # atno 8009 bound_to 7997
  154.4100  140.1632  156.2227 H   0  0  0  0  0  0  0  0  0  0  0  0  # atno 8010 bound_to 7997
  139.7714  143.8233  152.2625 H   0  0  0  0  0  0  0  0  0  0  0  0  # atno 10167 bound_to 10162
  157.3898  131.1003  151.0658 H   0  0  0  0  0  0  0  0  0  0  0  0  # atno 10718 bound_to 10713
  153.5830  135.7004  153.5455 H   0  0  0  0  0  0  0  0  0  0  0  0  # atno 10763 bound_to 10752
  153.3244  135.4065  155.1443 H   0  0  0  0  0  0  0  0  0  0  0  0  # atno 10764 bound_to 10752
  154.8614  135.3703  154.5359 H   0  0  0  0  0  0  0  0  0  0  0  0  # atno 10765 bound_to 10752
  140.5285  134.5640  157.5068 H   0  0  0  0  0  0  0  0  0  0  0  0  # atno 11005 bound_to 11000
  145.1604  139.2462  143.5395 LP  0  0  0  0  0  0  0  0  0  0  0  0  # atno 17320 bound_to 7965
  146.3512  140.1329  142.8596 LP  0  0  0  0  0  0  0  0  0  0  0  0  # atno 17321 bound_to 7965
  139.8268  144.7271  150.9501 LP  0  0  0  0  0  0  0  0  0  0  0  0  # atno 17342 bound_to 10162
  140.7814  143.4107  151.0997 LP  0  0  0  0  0  0  0  0  0  0  0  0  # atno 17343 bound_to 10162
  157.1696  130.6261  149.5636 LP  0  0  0  0  0  0  0  0  0  0  0  0  # atno 17370 bound_to 10713
  155.9795  130.4789  150.6721 LP  0  0  0  0  0  0  0  0  0  0  0  0  # atno 17371 bound_to 10713
  139.9567  134.7522  156.0326 LP  0  0  0  0  0  0  0  0  0  0  0  0  # atno 17394 bound_to 11000
  141.1295  133.6590  156.3426 LP  0  0  0  0  0  0  0  0  0  0  0  0  # atno 17395 bound_to 11000

$$$$
