AV-unprocessed.smi:258|AV-procd|sdf|1970|dock2
  -GOLD-   2262021133D 1   1.00000     0.00000
 Structure written by MMmdl.
 57 60  0  0  0  0  0  0  0  0  1 V2000
  144.1222  134.4862  149.0738 O   0  0  0  0  0  0  0  0  0  0  0  0
  144.3730  133.1558  149.4721 C   0  0  0  0  0  0  0  0  0  0  0  0
  145.1320  133.1467  150.8079 C   0  0  0  0  0  0  0  0  0  0  0  0
  145.7950  131.9049  151.0098 O   0  0  0  0  0  0  0  0  0  0  0  0
  146.1143  131.5982  152.3618 C   0  0  1  0  0  0  0  0  0  0  0  0
  146.2436  130.0709  152.4780 C   0  0  0  0  0  0  0  0  0  0  0  0
  146.6918  129.6798  153.8939 C   0  0  0  0  0  0  0  0  0  0  0  0
  147.9947  130.4005  154.2759 C   0  0  0  0  0  0  0  0  0  0  0  0
  147.8612  131.8468  154.1030 N   0  0  0  0  0  0  0  0  0  0  0  0
  148.8200  132.5796  154.7244 C   0  0  0  0  0  0  0  0  0  0  0  0
  149.9228  131.9654  155.2317 N   0  0  0  0  0  0  0  0  0  0  0  0
  150.8659  132.6771  155.8557 C   0  0  0  0  0  0  0  0  0  0  0  0
  150.9097  133.9921  156.0756 N   0  0  0  0  0  0  0  0  0  0  0  0
  149.8128  134.6164  155.5598 C   0  0  0  0  0  0  0  0  0  0  0  0
  148.7295  133.9919  154.8789 C   0  0  0  0  0  0  0  0  0  0  0  0
  147.7977  134.9498  154.4959 N   0  0  0  0  0  0  0  0  0  0  0  0
  148.2961  136.0737  154.9336 C   0  0  0  0  0  0  0  0  0  0  0  0
  149.5143  135.9679  155.5666 N   0  0  0  0  0  0  0  0  0  0  0  0
  150.2863  137.0512  156.1497 C   0  0  0  0  0  0  0  0  0  0  0  0
  149.8541  138.4776  155.7078 C   0  0  2  0  0  0  0  0  0  0  0  0
  150.4481  138.7766  154.3096 C   0  0  0  0  0  0  0  0  0  0  0  0
  149.5907  138.3316  153.2788 O   0  0  0  0  0  0  0  0  0  0  0  0
  150.2389  139.5807  156.7394 C   0  0  1  0  0  0  0  0  0  0  0  0
  151.7202  139.6599  157.0804 C   0  0  0  0  0  0  0  0  0  0  0  0
  151.8411  141.0504  157.6843 C   0  0  0  0  0  0  0  0  0  0  0  0
  150.9845  141.8504  156.8864 O   0  0  0  0  0  0  0  0  0  0  0  0
  149.9795  141.0317  156.2953 C   0  0  0  0  0  0  0  0  0  0  0  0
  147.4379  132.2776  152.7689 C   0  0  0  0  0  0  0  0  0  0  0  0
  144.7557  134.7270  148.4153 H   0  0  0  0  0  0  0  0  0  0  0  0
  143.4235  132.6270  149.5484 H   0  0  0  0  0  0  0  0  0  0  0  0
  144.9603  132.6613  148.6982 H   0  0  0  0  0  0  0  0  0  0  0  0
  145.8996  133.9209  150.7849 H   0  0  0  0  0  0  0  0  0  0  0  0
  144.4716  133.3920  151.6401 H   0  0  0  0  0  0  0  0  0  0  0  0
  145.3162  131.9245  153.0300 H   0  0  0  0  0  0  0  0  0  0  0  0
  145.2925  129.5934  152.2398 H   0  0  0  0  0  0  0  0  0  0  0  0
  146.9689  129.7043  151.7503 H   0  0  0  0  0  0  0  0  0  0  0  0
  145.9099  129.9367  154.6097 H   0  0  0  0  0  0  0  0  0  0  0  0
  146.8300  128.6005  153.9585 H   0  0  0  0  0  0  0  0  0  0  0  0
  148.2602  130.1435  155.3008 H   0  0  0  0  0  0  0  0  0  0  0  0
  148.8117  130.0479  153.6451 H   0  0  0  0  0  0  0  0  0  0  0  0
  151.7057  132.1117  156.2322 H   0  0  0  0  0  0  0  0  0  0  0  0
  147.7916  137.0186  154.7926 H   0  0  0  0  0  0  0  0  0  0  0  0
  150.2309  136.9691  157.2359 H   0  0  0  0  0  0  0  0  0  0  0  0
  151.3282  136.8680  155.8860 H   0  0  0  0  0  0  0  0  0  0  0  0
  148.7689  138.4936  155.5993 H   0  0  0  0  0  0  0  0  0  0  0  0
  150.5849  139.8457  154.1526 H   0  0  0  0  0  0  0  0  0  0  0  0
  151.4257  138.3074  154.1945 H   0  0  0  0  0  0  0  0  0  0  0  0
  149.7683  138.8365  152.4998 H   0  0  0  0  0  0  0  0  0  0  0  0
  149.6965  139.4020  157.6692 H   0  0  0  0  0  0  0  0  0  0  0  0
  152.0457  138.8838  157.7736 H   0  0  0  0  0  0  0  0  0  0  0  0
  152.3270  139.5922  156.1760 H   0  0  0  0  0  0  0  0  0  0  0  0
  151.4779  141.0551  158.7129 H   0  0  0  0  0  0  0  0  0  0  0  0
  152.8642  141.4268  157.6792 H   0  0  0  0  0  0  0  0  0  0  0  0
  150.0567  141.1378  155.2128 H   0  0  0  0  0  0  0  0  0  0  0  0
  148.9944  141.3821  156.6003 H   0  0  0  0  0  0  0  0  0  0  0  0
  148.2187  132.0297  152.0485 H   0  0  0  0  0  0  0  0  0  0  0  0
  147.3194  133.3614  152.7556 H   0  0  0  0  0  0  0  0  0  0  0  0
  1  2  1  0  0  0  0
  1 29  1  0  0  0  0
  2  3  1  0  0  0  0
  2 30  1  0  0  0  0
  2 31  1  0  0  0  0
  3  4  1  0  0  0  0
  3 32  1  0  0  0  0
  3 33  1  0  0  0  0
  4  5  1  0  0  0  0
  5 28  1  0  0  0  0
  5  6  1  0  0  0  0
  5 34  1  0  0  0  0
  6  7  1  0  0  0  0
  6 35  1  0  0  0  0
  6 36  1  0  0  0  0
  7  8  1  0  0  0  0
  7 37  1  0  0  0  0
  7 38  1  0  0  0  0
  8  9  1  0  0  0  0
  8 39  1  0  0  0  0
  8 40  1  0  0  0  0
  9 10  1  0  0  0  0
  9 28  1  0  0  0  0
 10 15  1  0  0  0  0
 10 11  2  0  0  0  0
 11 12  1  0  0  0  0
 12 13  2  0  0  0  0
 12 41  1  0  0  0  0
 13 14  1  0  0  0  0
 14 18  1  0  0  0  0
 14 15  2  0  0  0  0
 15 16  1  0  0  0  0
 16 17  2  0  0  0  0
 17 18  1  0  0  0  0
 17 42  1  0  0  0  0
 18 19  1  0  0  0  0
 19 20  1  0  0  0  0
 19 43  1  0  0  0  0
 19 44  1  0  0  0  0
 20 21  1  0  0  0  0
 20 23  1  0  0  0  0
 20 45  1  0  0  0  0
 21 22  1  0  0  0  0
 21 46  1  0  0  0  0
 21 47  1  0  0  0  0
 22 48  1  0  0  0  0
 23 27  1  0  0  0  0
 23 24  1  0  0  0  0
 23 49  1  0  0  0  0
 24 25  1  0  0  0  0
 24 50  1  0  0  0  0
 24 51  1  0  0  0  0
 25 26  1  0  0  0  0
 25 52  1  0  0  0  0
 25 53  1  0  0  0  0
 26 27  1  0  0  0  0
 27 54  1  0  0  0  0
 27 55  1  0  0  0  0
 28 56  1  0  0  0  0
 28 57  1  0  0  0  0
M  END
> <s_m_source_file>
AV-unprocessed.smi

> <i_m_source_file_index>
258

> <i_lp_mmshare_version>
43012

> <i_f3d_flags>
0

> <s_epik_input>
W09IXVtDSDJdW0NIMl1PW0NAQEhdMVtDSDJdW0NIMl1bQ0gyXU4oW0NIMl0xKWMobltjSF1uMiljKGMyMyluW2NIXW4zW0NIMl1bQ0BIXShbQ0gyXVtPSF0pW0NAQEhdNFtDSDJdW0NIMl1PW0NIMl00

> <s_epik_cmdline>
J2VwaWtfcHl0aG9uJywgJy1waCcsICc3LjAnLCAnLXRuJywgJzgnLCAnLW1hJywgJzIwMCcsICctbWV0YWxfYmluZGluZycsICctaW1hZScsICc8aW5maWxlLm1hZT4nLCAnLW9tYWUnLCAnPG91dGZpbGUubWFlPic=

> <r_lp_tautomer_probability>
1

> <r_epik_Ionization_Penalty>
0.00349036

> <r_epik_Ionization_Penalty_Charging>
0

> <r_epik_Ionization_Penalty_Neutral>
0.00349036

> <r_epik_State_Penalty>
0.00229798

> <r_epik_Charging_Adjusted_Penalty>
0.00229798

> <i_epik_Tot_Q>
0

> <i_epik_Tot_abs_Q>
0

> <r_epik_Metal_State_Penalty>
-0

> <b_epik_Metal_Only>
0

> <s_lp_Force_Field>
OPLS_2005

> <r_lp_Energy>
44.143

> <b_lp_Chiralities_Consistent>
1

> <s_lp_Variant>
AV-unprocessed.smi:258-6

> <Gold.Version>
5.8.1

> <Gold.Id.Protein>
6NUR|6NUR_protein|mol2

> <Gold.PLP.Fitness>
42.0758

> <Gold.PLP.PLP>
-38.4678

> <Gold.PLP.part.hbond>
-4.0000

> <Gold.PLP.part.metal>
0.0000

> <Gold.PLP.part.buried>
-7.0471

> <Gold.PLP.part.nonpolar>
-26.9858

> <Gold.PLP.part.repulsive>
0.3543

> <Gold.PLP.ligand.clash>
0.0000

> <Gold.PLP.ligand.torsion>
1.4860

> <Gold.PLP.Chemscore.Hbond>
2.0000

> <Gold.PLP.Chemscore.CHOScore>
0.0000

> <Gold.PLP.Chemscore.Metal>
0.0000

> <Gold.Chemscore.Hbonds>
donor molecule, donor type, donor heavy atom, donor atom, acceptor molecule, acceptor atom, score
      L1  H     1    29       P1  7921  1.00
      L1  H    22    48       P1  7957  1.00

> <Gold.PLP.Chemscore.Internal.Correction>
0.5801

> <Gold.Rescore>
     Score         DG    S(hbond)    S(metal)    S(lipo)     H(rot)  DE(clash)    DE(int)     intcor
      9.56     -10.86       1.97        0.00      82.13       4.22       0.02       1.27       ----

> <Gold.Chemscore.Fitness>
9.5610

> <Gold.Chemscore.DG>
-10.8583

> <Gold.Chemscore.ZeroCoef>
-5.4800

> <Gold.Chemscore.Hbond>
1.9711

> <Gold.Chemscore.Metal>
0.0000

> <Gold.Chemscore.Lipo>
82.1329

> <Gold.Chemscore.Internal_Hbond>
0.0000

> <Gold.Chemscore.DEClash>
0.0247

> <Gold.Chemscore.DEInternal>
1.2726

> <Gold.Chemscore.Rot>
4.2246

> <Gold.Chemscore.Internal.Correction>
   9.000000E+99

> <Gold.Chemscore.Hbonds>
donor molecule, donor type, donor heavy atom, donor atom, acceptor molecule, acceptor atom, score
      L1  H     1    29       P1  7921  0.97
      L1  H    22    48       P1  7957  0.60

> <Gold.Chemscore.Hbond.Weighted>
-6.5836

> <Gold.Chemscore.Metal.Weighted>
-0.0000

> <Gold.Chemscore.Lipo.Weighted>
-9.6095

> <Gold.Chemscore.Internal_Hbond.Weighted>
0.0000

> <Gold.Chemscore.DEClash.Weighted>
0.0247

> <Gold.Chemscore.DEInternal.Weighted>
1.2726

> <Gold.Chemscore.Rot.Weighted>
10.8149

> <Gold.Chemscore.Internal.Correction.Weighted>
   9.000000E+99

> <Gold.Protein.RotatedTorsions>
[ 6907 6896 6895 6894 ] final   47.35 input  -60.11 | X-H torsion
[ 7974 7965 7964 7962 ] final -127.10 input  175.53 | X-H torsion
[ 8008 7997 7996 7995 ] final  174.14 input   59.86 | X-H torsion
[ 10167 10162 10161 10158 ] final  -63.62 input  -65.29 | X-H torsion
[ 10718 10713 10712 10709 ] final  -71.84 input   66.30 | X-H torsion
[ 10763 10752 10751 10750 ] final -142.50 input  -60.55 | X-H torsion
[ 11005 11000 10999 10996 ] final   31.94 input  -57.11 | X-H torsion

> <Gold.Protein.ActiveResidues>
 VAL166  LYS551  ARG553  GLY616  TRP617  ASP618  TYR619  PRO620  LYS621  CYS622 
 ASP623  PHE694  ASN695  SER759  ASP760  ASP761  ALA762  ILE779  LEU786  VAL792 
 PHE793  MET794  SER795  GLU796  ALA797  LYS798  CYS799  TRP800  GLU811  SER814 

> <Gold.Protein.RotatedAtoms>
  152.2670  134.7973  160.0420 H   0  0  0  0  0  0  0  0  0  0  0  0  # atno 6907 bound_to 6896
  151.8599  133.3450  159.3709 H   0  0  0  0  0  0  0  0  0  0  0  0  # atno 6908 bound_to 6896
  150.7137  134.5143  159.5667 H   0  0  0  0  0  0  0  0  0  0  0  0  # atno 6909 bound_to 6896
  144.9805  140.7635  143.4615 H   0  0  0  0  0  0  0  0  0  0  0  0  # atno 7974 bound_to 7965
  156.1004  140.1442  156.9475 H   0  0  0  0  0  0  0  0  0  0  0  0  # atno 8008 bound_to 7997
  154.4699  140.0913  156.7162 H   0  0  0  0  0  0  0  0  0  0  0  0  # atno 8009 bound_to 7997
  155.4769  140.3443  155.4336 H   0  0  0  0  0  0  0  0  0  0  0  0  # atno 8010 bound_to 7997
  140.5858  143.2333  151.6246 H   0  0  0  0  0  0  0  0  0  0  0  0  # atno 10167 bound_to 10162
  156.0345  130.4359  150.2503 H   0  0  0  0  0  0  0  0  0  0  0  0  # atno 10718 bound_to 10713
  154.8506  135.3494  154.6038 H   0  0  0  0  0  0  0  0  0  0  0  0  # atno 10763 bound_to 10752
  153.6647  135.6988  153.5171 H   0  0  0  0  0  0  0  0  0  0  0  0  # atno 10764 bound_to 10752
  153.2790  135.4269  155.1017 H   0  0  0  0  0  0  0  0  0  0  0  0  # atno 10765 bound_to 10752
  140.2786  134.2998  155.7807 H   0  0  0  0  0  0  0  0  0  0  0  0  # atno 11005 bound_to 11000
  145.2428  139.2065  143.4984 LP  0  0  0  0  0  0  0  0  0  0  0  0  # atno 17320 bound_to 7965
  146.3407  140.2326  142.8593 LP  0  0  0  0  0  0  0  0  0  0  0  0  # atno 17321 bound_to 7965
  139.5197  144.3246  152.0880 LP  0  0  0  0  0  0  0  0  0  0  0  0  # atno 17342 bound_to 10162
  140.2403  144.4276  150.6263 LP  0  0  0  0  0  0  0  0  0  0  0  0  # atno 17343 bound_to 10162
  157.0604  131.0088  151.3224 LP  0  0  0  0  0  0  0  0  0  0  0  0  # atno 17370 bound_to 10713
  157.5075  130.7918  149.7669 LP  0  0  0  0  0  0  0  0  0  0  0  0  # atno 17371 bound_to 10713
  141.2166  133.7511  156.9446 LP  0  0  0  0  0  0  0  0  0  0  0  0  # atno 17394 bound_to 11000
  140.1304  134.9359  157.2329 LP  0  0  0  0  0  0  0  0  0  0  0  0  # atno 17395 bound_to 11000

$$$$
