AV-unprocessed.smi:169|AV-procd|sdf|1398|dock1
  -GOLD-   2262019143D 1   1.00000     0.00000
 Structure written by MMmdl.
 56 60  0  0  0  0  0  0  0  0  2 V2000
  146.1530  143.4936  155.0612 C   0  0  0  0  0  0  0  0  0  0  0  0
  146.8414  142.4360  154.1804 C   0  0  0  0  0  0  0  0  0  0  0  0
  147.7915  141.5632  154.9188 N   0  3  2  0  0  0  0  0  0  0  0  0
  148.0484  140.2677  154.2393 C   0  0  0  0  0  0  0  0  0  0  0  0
  149.5143  139.8090  154.3683 C   0  0  0  0  0  0  0  0  0  0  0  0
  150.1290  139.9037  155.7819 C   0  0  1  0  0  0  0  0  0  0  0  0
  150.7033  141.2991  156.1114 C   0  0  0  0  0  0  0  0  0  0  0  0
  149.8222  141.8520  157.2364 C   0  0  0  0  0  0  0  0  0  0  0  0
  148.6097  140.9167  157.2559 C   0  0  1  0  0  0  0  0  0  0  0  0
  147.4496  141.4195  156.3625 C   0  0  0  0  0  0  0  0  0  0  0  0
  149.1403  139.6254  156.8205 N   0  0  0  0  0  0  0  0  0  0  0  0
  149.4928  138.6746  157.7257 C   0  0  0  0  0  0  0  0  0  0  0  0
  150.7973  138.4856  158.0592 N   0  0  0  0  0  0  0  0  0  0  0  0
  151.1404  137.5403  158.9393 C   0  0  0  0  0  0  0  0  0  0  0  0
  150.3526  136.6875  159.5968 N   0  0  0  0  0  0  0  0  0  0  0  0
  149.0414  136.8759  159.2732 C   0  0  0  0  0  0  0  0  0  0  0  0
  148.5302  137.8376  158.3571 C   0  0  0  0  0  0  0  0  0  0  0  0
  147.1458  137.7378  158.2899 N   0  0  0  0  0  0  0  0  0  0  0  0
  146.8558  136.7673  159.1128 C   0  0  0  0  0  0  0  0  0  0  0  0
  147.9336  136.1980  159.7532 N   0  0  0  0  0  0  0  0  0  0  0  0
  147.9003  135.1049  160.7132 C   0  0  0  0  0  0  0  0  0  0  0  0
  147.0774  135.4111  161.9788 C   0  0  0  0  0  0  0  0  0  0  0  0
  147.8684  136.4084  162.8500 C   0  0  0  0  0  0  0  0  0  0  0  0
  148.1544  137.6145  162.1698 O   0  0  0  0  0  0  0  0  0  0  0  0
  145.5926  135.7368  161.7604 C   0  0  0  0  0  0  0  0  0  0  0  0
  145.1685  134.6953  162.6674 O   0  0  0  0  0  0  0  0  0  0  0  0
  146.5165  134.1758  162.6981 C   0  0  0  0  0  0  0  0  0  0  0  0
  145.4498  144.0807  154.4702 H   0  0  0  0  0  0  0  0  0  0  0  0
  146.8705  144.1906  155.4938 H   0  0  0  0  0  0  0  0  0  0  0  0
  145.5905  143.0390  155.8767 H   0  0  0  0  0  0  0  0  0  0  0  0
  146.0861  141.8096  153.7043 H   0  0  0  0  0  0  0  0  0  0  0  0
  147.3732  142.9289  153.3658 H   0  0  0  0  0  0  0  0  0  0  0  0
  147.3715  139.5047  154.6272 H   0  0  0  0  0  0  0  0  0  0  0  0
  147.8228  140.3481  153.1750 H   0  0  0  0  0  0  0  0  0  0  0  0
  149.5606  138.7702  154.0401 H   0  0  0  0  0  0  0  0  0  0  0  0
  150.1387  140.3577  153.6621 H   0  0  0  0  0  0  0  0  0  0  0  0
  150.9582  139.1959  155.8315 H   0  0  0  0  0  0  0  0  0  0  0  0
  151.7406  141.2292  156.4408 H   0  0  0  0  0  0  0  0  0  0  0  0
  150.6867  141.9601  155.2442 H   0  0  0  0  0  0  0  0  0  0  0  0
  150.3562  141.7756  158.1846 H   0  0  0  0  0  0  0  0  0  0  0  0
  149.5563  142.8999  157.0938 H   0  0  0  0  0  0  0  0  0  0  0  0
  148.2144  140.8662  158.2707 H   0  0  0  0  0  0  0  0  0  0  0  0
  147.1232  142.3868  156.7470 H   0  0  0  0  0  0  0  0  0  0  0  0
  146.5953  140.7502  156.4708 H   0  0  0  0  0  0  0  0  0  0  0  0
  152.1972  137.4546  159.1458 H   0  0  0  0  0  0  0  0  0  0  0  0
  145.8397  136.4390  159.2752 H   0  0  0  0  0  0  0  0  0  0  0  0
  147.4993  134.2301  160.1996 H   0  0  0  0  0  0  0  0  0  0  0  0
  148.9261  134.8446  160.9770 H   0  0  0  0  0  0  0  0  0  0  0  0
  147.3148  136.6555  163.7565 H   0  0  0  0  0  0  0  0  0  0  0  0
  148.8218  135.9855  163.1664 H   0  0  0  0  0  0  0  0  0  0  0  0
  147.3387  138.0107  161.9038 H   0  0  0  0  0  0  0  0  0  0  0  0
  145.2980  136.7317  162.0964 H   0  0  0  0  0  0  0  0  0  0  0  0
  145.2377  135.5500  160.7463 H   0  0  0  0  0  0  0  0  0  0  0  0
  146.6042  133.2509  162.1261 H   0  0  0  0  0  0  0  0  0  0  0  0
  146.8896  134.0354  163.7132 H   0  0  0  0  0  0  0  0  0  0  0  0
  148.6683  142.0640  154.8913 H   0  0  0  0  0  0  0  0  0  0  0  0
  1  2  1  0  0  0  0
  1 28  1  0  0  0  0
  1 29  1  0  0  0  0
  1 30  1  0  0  0  0
  2  3  1  0  0  0  0
  2 31  1  0  0  0  0
  2 32  1  0  0  0  0
  3 10  1  0  0  0  0
  3  4  1  0  0  0  0
  3 56  1  0  0  0  0
  4  5  1  0  0  0  0
  4 33  1  0  0  0  0
  4 34  1  0  0  0  0
  5  6  1  0  0  0  0
  5 35  1  0  0  0  0
  5 36  1  0  0  0  0
  6 11  1  0  0  0  0
  6  7  1  0  0  0  0
  6 37  1  0  0  0  0
  7  8  1  0  0  0  0
  7 38  1  0  0  0  0
  7 39  1  0  0  0  0
  8  9  1  0  0  0  0
  8 40  1  0  0  0  0
  8 41  1  0  0  0  0
  9 10  1  0  0  0  0
  9 11  1  0  0  0  0
  9 42  1  0  0  0  0
 10 43  1  0  0  0  0
 10 44  1  0  0  0  0
 11 12  1  0  0  0  0
 12 17  1  0  0  0  0
 12 13  2  0  0  0  0
 13 14  1  0  0  0  0
 14 15  2  0  0  0  0
 14 45  1  0  0  0  0
 15 16  1  0  0  0  0
 16 20  1  0  0  0  0
 16 17  2  0  0  0  0
 17 18  1  0  0  0  0
 18 19  2  0  0  0  0
 19 20  1  0  0  0  0
 19 46  1  0  0  0  0
 20 21  1  0  0  0  0
 21 22  1  0  0  0  0
 21 47  1  0  0  0  0
 21 48  1  0  0  0  0
 22 27  1  0  0  0  0
 22 23  1  0  0  0  0
 22 25  1  0  0  0  0
 23 24  1  0  0  0  0
 23 49  1  0  0  0  0
 23 50  1  0  0  0  0
 24 51  1  0  0  0  0
 25 26  1  0  0  0  0
 25 52  1  0  0  0  0
 25 53  1  0  0  0  0
 26 27  1  0  0  0  0
 27 54  1  0  0  0  0
 27 55  1  0  0  0  0
M  CHG  1   3   1
M  END
> <s_m_source_file>
AV-unprocessed.smi

> <i_m_source_file_index>
169

> <i_lp_mmshare_version>
43012

> <i_f3d_flags>
0

> <s_epik_input>
W0NASF0xMltDSDJdW0NIMl1OKFtDSDJdW0NIM10pW0NIMl1bQ0BIXShbQ0gyXVtDSDJdMSlOMmMobltjSF1uMyljKGMzNCluW2NIXW40W0NIMl1DNShbQ0gyXVtPSF0pW0NIMl1PW0NIMl01

> <s_epik_cmdline>
J2VwaWtfcHl0aG9uJywgJy1waCcsICc3LjAnLCAnLXRuJywgJzgnLCAnLW1hJywgJzIwMCcsICctbWV0YWxfYmluZGluZycsICctaW1hZScsICc8aW5maWxlLm1hZT4nLCAnLW9tYWUnLCAnPG91dGZpbGUubWFlPic=

> <r_lp_tautomer_probability>
1

> <r_epik_Ionization_Penalty>
0.00274162

> <r_epik_Ionization_Penalty_Charging>
0.00243722

> <r_epik_Ionization_Penalty_Neutral>
0.000304399

> <r_epik_State_Penalty>
-0

> <r_epik_Charging_Adjusted_Penalty>
0.00243722

> <i_epik_Tot_Q>
1

> <i_epik_Tot_abs_Q>
1

> <r_epik_Metal_State_Penalty>
-0

> <b_epik_Metal_Only>
0

> <s_lp_Force_Field>
OPLS_2005

> <r_lp_Energy>
78.5453

> <b_lp_Chiralities_Consistent>
1

> <s_lp_Variant>
AV-unprocessed.smi:169-1

> <Gold.Version>
5.8.1

> <Gold.Id.Protein>
6NUR|6NUR_protein|mol2

> <Gold.PLP.Fitness>
45.8570

> <Gold.PLP.PLP>
-41.8056

> <Gold.PLP.part.hbond>
-2.8350

> <Gold.PLP.part.metal>
0.0000

> <Gold.PLP.part.buried>
-5.9983

> <Gold.PLP.part.nonpolar>
-32.7468

> <Gold.PLP.part.repulsive>
0.1233

> <Gold.PLP.ligand.clash>
0.0000

> <Gold.PLP.ligand.torsion>
1.2338

> <Gold.PLP.Chemscore.Hbond>
1.9920

> <Gold.PLP.Chemscore.CHOScore>
0.0000

> <Gold.PLP.Chemscore.Metal>
0.0000

> <Gold.Chemscore.Hbonds>
donor molecule, donor type, donor heavy atom, donor atom, acceptor molecule, acceptor atom, score
      P1  H  6896  6908       L1    15  1.00

> <Gold.PLP.Chemscore.Internal.Correction>
0.5430

> <Gold.Rescore>
     Score         DG    S(hbond)    S(metal)    S(lipo)     H(rot)  DE(clash)    DE(int)     intcor
     11.58     -14.24       1.89        0.00      78.27       2.62       0.07       2.59       ----

> <Gold.Chemscore.Fitness>
11.5773

> <Gold.Chemscore.DG>
-14.2417

> <Gold.Chemscore.ZeroCoef>
-5.4800

> <Gold.Chemscore.Hbond>
1.8905

> <Gold.Chemscore.Metal>
0.0000

> <Gold.Chemscore.Lipo>
78.2712

> <Gold.Chemscore.Internal_Hbond>
0.0000

> <Gold.Chemscore.DEClash>
0.0739

> <Gold.Chemscore.DEInternal>
2.5905

> <Gold.Chemscore.Rot>
2.6212

> <Gold.Chemscore.Internal.Correction>
   9.000000E+99

> <Gold.Chemscore.Hbonds>
donor molecule, donor type, donor heavy atom, donor atom, acceptor molecule, acceptor atom, score
      P1  H  6896  6908       L1    15  0.88
      P1  H  6931  6943       L1    24  0.03

> <Gold.Chemscore.Hbond.Weighted>
-6.3142

> <Gold.Chemscore.Metal.Weighted>
-0.0000

> <Gold.Chemscore.Lipo.Weighted>
-9.1577

> <Gold.Chemscore.Internal_Hbond.Weighted>
0.0000

> <Gold.Chemscore.DEClash.Weighted>
0.0739

> <Gold.Chemscore.DEInternal.Weighted>
2.5905

> <Gold.Chemscore.Rot.Weighted>
6.7102

> <Gold.Chemscore.Internal.Correction.Weighted>
   9.000000E+99

> <Gold.Protein.RotatedTorsions>
[ 6907 6896 6895 6894 ] final -164.36 input  -60.11 | X-H torsion
[ 7974 7965 7964 7962 ] final  -10.08 input  175.53 | X-H torsion
[ 8008 7997 7996 7995 ] final -119.02 input   59.86 | X-H torsion
[ 10167 10162 10161 10158 ] final  -77.40 input  -65.29 | X-H torsion
[ 10718 10713 10712 10709 ] final  136.60 input   66.30 | X-H torsion
[ 10763 10752 10751 10750 ] final  -97.09 input  -60.55 | X-H torsion
[ 11005 11000 10999 10996 ] final  -41.15 input  -57.11 | X-H torsion

> <Gold.Protein.ActiveResidues>
 VAL166  LYS551  ARG553  GLY616  TRP617  ASP618  TYR619  PRO620  LYS621  CYS622 
 ASP623  PHE694  ASN695  SER759  ASP760  ASP761  ALA762  ILE779  LEU786  VAL792 
 PHE793  MET794  SER795  GLU796  ALA797  LYS798  CYS799  TRP800  GLU811  SER814 

> <Gold.Protein.RotatedAtoms>
  151.4105  133.3729  159.2743 H   0  0  0  0  0  0  0  0  0  0  0  0  # atno 6907 bound_to 6896
  150.9366  134.8779  159.7596 H   0  0  0  0  0  0  0  0  0  0  0  0  # atno 6908 bound_to 6896
  152.5053  134.4053  159.9482 H   0  0  0  0  0  0  0  0  0  0  0  0  # atno 6909 bound_to 6896
  146.2232  140.2711  142.8357 H   0  0  0  0  0  0  0  0  0  0  0  0  # atno 7974 bound_to 7965
  155.1091  140.0397  157.2719 H   0  0  0  0  0  0  0  0  0  0  0  0  # atno 8008 bound_to 7997
  154.6699  140.2610  155.6992 H   0  0  0  0  0  0  0  0  0  0  0  0  # atno 8009 bound_to 7997
  156.2654  140.2800  156.1204 H   0  0  0  0  0  0  0  0  0  0  0  0  # atno 8010 bound_to 7997
  140.4773  143.2411  151.8112 H   0  0  0  0  0  0  0  0  0  0  0  0  # atno 10167 bound_to 10162
  157.4449  131.1061  151.0101 H   0  0  0  0  0  0  0  0  0  0  0  0  # atno 10718 bound_to 10713
  154.7298  135.5059  153.8944 H   0  0  0  0  0  0  0  0  0  0  0  0  # atno 10763 bound_to 10752
  153.0938  135.6666  153.9810 H   0  0  0  0  0  0  0  0  0  0  0  0  # atno 10764 bound_to 10752
  153.9614  135.3047  155.3412 H   0  0  0  0  0  0  0  0  0  0  0  0  # atno 10765 bound_to 10752
  141.0225  133.6856  156.2418 H   0  0  0  0  0  0  0  0  0  0  0  0  # atno 11005 bound_to 11000
  144.9267  140.7929  143.5714 LP  0  0  0  0  0  0  0  0  0  0  0  0  # atno 17320 bound_to 7965
  145.2652  139.1976  143.4871 LP  0  0  0  0  0  0  0  0  0  0  0  0  # atno 17321 bound_to 7965
  139.4827  144.4817  151.9298 LP  0  0  0  0  0  0  0  0  0  0  0  0  # atno 17342 bound_to 10162
  140.3902  144.2625  150.5900 LP  0  0  0  0  0  0  0  0  0  0  0  0  # atno 17343 bound_to 10162
  157.0951  130.5958  149.5448 LP  0  0  0  0  0  0  0  0  0  0  0  0  # atno 17370 bound_to 10713
  155.9963  130.5032  150.7493 LP  0  0  0  0  0  0  0  0  0  0  0  0  # atno 17371 bound_to 10713
  140.6548  134.5029  157.5580 LP  0  0  0  0  0  0  0  0  0  0  0  0  # atno 17394 bound_to 11000
  139.9155  134.8255  156.1381 LP  0  0  0  0  0  0  0  0  0  0  0  0  # atno 17395 bound_to 11000

$$$$
