AV-unprocessed.smi:2880|AV-procd|sdf|11053|dock1
  -GOLD-   2272015523D 1   1.00000     0.00000
 Structure written by MMmdl.
 47 48  0  0  0  0  0  0  0  0  1 V2000
  145.9725  132.7228  150.2974 C   0  0  0  0  0  0  0  0  0  0  0  0
  144.8863  133.0783  151.3311 C   0  0  0  0  0  0  0  0  0  0  0  0
  143.5534  132.4311  150.8854 C   0  0  0  0  0  0  0  0  0  0  0  0
  145.2708  132.5050  152.7091 C   0  0  0  0  0  0  0  0  0  0  0  0
  144.7873  134.5406  151.4331 N   0  0  0  0  0  0  0  0  0  0  0  0
  145.5655  135.4909  150.7934 C   0  0  0  0  0  0  0  0  0  0  0  0
  145.1240  136.7265  151.1722 C   0  0  0  0  0  0  0  0  0  0  0  0
  144.0550  136.4306  152.0591 C   0  0  0  0  0  0  0  0  0  0  0  0
  143.3212  137.4721  152.6819 N   0  0  0  0  0  0  0  0  0  0  0  0
  142.3132  137.3521  153.5627 C   0  0  0  0  0  0  0  0  0  0  0  0
  141.8456  136.2859  153.9634 O   0  0  0  0  0  0  0  0  0  0  0  0
  141.8776  138.5563  153.9617 N   0  0  0  0  0  0  0  0  0  0  0  0
  140.8118  138.8133  154.9334 C   0  0  2  0  0  0  0  0  0  0  0  0
  139.4729  138.2591  154.4055 C   0  0  0  0  0  0  0  0  0  0  0  0
  138.9386  139.0671  153.2107 C   0  0  0  0  0  0  0  0  0  0  0  0
  138.8244  140.5588  153.5565 C   0  0  0  0  0  0  0  0  0  0  0  0
  140.1629  141.1208  154.0614 C   0  0  0  0  0  0  0  0  0  0  0  0
  140.6986  140.3249  155.2710 C   0  0  2  0  0  0  0  0  0  0  0  0
  142.0090  140.9432  155.8032 C   0  0  0  0  0  0  0  0  0  0  0  0
  143.1265  140.4281  155.1107 O   0  0  0  0  0  0  0  0  0  0  0  0
  143.8517  135.1314  152.2153 N   0  0  0  0  0  0  0  0  0  0  0  0
  146.0732  131.6431  150.1836 H   0  0  0  0  0  0  0  0  0  0  0  0
  146.9497  133.1101  150.5874 H   0  0  0  0  0  0  0  0  0  0  0  0
  145.7340  133.1355  149.3165 H   0  0  0  0  0  0  0  0  0  0  0  0
  143.2393  132.7896  149.9042 H   0  0  0  0  0  0  0  0  0  0  0  0
  142.7483  132.6406  151.5911 H   0  0  0  0  0  0  0  0  0  0  0  0
  143.6458  131.3467  150.8163 H   0  0  0  0  0  0  0  0  0  0  0  0
  145.3435  131.4173  152.6792 H   0  0  0  0  0  0  0  0  0  0  0  0
  144.5282  132.7635  153.4650 H   0  0  0  0  0  0  0  0  0  0  0  0
  146.2341  132.8841  153.0517 H   0  0  0  0  0  0  0  0  0  0  0  0
  146.3658  135.2108  150.1244 H   0  0  0  0  0  0  0  0  0  0  0  0
  145.5069  137.6874  150.8625 H   0  0  0  0  0  0  0  0  0  0  0  0
  143.6036  138.4105  152.4412 H   0  0  0  0  0  0  0  0  0  0  0  0
  142.3277  139.3701  153.5697 H   0  0  0  0  0  0  0  0  0  0  0  0
  141.0313  138.2791  155.8592 H   0  0  0  0  0  0  0  0  0  0  0  0
  139.5814  137.2097  154.1285 H   0  0  0  0  0  0  0  0  0  0  0  0
  138.7354  138.2842  155.2088 H   0  0  0  0  0  0  0  0  0  0  0  0
  139.5984  138.9388  152.3517 H   0  0  0  0  0  0  0  0  0  0  0  0
  137.9645  138.6811  152.9093 H   0  0  0  0  0  0  0  0  0  0  0  0
  138.4921  141.1185  152.6818 H   0  0  0  0  0  0  0  0  0  0  0  0
  138.0590  140.6985  154.3208 H   0  0  0  0  0  0  0  0  0  0  0  0
  140.8942  141.1069  153.2521 H   0  0  0  0  0  0  0  0  0  0  0  0
  140.0312  142.1680  154.3354 H   0  0  0  0  0  0  0  0  0  0  0  0
  139.9558  140.4231  156.0647 H   0  0  0  0  0  0  0  0  0  0  0  0
  142.0015  142.0302  155.7201 H   0  0  0  0  0  0  0  0  0  0  0  0
  142.1331  140.7094  156.8609 H   0  0  0  0  0  0  0  0  0  0  0  0
  143.0007  140.5728  154.1853 H   0  0  0  0  0  0  0  0  0  0  0  0
  1  2  1  0  0  0  0
  1 22  1  0  0  0  0
  1 23  1  0  0  0  0
  1 24  1  0  0  0  0
  2  3  1  0  0  0  0
  2  4  1  0  0  0  0
  2  5  1  0  0  0  0
  3 25  1  0  0  0  0
  3 26  1  0  0  0  0
  3 27  1  0  0  0  0
  4 28  1  0  0  0  0
  4 29  1  0  0  0  0
  4 30  1  0  0  0  0
  5 21  1  0  0  0  0
  5  6  1  0  0  0  0
  6  7  2  0  0  0  0
  6 31  1  0  0  0  0
  7  8  1  0  0  0  0
  7 32  1  0  0  0  0
  8  9  1  0  0  0  0
  8 21  2  0  0  0  0
  9 10  1  0  0  0  0
  9 33  1  0  0  0  0
 10 11  2  0  0  0  0
 10 12  1  0  0  0  0
 12 13  1  0  0  0  0
 12 34  1  0  0  0  0
 13 18  1  0  0  0  0
 13 14  1  0  0  0  0
 13 35  1  0  0  0  0
 14 15  1  0  0  0  0
 14 36  1  0  0  0  0
 14 37  1  0  0  0  0
 15 16  1  0  0  0  0
 15 38  1  0  0  0  0
 15 39  1  0  0  0  0
 16 17  1  0  0  0  0
 16 40  1  0  0  0  0
 16 41  1  0  0  0  0
 17 18  1  0  0  0  0
 17 42  1  0  0  0  0
 17 43  1  0  0  0  0
 18 19  1  0  0  0  0
 18 44  1  0  0  0  0
 19 20  1  0  0  0  0
 19 45  1  0  0  0  0
 19 46  1  0  0  0  0
 20 47  1  0  0  0  0
M  END
> <s_m_source_file>
AV-unprocessed.smi

> <i_m_source_file_index>
2880

> <i_lp_mmshare_version>
43012

> <i_f3d_flags>
0

> <s_epik_input>
W0NIM11DKFtDSDNdKShbQ0gzXSluMVtjSF1bY0hdYyhuMSlbTkhdQyg9TylbTkhdW0NAQEhdMltDSDJdW0NIMl1bQ0gyXVtDSDJdW0NASF0yW0NIMl1bT0hd

> <s_epik_cmdline>
J2VwaWtfcHl0aG9uJywgJy1waCcsICc3LjAnLCAnLXRuJywgJzgnLCAnLW1hJywgJzIwMCcsICctbWV0YWxfYmluZGluZycsICctaW1hZScsICc8aW5maWxlLm1hZT4nLCAnLW9tYWUnLCAnPG91dGZpbGUubWFlPic=

> <r_lp_tautomer_probability>
1

> <r_epik_Ionization_Penalty>
3.89283e-05

> <r_epik_Ionization_Penalty_Charging>
0

> <r_epik_Ionization_Penalty_Neutral>
3.89283e-05

> <r_epik_State_Penalty>
-0

> <r_epik_Charging_Adjusted_Penalty>
0

> <i_epik_Tot_Q>
0

> <i_epik_Tot_abs_Q>
0

> <r_epik_Metal_State_Penalty>
-0

> <b_epik_Metal_Only>
0

> <s_lp_Force_Field>
OPLS_2005

> <r_lp_Energy>
20.6401

> <b_lp_Chiralities_Consistent>
1

> <s_lp_Variant>
AV-unprocessed.smi:2880-3

> <Gold.Version>
5.8.1

> <Gold.Id.Protein>
6NUR|6NUR_protein|mol2

> <Gold.PLP.Fitness>
43.2621

> <Gold.PLP.PLP>
-32.1484

> <Gold.PLP.part.hbond>
-3.8122

> <Gold.PLP.part.metal>
0.0000

> <Gold.PLP.part.buried>
0.9869

> <Gold.PLP.part.nonpolar>
-28.5398

> <Gold.PLP.part.repulsive>
0.2426

> <Gold.PLP.ligand.clash>
0.0000

> <Gold.PLP.ligand.torsion>
0.3298

> <Gold.PLP.Chemscore.Hbond>
2.9913

> <Gold.PLP.Chemscore.CHOScore>
0.9236

> <Gold.PLP.Chemscore.Metal>
0.0000

> <Gold.Chemscore.Hbonds>
donor molecule, donor type, donor heavy atom, donor atom, acceptor molecule, acceptor atom, score
      L1  H     9    33       P1 10175  1.00
      L1  H    12    34       P1 10175  1.00
      L1  H    20    47       P1 10175  1.00
      L1  C     6    31       P1  7921  0.93

> <Gold.PLP.Chemscore.Internal.Correction>
0.0287

> <Gold.Rescore>
     Score         DG    S(hbond)    S(metal)    S(lipo)     H(rot)  DE(clash)    DE(int)     intcor
     13.30     -18.11       2.77        0.00      72.01       1.97       1.21       3.59       ----

> <Gold.Chemscore.Fitness>
13.3045

> <Gold.Chemscore.DG>
-18.1098

> <Gold.Chemscore.ZeroCoef>
-5.4800

> <Gold.Chemscore.Hbond>
2.7667

> <Gold.Chemscore.Metal>
0.0000

> <Gold.Chemscore.Lipo>
72.0102

> <Gold.Chemscore.Internal_Hbond>
0.0000

> <Gold.Chemscore.DEClash>
1.2116

> <Gold.Chemscore.DEInternal>
3.5937

> <Gold.Chemscore.Rot>
1.9672

> <Gold.Chemscore.Internal.Correction>
   9.000000E+99

> <Gold.Chemscore.Hbonds>
donor molecule, donor type, donor heavy atom, donor atom, acceptor molecule, acceptor atom, score
      L1  H     9    33       P1 10175  0.94
      L1  H    12    34       P1 10175  0.97
      L1  H    20    47       P1 10175  0.88

> <Gold.Chemscore.Hbond.Weighted>
-9.2407

> <Gold.Chemscore.Metal.Weighted>
-0.0000

> <Gold.Chemscore.Lipo.Weighted>
-8.4252

> <Gold.Chemscore.Internal_Hbond.Weighted>
0.0000

> <Gold.Chemscore.DEClash.Weighted>
1.2116

> <Gold.Chemscore.DEInternal.Weighted>
3.5937

> <Gold.Chemscore.Rot.Weighted>
5.0360

> <Gold.Chemscore.Internal.Correction.Weighted>
   9.000000E+99

> <Gold.Protein.RotatedTorsions>
[ 6907 6896 6895 6894 ] final   95.77 input  -60.11 | X-H torsion
[ 7974 7965 7964 7962 ] final  152.39 input  175.53 | X-H torsion
[ 8008 7997 7996 7995 ] final   -4.55 input   59.86 | X-H torsion
[ 10167 10162 10161 10158 ] final -143.60 input  -65.29 | X-H torsion
[ 10718 10713 10712 10709 ] final -135.96 input   66.30 | X-H torsion
[ 10763 10752 10751 10750 ] final  -76.63 input  -60.55 | X-H torsion
[ 11005 11000 10999 10996 ] final  171.26 input  -57.11 | X-H torsion

> <Gold.Protein.ActiveResidues>
 VAL166  LYS551  ARG553  GLY616  TRP617  ASP618  TYR619  PRO620  LYS621  CYS622 
 ASP623  PHE694  ASN695  SER759  ASP760  ASP761  ALA762  ILE779  LEU786  VAL792 
 PHE793  MET794  SER795  GLU796  ALA797  LYS798  CYS799  TRP800  GLU811  SER814 

> <Gold.Protein.RotatedAtoms>
  152.5441  134.0988  159.8308 H   0  0  0  0  0  0  0  0  0  0  0  0  # atno 6907 bound_to 6896
  151.1069  133.5195  159.2615 H   0  0  0  0  0  0  0  0  0  0  0  0  # atno 6908 bound_to 6896
  151.1928  135.0419  159.8894 H   0  0  0  0  0  0  0  0  0  0  0  0  # atno 6909 bound_to 6896
  144.8225  139.6663  143.6094 H   0  0  0  0  0  0  0  0  0  0  0  0  # atno 7974 bound_to 7965
  154.6131  140.2481  155.7644 H   0  0  0  0  0  0  0  0  0  0  0  0  # atno 8008 bound_to 7997
  156.2382  140.2942  156.0321 H   0  0  0  0  0  0  0  0  0  0  0  0  # atno 8009 bound_to 7997
  155.2020  140.0394  157.2909 H   0  0  0  0  0  0  0  0  0  0  0  0  # atno 8010 bound_to 7997
  139.7978  143.7876  152.2655 H   0  0  0  0  0  0  0  0  0  0  0  0  # atno 10167 bound_to 10162
  156.2718  130.7270  151.1239 H   0  0  0  0  0  0  0  0  0  0  0  0  # atno 10718 bound_to 10713
  154.5024  135.5791  153.6541 H   0  0  0  0  0  0  0  0  0  0  0  0  # atno 10763 bound_to 10752
  152.9881  135.6139  154.2985 H   0  0  0  0  0  0  0  0  0  0  0  0  # atno 10764 bound_to 10752
  154.2894  135.2849  155.2641 H   0  0  0  0  0  0  0  0  0  0  0  0  # atno 10765 bound_to 10752
  140.3171  134.7469  157.4035 H   0  0  0  0  0  0  0  0  0  0  0  0  # atno 11005 bound_to 11000
  146.2531  139.6243  142.9413 LP  0  0  0  0  0  0  0  0  0  0  0  0  # atno 17320 bound_to 7965
  145.5072  141.0436  143.2508 LP  0  0  0  0  0  0  0  0  0  0  0  0  # atno 17321 bound_to 7965
  139.7987  144.7382  150.9855 LP  0  0  0  0  0  0  0  0  0  0  0  0  # atno 17342 bound_to 10162
  140.7820  143.4367  151.0612 LP  0  0  0  0  0  0  0  0  0  0  0  0  # atno 17343 bound_to 10162
  157.7286  131.0630  150.5811 LP  0  0  0  0  0  0  0  0  0  0  0  0  # atno 17370 bound_to 10713
  156.5908  130.4329  149.5937 LP  0  0  0  0  0  0  0  0  0  0  0  0  # atno 17371 bound_to 10713
  140.0974  134.5518  155.8385 LP  0  0  0  0  0  0  0  0  0  0  0  0  # atno 17394 bound_to 11000
  141.2095  133.6685  156.6444 LP  0  0  0  0  0  0  0  0  0  0  0  0  # atno 17395 bound_to 11000

$$$$
