AV-unprocessed.smi:193|AV-procd|sdf|1498|dock9
  -GOLD-   2262019323D 1   1.00000     0.00000
 Structure written by MMmdl.
 62 66  0  0  0  0  0  0  0  0  2 V2000
  151.3269  132.8225  156.5491 C   0  0  0  0  0  0  0  0  0  0  0  0
  150.4705  133.8299  155.7661 C   0  0  2  0  0  0  0  0  0  0  0  0
  151.0320  135.2506  155.9877 C   0  0  0  0  0  0  0  0  0  0  0  0
  150.4577  136.2597  155.1036 N   0  0  0  0  0  0  0  0  0  0  0  0
  151.1317  137.4276  155.1666 C   0  0  0  0  0  0  0  0  0  0  0  0
  152.4688  137.3886  154.9497 N   0  0  0  0  0  0  0  0  0  0  0  0
  153.1850  138.5162  155.0042 C   0  0  0  0  0  0  0  0  0  0  0  0
  152.7688  139.7590  155.2593 N   0  0  0  0  0  0  0  0  0  0  0  0
  151.4240  139.7968  155.4850 C   0  0  0  0  0  0  0  0  0  0  0  0
  150.5354  138.6859  155.4584 C   0  0  0  0  0  0  0  0  0  0  0  0
  149.2409  139.1044  155.7409 N   0  0  0  0  0  0  0  0  0  0  0  0
  149.3578  140.3921  155.9230 C   0  0  0  0  0  0  0  0  0  0  0  0
  150.6332  140.8923  155.7834 N   0  0  0  0  0  0  0  0  0  0  0  0
  151.0477  142.2792  155.9336 C   0  0  0  0  0  0  0  0  0  0  0  0
  150.9459  142.8120  157.3841 C   0  0  0  0  0  0  0  0  0  0  0  0
  149.5701  142.8978  157.7146 O   0  0  0  0  0  0  0  0  0  0  0  0
  151.6213  141.8334  158.3656 C   0  0  0  0  0  0  0  0  0  0  0  0
  151.6930  142.4008  159.7946 C   0  0  0  0  0  0  0  0  0  0  0  0
  152.3505  143.6621  159.7857 O   0  0  0  0  0  0  0  0  0  0  0  0
  151.6525  144.6412  159.0258 C   0  0  0  0  0  0  0  0  0  0  0  0
  151.5768  144.2119  157.5498 C   0  0  0  0  0  0  0  0  0  0  0  0
  149.0071  136.4186  155.0654 C   0  0  0  0  0  0  0  0  0  0  0  0
  148.3417  135.2584  154.3101 C   0  0  0  0  0  0  0  0  0  0  0  0
  147.9963  134.0933  155.1652 N   0  3  1  0  0  0  0  0  0  0  0  0
  147.5887  132.9249  154.3514 C   0  0  2  0  0  0  0  0  0  0  0  0
  148.3149  132.8207  153.0300 C   0  0  0  0  0  0  0  0  0  0  0  0
  146.8766  133.2906  153.0674 C   0  0  1  0  0  0  0  0  0  0  0  0
  145.7745  132.4116  152.5181 C   0  0  0  0  0  0  0  0  0  0  0  0
  148.9920  133.7271  156.2099 C   0  0  0  0  0  0  0  0  0  0  0  0
  151.2882  133.0167  157.6215 H   0  0  0  0  0  0  0  0  0  0  0  0
  152.3717  132.8694  156.2404 H   0  0  0  0  0  0  0  0  0  0  0  0
  150.9855  131.8003  156.3826 H   0  0  0  0  0  0  0  0  0  0  0  0
  150.5614  133.5621  154.7126 H   0  0  0  0  0  0  0  0  0  0  0  0
  150.8861  135.5534  157.0259 H   0  0  0  0  0  0  0  0  0  0  0  0
  152.1110  135.2319  155.8237 H   0  0  0  0  0  0  0  0  0  0  0  0
  154.2432  138.4074  154.8168 H   0  0  0  0  0  0  0  0  0  0  0  0
  148.5110  141.0189  156.1628 H   0  0  0  0  0  0  0  0  0  0  0  0
  152.0701  142.3717  155.5645 H   0  0  0  0  0  0  0  0  0  0  0  0
  150.4319  142.8880  155.2702 H   0  0  0  0  0  0  0  0  0  0  0  0
  149.1284  143.3843  157.0353 H   0  0  0  0  0  0  0  0  0  0  0  0
  151.1019  140.8741  158.3694 H   0  0  0  0  0  0  0  0  0  0  0  0
  152.6377  141.6273  158.0271 H   0  0  0  0  0  0  0  0  0  0  0  0
  150.6978  142.4989  160.2309 H   0  0  0  0  0  0  0  0  0  0  0  0
  152.2522  141.7204  160.4370 H   0  0  0  0  0  0  0  0  0  0  0  0
  150.6559  144.7979  159.4413 H   0  0  0  0  0  0  0  0  0  0  0  0
  152.1804  145.5912  159.1098 H   0  0  0  0  0  0  0  0  0  0  0  0
  152.5876  144.2002  157.1403 H   0  0  0  0  0  0  0  0  0  0  0  0
  151.0244  144.9597  156.9793 H   0  0  0  0  0  0  0  0  0  0  0  0
  148.5962  136.5269  156.0699 H   0  0  0  0  0  0  0  0  0  0  0  0
  148.7746  137.3449  154.5369 H   0  0  0  0  0  0  0  0  0  0  0  0
  147.4110  135.6180  153.8705 H   0  0  0  0  0  0  0  0  0  0  0  0
  148.9679  134.9488  153.4713 H   0  0  0  0  0  0  0  0  0  0  0  0
  147.3166  132.0255  154.9017 H   0  0  0  0  0  0  0  0  0  0  0  0
  149.0757  133.5630  152.7953 H   0  0  0  0  0  0  0  0  0  0  0  0
  148.5092  131.8219  152.6442 H   0  0  0  0  0  0  0  0  0  0  0  0
  146.7191  134.3514  152.8799 H   0  0  0  0  0  0  0  0  0  0  0  0
  145.9724  131.3611  152.7333 H   0  0  0  0  0  0  0  0  0  0  0  0
  145.6996  132.5369  151.4377 H   0  0  0  0  0  0  0  0  0  0  0  0
  144.8196  132.6846  152.9673 H   0  0  0  0  0  0  0  0  0  0  0  0
  148.7694  132.7156  156.5531 H   0  0  0  0  0  0  0  0  0  0  0  0
  148.8265  134.3586  157.0834 H   0  0  0  0  0  0  0  0  0  0  0  0
  147.1704  134.3639  155.6795 H   0  0  0  0  0  0  0  0  0  0  0  0
  1  2  1  0  0  0  0
  1 30  1  0  0  0  0
  1 31  1  0  0  0  0
  1 32  1  0  0  0  0
  2 29  1  0  0  0  0
  2  3  1  0  0  0  0
  2 33  1  0  0  0  0
  3  4  1  0  0  0  0
  3 34  1  0  0  0  0
  3 35  1  0  0  0  0
  4  5  1  0  0  0  0
  4 22  1  0  0  0  0
  5 10  1  0  0  0  0
  5  6  2  0  0  0  0
  6  7  1  0  0  0  0
  7  8  2  0  0  0  0
  7 36  1  0  0  0  0
  8  9  1  0  0  0  0
  9 13  1  0  0  0  0
  9 10  2  0  0  0  0
 10 11  1  0  0  0  0
 11 12  2  0  0  0  0
 12 13  1  0  0  0  0
 12 37  1  0  0  0  0
 13 14  1  0  0  0  0
 14 15  1  0  0  0  0
 14 38  1  0  0  0  0
 14 39  1  0  0  0  0
 15 21  1  0  0  0  0
 15 16  1  0  0  0  0
 15 17  1  0  0  0  0
 16 40  1  0  0  0  0
 17 18  1  0  0  0  0
 17 41  1  0  0  0  0
 17 42  1  0  0  0  0
 18 19  1  0  0  0  0
 18 43  1  0  0  0  0
 18 44  1  0  0  0  0
 19 20  1  0  0  0  0
 20 21  1  0  0  0  0
 20 45  1  0  0  0  0
 20 46  1  0  0  0  0
 21 47  1  0  0  0  0
 21 48  1  0  0  0  0
 22 23  1  0  0  0  0
 22 49  1  0  0  0  0
 22 50  1  0  0  0  0
 23 24  1  0  0  0  0
 23 51  1  0  0  0  0
 23 52  1  0  0  0  0
 24 25  1  0  0  0  0
 24 29  1  0  0  0  0
 24 62  1  0  0  0  0
 25 27  1  0  0  0  0
 25 26  1  0  0  0  0
 25 53  1  0  0  0  0
 26 27  1  0  0  0  0
 26 54  1  0  0  0  0
 26 55  1  0  0  0  0
 27 28  1  0  0  0  0
 27 56  1  0  0  0  0
 28 57  1  0  0  0  0
 28 58  1  0  0  0  0
 28 59  1  0  0  0  0
 29 60  1  0  0  0  0
 29 61  1  0  0  0  0
M  CHG  1  24   1
M  END
> <s_m_source_file>
AV-unprocessed.smi

> <i_m_source_file_index>
193

> <i_lp_mmshare_version>
43012

> <i_f3d_flags>
0

> <s_epik_input>
W0NIM11bQ0BASF0xW0NIMl1bQ0BIXTFOKFtDSDJdMilbQ0gyXVtDSDJdTihbQ0gyXVtDQEhdMltDSDNdKWMobltjSF1uMyljKGMzNCluW2NIXW40W0NIMl1DNShbT0hdKVtDSDJdW0NIMl1PW0NIMl1bQ0gyXTU=

> <s_epik_cmdline>
J2VwaWtfcHl0aG9uJywgJy1waCcsICc3LjAnLCAnLXRuJywgJzgnLCAnLW1hJywgJzIwMCcsICctbWV0YWxfYmluZGluZycsICctaW1hZScsICc8aW5maWxlLm1hZT4nLCAnLW9tYWUnLCAnPG91dGZpbGUubWFlPic=

> <r_lp_tautomer_probability>
1

> <r_epik_Ionization_Penalty>
0.0540825

> <r_epik_Ionization_Penalty_Charging>
0.0538476

> <r_epik_Ionization_Penalty_Neutral>
0.000234891

> <r_epik_State_Penalty>
0.0200719

> <r_epik_Charging_Adjusted_Penalty>
0.0739194

> <i_epik_Tot_Q>
1

> <i_epik_Tot_abs_Q>
1

> <r_epik_Metal_State_Penalty>
0.0199414

> <b_epik_Metal_Only>
0

> <s_lp_Force_Field>
OPLS_2005

> <r_lp_Energy>
56.0511

> <b_lp_Chiralities_Consistent>
1

> <s_lp_Variant>
AV-unprocessed.smi:193-3

> <Gold.Version>
5.8.1

> <Gold.Id.Protein>
6NUR|6NUR_protein|mol2

> <Gold.PLP.Fitness>
50.4401

> <Gold.PLP.PLP>
-43.4109

> <Gold.PLP.part.hbond>
-4.0000

> <Gold.PLP.part.metal>
0.0000

> <Gold.PLP.part.buried>
-2.8064

> <Gold.PLP.part.nonpolar>
-38.1761

> <Gold.PLP.part.repulsive>
0.2799

> <Gold.PLP.ligand.clash>
0.0000

> <Gold.PLP.ligand.torsion>
0.9397

> <Gold.PLP.Chemscore.Hbond>
2.4380

> <Gold.PLP.Chemscore.CHOScore>
0.0000

> <Gold.PLP.Chemscore.Metal>
0.0000

> <Gold.Chemscore.Hbonds>
donor molecule, donor type, donor heavy atom, donor atom, acceptor molecule, acceptor atom, score
      L1  H    16    40       P1  8028  1.00
      P1  H  7997  8010       L1     8  0.55
      P1  H 10752 10764       L1     6  0.61

> <Gold.PLP.Chemscore.Internal.Correction>
1.5947

> <Gold.Rescore>
     Score         DG    S(hbond)    S(metal)    S(lipo)     H(rot)  DE(clash)    DE(int)     intcor
     14.42     -18.47       1.87        0.00     105.78       2.20       1.64       2.41       ----

> <Gold.Chemscore.Fitness>
14.4233

> <Gold.Chemscore.DG>
-18.4702

> <Gold.Chemscore.ZeroCoef>
-5.4800

> <Gold.Chemscore.Hbond>
1.8715

> <Gold.Chemscore.Metal>
0.0000

> <Gold.Chemscore.Lipo>
105.7764

> <Gold.Chemscore.Internal_Hbond>
0.0000

> <Gold.Chemscore.DEClash>
1.6353

> <Gold.Chemscore.DEInternal>
2.4115

> <Gold.Chemscore.Rot>
2.2018

> <Gold.Chemscore.Internal.Correction>
   9.000000E+99

> <Gold.Chemscore.Hbonds>
donor molecule, donor type, donor heavy atom, donor atom, acceptor molecule, acceptor atom, score
      L1  H    16    40       P1  8028  0.77
      P1  H  7997  8010       L1     8  0.03
      P1  H 10752 10764       L1     6  0.42

> <Gold.Chemscore.Hbond.Weighted>
-6.2509

> <Gold.Chemscore.Metal.Weighted>
-0.0000

> <Gold.Chemscore.Lipo.Weighted>
-12.3758

> <Gold.Chemscore.Internal_Hbond.Weighted>
0.0000

> <Gold.Chemscore.DEClash.Weighted>
1.6353

> <Gold.Chemscore.DEInternal.Weighted>
2.4115

> <Gold.Chemscore.Rot.Weighted>
5.6366

> <Gold.Chemscore.Internal.Correction.Weighted>
   9.000000E+99

> <Gold.Protein.RotatedTorsions>
[ 6907 6896 6895 6894 ] final   34.06 input  -60.11 | X-H torsion
[ 7974 7965 7964 7962 ] final  -39.99 input  175.53 | X-H torsion
[ 8008 7997 7996 7995 ] final   89.79 input   59.86 | X-H torsion
[ 10167 10162 10161 10158 ] final  -24.06 input  -65.29 | X-H torsion
[ 10718 10713 10712 10709 ] final -157.54 input   66.30 | X-H torsion
[ 10763 10752 10751 10750 ] final  -58.18 input  -60.55 | X-H torsion
[ 11005 11000 10999 10996 ] final  -26.68 input  -57.11 | X-H torsion

> <Gold.Protein.ActiveResidues>
 VAL166  LYS551  ARG553  GLY616  TRP617  ASP618  TYR619  PRO620  LYS621  CYS622 
 ASP623  PHE694  ASN695  SER759  ASP760  ASP761  ALA762  ILE779  LEU786  VAL792 
 PHE793  MET794  SER795  GLU796  ALA797  LYS798  CYS799  TRP800  GLU811  SER814 

> <Gold.Protein.RotatedAtoms>
  152.0972  134.9367  160.0570 H   0  0  0  0  0  0  0  0  0  0  0  0  # atno 6907 bound_to 6896
  152.0595  133.4051  159.4420 H   0  0  0  0  0  0  0  0  0  0  0  0  # atno 6908 bound_to 6896
  150.6838  134.3136  159.4800 H   0  0  0  0  0  0  0  0  0  0  0  0  # atno 6909 bound_to 6896
  146.0346  140.6688  142.9116 H   0  0  0  0  0  0  0  0  0  0  0  0  # atno 7974 bound_to 7965
  156.0042  140.3357  155.6875 H   0  0  0  0  0  0  0  0  0  0  0  0  # atno 8008 bound_to 7997
  155.6248  140.0679  157.2685 H   0  0  0  0  0  0  0  0  0  0  0  0  # atno 8009 bound_to 7997
  154.4259  140.1770  156.1398 H   0  0  0  0  0  0  0  0  0  0  0  0  # atno 8010 bound_to 7997
  140.7288  143.4387  151.0689 H   0  0  0  0  0  0  0  0  0  0  0  0  # atno 10167 bound_to 10162
  156.5416  130.8566  151.2751 H   0  0  0  0  0  0  0  0  0  0  0  0  # atno 10718 bound_to 10713
  154.2341  135.6355  153.5185 H   0  0  0  0  0  0  0  0  0  0  0  0  # atno 10763 bound_to 10752
  152.9943  135.5526  154.5981 H   0  0  0  0  0  0  0  0  0  0  0  0  # atno 10764 bound_to 10752
  154.5471  135.2899  155.1017 H   0  0  0  0  0  0  0  0  0  0  0  0  # atno 10765 bound_to 10752
  140.9051  133.7498  156.0595 H   0  0  0  0  0  0  0  0  0  0  0  0  # atno 11005 bound_to 11000
  144.7046  140.3797  143.7129 LP  0  0  0  0  0  0  0  0  0  0  0  0  # atno 17320 bound_to 7965
  145.6985  139.1655  143.2606 LP  0  0  0  0  0  0  0  0  0  0  0  0  # atno 17321 bound_to 7965
  139.8052  143.8028  152.3166 LP  0  0  0  0  0  0  0  0  0  0  0  0  # atno 17342 bound_to 10162
  139.8058  144.7356  150.9763 LP  0  0  0  0  0  0  0  0  0  0  0  0  # atno 17343 bound_to 10162
  157.7404  130.9850  150.2376 LP  0  0  0  0  0  0  0  0  0  0  0  0  # atno 17370 bound_to 10713
  156.2966  130.3753  149.7790 LP  0  0  0  0  0  0  0  0  0  0  0  0  # atno 17371 bound_to 10713
  140.8181  134.3321  157.5390 LP  0  0  0  0  0  0  0  0  0  0  0  0  # atno 17394 bound_to 11000
  139.8748  134.9293  156.3474 LP  0  0  0  0  0  0  0  0  0  0  0  0  # atno 17395 bound_to 11000

$$$$
