AV-unprocessed.smi:2253|AV-procd|sdf|9120|dock10
  -GOLD-   2272012323D 1   1.00000     0.00000
 Structure written by MMmdl.
 51 53  0  0  0  0  0  0  0  0  2 V2000
  146.9748  141.9325  154.5416 C   0  0  0  0  0  0  0  0  0  0  0  0
  148.0953  142.0291  155.5015 N   0  3  2  0  0  0  0  0  0  0  0  0
  149.3978  141.6755  154.8847 C   0  0  0  0  0  0  0  0  0  0  0  0
  150.5541  141.8550  155.8849 C   0  0  0  0  0  0  0  0  0  0  0  0
  150.3469  141.0069  157.1662 C   0  0  2  0  0  0  0  0  0  0  0  0
  150.4451  139.5460  156.9401 N   0  0  0  0  0  0  0  0  0  0  0  0
  150.5128  138.8081  158.2128 C   0  0  0  0  0  0  0  0  0  0  0  0
  150.5218  137.2859  157.9912 C   0  0  0  0  0  0  0  0  0  0  0  0
  151.7179  136.8623  157.1312 C   0  0  0  0  0  0  0  0  0  0  0  0
  151.6639  135.4367  156.8207 N   0  0  0  0  0  0  0  0  0  0  0  0
  150.7925  134.8633  155.9781 C   0  0  0  0  0  0  0  0  0  0  0  0
  149.9351  135.4954  155.3621 O   0  0  0  0  0  0  0  0  0  0  0  0
  150.9880  133.5346  155.9127 N   0  0  0  0  0  0  0  0  0  0  0  0
  150.2814  132.5449  155.1727 C   0  0  0  0  0  0  0  0  0  0  0  0
  149.4291  132.8103  154.0723 C   0  0  0  0  0  0  0  0  0  0  0  0
  148.7947  131.7266  153.4319 C   0  0  0  0  0  0  0  0  0  0  0  0
  148.9568  130.4405  153.8075 N   0  0  0  0  0  0  0  0  0  0  0  0
  149.7734  130.1898  154.8521 C   0  0  0  0  0  0  0  0  0  0  0  0
  150.4545  131.1991  155.5616 C   0  0  0  0  0  0  0  0  0  0  0  0
  151.2606  130.8759  156.6020 F   0  0  0  0  0  0  0  0  0  0  0  0
  151.6917  137.6852  155.8409 C   0  0  0  0  0  0  0  0  0  0  0  0
  151.6332  139.1927  156.1446 C   0  0  0  0  0  0  0  0  0  0  0  0
  148.9840  141.4485  157.7589 C   0  0  0  0  0  0  0  0  0  0  0  0
  147.8358  141.2693  156.7492 C   0  0  0  0  0  0  0  0  0  0  0  0
  146.8396  140.9052  154.2004 H   0  0  0  0  0  0  0  0  0  0  0  0
  147.1589  142.5608  153.6697 H   0  0  0  0  0  0  0  0  0  0  0  0
  146.0438  142.2658  155.0011 H   0  0  0  0  0  0  0  0  0  0  0  0
  149.3677  140.6462  154.5239 H   0  0  0  0  0  0  0  0  0  0  0  0
  149.5685  142.3107  154.0146 H   0  0  0  0  0  0  0  0  0  0  0  0
  151.5146  141.6804  155.4047 H   0  0  0  0  0  0  0  0  0  0  0  0
  150.5939  142.9068  156.1724 H   0  0  0  0  0  0  0  0  0  0  0  0
  151.1302  141.2750  157.8771 H   0  0  0  0  0  0  0  0  0  0  0  0
  151.3959  139.1142  158.7762 H   0  0  0  0  0  0  0  0  0  0  0  0
  149.6480  139.0163  158.8369 H   0  0  0  0  0  0  0  0  0  0  0  0
  150.5540  136.7776  158.9554 H   0  0  0  0  0  0  0  0  0  0  0  0
  149.5888  136.9828  157.5134 H   0  0  0  0  0  0  0  0  0  0  0  0
  152.6443  137.0833  157.6651 H   0  0  0  0  0  0  0  0  0  0  0  0
  152.3352  134.8444  157.2869 H   0  0  0  0  0  0  0  0  0  0  0  0
  151.7271  133.1738  156.4980 H   0  0  0  0  0  0  0  0  0  0  0  0
  149.2478  133.8057  153.7001 H   0  0  0  0  0  0  0  0  0  0  0  0
  148.1395  131.8994  152.5911 H   0  0  0  0  0  0  0  0  0  0  0  0
  149.8881  129.1530  155.1317 H   0  0  0  0  0  0  0  0  0  0  0  0
  152.5765  137.4663  155.2418 H   0  0  0  0  0  0  0  0  0  0  0  0
  150.8297  137.4050  155.2331 H   0  0  0  0  0  0  0  0  0  0  0  0
  151.6208  139.6920  155.1792 H   0  0  0  0  0  0  0  0  0  0  0  0
  152.5393  139.5123  156.6620 H   0  0  0  0  0  0  0  0  0  0  0  0
  148.7468  140.9636  158.7031 H   0  0  0  0  0  0  0  0  0  0  0  0
  149.0481  142.5066  158.0171 H   0  0  0  0  0  0  0  0  0  0  0  0
  146.9034  141.6170  157.1953 H   0  0  0  0  0  0  0  0  0  0  0  0
  147.6994  140.2120  156.5165 H   0  0  0  0  0  0  0  0  0  0  0  0
  148.1614  143.0010  155.7684 H   0  0  0  0  0  0  0  0  0  0  0  0
  1  2  1  0  0  0  0
  1 25  1  0  0  0  0
  1 26  1  0  0  0  0
  1 27  1  0  0  0  0
  2 24  1  0  0  0  0
  2  3  1  0  0  0  0
  2 51  1  0  0  0  0
  3  4  1  0  0  0  0
  3 28  1  0  0  0  0
  3 29  1  0  0  0  0
  4  5  1  0  0  0  0
  4 30  1  0  0  0  0
  4 31  1  0  0  0  0
  5  6  1  0  0  0  0
  5 23  1  0  0  0  0
  5 32  1  0  0  0  0
  6 22  1  0  0  0  0
  6  7  1  0  0  0  0
  7  8  1  0  0  0  0
  7 33  1  0  0  0  0
  7 34  1  0  0  0  0
  8  9  1  0  0  0  0
  8 35  1  0  0  0  0
  8 36  1  0  0  0  0
  9 10  1  0  0  0  0
  9 21  1  0  0  0  0
  9 37  1  0  0  0  0
 10 11  1  0  0  0  0
 10 38  1  0  0  0  0
 11 12  2  0  0  0  0
 11 13  1  0  0  0  0
 13 14  1  0  0  0  0
 13 39  1  0  0  0  0
 14 19  1  0  0  0  0
 14 15  2  0  0  0  0
 15 16  1  0  0  0  0
 15 40  1  0  0  0  0
 16 17  2  0  0  0  0
 16 41  1  0  0  0  0
 17 18  1  0  0  0  0
 18 19  2  0  0  0  0
 18 42  1  0  0  0  0
 19 20  1  0  0  0  0
 21 22  1  0  0  0  0
 21 43  1  0  0  0  0
 21 44  1  0  0  0  0
 22 45  1  0  0  0  0
 22 46  1  0  0  0  0
 23 24  1  0  0  0  0
 23 47  1  0  0  0  0
 23 48  1  0  0  0  0
 24 49  1  0  0  0  0
 24 50  1  0  0  0  0
M  CHG  1   2   1
M  END
> <s_m_source_file>
AV-unprocessed.smi

> <i_m_source_file_index>
2253

> <i_lp_mmshare_version>
43012

> <i_f3d_flags>
0

> <s_epik_input>
W0NIM11OMVtDSDJdW0NIMl1bQ0hdKFtDSDJdW0NIMl0xKU4yW0NIMl1bQ0gyXVtDSF0oW0NIMl1bQ0gyXTIpW05IXUMoPU8pW05IXWMzW2NIXVtjSF1uW2NIXWMzRg==

> <s_epik_cmdline>
J2VwaWtfcHl0aG9uJywgJy1waCcsICc3LjAnLCAnLXRuJywgJzgnLCAnLW1hJywgJzIwMCcsICctbWV0YWxfYmluZGluZycsICctaW1hZScsICc8aW5maWxlLm1hZT4nLCAnLW9tYWUnLCAnPG91dGZpbGUubWFlPic=

> <r_epik_Ionization_Penalty>
1.01315

> <r_epik_Ionization_Penalty_Charging>
0.000974969

> <r_epik_Ionization_Penalty_Neutral>
1.01217

> <r_epik_State_Penalty>
1.10286

> <r_epik_Charging_Adjusted_Penalty>
1.10383

> <i_epik_Tot_Q>
1

> <i_epik_Tot_abs_Q>
1

> <r_epik_Metal_State_Penalty>
1.10232

> <b_epik_Metal_Only>
0

> <s_lp_Force_Field>
OPLS_2005

> <r_lp_Energy>
40.3277

> <b_lp_Chiralities_Consistent>
1

> <s_lp_Variant>
AV-unprocessed.smi:2253-6

> <Gold.Version>
5.8.1

> <Gold.Id.Protein>
6NUR|6NUR_protein|mol2

> <Gold.PLP.Fitness>
40.4009

> <Gold.PLP.PLP>
-32.8239

> <Gold.PLP.part.hbond>
-1.0000

> <Gold.PLP.part.metal>
0.0000

> <Gold.PLP.part.buried>
-3.9144

> <Gold.PLP.part.nonpolar>
-26.9375

> <Gold.PLP.part.repulsive>
0.6329

> <Gold.PLP.ligand.clash>
0.0000

> <Gold.PLP.ligand.torsion>
0.3101

> <Gold.PLP.Chemscore.Hbond>
2.0000

> <Gold.PLP.Chemscore.CHOScore>
0.7318

> <Gold.PLP.Chemscore.Metal>
0.0000

> <Gold.Chemscore.Hbonds>
donor molecule, donor type, donor heavy atom, donor atom, acceptor molecule, acceptor atom, score
      L1  H     2    51       P1  8028  2.00
      L1  C    16    41       P1 10747  0.46

> <Gold.PLP.Chemscore.Internal.Correction>
0.0018

> <Gold.Rescore>
     Score         DG    S(hbond)    S(metal)    S(lipo)     H(rot)  DE(clash)    DE(int)     intcor
     13.13     -14.92       0.97        0.00      80.33       1.24       0.13       1.66       ----

> <Gold.Chemscore.Fitness>
13.1258

> <Gold.Chemscore.DG>
-14.9221

> <Gold.Chemscore.ZeroCoef>
-5.4800

> <Gold.Chemscore.Hbond>
0.9666

> <Gold.Chemscore.Metal>
0.0000

> <Gold.Chemscore.Lipo>
80.3284

> <Gold.Chemscore.Internal_Hbond>
0.0000

> <Gold.Chemscore.DEClash>
0.1334

> <Gold.Chemscore.DEInternal>
1.6629

> <Gold.Chemscore.Rot>
1.2440

> <Gold.Chemscore.Internal.Correction>
   9.000000E+99

> <Gold.Chemscore.Hbonds>
donor molecule, donor type, donor heavy atom, donor atom, acceptor molecule, acceptor atom, score
      L1  H     2    51       P1  8028  0.83

> <Gold.Chemscore.Hbond.Weighted>
-3.2283

> <Gold.Chemscore.Metal.Weighted>
-0.0000

> <Gold.Chemscore.Lipo.Weighted>
-9.3984

> <Gold.Chemscore.Internal_Hbond.Weighted>
0.0000

> <Gold.Chemscore.DEClash.Weighted>
0.1334

> <Gold.Chemscore.DEInternal.Weighted>
1.6629

> <Gold.Chemscore.Rot.Weighted>
3.1847

> <Gold.Chemscore.Internal.Correction.Weighted>
   9.000000E+99

> <Gold.Protein.RotatedTorsions>
[ 6907 6896 6895 6894 ] final   89.55 input  -60.11 | X-H torsion
[ 7974 7965 7964 7962 ] final -106.18 input  175.53 | X-H torsion
[ 8008 7997 7996 7995 ] final -178.61 input   59.86 | X-H torsion
[ 10167 10162 10161 10158 ] final   78.73 input  -65.29 | X-H torsion
[ 10718 10713 10712 10709 ] final -153.97 input   66.30 | X-H torsion
[ 10763 10752 10751 10750 ] final   39.48 input  -60.55 | X-H torsion
[ 11005 11000 10999 10996 ] final  -22.08 input  -57.11 | X-H torsion

> <Gold.Protein.ActiveResidues>
 VAL166  LYS551  ARG553  GLY616  TRP617  ASP618  TYR619  PRO620  LYS621  CYS622 
 ASP623  PHE694  ASN695  SER759  ASP760  ASP761  ALA762  ILE779  LEU786  VAL792 
 PHE793  MET794  SER795  GLU796  ALA797  LYS798  CYS799  TRP800  GLU811  SER814 

> <Gold.Protein.RotatedAtoms>
  152.5437  134.1948  159.8688 H   0  0  0  0  0  0  0  0  0  0  0  0  # atno 6907 bound_to 6896
  151.1941  133.4643  159.2603 H   0  0  0  0  0  0  0  0  0  0  0  0  # atno 6908 bound_to 6896
  151.1054  135.0008  159.8524 H   0  0  0  0  0  0  0  0  0  0  0  0  # atno 6909 bound_to 6896
  145.2211  140.9135  143.3259 H   0  0  0  0  0  0  0  0  0  0  0  0  # atno 7974 bound_to 7965
  156.0208  140.1261  157.0359 H   0  0  0  0  0  0  0  0  0  0  0  0  # atno 8008 bound_to 7997
  154.4311  140.1069  156.6031 H   0  0  0  0  0  0  0  0  0  0  0  0  # atno 8009 bound_to 7997
  155.5947  140.3470  155.4578 H   0  0  0  0  0  0  0  0  0  0  0  0  # atno 8010 bound_to 7997
  139.9678  144.5916  150.8013 H   0  0  0  0  0  0  0  0  0  0  0  0  # atno 10167 bound_to 10162
  156.4930  130.8356  151.2578 H   0  0  0  0  0  0  0  0  0  0  0  0  # atno 10718 bound_to 10713
  152.9966  135.6219  154.2473 H   0  0  0  0  0  0  0  0  0  0  0  0  # atno 10763 bound_to 10752
  154.2212  135.2796  155.2926 H   0  0  0  0  0  0  0  0  0  0  0  0  # atno 10764 bound_to 10752
  154.5527  135.5728  153.6995 H   0  0  0  0  0  0  0  0  0  0  0  0  # atno 10765 bound_to 10752
  140.8623  133.7779  156.0088 H   0  0  0  0  0  0  0  0  0  0  0  0  # atno 11005 bound_to 11000
  144.9764  139.3827  143.6283 LP  0  0  0  0  0  0  0  0  0  0  0  0  # atno 17320 bound_to 7965
  146.3375  139.8885  142.8813 LP  0  0  0  0  0  0  0  0  0  0  0  0  # atno 17321 bound_to 7965
  140.7532  143.3004  151.3095 LP  0  0  0  0  0  0  0  0  0  0  0  0  # atno 17342 bound_to 10162
  139.6504  144.0373  152.2622 LP  0  0  0  0  0  0  0  0  0  0  0  0  # atno 17343 bound_to 10162
  157.7471  131.0007  150.2936 LP  0  0  0  0  0  0  0  0  0  0  0  0  # atno 17370 bound_to 10713
  156.3408  130.3815  149.7411 LP  0  0  0  0  0  0  0  0  0  0  0  0  # atno 17371 bound_to 10713
  140.8669  134.2773  157.5209 LP  0  0  0  0  0  0  0  0  0  0  0  0  # atno 17394 bound_to 11000
  139.8707  134.9547  156.4184 LP  0  0  0  0  0  0  0  0  0  0  0  0  # atno 17395 bound_to 11000

$$$$
