AV-unprocessed.smi:1970|AV-procd|sdf|7961|dock10
  -GOLD-   2272010133D 1   1.00000     0.00000
 Structure written by MMmdl.
 34 35  0  0  0  0  0  0  0  0  2 V2000
  149.9744  136.9040  159.2582 O   0  0  0  0  0  0  0  0  0  0  0  0
  149.0763  137.3542  158.5454 C   0  0  0  0  0  0  0  0  0  0  0  0
  147.8279  136.5173  158.2382 C   0  0  0  0  0  0  0  0  0  0  0  0
  147.4340  135.6537  159.3546 N   0  0  0  0  0  0  0  0  0  0  0  0
  147.3908  134.2112  159.1417 C   0  0  0  0  0  0  0  0  0  0  0  0
  147.1999  133.4450  160.7714 S   0  0  0  0  0  0  0  0  0  0  0  0
  146.7342  134.9986  161.5540 C   0  0  0  0  0  0  0  0  0  0  0  0
  147.0887  136.1037  160.5740 C   0  0  0  0  0  0  0  0  0  0  0  0
  147.0541  137.2888  160.9043 O   0  0  0  0  0  0  0  0  0  0  0  0
  149.1256  138.5724  157.9857 N   0  0  0  0  0  0  0  0  0  0  0  0
  150.2105  139.5291  158.1685 C   0  0  0  0  0  0  0  0  0  0  0  0
  149.8954  140.8730  157.4897 C   0  0  0  0  0  0  0  0  0  0  0  0
  150.8070  141.9866  157.9663 C   0  0  0  0  0  0  0  0  0  0  0  0
  151.7661  141.7862  158.9828 C   0  0  0  0  0  0  0  0  0  0  0  0
  152.5876  142.8627  159.3771 C   0  0  0  0  0  0  0  0  0  0  0  0
  152.4339  144.1151  158.7467 C   0  0  0  0  0  0  0  0  0  0  0  0
  151.4613  144.2590  157.7361 C   0  0  0  0  0  0  0  0  0  0  0  0
  150.6930  143.2037  157.3866 N   0  3  0  0  0  0  0  0  0  0  0  0
  146.9955  137.1725  157.9741 H   0  0  0  0  0  0  0  0  0  0  0  0
  148.0299  135.9090  157.3558 H   0  0  0  0  0  0  0  0  0  0  0  0
  146.5397  133.9554  158.5100 H   0  0  0  0  0  0  0  0  0  0  0  0
  148.3017  133.8524  158.6613 H   0  0  0  0  0  0  0  0  0  0  0  0
  145.6621  135.0104  161.7509 H   0  0  0  0  0  0  0  0  0  0  0  0
  147.2650  135.1250  162.4978 H   0  0  0  0  0  0  0  0  0  0  0  0
  148.3509  138.8608  157.4055 H   0  0  0  0  0  0  0  0  0  0  0  0
  150.4029  139.6742  159.2330 H   0  0  0  0  0  0  0  0  0  0  0  0
  151.1183  139.0987  157.7449 H   0  0  0  0  0  0  0  0  0  0  0  0
  149.9892  140.7767  156.4071 H   0  0  0  0  0  0  0  0  0  0  0  0
  148.8609  141.1610  157.6824 H   0  0  0  0  0  0  0  0  0  0  0  0
  151.8734  140.8199  159.4545 H   0  0  0  0  0  0  0  0  0  0  0  0
  153.3268  142.7290  160.1533 H   0  0  0  0  0  0  0  0  0  0  0  0
  153.0533  144.9523  159.0342 H   0  0  0  0  0  0  0  0  0  0  0  0
  151.2760  145.1788  157.2010 H   0  0  0  0  0  0  0  0  0  0  0  0
  149.9955  143.3309  156.6531 H   0  0  0  0  0  0  0  0  0  0  0  0
  1  2  2  0  0  0  0
  2  3  1  0  0  0  0
  2 10  1  0  0  0  0
  3  4  1  0  0  0  0
  3 19  1  0  0  0  0
  3 20  1  0  0  0  0
  4  8  1  0  0  0  0
  4  5  1  0  0  0  0
  5  6  1  0  0  0  0
  5 21  1  0  0  0  0
  5 22  1  0  0  0  0
  6  7  1  0  0  0  0
  7  8  1  0  0  0  0
  7 23  1  0  0  0  0
  7 24  1  0  0  0  0
  8  9  2  0  0  0  0
 10 11  1  0  0  0  0
 10 25  1  0  0  0  0
 11 12  1  0  0  0  0
 11 26  1  0  0  0  0
 11 27  1  0  0  0  0
 12 13  1  0  0  0  0
 12 28  1  0  0  0  0
 12 29  1  0  0  0  0
 13 18  1  0  0  0  0
 13 14  2  0  0  0  0
 14 15  1  0  0  0  0
 14 30  1  0  0  0  0
 15 16  2  0  0  0  0
 15 31  1  0  0  0  0
 16 17  1  0  0  0  0
 16 32  1  0  0  0  0
 17 18  2  0  0  0  0
 17 33  1  0  0  0  0
 18 34  1  0  0  0  0
M  CHG  1  18   1
M  END
> <s_m_source_file>
AV-unprocessed.smi

> <i_m_source_file_index>
1970

> <i_lp_mmshare_version>
43012

> <i_f3d_flags>
0

> <s_epik_input>
Tz1DMVtDSDJdU1tDSDJdTjFbQ0gyXUMoPU8pW05IXVtDSDJdW0NIMl1jMltjSF1bY0hdW2NIXVtjSF1uMg==

> <s_epik_cmdline>
J2VwaWtfcHl0aG9uJywgJy1waCcsICc3LjAnLCAnLXRuJywgJzgnLCAnLW1hJywgJzIwMCcsICctbWV0YWxfYmluZGluZycsICctaW1hZScsICc8aW5maWxlLm1hZT4nLCAnLW9tYWUnLCAnPG91dGZpbGUubWFlPic=

> <r_epik_Ionization_Penalty>
1.87519

> <r_epik_Ionization_Penalty_Charging>
1.87519

> <r_epik_Ionization_Penalty_Neutral>
8.746e-08

> <r_epik_State_Penalty>
1.99452

> <r_epik_Charging_Adjusted_Penalty>
3.86972

> <i_epik_Tot_Q>
1

> <i_epik_Tot_abs_Q>
1

> <r_epik_Metal_State_Penalty>
2.01927

> <b_epik_Metal_Only>
0

> <s_epik_Chemistry_Notes>
This compound contains an acetal/aminal-like group ( X-CH(R)-Y where X, Y are N, S, or O) that may be acid/base labile, releasing an aldehyde.

> <s_lp_Force_Field>
OPLS_2005

> <r_lp_Energy>
10.5607

> <b_lp_Chiralities_Consistent>
1

> <s_lp_Variant>
AV-unprocessed.smi:1970-2

> <Gold.Version>
5.8.1

> <Gold.Id.Protein>
6NUR|6NUR_protein|mol2

> <Gold.PLP.Fitness>
49.2060

> <Gold.PLP.PLP>
-37.1275

> <Gold.PLP.part.hbond>
-3.9621

> <Gold.PLP.part.metal>
0.0000

> <Gold.PLP.part.buried>
-4.4867

> <Gold.PLP.part.nonpolar>
-28.4352

> <Gold.PLP.part.repulsive>
0.1602

> <Gold.PLP.ligand.clash>
0.0000

> <Gold.PLP.ligand.torsion>
0.4498

> <Gold.PLP.Chemscore.Hbond>
4.3222

> <Gold.PLP.Chemscore.CHOScore>
0.0000

> <Gold.PLP.Chemscore.Metal>
0.0000

> <Gold.Chemscore.Hbonds>
donor molecule, donor type, donor heavy atom, donor atom, acceptor molecule, acceptor atom, score
      L1  H    18    34       P1  8028  1.71
      P1  H  6896  6908       L1     1  0.50
      P1  H  6931  6943       L1     9  0.04
      P1  H  6934  6947       L1     9  1.00

> <Gold.PLP.Chemscore.Internal.Correction>
0.0115

> <Gold.Rescore>
     Score         DG    S(hbond)    S(metal)    S(lipo)     H(rot)  DE(clash)    DE(int)     intcor
     21.33     -21.78       3.46        0.00      85.02       2.03       0.03       0.42       ----

> <Gold.Chemscore.Fitness>
21.3271

> <Gold.Chemscore.DG>
-21.7793

> <Gold.Chemscore.ZeroCoef>
-5.4800

> <Gold.Chemscore.Hbond>
3.4577

> <Gold.Chemscore.Metal>
0.0000

> <Gold.Chemscore.Lipo>
85.0190

> <Gold.Chemscore.Internal_Hbond>
0.0000

> <Gold.Chemscore.DEClash>
0.0279

> <Gold.Chemscore.DEInternal>
0.4243

> <Gold.Chemscore.Rot>
2.0300

> <Gold.Chemscore.Internal.Correction>
   9.000000E+99

> <Gold.Chemscore.Hbonds>
donor molecule, donor type, donor heavy atom, donor atom, acceptor molecule, acceptor atom, score
      L1  H    18    34       P1  8028  0.78
      P1  H  6896  6908       L1     1  0.50
      P1  H  6931  6943       L1     9  0.07
      P1  H  6934  6947       L1     9  1.00

> <Gold.Chemscore.Hbond.Weighted>
-11.5488

> <Gold.Chemscore.Metal.Weighted>
-0.0000

> <Gold.Chemscore.Lipo.Weighted>
-9.9472

> <Gold.Chemscore.Internal_Hbond.Weighted>
0.0000

> <Gold.Chemscore.DEClash.Weighted>
0.0279

> <Gold.Chemscore.DEInternal.Weighted>
0.4243

> <Gold.Chemscore.Rot.Weighted>
5.1967

> <Gold.Chemscore.Internal.Correction.Weighted>
   9.000000E+99

> <Gold.Protein.RotatedTorsions>
[ 6907 6896 6895 6894 ] final -148.75 input  -60.11 | X-H torsion
[ 7974 7965 7964 7962 ] final  -47.71 input  175.53 | X-H torsion
[ 8008 7997 7996 7995 ] final  142.57 input   59.86 | X-H torsion
[ 10167 10162 10161 10158 ] final  -24.14 input  -65.29 | X-H torsion
[ 10718 10713 10712 10709 ] final  104.41 input   66.30 | X-H torsion
[ 10763 10752 10751 10750 ] final  -17.65 input  -60.55 | X-H torsion
[ 11005 11000 10999 10996 ] final  119.08 input  -57.11 | X-H torsion

> <Gold.Protein.ActiveResidues>
 VAL166  LYS551  ARG553  GLY616  TRP617  ASP618  TYR619  PRO620  LYS621  CYS622 
 ASP623  PHE694  ASN695  SER759  ASP760  ASP761  ALA762  ILE779  LEU786  VAL792 
 PHE793  MET794  SER795  GLU796  ALA797  LYS798  CYS799  TRP800  GLU811  SER814 

> <Gold.Protein.RotatedAtoms>
  151.1742  133.4765  159.2593 H   0  0  0  0  0  0  0  0  0  0  0  0  # atno 6907 bound_to 6896
  151.1324  135.0137  159.8599 H   0  0  0  0  0  0  0  0  0  0  0  0  # atno 6908 bound_to 6896
  152.5460  134.1644  159.8624 H   0  0  0  0  0  0  0  0  0  0  0  0  # atno 6909 bound_to 6896
  145.9587  140.7501  142.9468 H   0  0  0  0  0  0  0  0  0  0  0  0  # atno 7974 bound_to 7965
  156.2947  140.2285  156.4749 H   0  0  0  0  0  0  0  0  0  0  0  0  # atno 8008 bound_to 7997
  154.7903  140.0454  157.1217 H   0  0  0  0  0  0  0  0  0  0  0  0  # atno 8009 bound_to 7997
  154.9653  140.3059  155.5016 H   0  0  0  0  0  0  0  0  0  0  0  0  # atno 8010 bound_to 7997
  140.7288  143.4380  151.0700 H   0  0  0  0  0  0  0  0  0  0  0  0  # atno 10167 bound_to 10162
  157.6741  131.0803  150.5702 H   0  0  0  0  0  0  0  0  0  0  0  0  # atno 10718 bound_to 10713
  153.5771  135.7006  153.5479 H   0  0  0  0  0  0  0  0  0  0  0  0  # atno 10763 bound_to 10752
  153.3294  135.4051  155.1482 H   0  0  0  0  0  0  0  0  0  0  0  0  # atno 10764 bound_to 10752
  154.8624  135.3715  154.5296 H   0  0  0  0  0  0  0  0  0  0  0  0  # atno 10765 bound_to 10752
  139.9133  134.9625  156.7601 H   0  0  0  0  0  0  0  0  0  0  0  0  # atno 11005 bound_to 11000
  144.6810  140.2555  143.7326 LP  0  0  0  0  0  0  0  0  0  0  0  0  # atno 17320 bound_to 7965
  145.8070  139.1987  143.2015 LP  0  0  0  0  0  0  0  0  0  0  0  0  # atno 17321 bound_to 7965
  139.8044  143.8039  152.3166 LP  0  0  0  0  0  0  0  0  0  0  0  0  # atno 17342 bound_to 10162
  139.8066  144.7352  150.9753 LP  0  0  0  0  0  0  0  0  0  0  0  0  # atno 17343 bound_to 10162
  156.6004  130.4353  149.5899 LP  0  0  0  0  0  0  0  0  0  0  0  0  # atno 17370 bound_to 10713
  156.2511  130.6907  151.1645 LP  0  0  0  0  0  0  0  0  0  0  0  0  # atno 17371 bound_to 10713
  140.6704  133.9564  155.7853 LP  0  0  0  0  0  0  0  0  0  0  0  0  # atno 17394 bound_to 11000
  141.0581  134.0386  157.3695 LP  0  0  0  0  0  0  0  0  0  0  0  0  # atno 17395 bound_to 11000

$$$$
