AV-unprocessed.smi:2907|AV-procd|sdf|11166|dock2
  -GOLD-   2272016 53D 1   1.00000     0.00000
 Structure written by MMmdl.
 45 46  0  0  0  0  0  0  0  0  1 V2000
  147.8225  138.9212  153.7836 C   0  0  0  0  0  0  0  0  0  0  0  0
  148.8134  140.0294  154.1688 C   0  0  0  0  0  0  0  0  0  0  0  0
  150.2344  139.5199  154.4820 C   0  0  0  0  0  0  0  0  0  0  0  0
  150.4243  138.0597  154.0255 C   0  0  0  0  0  0  0  0  0  0  0  0
  151.8429  137.5153  154.2526 C   0  0  0  0  0  0  0  0  0  0  0  0
  150.5135  139.6252  155.9134 N   0  0  0  0  0  0  0  0  0  0  0  0
  151.7268  139.5906  156.4878 C   0  0  0  0  0  0  0  0  0  0  0  0
  152.7824  139.5522  155.8565 O   0  0  0  0  0  0  0  0  0  0  0  0
  151.7502  139.5727  158.0166 C   0  0  0  0  0  0  0  0  0  0  0  0
  153.0941  139.8253  158.5134 N   0  0  0  0  0  0  0  0  0  0  0  0
  154.1069  138.9704  158.2257 N   0  0  0  0  0  0  0  0  0  0  0  0
  155.1838  139.4716  158.7563 N   0  0  0  0  0  0  0  0  0  0  0  0
  154.9172  140.6633  159.4016 N   0  0  0  0  0  0  0  0  0  0  0  0
  153.6103  140.8321  159.2364 C   0  0  0  0  0  0  0  0  0  0  0  0
  152.8235  142.0159  159.7219 C   0  0  0  0  0  0  0  0  0  0  0  0
  152.5753  143.0386  158.5963 C   0  0  0  0  0  0  0  0  0  0  0  0
  151.7452  144.2321  159.0952 C   0  0  0  0  0  0  0  0  0  0  0  0
  152.4031  144.8985  160.3140 C   0  0  0  0  0  0  0  0  0  0  0  0
  152.6423  143.8817  161.4418 C   0  0  0  0  0  0  0  0  0  0  0  0
  153.4740  142.6861  160.9488 C   0  0  0  0  0  0  0  0  0  0  0  0
  146.8233  139.3313  153.6365 H   0  0  0  0  0  0  0  0  0  0  0  0
  147.7590  138.1623  154.5637 H   0  0  0  0  0  0  0  0  0  0  0  0
  148.1133  138.4269  152.8566 H   0  0  0  0  0  0  0  0  0  0  0  0
  148.8540  140.7702  153.3691 H   0  0  0  0  0  0  0  0  0  0  0  0
  148.4218  140.5509  155.0428 H   0  0  0  0  0  0  0  0  0  0  0  0
  150.9413  140.1310  153.9179 H   0  0  0  0  0  0  0  0  0  0  0  0
  149.7086  137.4164  154.5392 H   0  0  0  0  0  0  0  0  0  0  0  0
  150.1906  137.9834  152.9631 H   0  0  0  0  0  0  0  0  0  0  0  0
  151.9325  136.4992  153.8683 H   0  0  0  0  0  0  0  0  0  0  0  0
  152.1002  137.4876  155.3120 H   0  0  0  0  0  0  0  0  0  0  0  0
  152.5852  138.1294  153.7422 H   0  0  0  0  0  0  0  0  0  0  0  0
  149.7099  139.6638  156.5242 H   0  0  0  0  0  0  0  0  0  0  0  0
  151.0722  140.3255  158.4202 H   0  0  0  0  0  0  0  0  0  0  0  0
  151.4018  138.6039  158.3783 H   0  0  0  0  0  0  0  0  0  0  0  0
  151.8477  141.6564  160.0480 H   0  0  0  0  0  0  0  0  0  0  0  0
  153.5275  143.3961  158.2019 H   0  0  0  0  0  0  0  0  0  0  0  0
  152.0561  142.5591  157.7662 H   0  0  0  0  0  0  0  0  0  0  0  0
  151.6226  144.9602  158.2929 H   0  0  0  0  0  0  0  0  0  0  0  0
  150.7431  143.8930  159.3605 H   0  0  0  0  0  0  0  0  0  0  0  0
  153.3523  145.3463  160.0174 H   0  0  0  0  0  0  0  0  0  0  0  0
  151.7759  145.7137  160.6754 H   0  0  0  0  0  0  0  0  0  0  0  0
  153.1479  144.3661  162.2777 H   0  0  0  0  0  0  0  0  0  0  0  0
  151.6838  143.5276  161.8235 H   0  0  0  0  0  0  0  0  0  0  0  0
  153.5859  141.9602  161.7551 H   0  0  0  0  0  0  0  0  0  0  0  0
  154.4793  143.0270  160.6975 H   0  0  0  0  0  0  0  0  0  0  0  0
  1  2  1  0  0  0  0
  1 21  1  0  0  0  0
  1 22  1  0  0  0  0
  1 23  1  0  0  0  0
  2  3  1  0  0  0  0
  2 24  1  0  0  0  0
  2 25  1  0  0  0  0
  3  4  1  0  0  0  0
  3  6  1  0  0  0  0
  3 26  1  0  0  0  0
  4  5  1  0  0  0  0
  4 27  1  0  0  0  0
  4 28  1  0  0  0  0
  5 29  1  0  0  0  0
  5 30  1  0  0  0  0
  5 31  1  0  0  0  0
  6  7  1  0  0  0  0
  6 32  1  0  0  0  0
  7  8  2  0  0  0  0
  7  9  1  0  0  0  0
  9 10  1  0  0  0  0
  9 33  1  0  0  0  0
  9 34  1  0  0  0  0
 10 14  1  0  0  0  0
 10 11  1  0  0  0  0
 11 12  2  0  0  0  0
 12 13  1  0  0  0  0
 13 14  2  0  0  0  0
 14 15  1  0  0  0  0
 15 20  1  0  0  0  0
 15 16  1  0  0  0  0
 15 35  1  0  0  0  0
 16 17  1  0  0  0  0
 16 36  1  0  0  0  0
 16 37  1  0  0  0  0
 17 18  1  0  0  0  0
 17 38  1  0  0  0  0
 17 39  1  0  0  0  0
 18 19  1  0  0  0  0
 18 40  1  0  0  0  0
 18 41  1  0  0  0  0
 19 20  1  0  0  0  0
 19 42  1  0  0  0  0
 19 43  1  0  0  0  0
 20 44  1  0  0  0  0
 20 45  1  0  0  0  0
M  END
> <s_m_source_file>
AV-unprocessed.smi

> <i_m_source_file_index>
2907

> <i_lp_mmshare_version>
43012

> <i_f3d_flags>
0

> <s_epik_input>
W0NIM11bQ0gyXVtDSF0oW0NIMl1bQ0gzXSlbTkhdQyg9TylbQ0gyXW4xbm5uYzFbQ0hdMltDSDJdW0NIMl1bQ0gyXVtDSDJdW0NIMl0y

> <s_epik_cmdline>
J2VwaWtfcHl0aG9uJywgJy1waCcsICc3LjAnLCAnLXRuJywgJzgnLCAnLW1hJywgJzIwMCcsICctbWV0YWxfYmluZGluZycsICctaW1hZScsICc8aW5maWxlLm1hZT4nLCAnLW9tYWUnLCAnPG91dGZpbGUubWFlPic=

> <r_lp_tautomer_probability>
1

> <r_epik_Ionization_Penalty>
4.92512e-07

> <r_epik_Ionization_Penalty_Charging>
0

> <r_epik_Ionization_Penalty_Neutral>
4.92512e-07

> <r_epik_State_Penalty>
-0

> <r_epik_Charging_Adjusted_Penalty>
0

> <i_epik_Tot_Q>
0

> <i_epik_Tot_abs_Q>
0

> <r_epik_Metal_State_Penalty>
-0

> <b_epik_Metal_Only>
0

> <s_lp_Force_Field>
OPLS_2005

> <r_lp_Energy>
10.8377

> <b_lp_Chiralities_Consistent>
1

> <s_lp_Variant>
AV-unprocessed.smi:2907-1

> <Gold.Version>
5.8.1

> <Gold.Id.Protein>
6NUR|6NUR_protein|mol2

> <Gold.PLP.Fitness>
47.1441

> <Gold.PLP.PLP>
-45.8206

> <Gold.PLP.part.hbond>
-3.0529

> <Gold.PLP.part.metal>
0.0000

> <Gold.PLP.part.buried>
-3.5570

> <Gold.PLP.part.nonpolar>
-39.5456

> <Gold.PLP.part.repulsive>
0.0557

> <Gold.PLP.ligand.clash>
0.0000

> <Gold.PLP.ligand.torsion>
1.6558

> <Gold.PLP.Chemscore.Hbond>
1.4992

> <Gold.PLP.Chemscore.CHOScore>
0.0000

> <Gold.PLP.Chemscore.Metal>
0.0000

> <Gold.Chemscore.Hbonds>
donor molecule, donor type, donor heavy atom, donor atom, acceptor molecule, acceptor atom, score
      P1  H  7997  8008       L1    12  0.33
      P1  H  7997  8009       L1     8  1.00

> <Gold.PLP.Chemscore.Internal.Correction>
0.1374

> <Gold.Rescore>
     Score         DG    S(hbond)    S(metal)    S(lipo)     H(rot)  DE(clash)    DE(int)     intcor
     14.48     -17.35       1.03        0.00     111.37       1.79       0.12       2.76       ----

> <Gold.Chemscore.Fitness>
14.4791

> <Gold.Chemscore.DG>
-17.3550

> <Gold.Chemscore.ZeroCoef>
-5.4800

> <Gold.Chemscore.Hbond>
1.0295

> <Gold.Chemscore.Metal>
0.0000

> <Gold.Chemscore.Lipo>
111.3692

> <Gold.Chemscore.Internal_Hbond>
0.0000

> <Gold.Chemscore.DEClash>
0.1161

> <Gold.Chemscore.DEInternal>
2.7598

> <Gold.Chemscore.Rot>
1.7944

> <Gold.Chemscore.Internal.Correction>
   9.000000E+99

> <Gold.Chemscore.Hbonds>
donor molecule, donor type, donor heavy atom, donor atom, acceptor molecule, acceptor atom, score
      P1  H  7997  8009       L1     8  1.00

> <Gold.Chemscore.Hbond.Weighted>
-3.4385

> <Gold.Chemscore.Metal.Weighted>
-0.0000

> <Gold.Chemscore.Lipo.Weighted>
-13.0302

> <Gold.Chemscore.Internal_Hbond.Weighted>
0.0000

> <Gold.Chemscore.DEClash.Weighted>
0.1161

> <Gold.Chemscore.DEInternal.Weighted>
2.7598

> <Gold.Chemscore.Rot.Weighted>
4.5938

> <Gold.Chemscore.Internal.Correction.Weighted>
   9.000000E+99

> <Gold.Protein.RotatedTorsions>
[ 6907 6896 6895 6894 ] final  106.71 input  -60.11 | X-H torsion
[ 7974 7965 7964 7962 ] final -157.81 input  175.53 | X-H torsion
[ 8008 7997 7996 7995 ] final -144.94 input   59.86 | X-H torsion
[ 10167 10162 10161 10158 ] final  170.94 input  -65.29 | X-H torsion
[ 10718 10713 10712 10709 ] final  -59.95 input   66.30 | X-H torsion
[ 10763 10752 10751 10750 ] final  123.36 input  -60.55 | X-H torsion
[ 11005 11000 10999 10996 ] final -112.94 input  -57.11 | X-H torsion

> <Gold.Protein.ActiveResidues>
 VAL166  LYS551  ARG553  GLY616  TRP617  ASP618  TYR619  PRO620  LYS621  CYS622 
 ASP623  PHE694  ASN695  SER759  ASP760  ASP761  ALA762  ILE779  LEU786  VAL792 
 PHE793  MET794  SER795  GLU796  ALA797  LYS798  CYS799  TRP800  GLU811  SER814 

> <Gold.Protein.RotatedAtoms>
  152.5183  133.9341  159.7594 H   0  0  0  0  0  0  0  0  0  0  0  0  # atno 6907 bound_to 6896
  150.9685  133.6360  159.2749 H   0  0  0  0  0  0  0  0  0  0  0  0  # atno 6908 bound_to 6896
  151.3580  135.0904  159.9478 H   0  0  0  0  0  0  0  0  0  0  0  0  # atno 6909 bound_to 6896
  144.7532  140.3917  143.6032 H   0  0  0  0  0  0  0  0  0  0  0  0  # atno 7974 bound_to 7965
  155.5351  140.0603  157.2881 H   0  0  0  0  0  0  0  0  0  0  0  0  # atno 8008 bound_to 7997
  154.4471  140.1929  156.0578 H   0  0  0  0  0  0  0  0  0  0  0  0  # atno 8009 bound_to 7997
  156.0624  140.3270  155.7482 H   0  0  0  0  0  0  0  0  0  0  0  0  # atno 8010 bound_to 7997
  139.5032  144.3541  151.9892 H   0  0  0  0  0  0  0  0  0  0  0  0  # atno 10167 bound_to 10162
  156.1025  130.4184  150.0786 H   0  0  0  0  0  0  0  0  0  0  0  0  # atno 10718 bound_to 10713
  153.6443  135.3374  155.3081 H   0  0  0  0  0  0  0  0  0  0  0  0  # atno 10763 bound_to 10752
  154.8552  135.4325  154.1972 H   0  0  0  0  0  0  0  0  0  0  0  0  # atno 10764 bound_to 10752
  153.2898  135.7016  153.7378 H   0  0  0  0  0  0  0  0  0  0  0  0  # atno 10765 bound_to 10752
  141.0645  133.9482  157.2605 H   0  0  0  0  0  0  0  0  0  0  0  0  # atno 11005 bound_to 11000
  145.6869  139.1630  143.2669 LP  0  0  0  0  0  0  0  0  0  0  0  0  # atno 17320 bound_to 7965
  146.1510  140.6925  142.9322 LP  0  0  0  0  0  0  0  0  0  0  0  0  # atno 17321 bound_to 7965
  140.2978  144.3681  150.6069 LP  0  0  0  0  0  0  0  0  0  0  0  0  # atno 17342 bound_to 10162
  140.5897  143.2168  151.7276 LP  0  0  0  0  0  0  0  0  0  0  0  0  # atno 17343 bound_to 10162
  156.8770  130.9543  151.3603 LP  0  0  0  0  0  0  0  0  0  0  0  0  # atno 17370 bound_to 10713
  157.6197  130.8646  149.9088 LP  0  0  0  0  0  0  0  0  0  0  0  0  # atno 17371 bound_to 10713
  139.9463  135.0183  156.8862 LP  0  0  0  0  0  0  0  0  0  0  0  0  # atno 17394 bound_to 11000
  140.5802  134.0359  155.7461 LP  0  0  0  0  0  0  0  0  0  0  0  0  # atno 17395 bound_to 11000

$$$$
