AV-unprocessed.smi:3288|AV-procd|sdf|12606|dock4
  -GOLD-   2272018533D 1   1.00000     0.00000
 Structure written by MMmdl.
 38 39  0  0  0  0  0  0  0  0  1 V2000
  150.8593  135.2357  155.7466 C   0  0  0  0  0  0  0  0  0  0  0  0
  151.8627  136.2305  155.6196 O   0  0  0  0  0  0  0  0  0  0  0  0
  151.5856  137.2069  154.6254 C   0  0  0  0  0  0  0  0  0  0  0  0
  152.5077  138.4289  154.7460 C   0  0  0  0  0  0  0  0  0  0  0  0
  152.0803  139.2062  155.8602 O   0  0  0  0  0  0  0  0  0  0  0  0
  150.9696  140.0168  155.7205 C   0  0  0  0  0  0  0  0  0  0  0  0
  150.3335  140.0389  154.5221 N   0  0  0  0  0  0  0  0  0  0  0  0
  149.2504  140.8304  154.3839 C   0  0  0  0  0  0  0  0  0  0  0  0
  148.7473  141.6348  155.4224 C   0  0  0  0  0  0  0  0  0  0  0  0
  149.4052  141.6113  156.6657 C   0  0  0  0  0  0  0  0  0  0  0  0
  150.5438  140.7869  156.8294 C   0  0  0  0  0  0  0  0  0  0  0  0
  151.2595  140.6938  158.0344 N   0  0  0  0  0  0  0  0  0  0  0  0
  152.2540  141.6787  158.4417 C   0  0  0  0  0  0  0  0  0  0  0  0
  152.7389  141.4449  159.8834 C   0  0  0  0  0  0  0  0  0  0  0  0
  153.7056  142.5609  160.3129 C   0  0  0  0  0  0  0  0  0  0  0  0
  153.0742  143.8306  160.1833 O   0  0  0  0  0  0  0  0  0  0  0  0
  152.6994  144.1320  158.8431 C   0  0  0  0  0  0  0  0  0  0  0  0
  151.6791  143.0986  158.3387 C   0  0  0  0  0  0  0  0  0  0  0  0
  151.1183  134.5631  156.5641 H   0  0  0  0  0  0  0  0  0  0  0  0
  150.7667  134.6349  154.8419 H   0  0  0  0  0  0  0  0  0  0  0  0
  149.8891  135.6793  155.9744 H   0  0  0  0  0  0  0  0  0  0  0  0
  151.6316  136.7743  153.6249 H   0  0  0  0  0  0  0  0  0  0  0  0
  150.5549  137.5298  154.7749 H   0  0  0  0  0  0  0  0  0  0  0  0
  153.5358  138.0952  154.8952 H   0  0  0  0  0  0  0  0  0  0  0  0
  152.4722  139.0266  153.8346 H   0  0  0  0  0  0  0  0  0  0  0  0
  148.7700  140.8223  153.4167 H   0  0  0  0  0  0  0  0  0  0  0  0
  147.8764  142.2545  155.2691 H   0  0  0  0  0  0  0  0  0  0  0  0
  149.0251  142.2247  157.4680 H   0  0  0  0  0  0  0  0  0  0  0  0
  151.1333  139.8758  158.6137 H   0  0  0  0  0  0  0  0  0  0  0  0
  153.1041  141.6222  157.7616 H   0  0  0  0  0  0  0  0  0  0  0  0
  151.8865  141.4256  160.5639 H   0  0  0  0  0  0  0  0  0  0  0  0
  153.2314  140.4770  159.9764 H   0  0  0  0  0  0  0  0  0  0  0  0
  154.0007  142.4202  161.3528 H   0  0  0  0  0  0  0  0  0  0  0  0
  154.6190  142.5347  159.7167 H   0  0  0  0  0  0  0  0  0  0  0  0
  152.2644  145.1312  158.8156 H   0  0  0  0  0  0  0  0  0  0  0  0
  153.5824  144.1516  158.2026 H   0  0  0  0  0  0  0  0  0  0  0  0
  151.4054  143.3209  157.3067 H   0  0  0  0  0  0  0  0  0  0  0  0
  150.7651  143.1767  158.9295 H   0  0  0  0  0  0  0  0  0  0  0  0
  1  2  1  0  0  0  0
  1 19  1  0  0  0  0
  1 20  1  0  0  0  0
  1 21  1  0  0  0  0
  2  3  1  0  0  0  0
  3  4  1  0  0  0  0
  3 22  1  0  0  0  0
  3 23  1  0  0  0  0
  4  5  1  0  0  0  0
  4 24  1  0  0  0  0
  4 25  1  0  0  0  0
  5  6  1  0  0  0  0
  6 11  1  0  0  0  0
  6  7  2  0  0  0  0
  7  8  1  0  0  0  0
  8  9  2  0  0  0  0
  8 26  1  0  0  0  0
  9 10  1  0  0  0  0
  9 27  1  0  0  0  0
 10 11  2  0  0  0  0
 10 28  1  0  0  0  0
 11 12  1  0  0  0  0
 12 13  1  0  0  0  0
 12 29  1  0  0  0  0
 13 18  1  0  0  0  0
 13 14  1  0  0  0  0
 13 30  1  0  0  0  0
 14 15  1  0  0  0  0
 14 31  1  0  0  0  0
 14 32  1  0  0  0  0
 15 16  1  0  0  0  0
 15 33  1  0  0  0  0
 15 34  1  0  0  0  0
 16 17  1  0  0  0  0
 17 18  1  0  0  0  0
 17 35  1  0  0  0  0
 17 36  1  0  0  0  0
 18 37  1  0  0  0  0
 18 38  1  0  0  0  0
M  END
> <s_m_source_file>
AV-unprocessed.smi

> <i_m_source_file_index>
3288

> <i_lp_mmshare_version>
43012

> <i_f3d_flags>
0

> <s_epik_input>
W0NIM11PW0NIMl1bQ0gyXU9jMW5bY0hdW2NIXVtjSF1jMVtOSF1bQ0hdMltDSDJdW0NIMl1PW0NIMl1bQ0gyXTI=

> <s_epik_cmdline>
J2VwaWtfcHl0aG9uJywgJy1waCcsICc3LjAnLCAnLXRuJywgJzgnLCAnLW1hJywgJzIwMCcsICctbWV0YWxfYmluZGluZycsICctaW1hZScsICc8aW5maWxlLm1hZT4nLCAnLW9tYWUnLCAnPG91dGZpbGUubWFlPic=

> <r_lp_tautomer_probability>
1

> <r_epik_Ionization_Penalty>
0.000236303

> <r_epik_Ionization_Penalty_Charging>
0

> <r_epik_Ionization_Penalty_Neutral>
0.000236303

> <r_epik_State_Penalty>
-0

> <r_epik_Charging_Adjusted_Penalty>
0

> <i_epik_Tot_Q>
0

> <i_epik_Tot_abs_Q>
0

> <r_epik_Metal_State_Penalty>
-0

> <b_epik_Metal_Only>
0

> <s_lp_Force_Field>
OPLS_2005

> <r_lp_Energy>
13.3054

> <b_lp_Chiralities_Consistent>
1

> <s_lp_Variant>
AV-unprocessed.smi:3288-1

> <Gold.Version>
5.8.1

> <Gold.Id.Protein>
6NUR|6NUR_protein|mol2

> <Gold.PLP.Fitness>
42.8261

> <Gold.PLP.PLP>
-35.7383

> <Gold.PLP.part.hbond>
-2.0000

> <Gold.PLP.part.metal>
0.0000

> <Gold.PLP.part.buried>
-1.0406

> <Gold.PLP.part.nonpolar>
-32.6575

> <Gold.PLP.part.repulsive>
0.2995

> <Gold.PLP.ligand.clash>
0.0000

> <Gold.PLP.ligand.torsion>
0.9792

> <Gold.PLP.Chemscore.Hbond>
2.0000

> <Gold.PLP.Chemscore.CHOScore>
1.0000

> <Gold.PLP.Chemscore.Metal>
0.0000

> <Gold.Chemscore.Hbonds>
donor molecule, donor type, donor heavy atom, donor atom, acceptor molecule, acceptor atom, score
      P1  H  7989  7998       L1     7  1.00
      P1  H 10752 10763       L1     2  1.00
      L1  C     8    26       P1  7957  1.00

> <Gold.PLP.Chemscore.Internal.Correction>
0.0461

> <Gold.Rescore>
     Score         DG    S(hbond)    S(metal)    S(lipo)     H(rot)  DE(clash)    DE(int)     intcor
     13.82     -14.93       0.83        0.00      93.96       1.68       0.00       1.11       ----

> <Gold.Chemscore.Fitness>
13.8240

> <Gold.Chemscore.DG>
-14.9341

> <Gold.Chemscore.ZeroCoef>
-5.4800

> <Gold.Chemscore.Hbond>
0.8287

> <Gold.Chemscore.Metal>
0.0000

> <Gold.Chemscore.Lipo>
93.9616

> <Gold.Chemscore.Internal_Hbond>
0.0000

> <Gold.Chemscore.DEClash>
0.0048

> <Gold.Chemscore.DEInternal>
1.1052

> <Gold.Chemscore.Rot>
1.6826

> <Gold.Chemscore.Internal.Correction>
   9.000000E+99

> <Gold.Chemscore.Hbonds>
donor molecule, donor type, donor heavy atom, donor atom, acceptor molecule, acceptor atom, score
      P1  H  7989  7998       L1     7  0.11
      P1  H 10752 10763       L1     2  0.24

> <Gold.Chemscore.Hbond.Weighted>
-2.7680

> <Gold.Chemscore.Metal.Weighted>
-0.0000

> <Gold.Chemscore.Lipo.Weighted>
-10.9935

> <Gold.Chemscore.Internal_Hbond.Weighted>
0.0000

> <Gold.Chemscore.DEClash.Weighted>
0.0048

> <Gold.Chemscore.DEInternal.Weighted>
1.1052

> <Gold.Chemscore.Rot.Weighted>
4.3074

> <Gold.Chemscore.Internal.Correction.Weighted>
   9.000000E+99

> <Gold.Protein.RotatedTorsions>
[ 6907 6896 6895 6894 ] final  125.13 input  -60.11 | X-H torsion
[ 7974 7965 7964 7962 ] final  120.96 input  175.53 | X-H torsion
[ 8008 7997 7996 7995 ] final -157.25 input   59.86 | X-H torsion
[ 10167 10162 10161 10158 ] final  -75.41 input  -65.29 | X-H torsion
[ 10718 10713 10712 10709 ] final  101.79 input   66.30 | X-H torsion
[ 10763 10752 10751 10750 ] final   91.46 input  -60.55 | X-H torsion
[ 11005 11000 10999 10996 ] final -179.70 input  -57.11 | X-H torsion

> <Gold.Protein.ActiveResidues>
 VAL166  LYS551  ARG553  GLY616  TRP617  ASP618  TYR619  PRO620  LYS621  CYS622 
 ASP623  PHE694  ASN695  SER759  ASP760  ASP761  ALA762  ILE779  LEU786  VAL792 
 PHE793  MET794  SER795  GLU796  ALA797  LYS798  CYS799  TRP800  GLU811  SER814 

> <Gold.Protein.RotatedAtoms>
  152.4019  133.6830  159.6323 H   0  0  0  0  0  0  0  0  0  0  0  0  # atno 6907 bound_to 6896
  150.7909  133.8776  159.3285 H   0  0  0  0  0  0  0  0  0  0  0  0  # atno 6908 bound_to 6896
  151.6540  135.0999  160.0218 H   0  0  0  0  0  0  0  0  0  0  0  0  # atno 6909 bound_to 6896
  145.1249  139.3364  143.4695 H   0  0  0  0  0  0  0  0  0  0  0  0  # atno 7974 bound_to 7965
  155.7296  140.0800  157.2295 H   0  0  0  0  0  0  0  0  0  0  0  0  # atno 8008 bound_to 7997
  154.4034  140.1598  156.2548 H   0  0  0  0  0  0  0  0  0  0  0  0  # atno 8009 bound_to 7997
  155.9121  140.3403  155.6109 H   0  0  0  0  0  0  0  0  0  0  0  0  # atno 8010 bound_to 7997
  140.4944  143.2373  151.7854 H   0  0  0  0  0  0  0  0  0  0  0  0  # atno 10167 bound_to 10162
  157.6820  131.0735  150.5305 H   0  0  0  0  0  0  0  0  0  0  0  0  # atno 10718 bound_to 10713
  153.2085  135.4396  155.0352 H   0  0  0  0  0  0  0  0  0  0  0  0  # atno 10763 bound_to 10752
  154.8187  135.3327  154.7104 H   0  0  0  0  0  0  0  0  0  0  0  0  # atno 10764 bound_to 10752
  153.7543  135.6996  153.4994 H   0  0  0  0  0  0  0  0  0  0  0  0  # atno 10765 bound_to 10752
  140.4157  134.6651  157.4638 H   0  0  0  0  0  0  0  0  0  0  0  0  # atno 11005 bound_to 11000
  146.3518  140.1224  142.8600 LP  0  0  0  0  0  0  0  0  0  0  0  0  # atno 17320 bound_to 7965
  145.0699  140.9148  143.4888 LP  0  0  0  0  0  0  0  0  0  0  0  0  # atno 17321 bound_to 7965
  139.4858  144.4606  151.9546 LP  0  0  0  0  0  0  0  0  0  0  0  0  # atno 17342 bound_to 10162
  140.3693  144.2875  150.5922 LP  0  0  0  0  0  0  0  0  0  0  0  0  # atno 17343 bound_to 10162
  156.5615  130.4257  149.6060 LP  0  0  0  0  0  0  0  0  0  0  0  0  # atno 17370 bound_to 10713
  156.2817  130.7074  151.1900 LP  0  0  0  0  0  0  0  0  0  0  0  0  # atno 17371 bound_to 10713
  140.0235  134.6511  155.9205 LP  0  0  0  0  0  0  0  0  0  0  0  0  # atno 17394 bound_to 11000
  141.1804  133.6545  156.4995 LP  0  0  0  0  0  0  0  0  0  0  0  0  # atno 17395 bound_to 11000

$$$$
