AV-unprocessed.smi:1603|AV-procd|sdf|6444|dock4
  -GOLD-   22720 7 93D 1   1.00000     0.00000
 Structure written by MMmdl.
 45 47  0  0  0  0  0  0  0  0  2 V2000
  153.8864  139.1615  158.6488 O   0  0  0  0  0  0  0  0  0  0  0  0
  153.3516  140.2177  158.9871 C   0  0  0  0  0  0  0  0  0  0  0  0
  153.6208  140.8918  160.2663 C   0  0  0  0  0  0  0  0  0  0  0  0
  154.5926  140.2250  161.2363 C   0  0  0  0  0  0  0  0  0  0  0  0
  154.6283  140.8561  162.4108 F   0  0  0  0  0  0  0  0  0  0  0  0
  154.2372  138.9602  161.4644 F   0  0  0  0  0  0  0  0  0  0  0  0
  155.8274  140.2268  160.7335 F   0  0  0  0  0  0  0  0  0  0  0  0
  153.0079  142.0650  160.5579 C   0  0  0  0  0  0  0  0  0  0  0  0
  152.0863  142.6640  159.6136 C   0  0  0  0  0  0  0  0  0  0  0  0
  151.3786  143.9635  159.8701 C   0  0  0  0  0  0  0  0  0  0  0  0
  151.4901  145.1410  158.9287 C   0  0  0  0  0  0  0  0  0  0  0  0
  152.1261  145.2047  160.2981 C   0  0  0  0  0  0  0  0  0  0  0  0
  151.8489  142.0683  158.4935 N   0  0  0  0  0  0  0  0  0  0  0  0
  152.4573  140.8672  158.1854 N   0  0  0  0  0  0  0  0  0  0  0  0
  152.0810  140.3278  156.8726 C   0  0  0  0  0  0  0  0  0  0  0  0
  150.5652  140.4651  156.6078 C   0  0  1  0  0  0  0  0  0  0  0  0
  149.8665  140.0737  157.7741 O   0  0  0  0  0  0  0  0  0  0  0  0
  150.1703  141.9271  156.3134 C   0  0  0  0  0  0  0  0  0  0  0  0
  148.8390  142.0432  155.6648 N   0  3  0  0  0  0  0  0  0  0  0  0
  148.7276  141.2066  154.4460 C   0  0  0  0  0  0  0  0  0  0  0  0
  147.3576  141.4091  153.7769 C   0  0  0  0  0  0  0  0  0  0  0  0
  146.3242  141.1073  154.7061 O   0  0  0  0  0  0  0  0  0  0  0  0
  146.3648  141.9618  155.8422 C   0  0  0  0  0  0  0  0  0  0  0  0
  147.7016  141.7772  156.5804 C   0  0  0  0  0  0  0  0  0  0  0  0
  153.1927  142.5746  161.4916 H   0  0  0  0  0  0  0  0  0  0  0  0
  150.4053  143.7887  160.3249 H   0  0  0  0  0  0  0  0  0  0  0  0
  152.1592  145.0589  158.0740 H   0  0  0  0  0  0  0  0  0  0  0  0
  150.5948  145.7364  158.7631 H   0  0  0  0  0  0  0  0  0  0  0  0
  151.6540  145.8422  161.0428 H   0  0  0  0  0  0  0  0  0  0  0  0
  153.2124  145.1558  160.3477 H   0  0  0  0  0  0  0  0  0  0  0  0
  152.6684  140.7709  156.0657 H   0  0  0  0  0  0  0  0  0  0  0  0
  152.3541  139.2708  156.8589 H   0  0  0  0  0  0  0  0  0  0  0  0
  150.2776  139.8193  155.7784 H   0  0  0  0  0  0  0  0  0  0  0  0
  149.5973  139.1719  157.6761 H   0  0  0  0  0  0  0  0  0  0  0  0
  150.1693  142.4815  157.2537 H   0  0  0  0  0  0  0  0  0  0  0  0
  150.9168  142.4074  155.6788 H   0  0  0  0  0  0  0  0  0  0  0  0
  149.5192  141.4676  153.7427 H   0  0  0  0  0  0  0  0  0  0  0  0
  148.8643  140.1563  154.7085 H   0  0  0  0  0  0  0  0  0  0  0  0
  147.2485  142.4318  153.4119 H   0  0  0  0  0  0  0  0  0  0  0  0
  147.2601  140.7507  152.9136 H   0  0  0  0  0  0  0  0  0  0  0  0
  146.2281  143.0006  155.5371 H   0  0  0  0  0  0  0  0  0  0  0  0
  145.5338  141.7121  156.5019 H   0  0  0  0  0  0  0  0  0  0  0  0
  147.7732  140.7600  156.9687 H   0  0  0  0  0  0  0  0  0  0  0  0
  147.7322  142.4487  157.4374 H   0  0  0  0  0  0  0  0  0  0  0  0
  148.7569  143.0025  155.3575 H   0  0  0  0  0  0  0  0  0  0  0  0
  1  2  2  0  0  0  0
  2 14  1  0  0  0  0
  2  3  1  0  0  0  0
  3  4  1  0  0  0  0
  3  8  2  0  0  0  0
  4  5  1  0  0  0  0
  4  6  1  0  0  0  0
  4  7  1  0  0  0  0
  8  9  1  0  0  0  0
  8 25  1  0  0  0  0
  9 10  1  0  0  0  0
  9 13  2  0  0  0  0
 10 12  1  0  0  0  0
 10 11  1  0  0  0  0
 10 26  1  0  0  0  0
 11 12  1  0  0  0  0
 11 27  1  0  0  0  0
 11 28  1  0  0  0  0
 12 29  1  0  0  0  0
 12 30  1  0  0  0  0
 13 14  1  0  0  0  0
 14 15  1  0  0  0  0
 15 16  1  0  0  0  0
 15 31  1  0  0  0  0
 15 32  1  0  0  0  0
 16 17  1  0  0  0  0
 16 18  1  0  0  0  0
 16 33  1  0  0  0  0
 17 34  1  0  0  0  0
 18 19  1  0  0  0  0
 18 35  1  0  0  0  0
 18 36  1  0  0  0  0
 19 24  1  0  0  0  0
 19 20  1  0  0  0  0
 19 45  1  0  0  0  0
 20 21  1  0  0  0  0
 20 37  1  0  0  0  0
 20 38  1  0  0  0  0
 21 22  1  0  0  0  0
 21 39  1  0  0  0  0
 21 40  1  0  0  0  0
 22 23  1  0  0  0  0
 23 24  1  0  0  0  0
 23 41  1  0  0  0  0
 23 42  1  0  0  0  0
 24 43  1  0  0  0  0
 24 44  1  0  0  0  0
M  CHG  1  19   1
M  END
> <s_m_source_file>
AV-unprocessed.smi

> <i_m_source_file_index>
1603

> <i_lp_mmshare_version>
43012

> <i_f3d_flags>
0

> <s_epik_input>
Tz1jMWMoQyhGKShGKUYpW2NIXWMoW0NIXTJbQ0gyXVtDSDJdMilubjFbQ0gyXVtDQEhdKFtPSF0pW0NIMl1OM1tDSDJdW0NIMl1PW0NIMl1bQ0gyXTM=

> <s_epik_cmdline>
J2VwaWtfcHl0aG9uJywgJy1waCcsICc3LjAnLCAnLXRuJywgJzgnLCAnLW1hJywgJzIwMCcsICctbWV0YWxfYmluZGluZycsICctaW1hZScsICc8aW5maWxlLm1hZT4nLCAnLW9tYWUnLCAnPG91dGZpbGUubWFlPic=

> <r_lp_tautomer_probability>
1

> <r_epik_Ionization_Penalty>
0.373533

> <r_epik_Ionization_Penalty_Charging>
0.373533

> <r_epik_Ionization_Penalty_Neutral>
6.58334e-07

> <r_epik_State_Penalty>
0.37113

> <r_epik_Charging_Adjusted_Penalty>
0.744662

> <i_epik_Tot_Q>
1

> <i_epik_Tot_abs_Q>
1

> <r_epik_Metal_State_Penalty>
0.37113

> <b_epik_Metal_Only>
0

> <s_lp_Force_Field>
OPLS_2005

> <r_lp_Energy>
42.0637

> <b_lp_Chiralities_Consistent>
1

> <s_lp_Variant>
AV-unprocessed.smi:1603-2

> <Gold.Version>
5.8.1

> <Gold.Id.Protein>
6NUR|6NUR_protein|mol2

> <Gold.PLP.Fitness>
52.7157

> <Gold.PLP.PLP>
-46.0751

> <Gold.PLP.part.hbond>
-2.0000

> <Gold.PLP.part.metal>
0.0000

> <Gold.PLP.part.buried>
-2.6579

> <Gold.PLP.part.nonpolar>
-40.0895

> <Gold.PLP.part.repulsive>
0.2506

> <Gold.PLP.ligand.clash>
0.2786

> <Gold.PLP.ligand.torsion>
0.7805

> <Gold.PLP.Chemscore.Hbond>
2.6000

> <Gold.PLP.Chemscore.CHOScore>
0.0000

> <Gold.PLP.Chemscore.Metal>
0.0000

> <Gold.Chemscore.Hbonds>
donor molecule, donor type, donor heavy atom, donor atom, acceptor molecule, acceptor atom, score
      L1  H    19    45       P1  8028  2.00
      P1  H  7997  8009       L1     1  0.55

> <Gold.PLP.Chemscore.Internal.Correction>
0.6801

> <Gold.Rescore>
     Score         DG    S(hbond)    S(metal)    S(lipo)     H(rot)  DE(clash)    DE(int)     intcor
     11.09     -16.28       1.18        0.00     113.69       2.52       0.38       4.82       ----

> <Gold.Chemscore.Fitness>
11.0863

> <Gold.Chemscore.DG>
-16.2839

> <Gold.Chemscore.ZeroCoef>
-5.4800

> <Gold.Chemscore.Hbond>
1.1807

> <Gold.Chemscore.Metal>
0.0000

> <Gold.Chemscore.Lipo>
113.6874

> <Gold.Chemscore.Internal_Hbond>
0.0000

> <Gold.Chemscore.DEClash>
0.3808

> <Gold.Chemscore.DEInternal>
4.8168

> <Gold.Chemscore.Rot>
2.5160

> <Gold.Chemscore.Internal.Correction>
   9.000000E+99

> <Gold.Chemscore.Hbonds>
donor molecule, donor type, donor heavy atom, donor atom, acceptor molecule, acceptor atom, score
      L1  H    19    45       P1  8028  0.96
      P1  H  7997  8009       L1     1  0.03

> <Gold.Chemscore.Hbond.Weighted>
-3.9435

> <Gold.Chemscore.Metal.Weighted>
-0.0000

> <Gold.Chemscore.Lipo.Weighted>
-13.3014

> <Gold.Chemscore.Internal_Hbond.Weighted>
0.0000

> <Gold.Chemscore.DEClash.Weighted>
0.3808

> <Gold.Chemscore.DEInternal.Weighted>
4.8168

> <Gold.Chemscore.Rot.Weighted>
6.4411

> <Gold.Chemscore.Internal.Correction.Weighted>
   9.000000E+99

> <Gold.Protein.RotatedTorsions>
[ 6907 6896 6895 6894 ] final   72.03 input  -60.11 | X-H torsion
[ 7974 7965 7964 7962 ] final   81.39 input  175.53 | X-H torsion
[ 8008 7997 7996 7995 ] final  148.18 input   59.86 | X-H torsion
[ 10167 10162 10161 10158 ] final   48.67 input  -65.29 | X-H torsion
[ 10718 10713 10712 10709 ] final   82.42 input   66.30 | X-H torsion
[ 10763 10752 10751 10750 ] final -161.55 input  -60.55 | X-H torsion
[ 11005 11000 10999 10996 ] final  172.58 input  -57.11 | X-H torsion

> <Gold.Protein.ActiveResidues>
 VAL166  LYS551  ARG553  GLY616  TRP617  ASP618  TYR619  PRO620  LYS621  CYS622 
 ASP623  PHE694  ASN695  SER759  ASP760  ASP761  ALA762  ILE779  LEU786  VAL792 
 PHE793  MET794  SER795  GLU796  ALA797  LYS798  CYS799  TRP800  GLU811  SER814 

> <Gold.Protein.RotatedAtoms>
  152.4844  134.4632  159.9611 H   0  0  0  0  0  0  0  0  0  0  0  0  # atno 6907 bound_to 6896
  151.4631  133.3582  159.2820 H   0  0  0  0  0  0  0  0  0  0  0  0  # atno 6908 bound_to 6896
  150.8943  134.8375  159.7376 H   0  0  0  0  0  0  0  0  0  0  0  0  # atno 6909 bound_to 6896
  145.6388  139.2421  143.2042 H   0  0  0  0  0  0  0  0  0  0  0  0  # atno 7974 bound_to 7965
  156.2800  140.2136  156.5656 H   0  0  0  0  0  0  0  0  0  0  0  0  # atno 8008 bound_to 7997
  154.7177  140.0506  157.0633 H   0  0  0  0  0  0  0  0  0  0  0  0  # atno 8009 bound_to 7997
  155.0520  140.3157  155.4692 H   0  0  0  0  0  0  0  0  0  0  0  0  # atno 8010 bound_to 7997
  140.2909  144.3047  150.6241 H   0  0  0  0  0  0  0  0  0  0  0  0  # atno 10167 bound_to 10162
  157.6856  131.0047  150.2372 H   0  0  0  0  0  0  0  0  0  0  0  0  # atno 10718 bound_to 10713
  154.7293  135.3043  154.8918 H   0  0  0  0  0  0  0  0  0  0  0  0  # atno 10763 bound_to 10752
  153.9766  135.6735  153.4753 H   0  0  0  0  0  0  0  0  0  0  0  0  # atno 10764 bound_to 10752
  153.0904  135.4962  154.8598 H   0  0  0  0  0  0  0  0  0  0  0  0  # atno 10765 bound_to 10752
  140.3312  134.7355  157.4136 H   0  0  0  0  0  0  0  0  0  0  0  0  # atno 11005 bound_to 11000
  146.1298  140.7201  142.9418 LP  0  0  0  0  0  0  0  0  0  0  0  0  # atno 17320 bound_to 7965
  144.7165  140.4228  143.7040 LP  0  0  0  0  0  0  0  0  0  0  0  0  # atno 17321 bound_to 7965
  140.5733  143.2179  151.7560 LP  0  0  0  0  0  0  0  0  0  0  0  0  # atno 17342 bound_to 10162
  139.4938  144.4186  152.0003 LP  0  0  0  0  0  0  0  0  0  0  0  0  # atno 17343 bound_to 10162
  156.2993  130.3756  149.7766 LP  0  0  0  0  0  0  0  0  0  0  0  0  # atno 17370 bound_to 10713
  156.5401  130.8296  151.3266 LP  0  0  0  0  0  0  0  0  0  0  0  0  # atno 17371 bound_to 10713
  140.0859  134.5667  155.8493 LP  0  0  0  0  0  0  0  0  0  0  0  0  # atno 17394 bound_to 11000
  141.2063  133.6654  156.6232 LP  0  0  0  0  0  0  0  0  0  0  0  0  # atno 17395 bound_to 11000

$$$$
