AV-unprocessed.smi:1802|AV-procd|sdf|7274|dock8
  -GOLD-   22720 8533D 1   1.00000     0.00000
 Structure written by MMmdl.
 41 42  0  0  0  0  0  0  0  0  2 V2000
  145.6775  128.7029  152.4248 C   0  0  0  0  0  0  0  0  0  0  0  0
  146.0459  129.9959  151.6838 C   0  0  1  0  0  0  0  0  0  0  0  0
  144.7981  130.6917  151.1145 C   0  0  0  0  0  0  0  0  0  0  0  0
  145.1920  131.9930  150.4048 C   0  0  0  0  0  0  0  0  0  0  0  0
  145.9954  132.9088  151.3417 C   0  0  0  0  0  0  0  0  0  0  0  0
  147.1971  132.2114  151.8677 N   0  3  1  0  0  0  0  0  0  0  0  0
  148.0706  133.1131  152.6604 C   0  0  0  0  0  0  0  0  0  0  0  0
  149.1522  132.3438  153.4376 C   0  0  0  0  0  0  0  0  0  0  0  0
  149.7585  133.1818  154.5756 C   0  0  0  0  0  0  0  0  0  0  0  0
  149.7231  134.6085  154.2735 N   0  0  0  0  0  0  0  0  0  0  0  0
  150.4739  135.5376  154.8832 C   0  0  0  0  0  0  0  0  0  0  0  0
  151.2689  135.2769  155.7867 O   0  0  0  0  0  0  0  0  0  0  0  0
  150.2413  136.7628  154.3801 N   0  0  0  0  0  0  0  0  0  0  0  0
  150.8394  137.9952  154.7559 C   0  0  0  0  0  0  0  0  0  0  0  0
  150.3729  139.1950  154.3755 N   0  0  0  0  0  0  0  0  0  0  0  0
  151.1415  140.2357  154.8810 N   0  0  0  0  0  0  0  0  0  0  0  0
  152.1563  139.7807  155.6213 C   0  0  0  0  0  0  0  0  0  0  0  0
  152.2730  138.0357  155.7721 S   0  0  0  0  0  0  0  0  0  0  0  0
  146.8307  130.9644  152.5917 C   0  0  0  0  0  0  0  0  0  0  0  0
  145.0314  128.9047  153.2799 H   0  0  0  0  0  0  0  0  0  0  0  0
  146.5686  128.1936  152.7932 H   0  0  0  0  0  0  0  0  0  0  0  0
  145.1526  128.0098  151.7669 H   0  0  0  0  0  0  0  0  0  0  0  0
  146.6909  129.7215  150.8477 H   0  0  0  0  0  0  0  0  0  0  0  0
  144.2809  130.0314  150.4177 H   0  0  0  0  0  0  0  0  0  0  0  0
  144.0932  130.9112  151.9177 H   0  0  0  0  0  0  0  0  0  0  0  0
  145.7851  131.7636  149.5185 H   0  0  0  0  0  0  0  0  0  0  0  0
  144.2985  132.5101  150.0533 H   0  0  0  0  0  0  0  0  0  0  0  0
  146.2958  133.8023  150.7927 H   0  0  0  0  0  0  0  0  0  0  0  0
  145.3713  133.2406  152.1732 H   0  0  0  0  0  0  0  0  0  0  0  0
  148.5756  133.8052  151.9849 H   0  0  0  0  0  0  0  0  0  0  0  0
  147.4671  133.7257  153.3320 H   0  0  0  0  0  0  0  0  0  0  0  0
  148.7418  131.4251  153.8564 H   0  0  0  0  0  0  0  0  0  0  0  0
  149.9396  132.0425  152.7452 H   0  0  0  0  0  0  0  0  0  0  0  0
  149.2355  132.9898  155.5141 H   0  0  0  0  0  0  0  0  0  0  0  0
  150.7976  132.8940  154.7364 H   0  0  0  0  0  0  0  0  0  0  0  0
  149.0947  134.9058  153.5412 H   0  0  0  0  0  0  0  0  0  0  0  0
  149.5617  136.8215  153.6361 H   0  0  0  0  0  0  0  0  0  0  0  0
  152.8407  140.4780  156.0814 H   0  0  0  0  0  0  0  0  0  0  0  0
  146.2396  131.2176  153.4738 H   0  0  0  0  0  0  0  0  0  0  0  0
  147.7295  130.4636  152.9503 H   0  0  0  0  0  0  0  0  0  0  0  0
  147.7347  131.9355  151.0582 H   0  0  0  0  0  0  0  0  0  0  0  0
  1  2  1  0  0  0  0
  1 20  1  0  0  0  0
  1 21  1  0  0  0  0
  1 22  1  0  0  0  0
  2 19  1  0  0  0  0
  2  3  1  0  0  0  0
  2 23  1  0  0  0  0
  3  4  1  0  0  0  0
  3 24  1  0  0  0  0
  3 25  1  0  0  0  0
  4  5  1  0  0  0  0
  4 26  1  0  0  0  0
  4 27  1  0  0  0  0
  5  6  1  0  0  0  0
  5 28  1  0  0  0  0
  5 29  1  0  0  0  0
  6  7  1  0  0  0  0
  6 19  1  0  0  0  0
  6 41  1  0  0  0  0
  7  8  1  0  0  0  0
  7 30  1  0  0  0  0
  7 31  1  0  0  0  0
  8  9  1  0  0  0  0
  8 32  1  0  0  0  0
  8 33  1  0  0  0  0
  9 10  1  0  0  0  0
  9 34  1  0  0  0  0
  9 35  1  0  0  0  0
 10 11  1  0  0  0  0
 10 36  1  0  0  0  0
 11 12  2  0  0  0  0
 11 13  1  0  0  0  0
 13 14  1  0  0  0  0
 13 37  1  0  0  0  0
 14 18  1  0  0  0  0
 14 15  2  0  0  0  0
 15 16  1  0  0  0  0
 16 17  2  0  0  0  0
 17 18  1  0  0  0  0
 17 38  1  0  0  0  0
 19 39  1  0  0  0  0
 19 40  1  0  0  0  0
M  CHG  1   6   1
M  END
> <s_m_source_file>
AV-unprocessed.smi

> <i_m_source_file_index>
1802

> <i_lp_mmshare_version>
43012

> <i_f3d_flags>
0

> <s_epik_input>
W0NIM11bQ0BASF0xW0NIMl1bQ0gyXVtDSDJdTihbQ0gyXTEpW0NIMl1bQ0gyXVtDSDJdW05IXUMoPU8pW05IXWMybm5bY0hdczI=

> <s_epik_cmdline>
J2VwaWtfcHl0aG9uJywgJy1waCcsICc3LjAnLCAnLXRuJywgJzgnLCAnLW1hJywgJzIwMCcsICctbWV0YWxfYmluZGluZycsICctaW1hZScsICc8aW5maWxlLm1hZT4nLCAnLW9tYWUnLCAnPG91dGZpbGUubWFlPic=

> <r_lp_tautomer_probability>
1

> <r_epik_Ionization_Penalty>
0.00272894

> <r_epik_Ionization_Penalty_Charging>
0.000288442

> <r_epik_Ionization_Penalty_Neutral>
0.0024405

> <r_epik_State_Penalty>
-0

> <r_epik_Charging_Adjusted_Penalty>
0.000288442

> <i_epik_Tot_Q>
1

> <i_epik_Tot_abs_Q>
1

> <r_epik_Metal_State_Penalty>
0.350525

> <b_epik_Metal_Only>
0

> <s_lp_Force_Field>
OPLS_2005

> <r_lp_Energy>
15.2014

> <b_lp_Chiralities_Consistent>
1

> <s_lp_Variant>
AV-unprocessed.smi:1802-4

> <Gold.Version>
5.8.1

> <Gold.Id.Protein>
6NUR|6NUR_protein|mol2

> <Gold.PLP.Fitness>
52.2400

> <Gold.PLP.PLP>
-39.3309

> <Gold.PLP.part.hbond>
-6.1250

> <Gold.PLP.part.metal>
0.0000

> <Gold.PLP.part.buried>
-4.4086

> <Gold.PLP.part.nonpolar>
-29.3979

> <Gold.PLP.part.repulsive>
0.3987

> <Gold.PLP.ligand.clash>
0.0000

> <Gold.PLP.ligand.torsion>
0.5544

> <Gold.PLP.Chemscore.Hbond>
4.6596

> <Gold.PLP.Chemscore.CHOScore>
0.0000

> <Gold.PLP.Chemscore.Metal>
0.0000

> <Gold.Chemscore.Hbonds>
donor molecule, donor type, donor heavy atom, donor atom, acceptor molecule, acceptor atom, score
      L1  H     6    41       P1 10747  1.00
      L1  H    10    36       P1  7948  0.64
      L1  H    13    37       P1  7948  0.94
      P1  H  7989  7998       L1    16  0.95
      P1  H 10752 10765       L1    12  1.00

> <Gold.PLP.Chemscore.Internal.Correction>
0.0390

> <Gold.Rescore>
     Score         DG    S(hbond)    S(metal)    S(lipo)     H(rot)  DE(clash)    DE(int)     intcor
     16.84     -19.38       2.65        0.00      86.41       1.98       0.70       1.84       ----

> <Gold.Chemscore.Fitness>
16.8388

> <Gold.Chemscore.DG>
-19.3832

> <Gold.Chemscore.ZeroCoef>
-5.4800

> <Gold.Chemscore.Hbond>
2.6526

> <Gold.Chemscore.Metal>
0.0000

> <Gold.Chemscore.Lipo>
86.4140

> <Gold.Chemscore.Internal_Hbond>
0.0000

> <Gold.Chemscore.DEClash>
0.7007

> <Gold.Chemscore.DEInternal>
1.8438

> <Gold.Chemscore.Rot>
1.9793

> <Gold.Chemscore.Internal.Correction>
   9.000000E+99

> <Gold.Chemscore.Hbonds>
donor molecule, donor type, donor heavy atom, donor atom, acceptor molecule, acceptor atom, score
      L1  H     6    41       P1 10747  0.95
      L1  H    10    36       P1  7948  0.14
      L1  H    13    37       P1  7948  0.72
      P1  H  7989  7998       L1    16  0.17
      P1  H 10752 10765       L1    12  0.54

> <Gold.Chemscore.Hbond.Weighted>
-8.8597

> <Gold.Chemscore.Metal.Weighted>
-0.0000

> <Gold.Chemscore.Lipo.Weighted>
-10.1104

> <Gold.Chemscore.Internal_Hbond.Weighted>
0.0000

> <Gold.Chemscore.DEClash.Weighted>
0.7007

> <Gold.Chemscore.DEInternal.Weighted>
1.8438

> <Gold.Chemscore.Rot.Weighted>
5.0670

> <Gold.Chemscore.Internal.Correction.Weighted>
   9.000000E+99

> <Gold.Protein.RotatedTorsions>
[ 6907 6896 6895 6894 ] final   72.76 input  -60.11 | X-H torsion
[ 7974 7965 7964 7962 ] final -146.22 input  175.53 | X-H torsion
[ 8008 7997 7996 7995 ] final   28.20 input   59.86 | X-H torsion
[ 10167 10162 10161 10158 ] final   96.19 input  -65.29 | X-H torsion
[ 10718 10713 10712 10709 ] final   38.35 input   66.30 | X-H torsion
[ 10763 10752 10751 10750 ] final -151.26 input  -60.55 | X-H torsion
[ 11005 11000 10999 10996 ] final  -38.84 input  -57.11 | X-H torsion

> <Gold.Protein.ActiveResidues>
 VAL166  LYS551  ARG553  GLY616  TRP617  ASP618  TYR619  PRO620  LYS621  CYS622 
 ASP623  PHE694  ASN695  SER759  ASP760  ASP761  ALA762  ILE779  LEU786  VAL792 
 PHE793  MET794  SER795  GLU796  ALA797  LYS798  CYS799  TRP800  GLU811  SER814 

> <Gold.Protein.RotatedAtoms>
  152.4886  134.4522  159.9577 H   0  0  0  0  0  0  0  0  0  0  0  0  # atno 6907 bound_to 6896
  151.4514  133.3610  159.2803 H   0  0  0  0  0  0  0  0  0  0  0  0  # atno 6908 bound_to 6896
  150.9019  134.8456  159.7426 H   0  0  0  0  0  0  0  0  0  0  0  0  # atno 6909 bound_to 6896
  144.8174  140.5484  143.5601 H   0  0  0  0  0  0  0  0  0  0  0  0  # atno 7974 bound_to 7965
  155.0549  140.3184  155.4679 H   0  0  0  0  0  0  0  0  0  0  0  0  # atno 8008 bound_to 7997
  156.2826  140.2139  156.5620 H   0  0  0  0  0  0  0  0  0  0  0  0  # atno 8009 bound_to 7997
  154.7179  140.0492  157.0600 H   0  0  0  0  0  0  0  0  0  0  0  0  # atno 8010 bound_to 7997
  139.7918  144.6849  150.9882 H   0  0  0  0  0  0  0  0  0  0  0  0  # atno 10167 bound_to 10162
  157.3578  130.7633  149.7025 H   0  0  0  0  0  0  0  0  0  0  0  0  # atno 10718 bound_to 10713
  154.8068  135.3264  154.7409 H   0  0  0  0  0  0  0  0  0  0  0  0  # atno 10763 bound_to 10752
  153.8066  135.6899  153.4851 H   0  0  0  0  0  0  0  0  0  0  0  0  # atno 10764 bound_to 10752
  153.1819  135.4583  154.9984 H   0  0  0  0  0  0  0  0  0  0  0  0  # atno 10765 bound_to 10752
  141.0058  133.6932  156.2107 H   0  0  0  0  0  0  0  0  0  0  0  0  # atno 11005 bound_to 11000
  145.5182  139.1477  143.3567 LP  0  0  0  0  0  0  0  0  0  0  0  0  # atno 17320 bound_to 7965
  146.2478  140.5323  142.8906 LP  0  0  0  0  0  0  0  0  0  0  0  0  # atno 17321 bound_to 7965
  140.7820  143.4373  151.0604 LP  0  0  0  0  0  0  0  0  0  0  0  0  # atno 17342 bound_to 10162
  139.8049  143.8031  152.3166 LP  0  0  0  0  0  0  0  0  0  0  0  0  # atno 17343 bound_to 10162
  155.9732  130.4122  150.4022 LP  0  0  0  0  0  0  0  0  0  0  0  0  # atno 17370 bound_to 10713
  157.2094  131.0457  151.2607 LP  0  0  0  0  0  0  0  0  0  0  0  0  # atno 17371 bound_to 10713
  140.6815  134.4762  157.5589 LP  0  0  0  0  0  0  0  0  0  0  0  0  # atno 17394 bound_to 11000
  139.9062  134.8443  156.1696 LP  0  0  0  0  0  0  0  0  0  0  0  0  # atno 17395 bound_to 11000

$$$$
