AV-unprocessed.smi:2340|AV-procd|sdf|9348|dock9
  -GOLD-   2272012573D 1   1.00000     0.00000
 Structure written by MMmdl.
 40 41  0  0  0  0  0  0  0  0  1 V2000
  155.4057  140.5421  159.0799 C   0  0  0  0  0  0  0  0  0  0  0  0
  154.7779  141.8176  159.5463 C   0  0  0  0  0  0  0  0  0  0  0  0
  154.8431  142.3580  160.8063 C   0  0  0  0  0  0  0  0  0  0  0  0
  153.9666  143.8595  160.9143 S   0  0  0  0  0  0  0  0  0  0  0  0
  153.5354  143.6971  159.2129 C   0  0  0  0  0  0  0  0  0  0  0  0
  152.6964  144.6907  158.4707 C   0  0  2  0  0  0  0  0  0  0  0  0
  151.3431  144.9130  159.1677 C   0  0  0  0  0  0  0  0  0  0  0  0
  152.5687  144.3103  156.9798 C   0  0  0  0  0  0  0  0  0  0  0  0
  151.2690  143.7325  156.6522 N   0  0  0  0  0  0  0  0  0  0  0  0
  151.0146  142.4205  156.5555 C   0  0  0  0  0  0  0  0  0  0  0  0
  151.8568  141.5399  156.7304 O   0  0  0  0  0  0  0  0  0  0  0  0
  149.7307  142.1850  156.2514 N   0  0  0  0  0  0  0  0  0  0  0  0
  149.1327  140.8614  156.0723 C   0  0  2  0  0  0  0  0  0  0  0  0
  149.9285  140.0469  155.0529 C   0  0  0  0  0  0  0  0  0  0  0  0
  148.8699  139.5124  154.0941 C   0  0  0  0  0  0  0  0  0  0  0  0
  147.8693  140.5143  154.1238 O   0  0  0  0  0  0  0  0  0  0  0  0
  147.7036  140.8980  155.4808 C   0  0  2  0  0  0  0  0  0  0  0  0
  146.9301  142.2242  155.5619 C   0  0  0  0  0  0  0  0  0  0  0  0
  154.0310  142.5900  158.6524 N   0  0  0  0  0  0  0  0  0  0  0  0
  155.8968  140.0160  159.8989 H   0  0  0  0  0  0  0  0  0  0  0  0
  156.1563  140.7314  158.3124 H   0  0  0  0  0  0  0  0  0  0  0  0
  154.6606  139.8683  158.6562 H   0  0  0  0  0  0  0  0  0  0  0  0
  155.3514  141.9655  161.6746 H   0  0  0  0  0  0  0  0  0  0  0  0
  153.2295  145.6419  158.5169 H   0  0  0  0  0  0  0  0  0  0  0  0
  151.4848  145.2100  160.2073 H   0  0  0  0  0  0  0  0  0  0  0  0
  150.7383  144.0059  159.1607 H   0  0  0  0  0  0  0  0  0  0  0  0
  150.7662  145.7002  158.6822 H   0  0  0  0  0  0  0  0  0  0  0  0
  152.7452  145.1850  156.3512 H   0  0  0  0  0  0  0  0  0  0  0  0
  153.3349  143.5823  156.7123 H   0  0  0  0  0  0  0  0  0  0  0  0
  150.5100  144.3786  156.4921 H   0  0  0  0  0  0  0  0  0  0  0  0
  149.1169  142.9779  156.1359 H   0  0  0  0  0  0  0  0  0  0  0  0
  149.1121  140.3282  157.0245 H   0  0  0  0  0  0  0  0  0  0  0  0
  150.6240  140.6818  154.5014 H   0  0  0  0  0  0  0  0  0  0  0  0
  150.5081  139.2466  155.5138 H   0  0  0  0  0  0  0  0  0  0  0  0
  149.2537  139.3541  153.0860 H   0  0  0  0  0  0  0  0  0  0  0  0
  148.4550  138.5706  154.4566 H   0  0  0  0  0  0  0  0  0  0  0  0
  147.1106  140.1209  155.9668 H   0  0  0  0  0  0  0  0  0  0  0  0
  146.7997  142.5412  156.5969 H   0  0  0  0  0  0  0  0  0  0  0  0
  145.9379  142.1178  155.1232 H   0  0  0  0  0  0  0  0  0  0  0  0
  147.4417  143.0225  155.0237 H   0  0  0  0  0  0  0  0  0  0  0  0
  1  2  1  0  0  0  0
  1 20  1  0  0  0  0
  1 21  1  0  0  0  0
  1 22  1  0  0  0  0
  2 19  1  0  0  0  0
  2  3  2  0  0  0  0
  3  4  1  0  0  0  0
  3 23  1  0  0  0  0
  4  5  1  0  0  0  0
  5  6  1  0  0  0  0
  5 19  2  0  0  0  0
  6  7  1  0  0  0  0
  6  8  1  0  0  0  0
  6 24  1  0  0  0  0
  7 25  1  0  0  0  0
  7 26  1  0  0  0  0
  7 27  1  0  0  0  0
  8  9  1  0  0  0  0
  8 28  1  0  0  0  0
  8 29  1  0  0  0  0
  9 10  1  0  0  0  0
  9 30  1  0  0  0  0
 10 11  2  0  0  0  0
 10 12  1  0  0  0  0
 12 13  1  0  0  0  0
 12 31  1  0  0  0  0
 13 17  1  0  0  0  0
 13 14  1  0  0  0  0
 13 32  1  0  0  0  0
 14 15  1  0  0  0  0
 14 33  1  0  0  0  0
 14 34  1  0  0  0  0
 15 16  1  0  0  0  0
 15 35  1  0  0  0  0
 15 36  1  0  0  0  0
 16 17  1  0  0  0  0
 17 18  1  0  0  0  0
 17 37  1  0  0  0  0
 18 38  1  0  0  0  0
 18 39  1  0  0  0  0
 18 40  1  0  0  0  0
M  END
> <s_m_source_file>
AV-unprocessed.smi

> <i_m_source_file_index>
2340

> <i_lp_mmshare_version>
43012

> <i_f3d_flags>
0

> <s_epik_input>
W0NIM11jMVtjSF1zYyhuMSlbQ0BIXShbQ0gzXSlbQ0gyXVtOSF1DKD1PKVtOSF1bQ0BASF0yW0NIMl1bQ0gyXU9bQ0BIXTJbQ0gzXQ==

> <s_epik_cmdline>
J2VwaWtfcHl0aG9uJywgJy1waCcsICc3LjAnLCAnLXRuJywgJzgnLCAnLW1hJywgJzIwMCcsICctbWV0YWxfYmluZGluZycsICctaW1hZScsICc8aW5maWxlLm1hZT4nLCAnLW9tYWUnLCAnPG91dGZpbGUubWFlPic=

> <r_epik_Ionization_Penalty>
0.00156622

> <r_epik_Ionization_Penalty_Charging>
0

> <r_epik_Ionization_Penalty_Neutral>
0.00156622

> <r_epik_State_Penalty>
0.00101902

> <r_epik_Charging_Adjusted_Penalty>
0.00101902

> <i_epik_Tot_Q>
0

> <i_epik_Tot_abs_Q>
0

> <r_epik_Metal_State_Penalty>
-0

> <b_epik_Metal_Only>
0

> <s_lp_Force_Field>
OPLS_2005

> <r_lp_Energy>
6.07196

> <b_lp_Chiralities_Consistent>
1

> <s_lp_Variant>
AV-unprocessed.smi:2340-5

> <Gold.Version>
5.8.1

> <Gold.Id.Protein>
6NUR|6NUR_protein|mol2

> <Gold.PLP.Fitness>
49.9465

> <Gold.PLP.PLP>
-45.5506

> <Gold.PLP.part.hbond>
-2.0000

> <Gold.PLP.part.metal>
0.0000

> <Gold.PLP.part.buried>
-4.5335

> <Gold.PLP.part.nonpolar>
-39.7779

> <Gold.PLP.part.repulsive>
1.1628

> <Gold.PLP.ligand.clash>
0.0000

> <Gold.PLP.ligand.torsion>
0.8318

> <Gold.PLP.Chemscore.Hbond>
1.9920

> <Gold.PLP.Chemscore.CHOScore>
0.0000

> <Gold.PLP.Chemscore.Metal>
0.0000

> <Gold.Chemscore.Hbonds>
donor molecule, donor type, donor heavy atom, donor atom, acceptor molecule, acceptor atom, score
      L1  H     9    30       P1  8028  0.99
      L1  H    12    31       P1  8028  0.99

> <Gold.PLP.Chemscore.Internal.Correction>
0.0834

> <Gold.Rescore>
     Score         DG    S(hbond)    S(metal)    S(lipo)     H(rot)  DE(clash)    DE(int)     intcor
     20.50     -21.44       1.90        0.00     115.74       1.53       0.13       0.81       ----

> <Gold.Chemscore.Fitness>
20.5019

> <Gold.Chemscore.DG>
-21.4415

> <Gold.Chemscore.ZeroCoef>
-5.4800

> <Gold.Chemscore.Hbond>
1.8992

> <Gold.Chemscore.Metal>
0.0000

> <Gold.Chemscore.Lipo>
115.7398

> <Gold.Chemscore.Internal_Hbond>
0.0000

> <Gold.Chemscore.DEClash>
0.1324

> <Gold.Chemscore.DEInternal>
0.8072

> <Gold.Chemscore.Rot>
1.5325

> <Gold.Chemscore.Internal.Correction>
   9.000000E+99

> <Gold.Chemscore.Hbonds>
donor molecule, donor type, donor heavy atom, donor atom, acceptor molecule, acceptor atom, score
      L1  H     9    30       P1  8028  0.93
      L1  H    12    31       P1  8028  0.94

> <Gold.Chemscore.Hbond.Weighted>
-6.3433

> <Gold.Chemscore.Metal.Weighted>
-0.0000

> <Gold.Chemscore.Lipo.Weighted>
-13.5416

> <Gold.Chemscore.Internal_Hbond.Weighted>
0.0000

> <Gold.Chemscore.DEClash.Weighted>
0.1324

> <Gold.Chemscore.DEInternal.Weighted>
0.8072

> <Gold.Chemscore.Rot.Weighted>
3.9233

> <Gold.Chemscore.Internal.Correction.Weighted>
   9.000000E+99

> <Gold.Protein.RotatedTorsions>
[ 6907 6896 6895 6894 ] final   73.03 input  -60.11 | X-H torsion
[ 7974 7965 7964 7962 ] final  147.02 input  175.53 | X-H torsion
[ 8008 7997 7996 7995 ] final -131.12 input   59.86 | X-H torsion
[ 10167 10162 10161 10158 ] final   68.62 input  -65.29 | X-H torsion
[ 10718 10713 10712 10709 ] final -144.66 input   66.30 | X-H torsion
[ 10763 10752 10751 10750 ] final   26.86 input  -60.55 | X-H torsion
[ 11005 11000 10999 10996 ] final   55.54 input  -57.11 | X-H torsion

> <Gold.Protein.ActiveResidues>
 VAL166  LYS551  ARG553  GLY616  TRP617  ASP618  TYR619  PRO620  LYS621  CYS622 
 ASP623  PHE694  ASN695  SER759  ASP760  ASP761  ALA762  ILE779  LEU786  VAL792 
 PHE793  MET794  SER795  GLU796  ALA797  LYS798  CYS799  TRP800  GLU811  SER814 

> <Gold.Protein.RotatedAtoms>
  152.4901  134.4482  159.9565 H   0  0  0  0  0  0  0  0  0  0  0  0  # atno 6907 bound_to 6896
  151.4471  133.3621  159.2798 H   0  0  0  0  0  0  0  0  0  0  0  0  # atno 6908 bound_to 6896
  150.9047  134.8485  159.7444 H   0  0  0  0  0  0  0  0  0  0  0  0  # atno 6909 bound_to 6896
  144.8624  139.5977  143.5924 H   0  0  0  0  0  0  0  0  0  0  0  0  # atno 7974 bound_to 7965
  155.3070  140.0455  157.3033 H   0  0  0  0  0  0  0  0  0  0  0  0  # atno 8008 bound_to 7997
  154.5454  140.2301  155.8538 H   0  0  0  0  0  0  0  0  0  0  0  0  # atno 8009 bound_to 7997
  156.1919  140.3048  155.9357 H   0  0  0  0  0  0  0  0  0  0  0  0  # atno 8010 bound_to 7997
  140.0767  144.5106  150.7190 H   0  0  0  0  0  0  0  0  0  0  0  0  # atno 10167 bound_to 10162
  156.3728  130.7797  151.1980 H   0  0  0  0  0  0  0  0  0  0  0  0  # atno 10718 bound_to 10713
  153.0594  135.6550  154.0499 H   0  0  0  0  0  0  0  0  0  0  0  0  # atno 10763 bound_to 10752
  154.0170  135.2923  155.3387 H   0  0  0  0  0  0  0  0  0  0  0  0  # atno 10764 bound_to 10752
  154.6925  135.5277  153.8480 H   0  0  0  0  0  0  0  0  0  0  0  0  # atno 10765 bound_to 10752
  140.0599  134.5618  155.9164 H   0  0  0  0  0  0  0  0  0  0  0  0  # atno 11005 bound_to 11000
  146.2870  139.7033  142.9188 LP  0  0  0  0  0  0  0  0  0  0  0  0  # atno 17320 bound_to 7965
  145.4286  141.0413  143.2923 LP  0  0  0  0  0  0  0  0  0  0  0  0  # atno 17321 bound_to 7965
  140.7098  143.2496  151.4615 LP  0  0  0  0  0  0  0  0  0  0  0  0  # atno 17342 bound_to 10162
  139.5803  144.1724  152.1960 LP  0  0  0  0  0  0  0  0  0  0  0  0  # atno 17343 bound_to 10162
  157.7485  131.0367  150.4422 LP  0  0  0  0  0  0  0  0  0  0  0  0  # atno 17370 bound_to 10713
  156.4652  130.4040  149.6552 LP  0  0  0  0  0  0  0  0  0  0  0  0  # atno 17371 bound_to 10713
  141.1968  133.6593  156.5711 LP  0  0  0  0  0  0  0  0  0  0  0  0  # atno 17394 bound_to 11000
  140.3787  134.7542  157.4647 LP  0  0  0  0  0  0  0  0  0  0  0  0  # atno 17395 bound_to 11000

$$$$
