AV-unprocessed.smi:438|AV-procd|sdf|2569|dock7
  -GOLD-   2262022543D 1   1.00000     0.00000
 Structure written by MMmdl.
 48 49  0  0  0  0  0  0  0  0  1 V2000
  145.7952  134.9575  151.4723 C   0  0  0  0  0  0  0  0  0  0  0  0
  146.4449  133.8610  152.2982 C   0  0  0  0  0  0  0  0  0  0  0  0
  147.6351  134.2271  152.9010 N   0  0  0  0  0  0  0  0  0  0  0  0
  148.3153  133.2931  153.6673 C   0  0  0  0  0  0  0  0  0  0  0  0
  149.8449  134.0197  154.3241 S   0  0  0  0  0  0  0  0  0  0  0  0
  149.2744  135.6654  154.8368 C   0  0  0  0  0  0  0  0  0  0  0  0
  150.3847  136.7076  154.7584 C   0  0  0  0  0  0  0  0  0  0  0  0
  151.5484  136.3595  154.5605 O   0  0  0  0  0  0  0  0  0  0  0  0
  150.0069  137.9847  154.9179 N   0  0  0  0  0  0  0  0  0  0  0  0
  150.8890  139.1504  154.8764 C   0  0  2  0  0  0  0  0  0  0  0  0
  152.1146  138.9452  155.7926 C   0  0  0  0  0  0  0  0  0  0  0  0
  151.7326  138.9578  157.2826 C   0  0  0  0  0  0  0  0  0  0  0  0
  150.9781  140.2441  157.6507 C   0  0  0  0  0  0  0  0  0  0  0  0
  149.7450  140.4464  156.7553 C   0  0  0  0  0  0  0  0  0  0  0  0
  150.1215  140.4404  155.2588 C   0  0  2  0  0  0  0  0  0  0  0  0
  148.8933  140.6915  154.3666 C   0  0  0  0  0  0  0  0  0  0  0  0
  147.8914  132.0805  153.8683 N   0  0  0  0  0  0  0  0  0  0  0  0
  146.6834  131.6548  153.2965 C   0  0  0  0  0  0  0  0  0  0  0  0
  146.2666  130.5150  153.4986 O   0  0  0  0  0  0  0  0  0  0  0  0
  145.9387  132.6128  152.4513 C   0  0  0  0  0  0  0  0  0  0  0  0
  144.6260  132.1545  151.8158 C   0  0  0  0  0  0  0  0  0  0  0  0
  144.6129  132.2840  150.2826 C   0  0  0  0  0  0  0  0  0  0  0  0
  143.3845  131.8342  149.7507 O   0  0  0  0  0  0  0  0  0  0  0  0
  145.6522  134.6258  150.4436 H   0  0  0  0  0  0  0  0  0  0  0  0
  146.4055  135.8612  151.4501 H   0  0  0  0  0  0  0  0  0  0  0  0
  144.8229  135.2221  151.8888 H   0  0  0  0  0  0  0  0  0  0  0  0
  148.8927  135.6122  155.8571 H   0  0  0  0  0  0  0  0  0  0  0  0
  148.4460  135.9777  154.1995 H   0  0  0  0  0  0  0  0  0  0  0  0
  149.0268  138.1678  155.0775 H   0  0  0  0  0  0  0  0  0  0  0  0
  151.2457  139.2679  153.8513 H   0  0  0  0  0  0  0  0  0  0  0  0
  152.6245  138.0131  155.5462 H   0  0  0  0  0  0  0  0  0  0  0  0
  152.8370  139.7404  155.6045 H   0  0  0  0  0  0  0  0  0  0  0  0
  151.1132  138.0900  157.5133 H   0  0  0  0  0  0  0  0  0  0  0  0
  152.6295  138.8658  157.8957 H   0  0  0  0  0  0  0  0  0  0  0  0
  150.6752  140.2104  158.6975 H   0  0  0  0  0  0  0  0  0  0  0  0
  151.6462  141.1002  157.5503 H   0  0  0  0  0  0  0  0  0  0  0  0
  149.0138  139.6631  156.9595 H   0  0  0  0  0  0  0  0  0  0  0  0
  149.2616  141.3893  157.0134 H   0  0  0  0  0  0  0  0  0  0  0  0
  150.8025  141.2770  155.0954 H   0  0  0  0  0  0  0  0  0  0  0  0
  148.1291  139.9257  154.5031 H   0  0  0  0  0  0  0  0  0  0  0  0
  149.1704  140.7017  153.3122 H   0  0  0  0  0  0  0  0  0  0  0  0
  148.4365  141.6549  154.5948 H   0  0  0  0  0  0  0  0  0  0  0  0
  147.9748  135.1664  152.7518 H   0  0  0  0  0  0  0  0  0  0  0  0
  143.7823  132.7044  152.2311 H   0  0  0  0  0  0  0  0  0  0  0  0
  144.4490  131.1146  152.0936 H   0  0  0  0  0  0  0  0  0  0  0  0
  144.7817  133.3151  149.9719 H   0  0  0  0  0  0  0  0  0  0  0  0
  145.4165  131.6866  149.8516 H   0  0  0  0  0  0  0  0  0  0  0  0
  142.7879  132.5662  149.7131 H   0  0  0  0  0  0  0  0  0  0  0  0
  1 24  1  0  0  0  0
  1 25  1  0  0  0  0
  1 26  1  0  0  0  0
  1  2  1  0  0  0  0
  2 20  2  0  0  0  0
  2  3  1  0  0  0  0
  3  4  1  0  0  0  0
  3 43  1  0  0  0  0
  4  5  1  0  0  0  0
  4 17  2  0  0  0  0
  5  6  1  0  0  0  0
  6  7  1  0  0  0  0
  6 27  1  0  0  0  0
  6 28  1  0  0  0  0
  7  8  2  0  0  0  0
  7  9  1  0  0  0  0
  9 10  1  0  0  0  0
  9 29  1  0  0  0  0
 10 15  1  0  0  0  0
 10 11  1  0  0  0  0
 10 30  1  0  0  0  0
 11 12  1  0  0  0  0
 11 31  1  0  0  0  0
 11 32  1  0  0  0  0
 12 13  1  0  0  0  0
 12 33  1  0  0  0  0
 12 34  1  0  0  0  0
 13 14  1  0  0  0  0
 13 35  1  0  0  0  0
 13 36  1  0  0  0  0
 14 15  1  0  0  0  0
 14 37  1  0  0  0  0
 14 38  1  0  0  0  0
 15 16  1  0  0  0  0
 15 39  1  0  0  0  0
 16 40  1  0  0  0  0
 16 41  1  0  0  0  0
 16 42  1  0  0  0  0
 17 18  1  0  0  0  0
 18 19  2  0  0  0  0
 18 20  1  0  0  0  0
 20 21  1  0  0  0  0
 21 22  1  0  0  0  0
 21 44  1  0  0  0  0
 21 45  1  0  0  0  0
 22 23  1  0  0  0  0
 22 46  1  0  0  0  0
 22 47  1  0  0  0  0
 23 48  1  0  0  0  0
M  END
> <s_m_source_file>
AV-unprocessed.smi

> <i_m_source_file_index>
438

> <i_lp_mmshare_version>
43012

> <i_f3d_flags>
0

> <s_epik_input>
W09IXVtDSDJdW0NIMl1jMWMoW09IXSluYyhuYzFbQ0gzXSlTW0NIMl1DKD1PKVtOSF1bQ0BASF0yW0NIMl1bQ0gyXVtDSDJdW0NIMl1bQ0BIXTJbQ0gzXQ==

> <s_epik_cmdline>
J2VwaWtfcHl0aG9uJywgJy1waCcsICc3LjAnLCAnLXRuJywgJzgnLCAnLW1hJywgJzIwMCcsICctbWV0YWxfYmluZGluZycsICctaW1hZScsICc8aW5maWxlLm1hZT4nLCAnLW9tYWUnLCAnPG91dGZpbGUubWFlPic=

> <r_lp_tautomer_probability>
0.273662

> <r_epik_Ionization_Penalty>
0.0875285

> <r_epik_Ionization_Penalty_Charging>
0.0875254

> <r_epik_Ionization_Penalty_Neutral>
3.01536e-06

> <r_epik_State_Penalty>
0.985796

> <r_epik_Charging_Adjusted_Penalty>
1.07332

> <i_epik_Tot_Q>
0

> <i_epik_Tot_abs_Q>
0

> <r_epik_Metal_State_Penalty>
1.58101

> <b_epik_Metal_Only>
0

> <s_lp_Force_Field>
OPLS_2005

> <r_lp_Energy>
19.296

> <b_lp_Chiralities_Consistent>
1

> <s_lp_Variant>
AV-unprocessed.smi:438-7

> <Gold.Version>
5.8.1

> <Gold.Id.Protein>
6NUR|6NUR_protein|mol2

> <Gold.PLP.Fitness>
45.9830

> <Gold.PLP.PLP>
-38.2103

> <Gold.PLP.part.hbond>
-3.7331

> <Gold.PLP.part.metal>
0.0000

> <Gold.PLP.part.buried>
-5.5981

> <Gold.PLP.part.nonpolar>
-29.5180

> <Gold.PLP.part.repulsive>
0.4347

> <Gold.PLP.ligand.clash>
0.0000

> <Gold.PLP.ligand.torsion>
0.5796

> <Gold.PLP.Chemscore.Hbond>
2.9600

> <Gold.PLP.Chemscore.CHOScore>
0.0000

> <Gold.PLP.Chemscore.Metal>
0.0000

> <Gold.Chemscore.Hbonds>
donor molecule, donor type, donor heavy atom, donor atom, acceptor molecule, acceptor atom, score
      L1  H     3    43       P1  7948  0.94
      P1  H 10752 10764       L1     8  1.00
      P1  H 10785 10796       L1    23  1.00

> <Gold.PLP.Chemscore.Internal.Correction>
0.0520

> <Gold.Rescore>
     Score         DG    S(hbond)    S(metal)    S(lipo)     H(rot)  DE(clash)    DE(int)     intcor
     16.35     -17.80       3.13        0.00      78.55       2.86       0.11       1.34       ----

> <Gold.Chemscore.Fitness>
16.3538

> <Gold.Chemscore.DG>
-17.8013

> <Gold.Chemscore.ZeroCoef>
-5.4800

> <Gold.Chemscore.Hbond>
3.1328

> <Gold.Chemscore.Metal>
0.0000

> <Gold.Chemscore.Lipo>
78.5530

> <Gold.Chemscore.Internal_Hbond>
0.0000

> <Gold.Chemscore.DEClash>
0.1104

> <Gold.Chemscore.DEInternal>
1.3371

> <Gold.Chemscore.Rot>
2.8645

> <Gold.Chemscore.Internal.Correction>
   9.000000E+99

> <Gold.Chemscore.Hbonds>
donor molecule, donor type, donor heavy atom, donor atom, acceptor molecule, acceptor atom, score
      L1  H     3    43       P1  7948  0.89
      P1  H 10752 10764       L1     8  0.97
      P1  H 10785 10796       L1    23  0.95

> <Gold.Chemscore.Hbond.Weighted>
-10.4637

> <Gold.Chemscore.Metal.Weighted>
-0.0000

> <Gold.Chemscore.Lipo.Weighted>
-9.1907

> <Gold.Chemscore.Internal_Hbond.Weighted>
0.0000

> <Gold.Chemscore.DEClash.Weighted>
0.1104

> <Gold.Chemscore.DEInternal.Weighted>
1.3371

> <Gold.Chemscore.Rot.Weighted>
7.3331

> <Gold.Chemscore.Internal.Correction.Weighted>
   9.000000E+99

> <Gold.Protein.RotatedTorsions>
[ 6907 6896 6895 6894 ] final   -9.24 input  -60.11 | X-H torsion
[ 7974 7965 7964 7962 ] final   72.97 input  175.53 | X-H torsion
[ 8008 7997 7996 7995 ] final   95.03 input   59.86 | X-H torsion
[ 10167 10162 10161 10158 ] final -104.43 input  -65.29 | X-H torsion
[ 10718 10713 10712 10709 ] final  -53.51 input   66.30 | X-H torsion
[ 10763 10752 10751 10750 ] final  -73.60 input  -60.55 | X-H torsion
[ 11005 11000 10999 10996 ] final  161.69 input  -57.11 | X-H torsion

> <Gold.Protein.ActiveResidues>
 VAL166  LYS551  ARG553  GLY616  TRP617  ASP618  TYR619  PRO620  LYS621  CYS622 
 ASP623  PHE694  ASN695  SER759  ASP760  ASP761  ALA762  ILE779  LEU786  VAL792 
 PHE793  MET794  SER795  GLU796  ALA797  LYS798  CYS799  TRP800  GLU811  SER814 

> <Gold.Protein.RotatedAtoms>
  151.4209  135.0997  159.9613 H   0  0  0  0  0  0  0  0  0  0  0  0  # atno 6907 bound_to 6896
  152.4989  133.8708  159.7308 H   0  0  0  0  0  0  0  0  0  0  0  0  # atno 6908 bound_to 6896
  150.9224  133.6807  159.2857 H   0  0  0  0  0  0  0  0  0  0  0  0  # atno 6909 bound_to 6896
  145.7467  139.2743  143.1455 H   0  0  0  0  0  0  0  0  0  0  0  0  # atno 7974 bound_to 7965
  156.0644  140.3292  155.7500 H   0  0  0  0  0  0  0  0  0  0  0  0  # atno 8008 bound_to 7997
  155.5404  140.0601  157.2888 H   0  0  0  0  0  0  0  0  0  0  0  0  # atno 8009 bound_to 7997
  154.4497  140.1912  156.0573 H   0  0  0  0  0  0  0  0  0  0  0  0  # atno 8010 bound_to 7997
  140.2093  143.3758  152.1064 H   0  0  0  0  0  0  0  0  0  0  0  0  # atno 10167 bound_to 10162
  156.1528  130.4151  149.9916 H   0  0  0  0  0  0  0  0  0  0  0  0  # atno 10718 bound_to 10713
  154.4616  135.5892  153.6260 H   0  0  0  0  0  0  0  0  0  0  0  0  # atno 10763 bound_to 10752
  152.9824  135.6045  154.3479 H   0  0  0  0  0  0  0  0  0  0  0  0  # atno 10764 bound_to 10752
  154.3351  135.2842  155.2431 H   0  0  0  0  0  0  0  0  0  0  0  0  # atno 10765 bound_to 10752
  140.2183  134.8215  157.3193 H   0  0  0  0  0  0  0  0  0  0  0  0  # atno 11005 bound_to 11000
  146.0396  140.8178  142.9835 LP  0  0  0  0  0  0  0  0  0  0  0  0  # atno 17320 bound_to 7965
  144.6858  140.2890  143.7281 LP  0  0  0  0  0  0  0  0  0  0  0  0  # atno 17321 bound_to 7965
  139.5186  144.7008  151.5499 LP  0  0  0  0  0  0  0  0  0  0  0  0  # atno 17342 bound_to 10162
  140.6335  143.9030  150.6626 LP  0  0  0  0  0  0  0  0  0  0  0  0  # atno 17343 bound_to 10162
  156.7769  130.9207  151.3645 LP  0  0  0  0  0  0  0  0  0  0  0  0  # atno 17370 bound_to 10713
  157.6671  130.9017  149.9957 LP  0  0  0  0  0  0  0  0  0  0  0  0  # atno 17371 bound_to 10713
  140.1877  134.4411  155.7734 LP  0  0  0  0  0  0  0  0  0  0  0  0  # atno 17394 bound_to 11000
  141.2224  133.7012  156.7975 LP  0  0  0  0  0  0  0  0  0  0  0  0  # atno 17395 bound_to 11000

$$$$
