AV-unprocessed.smi:1540|AV-procd|sdf|6198|dock5
  -GOLD-   22720 6363D 1   1.00000     0.00000
 Structure written by MMmdl.
 33 33  0  0  0  0  0  0  0  0  1 V2000
  146.7723  139.0286  152.0997 C   0  0  0  0  0  0  0  0  0  0  0  0
  147.0757  139.7542  153.1863 C   0  0  0  0  0  0  0  0  0  0  0  0
  147.2240  139.1888  154.5810 C   0  0  0  0  0  0  0  0  0  0  0  0
  148.3449  139.7751  155.2312 O   0  0  0  0  0  0  0  0  0  0  0  0
  149.6076  139.5369  154.6138 C   0  0  2  0  0  0  0  0  0  0  0  0
  149.7863  138.0156  154.5018 C   0  0  0  0  0  0  0  0  0  0  0  0
  150.7382  140.1728  155.4393 C   0  0  0  0  0  0  0  0  0  0  0  0
  151.8886  140.1575  155.0022 O   0  0  0  0  0  0  0  0  0  0  0  0
  150.3609  140.7172  156.6131 N   0  0  0  0  0  0  0  0  0  0  0  0
  151.1455  141.3297  157.6045 C   0  0  0  0  0  0  0  0  0  0  0  0
  150.8486  142.5089  158.2110 C   0  0  0  0  0  0  0  0  0  0  0  0
  151.7103  143.0932  159.2252 C   0  0  0  0  0  0  0  0  0  0  0  0
  151.3960  144.4421  159.8542 C   0  0  0  0  0  0  0  0  0  0  0  0
  150.1418  144.8168  159.5984 F   0  0  0  0  0  0  0  0  0  0  0  0
  151.5589  144.4012  161.1768 F   0  0  0  0  0  0  0  0  0  0  0  0
  152.2153  145.3718  159.3649 F   0  0  0  0  0  0  0  0  0  0  0  0
  152.8383  142.4189  159.5154 C   0  0  0  0  0  0  0  0  0  0  0  0
  153.1512  141.2069  158.8959 N   0  0  0  0  0  0  0  0  0  0  0  0
  152.3843  140.6146  157.9532 C   0  0  0  0  0  0  0  0  0  0  0  0
  152.7350  139.5497  157.4460 O   0  0  0  0  0  0  0  0  0  0  0  0
  154.0121  140.7580  159.1739 H   0  0  0  0  0  0  0  0  0  0  0  0
  146.6115  137.9625  152.1632 H   0  0  0  0  0  0  0  0  0  0  0  0
  146.6804  139.4944  151.1296 H   0  0  0  0  0  0  0  0  0  0  0  0
  147.2302  140.8186  153.0855 H   0  0  0  0  0  0  0  0  0  0  0  0
  146.3145  139.3788  155.1531 H   0  0  0  0  0  0  0  0  0  0  0  0
  147.3405  138.1081  154.4967 H   0  0  0  0  0  0  0  0  0  0  0  0
  149.6007  139.9557  153.6056 H   0  0  0  0  0  0  0  0  0  0  0  0
  150.7441  137.7616  154.0462 H   0  0  0  0  0  0  0  0  0  0  0  0
  149.0019  137.5801  153.8825 H   0  0  0  0  0  0  0  0  0  0  0  0
  149.7400  137.5317  155.4783 H   0  0  0  0  0  0  0  0  0  0  0  0
  149.3688  140.7211  156.8027 H   0  0  0  0  0  0  0  0  0  0  0  0
  149.9621  143.0614  157.9462 H   0  0  0  0  0  0  0  0  0  0  0  0
  153.5801  142.7510  160.2269 H   0  0  0  0  0  0  0  0  0  0  0  0
  1  2  2  0  0  0  0
  1 22  1  0  0  0  0
  1 23  1  0  0  0  0
  2  3  1  0  0  0  0
  2 24  1  0  0  0  0
  3  4  1  0  0  0  0
  3 25  1  0  0  0  0
  3 26  1  0  0  0  0
  4  5  1  0  0  0  0
  5  6  1  0  0  0  0
  5  7  1  0  0  0  0
  5 27  1  0  0  0  0
  6 28  1  0  0  0  0
  6 29  1  0  0  0  0
  6 30  1  0  0  0  0
  7  8  2  0  0  0  0
  7  9  1  0  0  0  0
  9 10  1  0  0  0  0
  9 31  1  0  0  0  0
 10 19  1  0  0  0  0
 10 11  2  0  0  0  0
 11 12  1  0  0  0  0
 11 32  1  0  0  0  0
 12 13  1  0  0  0  0
 12 17  2  0  0  0  0
 13 14  1  0  0  0  0
 13 15  1  0  0  0  0
 13 16  1  0  0  0  0
 17 18  1  0  0  0  0
 17 33  1  0  0  0  0
 18 21  1  0  0  0  0
 18 19  1  0  0  0  0
 19 20  2  0  0  0  0
M  END
> <s_m_source_file>
AV-unprocessed.smi

> <i_m_source_file_index>
1540

> <i_lp_mmshare_version>
43012

> <i_f3d_flags>
0

> <s_epik_input>
W0NIMl09W0NIXVtDSDJdT1tDQEhdKFtDSDNdKUMoPU8pW05IXWMxW2NIXWMoQyhGKShGKUYpW2NIXVtuSF1jMT1P

> <s_epik_cmdline>
J2VwaWtfcHl0aG9uJywgJy1waCcsICc3LjAnLCAnLXRuJywgJzgnLCAnLW1hJywgJzIwMCcsICctbWV0YWxfYmluZGluZycsICctaW1hZScsICc8aW5maWxlLm1hZT4nLCAnLW9tYWUnLCAnPG91dGZpbGUubWFlPic=

> <r_lp_tautomer_probability>
0.999

> <r_epik_Ionization_Penalty>
0.0086731

> <r_epik_Ionization_Penalty_Charging>
0.00867296

> <r_epik_Ionization_Penalty_Neutral>
1.3954e-07

> <r_epik_State_Penalty>
0.00654787

> <r_epik_Charging_Adjusted_Penalty>
0.0152208

> <i_epik_Tot_Q>
0

> <i_epik_Tot_abs_Q>
0

> <r_epik_Metal_State_Penalty>
0.320056

> <b_epik_Metal_Only>
0

> <s_lp_Force_Field>
OPLS_2005

> <r_lp_Energy>
17.7944

> <b_lp_Chiralities_Consistent>
1

> <s_lp_Variant>
AV-unprocessed.smi:1540-1

> <Gold.Version>
5.8.1

> <Gold.Id.Protein>
6NUR|6NUR_protein|mol2

> <Gold.PLP.Fitness>
43.4411

> <Gold.PLP.PLP>
-39.8840

> <Gold.PLP.part.hbond>
-2.0000

> <Gold.PLP.part.metal>
0.0000

> <Gold.PLP.part.buried>
-1.7382

> <Gold.PLP.part.nonpolar>
-35.0730

> <Gold.PLP.part.repulsive>
0.2126

> <Gold.PLP.ligand.clash>
0.0000

> <Gold.PLP.ligand.torsion>
1.0176

> <Gold.PLP.Chemscore.Hbond>
1.8480

> <Gold.PLP.Chemscore.CHOScore>
0.0000

> <Gold.PLP.Chemscore.Metal>
0.0000

> <Gold.Chemscore.Hbonds>
donor molecule, donor type, donor heavy atom, donor atom, acceptor molecule, acceptor atom, score
      P1  H  7989  7998       L1     8  0.85
      P1  H  7997  8010       L1    20  0.95

> <Gold.PLP.Chemscore.Internal.Correction>
0.0484

> <Gold.Rescore>
     Score         DG    S(hbond)    S(metal)    S(lipo)     H(rot)  DE(clash)    DE(int)     intcor
      9.61     -14.50       1.70        0.00      68.24       1.81       0.21       4.68       ----

> <Gold.Chemscore.Fitness>
9.6105

> <Gold.Chemscore.DG>
-14.4992

> <Gold.Chemscore.ZeroCoef>
-5.4800

> <Gold.Chemscore.Hbond>
1.6961

> <Gold.Chemscore.Metal>
0.0000

> <Gold.Chemscore.Lipo>
68.2370

> <Gold.Chemscore.Internal_Hbond>
0.0000

> <Gold.Chemscore.DEClash>
0.2061

> <Gold.Chemscore.DEInternal>
4.6827

> <Gold.Chemscore.Rot>
1.8084

> <Gold.Chemscore.Internal.Correction>
   9.000000E+99

> <Gold.Chemscore.Hbonds>
donor molecule, donor type, donor heavy atom, donor atom, acceptor molecule, acceptor atom, score
      P1  H  7989  7998       L1     8  0.25
      P1  H  7997  8010       L1    20  0.22

> <Gold.Chemscore.Hbond.Weighted>
-5.6650

> <Gold.Chemscore.Metal.Weighted>
-0.0000

> <Gold.Chemscore.Lipo.Weighted>
-7.9837

> <Gold.Chemscore.Internal_Hbond.Weighted>
0.0000

> <Gold.Chemscore.DEClash.Weighted>
0.2061

> <Gold.Chemscore.DEInternal.Weighted>
4.6827

> <Gold.Chemscore.Rot.Weighted>
4.6296

> <Gold.Chemscore.Internal.Correction.Weighted>
   9.000000E+99

> <Gold.Protein.RotatedTorsions>
[ 6907 6896 6895 6894 ] final  -54.89 input  -60.11 | X-H torsion
[ 7974 7965 7964 7962 ] final  129.24 input  175.53 | X-H torsion
[ 8008 7997 7996 7995 ] final   50.82 input   59.86 | X-H torsion
[ 10167 10162 10161 10158 ] final  143.95 input  -65.29 | X-H torsion
[ 10718 10713 10712 10709 ] final -122.59 input   66.30 | X-H torsion
[ 10763 10752 10751 10750 ] final   38.83 input  -60.55 | X-H torsion
[ 11005 11000 10999 10996 ] final  104.46 input  -57.11 | X-H torsion

> <Gold.Protein.ActiveResidues>
 VAL166  LYS551  ARG553  GLY616  TRP617  ASP618  TYR619  PRO620  LYS621  CYS622 
 ASP623  PHE694  ASN695  SER759  ASP760  ASP761  ALA762  ILE779  LEU786  VAL792 
 PHE793  MET794  SER795  GLU796  ALA797  LYS798  CYS799  TRP800  GLU811  SER814 

> <Gold.Protein.RotatedAtoms>
  150.8299  134.7547  159.6844 H   0  0  0  0  0  0  0  0  0  0  0  0  # atno 6907 bound_to 6896
  152.4405  134.5597  159.9900 H   0  0  0  0  0  0  0  0  0  0  0  0  # atno 6908 bound_to 6896
  151.5761  133.3346  159.3035 H   0  0  0  0  0  0  0  0  0  0  0  0  # atno 6909 bound_to 6896
  145.0308  139.4048  143.5151 H   0  0  0  0  0  0  0  0  0  0  0  0  # atno 7974 bound_to 7965
  155.4251  140.3448  155.4275 H   0  0  0  0  0  0  0  0  0  0  0  0  # atno 8008 bound_to 7997
  156.1370  140.1531  156.9011 H   0  0  0  0  0  0  0  0  0  0  0  0  # atno 8009 bound_to 7997
  154.4939  140.0833  156.7636 H   0  0  0  0  0  0  0  0  0  0  0  0  # atno 8010 bound_to 7997
  139.4958  144.6005  151.6490 H   0  0  0  0  0  0  0  0  0  0  0  0  # atno 10167 bound_to 10162
  156.1431  130.6480  150.9801 H   0  0  0  0  0  0  0  0  0  0  0  0  # atno 10718 bound_to 10713
  152.9987  135.6238  154.2368 H   0  0  0  0  0  0  0  0  0  0  0  0  # atno 10763 bound_to 10752
  154.2109  135.2800  155.2960 H   0  0  0  0  0  0  0  0  0  0  0  0  # atno 10764 bound_to 10752
  154.5607  135.5706  153.7063 H   0  0  0  0  0  0  0  0  0  0  0  0  # atno 10765 bound_to 10752
  139.8792  134.9301  156.5364 H   0  0  0  0  0  0  0  0  0  0  0  0  # atno 11005 bound_to 11000
  146.3498  139.9856  142.8691 LP  0  0  0  0  0  0  0  0  0  0  0  0  # atno 17320 bound_to 7965
  145.1773  140.9750  143.4286 LP  0  0  0  0  0  0  0  0  0  0  0  0  # atno 17321 bound_to 7965
  140.5654  144.0199  150.6190 LP  0  0  0  0  0  0  0  0  0  0  0  0  # atno 17342 bound_to 10162
  140.3298  143.3084  152.0698 LP  0  0  0  0  0  0  0  0  0  0  0  0  # atno 17343 bound_to 10162
  157.6593  131.0884  150.7876 LP  0  0  0  0  0  0  0  0  0  0  0  0  # atno 17370 bound_to 10713
  156.7949  130.4902  149.5379 LP  0  0  0  0  0  0  0  0  0  0  0  0  # atno 17371 bound_to 10713
  140.8342  133.8255  155.9013 LP  0  0  0  0  0  0  0  0  0  0  0  0  # atno 17394 bound_to 11000
  140.9299  134.2035  157.4871 LP  0  0  0  0  0  0  0  0  0  0  0  0  # atno 17395 bound_to 11000

$$$$
