AV-unprocessed.smi:591|AV-procd|sdf|3009|dock3
  -GOLD-   2262023513D 1   1.00000     0.00000
 Structure written by MMmdl.
 42 43  0  0  0  0  0  0  0  0  1 V2000
  149.5710  140.0759  157.6770 O   0  0  0  0  0  0  0  0  0  0  0  0
  150.4232  139.2591  158.0294 C   0  0  0  0  0  0  0  0  0  0  0  0
  151.9190  139.5994  157.9603 C   0  0  0  0  0  0  0  0  0  0  0  0
  152.3155  140.6760  158.8837 N   0  0  0  0  0  0  0  0  0  0  0  0
  151.7943  141.9607  158.6328 C   0  0  0  0  0  0  0  0  0  0  0  0
  152.0847  143.0316  159.3963 C   0  0  0  0  0  0  0  0  0  0  0  0
  151.4579  144.3928  159.1370 C   0  0  0  0  0  0  0  0  0  0  0  0
  151.8449  145.2820  160.0521 F   0  0  0  0  0  0  0  0  0  0  0  0
  151.8302  144.8414  157.9389 F   0  0  0  0  0  0  0  0  0  0  0  0
  150.1262  144.3223  159.1582 F   0  0  0  0  0  0  0  0  0  0  0  0
  152.9519  142.7964  160.5340 C   0  0  0  0  0  0  0  0  0  0  0  0
  153.4484  141.5715  160.7958 C   0  0  0  0  0  0  0  0  0  0  0  0
  153.1380  140.4203  159.9451 C   0  0  0  0  0  0  0  0  0  0  0  0
  153.5878  139.2969  160.1726 O   0  0  0  0  0  0  0  0  0  0  0  0
  150.1201  138.0308  158.4725 N   0  0  0  0  0  0  0  0  0  0  0  0
  148.7643  137.5172  158.6072 C   0  0  0  0  0  0  0  0  0  0  0  0
  148.7821  135.9960  158.8182 C   0  0  0  0  0  0  0  0  0  0  0  0
  147.8978  135.5505  159.9713 C   0  0  0  0  0  0  0  0  0  0  0  0
  147.7596  136.2883  161.0904 C   0  0  0  0  0  0  0  0  0  0  0  0
  146.8797  135.9002  162.2657 C   0  0  0  0  0  0  0  0  0  0  0  0
  145.9040  134.7635  161.9177 C   0  0  0  0  0  0  0  0  0  0  0  0
  146.6011  133.6648  161.1057 C   0  0  0  0  0  0  0  0  0  0  0  0
  147.1753  134.2198  159.7899 C   0  0  0  0  0  0  0  0  0  0  0  0
  152.5048  138.6997  158.1588 H   0  0  0  0  0  0  0  0  0  0  0  0
  152.1577  139.8721  156.9314 H   0  0  0  0  0  0  0  0  0  0  0  0
  151.1313  142.0176  157.7817 H   0  0  0  0  0  0  0  0  0  0  0  0
  153.2104  143.6171  161.1869 H   0  0  0  0  0  0  0  0  0  0  0  0
  154.0924  141.4335  161.6522 H   0  0  0  0  0  0  0  0  0  0  0  0
  150.8755  137.4153  158.7377 H   0  0  0  0  0  0  0  0  0  0  0  0
  148.2757  138.0062  159.4517 H   0  0  0  0  0  0  0  0  0  0  0  0
  148.1964  137.7724  157.7116 H   0  0  0  0  0  0  0  0  0  0  0  0
  148.4546  135.4864  157.9113 H   0  0  0  0  0  0  0  0  0  0  0  0
  149.8061  135.6677  159.0025 H   0  0  0  0  0  0  0  0  0  0  0  0
  148.3027  137.2167  161.1929 H   0  0  0  0  0  0  0  0  0  0  0  0
  147.5296  135.6004  163.0881 H   0  0  0  0  0  0  0  0  0  0  0  0
  146.3237  136.7752  162.6031 H   0  0  0  0  0  0  0  0  0  0  0  0
  145.4738  134.3488  162.8297 H   0  0  0  0  0  0  0  0  0  0  0  0
  145.0712  135.1627  161.3370 H   0  0  0  0  0  0  0  0  0  0  0  0
  147.4071  133.2357  161.7027 H   0  0  0  0  0  0  0  0  0  0  0  0
  145.9069  132.8508  160.8944 H   0  0  0  0  0  0  0  0  0  0  0  0
  146.3687  134.3651  159.0708 H   0  0  0  0  0  0  0  0  0  0  0  0
  147.8581  133.4892  159.3552 H   0  0  0  0  0  0  0  0  0  0  0  0
  1  2  2  0  0  0  0
  2  3  1  0  0  0  0
  2 15  1  0  0  0  0
  3  4  1  0  0  0  0
  3 24  1  0  0  0  0
  3 25  1  0  0  0  0
  4 13  1  0  0  0  0
  4  5  1  0  0  0  0
  5  6  2  0  0  0  0
  5 26  1  0  0  0  0
  6  7  1  0  0  0  0
  6 11  1  0  0  0  0
  7  8  1  0  0  0  0
  7  9  1  0  0  0  0
  7 10  1  0  0  0  0
 11 12  2  0  0  0  0
 11 27  1  0  0  0  0
 12 13  1  0  0  0  0
 12 28  1  0  0  0  0
 13 14  2  0  0  0  0
 15 16  1  0  0  0  0
 15 29  1  0  0  0  0
 16 17  1  0  0  0  0
 16 30  1  0  0  0  0
 16 31  1  0  0  0  0
 17 18  1  0  0  0  0
 17 32  1  0  0  0  0
 17 33  1  0  0  0  0
 18 23  1  0  0  0  0
 18 19  2  0  0  0  0
 19 20  1  0  0  0  0
 19 34  1  0  0  0  0
 20 21  1  0  0  0  0
 20 35  1  0  0  0  0
 20 36  1  0  0  0  0
 21 22  1  0  0  0  0
 21 37  1  0  0  0  0
 21 38  1  0  0  0  0
 22 23  1  0  0  0  0
 22 39  1  0  0  0  0
 22 40  1  0  0  0  0
 23 41  1  0  0  0  0
 23 42  1  0  0  0  0
M  END
> <s_m_source_file>
AV-unprocessed.smi

> <i_m_source_file_index>
591

> <i_lp_mmshare_version>
43012

> <i_f3d_flags>
0

> <s_epik_input>
Tz1jMVtjSF1bY0hdYyhDKEYpKEYpRilbY0hdbjFbQ0gyXUMoPU8pW05IXVtDSDJdW0NIMl1DMj1bQ0hdW0NIMl1bQ0gyXVtDSDJdW0NIMl0y

> <s_epik_cmdline>
J2VwaWtfcHl0aG9uJywgJy1waCcsICc3LjAnLCAnLXRuJywgJzgnLCAnLW1hJywgJzIwMCcsICctbWV0YWxfYmluZGluZycsICctaW1hZScsICc8aW5maWxlLm1hZT4nLCAnLW9tYWUnLCAnPG91dGZpbGUubWFlPic=

> <r_lp_tautomer_probability>
1

> <r_epik_Ionization_Penalty>
3.65086e-08

> <r_epik_Ionization_Penalty_Charging>
1.84051e-08

> <r_epik_Ionization_Penalty_Neutral>
1.81035e-08

> <r_epik_State_Penalty>
-0

> <r_epik_Charging_Adjusted_Penalty>
1.84051e-08

> <i_epik_Tot_Q>
0

> <i_epik_Tot_abs_Q>
0

> <r_epik_Metal_State_Penalty>
-0

> <b_epik_Metal_Only>
0

> <s_lp_Force_Field>
OPLS_2005

> <r_lp_Energy>
19.2896

> <b_lp_Chiralities_Consistent>
1

> <s_lp_Variant>
AV-unprocessed.smi:591-1

> <Gold.Version>
5.8.1

> <Gold.Id.Protein>
6NUR|6NUR_protein|mol2

> <Gold.PLP.Fitness>
53.3485

> <Gold.PLP.PLP>
-54.9009

> <Gold.PLP.part.hbond>
0.0000

> <Gold.PLP.part.metal>
0.0000

> <Gold.PLP.part.buried>
-6.7027

> <Gold.PLP.part.nonpolar>
-47.8974

> <Gold.PLP.part.repulsive>
0.1841

> <Gold.PLP.ligand.clash>
0.0000

> <Gold.PLP.ligand.torsion>
0.8499

> <Gold.PLP.Chemscore.Hbond>
0.0000

> <Gold.PLP.Chemscore.CHOScore>
0.0000

> <Gold.PLP.Chemscore.Metal>
0.0000

> <Gold.PLP.Chemscore.Internal.Correction>
0.1474

> <Gold.Rescore>
     Score         DG    S(hbond)    S(metal)    S(lipo)     H(rot)  DE(clash)    DE(int)     intcor
     13.23     -14.24       0.00        0.00     117.30       1.94       0.20       0.81       ----

> <Gold.Chemscore.Fitness>
13.2309

> <Gold.Chemscore.DG>
-14.2403

> <Gold.Chemscore.ZeroCoef>
-5.4800

> <Gold.Chemscore.Hbond>
0.0000

> <Gold.Chemscore.Metal>
0.0000

> <Gold.Chemscore.Lipo>
117.3008

> <Gold.Chemscore.Internal_Hbond>
0.0000

> <Gold.Chemscore.DEClash>
0.1981

> <Gold.Chemscore.DEInternal>
0.8112

> <Gold.Chemscore.Rot>
1.9390

> <Gold.Chemscore.Internal.Correction>
   9.000000E+99

> <Gold.Chemscore.Hbond.Weighted>
-0.0000

> <Gold.Chemscore.Metal.Weighted>
-0.0000

> <Gold.Chemscore.Lipo.Weighted>
-13.7242

> <Gold.Chemscore.Internal_Hbond.Weighted>
0.0000

> <Gold.Chemscore.DEClash.Weighted>
0.1981

> <Gold.Chemscore.DEInternal.Weighted>
0.8112

> <Gold.Chemscore.Rot.Weighted>
4.9639

> <Gold.Chemscore.Internal.Correction.Weighted>
   9.000000E+99

> <Gold.Protein.RotatedTorsions>
[ 6907 6896 6895 6894 ] final   22.04 input  -60.11 | X-H torsion
[ 7974 7965 7964 7962 ] final  -95.39 input  175.53 | X-H torsion
[ 8008 7997 7996 7995 ] final  156.16 input   59.86 | X-H torsion
[ 10167 10162 10161 10158 ] final   13.04 input  -65.29 | X-H torsion
[ 10718 10713 10712 10709 ] final -137.94 input   66.30 | X-H torsion
[ 10763 10752 10751 10750 ] final  153.29 input  -60.55 | X-H torsion
[ 11005 11000 10999 10996 ] final   86.12 input  -57.11 | X-H torsion

> <Gold.Protein.ActiveResidues>
 VAL166  LYS551  ARG553  GLY616  TRP617  ASP618  TYR619  PRO620  LYS621  CYS622 
 ASP623  PHE694  ASN695  SER759  ASP760  ASP761  ALA762  ILE779  LEU786  VAL792 
 PHE793  MET794  SER795  GLU796  ALA797  LYS798  CYS799  TRP800  GLU811  SER814 

> <Gold.Protein.RotatedAtoms>
  151.9211  135.0298  160.0521 H   0  0  0  0  0  0  0  0  0  0  0  0  # atno 6907 bound_to 6896
  152.2199  133.4970  159.5165 H   0  0  0  0  0  0  0  0  0  0  0  0  # atno 6908 bound_to 6896
  150.6997  134.1273  159.4099 H   0  0  0  0  0  0  0  0  0  0  0  0  # atno 6909 bound_to 6896
  145.3607  140.9491  143.2502 H   0  0  0  0  0  0  0  0  0  0  0  0  # atno 7974 bound_to 7965
  156.2438  140.1920  156.6913 H   0  0  0  0  0  0  0  0  0  0  0  0  # atno 8008 bound_to 7997
  154.6250  140.0603  156.9688 H   0  0  0  0  0  0  0  0  0  0  0  0  # atno 8009 bound_to 7997
  155.1802  140.3275  155.4379 H   0  0  0  0  0  0  0  0  0  0  0  0  # atno 8010 bound_to 7997
  140.6028  143.8569  150.6983 H   0  0  0  0  0  0  0  0  0  0  0  0  # atno 10167 bound_to 10162
  156.2937  130.7389  151.1422 H   0  0  0  0  0  0  0  0  0  0  0  0  # atno 10718 bound_to 10713
  154.1339  135.2825  155.3178 H   0  0  0  0  0  0  0  0  0  0  0  0  # atno 10763 bound_to 10752
  154.6336  135.5427  153.7711 H   0  0  0  0  0  0  0  0  0  0  0  0  # atno 10764 bound_to 10752
  153.0272  135.6469  154.1488 H   0  0  0  0  0  0  0  0  0  0  0  0  # atno 10765 bound_to 10752
  139.8953  134.8334  156.2677 H   0  0  0  0  0  0  0  0  0  0  0  0  # atno 11005 bound_to 11000
  144.8648  139.5124  143.6795 LP  0  0  0  0  0  0  0  0  0  0  0  0  # atno 17320 bound_to 7965
  146.2928  139.7190  142.9148 LP  0  0  0  0  0  0  0  0  0  0  0  0  # atno 17321 bound_to 7965
  140.2119  143.3877  152.1711 LP  0  0  0  0  0  0  0  0  0  0  0  0  # atno 17342 bound_to 10162
  139.5303  144.7151  151.5079 LP  0  0  0  0  0  0  0  0  0  0  0  0  # atno 17343 bound_to 10162
  157.7349  131.0577  150.5497 LP  0  0  0  0  0  0  0  0  0  0  0  0  # atno 17370 bound_to 10713
  156.5616  130.4257  149.6060 LP  0  0  0  0  0  0  0  0  0  0  0  0  # atno 17371 bound_to 10713
  141.0121  133.7089  156.1129 LP  0  0  0  0  0  0  0  0  0  0  0  0  # atno 17394 bound_to 11000
  140.7352  134.4210  157.5561 LP  0  0  0  0  0  0  0  0  0  0  0  0  # atno 17395 bound_to 11000

$$$$
