AV-unprocessed.smi:10|AV-procd|sdf|54|dock10
  -GOLD-   2262015173D 1   1.00000     0.00000
 Structure written by MMmdl.
 34 36  0  0  0  0  0  0  0  0  1 V2000
  152.6400  143.4960  162.0098 C   0  0  0  0  0  0  0  0  0  0  0  0
  152.7785  142.5319  160.9379 N   0  0  0  0  0  0  0  0  0  0  0  0
  153.5620  141.4373  160.9188 C   0  0  0  0  0  0  0  0  0  0  0  0
  153.5003  140.7173  159.7999 N   0  0  0  0  0  0  0  0  0  0  0  0
  152.5849  141.4331  159.0364 C   0  0  0  0  0  0  0  0  0  0  0  0
  152.0607  141.1831  157.6741 C   0  0  0  0  0  0  0  0  0  0  0  0
  152.4061  140.2103  157.0028 O   0  0  0  0  0  0  0  0  0  0  0  0
  151.1711  142.1340  157.2595 N   0  0  0  0  0  0  0  0  0  0  0  0
  150.5535  142.0595  155.9264 C   0  0  0  0  0  0  0  0  0  0  0  0
  149.7185  140.7741  155.7384 C   0  0  1  0  0  0  0  0  0  0  0  0
  148.8236  140.6610  156.8280 O   0  0  0  0  0  0  0  0  0  0  0  0
  148.9096  140.8049  154.4378 C   0  0  0  0  0  0  0  0  0  0  0  0
  147.7801  141.8263  154.2269 C   0  0  0  0  0  0  0  0  0  0  0  0
  147.0504  140.7711  153.3886 C   0  0  0  0  0  0  0  0  0  0  0  0
  147.8871  139.7057  154.1054 C   0  0  0  0  0  0  0  0  0  0  0  0
  150.7835  143.2364  158.0795 C   0  0  0  0  0  0  0  0  0  0  0  0
  151.2274  143.4821  159.2848 N   0  0  0  0  0  0  0  0  0  0  0  0
  152.1341  142.5358  159.7070 C   0  0  0  0  0  0  0  0  0  0  0  0
  153.2354  143.1920  162.8712 H   0  0  0  0  0  0  0  0  0  0  0  0
  151.5936  143.5658  162.3081 H   0  0  0  0  0  0  0  0  0  0  0  0
  152.9814  144.4737  161.6691 H   0  0  0  0  0  0  0  0  0  0  0  0
  154.1966  141.1602  161.7480 H   0  0  0  0  0  0  0  0  0  0  0  0
  149.9527  142.9436  155.7023 H   0  0  0  0  0  0  0  0  0  0  0  0
  151.3505  142.0830  155.1807 H   0  0  0  0  0  0  0  0  0  0  0  0
  150.3653  139.8959  155.7340 H   0  0  0  0  0  0  0  0  0  0  0  0
  149.3105  140.7846  157.6285 H   0  0  0  0  0  0  0  0  0  0  0  0
  149.5920  140.8855  153.5885 H   0  0  0  0  0  0  0  0  0  0  0  0
  147.2457  142.0748  155.1451 H   0  0  0  0  0  0  0  0  0  0  0  0
  148.0736  142.7224  153.6793 H   0  0  0  0  0  0  0  0  0  0  0  0
  145.9771  140.7069  153.5692 H   0  0  0  0  0  0  0  0  0  0  0  0
  147.2793  140.8440  152.3242 H   0  0  0  0  0  0  0  0  0  0  0  0
  148.2653  138.9129  153.4596 H   0  0  0  0  0  0  0  0  0  0  0  0
  147.3805  139.2998  154.9822 H   0  0  0  0  0  0  0  0  0  0  0  0
  150.0504  143.8945  157.6098 H   0  0  0  0  0  0  0  0  0  0  0  0
  1  2  1  0  0  0  0
  1 19  1  0  0  0  0
  1 20  1  0  0  0  0
  1 21  1  0  0  0  0
  2 18  1  0  0  0  0
  2  3  1  0  0  0  0
  3  4  2  0  0  0  0
  3 22  1  0  0  0  0
  4  5  1  0  0  0  0
  5 18  2  0  0  0  0
  5  6  1  0  0  0  0
  6  7  2  0  0  0  0
  6  8  1  0  0  0  0
  8  9  1  0  0  0  0
  8 16  1  0  0  0  0
  9 10  1  0  0  0  0
  9 23  1  0  0  0  0
  9 24  1  0  0  0  0
 10 11  1  0  0  0  0
 10 12  1  0  0  0  0
 10 25  1  0  0  0  0
 11 26  1  0  0  0  0
 12 15  1  0  0  0  0
 12 13  1  0  0  0  0
 12 27  1  0  0  0  0
 13 14  1  0  0  0  0
 13 28  1  0  0  0  0
 13 29  1  0  0  0  0
 14 15  1  0  0  0  0
 14 30  1  0  0  0  0
 14 31  1  0  0  0  0
 15 32  1  0  0  0  0
 15 33  1  0  0  0  0
 16 17  2  0  0  0  0
 16 34  1  0  0  0  0
 17 18  1  0  0  0  0
M  END
> <s_m_source_file>
AV-unprocessed.smi

> <i_m_source_file_index>
10

> <i_lp_mmshare_version>
43012

> <i_f3d_flags>
0

> <s_epik_input>
bjFbY0hdbihbQ0gzXSljKGMxMiluW2NIXW4oYzI9TylbQ0gyXVtDQEhdKFtPSF0pW0NIXTNbQ0gyXVtDSDJdW0NIMl0z

> <s_epik_cmdline>
J2VwaWtfcHl0aG9uJywgJy1waCcsICc3LjAnLCAnLXRuJywgJzgnLCAnLW1hJywgJzIwMCcsICctbWV0YWxfYmluZGluZycsICctaW1hZScsICc8aW5maWxlLm1hZT4nLCAnLW9tYWUnLCAnPG91dGZpbGUubWFlPic=

> <r_lp_tautomer_probability>
1

> <r_epik_Ionization_Penalty>
0.0003743

> <r_epik_Ionization_Penalty_Charging>
2.98177e-12

> <r_epik_Ionization_Penalty_Neutral>
0.000374299

> <r_epik_State_Penalty>
0.000224514

> <r_epik_Charging_Adjusted_Penalty>
0.000224514

> <i_epik_Tot_Q>
0

> <i_epik_Tot_abs_Q>
0

> <r_epik_Metal_State_Penalty>
-0

> <b_epik_Metal_Only>
0

> <s_lp_Force_Field>
OPLS_2005

> <r_lp_Energy>
33.6231

> <b_lp_Chiralities_Consistent>
1

> <s_lp_Variant>
AV-unprocessed.smi:10-2

> <Gold.Version>
5.8.1

> <Gold.Id.Protein>
6NUR|6NUR_protein|mol2

> <Gold.PLP.Fitness>
45.2888

> <Gold.PLP.PLP>
-39.3640

> <Gold.PLP.part.hbond>
-1.0000

> <Gold.PLP.part.metal>
0.0000

> <Gold.PLP.part.buried>
-4.4818

> <Gold.PLP.part.nonpolar>
-32.3454

> <Gold.PLP.part.repulsive>
0.0433

> <Gold.PLP.ligand.clash>
0.0000

> <Gold.PLP.ligand.torsion>
0.0770

> <Gold.PLP.Chemscore.Hbond>
1.0000

> <Gold.PLP.Chemscore.CHOScore>
1.0000

> <Gold.PLP.Chemscore.Metal>
0.0000

> <Gold.Chemscore.Hbonds>
donor molecule, donor type, donor heavy atom, donor atom, acceptor molecule, acceptor atom, score
      P1  H  7997  8009       L1     7  0.90
      L1  C    16    34       P1  8028  1.00

> <Gold.PLP.Chemscore.Internal.Correction>
0.0787

> <Gold.Rescore>
     Score         DG    S(hbond)    S(metal)    S(lipo)     H(rot)  DE(clash)    DE(int)     intcor
      9.53      -9.91       0.88        0.00      62.67       2.28       0.17       0.21       ----

> <Gold.Chemscore.Fitness>
9.5297

> <Gold.Chemscore.DG>
-9.9090

> <Gold.Chemscore.ZeroCoef>
-5.4800

> <Gold.Chemscore.Hbond>
0.8802

> <Gold.Chemscore.Metal>
0.0000

> <Gold.Chemscore.Lipo>
62.6685

> <Gold.Chemscore.Internal_Hbond>
0.0000

> <Gold.Chemscore.DEClash>
0.1743

> <Gold.Chemscore.DEInternal>
0.2050

> <Gold.Chemscore.Rot>
2.2824

> <Gold.Chemscore.Internal.Correction>
   9.000000E+99

> <Gold.Chemscore.Hbonds>
donor molecule, donor type, donor heavy atom, donor atom, acceptor molecule, acceptor atom, score
      P1  H  7997  8009       L1     7  0.71

> <Gold.Chemscore.Hbond.Weighted>
-2.9399

> <Gold.Chemscore.Metal.Weighted>
-0.0000

> <Gold.Chemscore.Lipo.Weighted>
-7.3322

> <Gold.Chemscore.Internal_Hbond.Weighted>
0.0000

> <Gold.Chemscore.DEClash.Weighted>
0.1743

> <Gold.Chemscore.DEInternal.Weighted>
0.2050

> <Gold.Chemscore.Rot.Weighted>
5.8431

> <Gold.Chemscore.Internal.Correction.Weighted>
   9.000000E+99

> <Gold.Protein.RotatedTorsions>
[ 6907 6896 6895 6894 ] final  167.07 input  -60.11 | X-H torsion
[ 7974 7965 7964 7962 ] final   57.41 input  175.53 | X-H torsion
[ 8008 7997 7996 7995 ] final  170.09 input   59.86 | X-H torsion
[ 10167 10162 10161 10158 ] final  -84.56 input  -65.29 | X-H torsion
[ 10718 10713 10712 10709 ] final  149.87 input   66.30 | X-H torsion
[ 10763 10752 10751 10750 ] final -135.47 input  -60.55 | X-H torsion
[ 11005 11000 10999 10996 ] final  -92.17 input  -57.11 | X-H torsion

> <Gold.Protein.ActiveResidues>
 VAL166  LYS551  ARG553  GLY616  TRP617  ASP618  TYR619  PRO620  LYS621  CYS622 
 ASP623  PHE694  ASN695  SER759  ASP760  ASP761  ALA762  ILE779  LEU786  VAL792 
 PHE793  MET794  SER795  GLU796  ALA797  LYS798  CYS799  TRP800  GLU811  SER814 

> <Gold.Protein.RotatedAtoms>
  151.8690  133.3472  159.3728 H   0  0  0  0  0  0  0  0  0  0  0  0  # atno 6907 bound_to 6896
  150.7158  134.5132  159.5626 H   0  0  0  0  0  0  0  0  0  0  0  0  # atno 6908 bound_to 6896
  152.2660  134.7984  160.0473 H   0  0  0  0  0  0  0  0  0  0  0  0  # atno 6909 bound_to 6896
  145.9293  139.3794  143.0431 H   0  0  0  0  0  0  0  0  0  0  0  0  # atno 7974 bound_to 7965
  156.1398  140.1547  156.8938 H   0  0  0  0  0  0  0  0  0  0  0  0  # atno 8008 bound_to 7997
  154.4978  140.0833  156.7771 H   0  0  0  0  0  0  0  0  0  0  0  0  # atno 8009 bound_to 7997
  155.4100  140.3418  155.4265 H   0  0  0  0  0  0  0  0  0  0  0  0  # atno 8010 bound_to 7997
  140.4121  143.2618  151.9004 H   0  0  0  0  0  0  0  0  0  0  0  0  # atno 10167 bound_to 10162
  157.2906  131.0852  151.1464 H   0  0  0  0  0  0  0  0  0  0  0  0  # atno 10718 bound_to 10713
  154.8702  135.3702  154.4903 H   0  0  0  0  0  0  0  0  0  0  0  0  # atno 10763 bound_to 10752
  153.5550  135.7024  153.5578 H   0  0  0  0  0  0  0  0  0  0  0  0  # atno 10764 bound_to 10752
  153.3680  135.4029  155.1731 H   0  0  0  0  0  0  0  0  0  0  0  0  # atno 10765 bound_to 10752
  141.1528  133.7803  156.9982 H   0  0  0  0  0  0  0  0  0  0  0  0  # atno 11005 bound_to 11000
  145.8447  140.9562  143.0781 LP  0  0  0  0  0  0  0  0  0  0  0  0  # atno 17320 bound_to 7965
  144.6763  140.0329  143.7482 LP  0  0  0  0  0  0  0  0  0  0  0  0  # atno 17321 bound_to 7965
  139.4782  144.5526  151.8362 LP  0  0  0  0  0  0  0  0  0  0  0  0  # atno 17342 bound_to 10162
  140.4627  144.1700  150.5908 LP  0  0  0  0  0  0  0  0  0  0  0  0  # atno 17343 bound_to 10162
  157.2862  130.6774  149.6091 LP  0  0  0  0  0  0  0  0  0  0  0  0  # atno 17370 bound_to 10713
  155.9667  130.4434  150.5422 LP  0  0  0  0  0  0  0  0  0  0  0  0  # atno 17371 bound_to 10713
  140.0958  134.9565  157.1847 LP  0  0  0  0  0  0  0  0  0  0  0  0  # atno 17394 bound_to 11000
  140.3385  134.2731  155.7216 LP  0  0  0  0  0  0  0  0  0  0  0  0  # atno 17395 bound_to 11000

$$$$
