AV-unprocessed.smi:2226|AV-procd|sdf|9006|dock10
  -GOLD-   2272012213D 1   1.00000     0.00000
 Structure written by MMmdl.
 41 43  0  0  0  0  0  0  0  0  3 V2000
  143.9842  132.7064  148.8863 C   0  0  0  0  0  0  0  0  0  0  0  0
  143.8073  133.6045  150.0521 N   0  3  2  0  0  0  0  0  0  0  0  0
  144.9236  134.5527  150.2857 C   0  0  1  0  0  0  0  0  0  0  0  0
  144.4265  135.6892  151.2101 C   0  0  0  0  0  0  0  0  0  0  0  0
  143.7754  135.1937  152.5182 C   0  0  0  0  0  0  0  0  0  0  0  0
  142.8650  133.9673  152.2996 C   0  0  0  0  0  0  0  0  0  0  0  0
  143.4442  132.9215  151.3178 C   0  0  2  0  0  0  0  0  0  0  0  0
  144.6316  132.0940  151.8730 C   0  0  0  0  0  0  0  0  0  0  0  0
  145.9612  132.8748  151.9864 C   0  0  1  0  0  0  0  0  0  0  0  0
  147.0749  131.9306  152.0905 N   0  0  0  0  0  0  0  0  0  0  0  0
  147.5975  131.4560  153.2331 C   0  0  0  0  0  0  0  0  0  0  0  0
  147.1921  131.7661  154.3535 O   0  0  0  0  0  0  0  0  0  0  0  0
  148.6105  130.6065  153.0007 N   0  0  0  0  0  0  0  0  0  0  0  0
  149.3682  129.9378  153.9903 C   0  0  0  0  0  0  0  0  0  0  0  0
  150.3241  129.0490  153.7236 N   0  3  0  0  0  0  0  0  0  0  0  0
  150.8505  128.5991  154.9091 C   0  0  0  0  0  0  0  0  0  0  0  0
  150.1638  129.2615  155.8980 C   0  0  0  0  0  0  0  0  0  0  0  0
  149.2282  130.1069  155.3360 O   0  0  0  0  0  0  0  0  0  0  0  0
  146.1942  133.8170  150.7830 C   0  0  0  0  0  0  0  0  0  0  0  0
  144.8245  132.0245  149.0127 H   0  0  0  0  0  0  0  0  0  0  0  0
  144.1554  133.2895  147.9812 H   0  0  0  0  0  0  0  0  0  0  0  0
  143.0856  132.1097  148.7276 H   0  0  0  0  0  0  0  0  0  0  0  0
  145.1709  135.0186  149.3305 H   0  0  0  0  0  0  0  0  0  0  0  0
  145.2389  136.3811  151.4353 H   0  0  0  0  0  0  0  0  0  0  0  0
  143.6843  136.2718  150.6625 H   0  0  0  0  0  0  0  0  0  0  0  0
  144.5364  134.9739  153.2616 H   0  0  0  0  0  0  0  0  0  0  0  0
  143.1927  136.0023  152.9612 H   0  0  0  0  0  0  0  0  0  0  0  0
  142.6278  133.5020  153.2570 H   0  0  0  0  0  0  0  0  0  0  0  0
  141.9139  134.3195  151.8977 H   0  0  0  0  0  0  0  0  0  0  0  0
  142.6352  132.2226  151.0995 H   0  0  0  0  0  0  0  0  0  0  0  0
  144.3687  131.6710  152.8433 H   0  0  0  0  0  0  0  0  0  0  0  0
  144.7799  131.2351  151.2171 H   0  0  0  0  0  0  0  0  0  0  0  0
  145.9275  133.4770  152.8898 H   0  0  0  0  0  0  0  0  0  0  0  0
  147.4783  131.6149  151.2202 H   0  0  0  0  0  0  0  0  0  0  0  0
  150.6405  128.7303  152.8163 H   0  0  0  0  0  0  0  0  0  0  0  0
  151.6454  127.8673  154.9310 H   0  0  0  0  0  0  0  0  0  0  0  0
  150.2124  129.2488  156.9773 H   0  0  0  0  0  0  0  0  0  0  0  0
  146.5951  133.2365  149.9509 H   0  0  0  0  0  0  0  0  0  0  0  0
  146.9719  134.5416  151.0273 H   0  0  0  0  0  0  0  0  0  0  0  0
  143.0096  134.1770  149.8136 H   0  0  0  0  0  0  0  0  0  0  0  0
  148.8610  130.4227  152.0405 H   0  0  0  0  0  0  0  0  0  0  0  0
  1  2  1  0  0  0  0
  1 20  1  0  0  0  0
  1 21  1  0  0  0  0
  1 22  1  0  0  0  0
  2  7  1  0  0  0  0
  2  3  1  0  0  0  0
  2 40  1  0  0  0  0
  3 19  1  0  0  0  0
  3  4  1  0  0  0  0
  3 23  1  0  0  0  0
  4  5  1  0  0  0  0
  4 24  1  0  0  0  0
  4 25  1  0  0  0  0
  5  6  1  0  0  0  0
  5 26  1  0  0  0  0
  5 27  1  0  0  0  0
  6  7  1  0  0  0  0
  6 28  1  0  0  0  0
  6 29  1  0  0  0  0
  7  8  1  0  0  0  0
  7 30  1  0  0  0  0
  8  9  1  0  0  0  0
  8 31  1  0  0  0  0
  8 32  1  0  0  0  0
  9 10  1  0  0  0  0
  9 19  1  0  0  0  0
  9 33  1  0  0  0  0
 10 34  1  0  0  0  0
 10 11  1  0  0  0  0
 11 13  1  0  0  0  0
 11 12  2  0  0  0  0
 13 14  1  0  0  0  0
 13 41  1  0  0  0  0
 14 18  1  0  0  0  0
 14 15  2  0  0  0  0
 15 35  1  0  0  0  0
 15 16  1  0  0  0  0
 16 36  1  0  0  0  0
 16 17  2  0  0  0  0
 17 37  1  0  0  0  0
 17 18  1  0  0  0  0
 19 38  1  0  0  0  0
 19 39  1  0  0  0  0
M  CHG  1   2   1
M  CHG  1  15   1
M  END
> <s_m_source_file>
AV-unprocessed.smi

> <i_m_source_file_index>
2226

> <i_lp_mmshare_version>
43012

> <i_f3d_flags>
0

> <s_epik_input>
W0NIMl0xW0NIMl1bQ0gyXVtDQEhdKE4oW0NIM10pW0NIXTEyKVtDSDJdW0NASF0oW0NIMl0yKVtOSF1DKD1PKVtOSF1jM25bY0hdW2NIXW8z

> <s_epik_cmdline>
J2VwaWtfcHl0aG9uJywgJy1waCcsICc3LjAnLCAnLXRuJywgJzgnLCAnLW1hJywgJzIwMCcsICctbWV0YWxfYmluZGluZycsICctaW1hZScsICc8aW5maWxlLm1hZT4nLCAnLW9tYWUnLCAnPG91dGZpbGUubWFlPic=

> <r_epik_Ionization_Penalty>
6.92532

> <r_epik_Ionization_Penalty_Charging>
6.82059

> <r_epik_Ionization_Penalty_Neutral>
0.104727

> <r_epik_State_Penalty>
2.17671

> <r_epik_Charging_Adjusted_Penalty>
8.99731

> <i_epik_Tot_Q>
2

> <i_epik_Tot_abs_Q>
2

> <r_epik_Metal_State_Penalty>
2.20618

> <b_epik_Metal_Only>
0

> <s_lp_Force_Field>
OPLS_2005

> <r_lp_Energy>
47.1954

> <b_lp_Chiralities_Consistent>
1

> <s_lp_Variant>
AV-unprocessed.smi:2226-6

> <Gold.Version>
5.8.1

> <Gold.Id.Protein>
6NUR|6NUR_protein|mol2

> <Gold.PLP.Fitness>
44.1801

> <Gold.PLP.PLP>
-30.0668

> <Gold.PLP.part.hbond>
-4.0000

> <Gold.PLP.part.metal>
0.0000

> <Gold.PLP.part.buried>
-0.5169

> <Gold.PLP.part.nonpolar>
-25.1712

> <Gold.PLP.part.repulsive>
0.2128

> <Gold.PLP.ligand.clash>
0.0000

> <Gold.PLP.ligand.torsion>
0.3619

> <Gold.PLP.Chemscore.Hbond>
4.9435

> <Gold.PLP.Chemscore.CHOScore>
0.0000

> <Gold.PLP.Chemscore.Metal>
0.0000

> <Gold.Chemscore.Hbonds>
donor molecule, donor type, donor heavy atom, donor atom, acceptor molecule, acceptor atom, score
      L1  H     2    40       P1 10186  2.00
      L1  H    10    34       P1 10747  0.98
      L1  H    13    41       P1 10747  1.00
      L1  H    15    35       P1 10737  0.97

> <Gold.PLP.Chemscore.Internal.Correction>
0.0066

> <Gold.Rescore>
     Score         DG    S(hbond)    S(metal)    S(lipo)     H(rot)  DE(clash)    DE(int)     intcor
     19.16     -21.07       3.03        0.00      68.71       1.00       0.15       1.76       ----

> <Gold.Chemscore.Fitness>
19.1608

> <Gold.Chemscore.DG>
-21.0666

> <Gold.Chemscore.ZeroCoef>
-5.4800

> <Gold.Chemscore.Hbond>
3.0262

> <Gold.Chemscore.Metal>
0.0000

> <Gold.Chemscore.Lipo>
68.7094

> <Gold.Chemscore.Internal_Hbond>
0.0000

> <Gold.Chemscore.DEClash>
0.1485

> <Gold.Chemscore.DEInternal>
1.7573

> <Gold.Chemscore.Rot>
1.0000

> <Gold.Chemscore.Internal.Correction>
   9.000000E+99

> <Gold.Chemscore.Hbonds>
donor molecule, donor type, donor heavy atom, donor atom, acceptor molecule, acceptor atom, score
      L1  H     2    40       P1 10186  0.90
      L1  H    10    34       P1 10747  0.93
      L1  H    13    41       P1 10747  0.34
      L1  H    15    35       P1 10737  0.80

> <Gold.Chemscore.Hbond.Weighted>
-10.1076

> <Gold.Chemscore.Metal.Weighted>
-0.0000

> <Gold.Chemscore.Lipo.Weighted>
-8.0390

> <Gold.Chemscore.Internal_Hbond.Weighted>
0.0000

> <Gold.Chemscore.DEClash.Weighted>
0.1485

> <Gold.Chemscore.DEInternal.Weighted>
1.7573

> <Gold.Chemscore.Rot.Weighted>
2.5600

> <Gold.Chemscore.Internal.Correction.Weighted>
   9.000000E+99

> <Gold.Protein.RotatedTorsions>
[ 6907 6896 6895 6894 ] final   18.72 input  -60.11 | X-H torsion
[ 7974 7965 7964 7962 ] final  -88.71 input  175.53 | X-H torsion
[ 8008 7997 7996 7995 ] final   91.53 input   59.86 | X-H torsion
[ 10167 10162 10161 10158 ] final -175.13 input  -65.29 | X-H torsion
[ 10718 10713 10712 10709 ] final   31.12 input   66.30 | X-H torsion
[ 10763 10752 10751 10750 ] final   79.31 input  -60.55 | X-H torsion
[ 11005 11000 10999 10996 ] final  -59.74 input  -57.11 | X-H torsion

> <Gold.Protein.ActiveResidues>
 VAL166  LYS551  ARG553  GLY616  TRP617  ASP618  TYR619  PRO620  LYS621  CYS622 
 ASP623  PHE694  ASN695  SER759  ASP760  ASP761  ALA762  ILE779  LEU786  VAL792 
 PHE793  MET794  SER795  GLU796  ALA797  LYS798  CYS799  TRP800  GLU811  SER814 

> <Gold.Protein.RotatedAtoms>
  151.8696  135.0494  160.0477 H   0  0  0  0  0  0  0  0  0  0  0  0  # atno 6907 bound_to 6896
  152.2598  133.5283  159.5383 H   0  0  0  0  0  0  0  0  0  0  0  0  # atno 6908 bound_to 6896
  150.7112  134.0761  159.3924 H   0  0  0  0  0  0  0  0  0  0  0  0  # atno 6909 bound_to 6896
  145.4495  140.9560  143.2030 H   0  0  0  0  0  0  0  0  0  0  0  0  # atno 7974 bound_to 7965
  156.0248  140.3336  155.7076 H   0  0  0  0  0  0  0  0  0  0  0  0  # atno 8008 bound_to 7997
  155.5971  140.0652  157.2761 H   0  0  0  0  0  0  0  0  0  0  0  0  # atno 8009 bound_to 7997
  154.4330  140.1817  156.1122 H   0  0  0  0  0  0  0  0  0  0  0  0  # atno 8010 bound_to 7997
  139.5597  144.1900  152.1218 H   0  0  0  0  0  0  0  0  0  0  0  0  # atno 10167 bound_to 10162
  157.2684  130.7195  149.6491 H   0  0  0  0  0  0  0  0  0  0  0  0  # atno 10718 bound_to 10713
  153.0942  135.4844  154.8748 H   0  0  0  0  0  0  0  0  0  0  0  0  # atno 10763 bound_to 10752
  154.7305  135.3059  154.8901 H   0  0  0  0  0  0  0  0  0  0  0  0  # atno 10764 bound_to 10752
  153.9538  135.6820  153.4797 H   0  0  0  0  0  0  0  0  0  0  0  0  # atno 10765 bound_to 10752
  141.1260  133.6618  156.5118 H   0  0  0  0  0  0  0  0  0  0  0  0  # atno 11005 bound_to 11000
  144.8070  139.6032  143.7046 LP  0  0  0  0  0  0  0  0  0  0  0  0  # atno 17320 bound_to 7965
  146.2512  139.6204  142.9426 LP  0  0  0  0  0  0  0  0  0  0  0  0  # atno 17321 bound_to 7965
  140.1411  144.5201  150.6743 LP  0  0  0  0  0  0  0  0  0  0  0  0  # atno 17342 bound_to 10162
  140.6875  143.2358  151.5220 LP  0  0  0  0  0  0  0  0  0  0  0  0  # atno 17343 bound_to 10162
  155.9663  130.4375  150.5179 LP  0  0  0  0  0  0  0  0  0  0  0  0  # atno 17370 bound_to 10713
  157.3099  131.0661  151.2008 LP  0  0  0  0  0  0  0  0  0  0  0  0  # atno 17371 bound_to 10713
  140.4363  134.7056  157.4968 LP  0  0  0  0  0  0  0  0  0  0  0  0  # atno 17394 bound_to 11000
  140.0259  134.6477  155.9173 LP  0  0  0  0  0  0  0  0  0  0  0  0  # atno 17395 bound_to 11000

$$$$
