AV-unprocessed.smi:2252|AV-procd|sdf|9105|dock10
  -GOLD-   2272012303D 1   1.00000     0.00000
 Structure written by MMmdl.
 45 47  0  0  0  0  0  0  0  0  2 V2000
  151.4156  145.2847  159.6038 C   0  0  0  0  0  0  0  0  0  0  0  0
  151.9509  144.1039  160.2539 N   0  0  0  0  0  0  0  0  0  0  0  0
  152.3236  144.0057  161.5879 C   0  0  0  0  0  0  0  0  0  0  0  0
  152.7684  142.7198  161.7793 C   0  0  0  0  0  0  0  0  0  0  0  0
  152.6769  142.0175  160.5825 N   0  0  0  0  0  0  0  0  0  0  0  0
  152.1896  142.8948  159.7103 C   0  0  0  0  0  0  0  0  0  0  0  0
  151.9045  142.5663  158.2781 C   0  0  0  0  0  0  0  0  0  0  0  0
  150.3991  142.5782  157.9638 C   0  0  0  0  0  0  0  0  0  0  0  0
  150.1316  142.2025  156.5806 N   0  0  0  0  0  0  0  0  0  0  0  0
  149.2354  141.2819  156.1926 C   0  0  0  0  0  0  0  0  0  0  0  0
  148.5289  140.6523  156.9803 O   0  0  0  0  0  0  0  0  0  0  0  0
  149.1049  141.0409  154.6813 C   0  0  2  0  0  0  0  0  0  0  0  0
  147.6150  140.8192  154.3435 C   0  0  0  0  0  0  0  0  0  0  0  0
  147.1260  140.8203  152.9113 C   0  0  0  0  0  0  0  0  0  0  0  0
  146.7578  141.9568  153.8300 C   0  0  0  0  0  0  0  0  0  0  0  0
  149.9428  139.8916  154.2350 N   0  3  0  0  0  0  0  0  0  0  0  0
  151.3371  139.8975  154.7266 C   0  0  0  0  0  0  0  0  0  0  0  0
  151.8447  138.4586  154.5882 C   0  0  0  0  0  0  0  0  0  0  0  0
  150.5910  137.5923  154.4313 C   0  0  0  0  0  0  0  0  0  0  0  0
  149.4126  138.5551  154.5831 C   0  0  0  0  0  0  0  0  0  0  0  0
  151.2343  146.0695  160.3386 H   0  0  0  0  0  0  0  0  0  0  0  0
  150.4751  145.0427  159.1083 H   0  0  0  0  0  0  0  0  0  0  0  0
  152.1280  145.6522  158.8647 H   0  0  0  0  0  0  0  0  0  0  0  0
  152.2422  144.8361  162.2737 H   0  0  0  0  0  0  0  0  0  0  0  0
  153.1427  142.2498  162.6767 H   0  0  0  0  0  0  0  0  0  0  0  0
  152.4335  143.2641  157.6287 H   0  0  0  0  0  0  0  0  0  0  0  0
  152.3242  141.5817  158.0682 H   0  0  0  0  0  0  0  0  0  0  0  0
  149.8606  141.9129  158.6411 H   0  0  0  0  0  0  0  0  0  0  0  0
  149.9947  143.5779  158.1247 H   0  0  0  0  0  0  0  0  0  0  0  0
  150.6625  142.6825  155.8681 H   0  0  0  0  0  0  0  0  0  0  0  0
  149.4537  141.9336  154.1580 H   0  0  0  0  0  0  0  0  0  0  0  0
  147.1117  140.1293  155.0192 H   0  0  0  0  0  0  0  0  0  0  0  0
  147.8491  141.0278  152.1250 H   0  0  0  0  0  0  0  0  0  0  0  0
  146.3441  140.1106  152.6493 H   0  0  0  0  0  0  0  0  0  0  0  0
  145.7286  142.0079  154.1795 H   0  0  0  0  0  0  0  0  0  0  0  0
  147.2373  142.9177  153.6530 H   0  0  0  0  0  0  0  0  0  0  0  0
  151.9577  140.6057  154.1764 H   0  0  0  0  0  0  0  0  0  0  0  0
  151.3499  140.1849  155.7791 H   0  0  0  0  0  0  0  0  0  0  0  0
  152.4802  138.3583  153.7076 H   0  0  0  0  0  0  0  0  0  0  0  0
  152.4372  138.1651  155.4557 H   0  0  0  0  0  0  0  0  0  0  0  0
  150.5782  137.1402  153.4389 H   0  0  0  0  0  0  0  0  0  0  0  0
  150.5506  136.7835  155.1616 H   0  0  0  0  0  0  0  0  0  0  0  0
  149.0738  138.5560  155.6206 H   0  0  0  0  0  0  0  0  0  0  0  0
  148.5685  138.2690  153.9546 H   0  0  0  0  0  0  0  0  0  0  0  0
  149.9921  139.9282  153.2266 H   0  0  0  0  0  0  0  0  0  0  0  0
  1  2  1  0  0  0  0
  1 21  1  0  0  0  0
  1 22  1  0  0  0  0
  1 23  1  0  0  0  0
  2  6  1  0  0  0  0
  2  3  1  0  0  0  0
  3  4  2  0  0  0  0
  3 24  1  0  0  0  0
  4  5  1  0  0  0  0
  4 25  1  0  0  0  0
  5  6  2  0  0  0  0
  6  7  1  0  0  0  0
  7  8  1  0  0  0  0
  7 26  1  0  0  0  0
  7 27  1  0  0  0  0
  8  9  1  0  0  0  0
  8 28  1  0  0  0  0
  8 29  1  0  0  0  0
  9 10  1  0  0  0  0
  9 30  1  0  0  0  0
 10 11  2  0  0  0  0
 10 12  1  0  0  0  0
 12 13  1  0  0  0  0
 12 16  1  0  0  0  0
 12 31  1  0  0  0  0
 13 15  1  0  0  0  0
 13 14  1  0  0  0  0
 13 32  1  0  0  0  0
 14 15  1  0  0  0  0
 14 33  1  0  0  0  0
 14 34  1  0  0  0  0
 15 35  1  0  0  0  0
 15 36  1  0  0  0  0
 16 20  1  0  0  0  0
 16 17  1  0  0  0  0
 16 45  1  0  0  0  0
 17 18  1  0  0  0  0
 17 37  1  0  0  0  0
 17 38  1  0  0  0  0
 18 19  1  0  0  0  0
 18 39  1  0  0  0  0
 18 40  1  0  0  0  0
 19 20  1  0  0  0  0
 19 41  1  0  0  0  0
 19 42  1  0  0  0  0
 20 43  1  0  0  0  0
 20 44  1  0  0  0  0
M  CHG  1  16   1
M  END
> <s_m_source_file>
AV-unprocessed.smi

> <i_m_source_file_index>
2252

> <i_lp_mmshare_version>
43012

> <i_f3d_flags>
0

> <s_epik_input>
W0NIM11uMVtjSF1bY0hdbmMxW0NIMl1bQ0gyXVtOSF1DKD1PKVtDQEhdKFtDSF0yW0NIMl1bQ0gyXTIpTjNbQ0gyXVtDSDJdW0NIMl1bQ0gyXTM=

> <s_epik_cmdline>
J2VwaWtfcHl0aG9uJywgJy1waCcsICc3LjAnLCAnLXRuJywgJzgnLCAnLW1hJywgJzIwMCcsICctbWV0YWxfYmluZGluZycsICctaW1hZScsICc8aW5maWxlLm1hZT4nLCAnLW9tYWUnLCAnPG91dGZpbGUubWFlPic=

> <r_lp_tautomer_probability>
1

> <r_epik_Ionization_Penalty>
1.07437

> <r_epik_Ionization_Penalty_Charging>
1.07435

> <r_epik_Ionization_Penalty_Neutral>
2.35578e-05

> <r_epik_State_Penalty>
1.18204

> <r_epik_Charging_Adjusted_Penalty>
2.25639

> <i_epik_Tot_Q>
1

> <i_epik_Tot_abs_Q>
1

> <r_epik_Metal_State_Penalty>
0.433434

> <b_epik_Metal_Only>
0

> <s_lp_Force_Field>
OPLS_2005

> <r_lp_Energy>
33.5931

> <b_lp_Chiralities_Consistent>
1

> <s_lp_Variant>
AV-unprocessed.smi:2252-3

> <Gold.Version>
5.8.1

> <Gold.Id.Protein>
6NUR|6NUR_protein|mol2

> <Gold.PLP.Fitness>
46.9655

> <Gold.PLP.PLP>
-46.2147

> <Gold.PLP.part.hbond>
-1.8667

> <Gold.PLP.part.metal>
0.0000

> <Gold.PLP.part.buried>
-3.5630

> <Gold.PLP.part.nonpolar>
-41.0034

> <Gold.PLP.part.repulsive>
1.0848

> <Gold.PLP.ligand.clash>
0.0000

> <Gold.PLP.ligand.torsion>
1.5252

> <Gold.PLP.Chemscore.Hbond>
0.8938

> <Gold.PLP.Chemscore.CHOScore>
0.0000

> <Gold.PLP.Chemscore.Metal>
0.0000

> <Gold.Chemscore.Hbonds>
donor molecule, donor type, donor heavy atom, donor atom, acceptor molecule, acceptor atom, score
      L1  H    16    45       P1  7957  0.83

> <Gold.PLP.Chemscore.Internal.Correction>
1.1199

> <Gold.Rescore>
     Score         DG    S(hbond)    S(metal)    S(lipo)     H(rot)  DE(clash)    DE(int)     intcor
     13.70     -16.86       0.97        0.00     112.09       1.95       1.67       1.49       ----

> <Gold.Chemscore.Fitness>
13.7005

> <Gold.Chemscore.DG>
-16.8578

> <Gold.Chemscore.ZeroCoef>
-5.4800

> <Gold.Chemscore.Hbond>
0.9734

> <Gold.Chemscore.Metal>
0.0000

> <Gold.Chemscore.Lipo>
112.0925

> <Gold.Chemscore.Internal_Hbond>
0.0000

> <Gold.Chemscore.DEClash>
1.6709

> <Gold.Chemscore.DEInternal>
1.4864

> <Gold.Chemscore.Rot>
1.9485

> <Gold.Chemscore.Internal.Correction>
   9.000000E+99

> <Gold.Chemscore.Hbonds>
donor molecule, donor type, donor heavy atom, donor atom, acceptor molecule, acceptor atom, score
      L1  H    16    45       P1  7957  0.80

> <Gold.Chemscore.Hbond.Weighted>
-3.2511

> <Gold.Chemscore.Metal.Weighted>
-0.0000

> <Gold.Chemscore.Lipo.Weighted>
-13.1148

> <Gold.Chemscore.Internal_Hbond.Weighted>
0.0000

> <Gold.Chemscore.DEClash.Weighted>
1.6709

> <Gold.Chemscore.DEInternal.Weighted>
1.4864

> <Gold.Chemscore.Rot.Weighted>
4.9881

> <Gold.Chemscore.Internal.Correction.Weighted>
   9.000000E+99

> <Gold.Protein.RotatedTorsions>
[ 6907 6896 6895 6894 ] final -164.02 input  -60.11 | X-H torsion
[ 7974 7965 7964 7962 ] final  -58.72 input  175.53 | X-H torsion
[ 8008 7997 7996 7995 ] final   62.28 input   59.86 | X-H torsion
[ 10167 10162 10161 10158 ] final   35.51 input  -65.29 | X-H torsion
[ 10718 10713 10712 10709 ] final -100.31 input   66.30 | X-H torsion
[ 10763 10752 10751 10750 ] final   67.64 input  -60.55 | X-H torsion
[ 11005 11000 10999 10996 ] final -162.01 input  -57.11 | X-H torsion

> <Gold.Protein.ActiveResidues>
 VAL166  LYS551  ARG553  GLY616  TRP617  ASP618  TYR619  PRO620  LYS621  CYS622 
 ASP623  PHE694  ASN695  SER759  ASP760  ASP761  ALA762  ILE779  LEU786  VAL792 
 PHE793  MET794  SER795  GLU796  ALA797  LYS798  CYS799  TRP800  GLU811  SER814 

> <Gold.Protein.RotatedAtoms>
  151.4052  133.3745  159.2736 H   0  0  0  0  0  0  0  0  0  0  0  0  # atno 6907 bound_to 6896
  150.9404  134.8815  159.7619 H   0  0  0  0  0  0  0  0  0  0  0  0  # atno 6908 bound_to 6896
  152.5069  134.4002  159.9466 H   0  0  0  0  0  0  0  0  0  0  0  0  # atno 6909 bound_to 6896
  145.8360  140.8449  143.0059 H   0  0  0  0  0  0  0  0  0  0  0  0  # atno 7974 bound_to 7965
  155.6118  140.3495  155.4625 H   0  0  0  0  0  0  0  0  0  0  0  0  # atno 8008 bound_to 7997
  156.0148  140.1241  157.0441 H   0  0  0  0  0  0  0  0  0  0  0  0  # atno 8009 bound_to 7997
  154.4293  140.1074  156.5866 H   0  0  0  0  0  0  0  0  0  0  0  0  # atno 8010 bound_to 7997
  140.4215  144.1453  150.6148 H   0  0  0  0  0  0  0  0  0  0  0  0  # atno 10167 bound_to 10162
  156.0159  130.5322  150.6798 H   0  0  0  0  0  0  0  0  0  0  0  0  # atno 10718 bound_to 10713
  153.0196  135.5276  154.7011 H   0  0  0  0  0  0  0  0  0  0  0  0  # atno 10763 bound_to 10752
  154.6120  135.2879  155.0424 H   0  0  0  0  0  0  0  0  0  0  0  0  # atno 10764 bound_to 10752
  154.1442  135.6573  153.5001 H   0  0  0  0  0  0  0  0  0  0  0  0  # atno 10765 bound_to 10752
  140.6140  134.4819  157.5218 H   0  0  0  0  0  0  0  0  0  0  0  0  # atno 11005 bound_to 11000
  144.6736  140.0741  143.7472 LP  0  0  0  0  0  0  0  0  0  0  0  0  # atno 17320 bound_to 7965
  145.9518  139.2739  143.1207 LP  0  0  0  0  0  0  0  0  0  0  0  0  # atno 17321 bound_to 7965
  140.4529  143.2479  151.9324 LP  0  0  0  0  0  0  0  0  0  0  0  0  # atno 17342 bound_to 10162
  139.4783  144.5544  151.8336 LP  0  0  0  0  0  0  0  0  0  0  0  0  # atno 17343 bound_to 10162
  157.4503  131.0872  151.0853 LP  0  0  0  0  0  0  0  0  0  0  0  0  # atno 17370 bound_to 10713
  157.1370  130.6127  149.5545 LP  0  0  0  0  0  0  0  0  0  0  0  0  # atno 17371 bound_to 10713
  139.9180  134.8206  156.1302 LP  0  0  0  0  0  0  0  0  0  0  0  0  # atno 17394 bound_to 11000
  141.0788  133.6763  156.2293 LP  0  0  0  0  0  0  0  0  0  0  0  0  # atno 17395 bound_to 11000

$$$$
