AV-unprocessed.smi:2997|AV-procd|sdf|11415|dock2
  -GOLD-   2272016333D 1   1.00000     0.00000
 Structure written by MMmdl.
 39 41  0  0  0  0  0  0  0  0  2 V2000
  151.8632  144.2558  160.7722 C   0  0  0  0  0  0  0  0  0  0  0  0
  151.8769  143.1911  159.6885 C   0  0  0  0  0  0  0  0  0  0  0  0
  151.0860  143.3931  158.5346 C   0  0  0  0  0  0  0  0  0  0  0  0
  151.1174  142.4001  157.5627 C   0  0  0  0  0  0  0  0  0  0  0  0
  150.4615  142.3000  156.3336 N   0  3  0  0  0  0  0  0  0  0  0  0
  150.8084  141.1308  155.7272 C   0  0  0  0  0  0  0  0  0  0  0  0
  151.6771  140.4842  156.5509 N   0  0  0  0  0  0  0  0  0  0  0  0
  152.3505  139.1890  156.3895 C   0  0  0  0  0  0  0  0  0  0  0  0
  152.3777  138.7132  154.9246 C   0  0  1  0  0  0  0  0  0  0  0  0
  153.4545  137.8124  154.7403 O   0  0  0  0  0  0  0  0  0  0  0  0
  151.0536  138.0434  154.5102 C   0  0  0  0  0  0  0  0  0  0  0  0
  150.8455  136.7647  155.1661 N   0  0  0  0  0  0  0  0  0  0  0  0
  149.7981  135.8811  155.0119 C   0  0  0  0  0  0  0  0  0  0  0  0
  150.0395  134.8179  155.8341 C   0  0  0  0  0  0  0  0  0  0  0  0
  151.2762  135.1464  156.4569 C   0  0  0  0  0  0  0  0  0  0  0  0
  151.7582  136.3105  156.0522 N   0  0  0  0  0  0  0  0  0  0  0  0
  151.8994  141.2382  157.7077 C   0  0  0  0  0  0  0  0  0  0  0  0
  152.6846  141.0230  158.8374 C   0  0  0  0  0  0  0  0  0  0  0  0
  152.6660  142.0210  159.8377 C   0  0  0  0  0  0  0  0  0  0  0  0
  153.5109  141.8134  161.0834 C   0  0  0  0  0  0  0  0  0  0  0  0
  151.2341  145.1015  160.4926 H   0  0  0  0  0  0  0  0  0  0  0  0
  152.8695  144.6352  160.9509 H   0  0  0  0  0  0  0  0  0  0  0  0
  151.4759  143.8454  161.7050 H   0  0  0  0  0  0  0  0  0  0  0  0
  150.4819  144.2805  158.4147 H   0  0  0  0  0  0  0  0  0  0  0  0
  150.4544  140.7783  154.7692 H   0  0  0  0  0  0  0  0  0  0  0  0
  153.3654  139.2942  156.7753 H   0  0  0  0  0  0  0  0  0  0  0  0
  151.8501  138.4601  157.0282 H   0  0  0  0  0  0  0  0  0  0  0  0
  152.5549  139.5721  154.2762 H   0  0  0  0  0  0  0  0  0  0  0  0
  153.4269  137.4876  153.8535 H   0  0  0  0  0  0  0  0  0  0  0  0
  150.2083  138.6939  154.7388 H   0  0  0  0  0  0  0  0  0  0  0  0
  151.0368  137.8789  153.4317 H   0  0  0  0  0  0  0  0  0  0  0  0
  148.9766  136.0805  154.3397 H   0  0  0  0  0  0  0  0  0  0  0  0
  149.4263  133.9396  155.9703 H   0  0  0  0  0  0  0  0  0  0  0  0
  151.8348  134.5767  157.1850 H   0  0  0  0  0  0  0  0  0  0  0  0
  153.2827  140.1308  158.9510 H   0  0  0  0  0  0  0  0  0  0  0  0
  154.0544  140.8689  161.0441 H   0  0  0  0  0  0  0  0  0  0  0  0
  152.8823  141.7985  161.9740 H   0  0  0  0  0  0  0  0  0  0  0  0
  154.2433  142.6141  161.1881 H   0  0  0  0  0  0  0  0  0  0  0  0
  149.8215  142.9762  155.9370 H   0  0  0  0  0  0  0  0  0  0  0  0
  1  2  1  0  0  0  0
  1 21  1  0  0  0  0
  1 22  1  0  0  0  0
  1 23  1  0  0  0  0
  2 19  1  0  0  0  0
  2  3  2  0  0  0  0
  3  4  1  0  0  0  0
  3 24  1  0  0  0  0
  4 17  2  0  0  0  0
  4  5  1  0  0  0  0
  5  6  2  0  0  0  0
  5 39  1  0  0  0  0
  6  7  1  0  0  0  0
  6 25  1  0  0  0  0
  7  8  1  0  0  0  0
  7 17  1  0  0  0  0
  8  9  1  0  0  0  0
  8 26  1  0  0  0  0
  8 27  1  0  0  0  0
  9 10  1  0  0  0  0
  9 11  1  0  0  0  0
  9 28  1  0  0  0  0
 10 29  1  0  0  0  0
 11 12  1  0  0  0  0
 11 30  1  0  0  0  0
 11 31  1  0  0  0  0
 12 16  1  0  0  0  0
 12 13  1  0  0  0  0
 13 14  2  0  0  0  0
 13 32  1  0  0  0  0
 14 15  1  0  0  0  0
 14 33  1  0  0  0  0
 15 16  2  0  0  0  0
 15 34  1  0  0  0  0
 17 18  1  0  0  0  0
 18 19  2  0  0  0  0
 18 35  1  0  0  0  0
 19 20  1  0  0  0  0
 20 36  1  0  0  0  0
 20 37  1  0  0  0  0
 20 38  1  0  0  0  0
M  CHG  1   5   1
M  END
> <s_m_source_file>
AV-unprocessed.smi

> <i_m_source_file_index>
2997

> <i_lp_mmshare_version>
43012

> <i_f3d_flags>
0

> <s_epik_input>
W0NIM11jKFtjSF0xKWMoW0NIM10pW2NIXWMoYzEyKW4oW2NIXW4yKVtDSDJdW0NASF0oW09IXSlbQ0gyXW4zW2NIXVtjSF1bY0hdbjM=

> <s_epik_cmdline>
J2VwaWtfcHl0aG9uJywgJy1waCcsICc3LjAnLCAnLXRuJywgJzgnLCAnLW1hJywgJzIwMCcsICctbWV0YWxfYmluZGluZycsICctaW1hZScsICc8aW5maWxlLm1hZT4nLCAnLW9tYWUnLCAnPG91dGZpbGUubWFlPic=

> <r_lp_tautomer_probability>
1

> <r_epik_Ionization_Penalty>
1.09215

> <r_epik_Ionization_Penalty_Charging>
1.09214

> <r_epik_Ionization_Penalty_Neutral>
1.42327e-05

> <r_epik_State_Penalty>
1.14852

> <r_epik_Charging_Adjusted_Penalty>
2.24066

> <i_epik_Tot_Q>
1

> <i_epik_Tot_abs_Q>
1

> <r_epik_Metal_State_Penalty>
1.23686

> <b_epik_Metal_Only>
0

> <s_lp_Force_Field>
OPLS_2005

> <r_lp_Energy>
12.1799

> <b_lp_Chiralities_Consistent>
1

> <s_lp_Variant>
AV-unprocessed.smi:2997-4

> <Gold.Version>
5.8.1

> <Gold.Id.Protein>
6NUR|6NUR_protein|mol2

> <Gold.PLP.Fitness>
54.9788

> <Gold.PLP.PLP>
-44.8508

> <Gold.PLP.part.hbond>
-3.0000

> <Gold.PLP.part.metal>
0.0000

> <Gold.PLP.part.buried>
-4.4854

> <Gold.PLP.part.nonpolar>
-37.4213

> <Gold.PLP.part.repulsive>
0.1075

> <Gold.PLP.ligand.clash>
0.0000

> <Gold.PLP.ligand.torsion>
0.5348

> <Gold.PLP.Chemscore.Hbond>
2.7500

> <Gold.PLP.Chemscore.CHOScore>
0.9744

> <Gold.PLP.Chemscore.Metal>
0.0000

> <Gold.Chemscore.Hbonds>
donor molecule, donor type, donor heavy atom, donor atom, acceptor molecule, acceptor atom, score
      L1  H     5    39       P1  8028  2.00
      P1  H 10752 10765       L1    16  0.75
      L1  C    13    32       P1  7948  0.97

> <Gold.PLP.Chemscore.Internal.Correction>
0.0243

> <Gold.Rescore>
     Score         DG    S(hbond)    S(metal)    S(lipo)     H(rot)  DE(clash)    DE(int)     intcor
     15.00     -17.33       1.36        0.00     110.81       2.21       0.09       2.24       ----

> <Gold.Chemscore.Fitness>
15.0031

> <Gold.Chemscore.DG>
-17.3321

> <Gold.Chemscore.ZeroCoef>
-5.4800

> <Gold.Chemscore.Hbond>
1.3630

> <Gold.Chemscore.Metal>
0.0000

> <Gold.Chemscore.Lipo>
110.8090

> <Gold.Chemscore.Internal_Hbond>
0.0000

> <Gold.Chemscore.DEClash>
0.0859

> <Gold.Chemscore.DEInternal>
2.2432

> <Gold.Chemscore.Rot>
2.2129

> <Gold.Chemscore.Internal.Correction>
   9.000000E+99

> <Gold.Chemscore.Hbonds>
donor molecule, donor type, donor heavy atom, donor atom, acceptor molecule, acceptor atom, score
      L1  H     5    39       P1  8028  0.95
      P1  H 10752 10765       L1    16  0.02

> <Gold.Chemscore.Hbond.Weighted>
-4.5524

> <Gold.Chemscore.Metal.Weighted>
-0.0000

> <Gold.Chemscore.Lipo.Weighted>
-12.9647

> <Gold.Chemscore.Internal_Hbond.Weighted>
0.0000

> <Gold.Chemscore.DEClash.Weighted>
0.0859

> <Gold.Chemscore.DEInternal.Weighted>
2.2432

> <Gold.Chemscore.Rot.Weighted>
5.6649

> <Gold.Chemscore.Internal.Correction.Weighted>
   9.000000E+99

> <Gold.Protein.RotatedTorsions>
[ 6907 6896 6895 6894 ] final   84.30 input  -60.11 | X-H torsion
[ 7974 7965 7964 7962 ] final  -95.43 input  175.53 | X-H torsion
[ 8008 7997 7996 7995 ] final  141.10 input   59.86 | X-H torsion
[ 10167 10162 10161 10158 ] final -126.14 input  -65.29 | X-H torsion
[ 10718 10713 10712 10709 ] final  -23.88 input   66.30 | X-H torsion
[ 10763 10752 10751 10750 ] final -165.74 input  -60.55 | X-H torsion
[ 11005 11000 10999 10996 ] final   45.51 input  -57.11 | X-H torsion

> <Gold.Protein.ActiveResidues>
 VAL166  LYS551  ARG553  GLY616  TRP617  ASP618  TYR619  PRO620  LYS621  CYS622 
 ASP623  PHE694  ASN695  SER759  ASP760  ASP761  ALA762  ILE779  LEU786  VAL792 
 PHE793  MET794  SER795  GLU796  ALA797  LYS798  CYS799  TRP800  GLU811  SER814 

> <Gold.Protein.RotatedAtoms>
  152.5349  134.2763  159.8990 H   0  0  0  0  0  0  0  0  0  0  0  0  # atno 6907 bound_to 6896
  151.2718  133.4245  159.2629 H   0  0  0  0  0  0  0  0  0  0  0  0  # atno 6908 bound_to 6896
  151.0361  134.9589  159.8193 H   0  0  0  0  0  0  0  0  0  0  0  0  # atno 6909 bound_to 6896
  145.3601  140.9490  143.2505 H   0  0  0  0  0  0  0  0  0  0  0  0  # atno 7974 bound_to 7965
  156.2970  140.2324  156.4509 H   0  0  0  0  0  0  0  0  0  0  0  0  # atno 8008 bound_to 7997
  154.8103  140.0443  157.1358 H   0  0  0  0  0  0  0  0  0  0  0  0  # atno 8009 bound_to 7997
  154.9431  140.3032  155.5114 H   0  0  0  0  0  0  0  0  0  0  0  0  # atno 8010 bound_to 7997
  139.9747  143.5808  152.2400 H   0  0  0  0  0  0  0  0  0  0  0  0  # atno 10167 bound_to 10162
  156.4851  130.4554  149.6788 H   0  0  0  0  0  0  0  0  0  0  0  0  # atno 10718 bound_to 10713
  154.6902  135.2969  154.9490 H   0  0  0  0  0  0  0  0  0  0  0  0  # atno 10763 bound_to 10752
  154.0456  135.6651  153.4798 H   0  0  0  0  0  0  0  0  0  0  0  0  # atno 10764 bound_to 10752
  153.0607  135.5117  154.7990 H   0  0  0  0  0  0  0  0  0  0  0  0  # atno 10765 bound_to 10752
  140.1453  134.4531  155.8420 H   0  0  0  0  0  0  0  0  0  0  0  0  # atno 11005 bound_to 11000
  144.8653  139.5117  143.6793 LP  0  0  0  0  0  0  0  0  0  0  0  0  # atno 17320 bound_to 7965
  146.2931  139.7197  142.9146 LP  0  0  0  0  0  0  0  0  0  0  0  0  # atno 17321 bound_to 7965
  139.6455  144.7658  151.2253 LP  0  0  0  0  0  0  0  0  0  0  0  0  # atno 17342 bound_to 10162
  140.7510  143.6246  150.8480 LP  0  0  0  0  0  0  0  0  0  0  0  0  # atno 17343 bound_to 10162
  156.3482  130.7418  151.2374 LP  0  0  0  0  0  0  0  0  0  0  0  0  # atno 17370 bound_to 10713
  157.7479  131.0384  150.4503 LP  0  0  0  0  0  0  0  0  0  0  0  0  # atno 17371 bound_to 10713
  141.2192  133.6850  156.7322 LP  0  0  0  0  0  0  0  0  0  0  0  0  # atno 17394 bound_to 11000
  140.2671  134.8421  157.3813 LP  0  0  0  0  0  0  0  0  0  0  0  0  # atno 17395 bound_to 11000

$$$$
