AV-unprocessed.smi:22|AV-procd|sdf|169|dock2
  -GOLD-   2262015423D 1   1.00000     0.00000
 Structure written by MMmdl.
 56 59  0  0  0  0  0  0  0  0  2 V2000
  147.1978  140.9317  153.1866 C   0  0  0  0  0  0  0  0  0  0  0  0
  148.3892  140.1682  153.6314 N   0  3  2  0  0  0  0  0  0  0  0  0
  148.0436  138.8260  154.1745 C   0  0  0  0  0  0  0  0  0  0  0  0
  147.1327  138.0316  153.2237 C   0  0  0  0  0  0  0  0  0  0  0  0
  147.7000  137.9967  151.9312 O   0  0  0  0  0  0  0  0  0  0  0  0
  149.3019  140.9829  154.4857 C   0  0  0  0  0  0  0  0  0  0  0  0
  150.4785  140.1474  155.0318 C   0  0  0  0  0  0  0  0  0  0  0  0
  151.4321  141.0218  155.8622 C   0  0  0  0  0  0  0  0  0  0  0  0
  150.7055  141.7252  156.9190 N   0  0  0  0  0  0  0  0  0  0  0  0
  151.4841  142.2109  157.9194 C   0  0  0  0  0  0  0  0  0  0  0  0
  151.4148  143.5269  158.2558 N   0  0  0  0  0  0  0  0  0  0  0  0
  152.1831  144.0151  159.2342 C   0  0  0  0  0  0  0  0  0  0  0  0
  153.0736  143.3747  159.9938 N   0  0  0  0  0  0  0  0  0  0  0  0
  153.1445  142.0530  159.6661 C   0  0  0  0  0  0  0  0  0  0  0  0
  152.3915  141.3949  158.6528 C   0  0  0  0  0  0  0  0  0  0  0  0
  152.7212  140.0450  158.6206 N   0  0  0  0  0  0  0  0  0  0  0  0
  153.6249  139.9152  159.5533 C   0  0  0  0  0  0  0  0  0  0  0  0
  153.9438  141.0725  160.2273 N   0  0  0  0  0  0  0  0  0  0  0  0
  154.9098  141.2126  161.3061 C   0  0  0  0  0  0  0  0  0  0  0  0
  156.3629  140.9131  160.8709 C   0  0  1  0  0  0  0  0  0  0  0  0
  157.2506  141.4113  161.8575 O   0  0  0  0  0  0  0  0  0  0  0  0
  156.6588  139.4315  160.6562 C   0  0  0  0  0  0  0  0  0  0  0  0
  157.7076  139.4522  159.5532 C   0  0  0  0  0  0  0  0  0  0  0  0
  157.2415  140.4874  158.7045 O   0  0  0  0  0  0  0  0  0  0  0  0
  156.7379  141.5446  159.5149 C   0  0  0  0  0  0  0  0  0  0  0  0
  149.5880  142.5524  156.4604 C   0  0  0  0  0  0  0  0  0  0  0  0
  148.5876  141.7175  155.6438 C   0  0  0  0  0  0  0  0  0  0  0  0
  146.5456  141.1715  154.0268 H   0  0  0  0  0  0  0  0  0  0  0  0
  146.6146  140.3688  152.4589 H   0  0  0  0  0  0  0  0  0  0  0  0
  147.4911  141.8656  152.7063 H   0  0  0  0  0  0  0  0  0  0  0  0
  148.9389  138.2322  154.3543 H   0  0  0  0  0  0  0  0  0  0  0  0
  147.5616  138.9415  155.1463 H   0  0  0  0  0  0  0  0  0  0  0  0
  147.0340  137.0060  153.5798 H   0  0  0  0  0  0  0  0  0  0  0  0
  146.1266  138.4465  153.1735 H   0  0  0  0  0  0  0  0  0  0  0  0
  148.2017  137.1999  151.8427 H   0  0  0  0  0  0  0  0  0  0  0  0
  149.7483  141.7420  153.8410 H   0  0  0  0  0  0  0  0  0  0  0  0
  150.1210  139.3314  155.6593 H   0  0  0  0  0  0  0  0  0  0  0  0
  151.0270  139.6867  154.2095 H   0  0  0  0  0  0  0  0  0  0  0  0
  152.2288  140.3995  156.2684 H   0  0  0  0  0  0  0  0  0  0  0  0
  151.9132  141.7603  155.2196 H   0  0  0  0  0  0  0  0  0  0  0  0
  152.0687  145.0697  159.4365 H   0  0  0  0  0  0  0  0  0  0  0  0
  154.0900  138.9656  159.7753 H   0  0  0  0  0  0  0  0  0  0  0  0
  154.8384  142.2282  161.6978 H   0  0  0  0  0  0  0  0  0  0  0  0
  154.6137  140.5504  162.1211 H   0  0  0  0  0  0  0  0  0  0  0  0
  156.7390  141.7960  162.5529 H   0  0  0  0  0  0  0  0  0  0  0  0
  156.9877  138.9107  161.5566 H   0  0  0  0  0  0  0  0  0  0  0  0
  155.7716  138.9195  160.2819 H   0  0  0  0  0  0  0  0  0  0  0  0
  158.6906  139.7129  159.9487 H   0  0  0  0  0  0  0  0  0  0  0  0
  157.7861  138.5014  159.0255 H   0  0  0  0  0  0  0  0  0  0  0  0
  155.8800  141.9961  159.0156 H   0  0  0  0  0  0  0  0  0  0  0  0
  157.4985  142.3202  159.6181 H   0  0  0  0  0  0  0  0  0  0  0  0
  149.0744  142.9970  157.3140 H   0  0  0  0  0  0  0  0  0  0  0  0
  149.9735  143.3726  155.8529 H   0  0  0  0  0  0  0  0  0  0  0  0
  147.8016  142.3687  155.2613 H   0  0  0  0  0  0  0  0  0  0  0  0
  148.1035  141.0059  156.3130 H   0  0  0  0  0  0  0  0  0  0  0  0
  148.9215  139.9867  152.7919 H   0  0  0  0  0  0  0  0  0  0  0  0
  1  2  1  0  0  0  0
  1 28  1  0  0  0  0
  1 29  1  0  0  0  0
  1 30  1  0  0  0  0
  2  3  1  0  0  0  0
  2  6  1  0  0  0  0
  2 56  1  0  0  0  0
  3  4  1  0  0  0  0
  3 31  1  0  0  0  0
  3 32  1  0  0  0  0
  4  5  1  0  0  0  0
  4 33  1  0  0  0  0
  4 34  1  0  0  0  0
  5 35  1  0  0  0  0
  6 27  1  0  0  0  0
  6  7  1  0  0  0  0
  6 36  1  0  0  0  0
  7  8  1  0  0  0  0
  7 37  1  0  0  0  0
  7 38  1  0  0  0  0
  8  9  1  0  0  0  0
  8 39  1  0  0  0  0
  8 40  1  0  0  0  0
  9 10  1  0  0  0  0
  9 26  1  0  0  0  0
 10 15  1  0  0  0  0
 10 11  2  0  0  0  0
 11 12  1  0  0  0  0
 12 13  2  0  0  0  0
 12 41  1  0  0  0  0
 13 14  1  0  0  0  0
 14 18  1  0  0  0  0
 14 15  2  0  0  0  0
 15 16  1  0  0  0  0
 16 17  2  0  0  0  0
 17 18  1  0  0  0  0
 17 42  1  0  0  0  0
 18 19  1  0  0  0  0
 19 20  1  0  0  0  0
 19 43  1  0  0  0  0
 19 44  1  0  0  0  0
 20 25  1  0  0  0  0
 20 21  1  0  0  0  0
 20 22  1  0  0  0  0
 21 45  1  0  0  0  0
 22 23  1  0  0  0  0
 22 46  1  0  0  0  0
 22 47  1  0  0  0  0
 23 24  1  0  0  0  0
 23 48  1  0  0  0  0
 23 49  1  0  0  0  0
 24 25  1  0  0  0  0
 25 50  1  0  0  0  0
 25 51  1  0  0  0  0
 26 27  1  0  0  0  0
 26 52  1  0  0  0  0
 26 53  1  0  0  0  0
 27 54  1  0  0  0  0
 27 55  1  0  0  0  0
M  CHG  1   2   1
M  END
> <s_m_source_file>
AV-unprocessed.smi

> <i_m_source_file_index>
22

> <i_lp_mmshare_version>
43012

> <i_f3d_flags>
0

> <s_epik_input>
W09IXVtDSDJdW0NIMl1OKFtDSDNdKVtDSF0xW0NIMl1bQ0gyXU4oW0NIMl1bQ0gyXTEpYyhuW2NIXW4yKWMoYzIzKW5bY0hdbjNbQ0gyXVtDQEBdNChbT0hdKVtDSDJdW0NIMl1PW0NIMl00

> <s_epik_cmdline>
J2VwaWtfcHl0aG9uJywgJy1waCcsICc3LjAnLCAnLXRuJywgJzgnLCAnLW1hJywgJzIwMCcsICctbWV0YWxfYmluZGluZycsICctaW1hZScsICc8aW5maWxlLm1hZT4nLCAnLW9tYWUnLCAnPG91dGZpbGUubWFlPic=

> <r_lp_tautomer_probability>
1

> <r_epik_Ionization_Penalty>
0.00317524

> <r_epik_Ionization_Penalty_Charging>
0.00191487

> <r_epik_Ionization_Penalty_Neutral>
0.00126037

> <r_epik_State_Penalty>
-0

> <r_epik_Charging_Adjusted_Penalty>
0.00191487

> <i_epik_Tot_Q>
1

> <i_epik_Tot_abs_Q>
1

> <r_epik_Metal_State_Penalty>
-0

> <b_epik_Metal_Only>
0

> <s_lp_Force_Field>
OPLS_2005

> <r_lp_Energy>
45.1339

> <b_lp_Chiralities_Consistent>
1

> <s_lp_Variant>
AV-unprocessed.smi:22-1

> <Gold.Version>
5.8.1

> <Gold.Id.Protein>
6NUR|6NUR_protein|mol2

> <Gold.PLP.Fitness>
51.0483

> <Gold.PLP.PLP>
-42.7448

> <Gold.PLP.part.hbond>
-6.0000

> <Gold.PLP.part.metal>
0.0000

> <Gold.PLP.part.buried>
-1.0809

> <Gold.PLP.part.nonpolar>
-34.4492

> <Gold.PLP.part.repulsive>
0.3018

> <Gold.PLP.ligand.clash>
0.0000

> <Gold.PLP.ligand.torsion>
0.6364

> <Gold.PLP.Chemscore.Hbond>
3.0000

> <Gold.PLP.Chemscore.CHOScore>
0.0000

> <Gold.PLP.Chemscore.Metal>
0.0000

> <Gold.Chemscore.Hbonds>
donor molecule, donor type, donor heavy atom, donor atom, acceptor molecule, acceptor atom, score
      L1  H     2    56       P1  7957  1.00
      L1  H     5    35       P1  7948  0.16
      P1  H  7997  8010       L1    24  0.65

> <Gold.PLP.Chemscore.Internal.Correction>
0.5762

> <Gold.Rescore>
     Score         DG    S(hbond)    S(metal)    S(lipo)     H(rot)  DE(clash)    DE(int)     intcor
     11.11     -15.06       2.78        0.00      84.61       3.76       3.23       0.72       ----

> <Gold.Chemscore.Fitness>
11.1088

> <Gold.Chemscore.DG>
-15.0573

> <Gold.Chemscore.ZeroCoef>
-5.4800

> <Gold.Chemscore.Hbond>
2.7843

> <Gold.Chemscore.Metal>
0.0000

> <Gold.Chemscore.Lipo>
84.6065

> <Gold.Chemscore.Internal_Hbond>
0.0000

> <Gold.Chemscore.DEClash>
3.2252

> <Gold.Chemscore.DEInternal>
0.7233

> <Gold.Chemscore.Rot>
3.7583

> <Gold.Chemscore.Internal.Correction>
   9.000000E+99

> <Gold.Chemscore.Hbonds>
donor molecule, donor type, donor heavy atom, donor atom, acceptor molecule, acceptor atom, score
      L1  H     2    56       P1  7957  1.00
      L1  H     5    35       P1  7948  0.18
      P1  H  7997  8010       L1    24  0.57

> <Gold.Chemscore.Hbond.Weighted>
-9.2997

> <Gold.Chemscore.Metal.Weighted>
-0.0000

> <Gold.Chemscore.Lipo.Weighted>
-9.8990

> <Gold.Chemscore.Internal_Hbond.Weighted>
0.0000

> <Gold.Chemscore.DEClash.Weighted>
3.2252

> <Gold.Chemscore.DEInternal.Weighted>
0.7233

> <Gold.Chemscore.Rot.Weighted>
9.6213

> <Gold.Chemscore.Internal.Correction.Weighted>
   9.000000E+99

> <Gold.Protein.RotatedTorsions>
[ 6907 6896 6895 6894 ] final  -58.12 input  -60.11 | X-H torsion
[ 7974 7965 7964 7962 ] final   20.45 input  175.53 | X-H torsion
[ 8008 7997 7996 7995 ] final  -70.81 input   59.86 | X-H torsion
[ 10167 10162 10161 10158 ] final -146.04 input  -65.29 | X-H torsion
[ 10718 10713 10712 10709 ] final   90.16 input   66.30 | X-H torsion
[ 10763 10752 10751 10750 ] final   70.23 input  -60.55 | X-H torsion
[ 11005 11000 10999 10996 ] final  -11.47 input  -57.11 | X-H torsion

> <Gold.Protein.ActiveResidues>
 VAL166  LYS551  ARG553  GLY616  TRP617  ASP618  TYR619  PRO620  LYS621  CYS622 
 ASP623  PHE694  ASN695  SER759  ASP760  ASP761  ALA762  ILE779  LEU786  VAL792 
 PHE793  MET794  SER795  GLU796  ALA797  LYS798  CYS799  TRP800  GLU811  SER814 

> <Gold.Protein.RotatedAtoms>
  150.8032  134.7140  159.6619 H   0  0  0  0  0  0  0  0  0  0  0  0  # atno 6907 bound_to 6896
  152.4150  134.6054  160.0021 H   0  0  0  0  0  0  0  0  0  0  0  0  # atno 6908 bound_to 6896
  151.6286  133.3296  159.3140 H   0  0  0  0  0  0  0  0  0  0  0  0  # atno 6909 bound_to 6896
  146.2111  139.8167  142.8688 H   0  0  0  0  0  0  0  0  0  0  0  0  # atno 7974 bound_to 7965
  154.5040  140.0827  156.7857 H   0  0  0  0  0  0  0  0  0  0  0  0  # atno 8008 bound_to 7997
  155.3936  140.3433  155.4234 H   0  0  0  0  0  0  0  0  0  0  0  0  # atno 8009 bound_to 7997
  156.1492  140.1553  156.8784 H   0  0  0  0  0  0  0  0  0  0  0  0  # atno 8010 bound_to 7997
  139.7750  143.8183  152.2630 H   0  0  0  0  0  0  0  0  0  0  0  0  # atno 10167 bound_to 10162
  157.6958  131.0360  150.3535 H   0  0  0  0  0  0  0  0  0  0  0  0  # atno 10718 bound_to 10713
  153.0330  135.5181  154.7410 H   0  0  0  0  0  0  0  0  0  0  0  0  # atno 10763 bound_to 10752
  154.6409  135.2912  155.0106 H   0  0  0  0  0  0  0  0  0  0  0  0  # atno 10764 bound_to 10752
  154.1025  135.6634  153.4923 H   0  0  0  0  0  0  0  0  0  0  0  0  # atno 10765 bound_to 10752
  140.7556  133.8556  155.9081 H   0  0  0  0  0  0  0  0  0  0  0  0  # atno 11005 bound_to 11000
  145.3139  141.0227  143.3539 LP  0  0  0  0  0  0  0  0  0  0  0  0  # atno 17320 bound_to 7965
  144.8916  139.4767  143.6675 LP  0  0  0  0  0  0  0  0  0  0  0  0  # atno 17321 bound_to 7965
  139.8228  144.7288  150.9550 LP  0  0  0  0  0  0  0  0  0  0  0  0  # atno 17342 bound_to 10162
  140.7816  143.4142  151.0943 LP  0  0  0  0  0  0  0  0  0  0  0  0  # atno 17343 bound_to 10162
  156.3980  130.3910  149.6980 LP  0  0  0  0  0  0  0  0  0  0  0  0  # atno 17370 bound_to 10713
  156.4308  130.7814  151.2833 LP  0  0  0  0  0  0  0  0  0  0  0  0  # atno 17371 bound_to 10713
  140.9710  134.1531  157.4576 LP  0  0  0  0  0  0  0  0  0  0  0  0  # atno 17394 bound_to 11000
  139.8779  134.9978  156.5869 LP  0  0  0  0  0  0  0  0  0  0  0  0  # atno 17395 bound_to 11000

$$$$
