AV-unprocessed.smi:18|AV-procd|sdf|107|dock3
  -GOLD-   2262015263D 1   1.00000     0.00000
 Structure written by MMmdl.
 47 50  0  0  0  0  0  0  0  0  1 V2000
  146.3246  139.6303  151.4089 O   0  0  0  0  0  0  0  0  0  0  0  0
  146.8156  138.6113  152.2563 C   0  0  0  0  0  0  0  0  0  0  0  0
  147.3475  139.1874  153.5805 C   0  0  0  0  0  0  0  0  0  0  0  0
  148.6804  139.9331  153.3600 C   0  0  0  0  0  0  0  0  0  0  0  0
  149.2584  140.4885  154.5742 N   0  0  0  0  0  0  0  0  0  0  0  0
  148.7091  141.4669  155.3738 C   0  0  0  0  0  0  0  0  0  0  0  0
  149.4169  141.7961  156.4199 N   0  0  0  0  0  0  0  0  0  0  0  0
  150.5471  140.9950  156.3249 C   0  0  0  0  0  0  0  0  0  0  0  0
  151.7116  140.8361  157.1220 C   0  0  0  0  0  0  0  0  0  0  0  0
  151.9117  141.5636  158.2471 N   0  0  0  0  0  0  0  0  0  0  0  0
  151.7580  142.9846  157.9517 C   0  0  0  0  0  0  0  0  0  0  0  0
  151.8056  143.8107  159.2429 C   0  0  0  0  0  0  0  0  0  0  0  0
  153.0261  143.5371  159.9159 O   0  0  0  0  0  0  0  0  0  0  0  0
  153.1217  142.1713  160.3013 C   0  0  0  0  0  0  0  0  0  0  0  0
  153.0940  141.2454  159.0621 C   0  0  1  0  0  0  0  0  0  0  0  0
  153.1234  139.7553  159.4923 C   0  0  0  0  0  0  0  0  0  0  0  0
  154.1130  139.4431  160.6254 C   0  0  0  0  0  0  0  0  0  0  0  0
  154.1899  138.1248  160.8040 F   0  0  0  0  0  0  0  0  0  0  0  0
  155.3255  139.9121  160.3322 F   0  0  0  0  0  0  0  0  0  0  0  0
  152.6498  139.9452  156.7030 N   0  0  0  0  0  0  0  0  0  0  0  0
  152.4505  139.2409  155.5848 C   0  0  0  0  0  0  0  0  0  0  0  0
  151.4081  139.2746  154.7518 N   0  0  0  0  0  0  0  0  0  0  0  0
  150.4697  140.1739  155.1655 C   0  0  0  0  0  0  0  0  0  0  0  0
  146.2915  139.9275  154.4143 C   0  0  0  0  0  0  0  0  0  0  0  0
  146.0972  138.7884  155.2787 O   0  0  0  0  0  0  0  0  0  0  0  0
  147.3158  138.2113  154.7645 C   0  0  0  0  0  0  0  0  0  0  0  0
  145.4320  139.8207  151.6541 H   0  0  0  0  0  0  0  0  0  0  0  0
  146.0312  137.8732  152.4228 H   0  0  0  0  0  0  0  0  0  0  0  0
  147.6092  138.0887  151.7211 H   0  0  0  0  0  0  0  0  0  0  0  0
  149.4203  139.2679  152.9130 H   0  0  0  0  0  0  0  0  0  0  0  0
  148.5507  140.7444  152.6429 H   0  0  0  0  0  0  0  0  0  0  0  0
  147.7540  141.9246  155.1604 H   0  0  0  0  0  0  0  0  0  0  0  0
  152.5547  143.3043  157.2783 H   0  0  0  0  0  0  0  0  0  0  0  0
  150.8121  143.1650  157.4387 H   0  0  0  0  0  0  0  0  0  0  0  0
  151.7571  144.8748  159.0111 H   0  0  0  0  0  0  0  0  0  0  0  0
  150.9551  143.5831  159.8876 H   0  0  0  0  0  0  0  0  0  0  0  0
  154.0544  142.0511  160.8506 H   0  0  0  0  0  0  0  0  0  0  0  0
  152.3129  141.9258  160.9918 H   0  0  0  0  0  0  0  0  0  0  0  0
  153.9810  141.4575  158.4633 H   0  0  0  0  0  0  0  0  0  0  0  0
  152.1215  139.4468  159.7939 H   0  0  0  0  0  0  0  0  0  0  0  0
  153.3875  139.1172  158.6495 H   0  0  0  0  0  0  0  0  0  0  0  0
  153.8100  139.8709  161.5803 H   0  0  0  0  0  0  0  0  0  0  0  0
  153.2388  138.5518  155.3199 H   0  0  0  0  0  0  0  0  0  0  0  0
  146.6765  140.7844  154.9683 H   0  0  0  0  0  0  0  0  0  0  0  0
  145.3918  140.1952  153.8590 H   0  0  0  0  0  0  0  0  0  0  0  0
  147.1979  137.1654  154.4788 H   0  0  0  0  0  0  0  0  0  0  0  0
  148.1465  138.3332  155.4615 H   0  0  0  0  0  0  0  0  0  0  0  0
  1  2  1  0  0  0  0
  1 27  1  0  0  0  0
  2  3  1  0  0  0  0
  2 28  1  0  0  0  0
  2 29  1  0  0  0  0
  3 26  1  0  0  0  0
  3  4  1  0  0  0  0
  3 24  1  0  0  0  0
  4  5  1  0  0  0  0
  4 30  1  0  0  0  0
  4 31  1  0  0  0  0
  5 23  1  0  0  0  0
  5  6  1  0  0  0  0
  6  7  2  0  0  0  0
  6 32  1  0  0  0  0
  7  8  1  0  0  0  0
  8 23  2  0  0  0  0
  8  9  1  0  0  0  0
  9 10  1  0  0  0  0
  9 20  2  0  0  0  0
 10 15  1  0  0  0  0
 10 11  1  0  0  0  0
 11 12  1  0  0  0  0
 11 33  1  0  0  0  0
 11 34  1  0  0  0  0
 12 13  1  0  0  0  0
 12 35  1  0  0  0  0
 12 36  1  0  0  0  0
 13 14  1  0  0  0  0
 14 15  1  0  0  0  0
 14 37  1  0  0  0  0
 14 38  1  0  0  0  0
 15 16  1  0  0  0  0
 15 39  1  0  0  0  0
 16 17  1  0  0  0  0
 16 40  1  0  0  0  0
 16 41  1  0  0  0  0
 17 18  1  0  0  0  0
 17 19  1  0  0  0  0
 17 42  1  0  0  0  0
 20 21  1  0  0  0  0
 21 22  2  0  0  0  0
 21 43  1  0  0  0  0
 22 23  1  0  0  0  0
 24 25  1  0  0  0  0
 24 44  1  0  0  0  0
 24 45  1  0  0  0  0
 25 26  1  0  0  0  0
 26 46  1  0  0  0  0
 26 47  1  0  0  0  0
M  END
> <s_m_source_file>
AV-unprocessed.smi

> <i_m_source_file_index>
18

> <i_lp_mmshare_version>
43012

> <i_f3d_flags>
0

> <s_epik_input>
W0NIMl0xT1tDSDJdQzEoW0NIMl1bT0hdKVtDSDJdbihbY0hdbjIpYyhjMjMpbltjSF1uYzNONFtDSDJdW0NIMl1PW0NIMl1bQ0BIXTRbQ0gyXVtDSF0oRilG

> <s_epik_cmdline>
J2VwaWtfcHl0aG9uJywgJy1waCcsICc3LjAnLCAnLXRuJywgJzgnLCAnLW1hJywgJzIwMCcsICctbWV0YWxfYmluZGluZycsICctaW1hZScsICc8aW5maWxlLm1hZT4nLCAnLW9tYWUnLCAnPG91dGZpbGUubWFlPic=

> <r_lp_tautomer_probability>
1

> <r_epik_Ionization_Penalty>
6.63711e-05

> <r_epik_Ionization_Penalty_Charging>
0

> <r_epik_Ionization_Penalty_Neutral>
6.63711e-05

> <r_epik_State_Penalty>
-0

> <r_epik_Charging_Adjusted_Penalty>
0

> <i_epik_Tot_Q>
0

> <i_epik_Tot_abs_Q>
0

> <r_epik_Metal_State_Penalty>
-0

> <b_epik_Metal_Only>
0

> <s_lp_Force_Field>
OPLS_2005

> <r_lp_Energy>
38.6486

> <b_lp_Chiralities_Consistent>
1

> <s_lp_Variant>
AV-unprocessed.smi:18-1

> <Gold.Version>
5.8.1

> <Gold.Id.Protein>
6NUR|6NUR_protein|mol2

> <Gold.PLP.Fitness>
47.9427

> <Gold.PLP.PLP>
-42.4161

> <Gold.PLP.part.hbond>
-3.9010

> <Gold.PLP.part.metal>
0.0000

> <Gold.PLP.part.buried>
0.8713

> <Gold.PLP.part.nonpolar>
-40.1295

> <Gold.PLP.part.repulsive>
0.7740

> <Gold.PLP.ligand.clash>
0.0000

> <Gold.PLP.ligand.torsion>
0.5107

> <Gold.PLP.Chemscore.Hbond>
2.0000

> <Gold.PLP.Chemscore.CHOScore>
0.0000

> <Gold.PLP.Chemscore.Metal>
0.0000

> <Gold.Chemscore.Hbonds>
donor molecule, donor type, donor heavy atom, donor atom, acceptor molecule, acceptor atom, score
      L1  H     1    27       P1 10175  1.00
      P1  H  7997  8008       L1    20  1.00

> <Gold.PLP.Chemscore.Internal.Correction>
0.5480

> <Gold.Rescore>
     Score         DG    S(hbond)    S(metal)    S(lipo)     H(rot)  DE(clash)    DE(int)     intcor
      9.70     -12.92       1.64        0.00      81.66       2.96       1.39       1.83       ----

> <Gold.Chemscore.Fitness>
9.6972

> <Gold.Chemscore.DG>
-12.9224

> <Gold.Chemscore.ZeroCoef>
-5.4800

> <Gold.Chemscore.Hbond>
1.6396

> <Gold.Chemscore.Metal>
0.0000

> <Gold.Chemscore.Lipo>
81.6648

> <Gold.Chemscore.Internal_Hbond>
0.0000

> <Gold.Chemscore.DEClash>
1.3940

> <Gold.Chemscore.DEInternal>
1.8313

> <Gold.Chemscore.Rot>
2.9643

> <Gold.Chemscore.Internal.Correction>
   9.000000E+99

> <Gold.Chemscore.Hbonds>
donor molecule, donor type, donor heavy atom, donor atom, acceptor molecule, acceptor atom, score
      L1  H     1    27       P1 10175  0.42
      P1  H  7997  8008       L1    20  0.29

> <Gold.Chemscore.Hbond.Weighted>
-5.4763

> <Gold.Chemscore.Metal.Weighted>
-0.0000

> <Gold.Chemscore.Lipo.Weighted>
-9.5548

> <Gold.Chemscore.Internal_Hbond.Weighted>
0.0000

> <Gold.Chemscore.DEClash.Weighted>
1.3940

> <Gold.Chemscore.DEInternal.Weighted>
1.8313

> <Gold.Chemscore.Rot.Weighted>
7.5886

> <Gold.Chemscore.Internal.Correction.Weighted>
   9.000000E+99

> <Gold.Protein.RotatedTorsions>
[ 6907 6896 6895 6894 ] final  -44.44 input  -60.11 | X-H torsion
[ 7974 7965 7964 7962 ] final  -90.00 input  175.53 | X-H torsion
[ 8008 7997 7996 7995 ] final  -63.98 input   59.86 | X-H torsion
[ 10167 10162 10161 10158 ] final   81.47 input  -65.29 | X-H torsion
[ 10718 10713 10712 10709 ] final  143.93 input   66.30 | X-H torsion
[ 10763 10752 10751 10750 ] final  -37.06 input  -60.55 | X-H torsion
[ 11005 11000 10999 10996 ] final   96.94 input  -57.11 | X-H torsion

> <Gold.Protein.ActiveResidues>
 VAL166  LYS551  ARG553  GLY616  TRP617  ASP618  TYR619  PRO620  LYS621  CYS622 
 ASP623  PHE694  ASN695  SER759  ASP760  ASP761  ALA762  ILE779  LEU786  VAL792 
 PHE793  MET794  SER795  GLU796  ALA797  LYS798  CYS799  TRP800  GLU811  SER814 

> <Gold.Protein.RotatedAtoms>
  150.9328  134.8742  159.7561 H   0  0  0  0  0  0  0  0  0  0  0  0  # atno 6907 bound_to 6896
  152.5045  134.4054  159.9441 H   0  0  0  0  0  0  0  0  0  0  0  0  # atno 6908 bound_to 6896
  151.4080  133.3696  159.2775 H   0  0  0  0  0  0  0  0  0  0  0  0  # atno 6909 bound_to 6896
  145.4323  140.9556  143.2121 H   0  0  0  0  0  0  0  0  0  0  0  0  # atno 7974 bound_to 7965
  154.4585  140.0963  156.6826 H   0  0  0  0  0  0  0  0  0  0  0  0  # atno 8008 bound_to 7997
  155.5066  140.3475  155.4362 H   0  0  0  0  0  0  0  0  0  0  0  0  # atno 8009 bound_to 7997
  156.0824  140.1376  156.9684 H   0  0  0  0  0  0  0  0  0  0  0  0  # atno 8010 bound_to 7997
  139.9389  144.6103  150.8271 H   0  0  0  0  0  0  0  0  0  0  0  0  # atno 10167 bound_to 10162
  157.3632  131.0968  151.0897 H   0  0  0  0  0  0  0  0  0  0  0  0  # atno 10718 bound_to 10713
  153.8900  135.6813  153.4761 H   0  0  0  0  0  0  0  0  0  0  0  0  # atno 10763 bound_to 10752
  153.1186  135.4750  154.9155 H   0  0  0  0  0  0  0  0  0  0  0  0  # atno 10764 bound_to 10752
  154.7627  135.3215  154.8300 H   0  0  0  0  0  0  0  0  0  0  0  0  # atno 10765 bound_to 10752
  139.8778  134.8976  156.4234 H   0  0  0  0  0  0  0  0  0  0  0  0  # atno 11005 bound_to 11000
  144.8175  139.5851  143.7002 LP  0  0  0  0  0  0  0  0  0  0  0  0  # atno 17320 bound_to 7965
  146.2601  139.6390  142.9368 LP  0  0  0  0  0  0  0  0  0  0  0  0  # atno 17321 bound_to 7965
  140.7616  143.3179  151.2690 LP  0  0  0  0  0  0  0  0  0  0  0  0  # atno 17342 bound_to 10162
  139.6720  144.0003  152.2759 LP  0  0  0  0  0  0  0  0  0  0  0  0  # atno 17343 bound_to 10162
  157.2029  130.6403  149.5745 LP  0  0  0  0  0  0  0  0  0  0  0  0  # atno 17370 bound_to 10713
  155.9741  130.4685  150.6362 LP  0  0  0  0  0  0  0  0  0  0  0  0  # atno 17371 bound_to 10713
  140.9118  133.7706  155.9800 LP  0  0  0  0  0  0  0  0  0  0  0  0  # atno 17394 bound_to 11000
  140.8538  134.2922  157.5264 LP  0  0  0  0  0  0  0  0  0  0  0  0  # atno 17395 bound_to 11000

$$$$
