AV-unprocessed.smi:2355|AV-procd|sdf|9392|dock2
  -GOLD-   2272013 23D 1   1.00000     0.00000
 Structure written by MMmdl.
 49 50  0  0  0  0  0  0  0  0  2 V2000
  151.3193  145.4296  159.7985 C   0  0  0  0  0  0  0  0  0  0  0  0
  151.7904  144.0126  159.5490 C   0  0  0  0  0  0  0  0  0  0  0  0
  152.6801  143.3813  160.4390 C   0  0  0  0  0  0  0  0  0  0  0  0
  153.0859  142.0636  160.1507 C   0  0  0  0  0  0  0  0  0  0  0  0
  154.0400  141.3242  161.0648 C   0  0  0  0  0  0  0  0  0  0  0  0
  152.6643  141.3848  159.0622 N   0  0  0  0  0  0  0  0  0  0  0  0
  151.8055  141.9822  158.1991 C   0  0  0  0  0  0  0  0  0  0  0  0
  151.3061  141.3553  157.0265 N   0  0  0  0  0  0  0  0  0  0  0  0
  151.5689  140.1162  156.5762 C   0  0  0  0  0  0  0  0  0  0  0  0
  152.2720  139.2842  157.1510 O   0  0  0  0  0  0  0  0  0  0  0  0
  150.9792  139.8899  155.3921 N   0  0  0  0  0  0  0  0  0  0  0  0
  151.0738  138.6541  154.6109 C   0  0  1  0  0  0  0  0  0  0  0  0
  152.5230  138.1411  154.6462 C   0  0  0  0  0  0  0  0  0  0  0  0
  150.0270  137.5926  155.0675 C   0  0  1  0  0  0  0  0  0  0  0  0
  149.8992  137.5479  156.6108 C   0  0  0  0  0  0  0  0  0  0  0  0
  148.7233  137.8087  154.3569 N   0  3  0  0  0  0  0  0  0  0  0  0
  147.5987  137.0583  154.9745 C   0  0  0  0  0  0  0  0  0  0  0  0
  146.3345  137.1682  154.1075 C   0  0  0  0  0  0  0  0  0  0  0  0
  145.9903  138.5373  153.9480 O   0  0  0  0  0  0  0  0  0  0  0  0
  147.0158  139.2621  153.2834 C   0  0  0  0  0  0  0  0  0  0  0  0
  148.3120  139.2168  154.1111 C   0  0  0  0  0  0  0  0  0  0  0  0
  151.3490  143.3016  158.4148 C   0  0  0  0  0  0  0  0  0  0  0  0
  151.4986  145.7269  160.8319 H   0  0  0  0  0  0  0  0  0  0  0  0
  150.2507  145.5182  159.6009 H   0  0  0  0  0  0  0  0  0  0  0  0
  151.8490  146.1225  159.1446 H   0  0  0  0  0  0  0  0  0  0  0  0
  153.0421  143.8934  161.3188 H   0  0  0  0  0  0  0  0  0  0  0  0
  154.2162  141.8808  161.9854 H   0  0  0  0  0  0  0  0  0  0  0  0
  154.9986  141.1737  160.5680 H   0  0  0  0  0  0  0  0  0  0  0  0
  153.6333  140.3483  161.3316 H   0  0  0  0  0  0  0  0  0  0  0  0
  150.6981  141.9243  156.4561 H   0  0  0  0  0  0  0  0  0  0  0  0
  150.4195  140.6310  154.9953 H   0  0  0  0  0  0  0  0  0  0  0  0
  150.8889  138.9006  153.5651 H   0  0  0  0  0  0  0  0  0  0  0  0
  152.6223  137.2055  154.0953 H   0  0  0  0  0  0  0  0  0  0  0  0
  152.8770  137.9718  155.6630 H   0  0  0  0  0  0  0  0  0  0  0  0
  153.1999  138.8624  154.1863 H   0  0  0  0  0  0  0  0  0  0  0  0
  150.3928  136.6085  154.7693 H   0  0  0  0  0  0  0  0  0  0  0  0
  150.8617  137.3688  157.0878 H   0  0  0  0  0  0  0  0  0  0  0  0
  149.2538  136.7337  156.9406 H   0  0  0  0  0  0  0  0  0  0  0  0
  149.5028  138.4797  157.0151 H   0  0  0  0  0  0  0  0  0  0  0  0
  147.8536  136.0065  155.0956 H   0  0  0  0  0  0  0  0  0  0  0  0
  147.4000  137.4524  155.9723 H   0  0  0  0  0  0  0  0  0  0  0  0
  146.4854  136.6987  153.1339 H   0  0  0  0  0  0  0  0  0  0  0  0
  145.5042  136.6496  154.5869 H   0  0  0  0  0  0  0  0  0  0  0  0
  147.1787  138.8520  152.2852 H   0  0  0  0  0  0  0  0  0  0  0  0
  146.6902  140.2940  153.1525 H   0  0  0  0  0  0  0  0  0  0  0  0
  148.1704  139.7327  155.0621 H   0  0  0  0  0  0  0  0  0  0  0  0
  149.0774  139.7547  153.5526 H   0  0  0  0  0  0  0  0  0  0  0  0
  150.6670  143.7675  157.7181 H   0  0  0  0  0  0  0  0  0  0  0  0
  148.8546  137.4092  153.4378 H   0  0  0  0  0  0  0  0  0  0  0  0
  1  2  1  0  0  0  0
  1 23  1  0  0  0  0
  1 24  1  0  0  0  0
  1 25  1  0  0  0  0
  2 22  1  0  0  0  0
  2  3  2  0  0  0  0
  3  4  1  0  0  0  0
  3 26  1  0  0  0  0
  4  5  1  0  0  0  0
  4  6  2  0  0  0  0
  5 27  1  0  0  0  0
  5 28  1  0  0  0  0
  5 29  1  0  0  0  0
  6  7  1  0  0  0  0
  7  8  1  0  0  0  0
  7 22  2  0  0  0  0
  8  9  1  0  0  0  0
  8 30  1  0  0  0  0
  9 10  2  0  0  0  0
  9 11  1  0  0  0  0
 11 12  1  0  0  0  0
 11 31  1  0  0  0  0
 12 13  1  0  0  0  0
 12 14  1  0  0  0  0
 12 32  1  0  0  0  0
 13 33  1  0  0  0  0
 13 34  1  0  0  0  0
 13 35  1  0  0  0  0
 14 15  1  0  0  0  0
 14 16  1  0  0  0  0
 14 36  1  0  0  0  0
 15 37  1  0  0  0  0
 15 38  1  0  0  0  0
 15 39  1  0  0  0  0
 16 21  1  0  0  0  0
 16 17  1  0  0  0  0
 16 49  1  0  0  0  0
 17 18  1  0  0  0  0
 17 40  1  0  0  0  0
 17 41  1  0  0  0  0
 18 19  1  0  0  0  0
 18 42  1  0  0  0  0
 18 43  1  0  0  0  0
 19 20  1  0  0  0  0
 20 21  1  0  0  0  0
 20 44  1  0  0  0  0
 20 45  1  0  0  0  0
 21 46  1  0  0  0  0
 21 47  1  0  0  0  0
 22 48  1  0  0  0  0
M  CHG  1  16   1
M  END
> <s_m_source_file>
AV-unprocessed.smi

> <i_m_source_file_index>
2355

> <i_lp_mmshare_version>
43012

> <i_f3d_flags>
0

> <s_epik_input>
W0NIM11jMVtjSF1jKFtDSDNdKW5jKFtjSF0xKVtOSF1DKD1PKVtOSF1bQ0BIXShbQ0gzXSlbQ0BIXShbQ0gzXSlOMltDSDJdW0NIMl1PW0NIMl1bQ0gyXTI=

> <s_epik_cmdline>
J2VwaWtfcHl0aG9uJywgJy1waCcsICc3LjAnLCAnLXRuJywgJzgnLCAnLW1hJywgJzIwMCcsICctbWV0YWxfYmluZGluZycsICctaW1hZScsICc8aW5maWxlLm1hZT4nLCAnLW9tYWUnLCAnPG91dGZpbGUubWFlPic=

> <r_epik_Ionization_Penalty>
0.602711

> <r_epik_Ionization_Penalty_Charging>
0.602531

> <r_epik_Ionization_Penalty_Neutral>
0.000180055

> <r_epik_State_Penalty>
0.617039

> <r_epik_Charging_Adjusted_Penalty>
1.21957

> <i_epik_Tot_Q>
1

> <i_epik_Tot_abs_Q>
1

> <r_epik_Metal_State_Penalty>
0.617075

> <b_epik_Metal_Only>
0

> <s_lp_Force_Field>
OPLS_2005

> <r_lp_Energy>
30.3549

> <b_lp_Chiralities_Consistent>
1

> <s_lp_Variant>
AV-unprocessed.smi:2355-8

> <Gold.Version>
5.8.1

> <Gold.Id.Protein>
6NUR|6NUR_protein|mol2

> <Gold.PLP.Fitness>
46.9080

> <Gold.PLP.PLP>
-40.5187

> <Gold.PLP.part.hbond>
-1.9041

> <Gold.PLP.part.metal>
0.0000

> <Gold.PLP.part.buried>
-5.4048

> <Gold.PLP.part.nonpolar>
-33.1623

> <Gold.PLP.part.repulsive>
1.2725

> <Gold.PLP.ligand.clash>
0.0000

> <Gold.PLP.ligand.torsion>
1.2882

> <Gold.PLP.Chemscore.Hbond>
2.9425

> <Gold.PLP.Chemscore.CHOScore>
0.0000

> <Gold.PLP.Chemscore.Metal>
0.0000

> <Gold.Chemscore.Hbonds>
donor molecule, donor type, donor heavy atom, donor atom, acceptor molecule, acceptor atom, score
      L1  H    16    49       P1  7948  2.00
      P1  H  7997  8008       L1    10  0.31

> <Gold.PLP.Chemscore.Internal.Correction>
0.1382

> <Gold.Rescore>
     Score         DG    S(hbond)    S(metal)    S(lipo)     H(rot)  DE(clash)    DE(int)     intcor
     16.06     -21.13       1.96        0.00     109.47       1.45       0.71       4.36       ----

> <Gold.Chemscore.Fitness>
16.0574

> <Gold.Chemscore.DG>
-21.1275

> <Gold.Chemscore.ZeroCoef>
-5.4800

> <Gold.Chemscore.Hbond>
1.9585

> <Gold.Chemscore.Metal>
0.0000

> <Gold.Chemscore.Lipo>
109.4745

> <Gold.Chemscore.Internal_Hbond>
0.0000

> <Gold.Chemscore.DEClash>
0.7055

> <Gold.Chemscore.DEInternal>
4.3647

> <Gold.Chemscore.Rot>
1.4462

> <Gold.Chemscore.Internal.Correction>
   9.000000E+99

> <Gold.Chemscore.Hbonds>
donor molecule, donor type, donor heavy atom, donor atom, acceptor molecule, acceptor atom, score
      L1  H    16    49       P1  7948  0.99
      P1  H  7997  8008       L1    10  0.09

> <Gold.Chemscore.Hbond.Weighted>
-6.5413

> <Gold.Chemscore.Metal.Weighted>
-0.0000

> <Gold.Chemscore.Lipo.Weighted>
-12.8085

> <Gold.Chemscore.Internal_Hbond.Weighted>
0.0000

> <Gold.Chemscore.DEClash.Weighted>
0.7055

> <Gold.Chemscore.DEInternal.Weighted>
4.3647

> <Gold.Chemscore.Rot.Weighted>
3.7023

> <Gold.Chemscore.Internal.Correction.Weighted>
   9.000000E+99

> <Gold.Protein.RotatedTorsions>
[ 6907 6896 6895 6894 ] final  -71.53 input  -60.11 | X-H torsion
[ 7974 7965 7964 7962 ] final  -55.97 input  175.53 | X-H torsion
[ 8008 7997 7996 7995 ] final  -59.96 input   59.86 | X-H torsion
[ 10167 10162 10161 10158 ] final  164.79 input  -65.29 | X-H torsion
[ 10718 10713 10712 10709 ] final    8.86 input   66.30 | X-H torsion
[ 10763 10752 10751 10750 ] final  -87.47 input  -60.55 | X-H torsion
[ 11005 11000 10999 10996 ] final  176.81 input  -57.11 | X-H torsion

> <Gold.Protein.ActiveResidues>
 VAL166  LYS551  ARG553  GLY616  TRP617  ASP618  TYR619  PRO620  LYS621  CYS622 
 ASP623  PHE694  ASN695  SER759  ASP760  ASP761  ALA762  ILE779  LEU786  VAL792 
 PHE793  MET794  SER795  GLU796  ALA797  LYS798  CYS799  TRP800  GLU811  SER814 

> <Gold.Protein.RotatedAtoms>
  150.7208  134.5294  159.5692 H   0  0  0  0  0  0  0  0  0  0  0  0  # atno 6907 bound_to 6896
  152.2831  134.7803  160.0402 H   0  0  0  0  0  0  0  0  0  0  0  0  # atno 6908 bound_to 6896
  151.8443  133.3393  159.3689 H   0  0  0  0  0  0  0  0  0  0  0  0  # atno 6909 bound_to 6896
  145.8680  140.8237  142.9903 H   0  0  0  0  0  0  0  0  0  0  0  0  # atno 7974 bound_to 7965
  154.4376  140.1050  156.6198 H   0  0  0  0  0  0  0  0  0  0  0  0  # atno 8008 bound_to 7997
  155.5720  140.3489  155.4499 H   0  0  0  0  0  0  0  0  0  0  0  0  # atno 8009 bound_to 7997
  156.0382  140.1276  157.0173 H   0  0  0  0  0  0  0  0  0  0  0  0  # atno 8010 bound_to 7997
  139.4895  144.4198  151.9199 H   0  0  0  0  0  0  0  0  0  0  0  0  # atno 10167 bound_to 10162
  156.9578  130.5921  149.5660 H   0  0  0  0  0  0  0  0  0  0  0  0  # atno 10718 bound_to 10713
  154.6339  135.5412  153.7712 H   0  0  0  0  0  0  0  0  0  0  0  0  # atno 10763 bound_to 10752
  153.0299  135.6443  154.1260 H   0  0  0  0  0  0  0  0  0  0  0  0  # atno 10764 bound_to 10752
  154.1188  135.2921  155.3193 H   0  0  0  0  0  0  0  0  0  0  0  0  # atno 10765 bound_to 10752
  140.3772  134.6978  157.4429 H   0  0  0  0  0  0  0  0  0  0  0  0  # atno 11005 bound_to 11000
  144.6726  140.1196  143.7450 LP  0  0  0  0  0  0  0  0  0  0  0  0  # atno 17320 bound_to 7965
  145.9170  139.2522  143.1404 LP  0  0  0  0  0  0  0  0  0  0  0  0  # atno 17321 bound_to 7965
  140.3642  144.2935  150.5929 LP  0  0  0  0  0  0  0  0  0  0  0  0  # atno 17342 bound_to 10162
  140.5376  143.2230  151.8138 LP  0  0  0  0  0  0  0  0  0  0  0  0  # atno 17343 bound_to 10162
  156.0335  130.5424  150.8595 LP  0  0  0  0  0  0  0  0  0  0  0  0  # atno 17370 bound_to 10713
  157.5678  131.0946  150.9463 LP  0  0  0  0  0  0  0  0  0  0  0  0  # atno 17371 bound_to 10713
  140.0506  134.6136  155.8866 LP  0  0  0  0  0  0  0  0  0  0  0  0  # atno 17394 bound_to 11000
  141.1935  133.6579  156.5552 LP  0  0  0  0  0  0  0  0  0  0  0  0  # atno 17395 bound_to 11000

$$$$
