AV-unprocessed.smi:1718|AV-procd|sdf|6928|dock6
  -GOLD-   22720 8133D 1   1.00000     0.00000
 Structure written by MMmdl.
 39 40  0  0  0  0  0  0  0  0  2 V2000
  148.7298  136.2053  155.6689 C   0  0  0  0  0  0  0  0  0  0  0  0
  149.2869  136.7655  156.9861 C   0  0  2  0  0  0  0  0  0  0  0  0
  148.4607  136.2804  158.0404 O   0  0  0  0  0  0  0  0  0  0  0  0
  148.6609  136.8996  159.3070 C   0  0  0  0  0  0  0  0  0  0  0  0
  147.5759  136.4321  160.2866 C   0  0  1  0  0  0  0  0  0  0  0  0
  147.6755  134.9658  160.7264 C   0  0  0  0  0  0  0  0  0  0  0  0
  147.2883  134.9941  162.1993 C   0  0  0  0  0  0  0  0  0  0  0  0
  146.8783  136.4437  162.4528 C   0  0  0  0  0  0  0  0  0  0  0  0
  147.6207  137.1780  161.4936 O   0  0  0  0  0  0  0  0  0  0  0  0
  149.2934  138.3027  156.9820 C   0  0  0  0  0  0  0  0  0  0  0  0
  148.2311  138.9095  156.8464 O   0  0  0  0  0  0  0  0  0  0  0  0
  150.5007  138.8730  157.1656 N   0  0  0  0  0  0  0  0  0  0  0  0
  150.8572  140.2317  157.2149 C   0  0  0  0  0  0  0  0  0  0  0  0
  151.3040  140.8831  158.3245 C   0  0  0  0  0  0  0  0  0  0  0  0
  151.6463  142.2998  158.3135 C   0  0  0  0  0  0  0  0  0  0  0  0
  152.2451  143.0300  159.5025 C   0  0  0  0  0  0  0  0  0  0  0  0
  151.4189  143.9754  159.9510 F   0  0  0  0  0  0  0  0  0  0  0  0
  152.4716  142.1709  160.4951 F   0  0  0  0  0  0  0  0  0  0  0  0
  153.4034  143.6037  159.1765 F   0  0  0  0  0  0  0  0  0  0  0  0
  151.4683  142.8726  157.0691 C   0  0  0  0  0  0  0  0  0  0  0  0
  151.0055  142.3090  155.9319 N   0  5  0  0  0  0  0  0  0  0  0  0
  150.6927  140.9826  155.9527 C   0  0  0  0  0  0  0  0  0  0  0  0
  150.2773  140.4033  154.9482 O   0  0  0  0  0  0  0  0  0  0  0  0
  149.3116  136.5516  154.8138 H   0  0  0  0  0  0  0  0  0  0  0  0
  147.6920  136.5025  155.5122 H   0  0  0  0  0  0  0  0  0  0  0  0
  148.7624  135.1157  155.6695 H   0  0  0  0  0  0  0  0  0  0  0  0
  150.3027  136.3868  157.1161 H   0  0  0  0  0  0  0  0  0  0  0  0
  149.6469  136.6420  159.6960 H   0  0  0  0  0  0  0  0  0  0  0  0
  148.6191  137.9857  159.2210 H   0  0  0  0  0  0  0  0  0  0  0  0
  146.5955  136.5993  159.8370 H   0  0  0  0  0  0  0  0  0  0  0  0
  147.0102  134.3329  160.1381 H   0  0  0  0  0  0  0  0  0  0  0  0
  148.6867  134.5723  160.6159 H   0  0  0  0  0  0  0  0  0  0  0  0
  146.4883  134.2936  162.4396 H   0  0  0  0  0  0  0  0  0  0  0  0
  148.1534  134.7382  162.8121 H   0  0  0  0  0  0  0  0  0  0  0  0
  145.8116  136.5831  162.2695 H   0  0  0  0  0  0  0  0  0  0  0  0
  147.0977  136.7718  163.4693 H   0  0  0  0  0  0  0  0  0  0  0  0
  151.2708  138.2392  157.3240 H   0  0  0  0  0  0  0  0  0  0  0  0
  151.4039  140.3722  159.2674 H   0  0  0  0  0  0  0  0  0  0  0  0
  151.7454  143.9439  156.9710 H   0  0  0  0  0  0  0  0  0  0  0  0
  1  2  1  0  0  0  0
  1 24  1  0  0  0  0
  1 25  1  0  0  0  0
  1 26  1  0  0  0  0
  2  3  1  0  0  0  0
  2 10  1  0  0  0  0
  2 27  1  0  0  0  0
  3  4  1  0  0  0  0
  4  5  1  0  0  0  0
  4 28  1  0  0  0  0
  4 29  1  0  0  0  0
  5  9  1  0  0  0  0
  5  6  1  0  0  0  0
  5 30  1  0  0  0  0
  6  7  1  0  0  0  0
  6 31  1  0  0  0  0
  6 32  1  0  0  0  0
  7  8  1  0  0  0  0
  7 33  1  0  0  0  0
  7 34  1  0  0  0  0
  8  9  1  0  0  0  0
  8 35  1  0  0  0  0
  8 36  1  0  0  0  0
 10 11  2  0  0  0  0
 10 12  1  0  0  0  0
 12 13  1  0  0  0  0
 12 37  1  0  0  0  0
 13 22  1  0  0  0  0
 13 14  2  0  0  0  0
 14 15  1  0  0  0  0
 14 38  1  0  0  0  0
 15 16  1  0  0  0  0
 15 20  2  0  0  0  0
 16 17  1  0  0  0  0
 16 18  1  0  0  0  0
 16 19  1  0  0  0  0
 20 21  1  0  0  0  0
 20 39  1  0  0  0  0
 21 22  1  0  0  0  0
 22 23  2  0  0  0  0
M  CHG  1  21  -1
M  END
> <s_m_source_file>
AV-unprocessed.smi

> <i_m_source_file_index>
1718

> <i_lp_mmshare_version>
43012

> <i_f3d_flags>
0

> <s_epik_input>
TzFbQ0gyXVtDSDJdW0NIMl1bQ0BIXTFbQ0gyXU9bQ0BASF0oW0NIM10pQyg9TylbTkhdYzJbY0hdYyhDKEYpKEYpRilbY0hdW25IXWMyPU8=

> <s_epik_cmdline>
J2VwaWtfcHl0aG9uJywgJy1waCcsICc3LjAnLCAnLXRuJywgJzgnLCAnLW1hJywgJzIwMCcsICctbWV0YWxfYmluZGluZycsICctaW1hZScsICc8aW5maWxlLm1hZT4nLCAnLW9tYWUnLCAnPG91dGZpbGUubWFlPic=

> <r_epik_Ionization_Penalty>
2.5466

> <r_epik_Ionization_Penalty_Charging>
0.0575837

> <r_epik_Ionization_Penalty_Neutral>
2.48901

> <r_epik_State_Penalty>
2.6532

> <r_epik_Charging_Adjusted_Penalty>
2.71078

> <i_epik_Tot_Q>
-1

> <i_epik_Tot_abs_Q>
1

> <r_epik_Metal_State_Penalty>
0.516196

> <b_epik_Metal_Only>
0

> <s_lp_Force_Field>
OPLS_2005

> <r_lp_Energy>
37.3461

> <b_lp_Chiralities_Consistent>
1

> <s_lp_Variant>
AV-unprocessed.smi:1718-7

> <Gold.Version>
5.8.1

> <Gold.Id.Protein>
6NUR|6NUR_protein|mol2

> <Gold.PLP.Fitness>
45.3554

> <Gold.PLP.PLP>
-38.8975

> <Gold.PLP.part.hbond>
-3.0000

> <Gold.PLP.part.metal>
0.0000

> <Gold.PLP.part.buried>
-2.9174

> <Gold.PLP.part.nonpolar>
-30.9794

> <Gold.PLP.part.repulsive>
0.1978

> <Gold.PLP.ligand.clash>
0.0000

> <Gold.PLP.ligand.torsion>
0.9123

> <Gold.PLP.Chemscore.Hbond>
2.7268

> <Gold.PLP.Chemscore.CHOScore>
0.0000

> <Gold.PLP.Chemscore.Metal>
0.0000

> <Gold.Chemscore.Hbonds>
donor molecule, donor type, donor heavy atom, donor atom, acceptor molecule, acceptor atom, score
      P1  H  6931  6943       L1     9  0.99
      P1  H  6934  6947       L1     9  0.82
      P1  H  7989  7998       L1    23  0.99

> <Gold.PLP.Chemscore.Internal.Correction>
0.1023

> <Gold.Rescore>
     Score         DG    S(hbond)    S(metal)    S(lipo)     H(rot)  DE(clash)    DE(int)     intcor
     15.29     -17.17       2.39        0.00      71.93       1.85       0.87       1.01       ----

> <Gold.Chemscore.Fitness>
15.2899

> <Gold.Chemscore.DG>
-17.1656

> <Gold.Chemscore.ZeroCoef>
-5.4800

> <Gold.Chemscore.Hbond>
2.3936

> <Gold.Chemscore.Metal>
0.0000

> <Gold.Chemscore.Lipo>
71.9270

> <Gold.Chemscore.Internal_Hbond>
0.0000

> <Gold.Chemscore.DEClash>
0.8652

> <Gold.Chemscore.DEInternal>
1.0105

> <Gold.Chemscore.Rot>
1.8455

> <Gold.Chemscore.Internal.Correction>
   9.000000E+99

> <Gold.Chemscore.Hbonds>
donor molecule, donor type, donor heavy atom, donor atom, acceptor molecule, acceptor atom, score
      P1  H  6931  6943       L1     9  0.92
      P1  H  6934  6947       L1     9  0.39
      P1  H  7989  7998       L1    23  0.39

> <Gold.Chemscore.Hbond.Weighted>
-7.9946

> <Gold.Chemscore.Metal.Weighted>
-0.0000

> <Gold.Chemscore.Lipo.Weighted>
-8.4155

> <Gold.Chemscore.Internal_Hbond.Weighted>
0.0000

> <Gold.Chemscore.DEClash.Weighted>
0.8652

> <Gold.Chemscore.DEInternal.Weighted>
1.0105

> <Gold.Chemscore.Rot.Weighted>
4.7245

> <Gold.Chemscore.Internal.Correction.Weighted>
   9.000000E+99

> <Gold.Protein.RotatedTorsions>
[ 6907 6896 6895 6894 ] final  -15.47 input  -60.11 | X-H torsion
[ 7974 7965 7964 7962 ] final  108.16 input  175.53 | X-H torsion
[ 8008 7997 7996 7995 ] final    2.29 input   59.86 | X-H torsion
[ 10167 10162 10161 10158 ] final  -55.78 input  -65.29 | X-H torsion
[ 10718 10713 10712 10709 ] final   60.80 input   66.30 | X-H torsion
[ 10763 10752 10751 10750 ] final  -33.46 input  -60.55 | X-H torsion
[ 11005 11000 10999 10996 ] final   95.89 input  -57.11 | X-H torsion

> <Gold.Protein.ActiveResidues>
 VAL166  LYS551  ARG553  GLY616  TRP617  ASP618  TYR619  PRO620  LYS621  CYS622 
 ASP623  PHE694  ASN695  SER759  ASP760  ASP761  ALA762  ILE779  LEU786  VAL792 
 PHE793  MET794  SER795  GLU796  ALA797  LYS798  CYS799  TRP800  GLU811  SER814 

> <Gold.Protein.RotatedAtoms>
  151.3235  135.0824  159.9313 H   0  0  0  0  0  0  0  0  0  0  0  0  # atno 6907 bound_to 6896
  152.5251  133.9615  159.7730 H   0  0  0  0  0  0  0  0  0  0  0  0  # atno 6908 bound_to 6896
  150.9940  133.6068  159.2734 H   0  0  0  0  0  0  0  0  0  0  0  0  # atno 6909 bound_to 6896
  145.2842  139.2622  143.3899 H   0  0  0  0  0  0  0  0  0  0  0  0  # atno 7974 bound_to 7965
  154.6898  140.2650  155.6824 H   0  0  0  0  0  0  0  0  0  0  0  0  # atno 8008 bound_to 7997
  156.2728  140.2793  156.1395 H   0  0  0  0  0  0  0  0  0  0  0  0  # atno 8009 bound_to 7997
  155.0913  140.0373  157.2659 H   0  0  0  0  0  0  0  0  0  0  0  0  # atno 8010 bound_to 7997
  140.6355  143.2480  151.5129 H   0  0  0  0  0  0  0  0  0  0  0  0  # atno 10167 bound_to 10162
  157.5780  130.8959  149.9381 H   0  0  0  0  0  0  0  0  0  0  0  0  # atno 10718 bound_to 10713
  153.8306  135.6866  153.4815 H   0  0  0  0  0  0  0  0  0  0  0  0  # atno 10763 bound_to 10752
  153.1513  135.4617  154.9639 H   0  0  0  0  0  0  0  0  0  0  0  0  # atno 10764 bound_to 10752
  154.7888  135.3294  154.7769 H   0  0  0  0  0  0  0  0  0  0  0  0  # atno 10765 bound_to 10752
  139.8785  134.8922  156.4078 H   0  0  0  0  0  0  0  0  0  0  0  0  # atno 11005 bound_to 11000
  146.3206  140.3317  142.8641 LP  0  0  0  0  0  0  0  0  0  0  0  0  # atno 17320 bound_to 7965
  144.9227  140.7886  143.5738 LP  0  0  0  0  0  0  0  0  0  0  0  0  # atno 17321 bound_to 7965
  139.5566  144.2261  152.1622 LP  0  0  0  0  0  0  0  0  0  0  0  0  # atno 17342 bound_to 10162
  140.1516  144.5109  150.6684 LP  0  0  0  0  0  0  0  0  0  0  0  0  # atno 17343 bound_to 10162
  156.0825  130.3671  150.0552 LP  0  0  0  0  0  0  0  0  0  0  0  0  # atno 17370 bound_to 10713
  156.8696  130.9519  151.3610 LP  0  0  0  0  0  0  0  0  0  0  0  0  # atno 17371 bound_to 10713
  140.9222  133.7637  155.9920 LP  0  0  0  0  0  0  0  0  0  0  0  0  # atno 17394 bound_to 11000
  140.8427  134.3047  157.5307 LP  0  0  0  0  0  0  0  0  0  0  0  0  # atno 17395 bound_to 11000

$$$$
