AV-unprocessed.smi:1149|AV-procd|sdf|4890|dock9
  -GOLD-   22720 3463D 1   1.00000     0.00000
 Structure written by MMmdl.
 51 52  0  0  0  0  0  0  0  0  2 V2000
  152.7938  139.8099  158.7326 C   0  0  0  0  0  0  0  0  0  0  0  0
  152.9315  139.8412  157.3162 O   0  0  0  0  0  0  0  0  0  0  0  0
  152.2251  138.9216  156.5687 C   0  0  0  0  0  0  0  0  0  0  0  0
  152.2991  138.9961  155.1636 C   0  0  0  0  0  0  0  0  0  0  0  0
  151.5761  138.0661  154.3926 C   0  0  0  0  0  0  0  0  0  0  0  0
  150.7922  137.0916  155.0547 C   0  0  0  0  0  0  0  0  0  0  0  0
  150.0313  136.0924  154.3900 N   0  0  0  0  0  0  0  0  0  0  0  0
  149.6609  134.8844  154.8483 C   0  0  0  0  0  0  0  0  0  0  0  0
  149.9436  134.4267  155.9552 O   0  0  0  0  0  0  0  0  0  0  0  0
  148.9438  134.2185  153.9321 N   0  0  0  0  0  0  0  0  0  0  0  0
  148.3876  132.8744  154.0942 C   0  0  0  0  0  0  0  0  0  0  0  0
  146.8357  132.8256  153.9564 C   0  0  0  0  0  0  0  0  0  0  0  0
  146.3604  131.3842  154.2582 C   0  0  0  0  0  0  0  0  0  0  0  0
  146.2335  133.7740  155.0245 C   0  0  0  0  0  0  0  0  0  0  0  0
  146.4186  133.2721  152.5993 N   0  0  0  0  0  0  0  0  0  0  0  0
  145.0094  133.6858  152.4898 C   0  0  0  0  0  0  0  0  0  0  0  0
  144.7519  134.3667  151.1305 C   0  0  0  0  0  0  0  0  0  0  0  0
  145.0792  133.4676  150.0009 N   0  3  0  0  0  0  0  0  0  0  0  0
  144.0629  132.4185  149.7539 C   0  0  0  0  0  0  0  0  0  0  0  0
  146.4578  132.9470  150.1451 C   0  0  0  0  0  0  0  0  0  0  0  0
  146.6745  132.2968  151.5262 C   0  0  0  0  0  0  0  0  0  0  0  0
  150.8001  137.0905  156.4648 C   0  0  0  0  0  0  0  0  0  0  0  0
  151.4899  137.9797  157.2100 N   0  0  0  0  0  0  0  0  0  0  0  0
  153.4001  140.6022  159.1714 H   0  0  0  0  0  0  0  0  0  0  0  0
  153.1401  138.8613  159.1455 H   0  0  0  0  0  0  0  0  0  0  0  0
  151.7599  139.9780  159.0376 H   0  0  0  0  0  0  0  0  0  0  0  0
  152.9028  139.7523  154.6839 H   0  0  0  0  0  0  0  0  0  0  0  0
  151.6480  138.1116  153.3172 H   0  0  0  0  0  0  0  0  0  0  0  0
  149.7962  136.2956  153.4295 H   0  0  0  0  0  0  0  0  0  0  0  0
  148.7623  134.6770  153.0516 H   0  0  0  0  0  0  0  0  0  0  0  0
  148.8715  132.2219  153.3685 H   0  0  0  0  0  0  0  0  0  0  0  0
  148.6849  132.4584  155.0587 H   0  0  0  0  0  0  0  0  0  0  0  0
  146.6618  131.0839  155.2625 H   0  0  0  0  0  0  0  0  0  0  0  0
  146.7895  130.6536  153.5726 H   0  0  0  0  0  0  0  0  0  0  0  0
  145.2759  131.2862  154.2160 H   0  0  0  0  0  0  0  0  0  0  0  0
  146.6954  133.6109  155.9989 H   0  0  0  0  0  0  0  0  0  0  0  0
  145.1656  133.6142  155.1718 H   0  0  0  0  0  0  0  0  0  0  0  0
  146.3819  134.8235  154.7677 H   0  0  0  0  0  0  0  0  0  0  0  0
  144.3437  132.8327  152.6215 H   0  0  0  0  0  0  0  0  0  0  0  0
  144.7495  134.4094  153.2593 H   0  0  0  0  0  0  0  0  0  0  0  0
  143.7143  134.6944  151.0570 H   0  0  0  0  0  0  0  0  0  0  0  0
  145.3643  135.2662  151.0507 H   0  0  0  0  0  0  0  0  0  0  0  0
  143.9761  131.7281  150.5929 H   0  0  0  0  0  0  0  0  0  0  0  0
  144.3196  131.8410  148.8654 H   0  0  0  0  0  0  0  0  0  0  0  0
  143.0844  132.8684  149.5831 H   0  0  0  0  0  0  0  0  0  0  0  0
  146.6722  132.2339  149.3484 H   0  0  0  0  0  0  0  0  0  0  0  0
  147.1596  133.7724  150.0155 H   0  0  0  0  0  0  0  0  0  0  0  0
  147.7020  131.9413  151.5531 H   0  0  0  0  0  0  0  0  0  0  0  0
  146.0357  131.4208  151.6384 H   0  0  0  0  0  0  0  0  0  0  0  0
  150.2304  136.3559  157.0153 H   0  0  0  0  0  0  0  0  0  0  0  0
  145.0767  134.0423  149.1703 H   0  0  0  0  0  0  0  0  0  0  0  0
  1  2  1  0  0  0  0
  1 24  1  0  0  0  0
  1 25  1  0  0  0  0
  1 26  1  0  0  0  0
  2  3  1  0  0  0  0
  3 23  1  0  0  0  0
  3  4  2  0  0  0  0
  4  5  1  0  0  0  0
  4 27  1  0  0  0  0
  5  6  2  0  0  0  0
  5 28  1  0  0  0  0
  6  7  1  0  0  0  0
  6 22  1  0  0  0  0
  7  8  1  0  0  0  0
  7 29  1  0  0  0  0
  8  9  2  0  0  0  0
  8 10  1  0  0  0  0
 10 11  1  0  0  0  0
 10 30  1  0  0  0  0
 11 12  1  0  0  0  0
 11 31  1  0  0  0  0
 11 32  1  0  0  0  0
 12 13  1  0  0  0  0
 12 14  1  0  0  0  0
 12 15  1  0  0  0  0
 13 33  1  0  0  0  0
 13 34  1  0  0  0  0
 13 35  1  0  0  0  0
 14 36  1  0  0  0  0
 14 37  1  0  0  0  0
 14 38  1  0  0  0  0
 15 21  1  0  0  0  0
 15 16  1  0  0  0  0
 16 17  1  0  0  0  0
 16 39  1  0  0  0  0
 16 40  1  0  0  0  0
 17 18  1  0  0  0  0
 17 41  1  0  0  0  0
 17 42  1  0  0  0  0
 18 19  1  0  0  0  0
 18 20  1  0  0  0  0
 18 51  1  0  0  0  0
 19 43  1  0  0  0  0
 19 44  1  0  0  0  0
 19 45  1  0  0  0  0
 20 21  1  0  0  0  0
 20 46  1  0  0  0  0
 20 47  1  0  0  0  0
 21 48  1  0  0  0  0
 21 49  1  0  0  0  0
 22 23  2  0  0  0  0
 22 50  1  0  0  0  0
M  CHG  1  18   1
M  END
> <s_m_source_file>
AV-unprocessed.smi

> <i_m_source_file_index>
1149

> <i_lp_mmshare_version>
43012

> <i_f3d_flags>
0

> <s_epik_input>
W0NIM11PYzFbY0hdW2NIXWMoW2NIXW4xKVtOSF1DKD1PKVtOSF1bQ0gyXUMoW0NIM10pKFtDSDNdKU4yW0NIMl1bQ0gyXU4oW0NIM10pW0NIMl1bQ0gyXTI=

> <s_epik_cmdline>
J2VwaWtfcHl0aG9uJywgJy1waCcsICc3LjAnLCAnLXRuJywgJzgnLCAnLW1hJywgJzIwMCcsICctbWV0YWxfYmluZGluZycsICctaW1hZScsICc8aW5maWxlLm1hZT4nLCAnLW9tYWUnLCAnPG91dGZpbGUubWFlPic=

> <r_lp_tautomer_probability>
1

> <r_epik_Ionization_Penalty>
0.0248754

> <r_epik_Ionization_Penalty_Charging>
0.0238192

> <r_epik_Ionization_Penalty_Neutral>
0.00105627

> <r_epik_State_Penalty>
0.139266

> <r_epik_Charging_Adjusted_Penalty>
0.163085

> <i_epik_Tot_Q>
1

> <i_epik_Tot_abs_Q>
1

> <r_epik_Metal_State_Penalty>
0.139265

> <b_epik_Metal_Only>
0

> <s_lp_Force_Field>
OPLS_2005

> <r_lp_Energy>
29.3026

> <b_lp_Chiralities_Consistent>
1

> <s_lp_Variant>
AV-unprocessed.smi:1149-1

> <Gold.Version>
5.8.1

> <Gold.Id.Protein>
6NUR|6NUR_protein|mol2

> <Gold.PLP.Fitness>
44.8269

> <Gold.PLP.PLP>
-33.8538

> <Gold.PLP.part.hbond>
-4.5198

> <Gold.PLP.part.metal>
0.0000

> <Gold.PLP.part.buried>
-3.1026

> <Gold.PLP.part.nonpolar>
-26.0998

> <Gold.PLP.part.repulsive>
0.2775

> <Gold.PLP.ligand.clash>
0.0000

> <Gold.PLP.ligand.torsion>
0.5234

> <Gold.PLP.Chemscore.Hbond>
3.9920

> <Gold.PLP.Chemscore.CHOScore>
0.0000

> <Gold.PLP.Chemscore.Metal>
0.0000

> <Gold.Chemscore.Hbonds>
donor molecule, donor type, donor heavy atom, donor atom, acceptor molecule, acceptor atom, score
      L1  H     7    29       P1  7948  0.90
      L1  H    10    30       P1  7948  0.90
      L1  H    18    51       P1  7921  0.94
      P1  H  7997  8009       L1     2  1.00

> <Gold.PLP.Chemscore.Internal.Correction>
0.0439

> <Gold.Rescore>
     Score         DG    S(hbond)    S(metal)    S(lipo)     H(rot)  DE(clash)    DE(int)     intcor
     16.54     -18.42       2.42        0.00      79.02       1.72       0.08       1.79       ----

> <Gold.Chemscore.Fitness>
16.5443

> <Gold.Chemscore.DG>
-18.4161

> <Gold.Chemscore.ZeroCoef>
-5.4800

> <Gold.Chemscore.Hbond>
2.4243

> <Gold.Chemscore.Metal>
0.0000

> <Gold.Chemscore.Lipo>
79.0228

> <Gold.Chemscore.Internal_Hbond>
0.0000

> <Gold.Chemscore.DEClash>
0.0825

> <Gold.Chemscore.DEInternal>
1.7894

> <Gold.Chemscore.Rot>
1.7213

> <Gold.Chemscore.Internal.Correction>
   9.000000E+99

> <Gold.Chemscore.Hbonds>
donor molecule, donor type, donor heavy atom, donor atom, acceptor molecule, acceptor atom, score
      L1  H     7    29       P1  7948  0.18
      L1  H    10    30       P1  7948  0.17
      L1  H    18    51       P1  7921  0.84
      P1  H  7997  8009       L1     2  0.63

> <Gold.Chemscore.Hbond.Weighted>
-8.0970

> <Gold.Chemscore.Metal.Weighted>
-0.0000

> <Gold.Chemscore.Lipo.Weighted>
-9.2457

> <Gold.Chemscore.Internal_Hbond.Weighted>
0.0000

> <Gold.Chemscore.DEClash.Weighted>
0.0825

> <Gold.Chemscore.DEInternal.Weighted>
1.7894

> <Gold.Chemscore.Rot.Weighted>
4.4066

> <Gold.Chemscore.Internal.Correction.Weighted>
   9.000000E+99

> <Gold.Protein.RotatedTorsions>
[ 6907 6896 6895 6894 ] final  150.38 input  -60.11 | X-H torsion
[ 7974 7965 7964 7962 ] final  144.34 input  175.53 | X-H torsion
[ 8008 7997 7996 7995 ] final -175.04 input   59.86 | X-H torsion
[ 10167 10162 10161 10158 ] final   38.80 input  -65.29 | X-H torsion
[ 10718 10713 10712 10709 ] final -124.18 input   66.30 | X-H torsion
[ 10763 10752 10751 10750 ] final  -70.08 input  -60.55 | X-H torsion
[ 11005 11000 10999 10996 ] final   27.34 input  -57.11 | X-H torsion

> <Gold.Protein.ActiveResidues>
 VAL166  LYS551  ARG553  GLY616  TRP617  ASP618  TYR619  PRO620  LYS621  CYS622 
 ASP623  PHE694  ASN695  SER759  ASP760  ASP761  ALA762  ILE779  LEU786  VAL792 
 PHE793  MET794  SER795  GLU796  ALA797  LYS798  CYS799  TRP800  GLU811  SER814 

> <Gold.Protein.RotatedAtoms>
  152.1152  133.4323  159.4649 H   0  0  0  0  0  0  0  0  0  0  0  0  # atno 6907 bound_to 6896
  150.6869  134.2600  159.4555 H   0  0  0  0  0  0  0  0  0  0  0  0  # atno 6908 bound_to 6896
  152.0473  134.9675  160.0625 H   0  0  0  0  0  0  0  0  0  0  0  0  # atno 6909 bound_to 6896
  144.8844  139.5651  143.5828 H   0  0  0  0  0  0  0  0  0  0  0  0  # atno 7974 bound_to 7965
  155.9777  140.1175  157.0755 H   0  0  0  0  0  0  0  0  0  0  0  0  # atno 8008 bound_to 7997
  154.4174  140.1151  156.5460 H   0  0  0  0  0  0  0  0  0  0  0  0  # atno 8009 bound_to 7997
  155.6513  140.3473  155.4751 H   0  0  0  0  0  0  0  0  0  0  0  0  # atno 8010 bound_to 7997
  140.3901  144.1864  150.6131 H   0  0  0  0  0  0  0  0  0  0  0  0  # atno 10167 bound_to 10162
  156.1565  130.6572  150.9989 H   0  0  0  0  0  0  0  0  0  0  0  0  # atno 10718 bound_to 10713
  154.4125  135.6005  153.5961 H   0  0  0  0  0  0  0  0  0  0  0  0  # atno 10763 bound_to 10752
  152.9791  135.5933  154.4052 H   0  0  0  0  0  0  0  0  0  0  0  0  # atno 10764 bound_to 10752
  154.3867  135.2841  155.2158 H   0  0  0  0  0  0  0  0  0  0  0  0  # atno 10765 bound_to 10752
  140.3273  134.2477  155.7707 H   0  0  0  0  0  0  0  0  0  0  0  0  # atno 11005 bound_to 11000
  146.3015  139.7442  142.9088 LP  0  0  0  0  0  0  0  0  0  0  0  0  # atno 17320 bound_to 7965
  145.3896  141.0370  143.3131 LP  0  0  0  0  0  0  0  0  0  0  0  0  # atno 17321 bound_to 7965
  140.4848  143.2367  151.8903 LP  0  0  0  0  0  0  0  0  0  0  0  0  # atno 17342 bound_to 10162
  139.4789  144.5230  151.8775 LP  0  0  0  0  0  0  0  0  0  0  0  0  # atno 17343 bound_to 10162
  157.6699  131.0863  150.7637 LP  0  0  0  0  0  0  0  0  0  0  0  0  # atno 17370 bound_to 10713
  156.7702  130.4826  149.5420 LP  0  0  0  0  0  0  0  0  0  0  0  0  # atno 17371 bound_to 10713
  141.2072  133.7812  157.0133 LP  0  0  0  0  0  0  0  0  0  0  0  0  # atno 17394 bound_to 11000
  140.0890  134.9603  157.1746 LP  0  0  0  0  0  0  0  0  0  0  0  0  # atno 17395 bound_to 11000

$$$$
