AV-unprocessed.smi:1076|AV-procd|sdf|4697|dock3
  -GOLD-   22720 3213D 1   1.00000     0.00000
 Structure written by MMmdl.
 45 46  0  0  0  0  0  0  0  0  2 V2000
  150.5443  136.4608  156.5052 C   0  0  0  0  0  0  0  0  0  0  0  0
  150.4407  137.7080  155.6765 C   0  0  0  0  0  0  0  0  0  0  0  0
  151.5003  138.5376  155.2128 C   0  0  0  0  0  0  0  0  0  0  0  0
  151.0711  139.5774  154.5166 N   0  0  0  0  0  0  0  0  0  0  0  0
  149.7273  139.4449  154.5048 N   0  0  0  0  0  0  0  0  0  0  0  0
  148.9088  140.4495  153.8456 C   0  0  0  0  0  0  0  0  0  0  0  0
  148.2471  141.4025  154.8599 C   0  0  2  0  0  0  0  0  0  0  0  0
  147.1547  142.2601  154.2047 C   0  0  0  0  0  0  0  0  0  0  0  0
  149.2786  142.2550  155.4899 N   0  3  0  0  0  0  0  0  0  0  0  0
  150.2866  141.5504  156.3118 C   0  0  0  0  0  0  0  0  0  0  0  0
  151.0475  142.5402  157.2173 C   0  0  0  0  0  0  0  0  0  0  0  0
  151.8033  141.8660  158.3815 C   0  0  0  0  0  0  0  0  0  0  0  0
  151.7769  140.6374  158.4739 O   0  0  0  0  0  0  0  0  0  0  0  0
  152.4952  142.6344  159.2552 N   0  0  0  0  0  0  0  0  0  0  0  0
  152.4055  144.0966  159.2792 C   0  0  0  0  0  0  0  0  0  0  0  0
  151.7313  144.5098  160.6006 C   0  0  0  0  0  0  0  0  0  0  0  0
  152.4788  144.0006  161.7034 O   0  0  0  0  0  0  0  0  0  0  0  0
  152.6200  142.5815  161.6829 C   0  0  0  0  0  0  0  0  0  0  0  0
  153.3088  142.1540  160.3750 C   0  0  0  0  0  0  0  0  0  0  0  0
  149.3200  138.3231  155.1949 C   0  0  0  0  0  0  0  0  0  0  0  0
  151.5377  136.0157  156.4443 H   0  0  0  0  0  0  0  0  0  0  0  0
  149.8324  135.7008  156.1831 H   0  0  0  0  0  0  0  0  0  0  0  0
  150.3466  136.6627  157.5580 H   0  0  0  0  0  0  0  0  0  0  0  0
  152.5624  138.4188  155.3678 H   0  0  0  0  0  0  0  0  0  0  0  0
  149.5275  141.0053  153.1388 H   0  0  0  0  0  0  0  0  0  0  0  0
  148.1476  139.9349  153.2581 H   0  0  0  0  0  0  0  0  0  0  0  0
  147.7868  140.7842  155.6322 H   0  0  0  0  0  0  0  0  0  0  0  0
  146.3904  141.6337  153.7439 H   0  0  0  0  0  0  0  0  0  0  0  0
  147.5681  142.9045  153.4279 H   0  0  0  0  0  0  0  0  0  0  0  0
  146.6566  142.8966  154.9365 H   0  0  0  0  0  0  0  0  0  0  0  0
  149.7845  142.6842  154.7271 H   0  0  0  0  0  0  0  0  0  0  0  0
  149.7834  140.7940  156.9142 H   0  0  0  0  0  0  0  0  0  0  0  0
  150.9976  141.0182  155.6778 H   0  0  0  0  0  0  0  0  0  0  0  0
  151.7508  143.0964  156.5967 H   0  0  0  0  0  0  0  0  0  0  0  0
  150.3469  143.2633  157.6362 H   0  0  0  0  0  0  0  0  0  0  0  0
  153.4063  144.5260  159.2143 H   0  0  0  0  0  0  0  0  0  0  0  0
  151.8447  144.5054  158.4377 H   0  0  0  0  0  0  0  0  0  0  0  0
  151.6819  145.5960  160.6773 H   0  0  0  0  0  0  0  0  0  0  0  0
  150.7062  144.1388  160.6457 H   0  0  0  0  0  0  0  0  0  0  0  0
  153.2150  142.2735  162.5427 H   0  0  0  0  0  0  0  0  0  0  0  0
  151.6425  142.1067  161.7818 H   0  0  0  0  0  0  0  0  0  0  0  0
  153.4777  141.0784  160.3676 H   0  0  0  0  0  0  0  0  0  0  0  0
  154.3010  142.6039  160.3149 H   0  0  0  0  0  0  0  0  0  0  0  0
  148.2762  138.0642  155.2952 H   0  0  0  0  0  0  0  0  0  0  0  0
  148.8406  142.9884  156.0284 H   0  0  0  0  0  0  0  0  0  0  0  0
  1  2  1  0  0  0  0
  1 21  1  0  0  0  0
  1 22  1  0  0  0  0
  1 23  1  0  0  0  0
  2 20  2  0  0  0  0
  2  3  1  0  0  0  0
  3  4  2  0  0  0  0
  3 24  1  0  0  0  0
  4  5  1  0  0  0  0
  5  6  1  0  0  0  0
  5 20  1  0  0  0  0
  6  7  1  0  0  0  0
  6 25  1  0  0  0  0
  6 26  1  0  0  0  0
  7  8  1  0  0  0  0
  7  9  1  0  0  0  0
  7 27  1  0  0  0  0
  8 28  1  0  0  0  0
  8 29  1  0  0  0  0
  8 30  1  0  0  0  0
  9 10  1  0  0  0  0
  9 31  1  0  0  0  0
  9 45  1  0  0  0  0
 10 11  1  0  0  0  0
 10 32  1  0  0  0  0
 10 33  1  0  0  0  0
 11 12  1  0  0  0  0
 11 34  1  0  0  0  0
 11 35  1  0  0  0  0
 12 13  2  0  0  0  0
 12 14  1  0  0  0  0
 14 19  1  0  0  0  0
 14 15  1  0  0  0  0
 15 16  1  0  0  0  0
 15 36  1  0  0  0  0
 15 37  1  0  0  0  0
 16 17  1  0  0  0  0
 16 38  1  0  0  0  0
 16 39  1  0  0  0  0
 17 18  1  0  0  0  0
 18 19  1  0  0  0  0
 18 40  1  0  0  0  0
 18 41  1  0  0  0  0
 19 42  1  0  0  0  0
 19 43  1  0  0  0  0
 20 44  1  0  0  0  0
M  CHG  1   9   1
M  END
> <s_m_source_file>
AV-unprocessed.smi

> <i_m_source_file_index>
1076

> <i_lp_mmshare_version>
43012

> <i_f3d_flags>
0

> <s_epik_input>
W0NIM11jMVtjSF1ubihbY0hdMSlbQ0gyXVtDQEhdKFtDSDNdKVtOSF1bQ0gyXVtDSDJdQyg9TylOMltDSDJdW0NIMl1PW0NIMl1bQ0gyXTI=

> <s_epik_cmdline>
J2VwaWtfcHl0aG9uJywgJy1waCcsICc3LjAnLCAnLXRuJywgJzgnLCAnLW1hJywgJzIwMCcsICctbWV0YWxfYmluZGluZycsICctaW1hZScsICc8aW5maWxlLm1hZT4nLCAnLW9tYWUnLCAnPG91dGZpbGUubWFlPic=

> <r_lp_tautomer_probability>
1

> <r_epik_Ionization_Penalty>
0.00797518

> <r_epik_Ionization_Penalty_Charging>
0.0079672

> <r_epik_Ionization_Penalty_Neutral>
7.97619e-06

> <r_epik_State_Penalty>
0.00597998

> <r_epik_Charging_Adjusted_Penalty>
0.0139472

> <i_epik_Tot_Q>
1

> <i_epik_Tot_abs_Q>
1

> <r_epik_Metal_State_Penalty>
0.00598062

> <b_epik_Metal_Only>
0

> <s_lp_Force_Field>
OPLS_2005

> <r_lp_Energy>
21.8291

> <b_lp_Chiralities_Consistent>
1

> <s_lp_Variant>
AV-unprocessed.smi:1076-1

> <Gold.Version>
5.8.1

> <Gold.Id.Protein>
6NUR|6NUR_protein|mol2

> <Gold.PLP.Fitness>
51.1710

> <Gold.PLP.PLP>
-45.9987

> <Gold.PLP.part.hbond>
-1.7677

> <Gold.PLP.part.metal>
0.0000

> <Gold.PLP.part.buried>
-2.7699

> <Gold.PLP.part.nonpolar>
-41.6062

> <Gold.PLP.part.repulsive>
0.4440

> <Gold.PLP.ligand.clash>
0.0000

> <Gold.PLP.ligand.torsion>
0.4475

> <Gold.PLP.Chemscore.Hbond>
1.9600

> <Gold.PLP.Chemscore.CHOScore>
0.0000

> <Gold.PLP.Chemscore.Metal>
0.0000

> <Gold.Chemscore.Hbonds>
donor molecule, donor type, donor heavy atom, donor atom, acceptor molecule, acceptor atom, score
      L1  H     9    45       P1  8028  1.06
      P1  H  7989  7998       L1     4  1.00

> <Gold.PLP.Chemscore.Internal.Correction>
0.1873

> <Gold.Rescore>
     Score         DG    S(hbond)    S(metal)    S(lipo)     H(rot)  DE(clash)    DE(int)     intcor
     14.36     -17.27       1.60        0.00      98.42       1.98       0.53       2.37       ----

> <Gold.Chemscore.Fitness>
14.3646

> <Gold.Chemscore.DG>
-17.2665

> <Gold.Chemscore.ZeroCoef>
-5.4800

> <Gold.Chemscore.Hbond>
1.6018

> <Gold.Chemscore.Metal>
0.0000

> <Gold.Chemscore.Lipo>
98.4167

> <Gold.Chemscore.Internal_Hbond>
0.0000

> <Gold.Chemscore.DEClash>
0.5349

> <Gold.Chemscore.DEInternal>
2.3670

> <Gold.Chemscore.Rot>
1.9837

> <Gold.Chemscore.Internal.Correction>
   9.000000E+99

> <Gold.Chemscore.Hbonds>
donor molecule, donor type, donor heavy atom, donor atom, acceptor molecule, acceptor atom, score
      L1  H     9    45       P1  8028  0.52
      P1  H  7989  7998       L1     4  0.85

> <Gold.Chemscore.Hbond.Weighted>
-5.3499

> <Gold.Chemscore.Metal.Weighted>
-0.0000

> <Gold.Chemscore.Lipo.Weighted>
-11.5148

> <Gold.Chemscore.Internal_Hbond.Weighted>
0.0000

> <Gold.Chemscore.DEClash.Weighted>
0.5349

> <Gold.Chemscore.DEInternal.Weighted>
2.3670

> <Gold.Chemscore.Rot.Weighted>
5.0782

> <Gold.Chemscore.Internal.Correction.Weighted>
   9.000000E+99

> <Gold.Protein.RotatedTorsions>
[ 6907 6896 6895 6894 ] final   -2.69 input  -60.11 | X-H torsion
[ 7974 7965 7964 7962 ] final   48.21 input  175.53 | X-H torsion
[ 8008 7997 7996 7995 ] final  -25.34 input   59.86 | X-H torsion
[ 10167 10162 10161 10158 ] final  167.66 input  -65.29 | X-H torsion
[ 10718 10713 10712 10709 ] final    9.28 input   66.30 | X-H torsion
[ 10763 10752 10751 10750 ] final   65.06 input  -60.55 | X-H torsion
[ 11005 11000 10999 10996 ] final  -88.28 input  -57.11 | X-H torsion

> <Gold.Protein.ActiveResidues>
 VAL166  LYS551  ARG553  GLY616  TRP617  ASP618  TYR619  PRO620  LYS621  CYS622 
 ASP623  PHE694  ASN695  SER759  ASP760  ASP761  ALA762  ILE779  LEU786  VAL792 
 PHE793  MET794  SER795  GLU796  ALA797  LYS798  CYS799  TRP800  GLU811  SER814 

> <Gold.Protein.RotatedAtoms>
  151.5258  135.1068  159.9889 H   0  0  0  0  0  0  0  0  0  0  0  0  # atno 6907 bound_to 6896
  152.4600  133.7799  159.6855 H   0  0  0  0  0  0  0  0  0  0  0  0  # atno 6908 bound_to 6896
  150.8559  133.7651  159.3034 H   0  0  0  0  0  0  0  0  0  0  0  0  # atno 6909 bound_to 6896
  146.0225  139.4668  142.9888 H   0  0  0  0  0  0  0  0  0  0  0  0  # atno 7974 bound_to 7965
  154.4481  140.1929  156.0604 H   0  0  0  0  0  0  0  0  0  0  0  0  # atno 8008 bound_to 7997
  156.0587  140.3299  155.7409 H   0  0  0  0  0  0  0  0  0  0  0  0  # atno 8009 bound_to 7997
  155.5445  140.0589  157.2854 H   0  0  0  0  0  0  0  0  0  0  0  0  # atno 8010 bound_to 7997
  139.4950  144.3898  151.9530 H   0  0  0  0  0  0  0  0  0  0  0  0  # atno 10167 bound_to 10162
  156.9641  130.5944  149.5664 H   0  0  0  0  0  0  0  0  0  0  0  0  # atno 10718 bound_to 10713
  153.0081  135.5370  154.6608 H   0  0  0  0  0  0  0  0  0  0  0  0  # atno 10763 bound_to 10752
  154.5817  135.2850  155.0728 H   0  0  0  0  0  0  0  0  0  0  0  0  # atno 10764 bound_to 10752
  154.1855  135.6509  153.5098 H   0  0  0  0  0  0  0  0  0  0  0  0  # atno 10765 bound_to 10752
  141.1604  133.7560  156.9428 H   0  0  0  0  0  0  0  0  0  0  0  0  # atno 11005 bound_to 11000
  145.7170  141.0087  143.1423 LP  0  0  0  0  0  0  0  0  0  0  0  0  # atno 17320 bound_to 7965
  144.6996  139.8825  143.7448 LP  0  0  0  0  0  0  0  0  0  0  0  0  # atno 17321 bound_to 7965
  140.3335  144.3288  150.5982 LP  0  0  0  0  0  0  0  0  0  0  0  0  # atno 17342 bound_to 10162
  140.5625  143.2190  151.7740 LP  0  0  0  0  0  0  0  0  0  0  0  0  # atno 17343 bound_to 10162
  156.0310  130.5401  150.8533 LP  0  0  0  0  0  0  0  0  0  0  0  0  # atno 17370 bound_to 10713
  157.5638  131.0946  150.9520 LP  0  0  0  0  0  0  0  0  0  0  0  0  # atno 17371 bound_to 10713
  140.1310  134.9356  157.2337 LP  0  0  0  0  0  0  0  0  0  0  0  0  # atno 17394 bound_to 11000
  140.2953  134.3193  155.7304 LP  0  0  0  0  0  0  0  0  0  0  0  0  # atno 17395 bound_to 11000

$$$$
