AV-unprocessed.smi:805|AV-procd|sdf|3797|dock8
  -GOLD-   22720 1233D 1   1.00000     0.00000
 Structure written by MMmdl.
 40 41  0  0  0  0  0  0  0  0  1 V2000
  144.8284  137.2178  154.0053 C   0  0  0  0  0  0  0  0  0  0  0  0
  146.1394  137.8166  153.4904 C   0  0  0  0  0  0  0  0  0  0  0  0
  146.2346  139.1606  153.9314 O   0  0  0  0  0  0  0  0  0  0  0  0
  147.4115  139.8099  153.4765 C   0  0  1  0  0  0  0  0  0  0  0  0
  147.4170  141.3301  153.6674 C   0  0  0  0  0  0  0  0  0  0  0  0
  148.8946  141.1690  154.0280 C   0  0  1  0  0  0  0  0  0  0  0  0
  149.3145  142.0682  155.0977 N   0  0  0  0  0  0  0  0  0  0  0  0
  150.2438  141.7691  156.0151 C   0  0  0  0  0  0  0  0  0  0  0  0
  150.8510  140.6988  156.0393 O   0  0  0  0  0  0  0  0  0  0  0  0
  150.4224  142.7874  156.8742 N   0  0  0  0  0  0  0  0  0  0  0  0
  151.3095  142.8676  157.9817 C   0  0  0  0  0  0  0  0  0  0  0  0
  151.5586  144.1400  158.5363 C   0  0  0  0  0  0  0  0  0  0  0  0
  152.4209  144.2501  159.6435 C   0  0  0  0  0  0  0  0  0  0  0  0
  152.9971  143.0747  160.1623 C   0  0  0  0  0  0  0  0  0  0  0  0
  152.7580  141.8474  159.6546 N   0  0  0  0  0  0  0  0  0  0  0  0
  151.9311  141.7491  158.5911 C   0  0  0  0  0  0  0  0  0  0  0  0
  148.5871  139.7161  154.4808 C   0  0  0  0  0  0  0  0  0  0  0  0
  148.2004  139.5054  155.9553 C   0  0  0  0  0  0  0  0  0  0  0  0
  149.6573  138.6765  154.1491 C   0  0  0  0  0  0  0  0  0  0  0  0
  144.7182  136.1827  153.6813 H   0  0  0  0  0  0  0  0  0  0  0  0
  143.9702  137.7779  153.6335 H   0  0  0  0  0  0  0  0  0  0  0  0
  144.7926  137.2334  155.0947 H   0  0  0  0  0  0  0  0  0  0  0  0
  146.9852  137.2380  153.8650 H   0  0  0  0  0  0  0  0  0  0  0  0
  146.1650  137.7714  152.4009 H   0  0  0  0  0  0  0  0  0  0  0  0
  147.7045  139.5108  152.4672 H   0  0  0  0  0  0  0  0  0  0  0  0
  147.2291  141.9037  152.7595 H   0  0  0  0  0  0  0  0  0  0  0  0
  146.7892  141.6637  154.4956 H   0  0  0  0  0  0  0  0  0  0  0  0
  149.5294  141.2093  153.1394 H   0  0  0  0  0  0  0  0  0  0  0  0
  148.8649  142.9710  155.1424 H   0  0  0  0  0  0  0  0  0  0  0  0
  149.8995  143.6282  156.6780 H   0  0  0  0  0  0  0  0  0  0  0  0
  151.0995  145.0239  158.1177 H   0  0  0  0  0  0  0  0  0  0  0  0
  152.6353  145.2120  160.0852 H   0  0  0  0  0  0  0  0  0  0  0  0
  153.6636  143.1215  161.0109 H   0  0  0  0  0  0  0  0  0  0  0  0
  151.7607  140.7408  158.2483 H   0  0  0  0  0  0  0  0  0  0  0  0
  149.0589  139.6252  156.6170 H   0  0  0  0  0  0  0  0  0  0  0  0
  147.8000  138.5051  156.1227 H   0  0  0  0  0  0  0  0  0  0  0  0
  147.4387  140.2119  156.2853 H   0  0  0  0  0  0  0  0  0  0  0  0
  150.5322  138.7842  154.7908 H   0  0  0  0  0  0  0  0  0  0  0  0
  150.0016  138.7717  153.1188 H   0  0  0  0  0  0  0  0  0  0  0  0
  149.2797  137.6608  154.2704 H   0  0  0  0  0  0  0  0  0  0  0  0
  1  2  1  0  0  0  0
  1 20  1  0  0  0  0
  1 21  1  0  0  0  0
  1 22  1  0  0  0  0
  2  3  1  0  0  0  0
  2 23  1  0  0  0  0
  2 24  1  0  0  0  0
  3  4  1  0  0  0  0
  4 17  1  0  0  0  0
  4  5  1  0  0  0  0
  4 25  1  0  0  0  0
  5  6  1  0  0  0  0
  5 26  1  0  0  0  0
  5 27  1  0  0  0  0
  6  7  1  0  0  0  0
  6 17  1  0  0  0  0
  6 28  1  0  0  0  0
  7  8  1  0  0  0  0
  7 29  1  0  0  0  0
  8  9  2  0  0  0  0
  8 10  1  0  0  0  0
 10 11  1  0  0  0  0
 10 30  1  0  0  0  0
 11 16  1  0  0  0  0
 11 12  2  0  0  0  0
 12 13  1  0  0  0  0
 12 31  1  0  0  0  0
 13 14  2  0  0  0  0
 13 32  1  0  0  0  0
 14 15  1  0  0  0  0
 14 33  1  0  0  0  0
 15 16  2  0  0  0  0
 16 34  1  0  0  0  0
 17 18  1  0  0  0  0
 17 19  1  0  0  0  0
 18 35  1  0  0  0  0
 18 36  1  0  0  0  0
 18 37  1  0  0  0  0
 19 38  1  0  0  0  0
 19 39  1  0  0  0  0
 19 40  1  0  0  0  0
M  END
> <s_m_source_file>
AV-unprocessed.smi

> <i_m_source_file_index>
805

> <i_lp_mmshare_version>
43012

> <i_f3d_flags>
0

> <s_epik_input>
W0NIM11bQ0gyXU9bQ0BASF0oQzEoW0NIM10pW0NIM10pW0NIMl1bQ0BIXTFbTkhdQyg9TylbTkhdYzJbY0hdW2NIXVtjSF1uW2NIXTI=

> <s_epik_cmdline>
J2VwaWtfcHl0aG9uJywgJy1waCcsICc3LjAnLCAnLXRuJywgJzgnLCAnLW1hJywgJzIwMCcsICctbWV0YWxfYmluZGluZycsICctaW1hZScsICc8aW5maWxlLm1hZT4nLCAnLW9tYWUnLCAnPG91dGZpbGUubWFlPic=

> <r_epik_Ionization_Penalty>
0.00485231

> <r_epik_Ionization_Penalty_Charging>
0

> <r_epik_Ionization_Penalty_Neutral>
0.00485231

> <r_epik_State_Penalty>
0.00349213

> <r_epik_Charging_Adjusted_Penalty>
0.00349213

> <i_epik_Tot_Q>
0

> <i_epik_Tot_abs_Q>
0

> <r_epik_Metal_State_Penalty>
-0

> <b_epik_Metal_Only>
0

> <s_lp_Force_Field>
OPLS_2005

> <r_lp_Energy>
21.475

> <b_lp_Chiralities_Consistent>
1

> <s_lp_Variant>
AV-unprocessed.smi:805-2

> <Gold.Version>
5.8.1

> <Gold.Id.Protein>
6NUR|6NUR_protein|mol2

> <Gold.PLP.Fitness>
40.9563

> <Gold.PLP.PLP>
-35.7852

> <Gold.PLP.part.hbond>
-2.0000

> <Gold.PLP.part.metal>
0.0000

> <Gold.PLP.part.buried>
-4.0521

> <Gold.PLP.part.nonpolar>
-29.7351

> <Gold.PLP.part.repulsive>
0.4198

> <Gold.PLP.ligand.clash>
0.0000

> <Gold.PLP.ligand.torsion>
0.5654

> <Gold.PLP.Chemscore.Hbond>
2.0000

> <Gold.PLP.Chemscore.CHOScore>
0.0000

> <Gold.PLP.Chemscore.Metal>
0.0000

> <Gold.Chemscore.Hbonds>
donor molecule, donor type, donor heavy atom, donor atom, acceptor molecule, acceptor atom, score
      L1  H     7    29       P1  8028  1.00
      L1  H    10    30       P1  8028  1.00

> <Gold.PLP.Chemscore.Internal.Correction>
0.3019

> <Gold.Rescore>
     Score         DG    S(hbond)    S(metal)    S(lipo)     H(rot)  DE(clash)    DE(int)     intcor
     18.66     -20.88       2.04        0.00     103.19       1.36       0.68       1.54       ----

> <Gold.Chemscore.Fitness>
18.6599

> <Gold.Chemscore.DG>
-20.8833

> <Gold.Chemscore.ZeroCoef>
-5.4800

> <Gold.Chemscore.Hbond>
2.0356

> <Gold.Chemscore.Metal>
0.0000

> <Gold.Chemscore.Lipo>
103.1914

> <Gold.Chemscore.Internal_Hbond>
0.0000

> <Gold.Chemscore.DEClash>
0.6825

> <Gold.Chemscore.DEInternal>
1.5409

> <Gold.Chemscore.Rot>
1.3551

> <Gold.Chemscore.Internal.Correction>
   9.000000E+99

> <Gold.Chemscore.Hbonds>
donor molecule, donor type, donor heavy atom, donor atom, acceptor molecule, acceptor atom, score
      L1  H     7    29       P1  8028  0.95
      L1  H    10    30       P1  8028  0.98

> <Gold.Chemscore.Hbond.Weighted>
-6.7990

> <Gold.Chemscore.Metal.Weighted>
-0.0000

> <Gold.Chemscore.Lipo.Weighted>
-12.0734

> <Gold.Chemscore.Internal_Hbond.Weighted>
0.0000

> <Gold.Chemscore.DEClash.Weighted>
0.6825

> <Gold.Chemscore.DEInternal.Weighted>
1.5409

> <Gold.Chemscore.Rot.Weighted>
3.4691

> <Gold.Chemscore.Internal.Correction.Weighted>
   9.000000E+99

> <Gold.Protein.RotatedTorsions>
[ 6907 6896 6895 6894 ] final -115.80 input  -60.11 | X-H torsion
[ 7974 7965 7964 7962 ] final  106.49 input  175.53 | X-H torsion
[ 8008 7997 7996 7995 ] final   24.37 input   59.86 | X-H torsion
[ 10167 10162 10161 10158 ] final   19.63 input  -65.29 | X-H torsion
[ 10718 10713 10712 10709 ] final   72.69 input   66.30 | X-H torsion
[ 10763 10752 10751 10750 ] final   -2.43 input  -60.55 | X-H torsion
[ 11005 11000 10999 10996 ] final  173.87 input  -57.11 | X-H torsion

> <Gold.Protein.ActiveResidues>
 VAL166  LYS551  ARG553  GLY616  TRP617  ASP618  TYR619  PRO620  LYS621  CYS622 
 ASP623  PHE694  ASN695  SER759  ASP760  ASP761  ALA762  ILE779  LEU786  VAL792 
 PHE793  MET794  SER795  GLU796  ALA797  LYS798  CYS799  TRP800  GLU811  SER814 

> <Gold.Protein.RotatedAtoms>
  150.8006  133.8607  159.3230 H   0  0  0  0  0  0  0  0  0  0  0  0  # atno 6907 bound_to 6896
  151.6421  135.1010  160.0153 H   0  0  0  0  0  0  0  0  0  0  0  0  # atno 6908 bound_to 6896
  152.4092  133.6897  159.6418 H   0  0  0  0  0  0  0  0  0  0  0  0  # atno 6909 bound_to 6896
  145.3059  139.2555  143.3789 H   0  0  0  0  0  0  0  0  0  0  0  0  # atno 7974 bound_to 7965
  154.9953  140.3118  155.4889 H   0  0  0  0  0  0  0  0  0  0  0  0  # atno 8008 bound_to 7997
  156.2933  140.2242  156.5000 H   0  0  0  0  0  0  0  0  0  0  0  0  # atno 8009 bound_to 7997
  154.7667  140.0455  157.1006 H   0  0  0  0  0  0  0  0  0  0  0  0  # atno 8010 bound_to 7997
  140.5564  143.9416  150.6612 H   0  0  0  0  0  0  0  0  0  0  0  0  # atno 10167 bound_to 10162
  157.6513  130.9591  150.0963 H   0  0  0  0  0  0  0  0  0  0  0  0  # atno 10718 bound_to 10713
  153.3579  135.6989  153.6735 H   0  0  0  0  0  0  0  0  0  0  0  0  # atno 10763 bound_to 10752
  153.5436  135.3568  155.2729 H   0  0  0  0  0  0  0  0  0  0  0  0  # atno 10764 bound_to 10752
  154.8663  135.4209  154.2830 H   0  0  0  0  0  0  0  0  0  0  0  0  # atno 10765 bound_to 10752
  140.3451  134.7243  157.4229 H   0  0  0  0  0  0  0  0  0  0  0  0  # atno 11005 bound_to 11000
  146.3135  140.3584  142.8662 LP  0  0  0  0  0  0  0  0  0  0  0  0  # atno 17320 bound_to 7965
  144.9055  140.7694  143.5840 LP  0  0  0  0  0  0  0  0  0  0  0  0  # atno 17321 bound_to 7965
  140.2856  143.3359  152.1111 LP  0  0  0  0  0  0  0  0  0  0  0  0  # atno 17342 bound_to 10162
  139.5050  144.6786  151.6065 LP  0  0  0  0  0  0  0  0  0  0  0  0  # atno 17343 bound_to 10162
  156.1898  130.3654  149.8924 LP  0  0  0  0  0  0  0  0  0  0  0  0  # atno 17370 bound_to 10713
  156.6855  130.8875  151.3581 LP  0  0  0  0  0  0  0  0  0  0  0  0  # atno 17371 bound_to 10713
  140.0749  134.5811  155.8602 LP  0  0  0  0  0  0  0  0  0  0  0  0  # atno 17394 bound_to 11000
  141.2028  133.6627  156.6025 LP  0  0  0  0  0  0  0  0  0  0  0  0  # atno 17395 bound_to 11000

$$$$
