AV-unprocessed.smi:790|AV-procd|sdf|3743|dock7
  -GOLD-   22720 1173D 1   1.00000     0.00000
 Structure written by MMmdl.
 38 40  0  0  0  0  0  0  0  0  1 V2000
  145.7507  137.5662  154.5803 O   0  0  0  0  0  0  0  0  0  0  0  0
  146.6264  137.1051  153.8495 C   0  0  0  0  0  0  0  0  0  0  0  0
  147.8100  137.6857  153.5873 N   0  0  0  0  0  0  0  0  0  0  0  0
  148.3094  138.9364  154.0427 C   0  0  0  0  0  0  0  0  0  0  0  0
  147.4010  140.0106  154.1404 C   0  0  0  0  0  0  0  0  0  0  0  0
  147.8589  141.2587  154.6033 C   0  0  0  0  0  0  0  0  0  0  0  0
  149.2151  141.3833  154.9604 C   0  0  0  0  0  0  0  0  0  0  0  0
  150.0957  140.3634  154.8864 N   0  0  0  0  0  0  0  0  0  0  0  0
  149.6498  139.1688  154.4407 C   0  0  0  0  0  0  0  0  0  0  0  0
  146.5204  135.9246  153.2237 N   0  0  0  0  0  0  0  0  0  0  0  0
  145.3569  135.0370  153.2761 C   0  0  1  0  0  0  0  0  0  0  0  0
  144.2581  135.4481  152.2645 C   0  0  1  0  0  0  0  0  0  0  0  0
  144.8389  135.6368  150.8467 C   0  0  0  0  0  0  0  0  0  0  0  0
  145.1813  134.1953  150.4302 C   0  0  0  0  0  0  0  0  0  0  0  0
  144.7201  133.3650  151.6465 C   0  0  2  0  0  0  0  0  0  0  0  0
  143.4866  134.1445  152.0867 C   0  0  0  0  0  0  0  0  0  0  0  0
  145.6471  133.5619  152.8713 C   0  0  1  0  0  0  0  0  0  0  0  0
  147.1240  133.1510  152.6745 C   0  0  0  0  0  0  0  0  0  0  0  0
  147.2029  131.8651  152.0965 O   0  0  0  0  0  0  0  0  0  0  0  0
  148.4514  137.1458  153.0250 H   0  0  0  0  0  0  0  0  0  0  0  0
  146.3651  139.8836  153.8615 H   0  0  0  0  0  0  0  0  0  0  0  0
  147.1870  142.1003  154.6835 H   0  0  0  0  0  0  0  0  0  0  0  0
  149.6016  142.3257  155.3190 H   0  0  0  0  0  0  0  0  0  0  0  0
  150.3959  138.3903  154.4292 H   0  0  0  0  0  0  0  0  0  0  0  0
  147.2950  135.6187  152.6534 H   0  0  0  0  0  0  0  0  0  0  0  0
  144.9273  135.0547  154.2798 H   0  0  0  0  0  0  0  0  0  0  0  0
  143.6542  136.2919  152.5996 H   0  0  0  0  0  0  0  0  0  0  0  0
  144.0820  136.0509  150.1790 H   0  0  0  0  0  0  0  0  0  0  0  0
  145.7005  136.3030  150.8069 H   0  0  0  0  0  0  0  0  0  0  0  0
  144.6148  133.9159  149.5411 H   0  0  0  0  0  0  0  0  0  0  0  0
  146.2363  134.0650  150.1932 H   0  0  0  0  0  0  0  0  0  0  0  0
  144.5299  132.3174  151.4104 H   0  0  0  0  0  0  0  0  0  0  0  0
  143.0441  133.7731  153.0130 H   0  0  0  0  0  0  0  0  0  0  0  0
  142.7110  134.1994  151.3205 H   0  0  0  0  0  0  0  0  0  0  0  0
  145.2581  132.9309  153.6729 H   0  0  0  0  0  0  0  0  0  0  0  0
  147.6712  133.8590  152.0532 H   0  0  0  0  0  0  0  0  0  0  0  0
  147.6335  133.1165  153.6376 H   0  0  0  0  0  0  0  0  0  0  0  0
  147.8545  131.8826  151.4122 H   0  0  0  0  0  0  0  0  0  0  0  0
  1  2  2  0  0  0  0
  2  3  1  0  0  0  0
  2 10  1  0  0  0  0
  3  4  1  0  0  0  0
  3 20  1  0  0  0  0
  4  9  1  0  0  0  0
  4  5  2  0  0  0  0
  5  6  1  0  0  0  0
  5 21  1  0  0  0  0
  6  7  2  0  0  0  0
  6 22  1  0  0  0  0
  7  8  1  0  0  0  0
  7 23  1  0  0  0  0
  8  9  2  0  0  0  0
  9 24  1  0  0  0  0
 10 11  1  0  0  0  0
 10 25  1  0  0  0  0
 11 17  1  0  0  0  0
 11 12  1  0  0  0  0
 11 26  1  0  0  0  0
 12 16  1  0  0  0  0
 12 13  1  0  0  0  0
 12 27  1  0  0  0  0
 13 14  1  0  0  0  0
 13 28  1  0  0  0  0
 13 29  1  0  0  0  0
 14 15  1  0  0  0  0
 14 30  1  0  0  0  0
 14 31  1  0  0  0  0
 15 16  1  0  0  0  0
 15 17  1  0  0  0  0
 15 32  1  0  0  0  0
 16 33  1  0  0  0  0
 16 34  1  0  0  0  0
 17 18  1  0  0  0  0
 17 35  1  0  0  0  0
 18 19  1  0  0  0  0
 18 36  1  0  0  0  0
 18 37  1  0  0  0  0
 19 38  1  0  0  0  0
M  END
> <s_m_source_file>
AV-unprocessed.smi

> <i_m_source_file_index>
790

> <i_lp_mmshare_version>
43012

> <i_f3d_flags>
0

> <s_epik_input>
W0NIMl0xW0NIMl1bQ0BASF0oW0NIMl0yKVtDQEBIXShbQ0gyXVtPSF0pW0NAQEhdKFtDQEhdMTIpW05IXUMoPU8pW05IXWMzW2NIXVtjSF1bY0hdbltjSF0z

> <s_epik_cmdline>
J2VwaWtfcHl0aG9uJywgJy1waCcsICc3LjAnLCAnLXRuJywgJzgnLCAnLW1hJywgJzIwMCcsICctbWV0YWxfYmluZGluZycsICctaW1hZScsICc8aW5maWxlLm1hZT4nLCAnLW9tYWUnLCAnPG91dGZpbGUubWFlPic=

> <r_epik_Ionization_Penalty>
0.00497582

> <r_epik_Ionization_Penalty_Charging>
0

> <r_epik_Ionization_Penalty_Neutral>
0.00497582

> <r_epik_State_Penalty>
0.00358602

> <r_epik_Charging_Adjusted_Penalty>
0.00358602

> <i_epik_Tot_Q>
0

> <i_epik_Tot_abs_Q>
0

> <r_epik_Metal_State_Penalty>
-0

> <b_epik_Metal_Only>
0

> <s_lp_Force_Field>
OPLS_2005

> <r_lp_Energy>
55.7442

> <b_lp_Chiralities_Consistent>
1

> <s_lp_Variant>
AV-unprocessed.smi:790-4

> <Gold.Version>
5.8.1

> <Gold.Id.Protein>
6NUR|6NUR_protein|mol2

> <Gold.PLP.Fitness>
43.3739

> <Gold.PLP.PLP>
-30.3353

> <Gold.PLP.part.hbond>
-3.8903

> <Gold.PLP.part.metal>
0.0000

> <Gold.PLP.part.buried>
-2.7531

> <Gold.PLP.part.nonpolar>
-24.1673

> <Gold.PLP.part.repulsive>
0.2079

> <Gold.PLP.ligand.clash>
0.0000

> <Gold.PLP.ligand.torsion>
0.6490

> <Gold.PLP.Chemscore.Hbond>
3.7760

> <Gold.PLP.Chemscore.CHOScore>
1.0000

> <Gold.PLP.Chemscore.Metal>
0.0000

> <Gold.Chemscore.Hbonds>
donor molecule, donor type, donor heavy atom, donor atom, acceptor molecule, acceptor atom, score
      L1  H     3    20       P1  7948  1.00
      L1  H    10    25       P1  7948  0.86
      L1  H    19    38       P1 10747  0.93
      P1  H  7989  7998       L1     8  0.76
      L1  C     7    23       P1  8028  1.00

> <Gold.PLP.Chemscore.Internal.Correction>
0.0087

> <Gold.Rescore>
     Score         DG    S(hbond)    S(metal)    S(lipo)     H(rot)  DE(clash)    DE(int)     intcor
     17.98     -19.84       3.27        0.00      68.29       1.78       0.06       1.80       ----

> <Gold.Chemscore.Fitness>
17.9776

> <Gold.Chemscore.DG>
-19.8433

> <Gold.Chemscore.ZeroCoef>
-5.4800

> <Gold.Chemscore.Hbond>
3.2711

> <Gold.Chemscore.Metal>
0.0000

> <Gold.Chemscore.Lipo>
68.2942

> <Gold.Chemscore.Internal_Hbond>
0.0000

> <Gold.Chemscore.DEClash>
0.0648

> <Gold.Chemscore.DEInternal>
1.8009

> <Gold.Chemscore.Rot>
1.7783

> <Gold.Chemscore.Internal.Correction>
   9.000000E+99

> <Gold.Chemscore.Hbonds>
donor molecule, donor type, donor heavy atom, donor atom, acceptor molecule, acceptor atom, score
      L1  H     3    20       P1  7948  0.95
      L1  H    10    25       P1  7948  0.86
      L1  H    19    38       P1 10747  0.91
      P1  H  7989  7998       L1     8  0.21

> <Gold.Chemscore.Hbond.Weighted>
-10.9254

> <Gold.Chemscore.Metal.Weighted>
-0.0000

> <Gold.Chemscore.Lipo.Weighted>
-7.9904

> <Gold.Chemscore.Internal_Hbond.Weighted>
0.0000

> <Gold.Chemscore.DEClash.Weighted>
0.0648

> <Gold.Chemscore.DEInternal.Weighted>
1.8009

> <Gold.Chemscore.Rot.Weighted>
4.5525

> <Gold.Chemscore.Internal.Correction.Weighted>
   9.000000E+99

> <Gold.Protein.RotatedTorsions>
[ 6907 6896 6895 6894 ] final    4.04 input  -60.11 | X-H torsion
[ 7974 7965 7964 7962 ] final  152.36 input  175.53 | X-H torsion
[ 8008 7997 7996 7995 ] final -171.44 input   59.86 | X-H torsion
[ 10167 10162 10161 10158 ] final  139.61 input  -65.29 | X-H torsion
[ 10718 10713 10712 10709 ] final  -21.22 input   66.30 | X-H torsion
[ 10763 10752 10751 10750 ] final  -26.86 input  -60.55 | X-H torsion
[ 11005 11000 10999 10996 ] final -119.38 input  -57.11 | X-H torsion

> <Gold.Protein.ActiveResidues>
 VAL166  LYS551  ARG553  GLY616  TRP617  ASP618  TYR619  PRO620  LYS621  CYS622 
 ASP623  PHE694  ASN695  SER759  ASP760  ASP761  ALA762  ILE779  LEU786  VAL792 
 PHE793  MET794  SER795  GLU796  ALA797  LYS798  CYS799  TRP800  GLU811  SER814 

> <Gold.Protein.RotatedAtoms>
  151.6348  135.1019  160.0129 H   0  0  0  0  0  0  0  0  0  0  0  0  # atno 6907 bound_to 6896
  152.4086  133.6924  159.6387 H   0  0  0  0  0  0  0  0  0  0  0  0  # atno 6908 bound_to 6896
  150.7978  133.8581  159.3265 H   0  0  0  0  0  0  0  0  0  0  0  0  # atno 6909 bound_to 6896
  144.8227  139.6659  143.6093 H   0  0  0  0  0  0  0  0  0  0  0  0  # atno 7974 bound_to 7965
  155.9315  140.1092  157.1128 H   0  0  0  0  0  0  0  0  0  0  0  0  # atno 8008 bound_to 7997
  154.4072  140.1236  156.4875 H   0  0  0  0  0  0  0  0  0  0  0  0  # atno 8009 bound_to 7997
  155.7074  140.3471  155.4961 H   0  0  0  0  0  0  0  0  0  0  0  0  # atno 8010 bound_to 7997
  139.5073  144.6284  151.5880 H   0  0  0  0  0  0  0  0  0  0  0  0  # atno 10167 bound_to 10162
  156.5211  130.4632  149.6596 H   0  0  0  0  0  0  0  0  0  0  0  0  # atno 10718 bound_to 10713
  153.7227  135.6944  153.5009 H   0  0  0  0  0  0  0  0  0  0  0  0  # atno 10763 bound_to 10752
  153.2192  135.4376  155.0469 H   0  0  0  0  0  0  0  0  0  0  0  0  # atno 10764 bound_to 10752
  154.8279  135.3456  154.6760 H   0  0  0  0  0  0  0  0  0  0  0  0  # atno 10765 bound_to 10752
  141.0220  134.0110  157.3269 H   0  0  0  0  0  0  0  0  0  0  0  0  # atno 11005 bound_to 11000
  146.2533  139.6247  142.9412 LP  0  0  0  0  0  0  0  0  0  0  0  0  # atno 17320 bound_to 7965
  145.5068  141.0436  143.2510 LP  0  0  0  0  0  0  0  0  0  0  0  0  # atno 17321 bound_to 7965
  140.6008  143.9612  150.6385 LP  0  0  0  0  0  0  0  0  0  0  0  0  # atno 17342 bound_to 10162
  140.2824  143.3380  152.1139 LP  0  0  0  0  0  0  0  0  0  0  0  0  # atno 17343 bound_to 10162
  156.3149  130.7249  151.2149 LP  0  0  0  0  0  0  0  0  0  0  0  0  # atno 17370 bound_to 10713
  157.7436  131.0471  150.4928 LP  0  0  0  0  0  0  0  0  0  0  0  0  # atno 17371 bound_to 10713
  139.9152  135.0196  156.7851 LP  0  0  0  0  0  0  0  0  0  0  0  0  # atno 17394 bound_to 11000
  140.6557  133.9691  155.7778 LP  0  0  0  0  0  0  0  0  0  0  0  0  # atno 17395 bound_to 11000

$$$$
