AV-unprocessed.smi:651|AV-procd|sdf|3188|dock4
  -GOLD-   22720 0113D 1   1.00000     0.00000
 Structure written by MMmdl.
 39 40  0  0  0  0  0  0  0  0  2 V2000
  151.3977  145.5632  159.1932 C   0  0  0  0  0  0  0  0  0  0  0  0
  151.5500  144.1344  158.7164 C   0  0  0  0  0  0  0  0  0  0  0  0
  152.3632  143.1987  159.3910 C   0  0  0  0  0  0  0  0  0  0  0  0
  152.4519  141.8810  158.8970 C   0  0  0  0  0  0  0  0  0  0  0  0
  151.7233  141.5230  157.7407 C   0  0  0  0  0  0  0  0  0  0  0  0
  151.7787  140.1059  157.1970 C   0  0  0  0  0  0  0  0  0  0  0  0
  151.1290  140.0454  155.8142 C   0  0  0  0  0  0  0  0  0  0  0  0
  151.8323  139.9971  154.8058 O   0  0  0  0  0  0  0  0  0  0  0  0
  149.7876  140.0644  155.7829 N   0  0  0  0  0  0  0  0  0  0  0  0
  148.9716  140.0713  154.5718 C   0  0  2  0  0  0  0  0  0  0  0  0
  148.5977  141.4982  154.1313 C   0  0  0  0  0  0  0  0  0  0  0  0
  147.1808  141.3876  153.5776 C   0  0  0  0  0  0  0  0  0  0  0  0
  146.5217  140.3336  154.4629 C   0  0  0  0  0  0  0  0  0  0  0  0
  147.6323  139.3223  154.8072 C   0  0  1  0  0  0  0  0  0  0  0  0
  147.5299  138.0387  153.9663 C   0  0  0  0  0  0  0  0  0  0  0  0
  147.8498  138.1306  152.6730 N   0  0  0  0  0  0  0  0  0  0  0  0
  147.1713  136.9786  154.4761 O   0  0  0  0  0  0  0  0  0  0  0  0
  150.9299  142.5030  157.1054 C   0  0  0  0  0  0  0  0  0  0  0  0
  150.8719  143.7549  157.6099 N   0  3  0  0  0  0  0  0  0  0  0  0
  152.1957  145.8300  159.8869 H   0  0  0  0  0  0  0  0  0  0  0  0
  150.4434  145.6904  159.7048 H   0  0  0  0  0  0  0  0  0  0  0  0
  151.4339  146.2564  158.3525 H   0  0  0  0  0  0  0  0  0  0  0  0
  152.9102  143.4835  160.2780 H   0  0  0  0  0  0  0  0  0  0  0  0
  153.0664  141.1532  159.4066 H   0  0  0  0  0  0  0  0  0  0  0  0
  152.8174  139.7779  157.1348 H   0  0  0  0  0  0  0  0  0  0  0  0
  151.2695  139.4181  157.8737 H   0  0  0  0  0  0  0  0  0  0  0  0
  149.2932  140.0980  156.6623 H   0  0  0  0  0  0  0  0  0  0  0  0
  149.5394  139.5976  153.7677 H   0  0  0  0  0  0  0  0  0  0  0  0
  148.5902  142.1721  154.9895 H   0  0  0  0  0  0  0  0  0  0  0  0
  149.2982  141.9056  153.4015 H   0  0  0  0  0  0  0  0  0  0  0  0
  146.6492  142.3395  153.5895 H   0  0  0  0  0  0  0  0  0  0  0  0
  147.2145  141.0357  152.5456 H   0  0  0  0  0  0  0  0  0  0  0  0
  146.1638  140.8023  155.3803 H   0  0  0  0  0  0  0  0  0  0  0  0
  145.6548  139.8825  153.9777 H   0  0  0  0  0  0  0  0  0  0  0  0
  147.5235  139.0482  155.8587 H   0  0  0  0  0  0  0  0  0  0  0  0
  147.7953  137.3167  152.0782 H   0  0  0  0  0  0  0  0  0  0  0  0
  148.1429  139.0193  152.2932 H   0  0  0  0  0  0  0  0  0  0  0  0
  150.3365  142.3217  156.2207 H   0  0  0  0  0  0  0  0  0  0  0  0
  150.2873  144.4442  157.1362 H   0  0  0  0  0  0  0  0  0  0  0  0
  1  2  1  0  0  0  0
  1 20  1  0  0  0  0
  1 21  1  0  0  0  0
  1 22  1  0  0  0  0
  2 19  1  0  0  0  0
  2  3  2  0  0  0  0
  3  4  1  0  0  0  0
  3 23  1  0  0  0  0
  4  5  2  0  0  0  0
  4 24  1  0  0  0  0
  5  6  1  0  0  0  0
  5 18  1  0  0  0  0
  6  7  1  0  0  0  0
  6 25  1  0  0  0  0
  6 26  1  0  0  0  0
  7  8  2  0  0  0  0
  7  9  1  0  0  0  0
  9 10  1  0  0  0  0
  9 27  1  0  0  0  0
 10 14  1  0  0  0  0
 10 11  1  0  0  0  0
 10 28  1  0  0  0  0
 11 12  1  0  0  0  0
 11 29  1  0  0  0  0
 11 30  1  0  0  0  0
 12 13  1  0  0  0  0
 12 31  1  0  0  0  0
 12 32  1  0  0  0  0
 13 14  1  0  0  0  0
 13 33  1  0  0  0  0
 13 34  1  0  0  0  0
 14 15  1  0  0  0  0
 14 35  1  0  0  0  0
 15 16  1  0  0  0  0
 15 17  2  0  0  0  0
 16 36  1  0  0  0  0
 16 37  1  0  0  0  0
 18 19  2  0  0  0  0
 18 38  1  0  0  0  0
 19 39  1  0  0  0  0
M  CHG  1  19   1
M  END
> <s_m_source_file>
AV-unprocessed.smi

> <i_m_source_file_index>
651

> <i_lp_mmshare_version>
43012

> <i_f3d_flags>
0

> <s_epik_input>
W0NIM11jMVtjSF1bY0hdYyhbY0hdbjEpW0NIMl1DKD1PKVtOSF1bQ0BASF0yW0NIMl1bQ0gyXVtDSDJdW0NASF0yQyg9TylbTkgyXQ==

> <s_epik_cmdline>
J2VwaWtfcHl0aG9uJywgJy1waCcsICc3LjAnLCAnLXRuJywgJzgnLCAnLW1hJywgJzIwMCcsICctbWV0YWxfYmluZGluZycsICctaW1hZScsICc8aW5maWxlLm1hZT4nLCAnLW9tYWUnLCAnPG91dGZpbGUubWFlPic=

> <r_epik_Ionization_Penalty>
2.14971

> <r_epik_Ionization_Penalty_Charging>
2.14971

> <r_epik_Ionization_Penalty_Neutral>
1.65229e-07

> <r_epik_State_Penalty>
2.28946

> <r_epik_Charging_Adjusted_Penalty>
4.43917

> <i_epik_Tot_Q>
1

> <i_epik_Tot_abs_Q>
1

> <r_epik_Metal_State_Penalty>
2.30508

> <b_epik_Metal_Only>
0

> <s_lp_Force_Field>
OPLS_2005

> <r_lp_Energy>
20.422

> <b_lp_Chiralities_Consistent>
1

> <s_lp_Variant>
AV-unprocessed.smi:651-5

> <Gold.Version>
5.8.1

> <Gold.Id.Protein>
6NUR|6NUR_protein|mol2

> <Gold.PLP.Fitness>
46.5225

> <Gold.PLP.PLP>
-35.7875

> <Gold.PLP.part.hbond>
-3.3607

> <Gold.PLP.part.metal>
0.0000

> <Gold.PLP.part.buried>
-2.8380

> <Gold.PLP.part.nonpolar>
-29.8214

> <Gold.PLP.part.repulsive>
0.2793

> <Gold.PLP.ligand.clash>
0.0000

> <Gold.PLP.ligand.torsion>
0.9615

> <Gold.PLP.Chemscore.Hbond>
4.2164

> <Gold.PLP.Chemscore.CHOScore>
0.0000

> <Gold.PLP.Chemscore.Metal>
0.0000

> <Gold.Chemscore.Hbonds>
donor molecule, donor type, donor heavy atom, donor atom, acceptor molecule, acceptor atom, score
      L1  H    16    36       P1  7948  0.53
      L1  H    16    37       P1  7957  0.77
      L1  H    19    39       P1  8028  1.86
      P1  H  7989  7998       L1     8  0.96

> <Gold.PLP.Chemscore.Internal.Correction>
0.0087

> <Gold.Rescore>
     Score         DG    S(hbond)    S(metal)    S(lipo)     H(rot)  DE(clash)    DE(int)     intcor
     19.06     -21.32       2.80        0.00      99.93       2.04       0.44       1.82       ----

> <Gold.Chemscore.Fitness>
19.0606

> <Gold.Chemscore.DG>
-21.3196

> <Gold.Chemscore.ZeroCoef>
-5.4800

> <Gold.Chemscore.Hbond>
2.8045

> <Gold.Chemscore.Metal>
0.0000

> <Gold.Chemscore.Lipo>
99.9266

> <Gold.Chemscore.Internal_Hbond>
0.0000

> <Gold.Chemscore.DEClash>
0.4372

> <Gold.Chemscore.DEInternal>
1.8217

> <Gold.Chemscore.Rot>
2.0386

> <Gold.Chemscore.Internal.Correction>
   9.000000E+99

> <Gold.Chemscore.Hbonds>
donor molecule, donor type, donor heavy atom, donor atom, acceptor molecule, acceptor atom, score
      L1  H    16    36       P1  7948  0.51
      L1  H    16    37       P1  7957  0.72
      L1  H    19    39       P1  8028  0.59
      P1  H  7989  7998       L1     8  0.90

> <Gold.Chemscore.Hbond.Weighted>
-9.3670

> <Gold.Chemscore.Metal.Weighted>
-0.0000

> <Gold.Chemscore.Lipo.Weighted>
-11.6914

> <Gold.Chemscore.Internal_Hbond.Weighted>
0.0000

> <Gold.Chemscore.DEClash.Weighted>
0.4372

> <Gold.Chemscore.DEInternal.Weighted>
1.8217

> <Gold.Chemscore.Rot.Weighted>
5.2188

> <Gold.Chemscore.Internal.Correction.Weighted>
   9.000000E+99

> <Gold.Protein.RotatedTorsions>
[ 6907 6896 6895 6894 ] final   60.41 input  -60.11 | X-H torsion
[ 7974 7965 7964 7962 ] final  178.73 input  175.53 | X-H torsion
[ 8008 7997 7996 7995 ] final -129.46 input   59.86 | X-H torsion
[ 10167 10162 10161 10158 ] final   91.97 input  -65.29 | X-H torsion
[ 10718 10713 10712 10709 ] final  -38.52 input   66.30 | X-H torsion
[ 10763 10752 10751 10750 ] final -107.34 input  -60.55 | X-H torsion
[ 11005 11000 10999 10996 ] final    7.74 input  -57.11 | X-H torsion

> <Gold.Protein.ActiveResidues>
 VAL166  LYS551  ARG553  GLY616  TRP617  ASP618  TYR619  PRO620  LYS621  CYS622 
 ASP623  PHE694  ASN695  SER759  ASP760  ASP761  ALA762  ILE779  LEU786  VAL792 
 PHE793  MET794  SER795  GLU796  ALA797  LYS798  CYS799  TRP800  GLU811  SER814 

> <Gold.Protein.RotatedAtoms>
  152.4000  134.6301  160.0073 H   0  0  0  0  0  0  0  0  0  0  0  0  # atno 6907 bound_to 6896
  151.6509  133.3315  159.3160 H   0  0  0  0  0  0  0  0  0  0  0  0  # atno 6908 bound_to 6896
  150.7902  134.6962  159.6569 H   0  0  0  0  0  0  0  0  0  0  0  0  # atno 6909 bound_to 6896
  144.7153  140.0441  143.6437 H   0  0  0  0  0  0  0  0  0  0  0  0  # atno 7974 bound_to 7965
  155.2795  140.0443  157.3014 H   0  0  0  0  0  0  0  0  0  0  0  0  # atno 8008 bound_to 7997
  154.5605  140.2344  155.8311 H   0  0  0  0  0  0  0  0  0  0  0  0  # atno 8009 bound_to 7997
  156.2043  140.3017  155.9601 H   0  0  0  0  0  0  0  0  0  0  0  0  # atno 8010 bound_to 7997
  139.8322  144.6681  150.9385 H   0  0  0  0  0  0  0  0  0  0  0  0  # atno 10167 bound_to 10162
  156.3028  130.4242  149.8126 H   0  0  0  0  0  0  0  0  0  0  0  0  # atno 10718 bound_to 10713
  154.8069  135.4678  154.0416 H   0  0  0  0  0  0  0  0  0  0  0  0  # atno 10763 bound_to 10752
  153.1877  135.6850  153.8400 H   0  0  0  0  0  0  0  0  0  0  0  0  # atno 10764 bound_to 10752
  153.7928  135.3241  155.3358 H   0  0  0  0  0  0  0  0  0  0  0  0  # atno 10765 bound_to 10752
  140.5448  134.0340  155.7916 H   0  0  0  0  0  0  0  0  0  0  0  0  # atno 11005 bound_to 11000
  145.9999  139.3082  143.0934 LP  0  0  0  0  0  0  0  0  0  0  0  0  # atno 17320 bound_to 7965
  145.8806  140.9365  143.0603 LP  0  0  0  0  0  0  0  0  0  0  0  0  # atno 17321 bound_to 7965
  140.7805  143.3990  151.1181 LP  0  0  0  0  0  0  0  0  0  0  0  0  # atno 17342 bound_to 10162
  139.7643  143.8589  152.3107 LP  0  0  0  0  0  0  0  0  0  0  0  0  # atno 17343 bound_to 10162
  156.5498  130.8336  151.3296 LP  0  0  0  0  0  0  0  0  0  0  0  0  # atno 17370 bound_to 10713
  157.7372  130.9792  150.2181 LP  0  0  0  0  0  0  0  0  0  0  0  0  # atno 17371 bound_to 10713
  141.1206  133.9467  157.2737 LP  0  0  0  0  0  0  0  0  0  0  0  0  # atno 17394 bound_to 11000
  139.9485  135.0180  156.8925 LP  0  0  0  0  0  0  0  0  0  0  0  0  # atno 17395 bound_to 11000

$$$$
