AV-unprocessed.smi:841|AV-procd|sdf|3916|dock2
  -GOLD-   22720 1383D 1   1.00000     0.00000
 Structure written by MMmdl.
 30 31  0  0  0  0  0  0  0  0  1 V2000
  146.7835  132.2965  153.4506 O   0  0  0  0  0  0  0  0  0  0  0  0
  147.1647  133.3830  153.0151 C   0  0  0  0  0  0  0  0  0  0  0  0
  146.2085  134.2663  152.2095 C   0  0  0  0  0  0  0  0  0  0  0  0
  145.4998  133.5007  151.1980 N   0  0  0  0  0  0  0  0  0  0  0  0
  146.0230  132.6933  150.2087 C   0  0  0  0  0  0  0  0  0  0  0  0
  144.9730  132.1933  149.4930 C   0  0  0  0  0  0  0  0  0  0  0  0
  143.8324  132.7634  150.1240 C   0  0  0  0  0  0  0  0  0  0  0  0
  144.1507  133.5477  151.1412 N   0  0  0  0  0  0  0  0  0  0  0  0
  148.4032  133.8640  153.2074 N   0  0  0  0  0  0  0  0  0  0  0  0
  149.4696  133.1934  153.9447 C   0  0  0  0  0  0  0  0  0  0  0  0
  149.6224  133.7542  155.3711 C   0  0  1  0  0  0  0  0  0  0  0  0
  148.3758  133.6808  156.2323 C   0  0  0  0  0  0  0  0  0  0  0  0
  148.9503  133.8221  157.6386 C   0  0  0  0  0  0  0  0  0  0  0  0
  150.2596  133.2623  157.5849 O   0  0  0  0  0  0  0  0  0  0  0  0
  150.6145  132.9770  156.2353 C   0  0  0  0  0  0  0  0  0  0  0  0
  145.4915  134.7312  152.8882 H   0  0  0  0  0  0  0  0  0  0  0  0
  146.7503  135.0730  151.7137 H   0  0  0  0  0  0  0  0  0  0  0  0
  147.0869  132.5427  150.0995 H   0  0  0  0  0  0  0  0  0  0  0  0
  145.0136  131.5239  148.6465 H   0  0  0  0  0  0  0  0  0  0  0  0
  142.7899  132.6338  149.8733 H   0  0  0  0  0  0  0  0  0  0  0  0
  148.6240  134.7674  152.8140 H   0  0  0  0  0  0  0  0  0  0  0  0
  149.3071  132.1144  153.9700 H   0  0  0  0  0  0  0  0  0  0  0  0
  150.3977  133.3468  153.3936 H   0  0  0  0  0  0  0  0  0  0  0  0
  149.9505  134.7939  155.3192 H   0  0  0  0  0  0  0  0  0  0  0  0
  147.6422  134.4524  155.9968 H   0  0  0  0  0  0  0  0  0  0  0  0
  147.8948  132.7078  156.1225 H   0  0  0  0  0  0  0  0  0  0  0  0
  149.0348  134.8748  157.9115 H   0  0  0  0  0  0  0  0  0  0  0  0
  148.3349  133.3264  158.3894 H   0  0  0  0  0  0  0  0  0  0  0  0
  150.5117  131.9031  156.0731 H   0  0  0  0  0  0  0  0  0  0  0  0
  151.6497  133.2513  156.0315 H   0  0  0  0  0  0  0  0  0  0  0  0
  1  2  2  0  0  0  0
  2  3  1  0  0  0  0
  2  9  1  0  0  0  0
  3  4  1  0  0  0  0
  3 16  1  0  0  0  0
  3 17  1  0  0  0  0
  4  8  1  0  0  0  0
  4  5  1  0  0  0  0
  5  6  2  0  0  0  0
  5 18  1  0  0  0  0
  6  7  1  0  0  0  0
  6 19  1  0  0  0  0
  7  8  2  0  0  0  0
  7 20  1  0  0  0  0
  9 10  1  0  0  0  0
  9 21  1  0  0  0  0
 10 11  1  0  0  0  0
 10 22  1  0  0  0  0
 10 23  1  0  0  0  0
 11 15  1  0  0  0  0
 11 12  1  0  0  0  0
 11 24  1  0  0  0  0
 12 13  1  0  0  0  0
 12 25  1  0  0  0  0
 12 26  1  0  0  0  0
 13 14  1  0  0  0  0
 13 27  1  0  0  0  0
 13 28  1  0  0  0  0
 14 15  1  0  0  0  0
 15 29  1  0  0  0  0
 15 30  1  0  0  0  0
M  END
> <s_m_source_file>
AV-unprocessed.smi

> <i_m_source_file_index>
841

> <i_lp_mmshare_version>
43012

> <i_f3d_flags>
0

> <s_epik_input>
bjFbY0hdW2NIXVtjSF1uMVtDSDJdQyg9TylbTkhdW0NIMl1bQ0BASF0yW0NIMl1bQ0gyXU9bQ0gyXTI=

> <s_epik_cmdline>
J2VwaWtfcHl0aG9uJywgJy1waCcsICc3LjAnLCAnLXRuJywgJzgnLCAnLW1hJywgJzIwMCcsICctbWV0YWxfYmluZGluZycsICctaW1hZScsICc8aW5maWxlLm1hZT4nLCAnLW9tYWUnLCAnPG91dGZpbGUubWFlPic=

> <r_lp_tautomer_probability>
1

> <r_epik_Ionization_Penalty>
1.49823e-05

> <r_epik_Ionization_Penalty_Charging>
0

> <r_epik_Ionization_Penalty_Neutral>
1.49823e-05

> <r_epik_State_Penalty>
-0

> <r_epik_Charging_Adjusted_Penalty>
0

> <i_epik_Tot_Q>
0

> <i_epik_Tot_abs_Q>
0

> <r_epik_Metal_State_Penalty>
-0

> <b_epik_Metal_Only>
0

> <s_lp_Force_Field>
OPLS_2005

> <r_lp_Energy>
18.8738

> <b_lp_Chiralities_Consistent>
1

> <s_lp_Variant>
AV-unprocessed.smi:841-2

> <Gold.Version>
5.8.1

> <Gold.Id.Protein>
6NUR|6NUR_protein|mol2

> <Gold.PLP.Fitness>
36.4721

> <Gold.PLP.PLP>
-25.2128

> <Gold.PLP.part.hbond>
-2.0000

> <Gold.PLP.part.metal>
0.0000

> <Gold.PLP.part.buried>
-3.9521

> <Gold.PLP.part.nonpolar>
-19.5578

> <Gold.PLP.part.repulsive>
0.2579

> <Gold.PLP.ligand.clash>
0.0000

> <Gold.PLP.ligand.torsion>
0.3456

> <Gold.PLP.Chemscore.Hbond>
2.0000

> <Gold.PLP.Chemscore.CHOScore>
1.9802

> <Gold.PLP.Chemscore.Metal>
0.0000

> <Gold.Chemscore.Hbonds>
donor molecule, donor type, donor heavy atom, donor atom, acceptor molecule, acceptor atom, score
      L1  H     9    21       P1  7948  0.95
      P1  H  6896  6907       L1    14  1.00
      L1  C     5    18       P1 10747  1.00
      L1  C     7    20       P1 10186  0.95

> <Gold.PLP.Chemscore.Internal.Correction>
0.0100

> <Gold.Rescore>
     Score         DG    S(hbond)    S(metal)    S(lipo)     H(rot)  DE(clash)    DE(int)     intcor
     13.54     -14.03       1.81        0.00      58.00       1.68       0.14       0.35       ----

> <Gold.Chemscore.Fitness>
13.5422

> <Gold.Chemscore.DG>
-14.0256

> <Gold.Chemscore.ZeroCoef>
-5.4800

> <Gold.Chemscore.Hbond>
1.8121

> <Gold.Chemscore.Metal>
0.0000

> <Gold.Chemscore.Lipo>
58.0029

> <Gold.Chemscore.Internal_Hbond>
0.0000

> <Gold.Chemscore.DEClash>
0.1363

> <Gold.Chemscore.DEInternal>
0.3471

> <Gold.Chemscore.Rot>
1.6771

> <Gold.Chemscore.Internal.Correction>
   9.000000E+99

> <Gold.Chemscore.Hbonds>
donor molecule, donor type, donor heavy atom, donor atom, acceptor molecule, acceptor atom, score
      L1  H     9    21       P1  7948  0.22
      P1  H  6896  6907       L1    14  0.25

> <Gold.Chemscore.Hbond.Weighted>
-6.0526

> <Gold.Chemscore.Metal.Weighted>
-0.0000

> <Gold.Chemscore.Lipo.Weighted>
-6.7863

> <Gold.Chemscore.Internal_Hbond.Weighted>
0.0000

> <Gold.Chemscore.DEClash.Weighted>
0.1363

> <Gold.Chemscore.DEInternal.Weighted>
0.3471

> <Gold.Chemscore.Rot.Weighted>
4.2934

> <Gold.Chemscore.Internal.Correction.Weighted>
   9.000000E+99

> <Gold.Protein.RotatedTorsions>
[ 6907 6896 6895 6894 ] final -126.08 input  -60.11 | X-H torsion
[ 7974 7965 7964 7962 ] final -126.67 input  175.53 | X-H torsion
[ 8008 7997 7996 7995 ] final  -15.74 input   59.86 | X-H torsion
[ 10167 10162 10161 10158 ] final   60.24 input  -65.29 | X-H torsion
[ 10718 10713 10712 10709 ] final  129.75 input   66.30 | X-H torsion
[ 10763 10752 10751 10750 ] final   91.13 input  -60.55 | X-H torsion
[ 11005 11000 10999 10996 ] final   46.77 input  -57.11 | X-H torsion

> <Gold.Protein.ActiveResidues>
 VAL166  LYS551  ARG553  GLY616  TRP617  ASP618  TYR619  PRO620  LYS621  CYS622 
 ASP623  PHE694  ASN695  SER759  ASP760  ASP761  ALA762  ILE779  LEU786  VAL792 
 PHE793  MET794  SER795  GLU796  ALA797  LYS798  CYS799  TRP800  GLU811  SER814 

> <Gold.Protein.RotatedAtoms>
  150.8933  133.7214  159.2898 H   0  0  0  0  0  0  0  0  0  0  0  0  # atno 6907 bound_to 6896
  151.4757  135.1047  159.9773 H   0  0  0  0  0  0  0  0  0  0  0  0  # atno 6908 bound_to 6896
  152.4833  133.8262  159.7135 H   0  0  0  0  0  0  0  0  0  0  0  0  # atno 6909 bound_to 6896
  144.9848  140.7676  143.4590 H   0  0  0  0  0  0  0  0  0  0  0  0  # atno 7974 bound_to 7965
  154.5107  140.2188  155.9162 H   0  0  0  0  0  0  0  0  0  0  0  0  # atno 8008 bound_to 7997
  156.1548  140.3154  155.8674 H   0  0  0  0  0  0  0  0  0  0  0  0  # atno 8009 bound_to 7997
  155.3868  140.0476  157.3032 H   0  0  0  0  0  0  0  0  0  0  0  0  # atno 8010 bound_to 7997
  140.1677  144.4307  150.6677 H   0  0  0  0  0  0  0  0  0  0  0  0  # atno 10167 bound_to 10162
  157.5125  131.1097  150.9272 H   0  0  0  0  0  0  0  0  0  0  0  0  # atno 10718 bound_to 10713
  153.2050  135.4409  155.0311 H   0  0  0  0  0  0  0  0  0  0  0  0  # atno 10763 bound_to 10752
  154.8168  135.3319  154.7155 H   0  0  0  0  0  0  0  0  0  0  0  0  # atno 10764 bound_to 10752
  153.7597  135.6992  153.4983 H   0  0  0  0  0  0  0  0  0  0  0  0  # atno 10765 bound_to 10752
  140.1339  134.4670  155.8500 H   0  0  0  0  0  0  0  0  0  0  0  0  # atno 11005 bound_to 11000
  145.2368  139.2090  143.5013 LP  0  0  0  0  0  0  0  0  0  0  0  0  # atno 17320 bound_to 7965
  146.3417  140.2256  142.8592 LP  0  0  0  0  0  0  0  0  0  0  0  0  # atno 17321 bound_to 7965
  140.6602  143.2250  151.5874 LP  0  0  0  0  0  0  0  0  0  0  0  0  # atno 17342 bound_to 10162
  139.5352  144.2802  152.1235 LP  0  0  0  0  0  0  0  0  0  0  0  0  # atno 17343 bound_to 10162
  156.9907  130.5562  149.5303 LP  0  0  0  0  0  0  0  0  0  0  0  0  # atno 17370 bound_to 10713
  156.0299  130.5390  150.8505 LP  0  0  0  0  0  0  0  0  0  0  0  0  # atno 17371 bound_to 10713
  141.2175  133.6806  156.7121 LP  0  0  0  0  0  0  0  0  0  0  0  0  # atno 17394 bound_to 11000
  140.2807  134.8319  157.3930 LP  0  0  0  0  0  0  0  0  0  0  0  0  # atno 17395 bound_to 11000

$$$$
