AV-unprocessed.smi:2813|AV-procd|sdf|10837|dock4
  -GOLD-   2272015273D 1   1.00000     0.00000
 Structure written by MMmdl.
 41 42  0  0  0  0  0  0  0  0  1 V2000
  152.3098  143.8488  161.4614 C   0  0  0  0  0  0  0  0  0  0  0  0
  152.0636  143.0643  160.1850 C   0  0  0  0  0  0  0  0  0  0  0  0
  151.0891  143.5898  159.3315 N   0  0  0  0  0  0  0  0  0  0  0  0
  150.8061  142.9836  158.2251 C   0  0  0  0  0  0  0  0  0  0  0  0
  151.4528  141.7954  157.8490 N   0  0  0  0  0  0  0  0  0  0  0  0
  151.0336  141.2015  156.5694 C   0  0  0  0  0  0  0  0  0  0  0  0
  149.5641  141.5391  156.2280 C   0  0  2  0  0  0  0  0  0  0  0  0
  148.7201  140.6332  156.9100 O   0  0  0  0  0  0  0  0  0  0  0  0
  149.2661  141.3986  154.7273 C   0  0  0  0  0  0  0  0  0  0  0  0
  150.2122  140.5020  154.1599 O   0  0  0  0  0  0  0  0  0  0  0  0
  150.0722  139.1545  154.4111 C   0  0  0  0  0  0  0  0  0  0  0  0
  151.2514  138.3833  154.4266 C   0  0  0  0  0  0  0  0  0  0  0  0
  151.2023  136.9996  154.6778 C   0  0  0  0  0  0  0  0  0  0  0  0
  149.9666  136.3698  154.9146 C   0  0  0  0  0  0  0  0  0  0  0  0
  148.7731  137.1233  154.8988 C   0  0  0  0  0  0  0  0  0  0  0  0
  147.4246  136.4663  155.1534 C   0  0  0  0  0  0  0  0  0  0  0  0
  146.6189  136.6749  154.1122 F   0  0  0  0  0  0  0  0  0  0  0  0
  147.5377  135.1507  155.3400 F   0  0  0  0  0  0  0  0  0  0  0  0
  146.8695  137.0033  156.2395 F   0  0  0  0  0  0  0  0  0  0  0  0
  148.8314  138.5115  154.6497 C   0  0  0  0  0  0  0  0  0  0  0  0
  152.4302  141.2260  158.6124 C   0  0  0  0  0  0  0  0  0  0  0  0
  153.0102  140.1974  158.2587 O   0  0  0  0  0  0  0  0  0  0  0  0
  152.7361  141.9228  159.8725 C   0  0  0  0  0  0  0  0  0  0  0  0
  153.8082  141.3053  160.7618 C   0  0  0  0  0  0  0  0  0  0  0  0
  152.0854  143.2354  162.3344 H   0  0  0  0  0  0  0  0  0  0  0  0
  151.6818  144.7395  161.5086 H   0  0  0  0  0  0  0  0  0  0  0  0
  153.3500  144.1704  161.5184 H   0  0  0  0  0  0  0  0  0  0  0  0
  150.0584  143.3547  157.5219 H   0  0  0  0  0  0  0  0  0  0  0  0
  151.6906  141.5857  155.7868 H   0  0  0  0  0  0  0  0  0  0  0  0
  151.1996  140.1224  156.5408 H   0  0  0  0  0  0  0  0  0  0  0  0
  149.3088  142.5522  156.5420 H   0  0  0  0  0  0  0  0  0  0  0  0
  149.1562  140.3513  157.6997 H   0  0  0  0  0  0  0  0  0  0  0  0
  148.2478  141.0350  154.5776 H   0  0  0  0  0  0  0  0  0  0  0  0
  149.3550  142.3717  154.2410 H   0  0  0  0  0  0  0  0  0  0  0  0
  152.2045  138.8587  154.2464 H   0  0  0  0  0  0  0  0  0  0  0  0
  152.1141  136.4208  154.6892 H   0  0  0  0  0  0  0  0  0  0  0  0
  149.9458  135.3076  155.1081 H   0  0  0  0  0  0  0  0  0  0  0  0
  147.9045  139.0643  154.6461 H   0  0  0  0  0  0  0  0  0  0  0  0
  154.7634  141.2798  160.2363 H   0  0  0  0  0  0  0  0  0  0  0  0
  153.5374  140.2814  161.0219 H   0  0  0  0  0  0  0  0  0  0  0  0
  153.9598  141.8489  161.6929 H   0  0  0  0  0  0  0  0  0  0  0  0
  1  2  1  0  0  0  0
  1 25  1  0  0  0  0
  1 26  1  0  0  0  0
  1 27  1  0  0  0  0
  2 23  2  0  0  0  0
  2  3  1  0  0  0  0
  3  4  2  0  0  0  0
  4  5  1  0  0  0  0
  4 28  1  0  0  0  0
  5  6  1  0  0  0  0
  5 21  1  0  0  0  0
  6  7  1  0  0  0  0
  6 29  1  0  0  0  0
  6 30  1  0  0  0  0
  7  8  1  0  0  0  0
  7  9  1  0  0  0  0
  7 31  1  0  0  0  0
  8 32  1  0  0  0  0
  9 10  1  0  0  0  0
  9 33  1  0  0  0  0
  9 34  1  0  0  0  0
 10 11  1  0  0  0  0
 11 20  1  0  0  0  0
 11 12  2  0  0  0  0
 12 13  1  0  0  0  0
 12 35  1  0  0  0  0
 13 14  2  0  0  0  0
 13 36  1  0  0  0  0
 14 15  1  0  0  0  0
 14 37  1  0  0  0  0
 15 16  1  0  0  0  0
 15 20  2  0  0  0  0
 16 17  1  0  0  0  0
 16 18  1  0  0  0  0
 16 19  1  0  0  0  0
 20 38  1  0  0  0  0
 21 22  2  0  0  0  0
 21 23  1  0  0  0  0
 23 24  1  0  0  0  0
 24 39  1  0  0  0  0
 24 40  1  0  0  0  0
 24 41  1  0  0  0  0
M  END
> <s_m_source_file>
AV-unprocessed.smi

> <i_m_source_file_index>
2813

> <i_lp_mmshare_version>
43012

> <i_f3d_flags>
0

> <s_epik_input>
W0NIM11jMW5bY0hdbihjKD1PKWMxW0NIM10pW0NIMl1bQ0BIXShbT0hdKVtDSDJdT2MyW2NIXVtjSF1bY0hdYyhDKEYpKEYpRilbY0hdMg==

> <s_epik_cmdline>
J2VwaWtfcHl0aG9uJywgJy1waCcsICc3LjAnLCAnLXRuJywgJzgnLCAnLW1hJywgJzIwMCcsICctbWV0YWxfYmluZGluZycsICctaW1hZScsICc8aW5maWxlLm1hZT4nLCAnLW9tYWUnLCAnPG91dGZpbGUubWFlPic=

> <r_lp_tautomer_probability>
1

> <r_epik_Ionization_Penalty>
3.72236e-05

> <r_epik_Ionization_Penalty_Charging>
8.38864e-08

> <r_epik_Ionization_Penalty_Neutral>
3.71397e-05

> <r_epik_State_Penalty>
-0

> <r_epik_Charging_Adjusted_Penalty>
8.38864e-08

> <i_epik_Tot_Q>
0

> <i_epik_Tot_abs_Q>
0

> <r_epik_Metal_State_Penalty>
-0

> <b_epik_Metal_Only>
0

> <s_lp_Force_Field>
OPLS_2005

> <r_lp_Energy>
22.8491

> <b_lp_Chiralities_Consistent>
1

> <s_lp_Variant>
AV-unprocessed.smi:2813-1

> <Gold.Version>
5.8.1

> <Gold.Id.Protein>
6NUR|6NUR_protein|mol2

> <Gold.PLP.Fitness>
47.1213

> <Gold.PLP.PLP>
-41.4911

> <Gold.PLP.part.hbond>
-1.8737

> <Gold.PLP.part.metal>
0.0000

> <Gold.PLP.part.buried>
-4.2877

> <Gold.PLP.part.nonpolar>
-35.6578

> <Gold.PLP.part.repulsive>
0.4120

> <Gold.PLP.ligand.clash>
0.0000

> <Gold.PLP.ligand.torsion>
1.5228

> <Gold.PLP.Chemscore.Hbond>
1.8240

> <Gold.PLP.Chemscore.CHOScore>
1.0000

> <Gold.PLP.Chemscore.Metal>
0.0000

> <Gold.Chemscore.Hbonds>
donor molecule, donor type, donor heavy atom, donor atom, acceptor molecule, acceptor atom, score
      P1  H  7989  7998       L1    10  0.83
      P1  H  7997  8009       L1    22  0.98
      L1  C     4    28       P1  8028  0.88

> <Gold.PLP.Chemscore.Internal.Correction>
0.2037

> <Gold.Rescore>
     Score         DG    S(hbond)    S(metal)    S(lipo)     H(rot)  DE(clash)    DE(int)     intcor
     14.45     -15.89       1.87        0.00      95.35       2.73       0.02       1.42       ----

> <Gold.Chemscore.Fitness>
14.4530

> <Gold.Chemscore.DG>
-15.8854

> <Gold.Chemscore.ZeroCoef>
-5.4800

> <Gold.Chemscore.Hbond>
1.8676

> <Gold.Chemscore.Metal>
0.0000

> <Gold.Chemscore.Lipo>
95.3538

> <Gold.Chemscore.Internal_Hbond>
0.0000

> <Gold.Chemscore.DEClash>
0.0158

> <Gold.Chemscore.DEInternal>
1.4166

> <Gold.Chemscore.Rot>
2.7300

> <Gold.Chemscore.Internal.Correction>
   9.000000E+99

> <Gold.Chemscore.Hbonds>
donor molecule, donor type, donor heavy atom, donor atom, acceptor molecule, acceptor atom, score
      P1  H  7989  7998       L1    10  0.72
      P1  H  7997  8009       L1    22  0.90

> <Gold.Chemscore.Hbond.Weighted>
-6.2377

> <Gold.Chemscore.Metal.Weighted>
-0.0000

> <Gold.Chemscore.Lipo.Weighted>
-11.1564

> <Gold.Chemscore.Internal_Hbond.Weighted>
0.0000

> <Gold.Chemscore.DEClash.Weighted>
0.0158

> <Gold.Chemscore.DEInternal.Weighted>
1.4166

> <Gold.Chemscore.Rot.Weighted>
6.9888

> <Gold.Chemscore.Internal.Correction.Weighted>
   9.000000E+99

> <Gold.Protein.RotatedTorsions>
[ 6907 6896 6895 6894 ] final  -87.37 input  -60.11 | X-H torsion
[ 7974 7965 7964 7962 ] final  -55.39 input  175.53 | X-H torsion
[ 8008 7997 7996 7995 ] final  157.13 input   59.86 | X-H torsion
[ 10167 10162 10161 10158 ] final  152.74 input  -65.29 | X-H torsion
[ 10718 10713 10712 10709 ] final -134.17 input   66.30 | X-H torsion
[ 10763 10752 10751 10750 ] final  -23.15 input  -60.55 | X-H torsion
[ 11005 11000 10999 10996 ] final -126.32 input  -57.11 | X-H torsion

> <Gold.Protein.ActiveResidues>
 VAL166  LYS551  ARG553  GLY616  TRP617  ASP618  TYR619  PRO620  LYS621  CYS622 
 ASP623  PHE694  ASN695  SER759  ASP760  ASP761  ALA762  ILE779  LEU786  VAL792 
 PHE793  MET794  SER795  GLU796  ALA797  LYS798  CYS799  TRP800  GLU811  SER814 

> <Gold.Protein.RotatedAtoms>
  150.6866  134.2906  159.4664 H   0  0  0  0  0  0  0  0  0  0  0  0  # atno 6907 bound_to 6896
  152.0812  134.9467  160.0582 H   0  0  0  0  0  0  0  0  0  0  0  0  # atno 6908 bound_to 6896
  152.0819  133.4122  159.4542 H   0  0  0  0  0  0  0  0  0  0  0  0  # atno 6909 bound_to 6896
  145.8747  140.8190  142.9870 H   0  0  0  0  0  0  0  0  0  0  0  0  # atno 7974 bound_to 7965
  156.2382  140.1893  156.7061 H   0  0  0  0  0  0  0  0  0  0  0  0  # atno 8008 bound_to 7997
  154.6146  140.0617  156.9565 H   0  0  0  0  0  0  0  0  0  0  0  0  # atno 8009 bound_to 7997
  155.1960  140.3288  155.4353 H   0  0  0  0  0  0  0  0  0  0  0  0  # atno 8010 bound_to 7997
  139.4831  144.5332  151.7688 H   0  0  0  0  0  0  0  0  0  0  0  0  # atno 10167 bound_to 10162
  156.2526  130.7162  151.1067 H   0  0  0  0  0  0  0  0  0  0  0  0  # atno 10718 bound_to 10713
  153.6633  135.6975  153.5170 H   0  0  0  0  0  0  0  0  0  0  0  0  # atno 10763 bound_to 10752
  153.2614  135.4243  155.0897 H   0  0  0  0  0  0  0  0  0  0  0  0  # atno 10764 bound_to 10752
  154.8446  135.3556  154.6178 H   0  0  0  0  0  0  0  0  0  0  0  0  # atno 10765 bound_to 10752
  140.9691  134.0831  157.3889 H   0  0  0  0  0  0  0  0  0  0  0  0  # atno 11005 bound_to 11000
  144.6726  140.1292  143.7445 LP  0  0  0  0  0  0  0  0  0  0  0  0  # atno 17320 bound_to 7965
  145.9095  139.2478  143.1446 LP  0  0  0  0  0  0  0  0  0  0  0  0  # atno 17321 bound_to 7965
  140.4861  144.1378  150.5941 LP  0  0  0  0  0  0  0  0  0  0  0  0  # atno 17342 bound_to 10162
  140.4223  143.2606  151.9700 LP  0  0  0  0  0  0  0  0  0  0  0  0  # atno 17343 bound_to 10162
  157.7220  131.0675  150.6095 LP  0  0  0  0  0  0  0  0  0  0  0  0  # atno 17370 bound_to 10713
  156.6176  130.4397  149.5835 LP  0  0  0  0  0  0  0  0  0  0  0  0  # atno 17371 bound_to 10713
  139.8905  135.0112  156.6741 LP  0  0  0  0  0  0  0  0  0  0  0  0  # atno 17394 bound_to 11000
  140.7356  133.9021  155.8242 LP  0  0  0  0  0  0  0  0  0  0  0  0  # atno 17395 bound_to 11000

$$$$
