AV-unprocessed.smi:74|AV-procd|sdf|763|dock4
  -GOLD-   2262017103D 1   1.00000     0.00000
 Structure written by MMmdl.
 58 62  0  0  0  0  0  0  0  0  1 V2000
  146.7576  131.6642  149.5482 O   0  0  0  0  0  0  0  0  0  0  0  0
  145.8310  131.7535  150.6113 C   0  0  0  0  0  0  0  0  0  0  0  0
  144.9701  133.0220  150.4936 C   0  0  0  0  0  0  0  0  0  0  0  0
  144.0881  132.9205  149.2324 C   0  0  0  0  0  0  0  0  0  0  0  0
  142.9970  132.0450  149.4337 O   0  0  0  0  0  0  0  0  0  0  0  0
  144.2305  133.4462  151.7827 C   0  0  0  0  0  0  0  0  0  0  0  0
  144.5835  134.9072  151.4965 C   0  0  0  0  0  0  0  0  0  0  0  0
  144.8212  135.8331  152.5645 N   0  0  0  0  0  0  0  0  0  0  0  0
  144.5971  135.6194  153.9058 C   0  0  0  0  0  0  0  0  0  0  0  0
  144.9388  136.6043  154.6908 N   0  0  0  0  0  0  0  0  0  0  0  0
  145.4686  137.5583  153.8296 C   0  0  0  0  0  0  0  0  0  0  0  0
  146.0390  138.8505  154.0106 C   0  0  0  0  0  0  0  0  0  0  0  0
  146.1386  139.4453  155.2271 N   0  0  0  0  0  0  0  0  0  0  0  0
  145.5211  138.7757  156.3695 C   0  0  0  0  0  0  0  0  0  0  0  0
  145.4938  139.7178  157.5839 C   0  0  0  0  0  0  0  0  0  0  0  0
  146.8131  140.1707  157.8696 O   0  0  0  0  0  0  0  0  0  0  0  0
  147.3839  140.8937  156.7817 C   0  0  1  0  0  0  0  0  0  0  0  0
  148.7544  141.4357  157.2109 C   0  0  0  0  0  0  0  0  0  0  0  0
  149.2949  142.2486  156.1816 O   0  0  0  0  0  0  0  0  0  0  0  0
  150.6496  142.5938  156.4092 C   0  0  0  0  0  0  0  0  0  0  0  0
  150.7151  143.6106  157.5284 C   0  0  0  0  0  0  0  0  0  0  0  0
  151.2921  144.9874  157.2890 C   0  0  0  0  0  0  0  0  0  0  0  0
  152.0467  143.9929  158.1337 C   0  0  0  0  0  0  0  0  0  0  0  0
  147.4559  139.9952  155.5310 C   0  0  0  0  0  0  0  0  0  0  0  0
  146.4971  139.4906  152.9010 N   0  0  0  0  0  0  0  0  0  0  0  0
  146.3973  138.9167  151.6987 C   0  0  0  0  0  0  0  0  0  0  0  0
  145.8812  137.7279  151.3826 N   0  0  0  0  0  0  0  0  0  0  0  0
  145.4231  137.0772  152.4901 C   0  0  0  0  0  0  0  0  0  0  0  0
  145.7358  134.3538  150.6547 C   0  0  0  0  0  0  0  0  0  0  0  0
  147.6112  131.4794  149.9093 H   0  0  0  0  0  0  0  0  0  0  0  0
  145.2192  130.8512  150.6257 H   0  0  0  0  0  0  0  0  0  0  0  0
  146.3950  131.7531  151.5445 H   0  0  0  0  0  0  0  0  0  0  0  0
  143.6844  133.8940  148.9540 H   0  0  0  0  0  0  0  0  0  0  0  0
  144.6609  132.5744  148.3718 H   0  0  0  0  0  0  0  0  0  0  0  0
  142.1957  132.5345  149.3282 H   0  0  0  0  0  0  0  0  0  0  0  0
  143.1603  133.2373  151.7941 H   0  0  0  0  0  0  0  0  0  0  0  0
  144.7075  133.0748  152.6917 H   0  0  0  0  0  0  0  0  0  0  0  0
  143.8265  135.3691  150.8605 H   0  0  0  0  0  0  0  0  0  0  0  0
  144.1640  134.7062  154.2878 H   0  0  0  0  0  0  0  0  0  0  0  0
  144.5041  138.4692  156.1213 H   0  0  0  0  0  0  0  0  0  0  0  0
  146.0848  137.8737  156.6124 H   0  0  0  0  0  0  0  0  0  0  0  0
  144.8367  140.5694  157.4007 H   0  0  0  0  0  0  0  0  0  0  0  0
  145.1011  139.1948  158.4559 H   0  0  0  0  0  0  0  0  0  0  0  0
  146.7405  141.7493  156.5682 H   0  0  0  0  0  0  0  0  0  0  0  0
  148.6450  142.0254  158.1226 H   0  0  0  0  0  0  0  0  0  0  0  0
  149.4299  140.6091  157.4367 H   0  0  0  0  0  0  0  0  0  0  0  0
  151.2229  141.7120  156.6986 H   0  0  0  0  0  0  0  0  0  0  0  0
  151.0997  143.0069  155.5050 H   0  0  0  0  0  0  0  0  0  0  0  0
  149.8815  143.5514  158.2257 H   0  0  0  0  0  0  0  0  0  0  0  0
  151.6868  145.2074  156.2990 H   0  0  0  0  0  0  0  0  0  0  0  0
  150.8181  145.8244  157.7977 H   0  0  0  0  0  0  0  0  0  0  0  0
  152.0787  144.1669  159.2074 H   0  0  0  0  0  0  0  0  0  0  0  0
  152.9447  143.5513  157.7061 H   0  0  0  0  0  0  0  0  0  0  0  0
  148.1463  139.1671  155.6976 H   0  0  0  0  0  0  0  0  0  0  0  0
  147.8509  140.5711  154.6951 H   0  0  0  0  0  0  0  0  0  0  0  0
  146.7846  139.4940  150.8721 H   0  0  0  0  0  0  0  0  0  0  0  0
  146.6583  134.2448  151.2286 H   0  0  0  0  0  0  0  0  0  0  0  0
  145.9163  134.8943  149.7250 H   0  0  0  0  0  0  0  0  0  0  0  0
  1  2  1  0  0  0  0
  1 30  1  0  0  0  0
  2  3  1  0  0  0  0
  2 31  1  0  0  0  0
  2 32  1  0  0  0  0
  3 29  1  0  0  0  0
  3  4  1  0  0  0  0
  3  6  1  0  0  0  0
  4  5  1  0  0  0  0
  4 33  1  0  0  0  0
  4 34  1  0  0  0  0
  5 35  1  0  0  0  0
  6  7  1  0  0  0  0
  6 36  1  0  0  0  0
  6 37  1  0  0  0  0
  7  8  1  0  0  0  0
  7 29  1  0  0  0  0
  7 38  1  0  0  0  0
  8 28  1  0  0  0  0
  8  9  1  0  0  0  0
  9 10  2  0  0  0  0
  9 39  1  0  0  0  0
 10 11  1  0  0  0  0
 11 28  2  0  0  0  0
 11 12  1  0  0  0  0
 12 13  1  0  0  0  0
 12 25  2  0  0  0  0
 13 24  1  0  0  0  0
 13 14  1  0  0  0  0
 14 15  1  0  0  0  0
 14 40  1  0  0  0  0
 14 41  1  0  0  0  0
 15 16  1  0  0  0  0
 15 42  1  0  0  0  0
 15 43  1  0  0  0  0
 16 17  1  0  0  0  0
 17 18  1  0  0  0  0
 17 24  1  0  0  0  0
 17 44  1  0  0  0  0
 18 19  1  0  0  0  0
 18 45  1  0  0  0  0
 18 46  1  0  0  0  0
 19 20  1  0  0  0  0
 20 21  1  0  0  0  0
 20 47  1  0  0  0  0
 20 48  1  0  0  0  0
 21 23  1  0  0  0  0
 21 22  1  0  0  0  0
 21 49  1  0  0  0  0
 22 23  1  0  0  0  0
 22 50  1  0  0  0  0
 22 51  1  0  0  0  0
 23 52  1  0  0  0  0
 23 53  1  0  0  0  0
 24 54  1  0  0  0  0
 24 55  1  0  0  0  0
 25 26  1  0  0  0  0
 26 27  2  0  0  0  0
 26 56  1  0  0  0  0
 27 28  1  0  0  0  0
 29 57  1  0  0  0  0
 29 58  1  0  0  0  0
M  END
> <s_m_source_file>
AV-unprocessed.smi

> <i_m_source_file_index>
74

> <i_lp_mmshare_version>
43012

> <i_f3d_flags>
0

> <s_epik_input>
W09IXVtDSDJdQzEoW0NIMl1bT0hdKVtDSDJdW0NIXShbQ0gyXTEpbihbY0hdbjIpYyhjMjMpbltjSF1uYzNONFtDSDJdW0NIMl1PW0NASF0oW0NIMl00KVtDSDJdT1tDSDJdW0NIXTVbQ0gyXVtDSDJdNQ==

> <s_epik_cmdline>
J2VwaWtfcHl0aG9uJywgJy1waCcsICc3LjAnLCAnLXRuJywgJzgnLCAnLW1hJywgJzIwMCcsICctbWV0YWxfYmluZGluZycsICctaW1hZScsICc8aW5maWxlLm1hZT4nLCAnLW9tYWUnLCAnPG91dGZpbGUubWFlPic=

> <r_lp_tautomer_probability>
1

> <r_epik_Ionization_Penalty>
5.89322e-05

> <r_epik_Ionization_Penalty_Charging>
0

> <r_epik_Ionization_Penalty_Neutral>
5.89322e-05

> <r_epik_State_Penalty>
-0

> <r_epik_Charging_Adjusted_Penalty>
0

> <i_epik_Tot_Q>
0

> <i_epik_Tot_abs_Q>
0

> <r_epik_Metal_State_Penalty>
-0

> <b_epik_Metal_Only>
0

> <s_lp_Force_Field>
OPLS_2005

> <r_lp_Energy>
49.0423

> <b_lp_Chiralities_Consistent>
1

> <s_lp_Variant>
AV-unprocessed.smi:74-1

> <Gold.Version>
5.8.1

> <Gold.Id.Protein>
6NUR|6NUR_protein|mol2

> <Gold.PLP.Fitness>
55.2548

> <Gold.PLP.PLP>
-45.0845

> <Gold.PLP.part.hbond>
-4.2373

> <Gold.PLP.part.metal>
0.0000

> <Gold.PLP.part.buried>
-8.6334

> <Gold.PLP.part.nonpolar>
-34.0794

> <Gold.PLP.part.repulsive>
2.2191

> <Gold.PLP.ligand.clash>
0.0000

> <Gold.PLP.ligand.torsion>
1.0938

> <Gold.PLP.Chemscore.Hbond>
2.6575

> <Gold.PLP.Chemscore.CHOScore>
0.9154

> <Gold.PLP.Chemscore.Metal>
0.0000

> <Gold.Chemscore.Hbonds>
donor molecule, donor type, donor heavy atom, donor atom, acceptor molecule, acceptor atom, score
      L1  H     1    30       P1 10747  0.99
      L1  H     5    35       P1 10186  0.50
      P1  H 10785 10796       L1     5  0.99
      L1  C    26    56       P1  7957  0.17

> <Gold.PLP.Chemscore.Internal.Correction>
1.6392

> <Gold.Rescore>
     Score         DG    S(hbond)    S(metal)    S(lipo)     H(rot)  DE(clash)    DE(int)     intcor
     10.24     -15.90       2.56        0.00     102.73       3.97       2.98       2.69       ----

> <Gold.Chemscore.Fitness>
10.2381

> <Gold.Chemscore.DG>
-15.9035

> <Gold.Chemscore.ZeroCoef>
-5.4800

> <Gold.Chemscore.Hbond>
2.5620

> <Gold.Chemscore.Metal>
0.0000

> <Gold.Chemscore.Lipo>
102.7304

> <Gold.Chemscore.Internal_Hbond>
0.0000

> <Gold.Chemscore.DEClash>
2.9802

> <Gold.Chemscore.DEInternal>
2.6852

> <Gold.Chemscore.Rot>
3.9660

> <Gold.Chemscore.Internal.Correction>
   9.000000E+99

> <Gold.Chemscore.Hbonds>
donor molecule, donor type, donor heavy atom, donor atom, acceptor molecule, acceptor atom, score
      L1  H     1    30       P1 10747  0.92
      L1  H     5    35       P1 10186  0.48
      P1  H 10785 10796       L1     5  0.86

> <Gold.Chemscore.Hbond.Weighted>
-8.5569

> <Gold.Chemscore.Metal.Weighted>
-0.0000

> <Gold.Chemscore.Lipo.Weighted>
-12.0195

> <Gold.Chemscore.Internal_Hbond.Weighted>
0.0000

> <Gold.Chemscore.DEClash.Weighted>
2.9802

> <Gold.Chemscore.DEInternal.Weighted>
2.6852

> <Gold.Chemscore.Rot.Weighted>
10.1529

> <Gold.Chemscore.Internal.Correction.Weighted>
   9.000000E+99

> <Gold.Protein.RotatedTorsions>
[ 6907 6896 6895 6894 ] final -178.36 input  -60.11 | X-H torsion
[ 7974 7965 7964 7962 ] final  -67.17 input  175.53 | X-H torsion
[ 8008 7997 7996 7995 ] final   26.85 input   59.86 | X-H torsion
[ 10167 10162 10161 10158 ] final  -95.21 input  -65.29 | X-H torsion
[ 10718 10713 10712 10709 ] final  138.47 input   66.30 | X-H torsion
[ 10763 10752 10751 10750 ] final -151.25 input  -60.55 | X-H torsion
[ 11005 11000 10999 10996 ] final  111.01 input  -57.11 | X-H torsion

> <Gold.Protein.ActiveResidues>
 VAL166  LYS551  ARG553  GLY616  TRP617  ASP618  TYR619  PRO620  LYS621  CYS622 
 ASP623  PHE694  ASN695  SER759  ASP760  ASP761  ALA762  ILE779  LEU786  VAL792 
 PHE793  MET794  SER795  GLU796  ALA797  LYS798  CYS799  TRP800  GLU811  SER814 

> <Gold.Protein.RotatedAtoms>
  151.6360  133.3329  159.3119 H   0  0  0  0  0  0  0  0  0  0  0  0  # atno 6907 bound_to 6896
  150.8032  134.7144  159.6631 H   0  0  0  0  0  0  0  0  0  0  0  0  # atno 6908 bound_to 6896
  152.4126  134.6102  160.0075 H   0  0  0  0  0  0  0  0  0  0  0  0  # atno 6909 bound_to 6896
  145.7325  140.8990  143.0572 H   0  0  0  0  0  0  0  0  0  0  0  0  # atno 7974 bound_to 7965
  155.0337  140.3161  155.4749 H   0  0  0  0  0  0  0  0  0  0  0  0  # atno 8008 bound_to 7997
  156.2869  140.2175  156.5402 H   0  0  0  0  0  0  0  0  0  0  0  0  # atno 8009 bound_to 7997
  154.7348  140.0478  157.0747 H   0  0  0  0  0  0  0  0  0  0  0  0  # atno 8010 bound_to 7997
  140.3065  143.3131  152.0193 H   0  0  0  0  0  0  0  0  0  0  0  0  # atno 10167 bound_to 10162
  157.4249  131.1042  151.0313 H   0  0  0  0  0  0  0  0  0  0  0  0  # atno 10718 bound_to 10713
  154.8069  135.3264  154.7407 H   0  0  0  0  0  0  0  0  0  0  0  0  # atno 10763 bound_to 10752
  153.8064  135.6899  153.4852 H   0  0  0  0  0  0  0  0  0  0  0  0  # atno 10764 bound_to 10752
  153.1821  135.4583  154.9986 H   0  0  0  0  0  0  0  0  0  0  0  0  # atno 10765 bound_to 10752
  139.8894  134.9498  156.6367 H   0  0  0  0  0  0  0  0  0  0  0  0  # atno 11005 bound_to 11000
  144.6889  139.9350  143.7473 LP  0  0  0  0  0  0  0  0  0  0  0  0  # atno 17320 bound_to 7965
  146.0524  139.3524  143.0631 LP  0  0  0  0  0  0  0  0  0  0  0  0  # atno 17321 bound_to 7965
  139.4903  144.6417  151.6864 LP  0  0  0  0  0  0  0  0  0  0  0  0  # atno 17342 bound_to 10162
  140.5606  144.0275  150.6168 LP  0  0  0  0  0  0  0  0  0  0  0  0  # atno 17343 bound_to 10162
  157.1230  130.6070  149.5510 LP  0  0  0  0  0  0  0  0  0  0  0  0  # atno 17370 bound_to 10713
  155.9893  130.4940  150.7208 LP  0  0  0  0  0  0  0  0  0  0  0  0  # atno 17371 bound_to 10713
  140.7625  133.8805  155.8429 LP  0  0  0  0  0  0  0  0  0  0  0  0  # atno 17394 bound_to 11000
  140.9910  134.1279  157.4408 LP  0  0  0  0  0  0  0  0  0  0  0  0  # atno 17395 bound_to 11000

$$$$
