AV-unprocessed.smi:224|AV-procd|sdf|1722|dock4
  -GOLD-   2262020203D 1   1.00000     0.00000
 Structure written by MMmdl.
 56 59  0  0  0  0  0  0  0  0  2 V2000
  143.6941  133.0115  151.5459 C   0  0  0  0  0  0  0  0  0  0  0  0
  144.2135  131.8348  150.7063 C   0  0  1  0  0  0  0  0  0  0  0  0
  143.3632  131.6900  149.5882 O   0  0  0  0  0  0  0  0  0  0  0  0
  145.6546  132.0482  150.1944 C   0  0  0  0  0  0  0  0  0  0  0  0
  146.6857  131.9507  151.2688 N   0  3  1  0  0  0  0  0  0  0  0  0
  147.0651  133.2975  151.7850 C   0  0  0  0  0  0  0  0  0  0  0  0
  148.1629  133.2216  152.8552 C   0  0  0  0  0  0  0  0  0  0  0  0
  147.7542  132.3375  153.9373 N   0  0  0  0  0  0  0  0  0  0  0  0
  147.0447  132.9012  154.9523 C   0  0  0  0  0  0  0  0  0  0  0  0
  145.7875  132.4591  155.2238 N   0  0  0  0  0  0  0  0  0  0  0  0
  145.0715  133.0107  156.2077 C   0  0  0  0  0  0  0  0  0  0  0  0
  145.4149  133.9986  157.0348 N   0  0  0  0  0  0  0  0  0  0  0  0
  146.6808  134.4375  156.7832 C   0  0  0  0  0  0  0  0  0  0  0  0
  147.5555  133.9508  155.7699 C   0  0  0  0  0  0  0  0  0  0  0  0
  148.7629  134.6377  155.8235 N   0  0  0  0  0  0  0  0  0  0  0  0
  148.6064  135.4878  156.8009 C   0  0  0  0  0  0  0  0  0  0  0  0
  147.3884  135.4299  157.4396 N   0  0  0  0  0  0  0  0  0  0  0  0
  146.9473  136.2516  158.5572 C   0  0  0  0  0  0  0  0  0  0  0  0
  147.6170  135.8828  159.9027 C   0  0  2  0  0  0  0  0  0  0  0  0
  149.0145  136.0938  159.7984 O   0  0  0  0  0  0  0  0  0  0  0  0
  147.3800  134.4323  160.3036 C   0  0  0  0  0  0  0  0  0  0  0  0
  147.4458  134.4889  161.8238 C   0  0  0  0  0  0  0  0  0  0  0  0
  146.7794  135.7029  162.1255 O   0  0  0  0  0  0  0  0  0  0  0  0
  147.0937  136.6670  161.1242 C   0  0  0  0  0  0  0  0  0  0  0  0
  147.4118  130.9943  153.4799 C   0  0  0  0  0  0  0  0  0  0  0  0
  146.3282  131.0015  152.3734 C   0  0  2  0  0  0  0  0  0  0  0  0
  146.1323  129.5513  151.8859 C   0  0  0  0  0  0  0  0  0  0  0  0
  144.2879  133.1455  152.4504 H   0  0  0  0  0  0  0  0  0  0  0  0
  142.6619  132.8460  151.8567 H   0  0  0  0  0  0  0  0  0  0  0  0
  143.7265  133.9464  150.9852 H   0  0  0  0  0  0  0  0  0  0  0  0
  144.1313  130.9135  151.2812 H   0  0  0  0  0  0  0  0  0  0  0  0
  142.4652  131.7505  149.8772 H   0  0  0  0  0  0  0  0  0  0  0  0
  145.8915  131.3297  149.4076 H   0  0  0  0  0  0  0  0  0  0  0  0
  145.6759  133.0256  149.7191 H   0  0  0  0  0  0  0  0  0  0  0  0
  147.4267  133.9322  150.9781 H   0  0  0  0  0  0  0  0  0  0  0  0
  146.1823  133.7874  152.1994 H   0  0  0  0  0  0  0  0  0  0  0  0
  149.0825  132.8307  152.4179 H   0  0  0  0  0  0  0  0  0  0  0  0
  148.3967  134.2245  153.2087 H   0  0  0  0  0  0  0  0  0  0  0  0
  144.0823  132.6022  156.3533 H   0  0  0  0  0  0  0  0  0  0  0  0
  149.3830  136.1828  157.0857 H   0  0  0  0  0  0  0  0  0  0  0  0
  147.1492  137.2948  158.3103 H   0  0  0  0  0  0  0  0  0  0  0  0
  145.8633  136.1636  158.6408 H   0  0  0  0  0  0  0  0  0  0  0  0
  149.2206  136.9337  160.1793 H   0  0  0  0  0  0  0  0  0  0  0  0
  146.3804  134.1150  160.0034 H   0  0  0  0  0  0  0  0  0  0  0  0
  148.0950  133.7329  159.8681 H   0  0  0  0  0  0  0  0  0  0  0  0
  146.9634  133.6359  162.3012 H   0  0  0  0  0  0  0  0  0  0  0  0
  148.4790  134.5414  162.1704 H   0  0  0  0  0  0  0  0  0  0  0  0
  147.8255  137.3822  161.5029 H   0  0  0  0  0  0  0  0  0  0  0  0
  146.1823  137.2200  160.8997 H   0  0  0  0  0  0  0  0  0  0  0  0
  148.3236  130.5376  153.0925 H   0  0  0  0  0  0  0  0  0  0  0  0
  147.1042  130.3708  154.3207 H   0  0  0  0  0  0  0  0  0  0  0  0
  145.3889  131.3435  152.8097 H   0  0  0  0  0  0  0  0  0  0  0  0
  146.0340  128.8707  152.7322 H   0  0  0  0  0  0  0  0  0  0  0  0
  146.9816  129.2127  151.2916 H   0  0  0  0  0  0  0  0  0  0  0  0
  145.2277  129.4220  151.2938 H   0  0  0  0  0  0  0  0  0  0  0  0
  147.5129  131.5657  150.8356 H   0  0  0  0  0  0  0  0  0  0  0  0
  1  2  1  0  0  0  0
  1 28  1  0  0  0  0
  1 29  1  0  0  0  0
  1 30  1  0  0  0  0
  2  3  1  0  0  0  0
  2  4  1  0  0  0  0
  2 31  1  0  0  0  0
  3 32  1  0  0  0  0
  4  5  1  0  0  0  0
  4 33  1  0  0  0  0
  4 34  1  0  0  0  0
  5 26  1  0  0  0  0
  5  6  1  0  0  0  0
  5 56  1  0  0  0  0
  6  7  1  0  0  0  0
  6 35  1  0  0  0  0
  6 36  1  0  0  0  0
  7  8  1  0  0  0  0
  7 37  1  0  0  0  0
  7 38  1  0  0  0  0
  8  9  1  0  0  0  0
  8 25  1  0  0  0  0
  9 14  1  0  0  0  0
  9 10  2  0  0  0  0
 10 11  1  0  0  0  0
 11 12  2  0  0  0  0
 11 39  1  0  0  0  0
 12 13  1  0  0  0  0
 13 17  1  0  0  0  0
 13 14  2  0  0  0  0
 14 15  1  0  0  0  0
 15 16  2  0  0  0  0
 16 17  1  0  0  0  0
 16 40  1  0  0  0  0
 17 18  1  0  0  0  0
 18 19  1  0  0  0  0
 18 41  1  0  0  0  0
 18 42  1  0  0  0  0
 19 24  1  0  0  0  0
 19 20  1  0  0  0  0
 19 21  1  0  0  0  0
 20 43  1  0  0  0  0
 21 22  1  0  0  0  0
 21 44  1  0  0  0  0
 21 45  1  0  0  0  0
 22 23  1  0  0  0  0
 22 46  1  0  0  0  0
 22 47  1  0  0  0  0
 23 24  1  0  0  0  0
 24 48  1  0  0  0  0
 24 49  1  0  0  0  0
 25 26  1  0  0  0  0
 25 50  1  0  0  0  0
 25 51  1  0  0  0  0
 26 27  1  0  0  0  0
 26 52  1  0  0  0  0
 27 53  1  0  0  0  0
 27 54  1  0  0  0  0
 27 55  1  0  0  0  0
M  CHG  1   5   1
M  END
> <s_m_source_file>
AV-unprocessed.smi

> <i_m_source_file_index>
224

> <i_lp_mmshare_version>
43012

> <i_f3d_flags>
0

> <s_epik_input>
W0NIM11bQ0BIXShbT0hdKVtDSDJdTjFbQ0gyXVtDSDJdTihbQ0gyXVtDQEhdMVtDSDNdKWMobltjSF1uMiljKGMyMyluW2NIXW4zW0NIMl1bQ0BAXTQoW09IXSlbQ0gyXVtDSDJdT1tDSDJdNA==

> <s_epik_cmdline>
J2VwaWtfcHl0aG9uJywgJy1waCcsICc3LjAnLCAnLXRuJywgJzgnLCAnLW1hJywgJzIwMCcsICctbWV0YWxfYmluZGluZycsICctaW1hZScsICc8aW5maWxlLm1hZT4nLCAnLW9tYWUnLCAnPG91dGZpbGUubWFlPic=

> <r_lp_tautomer_probability>
1

> <r_epik_Ionization_Penalty>
0.00516958

> <r_epik_Ionization_Penalty_Charging>
0.00509693

> <r_epik_Ionization_Penalty_Neutral>
7.26542e-05

> <r_epik_State_Penalty>
-0

> <r_epik_Charging_Adjusted_Penalty>
0.00509693

> <i_epik_Tot_Q>
1

> <i_epik_Tot_abs_Q>
1

> <r_epik_Metal_State_Penalty>
-0

> <b_epik_Metal_Only>
0

> <s_lp_Force_Field>
OPLS_2005

> <r_lp_Energy>
50.435

> <b_lp_Chiralities_Consistent>
1

> <s_lp_Variant>
AV-unprocessed.smi:224-16

> <Gold.Version>
5.8.1

> <Gold.Id.Protein>
6NUR|6NUR_protein|mol2

> <Gold.PLP.Fitness>
47.5465

> <Gold.PLP.PLP>
-36.0068

> <Gold.PLP.part.hbond>
-4.0000

> <Gold.PLP.part.metal>
0.0000

> <Gold.PLP.part.buried>
-6.6025

> <Gold.PLP.part.nonpolar>
-26.6862

> <Gold.PLP.part.repulsive>
0.3103

> <Gold.PLP.ligand.clash>
0.0000

> <Gold.PLP.ligand.torsion>
0.9698

> <Gold.PLP.Chemscore.Hbond>
3.3260

> <Gold.PLP.Chemscore.CHOScore>
0.9645

> <Gold.PLP.Chemscore.Metal>
0.0000

> <Gold.Chemscore.Hbonds>
donor molecule, donor type, donor heavy atom, donor atom, acceptor molecule, acceptor atom, score
      L1  H     3    32       P1 10952  0.37
      L1  H     5    56       P1 10747  1.00
      P1  H  6896  6907       L1    20  0.54
      P1  H 10785 10796       L1     3  0.85
      L1  C    11    39       P1 10957  0.98

> <Gold.PLP.Chemscore.Internal.Correction>
0.6077

> <Gold.Rescore>
     Score         DG    S(hbond)    S(metal)    S(lipo)     H(rot)  DE(clash)    DE(int)     intcor
     16.63     -17.79       3.13        0.00      89.27       3.36       0.01       1.14       ----

> <Gold.Chemscore.Fitness>
16.6343

> <Gold.Chemscore.DG>
-17.7865

> <Gold.Chemscore.ZeroCoef>
-5.4800

> <Gold.Chemscore.Hbond>
3.1335

> <Gold.Chemscore.Metal>
0.0000

> <Gold.Chemscore.Lipo>
89.2742

> <Gold.Chemscore.Internal_Hbond>
0.0000

> <Gold.Chemscore.DEClash>
0.0095

> <Gold.Chemscore.DEInternal>
1.1427

> <Gold.Chemscore.Rot>
3.3611

> <Gold.Chemscore.Internal.Correction>
   9.000000E+99

> <Gold.Chemscore.Hbonds>
donor molecule, donor type, donor heavy atom, donor atom, acceptor molecule, acceptor atom, score
      L1  H     3    32       P1 10952  0.37
      L1  H     5    56       P1 10747  1.00
      P1  H  6896  6907       L1    20  0.49
      P1  H 10785 10796       L1     3  0.14

> <Gold.Chemscore.Hbond.Weighted>
-10.4659

> <Gold.Chemscore.Metal.Weighted>
-0.0000

> <Gold.Chemscore.Lipo.Weighted>
-10.4451

> <Gold.Chemscore.Internal_Hbond.Weighted>
0.0000

> <Gold.Chemscore.DEClash.Weighted>
0.0095

> <Gold.Chemscore.DEInternal.Weighted>
1.1427

> <Gold.Chemscore.Rot.Weighted>
8.6045

> <Gold.Chemscore.Internal.Correction.Weighted>
   9.000000E+99

> <Gold.Protein.RotatedTorsions>
[ 6907 6896 6895 6894 ] final  -65.01 input  -60.11 | X-H torsion
[ 7974 7965 7964 7962 ] final   12.14 input  175.53 | X-H torsion
[ 8008 7997 7996 7995 ] final  164.23 input   59.86 | X-H torsion
[ 10167 10162 10161 10158 ] final   93.23 input  -65.29 | X-H torsion
[ 10718 10713 10712 10709 ] final   19.87 input   66.30 | X-H torsion
[ 10763 10752 10751 10750 ] final   62.16 input  -60.55 | X-H torsion
[ 11005 11000 10999 10996 ] final   57.21 input  -57.11 | X-H torsion

> <Gold.Protein.ActiveResidues>
 VAL166  LYS551  ARG553  GLY616  TRP617  ASP618  TYR619  PRO620  LYS621  CYS622 
 ASP623  PHE694  ASN695  SER759  ASP760  ASP761  ALA762  ILE779  LEU786  VAL792 
 PHE793  MET794  SER795  GLU796  ALA797  LYS798  CYS799  TRP800  GLU811  SER814 

> <Gold.Protein.RotatedAtoms>
  150.7550  134.6219  159.6140 H   0  0  0  0  0  0  0  0  0  0  0  0  # atno 6907 bound_to 6896
  152.3522  134.6986  160.0242 H   0  0  0  0  0  0  0  0  0  0  0  0  # atno 6908 bound_to 6896
  151.7403  133.3285  159.3400 H   0  0  0  0  0  0  0  0  0  0  0  0  # atno 6909 bound_to 6896
  146.2357  139.9380  142.8487 H   0  0  0  0  0  0  0  0  0  0  0  0  # atno 7974 bound_to 7965
  156.1896  140.1702  156.8118 H   0  0  0  0  0  0  0  0  0  0  0  0  # atno 8008 bound_to 7997
  154.5455  140.0728  156.8614 H   0  0  0  0  0  0  0  0  0  0  0  0  # atno 8009 bound_to 7997
  155.3130  140.3368  155.4245 H   0  0  0  0  0  0  0  0  0  0  0  0  # atno 8010 bound_to 7997
  139.8200  144.6735  150.9531 H   0  0  0  0  0  0  0  0  0  0  0  0  # atno 10167 bound_to 10162
  157.1165  130.6531  149.5912 H   0  0  0  0  0  0  0  0  0  0  0  0  # atno 10718 bound_to 10713
  152.9974  135.5475  154.6149 H   0  0  0  0  0  0  0  0  0  0  0  0  # atno 10763 bound_to 10752
  154.5462  135.2823  155.1053 H   0  0  0  0  0  0  0  0  0  0  0  0  # atno 10764 bound_to 10752
  154.2311  135.6433  153.5228 H   0  0  0  0  0  0  0  0  0  0  0  0  # atno 10765 bound_to 10752
  140.0470  134.5791  155.9310 H   0  0  0  0  0  0  0  0  0  0  0  0  # atno 11005 bound_to 11000
  145.1980  140.9841  143.4172 LP  0  0  0  0  0  0  0  0  0  0  0  0  # atno 17320 bound_to 7965
  144.9799  139.3794  143.6267 LP  0  0  0  0  0  0  0  0  0  0  0  0  # atno 17321 bound_to 7965
  140.7814  143.4101  151.1006 LP  0  0  0  0  0  0  0  0  0  0  0  0  # atno 17342 bound_to 10162
  139.7762  143.8421  152.3130 LP  0  0  0  0  0  0  0  0  0  0  0  0  # atno 17343 bound_to 10162
  155.9838  130.4860  150.6952 LP  0  0  0  0  0  0  0  0  0  0  0  0  # atno 17370 bound_to 10713
  157.4514  131.0873  151.0842 LP  0  0  0  0  0  0  0  0  0  0  0  0  # atno 17371 bound_to 10713
  141.1912  133.6571  156.5444 LP  0  0  0  0  0  0  0  0  0  0  0  0  # atno 17394 bound_to 11000
  140.3978  134.7383  157.4761 LP  0  0  0  0  0  0  0  0  0  0  0  0  # atno 17395 bound_to 11000

$$$$
