AV-unprocessed.smi:3131|AV-procd|sdf|11927|dock1
  -GOLD-   2272017313D 1   1.00000     0.00000
 Structure written by MMmdl.
 43 43  0  0  0  0  0  0  0  0  2 V2000
  145.5042  140.8308  155.3605 C   0  0  0  0  0  0  0  0  0  0  0  0
  146.1814  142.2068  155.2733 C   0  0  0  0  0  0  0  0  0  0  0  0
  147.7139  142.1531  155.0664 C   0  0  0  0  0  0  0  0  0  0  0  0
  148.0843  141.2565  153.8597 C   0  0  0  0  0  0  0  0  0  0  0  0
  148.0851  139.7512  154.1654 C   0  0  0  0  0  0  0  0  0  0  0  0
  148.4323  141.6690  156.3461 C   0  0  0  0  0  0  0  0  0  0  0  0
  149.5406  142.5680  156.7254 N   0  3  0  0  0  0  0  0  0  0  0  0
  149.9780  142.4347  158.1313 C   0  0  0  0  0  0  0  0  0  0  0  0
  150.9469  143.5643  158.5424 C   0  0  1  0  0  0  0  0  0  0  0  0
  151.8080  143.9984  157.3433 C   0  0  0  0  0  0  0  0  0  0  0  0
  150.1602  144.6909  158.8825 O   0  0  0  0  0  0  0  0  0  0  0  0
  151.8339  143.1279  159.6895 C   0  0  0  0  0  0  0  0  0  0  0  0
  152.7741  142.0558  159.7242 C   0  0  0  0  0  0  0  0  0  0  0  0
  153.4013  141.9539  160.8840 N   0  0  0  0  0  0  0  0  0  0  0  0
  152.8836  142.9468  161.6339 N   0  0  0  0  0  0  0  0  0  0  0  0
  153.3474  143.1315  162.9922 C   0  0  0  0  0  0  0  0  0  0  0  0
  151.9372  143.6698  160.9415 C   0  0  0  0  0  0  0  0  0  0  0  0
  144.4468  140.9404  155.6031 H   0  0  0  0  0  0  0  0  0  0  0  0
  145.9575  140.2167  156.1390 H   0  0  0  0  0  0  0  0  0  0  0  0
  145.5619  140.2828  154.4208 H   0  0  0  0  0  0  0  0  0  0  0  0
  145.7192  142.7933  154.4782 H   0  0  0  0  0  0  0  0  0  0  0  0
  145.9516  142.7315  156.1994 H   0  0  0  0  0  0  0  0  0  0  0  0
  148.0583  143.1660  154.8508 H   0  0  0  0  0  0  0  0  0  0  0  0
  147.3730  141.4160  153.0492 H   0  0  0  0  0  0  0  0  0  0  0  0
  149.0565  141.5506  153.4623 H   0  0  0  0  0  0  0  0  0  0  0  0
  148.2593  139.1762  153.2555 H   0  0  0  0  0  0  0  0  0  0  0  0
  147.1278  139.4315  154.5778 H   0  0  0  0  0  0  0  0  0  0  0  0
  148.8658  139.4755  154.8734 H   0  0  0  0  0  0  0  0  0  0  0  0
  147.7412  141.6349  157.1870 H   0  0  0  0  0  0  0  0  0  0  0  0
  148.8114  140.6556  156.2067 H   0  0  0  0  0  0  0  0  0  0  0  0
  150.3320  142.3751  156.1279 H   0  0  0  0  0  0  0  0  0  0  0  0
  149.0943  142.4549  158.7710 H   0  0  0  0  0  0  0  0  0  0  0  0
  150.4464  141.4593  158.2733 H   0  0  0  0  0  0  0  0  0  0  0  0
  152.4303  143.1788  156.9823 H   0  0  0  0  0  0  0  0  0  0  0  0
  152.4727  144.8215  157.6096 H   0  0  0  0  0  0  0  0  0  0  0  0
  151.1915  144.3307  156.5071 H   0  0  0  0  0  0  0  0  0  0  0  0
  149.6467  144.9416  158.1294 H   0  0  0  0  0  0  0  0  0  0  0  0
  153.0232  141.3548  158.9410 H   0  0  0  0  0  0  0  0  0  0  0  0
  152.8988  144.0276  163.4224 H   0  0  0  0  0  0  0  0  0  0  0  0
  154.4327  143.2394  163.0018 H   0  0  0  0  0  0  0  0  0  0  0  0
  153.0671  142.2690  163.5977 H   0  0  0  0  0  0  0  0  0  0  0  0
  151.4208  144.5050  161.3913 H   0  0  0  0  0  0  0  0  0  0  0  0
  149.2495  143.5230  156.5720 H   0  0  0  0  0  0  0  0  0  0  0  0
  1  2  1  0  0  0  0
  1 18  1  0  0  0  0
  1 19  1  0  0  0  0
  1 20  1  0  0  0  0
  2  3  1  0  0  0  0
  2 21  1  0  0  0  0
  2 22  1  0  0  0  0
  3  4  1  0  0  0  0
  3  6  1  0  0  0  0
  3 23  1  0  0  0  0
  4  5  1  0  0  0  0
  4 24  1  0  0  0  0
  4 25  1  0  0  0  0
  5 26  1  0  0  0  0
  5 27  1  0  0  0  0
  5 28  1  0  0  0  0
  6  7  1  0  0  0  0
  6 29  1  0  0  0  0
  6 30  1  0  0  0  0
  7  8  1  0  0  0  0
  7 31  1  0  0  0  0
  7 43  1  0  0  0  0
  8  9  1  0  0  0  0
  8 32  1  0  0  0  0
  8 33  1  0  0  0  0
  9 10  1  0  0  0  0
  9 11  1  0  0  0  0
  9 12  1  0  0  0  0
 10 34  1  0  0  0  0
 10 35  1  0  0  0  0
 10 36  1  0  0  0  0
 11 37  1  0  0  0  0
 12 17  2  0  0  0  0
 12 13  1  0  0  0  0
 13 14  2  0  0  0  0
 13 38  1  0  0  0  0
 14 15  1  0  0  0  0
 15 16  1  0  0  0  0
 15 17  1  0  0  0  0
 16 39  1  0  0  0  0
 16 40  1  0  0  0  0
 16 41  1  0  0  0  0
 17 42  1  0  0  0  0
M  CHG  1   7   1
M  END
> <s_m_source_file>
AV-unprocessed.smi

> <i_m_source_file_index>
3131

> <i_lp_mmshare_version>
43012

> <i_f3d_flags>
0

> <s_epik_input>
W0NIM11bQ0gyXVtDSF0oW0NIMl1bQ0gzXSlbQ0gyXVtOSF1bQ0gyXVtDQEBdKFtDSDNdKShbT0hdKWMxW2NIXW5uKFtDSDNdKVtjSF0x

> <s_epik_cmdline>
J2VwaWtfcHl0aG9uJywgJy1waCcsICc3LjAnLCAnLXRuJywgJzgnLCAnLW1hJywgJzIwMCcsICctbWV0YWxfYmluZGluZycsICctaW1hZScsICc8aW5maWxlLm1hZT4nLCAnLW9tYWUnLCAnPG91dGZpbGUubWFlPic=

> <r_lp_tautomer_probability>
1

> <r_epik_Ionization_Penalty>
0.00304809

> <r_epik_Ionization_Penalty_Charging>
0.00302982

> <r_epik_Ionization_Penalty_Neutral>
1.82731e-05

> <r_epik_State_Penalty>
0.00212874

> <r_epik_Charging_Adjusted_Penalty>
0.00515857

> <i_epik_Tot_Q>
1

> <i_epik_Tot_abs_Q>
1

> <r_epik_Metal_State_Penalty>
-0

> <b_epik_Metal_Only>
0

> <s_lp_Force_Field>
OPLS_2005

> <r_lp_Energy>
10.206

> <b_lp_Chiralities_Consistent>
1

> <s_lp_Variant>
AV-unprocessed.smi:3131-1

> <Gold.Version>
5.8.1

> <Gold.Id.Protein>
6NUR|6NUR_protein|mol2

> <Gold.PLP.Fitness>
43.9389

> <Gold.PLP.PLP>
-37.5396

> <Gold.PLP.part.hbond>
-2.0000

> <Gold.PLP.part.metal>
0.0000

> <Gold.PLP.part.buried>
-0.6203

> <Gold.PLP.part.nonpolar>
-34.4509

> <Gold.PLP.part.repulsive>
0.0345

> <Gold.PLP.ligand.clash>
0.0000

> <Gold.PLP.ligand.torsion>
1.4172

> <Gold.PLP.Chemscore.Hbond>
2.9750

> <Gold.PLP.Chemscore.CHOScore>
0.0000

> <Gold.PLP.Chemscore.Metal>
0.0000

> <Gold.Chemscore.Hbonds>
donor molecule, donor type, donor heavy atom, donor atom, acceptor molecule, acceptor atom, score
      L1  H     7    43       P1  8028  2.00
      L1  H    11    37       P1  8029  0.57

> <Gold.PLP.Chemscore.Internal.Correction>
0.3087

> <Gold.Rescore>
     Score         DG    S(hbond)    S(metal)    S(lipo)     H(rot)  DE(clash)    DE(int)     intcor
     13.90     -15.67       1.25        0.00     102.53       2.34       0.32       1.45       ----

> <Gold.Chemscore.Fitness>
13.8954

> <Gold.Chemscore.DG>
-15.6656

> <Gold.Chemscore.ZeroCoef>
-5.4800

> <Gold.Chemscore.Hbond>
1.2535

> <Gold.Chemscore.Metal>
0.0000

> <Gold.Chemscore.Lipo>
102.5293

> <Gold.Chemscore.Internal_Hbond>
0.0000

> <Gold.Chemscore.DEClash>
0.3164

> <Gold.Chemscore.DEInternal>
1.4537

> <Gold.Chemscore.Rot>
2.3426

> <Gold.Chemscore.Internal.Correction>
   9.000000E+99

> <Gold.Chemscore.Hbonds>
donor molecule, donor type, donor heavy atom, donor atom, acceptor molecule, acceptor atom, score
      L1  H     7    43       P1  8028  0.91
      L1  H    11    37       P1  8029  0.11

> <Gold.Chemscore.Hbond.Weighted>
-4.1868

> <Gold.Chemscore.Metal.Weighted>
-0.0000

> <Gold.Chemscore.Lipo.Weighted>
-11.9959

> <Gold.Chemscore.Internal_Hbond.Weighted>
0.0000

> <Gold.Chemscore.DEClash.Weighted>
0.3164

> <Gold.Chemscore.DEInternal.Weighted>
1.4537

> <Gold.Chemscore.Rot.Weighted>
5.9972

> <Gold.Chemscore.Internal.Correction.Weighted>
   9.000000E+99

> <Gold.Protein.RotatedTorsions>
[ 6907 6896 6895 6894 ] final   -9.37 input  -60.11 | X-H torsion
[ 7974 7965 7964 7962 ] final   75.76 input  175.53 | X-H torsion
[ 8008 7997 7996 7995 ] final  148.26 input   59.86 | X-H torsion
[ 10167 10162 10161 10158 ] final -135.91 input  -65.29 | X-H torsion
[ 10718 10713 10712 10709 ] final   31.49 input   66.30 | X-H torsion
[ 10763 10752 10751 10750 ] final   11.19 input  -60.55 | X-H torsion
[ 11005 11000 10999 10996 ] final   82.36 input  -57.11 | X-H torsion

> <Gold.Protein.ActiveResidues>
 VAL166  LYS551  ARG553  GLY616  TRP617  ASP618  TYR619  PRO620  LYS621  CYS622 
 ASP623  PHE694  ASN695  SER759  ASP760  ASP761  ALA762  ILE779  LEU786  VAL792 
 PHE793  MET794  SER795  GLU796  ALA797  LYS798  CYS799  TRP800  GLU811  SER814 

> <Gold.Protein.RotatedAtoms>
  151.4188  135.0995  159.9607 H   0  0  0  0  0  0  0  0  0  0  0  0  # atno 6907 bound_to 6896
  152.4995  133.8727  159.7317 H   0  0  0  0  0  0  0  0  0  0  0  0  # atno 6908 bound_to 6896
  150.9238  133.6791  159.2854 H   0  0  0  0  0  0  0  0  0  0  0  0  # atno 6909 bound_to 6896
  145.7115  139.2616  143.1648 H   0  0  0  0  0  0  0  0  0  0  0  0  # atno 7974 bound_to 7965
  156.2797  140.2133  156.5670 H   0  0  0  0  0  0  0  0  0  0  0  0  # atno 8008 bound_to 7997
  154.7167  140.0507  157.0624 H   0  0  0  0  0  0  0  0  0  0  0  0  # atno 8009 bound_to 7997
  155.0533  140.3158  155.4687 H   0  0  0  0  0  0  0  0  0  0  0  0  # atno 8010 bound_to 7997
  139.8731  143.6932  152.2637 H   0  0  0  0  0  0  0  0  0  0  0  0  # atno 10167 bound_to 10162
  157.2732  130.7218  149.6515 H   0  0  0  0  0  0  0  0  0  0  0  0  # atno 10718 bound_to 10713
  153.1952  135.6848  153.8301 H   0  0  0  0  0  0  0  0  0  0  0  0  # atno 10763 bound_to 10752
  153.7586  135.3213  155.3334 H   0  0  0  0  0  0  0  0  0  0  0  0  # atno 10764 bound_to 10752
  154.8140  135.4698  154.0694 H   0  0  0  0  0  0  0  0  0  0  0  0  # atno 10765 bound_to 10752
  139.9066  134.8065  156.2164 H   0  0  0  0  0  0  0  0  0  0  0  0  # atno 11005 bound_to 11000
  146.0708  140.7871  142.9689 LP  0  0  0  0  0  0  0  0  0  0  0  0  # atno 17320 bound_to 7965
  144.6941  140.3339  143.7211 LP  0  0  0  0  0  0  0  0  0  0  0  0  # atno 17321 bound_to 7965
  139.7265  144.7592  151.0871 LP  0  0  0  0  0  0  0  0  0  0  0  0  # atno 17342 bound_to 10162
  140.7757  143.5142  150.9616 LP  0  0  0  0  0  0  0  0  0  0  0  0  # atno 17343 bound_to 10162
  155.9663  130.4361  150.5120 LP  0  0  0  0  0  0  0  0  0  0  0  0  # atno 17370 bound_to 10713
  157.3048  131.0652  151.2042 LP  0  0  0  0  0  0  0  0  0  0  0  0  # atno 17371 bound_to 10713
  141.0433  133.6926  156.1637 LP  0  0  0  0  0  0  0  0  0  0  0  0  # atno 17394 bound_to 11000
  140.6922  134.4653  157.5588 LP  0  0  0  0  0  0  0  0  0  0  0  0  # atno 17395 bound_to 11000

$$$$
