AV-unprocessed.smi:72|AV-procd|sdf|675|dock10
  -GOLD-   2262016583D 1   1.00000     0.00000
 Structure written by MMmdl.
 29 30  0  0  0  0  0  0  0  0  1 V2000
  154.0609  138.4846  154.8211 N   0  0  0  0  0  0  0  0  0  0  0  0
  152.7945  138.7029  154.8494 C   0  0  0  0  0  0  0  0  0  0  0  0
  151.8316  137.9831  154.1256 N   0  0  0  0  0  0  0  0  0  0  0  0
  150.5833  138.3131  154.2522 C   0  0  0  0  0  0  0  0  0  0  0  0
  150.1524  139.4007  155.1166 N   0  0  0  0  0  0  0  0  0  0  0  0
  148.6879  139.7662  155.2397 C   0  0  2  0  0  0  0  0  0  0  0  0
  147.9319  138.5931  155.2836 O   0  0  0  0  0  0  0  0  0  0  0  0
  146.7320  138.7761  154.5398 C   0  0  2  0  0  0  0  0  0  0  0  0
  146.1171  137.4261  154.1293 C   0  0  0  0  0  0  0  0  0  0  0  0
  147.1337  136.4634  153.9488 O   0  0  0  0  0  0  0  0  0  0  0  0
  147.1726  139.6825  153.3813 C   0  0  2  0  0  0  0  0  0  0  0  0
  147.7648  138.9233  152.3399 O   0  0  0  0  0  0  0  0  0  0  0  0
  148.1684  140.6179  154.0613 C   0  0  2  0  0  0  0  0  0  0  0  0
  149.1562  141.1242  153.1788 O   0  0  0  0  0  0  0  0  0  0  0  0
  151.1121  140.1456  155.8449 C   0  0  0  0  0  0  0  0  0  0  0  0
  150.8071  141.0906  156.5719 O   0  0  0  0  0  0  0  0  0  0  0  0
  152.3955  139.7560  155.6842 N   0  0  0  0  0  0  0  0  0  0  0  0
  148.5717  140.2717  156.1995 H   0  0  0  0  0  0  0  0  0  0  0  0
  146.0271  139.3362  155.1577 H   0  0  0  0  0  0  0  0  0  0  0  0
  146.3300  140.2316  152.9598 H   0  0  0  0  0  0  0  0  0  0  0  0
  147.6273  141.4617  154.4915 H   0  0  0  0  0  0  0  0  0  0  0  0
  154.2751  137.7161  154.2026 H   0  0  0  0  0  0  0  0  0  0  0  0
  149.7808  137.8010  153.7198 H   0  0  0  0  0  0  0  0  0  0  0  0
  145.4589  137.0590  154.9174 H   0  0  0  0  0  0  0  0  0  0  0  0
  145.5190  137.5197  153.2221 H   0  0  0  0  0  0  0  0  0  0  0  0
  147.7155  136.7652  153.2678 H   0  0  0  0  0  0  0  0  0  0  0  0
  148.5376  139.3786  152.0422 H   0  0  0  0  0  0  0  0  0  0  0  0
  149.4662  140.4118  152.6406 H   0  0  0  0  0  0  0  0  0  0  0  0
  153.1026  140.2654  156.1934 H   0  0  0  0  0  0  0  0  0  0  0  0
  1  2  2  0  0  0  0
  1 22  1  0  0  0  0
  2 17  1  0  0  0  0
  2  3  1  0  0  0  0
  3  4  2  0  0  0  0
  4  5  1  0  0  0  0
  4 23  1  0  0  0  0
  5  6  1  0  0  0  0
  5 15  1  0  0  0  0
  6 18  1  0  0  0  0
  6 13  1  0  0  0  0
  6  7  1  0  0  0  0
  7  8  1  0  0  0  0
  8 19  1  0  0  0  0
  8  9  1  0  0  0  0
  8 11  1  0  0  0  0
  9 10  1  0  0  0  0
  9 24  1  0  0  0  0
  9 25  1  0  0  0  0
 10 26  1  0  0  0  0
 11 20  1  0  0  0  0
 11 12  1  0  0  0  0
 11 13  1  0  0  0  0
 12 27  1  0  0  0  0
 13 21  1  0  0  0  0
 13 14  1  0  0  0  0
 14 28  1  0  0  0  0
 15 16  2  0  0  0  0
 15 17  1  0  0  0  0
 17 29  1  0  0  0  0
M  END
> <s_m_source_file>
AV-unprocessed.smi

> <i_m_source_file_index>
72

> <i_lp_mmshare_version>
43012

> <i_f3d_flags>
0

> <s_epik_input>
W05IMl1jMW5bY0hdbihjKD1PKW4xKVtDQEBIXTJPW0NASF0oW0NIMl1bT0hdKVtDQEBIXShbT0hdKVtDQEhdMltPSF0=

> <s_epik_cmdline>
J2VwaWtfcHl0aG9uJywgJy1waCcsICc3LjAnLCAnLXRuJywgJzgnLCAnLW1hJywgJzIwMCcsICctbWV0YWxfYmluZGluZycsICctaW1hZScsICc8aW5maWxlLm1hZT4nLCAnLW9tYWUnLCAnPG91dGZpbGUubWFlPic=

> <r_lp_tautomer_probability>
7.17554e-07

> <r_epik_Ionization_Penalty>
0.0066451

> <r_epik_Ionization_Penalty_Charging>
0.00663793

> <r_epik_Ionization_Penalty_Neutral>
7.17052e-06

> <r_epik_State_Penalty>
0.419231

> <r_epik_Charging_Adjusted_Penalty>
0.425868

> <i_epik_Tot_Q>
0

> <i_epik_Tot_abs_Q>
0

> <r_epik_Metal_State_Penalty>
1.44144

> <b_epik_Metal_Only>
0

> <s_epik_Chemistry_Notes>
This compound contains an acetal/aminal-like group ( X-CH(R)-Y where X, Y are N, S, or O) that may be acid/base labile, releasing an aldehyde.

> <s_lp_Force_Field>
OPLS_2005

> <r_lp_Energy>
49.9877

> <b_lp_Chiralities_Consistent>
1

> <s_lp_Variant>
AV-unprocessed.smi:72-13

> <Gold.Version>
5.8.1

> <Gold.Id.Protein>
6NUR|6NUR_protein|mol2

> <Gold.PLP.Fitness>
41.2821

> <Gold.PLP.PLP>
-26.9923

> <Gold.PLP.part.hbond>
-6.3665

> <Gold.PLP.part.metal>
0.0000

> <Gold.PLP.part.buried>
-6.1045

> <Gold.PLP.part.nonpolar>
-15.5248

> <Gold.PLP.part.repulsive>
0.9215

> <Gold.PLP.ligand.clash>
0.0000

> <Gold.PLP.ligand.torsion>
0.8873

> <Gold.PLP.Chemscore.Hbond>
4.3526

> <Gold.PLP.Chemscore.CHOScore>
1.0000

> <Gold.PLP.Chemscore.Metal>
0.0000

> <Gold.Chemscore.Hbonds>
donor molecule, donor type, donor heavy atom, donor atom, acceptor molecule, acceptor atom, score
      L1  H    10    26       P1  7948  0.91
      L1  H    12    27       P1  7957  0.98
      L1  H    14    28       P1  7957  0.78
      P1  H  7997  8010       L1     1  0.69
      P1  H  8011  8017       L1    14  0.95
      L1  C     4    23       P1  7948  0.99

> <Gold.PLP.Chemscore.Internal.Correction>
0.0065

> <Gold.Rescore>
     Score         DG    S(hbond)    S(metal)    S(lipo)     H(rot)  DE(clash)    DE(int)     intcor
      7.65      -8.59       3.46        0.00      16.66       4.06       0.28       0.65       ----

> <Gold.Chemscore.Fitness>
7.6533

> <Gold.Chemscore.DG>
-8.5908

> <Gold.Chemscore.ZeroCoef>
-5.4800

> <Gold.Chemscore.Hbond>
3.4596

> <Gold.Chemscore.Metal>
0.0000

> <Gold.Chemscore.Lipo>
16.6609

> <Gold.Chemscore.Internal_Hbond>
0.0000

> <Gold.Chemscore.DEClash>
0.2835

> <Gold.Chemscore.DEInternal>
0.6540

> <Gold.Chemscore.Rot>
4.0600

> <Gold.Chemscore.Internal.Correction>
   9.000000E+99

> <Gold.Chemscore.Hbonds>
donor molecule, donor type, donor heavy atom, donor atom, acceptor molecule, acceptor atom, score
      L1  H    10    26       P1  7948  0.89
      L1  H    12    27       P1  7957  0.91
      L1  H    14    28       P1  7957  0.73
      P1  H  7997  8010       L1     1  0.17
      P1  H  8011  8017       L1    14  0.21

> <Gold.Chemscore.Hbond.Weighted>
-11.5551

> <Gold.Chemscore.Metal.Weighted>
-0.0000

> <Gold.Chemscore.Lipo.Weighted>
-1.9493

> <Gold.Chemscore.Internal_Hbond.Weighted>
0.0000

> <Gold.Chemscore.DEClash.Weighted>
0.2835

> <Gold.Chemscore.DEInternal.Weighted>
0.6540

> <Gold.Chemscore.Rot.Weighted>
10.3936

> <Gold.Chemscore.Internal.Correction.Weighted>
   9.000000E+99

> <Gold.Protein.RotatedTorsions>
[ 6907 6896 6895 6894 ] final -177.32 input  -60.11 | X-H torsion
[ 7974 7965 7964 7962 ] final  -23.99 input  175.53 | X-H torsion
[ 8008 7997 7996 7995 ] final  128.75 input   59.86 | X-H torsion
[ 10167 10162 10161 10158 ] final  -54.04 input  -65.29 | X-H torsion
[ 10718 10713 10712 10709 ] final  150.06 input   66.30 | X-H torsion
[ 10763 10752 10751 10750 ] final -140.78 input  -60.55 | X-H torsion
[ 11005 11000 10999 10996 ] final  123.59 input  -57.11 | X-H torsion

> <Gold.Protein.ActiveResidues>
 VAL166  LYS551  ARG553  GLY616  TRP617  ASP618  TYR619  PRO620  LYS621  CYS622 
 ASP623  PHE694  ASN695  SER759  ASP760  ASP761  ALA762  ILE779  LEU786  VAL792 
 PHE793  MET794  SER795  GLU796  ALA797  LYS798  CYS799  TRP800  GLU811  SER814 

> <Gold.Protein.RotatedAtoms>
  151.6191  133.3340  159.3083 H   0  0  0  0  0  0  0  0  0  0  0  0  # atno 6907 bound_to 6896
  150.8115  134.7277  159.6704 H   0  0  0  0  0  0  0  0  0  0  0  0  # atno 6908 bound_to 6896
  152.4212  134.5957  160.0038 H   0  0  0  0  0  0  0  0  0  0  0  0  # atno 6909 bound_to 6896
  146.1582  140.4691  142.8582 H   0  0  0  0  0  0  0  0  0  0  0  0  # atno 7974 bound_to 7965
  156.2922  140.2637  156.2487 H   0  0  0  0  0  0  0  0  0  0  0  0  # atno 8008 bound_to 7997
  154.9904  140.0389  157.2335 H   0  0  0  0  0  0  0  0  0  0  0  0  # atno 8009 bound_to 7997
  154.7691  140.2775  155.6157 H   0  0  0  0  0  0  0  0  0  0  0  0  # atno 8010 bound_to 7997
  140.6452  143.2531  151.4878 H   0  0  0  0  0  0  0  0  0  0  0  0  # atno 10167 bound_to 10162
  157.2882  131.0848  151.1481 H   0  0  0  0  0  0  0  0  0  0  0  0  # atno 10718 bound_to 10713
  154.8567  135.3543  154.5762 H   0  0  0  0  0  0  0  0  0  0  0  0  # atno 10763 bound_to 10752
  153.6374  135.7000  153.5258 H   0  0  0  0  0  0  0  0  0  0  0  0  # atno 10764 bound_to 10752
  153.2999  135.4209  155.1202 H   0  0  0  0  0  0  0  0  0  0  0  0  # atno 10765 bound_to 10752
  139.9319  134.9641  156.8282 H   0  0  0  0  0  0  0  0  0  0  0  0  # atno 11005 bound_to 11000
  144.7992  140.6180  143.6490 LP  0  0  0  0  0  0  0  0  0  0  0  0  # atno 17320 bound_to 7965
  145.4654  139.1508  143.3843 LP  0  0  0  0  0  0  0  0  0  0  0  0  # atno 17321 bound_to 7965
  139.5663  144.2035  152.1769 LP  0  0  0  0  0  0  0  0  0  0  0  0  # atno 17342 bound_to 10162
  140.1318  144.5281  150.6798 LP  0  0  0  0  0  0  0  0  0  0  0  0  # atno 17343 bound_to 10162
  157.2888  130.6786  149.6103 LP  0  0  0  0  0  0  0  0  0  0  0  0  # atno 17370 bound_to 10713
  155.9666  130.4427  150.5392 LP  0  0  0  0  0  0  0  0  0  0  0  0  # atno 17371 bound_to 10713
  140.6178  134.0022  155.7605 LP  0  0  0  0  0  0  0  0  0  0  0  0  # atno 17394 bound_to 11000
  141.0913  133.9912  157.3232 LP  0  0  0  0  0  0  0  0  0  0  0  0  # atno 17395 bound_to 11000

$$$$
