AV-unprocessed.smi:2751|AV-procd|sdf|10603|dock4
  -GOLD-   2272015 53D 1   1.00000     0.00000
 Structure written by MMmdl.
 33 34  0  0  0  0  0  0  0  0  2 V2000
  151.7351  140.0943  155.0225 O   0  0  0  0  0  0  0  0  0  0  0  0
  150.7973  140.6424  155.6069 C   0  0  0  0  0  0  0  0  0  0  0  0
  150.7231  140.5927  156.9450 N   0  0  0  0  0  0  0  0  0  0  0  0
  151.6744  139.9288  157.8301 C   0  0  0  0  0  0  0  0  0  0  0  0
  151.8406  140.6902  159.1566 C   0  0  0  0  0  0  0  0  0  0  0  0
  152.2333  142.1623  158.9553 C   0  0  2  0  0  0  0  0  0  0  0  0
  152.2128  142.9504  160.2796 C   0  0  0  0  0  0  0  0  0  0  0  0
  152.5371  144.4283  160.0331 C   0  0  0  0  0  0  0  0  0  0  0  0
  151.6045  144.9891  158.9544 C   0  0  0  0  0  0  0  0  0  0  0  0
  151.6442  144.1018  157.7002 C   0  0  0  0  0  0  0  0  0  0  0  0
  151.3119  142.7603  158.0445 O   0  0  0  0  0  0  0  0  0  0  0  0
  149.7805  141.3214  155.0290 N   0  5  0  0  0  0  0  0  0  0  0  0
  148.8681  140.6627  154.2961 C   0  0  0  0  0  0  0  0  0  0  0  0
  147.8408  141.2042  153.6392 N   0  0  0  0  0  0  0  0  0  0  0  0
  147.1750  140.1466  153.0389 C   0  0  0  0  0  0  0  0  0  0  0  0
  147.8348  138.9942  153.3680 C   0  0  0  0  0  0  0  0  0  0  0  0
  148.9012  139.3060  154.1651 O   0  0  0  0  0  0  0  0  0  0  0  0
  149.9396  141.0552  157.3826 H   0  0  0  0  0  0  0  0  0  0  0  0
  151.3608  138.8998  158.0138 H   0  0  0  0  0  0  0  0  0  0  0  0
  152.6308  139.8719  157.3100 H   0  0  0  0  0  0  0  0  0  0  0  0
  150.9171  140.6317  159.7340 H   0  0  0  0  0  0  0  0  0  0  0  0
  152.6079  140.1989  159.7562 H   0  0  0  0  0  0  0  0  0  0  0  0
  153.2373  142.2016  158.5287 H   0  0  0  0  0  0  0  0  0  0  0  0
  151.2292  142.8654  160.7438 H   0  0  0  0  0  0  0  0  0  0  0  0
  152.9287  142.5256  160.9842 H   0  0  0  0  0  0  0  0  0  0  0  0
  152.4388  144.9994  160.9564 H   0  0  0  0  0  0  0  0  0  0  0  0
  153.5742  144.5274  159.7103 H   0  0  0  0  0  0  0  0  0  0  0  0
  150.5842  145.0307  159.3376 H   0  0  0  0  0  0  0  0  0  0  0  0
  151.8876  146.0118  158.7038 H   0  0  0  0  0  0  0  0  0  0  0  0
  150.9277  144.4634  156.9628 H   0  0  0  0  0  0  0  0  0  0  0  0
  152.6283  144.1350  157.2303 H   0  0  0  0  0  0  0  0  0  0  0  0
  146.2943  140.2964  152.4323 H   0  0  0  0  0  0  0  0  0  0  0  0
  147.6872  137.9498  153.1380 H   0  0  0  0  0  0  0  0  0  0  0  0
  1  2  2  0  0  0  0
  2 12  1  0  0  0  0
  2  3  1  0  0  0  0
  3  4  1  0  0  0  0
  3 18  1  0  0  0  0
  4  5  1  0  0  0  0
  4 19  1  0  0  0  0
  4 20  1  0  0  0  0
  5  6  1  0  0  0  0
  5 21  1  0  0  0  0
  5 22  1  0  0  0  0
  6 11  1  0  0  0  0
  6  7  1  0  0  0  0
  6 23  1  0  0  0  0
  7  8  1  0  0  0  0
  7 24  1  0  0  0  0
  7 25  1  0  0  0  0
  8  9  1  0  0  0  0
  8 26  1  0  0  0  0
  8 27  1  0  0  0  0
  9 10  1  0  0  0  0
  9 28  1  0  0  0  0
  9 29  1  0  0  0  0
 10 11  1  0  0  0  0
 10 30  1  0  0  0  0
 10 31  1  0  0  0  0
 12 13  1  0  0  0  0
 13 17  1  0  0  0  0
 13 14  2  0  0  0  0
 14 15  1  0  0  0  0
 15 32  1  0  0  0  0
 15 16  2  0  0  0  0
 16 33  1  0  0  0  0
 16 17  1  0  0  0  0
M  CHG  1  12  -1
M  END
> <s_m_source_file>
AV-unprocessed.smi

> <i_m_source_file_index>
2751

> <i_lp_mmshare_version>
43012

> <i_f3d_flags>
0

> <s_epik_input>
bzFbY0hdW2NIXW5jMVtOSF1DKD1PKVtOSF1bQ0gyXVtDSDJdW0NAQEhdMltDSDJdW0NIMl1bQ0gyXVtDSDJdTzI=

> <s_epik_cmdline>
J2VwaWtfcHl0aG9uJywgJy1waCcsICc3LjAnLCAnLXRuJywgJzgnLCAnLW1hJywgJzIwMCcsICctbWV0YWxfYmluZGluZycsICctaW1hZScsICc8aW5maWxlLm1hZT4nLCAnLW9tYWUnLCAnPG91dGZpbGUubWFlPic=

> <r_lp_tautomer_probability>
0.107061

> <r_epik_Ionization_Penalty>
11.077

> <r_epik_Ionization_Penalty_Charging>
7.79122

> <r_epik_Ionization_Penalty_Neutral>
3.28583

> <r_epik_State_Penalty>
5.8984

> <r_epik_Charging_Adjusted_Penalty>
13.6896

> <i_epik_Tot_Q>
-1

> <i_epik_Tot_abs_Q>
1

> <r_epik_Metal_State_Penalty>
1.82322

> <b_epik_Metal_Only>
1

> <s_lp_Force_Field>
OPLS_2005

> <r_lp_Energy>
3.95886

> <b_lp_Chiralities_Consistent>
1

> <s_lp_Variant>
AV-unprocessed.smi:2751-9

> <Gold.Version>
5.8.1

> <Gold.Id.Protein>
6NUR|6NUR_protein|mol2

> <Gold.PLP.Fitness>
41.6427

> <Gold.PLP.PLP>
-34.3864

> <Gold.PLP.part.hbond>
-1.4109

> <Gold.PLP.part.metal>
0.0000

> <Gold.PLP.part.buried>
-4.7022

> <Gold.PLP.part.nonpolar>
-28.9015

> <Gold.PLP.part.repulsive>
0.6033

> <Gold.PLP.ligand.clash>
0.0000

> <Gold.PLP.ligand.torsion>
0.8667

> <Gold.PLP.Chemscore.Hbond>
0.9920

> <Gold.PLP.Chemscore.CHOScore>
2.0000

> <Gold.PLP.Chemscore.Metal>
0.0000

> <Gold.Chemscore.Hbonds>
donor molecule, donor type, donor heavy atom, donor atom, acceptor molecule, acceptor atom, score
      P1  H  7989  7998       L1     1  0.96
      L1  C    15    32       P1 10175  0.81
      L1  C    16    33       P1  7948  1.00

> <Gold.PLP.Chemscore.Internal.Correction>
0.0136

> <Gold.Rescore>
     Score         DG    S(hbond)    S(metal)    S(lipo)     H(rot)  DE(clash)    DE(int)     intcor
     10.61     -14.13       0.87        0.00      84.12       1.60       0.00       3.52       ----

> <Gold.Chemscore.Fitness>
10.6132

> <Gold.Chemscore.DG>
-14.1308

> <Gold.Chemscore.ZeroCoef>
-5.4800

> <Gold.Chemscore.Hbond>
0.8734

> <Gold.Chemscore.Metal>
0.0000

> <Gold.Chemscore.Lipo>
84.1179

> <Gold.Chemscore.Internal_Hbond>
0.0000

> <Gold.Chemscore.DEClash>
0.0015

> <Gold.Chemscore.DEInternal>
3.5161

> <Gold.Chemscore.Rot>
1.6048

> <Gold.Chemscore.Internal.Correction>
   9.000000E+99

> <Gold.Chemscore.Hbonds>
donor molecule, donor type, donor heavy atom, donor atom, acceptor molecule, acceptor atom, score
      P1  H  7989  7998       L1     1  0.28

> <Gold.Chemscore.Hbond.Weighted>
-2.9172

> <Gold.Chemscore.Metal.Weighted>
-0.0000

> <Gold.Chemscore.Lipo.Weighted>
-9.8418

> <Gold.Chemscore.Internal_Hbond.Weighted>
0.0000

> <Gold.Chemscore.DEClash.Weighted>
0.0015

> <Gold.Chemscore.DEInternal.Weighted>
3.5161

> <Gold.Chemscore.Rot.Weighted>
4.1082

> <Gold.Chemscore.Internal.Correction.Weighted>
   9.000000E+99

> <Gold.Protein.RotatedTorsions>
[ 6907 6896 6895 6894 ] final  128.95 input  -60.11 | X-H torsion
[ 7974 7965 7964 7962 ] final   68.52 input  175.53 | X-H torsion
[ 8008 7997 7996 7995 ] final  152.82 input   59.86 | X-H torsion
[ 10167 10162 10161 10158 ] final    5.20 input  -65.29 | X-H torsion
[ 10718 10713 10712 10709 ] final   49.66 input   66.30 | X-H torsion
[ 10763 10752 10751 10750 ] final  -20.77 input  -60.55 | X-H torsion
[ 11005 11000 10999 10996 ] final  -36.57 input  -57.11 | X-H torsion

> <Gold.Protein.ActiveResidues>
 VAL166  LYS551  ARG553  GLY616  TRP617  ASP618  TYR619  PRO620  LYS621  CYS622 
 ASP623  PHE694  ASN695  SER759  ASP760  ASP761  ALA762  ILE779  LEU786  VAL792 
 PHE793  MET794  SER795  GLU796  ALA797  LYS798  CYS799  TRP800  GLU811  SER814 

> <Gold.Protein.RotatedAtoms>
  152.3671  133.6370  159.6058 H   0  0  0  0  0  0  0  0  0  0  0  0  # atno 6907 bound_to 6896
  150.7642  133.9330  159.3442 H   0  0  0  0  0  0  0  0  0  0  0  0  # atno 6908 bound_to 6896
  151.7159  135.0905  160.0327 H   0  0  0  0  0  0  0  0  0  0  0  0  # atno 6909 bound_to 6896
  145.8016  139.2985  143.1151 H   0  0  0  0  0  0  0  0  0  0  0  0  # atno 7974 bound_to 7965
  156.2611  140.2010  156.6393 H   0  0  0  0  0  0  0  0  0  0  0  0  # atno 8008 bound_to 7997
  154.6622  140.0559  157.0099 H   0  0  0  0  0  0  0  0  0  0  0  0  # atno 8009 bound_to 7997
  155.1260  140.3229  155.4488 H   0  0  0  0  0  0  0  0  0  0  0  0  # atno 8010 bound_to 7997
  140.6495  143.7581  150.7551 H   0  0  0  0  0  0  0  0  0  0  0  0  # atno 10167 bound_to 10162
  157.4808  130.8314  149.8091 H   0  0  0  0  0  0  0  0  0  0  0  0  # atno 10718 bound_to 10713
  153.6257  135.6991  153.5294 H   0  0  0  0  0  0  0  0  0  0  0  0  # atno 10763 bound_to 10752
  153.2901  135.4159  155.1158 H   0  0  0  0  0  0  0  0  0  0  0  0  # atno 10764 bound_to 10752
  154.8533  135.3623  154.5799 H   0  0  0  0  0  0  0  0  0  0  0  0  # atno 10765 bound_to 10752
  140.9885  133.7017  156.1808 H   0  0  0  0  0  0  0  0  0  0  0  0  # atno 11005 bound_to 11000
  145.9871  140.8634  143.0085 LP  0  0  0  0  0  0  0  0  0  0  0  0  # atno 17320 bound_to 7965
  144.6768  140.2163  143.7371 LP  0  0  0  0  0  0  0  0  0  0  0  0  # atno 17321 bound_to 7965
  140.1228  143.4596  152.2302 LP  0  0  0  0  0  0  0  0  0  0  0  0  # atno 17342 bound_to 10162
  139.5708  144.7461  151.3896 LP  0  0  0  0  0  0  0  0  0  0  0  0  # atno 17343 bound_to 10162
  156.0121  130.3829  150.2231 LP  0  0  0  0  0  0  0  0  0  0  0  0  # atno 17370 bound_to 10713
  157.0417  131.0037  151.3281 LP  0  0  0  0  0  0  0  0  0  0  0  0  # atno 17371 bound_to 10713
  140.7077  134.4496  157.5583 LP  0  0  0  0  0  0  0  0  0  0  0  0  # atno 17394 bound_to 11000
  139.8981  134.8620  156.2014 LP  0  0  0  0  0  0  0  0  0  0  0  0  # atno 17395 bound_to 11000

$$$$
