AV-unprocessed.smi:1681|AV-procd|sdf|6742|dock9
  -GOLD-   22720 7493D 1   1.00000     0.00000
 Structure written by MMmdl.
 40 41  0  0  0  0  0  0  0  0  1 V2000
  151.0533  137.7557  154.3852 C   0  0  0  0  0  0  0  0  0  0  0  0
  150.7122  139.2153  154.6928 C   0  0  0  0  0  0  0  0  0  0  0  0
  151.6391  140.0224  154.7664 O   0  0  0  0  0  0  0  0  0  0  0  0
  149.4172  139.5686  154.8769 N   0  0  0  0  0  0  0  0  0  0  0  0
  148.9331  140.9374  155.0986 C   0  0  0  0  0  0  0  0  0  0  0  0
  148.1910  141.4078  153.8348 C   0  0  0  0  0  0  0  0  0  0  0  0
  147.0508  140.4370  153.4717 C   0  0  0  0  0  0  0  0  0  0  0  0
  147.5418  138.9707  153.4172 C   0  0  2  0  0  0  0  0  0  0  0  0
  146.3744  138.0010  153.1895 C   0  0  0  0  0  0  0  0  0  0  0  0
  145.3784  138.0623  153.9110 O   0  0  0  0  0  0  0  0  0  0  0  0
  146.5297  137.1206  152.1846 N   0  0  0  0  0  0  0  0  0  0  0  0
  145.6144  136.1259  151.7576 C   0  0  0  0  0  0  0  0  0  0  0  0
  144.3133  135.9406  152.2928 C   0  0  0  0  0  0  0  0  0  0  0  0
  143.6923  134.9304  151.7034 N   0  0  0  0  0  0  0  0  0  0  0  0
  144.5780  134.4555  150.7918 N   0  0  0  0  0  0  0  0  0  0  0  0
  144.2198  133.3159  149.9661 C   0  0  0  0  0  0  0  0  0  0  0  0
  145.1682  132.1382  150.2014 C   0  0  0  0  0  0  0  0  0  0  0  0
  146.4514  132.3102  149.8714 N   0  0  0  0  0  0  0  0  0  0  0  0
  144.7468  131.0831  150.6704 O   0  0  0  0  0  0  0  0  0  0  0  0
  145.7622  135.1668  150.7960 C   0  0  0  0  0  0  0  0  0  0  0  0
  148.3069  138.6216  154.7139 C   0  0  0  0  0  0  0  0  0  0  0  0
  150.7004  137.0992  155.1813 H   0  0  0  0  0  0  0  0  0  0  0  0
  152.1325  137.6232  154.3003 H   0  0  0  0  0  0  0  0  0  0  0  0
  150.6039  137.4446  153.4419 H   0  0  0  0  0  0  0  0  0  0  0  0
  148.2535  140.9425  155.9522 H   0  0  0  0  0  0  0  0  0  0  0  0
  149.7211  141.6448  155.3525 H   0  0  0  0  0  0  0  0  0  0  0  0
  147.7923  142.4116  153.9845 H   0  0  0  0  0  0  0  0  0  0  0  0
  148.8942  141.4741  153.0035 H   0  0  0  0  0  0  0  0  0  0  0  0
  146.2587  140.5370  154.2156 H   0  0  0  0  0  0  0  0  0  0  0  0
  146.6119  140.7253  152.5156 H   0  0  0  0  0  0  0  0  0  0  0  0
  148.2366  138.8771  152.5799 H   0  0  0  0  0  0  0  0  0  0  0  0
  147.3972  137.1699  151.6701 H   0  0  0  0  0  0  0  0  0  0  0  0
  143.8096  136.4913  153.0735 H   0  0  0  0  0  0  0  0  0  0  0  0
  143.1923  133.0207  150.1853 H   0  0  0  0  0  0  0  0  0  0  0  0
  144.2499  133.6143  148.9172 H   0  0  0  0  0  0  0  0  0  0  0  0
  147.1128  131.5588  150.0033 H   0  0  0  0  0  0  0  0  0  0  0  0
  146.7538  133.1925  149.4846 H   0  0  0  0  0  0  0  0  0  0  0  0
  146.5791  134.9226  150.1335 H   0  0  0  0  0  0  0  0  0  0  0  0
  148.6445  137.5841  154.6865 H   0  0  0  0  0  0  0  0  0  0  0  0
  147.6485  138.6935  155.5814 H   0  0  0  0  0  0  0  0  0  0  0  0
  1  2  1  0  0  0  0
  1 22  1  0  0  0  0
  1 23  1  0  0  0  0
  1 24  1  0  0  0  0
  2  3  2  0  0  0  0
  2  4  1  0  0  0  0
  4 21  1  0  0  0  0
  4  5  1  0  0  0  0
  5  6  1  0  0  0  0
  5 25  1  0  0  0  0
  5 26  1  0  0  0  0
  6  7  1  0  0  0  0
  6 27  1  0  0  0  0
  6 28  1  0  0  0  0
  7  8  1  0  0  0  0
  7 29  1  0  0  0  0
  7 30  1  0  0  0  0
  8  9  1  0  0  0  0
  8 21  1  0  0  0  0
  8 31  1  0  0  0  0
  9 10  2  0  0  0  0
  9 11  1  0  0  0  0
 11 12  1  0  0  0  0
 11 32  1  0  0  0  0
 12 20  2  0  0  0  0
 12 13  1  0  0  0  0
 13 14  2  0  0  0  0
 13 33  1  0  0  0  0
 14 15  1  0  0  0  0
 15 16  1  0  0  0  0
 15 20  1  0  0  0  0
 16 17  1  0  0  0  0
 16 34  1  0  0  0  0
 16 35  1  0  0  0  0
 17 18  1  0  0  0  0
 17 19  2  0  0  0  0
 18 36  1  0  0  0  0
 18 37  1  0  0  0  0
 20 38  1  0  0  0  0
 21 39  1  0  0  0  0
 21 40  1  0  0  0  0
M  END
> <s_m_source_file>
AV-unprocessed.smi

> <i_m_source_file_index>
1681

> <i_lp_mmshare_version>
43012

> <i_f3d_flags>
0

> <s_epik_input>
W0NIM11DKD1PKU4xW0NIMl1bQ0gyXVtDSDJdW0NASF0oW0NIMl0xKUMoPU8pW05IXWMyW2NIXW5uKFtjSF0yKVtDSDJdQyg9TylbTkgyXQ==

> <s_epik_cmdline>
J2VwaWtfcHl0aG9uJywgJy1waCcsICc3LjAnLCAnLXRuJywgJzgnLCAnLW1hJywgJzIwMCcsICctbWV0YWxfYmluZGluZycsICctaW1hZScsICc8aW5maWxlLm1hZT4nLCAnLW9tYWUnLCAnPG91dGZpbGUubWFlPic=

> <r_lp_tautomer_probability>
1

> <r_epik_Ionization_Penalty>
6.05275e-06

> <r_epik_Ionization_Penalty_Charging>
0

> <r_epik_Ionization_Penalty_Neutral>
6.05275e-06

> <r_epik_State_Penalty>
-0

> <r_epik_Charging_Adjusted_Penalty>
0

> <i_epik_Tot_Q>
0

> <i_epik_Tot_abs_Q>
0

> <r_epik_Metal_State_Penalty>
-0

> <b_epik_Metal_Only>
0

> <s_lp_Force_Field>
OPLS_2005

> <r_lp_Energy>
29.5866

> <b_lp_Chiralities_Consistent>
1

> <s_lp_Variant>
AV-unprocessed.smi:1681-2

> <Gold.Version>
5.8.1

> <Gold.Id.Protein>
6NUR|6NUR_protein|mol2

> <Gold.PLP.Fitness>
47.8691

> <Gold.PLP.PLP>
-38.1388

> <Gold.PLP.part.hbond>
-3.2863

> <Gold.PLP.part.metal>
0.0000

> <Gold.PLP.part.buried>
-5.3344

> <Gold.PLP.part.nonpolar>
-30.5563

> <Gold.PLP.part.repulsive>
0.7408

> <Gold.PLP.ligand.clash>
0.0000

> <Gold.PLP.ligand.torsion>
0.2191

> <Gold.PLP.Chemscore.Hbond>
2.6633

> <Gold.PLP.Chemscore.CHOScore>
0.7181

> <Gold.PLP.Chemscore.Metal>
0.0000

> <Gold.Chemscore.Hbonds>
donor molecule, donor type, donor heavy atom, donor atom, acceptor molecule, acceptor atom, score
      L1  H    11    32       P1  7948  0.64
      L1  H    18    36       P1 10747  1.00
      P1  H  7989  7998       L1     3  0.98
      L1  C    20    38       P1  7921  0.71

> <Gold.PLP.Chemscore.Internal.Correction>
0.0244

> <Gold.Rescore>
     Score         DG    S(hbond)    S(metal)    S(lipo)     H(rot)  DE(clash)    DE(int)     intcor
     14.47     -15.93       2.51        0.00      60.61       1.96       0.00       1.46       ----

> <Gold.Chemscore.Fitness>
14.4653

> <Gold.Chemscore.DG>
-15.9302

> <Gold.Chemscore.ZeroCoef>
-5.4800

> <Gold.Chemscore.Hbond>
2.5093

> <Gold.Chemscore.Metal>
0.0000

> <Gold.Chemscore.Lipo>
60.6094

> <Gold.Chemscore.Internal_Hbond>
0.0000

> <Gold.Chemscore.DEClash>
0.0000

> <Gold.Chemscore.DEInternal>
1.4649

> <Gold.Chemscore.Rot>
1.9617

> <Gold.Chemscore.Internal.Correction>
   9.000000E+99

> <Gold.Chemscore.Hbonds>
donor molecule, donor type, donor heavy atom, donor atom, acceptor molecule, acceptor atom, score
      L1  H    11    32       P1  7948  0.64
      L1  H    18    36       P1 10747  0.93
      P1  H  7989  7998       L1     3  0.62

> <Gold.Chemscore.Hbond.Weighted>
-8.3809

> <Gold.Chemscore.Metal.Weighted>
-0.0000

> <Gold.Chemscore.Lipo.Weighted>
-7.0913

> <Gold.Chemscore.Internal_Hbond.Weighted>
0.0000

> <Gold.Chemscore.DEClash.Weighted>
0.0000

> <Gold.Chemscore.DEInternal.Weighted>
1.4649

> <Gold.Chemscore.Rot.Weighted>
5.0220

> <Gold.Chemscore.Internal.Correction.Weighted>
   9.000000E+99

> <Gold.Protein.RotatedTorsions>
[ 6907 6896 6895 6894 ] final  -89.62 input  -60.11 | X-H torsion
[ 7974 7965 7964 7962 ] final  159.55 input  175.53 | X-H torsion
[ 8008 7997 7996 7995 ] final -145.60 input   59.86 | X-H torsion
[ 10167 10162 10161 10158 ] final  -58.13 input  -65.29 | X-H torsion
[ 10718 10713 10712 10709 ] final   92.76 input   66.30 | X-H torsion
[ 10763 10752 10751 10750 ] final -127.84 input  -60.55 | X-H torsion
[ 11005 11000 10999 10996 ] final  103.11 input  -57.11 | X-H torsion

> <Gold.Protein.ActiveResidues>
 VAL166  LYS551  ARG553  GLY616  TRP617  ASP618  TYR619  PRO620  LYS621  CYS622 
 ASP623  PHE694  ASN695  SER759  ASP760  ASP761  ALA762  ILE779  LEU786  VAL792 
 PHE793  MET794  SER795  GLU796  ALA797  LYS798  CYS799  TRP800  GLU811  SER814 

> <Gold.Protein.RotatedAtoms>
  150.6875  134.2559  159.4529 H   0  0  0  0  0  0  0  0  0  0  0  0  # atno 6907 bound_to 6896
  152.0493  134.9661  160.0584 H   0  0  0  0  0  0  0  0  0  0  0  0  # atno 6908 bound_to 6896
  152.1132  133.4277  159.4677 H   0  0  0  0  0  0  0  0  0  0  0  0  # atno 6909 bound_to 6896
  144.7784  139.7633  143.6269 H   0  0  0  0  0  0  0  0  0  0  0  0  # atno 7974 bound_to 7965
  155.5458  140.0612  157.2860 H   0  0  0  0  0  0  0  0  0  0  0  0  # atno 8008 bound_to 7997
  154.4437  140.1911  156.0681 H   0  0  0  0  0  0  0  0  0  0  0  0  # atno 8009 bound_to 7997
  156.0551  140.3279  155.7400 H   0  0  0  0  0  0  0  0  0  0  0  0  # atno 8010 bound_to 7997
  140.6216  143.2422  151.5467 H   0  0  0  0  0  0  0  0  0  0  0  0  # atno 10167 bound_to 10162
  157.6957  131.0455  150.3931 H   0  0  0  0  0  0  0  0  0  0  0  0  # atno 10718 bound_to 10713
  154.8754  135.3948  154.3660 H   0  0  0  0  0  0  0  0  0  0  0  0  # atno 10763 bound_to 10752
  153.4426  135.7027  153.6164 H   0  0  0  0  0  0  0  0  0  0  0  0  # atno 10764 bound_to 10752
  153.4739  135.3784  155.2375 H   0  0  0  0  0  0  0  0  0  0  0  0  # atno 10765 bound_to 10752
  139.8781  134.9250  156.5160 H   0  0  0  0  0  0  0  0  0  0  0  0  # atno 11005 bound_to 11000
  146.1978  139.5254  142.9763 LP  0  0  0  0  0  0  0  0  0  0  0  0  # atno 17320 bound_to 7965
  145.6120  141.0338  143.1961 LP  0  0  0  0  0  0  0  0  0  0  0  0  # atno 17321 bound_to 7965
  139.5443  144.2562  152.1413 LP  0  0  0  0  0  0  0  0  0  0  0  0  # atno 17342 bound_to 10162
  140.1784  144.4869  150.6542 LP  0  0  0  0  0  0  0  0  0  0  0  0  # atno 17343 bound_to 10162
  156.4333  130.3976  149.6746 LP  0  0  0  0  0  0  0  0  0  0  0  0  # atno 17370 bound_to 10713
  156.3955  130.7649  151.2653 LP  0  0  0  0  0  0  0  0  0  0  0  0  # atno 17371 bound_to 10713
  140.8486  133.8150  155.9145 LP  0  0  0  0  0  0  0  0  0  0  0  0  # atno 17394 bound_to 11000
  140.9167  134.2193  157.4952 LP  0  0  0  0  0  0  0  0  0  0  0  0  # atno 17395 bound_to 11000

$$$$
