AV-unprocessed.smi:1048|AV-procd|sdf|4605|dock10
  -GOLD-   22720 3103D 1   1.00000     0.00000
 Structure written by MMmdl.
 46 47  0  0  0  0  0  0  0  0  2 V2000
  146.8510  132.2551  152.8504 C   0  0  0  0  0  0  0  0  0  0  0  0
  147.5722  133.1562  153.8628 C   0  0  2  0  0  0  0  0  0  0  0  0
  147.0216  134.5922  153.8408 C   0  0  0  0  0  0  0  0  0  0  0  0
  147.7750  135.4963  154.8307 C   0  0  0  0  0  0  0  0  0  0  0  0
  149.2329  135.4984  154.5479 N   0  3  1  0  0  0  0  0  0  0  0  0
  149.9735  136.4780  155.3845 C   0  0  0  0  0  0  0  0  0  0  0  0
  151.2126  137.0463  154.6630 C   0  0  1  0  0  0  0  0  0  0  0  0
  150.7503  137.9906  153.7162 O   0  0  0  0  0  0  0  0  0  0  0  0
  152.1670  137.7561  155.6444 C   0  0  0  0  0  0  0  0  0  0  0  0
  151.7389  139.1225  155.9257 N   0  0  0  0  0  0  0  0  0  0  0  0
  152.1591  139.8618  156.9618 C   0  0  0  0  0  0  0  0  0  0  0  0
  152.9696  139.4592  157.7960 O   0  0  0  0  0  0  0  0  0  0  0  0
  151.5664  141.0681  156.9685 N   0  0  0  0  0  0  0  0  0  0  0  0
  151.7326  142.1329  157.8952 C   0  0  0  0  0  0  0  0  0  0  0  0
  152.3972  141.8548  159.1073 C   0  0  0  0  0  0  0  0  0  0  0  0
  152.5626  142.8847  160.0525 C   0  0  0  0  0  0  0  0  0  0  0  0
  152.0458  144.1592  159.7506 C   0  0  0  0  0  0  0  0  0  0  0  0
  151.3942  144.4403  158.6028 N   0  0  0  0  0  0  0  0  0  0  0  0
  151.2407  143.4478  157.6997 C   0  0  0  0  0  0  0  0  0  0  0  0
  149.8001  134.1251  154.6064 C   0  0  0  0  0  0  0  0  0  0  0  0
  149.0897  133.1901  153.6131 C   0  0  0  0  0  0  0  0  0  0  0  0
  146.9822  132.6189  151.8308 H   0  0  0  0  0  0  0  0  0  0  0  0
  145.7803  132.2145  153.0529 H   0  0  0  0  0  0  0  0  0  0  0  0
  147.2330  131.2346  152.8908 H   0  0  0  0  0  0  0  0  0  0  0  0
  147.4005  132.7414  154.8574 H   0  0  0  0  0  0  0  0  0  0  0  0
  147.1063  135.0063  152.8349 H   0  0  0  0  0  0  0  0  0  0  0  0
  145.9585  134.5887  154.0839 H   0  0  0  0  0  0  0  0  0  0  0  0
  147.3825  136.5111  154.7538 H   0  0  0  0  0  0  0  0  0  0  0  0
  147.6016  135.1646  155.8557 H   0  0  0  0  0  0  0  0  0  0  0  0
  149.3187  137.3083  155.6544 H   0  0  0  0  0  0  0  0  0  0  0  0
  150.2573  136.0021  156.3245 H   0  0  0  0  0  0  0  0  0  0  0  0
  151.7485  136.2512  154.1450 H   0  0  0  0  0  0  0  0  0  0  0  0
  151.0394  137.7262  152.8556 H   0  0  0  0  0  0  0  0  0  0  0  0
  152.3034  137.1790  156.5610 H   0  0  0  0  0  0  0  0  0  0  0  0
  153.1557  137.8385  155.1918 H   0  0  0  0  0  0  0  0  0  0  0  0
  151.0711  139.5326  155.2893 H   0  0  0  0  0  0  0  0  0  0  0  0
  150.8695  141.2229  156.2550 H   0  0  0  0  0  0  0  0  0  0  0  0
  152.7811  140.8657  159.3114 H   0  0  0  0  0  0  0  0  0  0  0  0
  153.0727  142.7020  160.9866 H   0  0  0  0  0  0  0  0  0  0  0  0
  152.1531  144.9731  160.4523 H   0  0  0  0  0  0  0  0  0  0  0  0
  150.6899  143.7283  156.8162 H   0  0  0  0  0  0  0  0  0  0  0  0
  150.8644  134.1423  154.3749 H   0  0  0  0  0  0  0  0  0  0  0  0
  149.7060  133.7339  155.6208 H   0  0  0  0  0  0  0  0  0  0  0  0
  149.5035  132.1846  153.6973 H   0  0  0  0  0  0  0  0  0  0  0  0
  149.2912  133.5223  152.5935 H   0  0  0  0  0  0  0  0  0  0  0  0
  149.3304  135.8178  153.5941 H   0  0  0  0  0  0  0  0  0  0  0  0
  1  2  1  0  0  0  0
  1 22  1  0  0  0  0
  1 23  1  0  0  0  0
  1 24  1  0  0  0  0
  2 21  1  0  0  0  0
  2  3  1  0  0  0  0
  2 25  1  0  0  0  0
  3  4  1  0  0  0  0
  3 26  1  0  0  0  0
  3 27  1  0  0  0  0
  4  5  1  0  0  0  0
  4 28  1  0  0  0  0
  4 29  1  0  0  0  0
  5  6  1  0  0  0  0
  5 20  1  0  0  0  0
  5 46  1  0  0  0  0
  6  7  1  0  0  0  0
  6 30  1  0  0  0  0
  6 31  1  0  0  0  0
  7  8  1  0  0  0  0
  7  9  1  0  0  0  0
  7 32  1  0  0  0  0
  8 33  1  0  0  0  0
  9 10  1  0  0  0  0
  9 34  1  0  0  0  0
  9 35  1  0  0  0  0
 10 11  1  0  0  0  0
 10 36  1  0  0  0  0
 11 12  2  0  0  0  0
 11 13  1  0  0  0  0
 13 14  1  0  0  0  0
 13 37  1  0  0  0  0
 14 19  1  0  0  0  0
 14 15  2  0  0  0  0
 15 16  1  0  0  0  0
 15 38  1  0  0  0  0
 16 17  2  0  0  0  0
 16 39  1  0  0  0  0
 17 18  1  0  0  0  0
 17 40  1  0  0  0  0
 18 19  2  0  0  0  0
 19 41  1  0  0  0  0
 20 21  1  0  0  0  0
 20 42  1  0  0  0  0
 20 43  1  0  0  0  0
 21 44  1  0  0  0  0
 21 45  1  0  0  0  0
M  CHG  1   5   1
M  END
> <s_m_source_file>
AV-unprocessed.smi

> <i_m_source_file_index>
1048

> <i_lp_mmshare_version>
43012

> <i_f3d_flags>
0

> <s_epik_input>
W0NIM11bQ0hdMVtDSDJdW0NIMl1OKFtDSDJdW0NIMl0xKVtDSDJdW0NASF0oW09IXSlbQ0gyXVtOSF1DKD1PKVtOSF1jMltjSF1bY0hdW2NIXW5bY0hdMg==

> <s_epik_cmdline>
J2VwaWtfcHl0aG9uJywgJy1waCcsICc3LjAnLCAnLXRuJywgJzgnLCAnLW1hJywgJzIwMCcsICctbWV0YWxfYmluZGluZycsICctaW1hZScsICc8aW5maWxlLm1hZT4nLCAnLW9tYWUnLCAnPG91dGZpbGUubWFlPic=

> <r_lp_tautomer_probability>
1

> <r_epik_Ionization_Penalty>
0.00581049

> <r_epik_Ionization_Penalty_Charging>
0.00147689

> <r_epik_Ionization_Penalty_Neutral>
0.0043336

> <r_epik_State_Penalty>
-0

> <r_epik_Charging_Adjusted_Penalty>
0.00147689

> <i_epik_Tot_Q>
1

> <i_epik_Tot_abs_Q>
1

> <r_epik_Metal_State_Penalty>
-0

> <b_epik_Metal_Only>
0

> <s_lp_Force_Field>
OPLS_2005

> <r_lp_Energy>
22.9407

> <b_lp_Chiralities_Consistent>
1

> <s_lp_Variant>
AV-unprocessed.smi:1048-2

> <Gold.Version>
5.8.1

> <Gold.Id.Protein>
6NUR|6NUR_protein|mol2

> <Gold.PLP.Fitness>
47.4178

> <Gold.PLP.PLP>
-35.5786

> <Gold.PLP.part.hbond>
-3.8895

> <Gold.PLP.part.metal>
0.0000

> <Gold.PLP.part.buried>
-3.8960

> <Gold.PLP.part.nonpolar>
-28.5287

> <Gold.PLP.part.repulsive>
0.3721

> <Gold.PLP.ligand.clash>
0.0000

> <Gold.PLP.ligand.torsion>
0.8331

> <Gold.PLP.Chemscore.Hbond>
3.4891

> <Gold.PLP.Chemscore.CHOScore>
1.0000

> <Gold.PLP.Chemscore.Metal>
0.0000

> <Gold.Chemscore.Hbonds>
donor molecule, donor type, donor heavy atom, donor atom, acceptor molecule, acceptor atom, score
      L1  H     5    46       P1  7948  2.00
      L1  H     8    33       P1  7949  0.48
      P1  H  7997  8010       L1    12  1.00
      L1  C    19    41       P1  8028  1.00

> <Gold.PLP.Chemscore.Internal.Correction>
0.0383

> <Gold.Rescore>
     Score         DG    S(hbond)    S(metal)    S(lipo)     H(rot)  DE(clash)    DE(int)     intcor
     14.84     -17.06       1.86        0.00      95.93       2.29       0.03       2.18       ----

> <Gold.Chemscore.Fitness>
14.8431

> <Gold.Chemscore.DG>
-17.0571

> <Gold.Chemscore.ZeroCoef>
-5.4800

> <Gold.Chemscore.Hbond>
1.8584

> <Gold.Chemscore.Metal>
0.0000

> <Gold.Chemscore.Lipo>
95.9290

> <Gold.Chemscore.Internal_Hbond>
0.0000

> <Gold.Chemscore.DEClash>
0.0331

> <Gold.Chemscore.DEInternal>
2.1809

> <Gold.Chemscore.Rot>
2.2865

> <Gold.Chemscore.Internal.Correction>
   9.000000E+99

> <Gold.Chemscore.Hbonds>
donor molecule, donor type, donor heavy atom, donor atom, acceptor molecule, acceptor atom, score
      L1  H     5    46       P1  7948  0.55
      L1  H     8    33       P1  7949  0.17
      P1  H  7997  8010       L1    12  0.43

> <Gold.Chemscore.Hbond.Weighted>
-6.2069

> <Gold.Chemscore.Metal.Weighted>
-0.0000

> <Gold.Chemscore.Lipo.Weighted>
-11.2237

> <Gold.Chemscore.Internal_Hbond.Weighted>
0.0000

> <Gold.Chemscore.DEClash.Weighted>
0.0331

> <Gold.Chemscore.DEInternal.Weighted>
2.1809

> <Gold.Chemscore.Rot.Weighted>
5.8536

> <Gold.Chemscore.Internal.Correction.Weighted>
   9.000000E+99

> <Gold.Protein.RotatedTorsions>
[ 6907 6896 6895 6894 ] final  -60.29 input  -60.11 | X-H torsion
[ 7974 7965 7964 7962 ] final  -94.40 input  175.53 | X-H torsion
[ 8008 7997 7996 7995 ] final   25.80 input   59.86 | X-H torsion
[ 10167 10162 10161 10158 ] final   56.29 input  -65.29 | X-H torsion
[ 10718 10713 10712 10709 ] final   51.89 input   66.30 | X-H torsion
[ 10763 10752 10751 10750 ] final  163.41 input  -60.55 | X-H torsion
[ 11005 11000 10999 10996 ] final -176.07 input  -57.11 | X-H torsion

> <Gold.Protein.ActiveResidues>
 VAL166  LYS551  ARG553  GLY616  TRP617  ASP618  TYR619  PRO620  LYS621  CYS622 
 ASP623  PHE694  ASN695  SER759  ASP760  ASP761  ALA762  ILE779  LEU786  VAL792 
 PHE793  MET794  SER795  GLU796  ALA797  LYS798  CYS799  TRP800  GLU811  SER814 

> <Gold.Protein.RotatedAtoms>
  150.7867  134.6857  159.6468 H   0  0  0  0  0  0  0  0  0  0  0  0  # atno 6907 bound_to 6896
  152.3964  134.6354  160.0096 H   0  0  0  0  0  0  0  0  0  0  0  0  # atno 6908 bound_to 6896
  151.6639  133.3279  159.3216 H   0  0  0  0  0  0  0  0  0  0  0  0  # atno 6909 bound_to 6896
  145.3738  140.9509  143.2432 H   0  0  0  0  0  0  0  0  0  0  0  0  # atno 7974 bound_to 7965
  155.0173  140.3143  155.4807 H   0  0  0  0  0  0  0  0  0  0  0  0  # atno 8008 bound_to 7997
  156.2898  140.2204  156.5232 H   0  0  0  0  0  0  0  0  0  0  0  0  # atno 8009 bound_to 7997
  154.7482  140.0468  157.0859 H   0  0  0  0  0  0  0  0  0  0  0  0  # atno 8010 bound_to 7997
  140.2103  144.3895  150.6491 H   0  0  0  0  0  0  0  0  0  0  0  0  # atno 10167 bound_to 10162
  157.5023  130.8446  149.8332 H   0  0  0  0  0  0  0  0  0  0  0  0  # atno 10718 bound_to 10713
  154.2932  135.2760  155.2645 H   0  0  0  0  0  0  0  0  0  0  0  0  # atno 10763 bound_to 10752
  154.5115  135.5781  153.6612 H   0  0  0  0  0  0  0  0  0  0  0  0  # atno 10764 bound_to 10752
  152.9911  135.6182  154.3098 H   0  0  0  0  0  0  0  0  0  0  0  0  # atno 10765 bound_to 10752
  140.4562  134.6297  157.4823 H   0  0  0  0  0  0  0  0  0  0  0  0  # atno 11005 bound_to 11000
  144.8557  139.5253  143.6835 LP  0  0  0  0  0  0  0  0  0  0  0  0  # atno 17320 bound_to 7965
  146.2873  139.7040  142.9186 LP  0  0  0  0  0  0  0  0  0  0  0  0  # atno 17321 bound_to 7965
  140.6328  143.2190  151.6459 LP  0  0  0  0  0  0  0  0  0  0  0  0  # atno 17342 bound_to 10162
  139.5182  144.3291  152.0843 LP  0  0  0  0  0  0  0  0  0  0  0  0  # atno 17343 bound_to 10162
  156.0237  130.3787  150.1887 LP  0  0  0  0  0  0  0  0  0  0  0  0  # atno 17370 bound_to 10713
  157.0076  130.9941  151.3374 LP  0  0  0  0  0  0  0  0  0  0  0  0  # atno 17371 bound_to 10713
  139.9975  134.6889  155.9586 LP  0  0  0  0  0  0  0  0  0  0  0  0  # atno 17394 bound_to 11000
  141.1642  133.6537  156.4422 LP  0  0  0  0  0  0  0  0  0  0  0  0  # atno 17395 bound_to 11000

$$$$
