AV-unprocessed.smi:528|AV-procd|sdf|2837|dock1
  -GOLD-   2262023323D 1   1.00000     0.00000
 Structure written by MMmdl.
 45 47  0  0  0  0  0  0  0  0  1 V2000
  145.2686  137.2416  158.6629 C   0  0  0  0  0  0  0  0  0  0  0  0
  146.5098  136.8640  159.4858 C   0  0  2  0  0  0  0  0  0  0  0  0
  147.5735  136.4598  158.5672 N   0  0  0  0  0  0  0  0  0  0  0  0
  148.7866  137.0247  158.4614 C   0  0  0  0  0  0  0  0  0  0  0  0
  149.1422  137.9968  159.1292 O   0  0  0  0  0  0  0  0  0  0  0  0
  149.7344  136.3779  157.4414 C   0  0  0  0  0  0  0  0  0  0  0  0
  150.3135  137.3452  156.4948 N   0  0  0  0  0  0  0  0  0  0  0  0
  149.7824  138.6497  156.5183 C   0  0  0  0  0  0  0  0  0  0  0  0
  150.1981  139.6260  155.6893 C   0  0  0  0  0  0  0  0  0  0  0  0
  149.6323  141.0352  155.7688 C   0  0  0  0  0  0  0  0  0  0  0  0
  150.5896  141.9242  156.0346 F   0  0  0  0  0  0  0  0  0  0  0  0
  149.0713  141.3641  154.6059 F   0  0  0  0  0  0  0  0  0  0  0  0
  148.7005  141.1261  156.7187 F   0  0  0  0  0  0  0  0  0  0  0  0
  151.2685  139.2822  154.7738 C   0  0  0  0  0  0  0  0  0  0  0  0
  151.7905  138.0403  154.7414 C   0  0  0  0  0  0  0  0  0  0  0  0
  151.3052  136.9803  155.6281 C   0  0  0  0  0  0  0  0  0  0  0  0
  151.7615  135.8373  155.5933 O   0  0  0  0  0  0  0  0  0  0  0  0
  146.2263  135.7210  160.4922 C   0  0  1  0  0  0  0  0  0  0  0  0
  147.4594  134.8800  160.8998 C   0  0  0  0  0  0  0  0  0  0  0  0
  147.3655  134.8455  162.4361 C   0  0  1  0  0  0  0  0  0  0  0  0
  147.7727  136.2216  162.9935 C   0  0  0  0  0  0  0  0  0  0  0  0
  146.5674  137.1047  162.6235 C   0  0  0  0  0  0  0  0  0  0  0  0
  145.6431  136.1262  161.8691 C   0  0  2  0  0  0  0  0  0  0  0  0
  145.8591  134.8444  162.6680 C   0  0  0  0  0  0  0  0  0  0  0  0
  144.4713  137.6248  159.3000 H   0  0  0  0  0  0  0  0  0  0  0  0
  144.8762  136.3830  158.1169 H   0  0  0  0  0  0  0  0  0  0  0  0
  145.5030  138.0199  157.9359 H   0  0  0  0  0  0  0  0  0  0  0  0
  146.8253  137.7537  160.0309 H   0  0  0  0  0  0  0  0  0  0  0  0
  147.3735  135.6700  157.9708 H   0  0  0  0  0  0  0  0  0  0  0  0
  150.5365  135.8680  157.9780 H   0  0  0  0  0  0  0  0  0  0  0  0
  149.1961  135.5857  156.9186 H   0  0  0  0  0  0  0  0  0  0  0  0
  149.0044  138.8032  157.2523 H   0  0  0  0  0  0  0  0  0  0  0  0
  151.6560  140.0313  154.0990 H   0  0  0  0  0  0  0  0  0  0  0  0
  152.5854  137.8191  154.0441 H   0  0  0  0  0  0  0  0  0  0  0  0
  145.5056  135.0472  160.0244 H   0  0  0  0  0  0  0  0  0  0  0  0
  147.3937  133.8764  160.4780 H   0  0  0  0  0  0  0  0  0  0  0  0
  148.4042  135.3134  160.5711 H   0  0  0  0  0  0  0  0  0  0  0  0
  147.9053  134.0135  162.8888 H   0  0  0  0  0  0  0  0  0  0  0  0
  147.9012  136.1824  164.0758 H   0  0  0  0  0  0  0  0  0  0  0  0
  148.7043  136.5858  162.5586 H   0  0  0  0  0  0  0  0  0  0  0  0
  146.0763  137.4670  163.5276 H   0  0  0  0  0  0  0  0  0  0  0  0
  146.8468  137.9798  162.0385 H   0  0  0  0  0  0  0  0  0  0  0  0
  144.6045  136.4554  161.8235 H   0  0  0  0  0  0  0  0  0  0  0  0
  145.3559  133.9747  162.2417 H   0  0  0  0  0  0  0  0  0  0  0  0
  145.5834  134.9362  163.7200 H   0  0  0  0  0  0  0  0  0  0  0  0
  1  2  1  0  0  0  0
  1 25  1  0  0  0  0
  1 26  1  0  0  0  0
  1 27  1  0  0  0  0
  2  3  1  0  0  0  0
  2 18  1  0  0  0  0
  2 28  1  0  0  0  0
  3  4  1  0  0  0  0
  3 29  1  0  0  0  0
  4  5  2  0  0  0  0
  4  6  1  0  0  0  0
  6  7  1  0  0  0  0
  6 30  1  0  0  0  0
  6 31  1  0  0  0  0
  7 16  1  0  0  0  0
  7  8  1  0  0  0  0
  8  9  2  0  0  0  0
  8 32  1  0  0  0  0
  9 10  1  0  0  0  0
  9 14  1  0  0  0  0
 10 11  1  0  0  0  0
 10 12  1  0  0  0  0
 10 13  1  0  0  0  0
 14 15  2  0  0  0  0
 14 33  1  0  0  0  0
 15 16  1  0  0  0  0
 15 34  1  0  0  0  0
 16 17  2  0  0  0  0
 18 23  1  0  0  0  0
 18 19  1  0  0  0  0
 18 35  1  0  0  0  0
 19 20  1  0  0  0  0
 19 36  1  0  0  0  0
 19 37  1  0  0  0  0
 20 24  1  0  0  0  0
 20 21  1  0  0  0  0
 20 38  1  0  0  0  0
 21 22  1  0  0  0  0
 21 39  1  0  0  0  0
 21 40  1  0  0  0  0
 22 23  1  0  0  0  0
 22 41  1  0  0  0  0
 22 42  1  0  0  0  0
 23 24  1  0  0  0  0
 23 43  1  0  0  0  0
 24 44  1  0  0  0  0
 24 45  1  0  0  0  0
M  END
> <s_m_source_file>
AV-unprocessed.smi

> <i_m_source_file_index>
528

> <i_lp_mmshare_version>
43012

> <i_f3d_flags>
0

> <s_epik_input>
W0NIMl0xW0NIMl1bQ0BASF0oW0NIMl0yKVtDQEBIXShbQ0gyXVtDQEhdMTIpW0NASF0oW0NIM10pW05IXUMoPU8pW0NIMl1uM1tjSF1jKEMoRikoRilGKVtjSF1bY0hdYzM9Tw==

> <s_epik_cmdline>
J2VwaWtfcHl0aG9uJywgJy1waCcsICc3LjAnLCAnLXRuJywgJzgnLCAnLW1hJywgJzIwMCcsICctbWV0YWxfYmluZGluZycsICctaW1hZScsICc8aW5maWxlLm1hZT4nLCAnLW9tYWUnLCAnPG91dGZpbGUubWFlPic=

> <r_lp_tautomer_probability>
1

> <r_epik_Ionization_Penalty>
4.09479e-08

> <r_epik_Ionization_Penalty_Charging>
1.9321e-08

> <r_epik_Ionization_Penalty_Neutral>
2.16269e-08

> <r_epik_State_Penalty>
-0

> <r_epik_Charging_Adjusted_Penalty>
1.9321e-08

> <i_epik_Tot_Q>
0

> <i_epik_Tot_abs_Q>
0

> <r_epik_Metal_State_Penalty>
-0

> <b_epik_Metal_Only>
0

> <s_lp_Force_Field>
OPLS_2005

> <r_lp_Energy>
63.2054

> <b_lp_Chiralities_Consistent>
1

> <s_lp_Variant>
AV-unprocessed.smi:528-7

> <Gold.Version>
5.8.1

> <Gold.Id.Protein>
6NUR|6NUR_protein|mol2

> <Gold.PLP.Fitness>
39.4504

> <Gold.PLP.PLP>
-40.4251

> <Gold.PLP.part.hbond>
-2.5651

> <Gold.PLP.part.metal>
0.0000

> <Gold.PLP.part.buried>
-3.6135

> <Gold.PLP.part.nonpolar>
-35.3329

> <Gold.PLP.part.repulsive>
0.0989

> <Gold.PLP.ligand.clash>
2.4739

> <Gold.PLP.ligand.torsion>
0.7560

> <Gold.PLP.Chemscore.Hbond>
0.9760

> <Gold.PLP.Chemscore.CHOScore>
0.0000

> <Gold.PLP.Chemscore.Metal>
0.0000

> <Gold.Chemscore.Hbonds>
donor molecule, donor type, donor heavy atom, donor atom, acceptor molecule, acceptor atom, score
      P1  H 10752 10765       L1    17  0.69

> <Gold.PLP.Chemscore.Internal.Correction>
0.0832

> <Gold.Rescore>
     Score         DG    S(hbond)    S(metal)    S(lipo)     H(rot)  DE(clash)    DE(int)     intcor
     13.14     -15.18       0.94        0.00      93.42       1.71       0.09       1.95       ----

> <Gold.Chemscore.Fitness>
13.1411

> <Gold.Chemscore.DG>
-15.1820

> <Gold.Chemscore.ZeroCoef>
-5.4800

> <Gold.Chemscore.Hbond>
0.9447

> <Gold.Chemscore.Metal>
0.0000

> <Gold.Chemscore.Lipo>
93.4250

> <Gold.Chemscore.Internal_Hbond>
0.0000

> <Gold.Chemscore.DEClash>
0.0867

> <Gold.Chemscore.DEInternal>
1.9541

> <Gold.Chemscore.Rot>
1.7125

> <Gold.Chemscore.Internal.Correction>
   9.000000E+99

> <Gold.Chemscore.Hbonds>
donor molecule, donor type, donor heavy atom, donor atom, acceptor molecule, acceptor atom, score
      P1  H 10752 10765       L1    17  0.68

> <Gold.Chemscore.Hbond.Weighted>
-3.1552

> <Gold.Chemscore.Metal.Weighted>
-0.0000

> <Gold.Chemscore.Lipo.Weighted>
-10.9307

> <Gold.Chemscore.Internal_Hbond.Weighted>
0.0000

> <Gold.Chemscore.DEClash.Weighted>
0.0867

> <Gold.Chemscore.DEInternal.Weighted>
1.9541

> <Gold.Chemscore.Rot.Weighted>
4.3840

> <Gold.Chemscore.Internal.Correction.Weighted>
   9.000000E+99

> <Gold.Protein.RotatedTorsions>
[ 6907 6896 6895 6894 ] final  -77.49 input  -60.11 | X-H torsion
[ 7974 7965 7964 7962 ] final  -53.07 input  175.53 | X-H torsion
[ 8008 7997 7996 7995 ] final   33.10 input   59.86 | X-H torsion
[ 10167 10162 10161 10158 ] final  -55.37 input  -65.29 | X-H torsion
[ 10718 10713 10712 10709 ] final    1.69 input   66.30 | X-H torsion
[ 10763 10752 10751 10750 ] final -132.40 input  -60.55 | X-H torsion
[ 11005 11000 10999 10996 ] final -114.01 input  -57.11 | X-H torsion

> <Gold.Protein.ActiveResidues>
 VAL166  LYS551  ARG553  GLY616  TRP617  ASP618  TYR619  PRO620  LYS621  CYS622 
 ASP623  PHE694  ASN695  SER759  ASP760  ASP761  ALA762  ILE779  LEU786  VAL792 
 PHE793  MET794  SER795  GLU796  ALA797  LYS798  CYS799  TRP800  GLU811  SER814 

> <Gold.Protein.RotatedAtoms>
  150.6997  134.4414  159.5293 H   0  0  0  0  0  0  0  0  0  0  0  0  # atno 6907 bound_to 6896
  152.2123  134.8487  160.0505 H   0  0  0  0  0  0  0  0  0  0  0  0  # atno 6908 bound_to 6896
  151.9367  133.3591  159.3987 H   0  0  0  0  0  0  0  0  0  0  0  0  # atno 6909 bound_to 6896
  145.9010  140.7994  142.9743 H   0  0  0  0  0  0  0  0  0  0  0  0  # atno 7974 bound_to 7965
  155.1331  140.3259  155.4469 H   0  0  0  0  0  0  0  0  0  0  0  0  # atno 8008 bound_to 7997
  156.2628  140.2007  156.6399 H   0  0  0  0  0  0  0  0  0  0  0  0  # atno 8009 bound_to 7997
  154.6597  140.0548  157.0035 H   0  0  0  0  0  0  0  0  0  0  0  0  # atno 8010 bound_to 7997
  140.6378  143.2491  151.5071 H   0  0  0  0  0  0  0  0  0  0  0  0  # atno 10167 bound_to 10162
  156.8519  130.5556  149.5669 H   0  0  0  0  0  0  0  0  0  0  0  0  # atno 10718 bound_to 10713
  154.8743  135.3799  154.4404 H   0  0  0  0  0  0  0  0  0  0  0  0  # atno 10763 bound_to 10752
  153.5089  135.7030  153.5796 H   0  0  0  0  0  0  0  0  0  0  0  0  # atno 10764 bound_to 10752
  153.4094  135.3928  155.2007 H   0  0  0  0  0  0  0  0  0  0  0  0  # atno 10765 bound_to 10752
  141.0578  133.9584  157.2721 H   0  0  0  0  0  0  0  0  0  0  0  0  # atno 11005 bound_to 11000
  144.6736  140.1676  143.7417 LP  0  0  0  0  0  0  0  0  0  0  0  0  # atno 17320 bound_to 7965
  145.8791  139.2313  143.1616 LP  0  0  0  0  0  0  0  0  0  0  0  0  # atno 17321 bound_to 7965
  139.5588  144.2208  152.1657 LP  0  0  0  0  0  0  0  0  0  0  0  0  # atno 17342 bound_to 10162
  140.1470  144.5150  150.6710 LP  0  0  0  0  0  0  0  0  0  0  0  0  # atno 17343 bound_to 10162
  156.0823  130.5831  150.9586 LP  0  0  0  0  0  0  0  0  0  0  0  0  # atno 17370 bound_to 10713
  157.6298  131.0922  150.8462 LP  0  0  0  0  0  0  0  0  0  0  0  0  # atno 17371 bound_to 10713
  139.9406  135.0191  156.8695 LP  0  0  0  0  0  0  0  0  0  0  0  0  # atno 17394 bound_to 11000
  140.5928  134.0245  155.7506 LP  0  0  0  0  0  0  0  0  0  0  0  0  # atno 17395 bound_to 11000

$$$$
