AV-unprocessed.smi:3112|AV-procd|sdf|11839|dock1
  -GOLD-   2272017213D 1   1.00000     0.00000
 Structure written by MMmdl.
 37 37  0  0  0  0  0  0  0  0  2 V2000
  147.0581  139.9950  154.5981 C   0  0  0  0  0  0  0  0  0  0  0  0
  147.7482  139.2948  153.4193 C   0  0  0  0  0  0  0  0  0  0  0  0
  146.7694  138.8260  152.3272 C   0  0  1  0  0  0  0  0  0  0  0  0
  147.5098  138.4109  151.1958 O   0  0  0  0  0  0  0  0  0  0  0  0
  145.9064  137.6440  152.7985 C   0  0  0  0  0  0  0  0  0  0  0  0
  146.7177  136.4176  152.9473 N   0  3  0  0  0  0  0  0  0  0  0  0
  145.9851  135.1443  152.7552 C   0  0  1  0  0  0  0  0  0  0  0  0
  144.9857  134.9607  153.9092 C   0  0  0  0  0  0  0  0  0  0  0  0
  145.2966  135.0723  151.3640 C   0  0  2  0  0  0  0  0  0  0  0  0
  143.9308  135.7813  151.3086 C   0  0  0  0  0  0  0  0  0  0  0  0
  145.2189  133.7148  150.8331 N   0  0  0  0  0  0  0  0  0  0  0  0
  144.0909  133.0078  150.4682 C   0  0  0  0  0  0  0  0  0  0  0  0
  144.5009  131.7877  150.0128 C   0  0  0  0  0  0  0  0  0  0  0  0
  145.9170  131.8395  150.1354 C   0  0  0  0  0  0  0  0  0  0  0  0
  146.3437  132.9934  150.6222 N   0  0  0  0  0  0  0  0  0  0  0  0
  147.7858  140.2755  155.3599 H   0  0  0  0  0  0  0  0  0  0  0  0
  146.3222  139.3420  155.0680 H   0  0  0  0  0  0  0  0  0  0  0  0
  146.5472  140.9043  154.2807 H   0  0  0  0  0  0  0  0  0  0  0  0
  148.5005  139.9570  152.9886 H   0  0  0  0  0  0  0  0  0  0  0  0
  148.2913  138.4320  153.8070 H   0  0  0  0  0  0  0  0  0  0  0  0
  146.1245  139.6580  152.0405 H   0  0  0  0  0  0  0  0  0  0  0  0
  147.8084  137.5253  151.3388 H   0  0  0  0  0  0  0  0  0  0  0  0
  145.4090  137.8898  153.7373 H   0  0  0  0  0  0  0  0  0  0  0  0
  145.1214  137.4439  152.0679 H   0  0  0  0  0  0  0  0  0  0  0  0
  147.4631  136.4589  152.2675 H   0  0  0  0  0  0  0  0  0  0  0  0
  146.6967  134.3195  152.8225 H   0  0  0  0  0  0  0  0  0  0  0  0
  144.4262  134.0312  153.8006 H   0  0  0  0  0  0  0  0  0  0  0  0
  144.2661  135.7787  153.9570 H   0  0  0  0  0  0  0  0  0  0  0  0
  145.5012  134.9215  154.8693 H   0  0  0  0  0  0  0  0  0  0  0  0
  145.9410  135.6246  150.6780 H   0  0  0  0  0  0  0  0  0  0  0  0
  144.0128  136.8159  151.6428 H   0  0  0  0  0  0  0  0  0  0  0  0
  143.1867  135.2870  151.9336 H   0  0  0  0  0  0  0  0  0  0  0  0
  143.5424  135.7968  150.2896 H   0  0  0  0  0  0  0  0  0  0  0  0
  143.0998  133.4270  150.5612 H   0  0  0  0  0  0  0  0  0  0  0  0
  143.8827  130.9808  149.6479 H   0  0  0  0  0  0  0  0  0  0  0  0
  146.6425  131.0796  149.8849 H   0  0  0  0  0  0  0  0  0  0  0  0
  147.1304  136.4085  153.8702 H   0  0  0  0  0  0  0  0  0  0  0  0
  1  2  1  0  0  0  0
  1 16  1  0  0  0  0
  1 17  1  0  0  0  0
  1 18  1  0  0  0  0
  2  3  1  0  0  0  0
  2 19  1  0  0  0  0
  2 20  1  0  0  0  0
  3  4  1  0  0  0  0
  3  5  1  0  0  0  0
  3 21  1  0  0  0  0
  4 22  1  0  0  0  0
  5  6  1  0  0  0  0
  5 23  1  0  0  0  0
  5 24  1  0  0  0  0
  6  7  1  0  0  0  0
  6 25  1  0  0  0  0
  6 37  1  0  0  0  0
  7  8  1  0  0  0  0
  7  9  1  0  0  0  0
  7 26  1  0  0  0  0
  8 27  1  0  0  0  0
  8 28  1  0  0  0  0
  8 29  1  0  0  0  0
  9 10  1  0  0  0  0
  9 11  1  0  0  0  0
  9 30  1  0  0  0  0
 10 31  1  0  0  0  0
 10 32  1  0  0  0  0
 10 33  1  0  0  0  0
 11 15  1  0  0  0  0
 11 12  1  0  0  0  0
 12 13  2  0  0  0  0
 12 34  1  0  0  0  0
 13 14  1  0  0  0  0
 13 35  1  0  0  0  0
 14 15  2  0  0  0  0
 14 36  1  0  0  0  0
M  CHG  1   6   1
M  END
> <s_m_source_file>
AV-unprocessed.smi

> <i_m_source_file_index>
3112

> <i_lp_mmshare_version>
43012

> <i_f3d_flags>
0

> <s_epik_input>
W0NIM11bQ0gyXVtDQEhdKFtPSF0pW0NIMl1bTkhdW0NASF0oW0NIM10pW0NASF0oW0NIM10pbjFbY0hdW2NIXVtjSF1uMQ==

> <s_epik_cmdline>
J2VwaWtfcHl0aG9uJywgJy1waCcsICc3LjAnLCAnLXRuJywgJzgnLCAnLW1hJywgJzIwMCcsICctbWV0YWxfYmluZGluZycsICctaW1hZScsICc8aW5maWxlLm1hZT4nLCAnLW9tYWUnLCAnPG91dGZpbGUubWFlPic=

> <r_lp_tautomer_probability>
1

> <r_epik_Ionization_Penalty>
0.0154842

> <r_epik_Ionization_Penalty_Charging>
0.0154724

> <r_epik_Ionization_Penalty_Neutral>
1.17979e-05

> <r_epik_State_Penalty>
0.0121607

> <r_epik_Charging_Adjusted_Penalty>
0.0276331

> <i_epik_Tot_Q>
1

> <i_epik_Tot_abs_Q>
1

> <r_epik_Metal_State_Penalty>
0.0121863

> <b_epik_Metal_Only>
0

> <s_lp_Force_Field>
OPLS_2005

> <r_lp_Energy>
13.0282

> <b_lp_Chiralities_Consistent>
1

> <s_lp_Variant>
AV-unprocessed.smi:3112-4

> <Gold.Version>
5.8.1

> <Gold.Id.Protein>
6NUR|6NUR_protein|mol2

> <Gold.PLP.Fitness>
41.5164

> <Gold.PLP.PLP>
-28.2475

> <Gold.PLP.part.hbond>
-4.0000

> <Gold.PLP.part.metal>
0.0000

> <Gold.PLP.part.buried>
-2.9107

> <Gold.PLP.part.nonpolar>
-21.4176

> <Gold.PLP.part.repulsive>
0.1958

> <Gold.PLP.ligand.clash>
0.0000

> <Gold.PLP.ligand.torsion>
0.9481

> <Gold.PLP.Chemscore.Hbond>
3.0000

> <Gold.PLP.Chemscore.CHOScore>
2.0000

> <Gold.PLP.Chemscore.Metal>
0.0000

> <Gold.Chemscore.Hbonds>
donor molecule, donor type, donor heavy atom, donor atom, acceptor molecule, acceptor atom, score
      L1  H     4    22       P1  7948  1.00
      L1  H     6    25       P1  7948  2.00
      L1  C    12    34       P1 10186  1.00
      L1  C    14    36       P1 10747  1.00

> <Gold.PLP.Chemscore.Internal.Correction>
0.1652

> <Gold.Rescore>
     Score         DG    S(hbond)    S(metal)    S(lipo)     H(rot)  DE(clash)    DE(int)     intcor
     12.93     -13.96       1.98        0.00      68.73       2.41       0.03       1.00       ----

> <Gold.Chemscore.Fitness>
12.9251

> <Gold.Chemscore.DG>
-13.9563

> <Gold.Chemscore.ZeroCoef>
-5.4800

> <Gold.Chemscore.Hbond>
1.9765

> <Gold.Chemscore.Metal>
0.0000

> <Gold.Chemscore.Lipo>
68.7298

> <Gold.Chemscore.Internal_Hbond>
0.0000

> <Gold.Chemscore.DEClash>
0.0317

> <Gold.Chemscore.DEInternal>
0.9995

> <Gold.Chemscore.Rot>
2.4089

> <Gold.Chemscore.Internal.Correction>
   9.000000E+99

> <Gold.Chemscore.Hbonds>
donor molecule, donor type, donor heavy atom, donor atom, acceptor molecule, acceptor atom, score
      L1  H     4    22       P1  7948  0.98
      L1  H     6    25       P1  7948  0.92

> <Gold.Chemscore.Hbond.Weighted>
-6.6016

> <Gold.Chemscore.Metal.Weighted>
-0.0000

> <Gold.Chemscore.Lipo.Weighted>
-8.0414

> <Gold.Chemscore.Internal_Hbond.Weighted>
0.0000

> <Gold.Chemscore.DEClash.Weighted>
0.0317

> <Gold.Chemscore.DEInternal.Weighted>
0.9995

> <Gold.Chemscore.Rot.Weighted>
6.1667

> <Gold.Chemscore.Internal.Correction.Weighted>
   9.000000E+99

> <Gold.Protein.RotatedTorsions>
[ 6907 6896 6895 6894 ] final   33.49 input  -60.11 | X-H torsion
[ 7974 7965 7964 7962 ] final  -35.93 input  175.53 | X-H torsion
[ 8008 7997 7996 7995 ] final   -9.80 input   59.86 | X-H torsion
[ 10167 10162 10161 10158 ] final  170.79 input  -65.29 | X-H torsion
[ 10718 10713 10712 10709 ] final  -82.61 input   66.30 | X-H torsion
[ 10763 10752 10751 10750 ] final   17.95 input  -60.55 | X-H torsion
[ 11005 11000 10999 10996 ] final   97.01 input  -57.11 | X-H torsion

> <Gold.Protein.ActiveResidues>
 VAL166  LYS551  ARG553  GLY616  TRP617  ASP618  TYR619  PRO620  LYS621  CYS622 
 ASP623  PHE694  ASN695  SER759  ASP760  ASP761  ALA762  ILE779  LEU786  VAL792 
 PHE793  MET794  SER795  GLU796  ALA797  LYS798  CYS799  TRP800  GLU811  SER814 

> <Gold.Protein.RotatedAtoms>
  152.0892  134.9419  160.0571 H   0  0  0  0  0  0  0  0  0  0  0  0  # atno 6907 bound_to 6896
  152.0677  133.4087  159.4453 H   0  0  0  0  0  0  0  0  0  0  0  0  # atno 6908 bound_to 6896
  150.6836  134.3048  159.4765 H   0  0  0  0  0  0  0  0  0  0  0  0  # atno 6909 bound_to 6896
  146.0705  140.6217  142.8955 H   0  0  0  0  0  0  0  0  0  0  0  0  # atno 7974 bound_to 7965
  154.5613  140.2345  155.8330 H   0  0  0  0  0  0  0  0  0  0  0  0  # atno 8008 bound_to 7997
  156.2032  140.3047  155.9530 H   0  0  0  0  0  0  0  0  0  0  0  0  # atno 8009 bound_to 7997
  155.2883  140.0425  157.3011 H   0  0  0  0  0  0  0  0  0  0  0  0  # atno 8010 bound_to 7997
  139.5028  144.3557  151.9876 H   0  0  0  0  0  0  0  0  0  0  0  0  # atno 10167 bound_to 10162
  156.0030  130.4640  150.4131 H   0  0  0  0  0  0  0  0  0  0  0  0  # atno 10718 bound_to 10713
  153.1293  135.6736  153.9205 H   0  0  0  0  0  0  0  0  0  0  0  0  # atno 10763 bound_to 10752
  153.8697  135.3071  155.3443 H   0  0  0  0  0  0  0  0  0  0  0  0  # atno 10764 bound_to 10752
  154.7693  135.4948  153.9697 H   0  0  0  0  0  0  0  0  0  0  0  0  # atno 10765 bound_to 10752
  139.8778  134.8979  156.4244 H   0  0  0  0  0  0  0  0  0  0  0  0  # atno 11005 bound_to 11000
  144.7229  140.4431  143.6995 LP  0  0  0  0  0  0  0  0  0  0  0  0  # atno 17320 bound_to 7965
  145.6400  139.1548  143.2921 LP  0  0  0  0  0  0  0  0  0  0  0  0  # atno 17321 bound_to 7965
  140.2994  144.3664  150.6065 LP  0  0  0  0  0  0  0  0  0  0  0  0  # atno 17342 bound_to 10162
  140.5885  143.2169  151.7297 LP  0  0  0  0  0  0  0  0  0  0  0  0  # atno 17343 bound_to 10162
  157.2193  131.0478  151.2555 LP  0  0  0  0  0  0  0  0  0  0  0  0  # atno 17370 bound_to 10713
  157.3816  130.7234  149.6634 LP  0  0  0  0  0  0  0  0  0  0  0  0  # atno 17371 bound_to 10713
  140.9111  133.7711  155.9793 LP  0  0  0  0  0  0  0  0  0  0  0  0  # atno 17394 bound_to 11000
  140.8545  134.2914  157.5261 LP  0  0  0  0  0  0  0  0  0  0  0  0  # atno 17395 bound_to 11000

$$$$
