AV-unprocessed.smi:123|AV-procd|sdf|1144|dock2
  -GOLD-   2262018273D 1   1.00000     0.00000
 Structure written by MMmdl.
 43 45  0  0  0  0  0  0  0  0  1 V2000
  150.1005  133.6260  155.4539 C   0  0  0  0  0  0  0  0  0  0  0  0
  149.2269  134.7121  154.8106 C   0  0  1  0  0  0  0  0  0  0  0  0
  150.0682  135.8096  154.3523 N   0  0  0  0  0  0  0  0  0  0  0  0
  150.8341  136.6117  155.1107 C   0  0  0  0  0  0  0  0  0  0  0  0
  150.9598  136.4658  156.3258 O   0  0  0  0  0  0  0  0  0  0  0  0
  151.5706  137.7692  154.4097 C   0  0  0  0  0  0  0  0  0  0  0  0
  151.0316  139.1145  154.7212 N   0  0  0  0  0  0  0  0  0  0  0  0
  149.7669  139.4818  154.1983 C   0  0  0  0  0  0  0  0  0  0  0  0
  149.1282  138.7175  153.4740 O   0  0  0  0  0  0  0  0  0  0  0  0
  149.2834  140.8014  154.5888 C   0  0  0  0  0  0  0  0  0  0  0  0
  148.1035  141.2426  154.1205 F   0  0  0  0  0  0  0  0  0  0  0  0
  149.9987  141.5863  155.4208 C   0  0  0  0  0  0  0  0  0  0  0  0
  151.2185  141.2017  155.9498 N   0  0  0  0  0  0  0  0  0  0  0  0
  151.9969  142.0807  156.9083 C   0  0  2  0  0  0  0  0  0  0  0  0
  152.1668  141.3795  158.2725 C   0  0  0  0  0  0  0  0  0  0  0  0
  151.6101  142.3948  159.2513 C   0  0  0  0  0  0  0  0  0  0  0  0
  150.6085  143.1511  158.3921 C   0  0  0  0  0  0  0  0  0  0  0  0
  151.2901  143.2637  157.1501 O   0  0  0  0  0  0  0  0  0  0  0  0
  151.7741  139.9570  155.5831 C   0  0  0  0  0  0  0  0  0  0  0  0
  152.8714  139.6055  156.0223 O   0  0  0  0  0  0  0  0  0  0  0  0
  148.4170  134.1879  153.6682 C   0  0  0  0  0  0  0  0  0  0  0  0
  147.1006  134.3075  153.3170 C   0  0  0  0  0  0  0  0  0  0  0  0
  146.9368  133.5688  152.1124 C   0  0  0  0  0  0  0  0  0  0  0  0
  148.1642  133.0457  151.8208 C   0  0  0  0  0  0  0  0  0  0  0  0
  149.0776  133.4104  152.7609 O   0  0  0  0  0  0  0  0  0  0  0  0
  149.4896  132.8029  155.8252 H   0  0  0  0  0  0  0  0  0  0  0  0
  150.6651  134.0232  156.2982 H   0  0  0  0  0  0  0  0  0  0  0  0
  150.8147  133.2148  154.7395 H   0  0  0  0  0  0  0  0  0  0  0  0
  148.5340  135.0831  155.5678 H   0  0  0  0  0  0  0  0  0  0  0  0
  150.0344  136.0071  153.3628 H   0  0  0  0  0  0  0  0  0  0  0  0
  152.6268  137.7121  154.6776 H   0  0  0  0  0  0  0  0  0  0  0  0
  151.5626  137.5753  153.3363 H   0  0  0  0  0  0  0  0  0  0  0  0
  149.5823  142.5503  155.6701 H   0  0  0  0  0  0  0  0  0  0  0  0
  152.9355  142.3062  156.3989 H   0  0  0  0  0  0  0  0  0  0  0  0
  151.5803  140.4605  158.3038 H   0  0  0  0  0  0  0  0  0  0  0  0
  153.2132  141.1365  158.4592 H   0  0  0  0  0  0  0  0  0  0  0  0
  151.1581  141.9365  160.1314 H   0  0  0  0  0  0  0  0  0  0  0  0
  152.4010  143.0688  159.5831 H   0  0  0  0  0  0  0  0  0  0  0  0
  149.6891  142.5767  158.2697 H   0  0  0  0  0  0  0  0  0  0  0  0
  150.3538  144.1290  158.8006 H   0  0  0  0  0  0  0  0  0  0  0  0
  146.3490  134.8623  153.8589 H   0  0  0  0  0  0  0  0  0  0  0  0
  146.0349  133.4358  151.5335 H   0  0  0  0  0  0  0  0  0  0  0  0
  148.5452  132.4248  151.0234 H   0  0  0  0  0  0  0  0  0  0  0  0
  1  2  1  0  0  0  0
  1 26  1  0  0  0  0
  1 27  1  0  0  0  0
  1 28  1  0  0  0  0
  2  3  1  0  0  0  0
  2 21  1  0  0  0  0
  2 29  1  0  0  0  0
  3  4  1  0  0  0  0
  3 30  1  0  0  0  0
  4  5  2  0  0  0  0
  4  6  1  0  0  0  0
  6  7  1  0  0  0  0
  6 31  1  0  0  0  0
  6 32  1  0  0  0  0
  7 19  1  0  0  0  0
  7  8  1  0  0  0  0
  8  9  2  0  0  0  0
  8 10  1  0  0  0  0
 10 11  1  0  0  0  0
 10 12  2  0  0  0  0
 12 13  1  0  0  0  0
 12 33  1  0  0  0  0
 13 14  1  0  0  0  0
 13 19  1  0  0  0  0
 14 18  1  0  0  0  0
 14 15  1  0  0  0  0
 14 34  1  0  0  0  0
 15 16  1  0  0  0  0
 15 35  1  0  0  0  0
 15 36  1  0  0  0  0
 16 17  1  0  0  0  0
 16 37  1  0  0  0  0
 16 38  1  0  0  0  0
 17 18  1  0  0  0  0
 17 39  1  0  0  0  0
 17 40  1  0  0  0  0
 19 20  2  0  0  0  0
 21 25  1  0  0  0  0
 21 22  2  0  0  0  0
 22 23  1  0  0  0  0
 22 41  1  0  0  0  0
 23 24  2  0  0  0  0
 23 42  1  0  0  0  0
 24 25  1  0  0  0  0
 24 43  1  0  0  0  0
M  END
> <s_m_source_file>
AV-unprocessed.smi

> <i_m_source_file_index>
123

> <i_lp_mmshare_version>
43012

> <i_f3d_flags>
0

> <s_epik_input>
bzFbY0hdW2NIXVtjSF1jMVtDQEhdKFtDSDNdKVtOSF1DKD1PKVtDSDJdbjJjKD1PKWMoRilbY0hdbihjMj1PKVtDQEBIXTNbQ0gyXVtDSDJdW0NIMl1PMw==

> <s_epik_cmdline>
J2VwaWtfcHl0aG9uJywgJy1waCcsICc3LjAnLCAnLXRuJywgJzgnLCAnLW1hJywgJzIwMCcsICctbWV0YWxfYmluZGluZycsICctaW1hZScsICc8aW5maWxlLm1hZT4nLCAnLW9tYWUnLCAnPG91dGZpbGUubWFlPic=

> <r_lp_tautomer_probability>
1

> <r_epik_Ionization_Penalty>
2.31906e-08

> <r_epik_Ionization_Penalty_Charging>
3.85846e-09

> <r_epik_Ionization_Penalty_Neutral>
1.93321e-08

> <r_epik_State_Penalty>
-0

> <r_epik_Charging_Adjusted_Penalty>
3.85846e-09

> <i_epik_Tot_Q>
0

> <i_epik_Tot_abs_Q>
0

> <r_epik_Metal_State_Penalty>
-0

> <b_epik_Metal_Only>
0

> <s_epik_Chemistry_Notes>
This compound contains an acetal/aminal-like group ( X-CH(R)-Y where X, Y are N, S, or O) that may be acid/base labile, releasing an aldehyde.

> <s_lp_Force_Field>
OPLS_2005

> <r_lp_Energy>
20.7844

> <b_lp_Chiralities_Consistent>
1

> <s_lp_Variant>
AV-unprocessed.smi:123-2

> <Gold.Version>
5.8.1

> <Gold.Id.Protein>
6NUR|6NUR_protein|mol2

> <Gold.PLP.Fitness>
49.2256

> <Gold.PLP.PLP>
-38.4211

> <Gold.PLP.part.hbond>
-2.0000

> <Gold.PLP.part.metal>
0.0000

> <Gold.PLP.part.buried>
-6.1133

> <Gold.PLP.part.nonpolar>
-31.7180

> <Gold.PLP.part.repulsive>
1.5731

> <Gold.PLP.ligand.clash>
0.0000

> <Gold.PLP.ligand.torsion>
0.6148

> <Gold.PLP.Chemscore.Hbond>
2.0000

> <Gold.PLP.Chemscore.CHOScore>
2.0000

> <Gold.PLP.Chemscore.Metal>
0.0000

> <Gold.Chemscore.Hbonds>
donor molecule, donor type, donor heavy atom, donor atom, acceptor molecule, acceptor atom, score
      L1  H     3    30       P1  7948  0.38
      P1  H  7997  8010       L1    20  1.00
      L1  C    12    33       P1  8028  1.00
      L1  C    24    43       P1 10747  0.35

> <Gold.PLP.Chemscore.Internal.Correction>
0.0342

> <Gold.Rescore>
     Score         DG    S(hbond)    S(metal)    S(lipo)     H(rot)  DE(clash)    DE(int)     intcor
      9.67     -13.10       1.38        0.00      74.47       2.23       1.74       1.69       ----

> <Gold.Chemscore.Fitness>
9.6692

> <Gold.Chemscore.DG>
-13.0955

> <Gold.Chemscore.ZeroCoef>
-5.4800

> <Gold.Chemscore.Hbond>
1.3842

> <Gold.Chemscore.Metal>
0.0000

> <Gold.Chemscore.Lipo>
74.4712

> <Gold.Chemscore.Internal_Hbond>
0.0000

> <Gold.Chemscore.DEClash>
1.7382

> <Gold.Chemscore.DEInternal>
1.6881

> <Gold.Chemscore.Rot>
2.2347

> <Gold.Chemscore.Internal.Correction>
   9.000000E+99

> <Gold.Chemscore.Hbonds>
donor molecule, donor type, donor heavy atom, donor atom, acceptor molecule, acceptor atom, score
      L1  H     3    30       P1  7948  0.01
      P1  H  7997  8010       L1    20  0.98

> <Gold.Chemscore.Hbond.Weighted>
-4.6231

> <Gold.Chemscore.Metal.Weighted>
-0.0000

> <Gold.Chemscore.Lipo.Weighted>
-8.7131

> <Gold.Chemscore.Internal_Hbond.Weighted>
0.0000

> <Gold.Chemscore.DEClash.Weighted>
1.7382

> <Gold.Chemscore.DEInternal.Weighted>
1.6881

> <Gold.Chemscore.Rot.Weighted>
5.7208

> <Gold.Chemscore.Internal.Correction.Weighted>
   9.000000E+99

> <Gold.Protein.RotatedTorsions>
[ 6907 6896 6895 6894 ] final  -80.25 input  -60.11 | X-H torsion
[ 7974 7965 7964 7962 ] final -150.98 input  175.53 | X-H torsion
[ 8008 7997 7996 7995 ] final   73.35 input   59.86 | X-H torsion
[ 10167 10162 10161 10158 ] final   26.72 input  -65.29 | X-H torsion
[ 10718 10713 10712 10709 ] final  110.05 input   66.30 | X-H torsion
[ 10763 10752 10751 10750 ] final  -16.31 input  -60.55 | X-H torsion
[ 11005 11000 10999 10996 ] final   53.14 input  -57.11 | X-H torsion

> <Gold.Protein.ActiveResidues>
 VAL166  LYS551  ARG553  GLY616  TRP617  ASP618  TYR619  PRO620  LYS621  CYS622 
 ASP623  PHE694  ASN695  SER759  ASP760  ASP761  ALA762  ILE779  LEU786  VAL792 
 PHE793  MET794  SER795  GLU796  ALA797  LYS798  CYS799  TRP800  GLU811  SER814 

> <Gold.Protein.RotatedAtoms>
  150.6933  134.3998  159.5113 H   0  0  0  0  0  0  0  0  0  0  0  0  # atno 6907 bound_to 6896
  152.1774  134.8780  160.0538 H   0  0  0  0  0  0  0  0  0  0  0  0  # atno 6908 bound_to 6896
  151.9784  133.3714  159.4135 H   0  0  0  0  0  0  0  0  0  0  0  0  # atno 6909 bound_to 6896
  144.7876  140.4859  143.5795 H   0  0  0  0  0  0  0  0  0  0  0  0  # atno 7974 bound_to 7965
  155.7823  140.3481  155.5304 H   0  0  0  0  0  0  0  0  0  0  0  0  # atno 8008 bound_to 7997
  155.8716  140.0987  157.1567 H   0  0  0  0  0  0  0  0  0  0  0  0  # atno 8009 bound_to 7997
  154.4018  140.1339  156.4073 H   0  0  0  0  0  0  0  0  0  0  0  0  # atno 8010 bound_to 7997
  140.4999  144.0332  150.6329 H   0  0  0  0  0  0  0  0  0  0  0  0  # atno 10167 bound_to 10162
  157.6513  131.0925  150.6544 H   0  0  0  0  0  0  0  0  0  0  0  0  # atno 10718 bound_to 10713
  153.5566  135.7010  153.5566 H   0  0  0  0  0  0  0  0  0  0  0  0  # atno 10763 bound_to 10752
  153.3467  135.4006  155.1614 H   0  0  0  0  0  0  0  0  0  0  0  0  # atno 10764 bound_to 10752
  154.8654  135.3755  154.5081 H   0  0  0  0  0  0  0  0  0  0  0  0  # atno 10765 bound_to 10752
  140.0791  134.5363  155.8965 H   0  0  0  0  0  0  0  0  0  0  0  0  # atno 11005 bound_to 11000
  145.5880  139.1493  143.3198 LP  0  0  0  0  0  0  0  0  0  0  0  0  # atno 17320 bound_to 7965
  146.2115  140.6007  142.9057 LP  0  0  0  0  0  0  0  0  0  0  0  0  # atno 17321 bound_to 7965
  140.3625  143.2900  152.0368 LP  0  0  0  0  0  0  0  0  0  0  0  0  # atno 17342 bound_to 10162
  139.4870  144.6292  151.7103 LP  0  0  0  0  0  0  0  0  0  0  0  0  # atno 17343 bound_to 10162
  156.6855  130.4579  149.5615 LP  0  0  0  0  0  0  0  0  0  0  0  0  # atno 17370 bound_to 10713
  156.1899  130.6553  151.1049 LP  0  0  0  0  0  0  0  0  0  0  0  0  # atno 17371 bound_to 10713
  141.2040  133.6636  156.6097 LP  0  0  0  0  0  0  0  0  0  0  0  0  # atno 17394 bound_to 11000
  140.3514  134.7766  157.4469 LP  0  0  0  0  0  0  0  0  0  0  0  0  # atno 17395 bound_to 11000

$$$$
