AV-unprocessed.smi:1830|AV-procd|sdf|7450|dock7
  -GOLD-   22720 9143D 1   1.00000     0.00000
 Structure written by MMmdl.
 54 57  0  0  0  0  0  0  0  0  3 V2000
  149.6962  133.8913  155.7208 O   0  0  0  0  0  0  0  0  0  0  0  0
  149.3919  134.5276  154.7124 C   0  0  0  0  0  0  0  0  0  0  0  0
  149.6365  135.8368  154.5629 N   0  0  0  0  0  0  0  0  0  0  0  0
  150.2838  136.6830  155.5602 C   0  0  0  0  0  0  0  0  0  0  0  0
  151.2972  137.6589  154.9209 C   0  0  2  0  0  0  0  0  0  0  0  0
  152.1419  138.4240  155.9688 C   0  0  0  0  0  0  0  0  0  0  0  0
  151.3116  139.4747  156.5858 N   0  3  1  0  0  0  0  0  0  0  0  0
  151.9243  140.3263  157.6199 C   0  0  0  0  0  0  0  0  0  0  0  0
  151.0912  141.6235  157.6087 C   0  0  0  0  0  0  0  0  0  0  0  0
  150.1313  141.4936  156.4125 C   0  0  0  0  0  0  0  0  0  0  0  0
  150.7664  140.3860  155.5775 C   0  0  2  0  0  0  0  0  0  0  0  0
  149.8636  139.5960  154.6231 C   0  0  0  0  0  0  0  0  0  0  0  0
  150.6541  138.5703  154.0156 O   0  0  0  0  0  0  0  0  0  0  0  0
  148.7648  134.0204  153.6379 N   0  0  0  0  0  0  0  0  0  0  0  0
  148.3033  132.6874  153.4438 C   0  0  0  0  0  0  0  0  0  0  0  0
  148.8615  131.6035  154.1697 C   0  0  0  0  0  0  0  0  0  0  0  0
  148.3696  130.2994  153.9752 C   0  0  0  0  0  0  0  0  0  0  0  0
  147.3287  130.0960  153.0534 C   0  0  0  0  0  0  0  0  0  0  0  0
  146.8331  131.1433  152.3627 N   0  3  0  0  0  0  0  0  0  0  0  0
  147.2747  132.4193  152.4941 C   0  0  0  0  0  0  0  0  0  0  0  0
  146.6689  133.4130  151.6919 N   0  0  0  0  0  0  0  0  0  0  0  0
  146.0966  134.6074  152.3021 C   0  0  0  0  0  0  0  0  0  0  0  0
  145.2551  135.2475  151.2020 C   0  0  0  0  0  0  0  0  0  0  0  0
  144.7115  134.0324  150.4558 C   0  0  0  0  0  0  0  0  0  0  0  0
  145.8418  133.0025  150.5614 C   0  0  0  0  0  0  0  0  0  0  0  0
  149.3525  136.2818  153.7023 H   0  0  0  0  0  0  0  0  0  0  0  0
  149.5093  137.2217  156.1053 H   0  0  0  0  0  0  0  0  0  0  0  0
  150.7847  136.0550  156.2991 H   0  0  0  0  0  0  0  0  0  0  0  0
  151.9899  137.0679  154.3211 H   0  0  0  0  0  0  0  0  0  0  0  0
  152.5229  137.7467  156.7340 H   0  0  0  0  0  0  0  0  0  0  0  0
  153.0076  138.8825  155.4880 H   0  0  0  0  0  0  0  0  0  0  0  0
  151.9158  139.8299  158.5906 H   0  0  0  0  0  0  0  0  0  0  0  0
  152.9609  140.5441  157.3581 H   0  0  0  0  0  0  0  0  0  0  0  0
  150.5379  141.7556  158.5390 H   0  0  0  0  0  0  0  0  0  0  0  0
  151.7448  142.4884  157.4902 H   0  0  0  0  0  0  0  0  0  0  0  0
  149.1448  141.1846  156.7615 H   0  0  0  0  0  0  0  0  0  0  0  0
  150.0154  142.4257  155.8585 H   0  0  0  0  0  0  0  0  0  0  0  0
  151.5947  140.8160  155.0099 H   0  0  0  0  0  0  0  0  0  0  0  0
  149.0049  139.1705  155.1429 H   0  0  0  0  0  0  0  0  0  0  0  0
  149.4721  140.2489  153.8431 H   0  0  0  0  0  0  0  0  0  0  0  0
  148.4907  134.6842  152.9287 H   0  0  0  0  0  0  0  0  0  0  0  0
  149.6669  131.7524  154.8728 H   0  0  0  0  0  0  0  0  0  0  0  0
  148.7846  129.4686  154.5274 H   0  0  0  0  0  0  0  0  0  0  0  0
  146.8861  129.1333  152.8417 H   0  0  0  0  0  0  0  0  0  0  0  0
  145.4554  134.3379  153.1425 H   0  0  0  0  0  0  0  0  0  0  0  0
  146.8732  135.2829  152.6623 H   0  0  0  0  0  0  0  0  0  0  0  0
  144.4715  135.8993  151.5900 H   0  0  0  0  0  0  0  0  0  0  0  0
  145.8912  135.8370  150.5401 H   0  0  0  0  0  0  0  0  0  0  0  0
  143.8238  133.6572  150.9667 H   0  0  0  0  0  0  0  0  0  0  0  0
  144.4356  134.2542  149.4245 H   0  0  0  0  0  0  0  0  0  0  0  0
  146.4486  133.0233  149.6557 H   0  0  0  0  0  0  0  0  0  0  0  0
  145.4474  131.9929  150.6857 H   0  0  0  0  0  0  0  0  0  0  0  0
  150.5211  139.0213  157.0212 H   0  0  0  0  0  0  0  0  0  0  0  0
  146.0850  130.9614  151.6934 H   0  0  0  0  0  0  0  0  0  0  0  0
  1  2  2  0  0  0  0
  2  3  1  0  0  0  0
  2 14  1  0  0  0  0
  3  4  1  0  0  0  0
  3 26  1  0  0  0  0
  4  5  1  0  0  0  0
  4 27  1  0  0  0  0
  4 28  1  0  0  0  0
  5 13  1  0  0  0  0
  5  6  1  0  0  0  0
  5 29  1  0  0  0  0
  6  7  1  0  0  0  0
  6 30  1  0  0  0  0
  6 31  1  0  0  0  0
  7 11  1  0  0  0  0
  7  8  1  0  0  0  0
  7 53  1  0  0  0  0
  8  9  1  0  0  0  0
  8 32  1  0  0  0  0
  8 33  1  0  0  0  0
  9 10  1  0  0  0  0
  9 34  1  0  0  0  0
  9 35  1  0  0  0  0
 10 11  1  0  0  0  0
 10 36  1  0  0  0  0
 10 37  1  0  0  0  0
 11 12  1  0  0  0  0
 11 38  1  0  0  0  0
 12 13  1  0  0  0  0
 12 39  1  0  0  0  0
 12 40  1  0  0  0  0
 14 15  1  0  0  0  0
 14 41  1  0  0  0  0
 15 20  1  0  0  0  0
 15 16  2  0  0  0  0
 16 17  1  0  0  0  0
 16 42  1  0  0  0  0
 17 18  2  0  0  0  0
 17 43  1  0  0  0  0
 18 19  1  0  0  0  0
 18 44  1  0  0  0  0
 19 20  2  0  0  0  0
 19 54  1  0  0  0  0
 20 21  1  0  0  0  0
 21 25  1  0  0  0  0
 21 22  1  0  0  0  0
 22 23  1  0  0  0  0
 22 45  1  0  0  0  0
 22 46  1  0  0  0  0
 23 24  1  0  0  0  0
 23 47  1  0  0  0  0
 23 48  1  0  0  0  0
 24 25  1  0  0  0  0
 24 49  1  0  0  0  0
 24 50  1  0  0  0  0
 25 51  1  0  0  0  0
 25 52  1  0  0  0  0
M  CHG  1   7   1
M  CHG  1  19   1
M  END
> <s_m_source_file>
AV-unprocessed.smi

> <i_m_source_file_index>
1830

> <i_lp_mmshare_version>
43012

> <i_f3d_flags>
0

> <s_epik_input>
W0NIMl0xW0NIMl1bQ0gyXVtDQEhdKE4xMilbQ0gyXU9bQ0BASF0oW0NIMl0yKVtDSDJdW05IXUMoPU8pW05IXWMzW2NIXVtjSF1bY0hdbmMzTjRbQ0gyXVtDSDJdW0NIMl1bQ0gyXTQ=

> <s_epik_cmdline>
J2VwaWtfcHl0aG9uJywgJy1waCcsICc3LjAnLCAnLXRuJywgJzgnLCAnLW1hJywgJzIwMCcsICctbWV0YWxfYmluZGluZycsICctaW1hZScsICc8aW5maWxlLm1hZT4nLCAnLW9tYWUnLCAnPG91dGZpbGUubWFlPic=

> <r_lp_tautomer_probability>
0.999994

> <r_epik_Ionization_Penalty>
1.29113

> <r_epik_Ionization_Penalty_Charging>
1.29111

> <r_epik_Ionization_Penalty_Neutral>
1.88144e-05

> <r_epik_State_Penalty>
1.32676

> <r_epik_Charging_Adjusted_Penalty>
2.61787

> <i_epik_Tot_Q>
2

> <i_epik_Tot_abs_Q>
2

> <r_epik_Metal_State_Penalty>
1.40425

> <b_epik_Metal_Only>
0

> <s_lp_Force_Field>
OPLS_2005

> <r_lp_Energy>
76.6475

> <b_lp_Chiralities_Consistent>
1

> <s_lp_Variant>
AV-unprocessed.smi:1830-19

> <Gold.Version>
5.8.1

> <Gold.Id.Protein>
6NUR|6NUR_protein|mol2

> <Gold.PLP.Fitness>
47.4738

> <Gold.PLP.PLP>
-42.0112

> <Gold.PLP.part.hbond>
-3.0000

> <Gold.PLP.part.metal>
0.0000

> <Gold.PLP.part.buried>
-3.1764

> <Gold.PLP.part.nonpolar>
-36.3446

> <Gold.PLP.part.repulsive>
0.5709

> <Gold.PLP.ligand.clash>
0.0000

> <Gold.PLP.ligand.torsion>
0.4554

> <Gold.PLP.Chemscore.Hbond>
1.9920

> <Gold.PLP.Chemscore.CHOScore>
0.0000

> <Gold.PLP.Chemscore.Metal>
0.0000

> <Gold.Chemscore.Hbonds>
donor molecule, donor type, donor heavy atom, donor atom, acceptor molecule, acceptor atom, score
      L1  H     3    26       P1  7948  1.00
      L1  H    14    41       P1  7948  0.94

> <Gold.PLP.Chemscore.Internal.Correction>
0.3974

> <Gold.Rescore>
     Score         DG    S(hbond)    S(metal)    S(lipo)     H(rot)  DE(clash)    DE(int)     intcor
     15.98     -17.87       1.63        0.00      90.70       1.43       0.04       1.85       ----

> <Gold.Chemscore.Fitness>
15.9758

> <Gold.Chemscore.DG>
-17.8697

> <Gold.Chemscore.ZeroCoef>
-5.4800

> <Gold.Chemscore.Hbond>
1.6265

> <Gold.Chemscore.Metal>
0.0000

> <Gold.Chemscore.Lipo>
90.7033

> <Gold.Chemscore.Internal_Hbond>
0.0000

> <Gold.Chemscore.DEClash>
0.0414

> <Gold.Chemscore.DEInternal>
1.8525

> <Gold.Chemscore.Rot>
1.4278

> <Gold.Chemscore.Internal.Correction>
   9.000000E+99

> <Gold.Chemscore.Hbonds>
donor molecule, donor type, donor heavy atom, donor atom, acceptor molecule, acceptor atom, score
      L1  H     3    26       P1  7948  0.78
      L1  H    14    41       P1  7948  0.32

> <Gold.Chemscore.Hbond.Weighted>
-5.4325

> <Gold.Chemscore.Metal.Weighted>
-0.0000

> <Gold.Chemscore.Lipo.Weighted>
-10.6123

> <Gold.Chemscore.Internal_Hbond.Weighted>
0.0000

> <Gold.Chemscore.DEClash.Weighted>
0.0414

> <Gold.Chemscore.DEInternal.Weighted>
1.8525

> <Gold.Chemscore.Rot.Weighted>
3.6551

> <Gold.Chemscore.Internal.Correction.Weighted>
   9.000000E+99

> <Gold.Protein.RotatedTorsions>
[ 6907 6896 6895 6894 ] final -100.11 input  -60.11 | X-H torsion
[ 7974 7965 7964 7962 ] final   41.18 input  175.53 | X-H torsion
[ 8008 7997 7996 7995 ] final  127.57 input   59.86 | X-H torsion
[ 10167 10162 10161 10158 ] final -159.35 input  -65.29 | X-H torsion
[ 10718 10713 10712 10709 ] final   24.58 input   66.30 | X-H torsion
[ 10763 10752 10751 10750 ] final   71.58 input  -60.55 | X-H torsion
[ 11005 11000 10999 10996 ] final  -70.73 input  -57.11 | X-H torsion

> <Gold.Protein.ActiveResidues>
 VAL166  LYS551  ARG553  GLY616  TRP617  ASP618  TYR619  PRO620  LYS621  CYS622 
 ASP623  PHE694  ASN695  SER759  ASP760  ASP761  ALA762  ILE779  LEU786  VAL792 
 PHE793  MET794  SER795  GLU796  ALA797  LYS798  CYS799  TRP800  GLU811  SER814 

> <Gold.Protein.RotatedAtoms>
  150.7104  134.0938  159.3940 H   0  0  0  0  0  0  0  0  0  0  0  0  # atno 6907 bound_to 6896
  151.8923  135.0409  160.0508 H   0  0  0  0  0  0  0  0  0  0  0  0  # atno 6908 bound_to 6896
  152.2481  133.5156  159.5346 H   0  0  0  0  0  0  0  0  0  0  0  0  # atno 6909 bound_to 6896
  146.0845  139.5446  142.9516 H   0  0  0  0  0  0  0  0  0  0  0  0  # atno 7974 bound_to 7965
  156.2894  140.2665  156.2295 H   0  0  0  0  0  0  0  0  0  0  0  0  # atno 8008 bound_to 7997
  155.0086  140.0387  157.2408 H   0  0  0  0  0  0  0  0  0  0  0  0  # atno 8009 bound_to 7997
  154.7537  140.2748  155.6276 H   0  0  0  0  0  0  0  0  0  0  0  0  # atno 8010 bound_to 7997
  139.6621  143.9893  152.2232 H   0  0  0  0  0  0  0  0  0  0  0  0  # atno 10167 bound_to 10162
  157.1817  130.6806  149.6116 H   0  0  0  0  0  0  0  0  0  0  0  0  # atno 10718 bound_to 10713
  153.0407  135.5131  154.7614 H   0  0  0  0  0  0  0  0  0  0  0  0  # atno 10763 bound_to 10752
  154.6554  135.2931  154.9936 H   0  0  0  0  0  0  0  0  0  0  0  0  # atno 10764 bound_to 10752
  154.0806  135.6664  153.4890 H   0  0  0  0  0  0  0  0  0  0  0  0  # atno 10765 bound_to 10752
  141.1579  133.6798  156.6797 H   0  0  0  0  0  0  0  0  0  0  0  0  # atno 11005 bound_to 11000
  145.6156  141.0332  143.1943 LP  0  0  0  0  0  0  0  0  0  0  0  0  # atno 17320 bound_to 7965
  144.7316  139.7709  143.7345 LP  0  0  0  0  0  0  0  0  0  0  0  0  # atno 17321 bound_to 7965
  139.9635  144.6542  150.8056 LP  0  0  0  0  0  0  0  0  0  0  0  0  # atno 17342 bound_to 10162
  140.7584  143.3107  151.2852 LP  0  0  0  0  0  0  0  0  0  0  0  0  # atno 17343 bound_to 10162
  155.9723  130.4644  150.6217 LP  0  0  0  0  0  0  0  0  0  0  0  0  # atno 17370 bound_to 10713
  157.3946  131.0801  151.1363 LP  0  0  0  0  0  0  0  0  0  0  0  0  # atno 17371 bound_to 10713
  140.3112  134.8085  157.4177 LP  0  0  0  0  0  0  0  0  0  0  0  0  # atno 17394 bound_to 11000
  140.1177  134.5261  155.8210 LP  0  0  0  0  0  0  0  0  0  0  0  0  # atno 17395 bound_to 11000

$$$$
