AV-unprocessed.smi:1401|AV-procd|sdf|5695|dock1
  -GOLD-   22720 5323D 1   1.00000     0.00000
 Structure written by MMmdl.
 48 50  0  0  0  0  0  0  0  0  1 V2000
  146.7912  139.4783  154.4480 C   0  0  0  0  0  0  0  0  0  0  0  0
  148.0917  138.7477  154.6466 C   0  0  0  0  0  0  0  0  0  0  0  0
  148.0262  137.4596  154.7319 N   0  0  0  0  0  0  0  0  0  0  0  0
  149.1593  136.6934  154.9246 N   0  0  0  0  0  0  0  0  0  0  0  0
  148.8990  135.2513  155.0420 C   0  0  0  0  0  0  0  0  0  0  0  0
  147.4541  134.8922  154.6718 C   0  0  0  0  0  0  0  0  0  0  0  0
  146.7257  134.3320  155.4916 O   0  0  0  0  0  0  0  0  0  0  0  0
  147.0610  135.2221  153.4316 N   0  0  0  0  0  0  0  0  0  0  0  0
  145.7677  134.9080  152.8266 C   0  0  1  0  0  0  0  0  0  0  0  0
  144.9587  136.2068  152.6908 C   0  0  0  0  0  0  0  0  0  0  0  0
  145.9897  134.2041  151.4643 C   0  0  1  0  0  0  0  0  0  0  0  0
  146.8403  132.9125  151.5177 C   0  0  0  0  0  0  0  0  0  0  0  0
  145.9961  131.9062  150.7149 C   0  0  1  0  0  0  0  0  0  0  0  0
  144.7875  131.4768  151.5661 C   0  0  0  0  0  0  0  0  0  0  0  0
  143.8941  132.7302  151.5384 C   0  0  0  0  0  0  0  0  0  0  0  0
  144.7262  133.7271  150.7054 C   0  0  2  0  0  0  0  0  0  0  0  0
  145.3425  132.7970  149.6650 C   0  0  0  0  0  0  0  0  0  0  0  0
  150.4264  137.1913  155.0229 C   0  0  0  0  0  0  0  0  0  0  0  0
  151.4119  136.4688  155.1833 O   0  0  0  0  0  0  0  0  0  0  0  0
  150.4925  138.6506  154.9258 C   0  0  0  0  0  0  0  0  0  0  0  0
  151.7988  139.2139  155.0402 C   0  0  0  0  0  0  0  0  0  0  0  0
  152.8625  139.6649  155.1132 N   0  0  0  0  0  0  0  0  0  0  0  0
  149.3864  139.4145  154.7444 C   0  0  0  0  0  0  0  0  0  0  0  0
  149.4030  140.9333  154.6412 C   0  0  0  0  0  0  0  0  0  0  0  0
  146.7696  139.9709  153.4758 H   0  0  0  0  0  0  0  0  0  0  0  0
  146.6513  140.2385  155.2167 H   0  0  0  0  0  0  0  0  0  0  0  0
  145.9349  138.8041  154.4962 H   0  0  0  0  0  0  0  0  0  0  0  0
  149.5655  134.6866  154.3877 H   0  0  0  0  0  0  0  0  0  0  0  0
  149.1262  134.9144  156.0554 H   0  0  0  0  0  0  0  0  0  0  0  0
  147.7321  135.6883  152.8384 H   0  0  0  0  0  0  0  0  0  0  0  0
  145.2135  134.2442  153.4902 H   0  0  0  0  0  0  0  0  0  0  0  0
  143.9580  136.0125  152.3048 H   0  0  0  0  0  0  0  0  0  0  0  0
  145.4457  136.9109  152.0153 H   0  0  0  0  0  0  0  0  0  0  0  0
  144.8418  136.6980  153.6574 H   0  0  0  0  0  0  0  0  0  0  0  0
  146.5061  134.9123  150.8130 H   0  0  0  0  0  0  0  0  0  0  0  0
  147.8119  133.0745  151.0494 H   0  0  0  0  0  0  0  0  0  0  0  0
  147.0206  132.5556  152.5320 H   0  0  0  0  0  0  0  0  0  0  0  0
  146.5718  131.0689  150.3194 H   0  0  0  0  0  0  0  0  0  0  0  0
  144.2726  130.6286  151.1133 H   0  0  0  0  0  0  0  0  0  0  0  0
  145.0738  131.1921  152.5791 H   0  0  0  0  0  0  0  0  0  0  0  0
  142.9529  132.5091  151.0335 H   0  0  0  0  0  0  0  0  0  0  0  0
  143.6457  133.0955  152.5338 H   0  0  0  0  0  0  0  0  0  0  0  0
  144.1361  134.5411  150.2837 H   0  0  0  0  0  0  0  0  0  0  0  0
  146.0615  133.2916  149.0093 H   0  0  0  0  0  0  0  0  0  0  0  0
  144.6024  132.2757  149.0552 H   0  0  0  0  0  0  0  0  0  0  0  0
  150.4160  141.3329  154.6052 H   0  0  0  0  0  0  0  0  0  0  0  0
  148.9031  141.3762  155.5034 H   0  0  0  0  0  0  0  0  0  0  0  0
  148.8920  141.2664  153.7373 H   0  0  0  0  0  0  0  0  0  0  0  0
  1  2  1  0  0  0  0
  1 25  1  0  0  0  0
  1 26  1  0  0  0  0
  1 27  1  0  0  0  0
  2 23  1  0  0  0  0
  2  3  2  0  0  0  0
  3  4  1  0  0  0  0
  4  5  1  0  0  0  0
  4 18  1  0  0  0  0
  5  6  1  0  0  0  0
  5 28  1  0  0  0  0
  5 29  1  0  0  0  0
  6  7  2  0  0  0  0
  6  8  1  0  0  0  0
  8  9  1  0  0  0  0
  8 30  1  0  0  0  0
  9 10  1  0  0  0  0
  9 11  1  0  0  0  0
  9 31  1  0  0  0  0
 10 32  1  0  0  0  0
 10 33  1  0  0  0  0
 10 34  1  0  0  0  0
 11 16  1  0  0  0  0
 11 12  1  0  0  0  0
 11 35  1  0  0  0  0
 12 13  1  0  0  0  0
 12 36  1  0  0  0  0
 12 37  1  0  0  0  0
 13 17  1  0  0  0  0
 13 14  1  0  0  0  0
 13 38  1  0  0  0  0
 14 15  1  0  0  0  0
 14 39  1  0  0  0  0
 14 40  1  0  0  0  0
 15 16  1  0  0  0  0
 15 41  1  0  0  0  0
 15 42  1  0  0  0  0
 16 17  1  0  0  0  0
 16 43  1  0  0  0  0
 17 44  1  0  0  0  0
 17 45  1  0  0  0  0
 18 19  2  0  0  0  0
 18 20  1  0  0  0  0
 20 21  1  0  0  0  0
 20 23  2  0  0  0  0
 21 22  3  0  0  0  0
 23 24  1  0  0  0  0
 24 46  1  0  0  0  0
 24 47  1  0  0  0  0
 24 48  1  0  0  0  0
M  END
> <s_m_source_file>
AV-unprocessed.smi

> <i_m_source_file_index>
1401

> <i_lp_mmshare_version>
43012

> <i_f3d_flags>
0

> <s_epik_input>
TiNDYyhjMVtDSDNdKWMoPU8pbihuYzFbQ0gzXSlbQ0gyXUMoPU8pW05IXVtDQEhdKFtDSDNdKVtDQEhdKFtDSDJdW0NASF0yMylbQ0BIXShbQ0gyXTMpW0NIMl1bQ0gyXTI=

> <s_epik_cmdline>
J2VwaWtfcHl0aG9uJywgJy1waCcsICc3LjAnLCAnLXRuJywgJzgnLCAnLW1hJywgJzIwMCcsICctbWV0YWxfYmluZGluZycsICctaW1hZScsICc8aW5maWxlLm1hZT4nLCAnLW9tYWUnLCAnPG91dGZpbGUubWFlPic=

> <r_lp_tautomer_probability>
1

> <r_epik_Ionization_Penalty>
2.16501e-08

> <r_epik_Ionization_Penalty_Charging>
2.29436e-11

> <r_epik_Ionization_Penalty_Neutral>
2.16271e-08

> <r_epik_State_Penalty>
-0

> <r_epik_Charging_Adjusted_Penalty>
2.29436e-11

> <i_epik_Tot_Q>
0

> <i_epik_Tot_abs_Q>
0

> <r_epik_Metal_State_Penalty>
-0

> <b_epik_Metal_Only>
0

> <s_lp_Force_Field>
OPLS_2005

> <r_lp_Energy>
66.0828

> <b_lp_Chiralities_Consistent>
1

> <s_lp_Variant>
AV-unprocessed.smi:1401-8

> <Gold.Version>
5.8.1

> <Gold.Id.Protein>
6NUR|6NUR_protein|mol2

> <Gold.PLP.Fitness>
45.7564

> <Gold.PLP.PLP>
-37.0348

> <Gold.PLP.part.hbond>
-4.0000

> <Gold.PLP.part.metal>
0.0000

> <Gold.PLP.part.buried>
-1.1341

> <Gold.PLP.part.nonpolar>
-31.8058

> <Gold.PLP.part.repulsive>
0.2810

> <Gold.PLP.ligand.clash>
0.0000

> <Gold.PLP.ligand.torsion>
0.1802

> <Gold.PLP.Chemscore.Hbond>
3.0000

> <Gold.PLP.Chemscore.CHOScore>
0.0000

> <Gold.PLP.Chemscore.Metal>
0.0000

> <Gold.Chemscore.Hbonds>
donor molecule, donor type, donor heavy atom, donor atom, acceptor molecule, acceptor atom, score
      L1  H     8    30       P1  7948  1.00
      P1  H  7997  8010       L1    22  1.00
      P1  H 10752 10764       L1    19  1.00

> <Gold.PLP.Chemscore.Internal.Correction>
0.0820

> <Gold.Rescore>
     Score         DG    S(hbond)    S(metal)    S(lipo)     H(rot)  DE(clash)    DE(int)     intcor
     21.51     -21.74       3.00        0.00      89.06       1.63       0.15       0.09       ----

> <Gold.Chemscore.Fitness>
21.5067

> <Gold.Chemscore.DG>
-21.7437

> <Gold.Chemscore.ZeroCoef>
-5.4800

> <Gold.Chemscore.Hbond>
2.9974

> <Gold.Chemscore.Metal>
0.0000

> <Gold.Chemscore.Lipo>
89.0606

> <Gold.Chemscore.Internal_Hbond>
0.0000

> <Gold.Chemscore.DEClash>
0.1457

> <Gold.Chemscore.DEInternal>
0.0914

> <Gold.Chemscore.Rot>
1.6281

> <Gold.Chemscore.Internal.Correction>
   9.000000E+99

> <Gold.Chemscore.Hbonds>
donor molecule, donor type, donor heavy atom, donor atom, acceptor molecule, acceptor atom, score
      L1  H     8    30       P1  7948  1.00
      P1  H  7997  8010       L1    22  1.00
      P1  H 10752 10764       L1    19  1.00

> <Gold.Chemscore.Hbond.Weighted>
-10.0114

> <Gold.Chemscore.Metal.Weighted>
-0.0000

> <Gold.Chemscore.Lipo.Weighted>
-10.4201

> <Gold.Chemscore.Internal_Hbond.Weighted>
0.0000

> <Gold.Chemscore.DEClash.Weighted>
0.1457

> <Gold.Chemscore.DEInternal.Weighted>
0.0914

> <Gold.Chemscore.Rot.Weighted>
4.1678

> <Gold.Chemscore.Internal.Correction.Weighted>
   9.000000E+99

> <Gold.Protein.RotatedTorsions>
[ 6907 6896 6895 6894 ] final -130.76 input  -60.11 | X-H torsion
[ 7974 7965 7964 7962 ] final  100.71 input  175.53 | X-H torsion
[ 8008 7997 7996 7995 ] final   91.86 input   59.86 | X-H torsion
[ 10167 10162 10161 10158 ] final  117.30 input  -65.29 | X-H torsion
[ 10718 10713 10712 10709 ] final  157.97 input   66.30 | X-H torsion
[ 10763 10752 10751 10750 ] final  -61.82 input  -60.55 | X-H torsion
[ 11005 11000 10999 10996 ] final   74.15 input  -57.11 | X-H torsion

> <Gold.Protein.ActiveResidues>
 VAL166  LYS551  ARG553  GLY616  TRP617  ASP618  TYR619  PRO620  LYS621  CYS622 
 ASP623  PHE694  ASN695  SER759  ASP760  ASP761  ALA762  ILE779  LEU786  VAL792 
 PHE793  MET794  SER795  GLU796  ALA797  LYS798  CYS799  TRP800  GLU811  SER814 

> <Gold.Protein.RotatedAtoms>
  150.9434  133.6631  159.2785 H   0  0  0  0  0  0  0  0  0  0  0  0  # atno 6907 bound_to 6896
  151.4012  135.0970  159.9566 H   0  0  0  0  0  0  0  0  0  0  0  0  # atno 6908 bound_to 6896
  152.5079  133.8927  159.7457 H   0  0  0  0  0  0  0  0  0  0  0  0  # atno 6909 bound_to 6896
  145.3820  139.2378  143.3398 H   0  0  0  0  0  0  0  0  0  0  0  0  # atno 7974 bound_to 7965
  156.0287  140.3332  155.7116 H   0  0  0  0  0  0  0  0  0  0  0  0  # atno 8008 bound_to 7997
  155.5917  140.0647  157.2774 H   0  0  0  0  0  0  0  0  0  0  0  0  # atno 8009 bound_to 7997
  154.4344  140.1826  156.1069 H   0  0  0  0  0  0  0  0  0  0  0  0  # atno 8010 bound_to 7997
  139.6188  144.7097  151.2680 H   0  0  0  0  0  0  0  0  0  0  0  0  # atno 10167 bound_to 10162
  157.1842  131.0639  151.2115 H   0  0  0  0  0  0  0  0  0  0  0  0  # atno 10718 bound_to 10713
  154.2904  135.6254  153.5383 H   0  0  0  0  0  0  0  0  0  0  0  0  # atno 10763 bound_to 10752
  152.9853  135.5654  154.5396 H   0  0  0  0  0  0  0  0  0  0  0  0  # atno 10764 bound_to 10752
  154.5005  135.2872  155.1400 H   0  0  0  0  0  0  0  0  0  0  0  0  # atno 10765 bound_to 10752
  139.9405  134.7408  156.1113 H   0  0  0  0  0  0  0  0  0  0  0  0  # atno 11005 bound_to 11000
  146.2837  140.4489  142.8766 LP  0  0  0  0  0  0  0  0  0  0  0  0  # atno 17320 bound_to 7965
  144.8501  140.6988  143.6174 LP  0  0  0  0  0  0  0  0  0  0  0  0  # atno 17321 bound_to 7965
  140.7369  143.6695  150.8094 LP  0  0  0  0  0  0  0  0  0  0  0  0  # atno 17342 bound_to 10162
  140.0302  143.5451  152.2763 LP  0  0  0  0  0  0  0  0  0  0  0  0  # atno 17343 bound_to 10162
  157.3923  130.7288  149.6706 LP  0  0  0  0  0  0  0  0  0  0  0  0  # atno 17370 bound_to 10713
  155.9720  130.4143  150.4126 LP  0  0  0  0  0  0  0  0  0  0  0  0  # atno 17371 bound_to 10713
  141.1037  133.6668  156.2813 LP  0  0  0  0  0  0  0  0  0  0  0  0  # atno 17394 bound_to 11000
  140.5965  134.5598  157.5509 LP  0  0  0  0  0  0  0  0  0  0  0  0  # atno 17395 bound_to 11000

$$$$
