AV-unprocessed.smi:3243|AV-procd|sdf|12395|dock9
  -GOLD-   2272018263D 1   1.00000     0.00000
 Structure written by MMmdl.
 37 38  0  0  0  0  0  0  0  0  1 V2000
  153.4857  141.3042  161.4256 C   0  0  0  0  0  0  0  0  0  0  0  0
  153.1138  142.7596  161.1076 C   0  0  0  0  0  0  0  0  0  0  0  0
  152.2171  143.3846  162.1860 C   0  0  0  0  0  0  0  0  0  0  0  0
  152.5210  142.8956  159.7392 C   0  0  0  0  0  0  0  0  0  0  0  0
  151.3986  142.2775  159.3606 N   0  0  0  0  0  0  0  0  0  0  0  0
  151.0410  142.5642  158.0393 C   0  0  0  0  0  0  0  0  0  0  0  0
  149.8035  141.9581  157.4503 C   0  0  0  0  0  0  0  0  0  0  0  0
  150.1263  140.9107  156.3715 C   0  0  0  0  0  0  0  0  0  0  0  0
  150.2005  139.5664  156.9322 N   0  0  0  0  0  0  0  0  0  0  0  0
  151.2191  138.7112  156.7565 C   0  0  0  0  0  0  0  0  0  0  0  0
  152.2094  138.9838  156.0767 O   0  0  0  0  0  0  0  0  0  0  0  0
  151.0356  137.4045  157.4637 C   0  0  1  0  0  0  0  0  0  0  0  0
  152.0755  136.9922  158.4875 C   0  0  0  0  0  0  0  0  0  0  0  0
  150.6921  137.3864  158.9472 C   0  0  1  0  0  0  0  0  0  0  0  0
  150.4777  138.6326  159.7885 C   0  0  0  0  0  0  0  0  0  0  0  0
  151.9160  143.4173  157.4147 C   0  0  0  0  0  0  0  0  0  0  0  0
  153.2215  143.8920  158.4653 S   0  0  0  0  0  0  0  0  0  0  0  0
  154.1821  140.9078  160.6861 H   0  0  0  0  0  0  0  0  0  0  0  0
  152.6056  140.6605  161.4334 H   0  0  0  0  0  0  0  0  0  0  0  0
  153.9625  141.2254  162.4029 H   0  0  0  0  0  0  0  0  0  0  0  0
  154.0454  143.3279  161.1080 H   0  0  0  0  0  0  0  0  0  0  0  0
  152.0217  144.4358  161.9720 H   0  0  0  0  0  0  0  0  0  0  0  0
  152.6884  143.3305  163.1674 H   0  0  0  0  0  0  0  0  0  0  0  0
  151.2563  142.8732  162.2517 H   0  0  0  0  0  0  0  0  0  0  0  0
  149.2076  141.4998  158.2407 H   0  0  0  0  0  0  0  0  0  0  0  0
  149.1767  142.7408  157.0212 H   0  0  0  0  0  0  0  0  0  0  0  0
  149.3494  140.9130  155.6064 H   0  0  0  0  0  0  0  0  0  0  0  0
  151.0609  141.1582  155.8651 H   0  0  0  0  0  0  0  0  0  0  0  0
  149.4227  139.2666  157.5023 H   0  0  0  0  0  0  0  0  0  0  0  0
  150.5866  136.6084  156.8714 H   0  0  0  0  0  0  0  0  0  0  0  0
  152.3418  135.9378  158.5230 H   0  0  0  0  0  0  0  0  0  0  0  0
  152.8942  137.6759  158.7053 H   0  0  0  0  0  0  0  0  0  0  0  0
  150.0271  136.5748  159.2361 H   0  0  0  0  0  0  0  0  0  0  0  0
  151.2824  139.3541  159.6513 H   0  0  0  0  0  0  0  0  0  0  0  0
  150.4457  138.3645  160.8444 H   0  0  0  0  0  0  0  0  0  0  0  0
  149.5322  139.1056  159.5236 H   0  0  0  0  0  0  0  0  0  0  0  0
  151.8703  143.7955  156.4041 H   0  0  0  0  0  0  0  0  0  0  0  0
  1  2  1  0  0  0  0
  1 18  1  0  0  0  0
  1 19  1  0  0  0  0
  1 20  1  0  0  0  0
  2  3  1  0  0  0  0
  2  4  1  0  0  0  0
  2 21  1  0  0  0  0
  3 22  1  0  0  0  0
  3 23  1  0  0  0  0
  3 24  1  0  0  0  0
  4 17  1  0  0  0  0
  4  5  2  0  0  0  0
  5  6  1  0  0  0  0
  6  7  1  0  0  0  0
  6 16  2  0  0  0  0
  7  8  1  0  0  0  0
  7 25  1  0  0  0  0
  7 26  1  0  0  0  0
  8  9  1  0  0  0  0
  8 27  1  0  0  0  0
  8 28  1  0  0  0  0
  9 10  1  0  0  0  0
  9 29  1  0  0  0  0
 10 11  2  0  0  0  0
 10 12  1  0  0  0  0
 12 14  1  0  0  0  0
 12 13  1  0  0  0  0
 12 30  1  0  0  0  0
 13 14  1  0  0  0  0
 13 31  1  0  0  0  0
 13 32  1  0  0  0  0
 14 15  1  0  0  0  0
 14 33  1  0  0  0  0
 15 34  1  0  0  0  0
 15 35  1  0  0  0  0
 15 36  1  0  0  0  0
 16 17  1  0  0  0  0
 16 37  1  0  0  0  0
M  END
> <s_m_source_file>
AV-unprocessed.smi

> <i_m_source_file_index>
3243

> <i_lp_mmshare_version>
43012

> <i_f3d_flags>
0

> <s_epik_input>
W0NIM11bQ0hdKFtDSDNdKWMxbmMoW2NIXXMxKVtDSDJdW0NIMl1bTkhdQyg9TylbQ0BASF0yW0NIMl1bQ0BIXTJbQ0gzXQ==

> <s_epik_cmdline>
J2VwaWtfcHl0aG9uJywgJy1waCcsICc3LjAnLCAnLXRuJywgJzgnLCAnLW1hJywgJzIwMCcsICctbWV0YWxfYmluZGluZycsICctaW1hZScsICc8aW5maWxlLm1hZT4nLCAnLW9tYWUnLCAnPG91dGZpbGUubWFlPic=

> <r_epik_Ionization_Penalty>
0.00084212

> <r_epik_Ionization_Penalty_Charging>
0

> <r_epik_Ionization_Penalty_Neutral>
0.00084212

> <r_epik_State_Penalty>
0.000542609

> <r_epik_Charging_Adjusted_Penalty>
0.000542609

> <i_epik_Tot_Q>
0

> <i_epik_Tot_abs_Q>
0

> <r_epik_Metal_State_Penalty>
-0

> <b_epik_Metal_Only>
0

> <s_lp_Force_Field>
OPLS_2005

> <r_lp_Energy>
-2.57645

> <b_lp_Chiralities_Consistent>
1

> <s_lp_Variant>
AV-unprocessed.smi:3243-2

> <Gold.Version>
5.8.1

> <Gold.Id.Protein>
6NUR|6NUR_protein|mol2

> <Gold.PLP.Fitness>
44.1706

> <Gold.PLP.PLP>
-37.2673

> <Gold.PLP.part.hbond>
-1.9967

> <Gold.PLP.part.metal>
0.0000

> <Gold.PLP.part.buried>
-4.4413

> <Gold.PLP.part.nonpolar>
-32.4125

> <Gold.PLP.part.repulsive>
0.0765

> <Gold.PLP.ligand.clash>
0.0000

> <Gold.PLP.ligand.torsion>
0.4473

> <Gold.PLP.Chemscore.Hbond>
1.5464

> <Gold.PLP.Chemscore.CHOScore>
1.0000

> <Gold.PLP.Chemscore.Metal>
0.0000

> <Gold.PLP.Chemscore.Internal.Correction>
0.1589

> <Gold.Rescore>
     Score         DG    S(hbond)    S(metal)    S(lipo)     H(rot)  DE(clash)    DE(int)     intcor
     18.00     -18.56       1.30        0.00     107.27       1.49       0.04       0.52       ----

> <Gold.Chemscore.Fitness>
17.9958

> <Gold.Chemscore.DG>
-18.5579

> <Gold.Chemscore.ZeroCoef>
-5.4800

> <Gold.Chemscore.Hbond>
1.2977

> <Gold.Chemscore.Metal>
0.0000

> <Gold.Chemscore.Lipo>
107.2673

> <Gold.Chemscore.Internal_Hbond>
0.0000

> <Gold.Chemscore.DEClash>
0.0376

> <Gold.Chemscore.DEInternal>
0.5244

> <Gold.Chemscore.Rot>
1.4870

> <Gold.Chemscore.Internal.Correction>
   9.000000E+99

> <Gold.Chemscore.Hbonds>
donor molecule, donor type, donor heavy atom, donor atom, acceptor molecule, acceptor atom, score
      P1  H  7997  8009       L1    11  0.02

> <Gold.Chemscore.Hbond.Weighted>
-4.3343

> <Gold.Chemscore.Metal.Weighted>
-0.0000

> <Gold.Chemscore.Lipo.Weighted>
-12.5503

> <Gold.Chemscore.Internal_Hbond.Weighted>
0.0000

> <Gold.Chemscore.DEClash.Weighted>
0.0376

> <Gold.Chemscore.DEInternal.Weighted>
0.5244

> <Gold.Chemscore.Rot.Weighted>
3.8067

> <Gold.Chemscore.Internal.Correction.Weighted>
   9.000000E+99

> <Gold.Protein.RotatedTorsions>
[ 6907 6896 6895 6894 ] final -132.25 input  -60.11 | X-H torsion
[ 7974 7965 7964 7962 ] final   28.02 input  175.53 | X-H torsion
[ 8008 7997 7996 7995 ] final -141.26 input   59.86 | X-H torsion
[ 10167 10162 10161 10158 ] final    1.36 input  -65.29 | X-H torsion
[ 10718 10713 10712 10709 ] final  -11.88 input   66.30 | X-H torsion
[ 10763 10752 10751 10750 ] final   11.94 input  -60.55 | X-H torsion
[ 11005 11000 10999 10996 ] final  -85.18 input  -57.11 | X-H torsion

> <Gold.Protein.ActiveResidues>
 VAL166  LYS551  ARG553  GLY616  TRP617  ASP618  TYR619  PRO620  LYS621  CYS622 
 ASP623  PHE694  ASN695  SER759  ASP760  ASP761  ALA762  ILE779  LEU786  VAL792 
 PHE793  MET794  SER795  GLU796  ALA797  LYS798  CYS799  TRP800  GLU811  SER814 

> <Gold.Protein.RotatedAtoms>
  150.9603  133.6453  159.2755 H   0  0  0  0  0  0  0  0  0  0  0  0  # atno 6907 bound_to 6896
  151.3778  135.0933  159.9496 H   0  0  0  0  0  0  0  0  0  0  0  0  # atno 6908 bound_to 6896
  152.5145  133.9143  159.7558 H   0  0  0  0  0  0  0  0  0  0  0  0  # atno 6909 bound_to 6896
  146.1752  139.7113  142.8939 H   0  0  0  0  0  0  0  0  0  0  0  0  # atno 7974 bound_to 7965
  155.4749  140.0556  157.2975 H   0  0  0  0  0  0  0  0  0  0  0  0  # atno 8008 bound_to 7997
  154.4683  140.2029  156.0013 H   0  0  0  0  0  0  0  0  0  0  0  0  # atno 8009 bound_to 7997
  156.1013  140.3218  155.7950 H   0  0  0  0  0  0  0  0  0  0  0  0  # atno 8010 bound_to 7997
  140.6686  143.7110  150.7877 H   0  0  0  0  0  0  0  0  0  0  0  0  # atno 10167 bound_to 10162
  156.6526  130.4959  149.6057 H   0  0  0  0  0  0  0  0  0  0  0  0  # atno 10718 bound_to 10713
  153.1874  135.6837  153.8397 H   0  0  0  0  0  0  0  0  0  0  0  0  # atno 10763 bound_to 10752
  153.7708  135.3196  155.3352 H   0  0  0  0  0  0  0  0  0  0  0  0  # atno 10764 bound_to 10752
  154.8097  135.4725  154.0581 H   0  0  0  0  0  0  0  0  0  0  0  0  # atno 10765 bound_to 10752
  141.1643  133.7386  156.8978 H   0  0  0  0  0  0  0  0  0  0  0  0  # atno 11005 bound_to 11000
  145.4230  141.0408  143.2953 LP  0  0  0  0  0  0  0  0  0  0  0  0  # atno 17320 bound_to 7965
  144.8225  139.5766  143.6980 LP  0  0  0  0  0  0  0  0  0  0  0  0  # atno 17321 bound_to 7965
  140.0792  143.4985  152.2539 LP  0  0  0  0  0  0  0  0  0  0  0  0  # atno 17342 bound_to 10162
  139.5945  144.7562  151.3320 LP  0  0  0  0  0  0  0  0  0  0  0  0  # atno 17343 bound_to 10162
  156.2072  130.6657  151.1231 LP  0  0  0  0  0  0  0  0  0  0  0  0  # atno 17370 bound_to 10713
  157.7136  131.0721  150.6411 LP  0  0  0  0  0  0  0  0  0  0  0  0  # atno 17371 bound_to 10713
  140.1604  134.9169  157.2707 LP  0  0  0  0  0  0  0  0  0  0  0  0  # atno 17394 bound_to 11000
  140.2618  134.3562  155.7404 LP  0  0  0  0  0  0  0  0  0  0  0  0  # atno 17395 bound_to 11000

$$$$
