AV-unprocessed.smi:124|AV-procd|sdf|1147|dock5
  -GOLD-   2262018283D 1   1.00000     0.00000
 Structure written by MMmdl.
 52 56  0  0  0  0  0  0  0  0  1 V2000
  152.8068  139.1745  155.9030 O   0  0  0  0  0  0  0  0  0  0  0  0
  151.7586  139.4174  156.5036 C   0  0  0  0  0  0  0  0  0  0  0  0
  151.4873  138.7110  157.8456 C   0  0  0  0  0  0  0  0  0  0  0  0
  150.5621  137.5876  157.7331 N   0  0  0  0  0  0  0  0  0  0  0  0
  150.8736  136.5679  156.7994 C   0  0  0  0  0  0  0  0  0  0  0  0
  151.8870  136.6067  156.0992 O   0  0  0  0  0  0  0  0  0  0  0  0
  149.8893  135.4949  156.7263 C   0  0  0  0  0  0  0  0  0  0  0  0
  150.0595  134.4963  155.8434 F   0  0  0  0  0  0  0  0  0  0  0  0
  148.7980  135.4939  157.5216 C   0  0  0  0  0  0  0  0  0  0  0  0
  148.5406  136.4777  158.4629 N   0  0  0  0  0  0  0  0  0  0  0  0
  147.2527  136.4913  159.2605 C   0  0  2  0  0  0  0  0  0  0  0  0
  147.4581  136.4727  160.7856 C   0  0  0  0  0  0  0  0  0  0  0  0
  147.0690  135.0530  161.1499 C   0  0  0  0  0  0  0  0  0  0  0  0
  146.0261  134.7345  160.0858 C   0  0  0  0  0  0  0  0  0  0  0  0
  146.5285  135.3513  158.9077 O   0  0  0  0  0  0  0  0  0  0  0  0
  149.4001  137.5979  158.5432 C   0  0  0  0  0  0  0  0  0  0  0  0
  149.1414  138.5453  159.2892 O   0  0  0  0  0  0  0  0  0  0  0  0
  150.7289  140.3572  156.0392 C   0  0  0  0  0  0  0  0  0  0  0  0
  150.5700  141.6274  156.5606 C   0  0  0  0  0  0  0  0  0  0  0  0
  151.3015  142.3694  157.5812 C   0  0  0  0  0  0  0  0  0  0  0  0
  151.9978  141.6838  158.5995 C   0  0  0  0  0  0  0  0  0  0  0  0
  152.6996  142.3977  159.5902 C   0  0  0  0  0  0  0  0  0  0  0  0
  152.7070  143.8053  159.5719 C   0  0  0  0  0  0  0  0  0  0  0  0
  152.0116  144.4972  158.5622 C   0  0  0  0  0  0  0  0  0  0  0  0
  151.3110  143.7810  157.5723 C   0  0  0  0  0  0  0  0  0  0  0  0
  149.4981  142.2454  155.9465 N   0  0  0  0  0  0  0  0  0  0  0  0
  148.9373  141.4255  154.9957 C   0  0  0  0  0  0  0  0  0  0  0  0
  147.8510  141.6194  154.1230 C   0  0  0  0  0  0  0  0  0  0  0  0
  147.4872  140.5969  153.2312 C   0  0  0  0  0  0  0  0  0  0  0  0
  148.2140  139.3936  153.2229 C   0  0  0  0  0  0  0  0  0  0  0  0
  149.2994  139.2097  154.1030 C   0  0  0  0  0  0  0  0  0  0  0  0
  149.6993  140.2170  155.0218 C   0  0  0  0  0  0  0  0  0  0  0  0
  149.1980  143.1815  156.1776 H   0  0  0  0  0  0  0  0  0  0  0  0
  152.4124  138.3287  158.2786 H   0  0  0  0  0  0  0  0  0  0  0  0
  151.0779  139.4093  158.5766 H   0  0  0  0  0  0  0  0  0  0  0  0
  148.1001  134.6819  157.3950 H   0  0  0  0  0  0  0  0  0  0  0  0
  146.7187  137.3958  158.9657 H   0  0  0  0  0  0  0  0  0  0  0  0
  148.4617  136.7668  161.0925 H   0  0  0  0  0  0  0  0  0  0  0  0
  146.7521  137.1751  161.2307 H   0  0  0  0  0  0  0  0  0  0  0  0
  147.9215  134.3807  161.0522 H   0  0  0  0  0  0  0  0  0  0  0  0
  146.6810  134.9643  162.1648 H   0  0  0  0  0  0  0  0  0  0  0  0
  145.8790  133.6634  159.9461 H   0  0  0  0  0  0  0  0  0  0  0  0
  145.0653  135.1826  160.3435 H   0  0  0  0  0  0  0  0  0  0  0  0
  151.9973  140.6038  158.6203 H   0  0  0  0  0  0  0  0  0  0  0  0
  153.2322  141.8650  160.3642 H   0  0  0  0  0  0  0  0  0  0  0  0
  153.2448  144.3536  160.3314 H   0  0  0  0  0  0  0  0  0  0  0  0
  152.0148  145.5770  158.5460 H   0  0  0  0  0  0  0  0  0  0  0  0
  150.7792  144.3188  156.8009 H   0  0  0  0  0  0  0  0  0  0  0  0
  147.3008  142.5485  154.1370 H   0  0  0  0  0  0  0  0  0  0  0  0
  146.6556  140.7347  152.5558 H   0  0  0  0  0  0  0  0  0  0  0  0
  147.9390  138.6054  152.5375 H   0  0  0  0  0  0  0  0  0  0  0  0
  149.8246  138.2705  154.0544 H   0  0  0  0  0  0  0  0  0  0  0  0
  1  2  2  0  0  0  0
  2  3  1  0  0  0  0
  2 18  1  0  0  0  0
  3  4  1  0  0  0  0
  3 34  1  0  0  0  0
  3 35  1  0  0  0  0
  4 16  1  0  0  0  0
  4  5  1  0  0  0  0
  5  6  2  0  0  0  0
  5  7  1  0  0  0  0
  7  8  1  0  0  0  0
  7  9  2  0  0  0  0
  9 10  1  0  0  0  0
  9 36  1  0  0  0  0
 10 11  1  0  0  0  0
 10 16  1  0  0  0  0
 11 15  1  0  0  0  0
 11 12  1  0  0  0  0
 11 37  1  0  0  0  0
 12 13  1  0  0  0  0
 12 38  1  0  0  0  0
 12 39  1  0  0  0  0
 13 14  1  0  0  0  0
 13 40  1  0  0  0  0
 13 41  1  0  0  0  0
 14 15  1  0  0  0  0
 14 42  1  0  0  0  0
 14 43  1  0  0  0  0
 16 17  2  0  0  0  0
 18 32  1  0  0  0  0
 18 19  2  0  0  0  0
 19 20  1  0  0  0  0
 19 26  1  0  0  0  0
 20 25  1  0  0  0  0
 20 21  2  0  0  0  0
 21 22  1  0  0  0  0
 21 44  1  0  0  0  0
 22 23  2  0  0  0  0
 22 45  1  0  0  0  0
 23 24  1  0  0  0  0
 23 46  1  0  0  0  0
 24 25  2  0  0  0  0
 24 47  1  0  0  0  0
 25 48  1  0  0  0  0
 26 33  1  0  0  0  0
 26 27  1  0  0  0  0
 27 32  1  0  0  0  0
 27 28  2  0  0  0  0
 28 29  1  0  0  0  0
 28 49  1  0  0  0  0
 29 30  2  0  0  0  0
 29 50  1  0  0  0  0
 30 31  1  0  0  0  0
 30 51  1  0  0  0  0
 31 32  2  0  0  0  0
 31 52  1  0  0  0  0
M  END
> <s_m_source_file>
AV-unprocessed.smi

> <i_m_source_file_index>
124

> <i_lp_mmshare_version>
43012

> <i_f3d_flags>
0

> <s_epik_input>
W2NIXTFbY0hdW2NIXVtjSF1bY0hdYzEtYyhbbkhdMiljKGMoYzIzKVtjSF1bY0hdW2NIXVtjSF0zKUMoPU8pW0NIMl1uNGMoPU8pYyhGKVtjSF1uKGM0PU8pW0NAQEhdNVtDSDJdW0NIMl1bQ0gyXU81

> <s_epik_cmdline>
J2VwaWtfcHl0aG9uJywgJy1waCcsICc3LjAnLCAnLXRuJywgJzgnLCAnLW1hJywgJzIwMCcsICctbWV0YWxfYmluZGluZycsICctaW1hZScsICc8aW5maWxlLm1hZT4nLCAnLW9tYWUnLCAnPG91dGZpbGUubWFlPic=

> <r_lp_tautomer_probability>
1

> <r_epik_Ionization_Penalty>
1.43207e-08

> <r_epik_Ionization_Penalty_Charging>
5.01743e-09

> <r_epik_Ionization_Penalty_Neutral>
9.30329e-09

> <r_epik_State_Penalty>
-0

> <r_epik_Charging_Adjusted_Penalty>
5.01743e-09

> <i_epik_Tot_Q>
0

> <i_epik_Tot_abs_Q>
0

> <r_epik_Metal_State_Penalty>
-0

> <b_epik_Metal_Only>
0

> <s_epik_Chemistry_Notes>
This compound contains an acetal/aminal-like group ( X-CH(R)-Y where X, Y are N, S, or O) that may be acid/base labile, releasing an aldehyde.

> <s_lp_Force_Field>
OPLS_2005

> <r_lp_Energy>
48.315

> <b_lp_Chiralities_Consistent>
1

> <s_lp_Variant>
AV-unprocessed.smi:124-1

> <Gold.Version>
5.8.1

> <Gold.Id.Protein>
6NUR|6NUR_protein|mol2

> <Gold.PLP.Fitness>
63.1286

> <Gold.PLP.PLP>
-56.8999

> <Gold.PLP.part.hbond>
-4.7915

> <Gold.PLP.part.metal>
0.0000

> <Gold.PLP.part.buried>
-1.2310

> <Gold.PLP.part.nonpolar>
-51.7347

> <Gold.PLP.part.repulsive>
0.1438

> <Gold.PLP.ligand.clash>
0.0000

> <Gold.PLP.ligand.torsion>
2.0506

> <Gold.PLP.Chemscore.Hbond>
2.9120

> <Gold.PLP.Chemscore.CHOScore>
0.0000

> <Gold.PLP.Chemscore.Metal>
0.0000

> <Gold.Chemscore.Hbonds>
donor molecule, donor type, donor heavy atom, donor atom, acceptor molecule, acceptor atom, score
      L1  H    26    33       P1  8028  0.96
      P1  H  7997  8009       L1     1  1.00
      P1  H 10752 10765       L1     6  1.00

> <Gold.PLP.Chemscore.Internal.Correction>
1.5938

> <Gold.Rescore>
     Score         DG    S(hbond)    S(metal)    S(lipo)     H(rot)  DE(clash)    DE(int)     intcor
     24.60     -27.77       2.89        0.00     142.05       1.55       0.24       2.93       ----

> <Gold.Chemscore.Fitness>
24.5989

> <Gold.Chemscore.DG>
-27.7696

> <Gold.Chemscore.ZeroCoef>
-5.4800

> <Gold.Chemscore.Hbond>
2.8882

> <Gold.Chemscore.Metal>
0.0000

> <Gold.Chemscore.Lipo>
142.0535

> <Gold.Chemscore.Internal_Hbond>
0.0000

> <Gold.Chemscore.DEClash>
0.2377

> <Gold.Chemscore.DEInternal>
2.9330

> <Gold.Chemscore.Rot>
1.5537

> <Gold.Chemscore.Internal.Correction>
   9.000000E+99

> <Gold.Chemscore.Hbonds>
donor molecule, donor type, donor heavy atom, donor atom, acceptor molecule, acceptor atom, score
      L1  H    26    33       P1  8028  0.92
      P1  H  7997  8009       L1     1  0.95
      P1  H 10752 10765       L1     6  0.97

> <Gold.Chemscore.Hbond.Weighted>
-9.6467

> <Gold.Chemscore.Metal.Weighted>
-0.0000

> <Gold.Chemscore.Lipo.Weighted>
-16.6203

> <Gold.Chemscore.Internal_Hbond.Weighted>
0.0000

> <Gold.Chemscore.DEClash.Weighted>
0.2377

> <Gold.Chemscore.DEInternal.Weighted>
2.9330

> <Gold.Chemscore.Rot.Weighted>
3.9774

> <Gold.Chemscore.Internal.Correction.Weighted>
   9.000000E+99

> <Gold.Protein.RotatedTorsions>
[ 6907 6896 6895 6894 ] final  -79.20 input  -60.11 | X-H torsion
[ 7974 7965 7964 7962 ] final -172.58 input  175.53 | X-H torsion
[ 8008 7997 7996 7995 ] final -168.84 input   59.86 | X-H torsion
[ 10167 10162 10161 10158 ] final   60.10 input  -65.29 | X-H torsion
[ 10718 10713 10712 10709 ] final -168.01 input   66.30 | X-H torsion
[ 10763 10752 10751 10750 ] final -159.80 input  -60.55 | X-H torsion
[ 11005 11000 10999 10996 ] final   34.35 input  -57.11 | X-H torsion

> <Gold.Protein.ActiveResidues>
 VAL166  LYS551  ARG553  GLY616  TRP617  ASP618  TYR619  PRO620  LYS621  CYS622 
 ASP623  PHE694  ASN695  SER759  ASP760  ASP761  ALA762  ILE779  LEU786  VAL792 
 PHE793  MET794  SER795  GLU796  ALA797  LYS798  CYS799  TRP800  GLU811  SER814 

> <Gold.Protein.RotatedAtoms>
  150.6955  134.4157  159.5181 H   0  0  0  0  0  0  0  0  0  0  0  0  # atno 6907 bound_to 6896
  152.1908  134.8670  160.0527 H   0  0  0  0  0  0  0  0  0  0  0  0  # atno 6908 bound_to 6896
  151.9626  133.3665  159.4078 H   0  0  0  0  0  0  0  0  0  0  0  0  # atno 6909 bound_to 6896
  144.7145  140.1751  143.6363 H   0  0  0  0  0  0  0  0  0  0  0  0  # atno 7974 bound_to 7965
  155.8968  140.1034  157.1378 H   0  0  0  0  0  0  0  0  0  0  0  0  # atno 8008 bound_to 7997
  154.4021  140.1300  156.4450 H   0  0  0  0  0  0  0  0  0  0  0  0  # atno 8009 bound_to 7997
  155.7469  140.3466  155.5133 H   0  0  0  0  0  0  0  0  0  0  0  0  # atno 8010 bound_to 7997
  140.1693  144.4293  150.6669 H   0  0  0  0  0  0  0  0  0  0  0  0  # atno 10167 bound_to 10162
  156.6908  130.9158  151.3068 H   0  0  0  0  0  0  0  0  0  0  0  0  # atno 10718 bound_to 10713
  154.7444  135.3076  154.8671 H   0  0  0  0  0  0  0  0  0  0  0  0  # atno 10763 bound_to 10752
  153.9476  135.6767  153.4748 H   0  0  0  0  0  0  0  0  0  0  0  0  # atno 10764 bound_to 10752
  153.1041  135.4897  154.8846 H   0  0  0  0  0  0  0  0  0  0  0  0  # atno 10765 bound_to 10752
  140.2537  134.3273  155.7881 H   0  0  0  0  0  0  0  0  0  0  0  0  # atno 11005 bound_to 11000
  145.8908  139.2374  143.1551 LP  0  0  0  0  0  0  0  0  0  0  0  0  # atno 17320 bound_to 7965
  145.9906  140.8606  143.0068 LP  0  0  0  0  0  0  0  0  0  0  0  0  # atno 17321 bound_to 7965
  140.6593  143.2247  151.5895 LP  0  0  0  0  0  0  0  0  0  0  0  0  # atno 17342 bound_to 10162
  139.5345  144.2820  152.1222 LP  0  0  0  0  0  0  0  0  0  0  0  0  # atno 17343 bound_to 10162
  157.7010  130.9332  150.0784 LP  0  0  0  0  0  0  0  0  0  0  0  0  # atno 17370 bound_to 10713
  156.1799  130.3649  149.9049 LP  0  0  0  0  0  0  0  0  0  0  0  0  # atno 17371 bound_to 10713
  141.2198  133.7368  156.9078 LP  0  0  0  0  0  0  0  0  0  0  0  0  # atno 17394 bound_to 11000
  140.1532  134.9216  157.2620 LP  0  0  0  0  0  0  0  0  0  0  0  0  # atno 17395 bound_to 11000

$$$$
