AV-unprocessed.smi:2882|AV-procd|sdf|11072|dock2
  -GOLD-   2272015543D 1   1.00000     0.00000
 Structure written by MMmdl.
 28 30  0  0  0  0  0  0  0  0  1 V2000
  147.1737  142.0577  154.6567 N   0  0  0  0  0  0  0  0  0  0  0  0
  148.1503  141.4380  154.6955 C   0  0  0  0  0  0  0  0  0  0  0  0
  149.3797  140.6568  154.7432 C   0  0  0  0  0  0  0  0  0  0  0  0
  149.4300  139.5531  153.9618 N   0  0  0  0  0  0  0  0  0  0  0  0
  150.5618  138.8183  154.0021 C   0  0  0  0  0  0  0  0  0  0  0  0
  151.6483  139.1817  154.8210 C   0  0  0  0  0  0  0  0  0  0  0  0
  151.6071  140.2809  155.6030 N   0  0  0  0  0  0  0  0  0  0  0  0
  150.4744  141.0269  155.5745 C   0  0  0  0  0  0  0  0  0  0  0  0
  150.4166  142.1763  156.3837 N   0  0  0  0  0  0  0  0  0  0  0  0
  150.6085  142.0911  157.8282 C   0  0  1  0  0  0  0  0  0  0  0  0
  152.0401  141.7174  158.2196 C   0  0  0  0  0  0  0  0  0  0  0  0
  152.4079  142.8484  159.1907 C   0  0  1  0  0  0  0  0  0  0  0  0
  152.6829  144.1623  158.4479 C   0  0  0  0  0  0  0  0  0  0  0  0
  151.2762  144.5774  158.0216 C   0  0  0  0  0  0  0  0  0  0  0  0
  150.4215  143.4257  158.5783 C   0  0  2  0  0  0  0  0  0  0  0  0
  151.1430  143.1354  159.7636 O   0  0  0  0  0  0  0  0  0  0  0  0
  150.6012  137.9375  153.3785 H   0  0  0  0  0  0  0  0  0  0  0  0
  152.5514  138.5901  154.8485 H   0  0  0  0  0  0  0  0  0  0  0  0
  149.9588  142.9996  156.0199 H   0  0  0  0  0  0  0  0  0  0  0  0
  149.9316  141.3417  158.2411 H   0  0  0  0  0  0  0  0  0  0  0  0
  152.0517  140.7515  158.7257 H   0  0  0  0  0  0  0  0  0  0  0  0
  152.7289  141.6637  157.3750 H   0  0  0  0  0  0  0  0  0  0  0  0
  153.1794  142.5794  159.9125 H   0  0  0  0  0  0  0  0  0  0  0  0
  153.1142  144.9061  159.1187 H   0  0  0  0  0  0  0  0  0  0  0  0
  153.3604  144.0289  157.6039 H   0  0  0  0  0  0  0  0  0  0  0  0
  151.0012  145.5201  158.4962 H   0  0  0  0  0  0  0  0  0  0  0  0
  151.1770  144.7040  156.9433 H   0  0  0  0  0  0  0  0  0  0  0  0
  149.3792  143.6955  158.7494 H   0  0  0  0  0  0  0  0  0  0  0  0
  1  2  3  0  0  0  0
  2  3  1  0  0  0  0
  3  8  1  0  0  0  0
  3  4  2  0  0  0  0
  4  5  1  0  0  0  0
  5  6  2  0  0  0  0
  5 17  1  0  0  0  0
  6  7  1  0  0  0  0
  6 18  1  0  0  0  0
  7  8  2  0  0  0  0
  8  9  1  0  0  0  0
  9 10  1  0  0  0  0
  9 19  1  0  0  0  0
 10 15  1  0  0  0  0
 10 11  1  0  0  0  0
 10 20  1  0  0  0  0
 11 12  1  0  0  0  0
 11 21  1  0  0  0  0
 11 22  1  0  0  0  0
 12 16  1  0  0  0  0
 12 13  1  0  0  0  0
 12 23  1  0  0  0  0
 13 14  1  0  0  0  0
 13 24  1  0  0  0  0
 13 25  1  0  0  0  0
 14 15  1  0  0  0  0
 14 26  1  0  0  0  0
 14 27  1  0  0  0  0
 15 16  1  0  0  0  0
 15 28  1  0  0  0  0
M  END
> <s_m_source_file>
AV-unprocessed.smi

> <i_m_source_file_index>
2882

> <i_lp_mmshare_version>
43012

> <i_f3d_flags>
0

> <s_epik_input>
TiNDYzFuW2NIXVtjSF1uYzFbTkhdW0NASF0oW0NIMl1bQ0BASF0yMylbQ0BASF0oTzMpW0NIMl1bQ0gyXTI=

> <s_epik_cmdline>
J2VwaWtfcHl0aG9uJywgJy1waCcsICc3LjAnLCAnLXRuJywgJzgnLCAnLW1hJywgJzIwMCcsICctbWV0YWxfYmluZGluZycsICctaW1hZScsICc8aW5maWxlLm1hZT4nLCAnLW9tYWUnLCAnPG91dGZpbGUubWFlPic=

> <r_lp_tautomer_probability>
1

> <r_epik_Ionization_Penalty>
4.95445e-05

> <r_epik_Ionization_Penalty_Charging>
0

> <r_epik_Ionization_Penalty_Neutral>
4.95445e-05

> <r_epik_State_Penalty>
-0

> <r_epik_Charging_Adjusted_Penalty>
0

> <i_epik_Tot_Q>
0

> <i_epik_Tot_abs_Q>
0

> <r_epik_Metal_State_Penalty>
-0

> <b_epik_Metal_Only>
0

> <s_lp_Force_Field>
OPLS_2005

> <r_lp_Energy>
50.4858

> <b_lp_Chiralities_Consistent>
1

> <s_lp_Variant>
AV-unprocessed.smi:2882-2

> <Gold.Version>
5.8.1

> <Gold.Id.Protein>
6NUR|6NUR_protein|mol2

> <Gold.PLP.Fitness>
39.3407

> <Gold.PLP.PLP>
-35.2032

> <Gold.PLP.part.hbond>
-1.8686

> <Gold.PLP.part.metal>
0.0000

> <Gold.PLP.part.buried>
-6.0933

> <Gold.PLP.part.nonpolar>
-29.4659

> <Gold.PLP.part.repulsive>
1.7873

> <Gold.PLP.ligand.clash>
0.0000

> <Gold.PLP.ligand.torsion>
0.5723

> <Gold.PLP.Chemscore.Hbond>
1.0000

> <Gold.PLP.Chemscore.CHOScore>
0.7574

> <Gold.PLP.Chemscore.Metal>
0.0000

> <Gold.Chemscore.Hbonds>
donor molecule, donor type, donor heavy atom, donor atom, acceptor molecule, acceptor atom, score
      L1  H     9    19       P1  8028  0.93
      L1  C     5    17       P1  7948  0.30
      L1  C     5    17       P1  7949  0.28

> <Gold.PLP.Chemscore.Internal.Correction>
0.0100

> <Gold.Rescore>
     Score         DG    S(hbond)    S(metal)    S(lipo)     H(rot)  DE(clash)    DE(int)     intcor
     15.35     -16.08       0.99        0.00      84.21       1.00       0.03       0.71       ----

> <Gold.Chemscore.Fitness>
15.3463

> <Gold.Chemscore.DG>
-16.0781

> <Gold.Chemscore.ZeroCoef>
-5.4800

> <Gold.Chemscore.Hbond>
0.9896

> <Gold.Chemscore.Metal>
0.0000

> <Gold.Chemscore.Lipo>
84.2115

> <Gold.Chemscore.Internal_Hbond>
0.0000

> <Gold.Chemscore.DEClash>
0.0263

> <Gold.Chemscore.DEInternal>
0.7055

> <Gold.Chemscore.Rot>
1.0000

> <Gold.Chemscore.Internal.Correction>
   9.000000E+99

> <Gold.Chemscore.Hbonds>
donor molecule, donor type, donor heavy atom, donor atom, acceptor molecule, acceptor atom, score
      L1  H     9    19       P1  8028  0.89

> <Gold.Chemscore.Hbond.Weighted>
-3.3053

> <Gold.Chemscore.Metal.Weighted>
-0.0000

> <Gold.Chemscore.Lipo.Weighted>
-9.8527

> <Gold.Chemscore.Internal_Hbond.Weighted>
0.0000

> <Gold.Chemscore.DEClash.Weighted>
0.0263

> <Gold.Chemscore.DEInternal.Weighted>
0.7055

> <Gold.Chemscore.Rot.Weighted>
2.5600

> <Gold.Chemscore.Internal.Correction.Weighted>
   9.000000E+99

> <Gold.Protein.RotatedTorsions>
[ 6907 6896 6895 6894 ] final   10.45 input  -60.11 | X-H torsion
[ 7974 7965 7964 7962 ] final   -9.75 input  175.53 | X-H torsion
[ 8008 7997 7996 7995 ] final -154.31 input   59.86 | X-H torsion
[ 10167 10162 10161 10158 ] final -113.59 input  -65.29 | X-H torsion
[ 10718 10713 10712 10709 ] final  155.66 input   66.30 | X-H torsion
[ 10763 10752 10751 10750 ] final -156.04 input  -60.55 | X-H torsion
[ 11005 11000 10999 10996 ] final  -95.44 input  -57.11 | X-H torsion

> <Gold.Protein.ActiveResidues>
 VAL166  LYS551  ARG553  GLY616  TRP617  ASP618  TYR619  PRO620  LYS621  CYS622 
 ASP623  PHE694  ASN695  SER759  ASP760  ASP761  ALA762  ILE779  LEU786  VAL792 
 PHE793  MET794  SER795  GLU796  ALA797  LYS798  CYS799  TRP800  GLU811  SER814 

> <Gold.Protein.RotatedAtoms>
  151.7384  135.0859  160.0311 H   0  0  0  0  0  0  0  0  0  0  0  0  # atno 6907 bound_to 6896
  152.3495  133.6159  159.5943 H   0  0  0  0  0  0  0  0  0  0  0  0  # atno 6908 bound_to 6896
  150.7531  133.9512  159.3528 H   0  0  0  0  0  0  0  0  0  0  0  0  # atno 6909 bound_to 6896
  146.2242  140.2663  142.8354 H   0  0  0  0  0  0  0  0  0  0  0  0  # atno 7974 bound_to 7965
  155.6844  140.0748  157.2472 H   0  0  0  0  0  0  0  0  0  0  0  0  # atno 8008 bound_to 7997
  154.4099  140.1676  156.2070 H   0  0  0  0  0  0  0  0  0  0  0  0  # atno 8009 bound_to 7997
  155.9506  140.3377  155.6408 H   0  0  0  0  0  0  0  0  0  0  0  0  # atno 8010 bound_to 7997
  140.1102  143.4534  152.1757 H   0  0  0  0  0  0  0  0  0  0  0  0  # atno 10167 bound_to 10162
  157.2154  131.0707  151.1944 H   0  0  0  0  0  0  0  0  0  0  0  0  # atno 10718 bound_to 10713
  154.7742  135.3154  154.8126 H   0  0  0  0  0  0  0  0  0  0  0  0  # atno 10763 bound_to 10752
  153.8854  135.6831  153.4768 H   0  0  0  0  0  0  0  0  0  0  0  0  # atno 10764 bound_to 10752
  153.1362  135.4758  154.9361 H   0  0  0  0  0  0  0  0  0  0  0  0  # atno 10765 bound_to 10752
  141.1442  133.8026  157.0435 H   0  0  0  0  0  0  0  0  0  0  0  0  # atno 11005 bound_to 11000
  144.9302  140.7966  143.5694 LP  0  0  0  0  0  0  0  0  0  0  0  0  # atno 17320 bound_to 7965
  145.2606  139.1994  143.4894 LP  0  0  0  0  0  0  0  0  0  0  0  0  # atno 17321 bound_to 7965
  139.5623  144.7413  151.4120 LP  0  0  0  0  0  0  0  0  0  0  0  0  # atno 17342 bound_to 10162
  140.6930  143.7817  150.7283 LP  0  0  0  0  0  0  0  0  0  0  0  0  # atno 17343 bound_to 10162
  157.3630  130.7141  149.6514 LP  0  0  0  0  0  0  0  0  0  0  0  0  # atno 17370 bound_to 10713
  155.9687  130.4220  150.4496 LP  0  0  0  0  0  0  0  0  0  0  0  0  # atno 17371 bound_to 10713
  140.0677  134.9719  157.1415 LP  0  0  0  0  0  0  0  0  0  0  0  0  # atno 17394 bound_to 11000
  140.3755  134.2344  155.7174 LP  0  0  0  0  0  0  0  0  0  0  0  0  # atno 17395 bound_to 11000

$$$$
