AV-unprocessed.smi:2272|AV-procd|sdf|9163|dock4
  -GOLD-   2272012373D 1   1.00000     0.00000
 Structure written by MMmdl.
 41 42  0  0  0  0  0  0  0  0  1 V2000
  144.2695  141.4841  156.8998 C   0  0  0  0  0  0  0  0  0  0  0  0
  145.6293  141.4127  156.2280 C   0  0  0  0  0  0  0  0  0  0  0  0
  146.4606  140.3730  156.6552 N   0  0  0  0  0  0  0  0  0  0  0  0
  147.6387  140.2364  156.1400 C   0  0  0  0  0  0  0  0  0  0  0  0
  148.1154  141.1084  155.1482 N   0  0  0  0  0  0  0  0  0  0  0  0
  149.4784  140.8524  154.6555 C   0  0  0  0  0  0  0  0  0  0  0  0
  150.4921  140.7132  155.8145 C   0  0  1  0  0  0  0  0  0  0  0  0
  151.6289  140.0178  155.3435 O   0  0  0  0  0  0  0  0  0  0  0  0
  150.9744  142.0761  156.3322 C   0  0  0  0  0  0  0  0  0  0  0  0
  151.4971  141.9048  157.6417 O   0  0  0  0  0  0  0  0  0  0  0  0
  152.1782  143.0443  158.1460 C   0  0  0  0  0  0  0  0  0  0  0  0
  152.5517  142.9182  159.6142 C   0  0  0  0  0  0  0  0  0  0  0  0
  153.2374  141.7725  160.0707 C   0  0  0  0  0  0  0  0  0  0  0  0
  153.5814  141.6471  161.4307 C   0  0  0  0  0  0  0  0  0  0  0  0
  153.2373  142.6644  162.3411 C   0  0  0  0  0  0  0  0  0  0  0  0
  152.5471  143.8064  161.8914 C   0  0  0  0  0  0  0  0  0  0  0  0
  152.2018  143.9338  160.5316 C   0  0  0  0  0  0  0  0  0  0  0  0
  151.5342  145.0356  160.1128 F   0  0  0  0  0  0  0  0  0  0  0  0
  147.3736  142.1541  154.6810 C   0  0  0  0  0  0  0  0  0  0  0  0
  147.8097  142.9248  153.8236 O   0  0  0  0  0  0  0  0  0  0  0  0
  146.0339  142.2950  155.2739 C   0  0  0  0  0  0  0  0  0  0  0  0
  145.1734  143.4482  154.7725 C   0  0  0  0  0  0  0  0  0  0  0  0
  143.4728  141.3870  156.1619 H   0  0  0  0  0  0  0  0  0  0  0  0
  144.1508  142.4354  157.4193 H   0  0  0  0  0  0  0  0  0  0  0  0
  144.1448  140.6856  157.6324 H   0  0  0  0  0  0  0  0  0  0  0  0
  148.3292  139.4476  156.4432 H   0  0  0  0  0  0  0  0  0  0  0  0
  149.5224  139.9840  153.9947 H   0  0  0  0  0  0  0  0  0  0  0  0
  149.7687  141.6834  154.0101 H   0  0  0  0  0  0  0  0  0  0  0  0
  150.0652  140.1530  156.6477 H   0  0  0  0  0  0  0  0  0  0  0  0
  151.6482  139.1644  155.7490 H   0  0  0  0  0  0  0  0  0  0  0  0
  151.7614  142.4689  155.6859 H   0  0  0  0  0  0  0  0  0  0  0  0
  150.1536  142.7949  156.3232 H   0  0  0  0  0  0  0  0  0  0  0  0
  153.0992  143.1645  157.5751 H   0  0  0  0  0  0  0  0  0  0  0  0
  151.5867  143.9441  157.9698 H   0  0  0  0  0  0  0  0  0  0  0  0
  153.5048  140.9867  159.3795 H   0  0  0  0  0  0  0  0  0  0  0  0
  154.1088  140.7698  161.7752 H   0  0  0  0  0  0  0  0  0  0  0  0
  153.5007  142.5681  163.3841 H   0  0  0  0  0  0  0  0  0  0  0  0
  152.2808  144.5853  162.5905 H   0  0  0  0  0  0  0  0  0  0  0  0
  145.6650  144.3999  154.9768 H   0  0  0  0  0  0  0  0  0  0  0  0
  144.1880  143.4820  155.2341 H   0  0  0  0  0  0  0  0  0  0  0  0
  145.0266  143.3673  153.6950 H   0  0  0  0  0  0  0  0  0  0  0  0
  1  2  1  0  0  0  0
  1 23  1  0  0  0  0
  1 24  1  0  0  0  0
  1 25  1  0  0  0  0
  2 21  2  0  0  0  0
  2  3  1  0  0  0  0
  3  4  2  0  0  0  0
  4  5  1  0  0  0  0
  4 26  1  0  0  0  0
  5  6  1  0  0  0  0
  5 19  1  0  0  0  0
  6  7  1  0  0  0  0
  6 27  1  0  0  0  0
  6 28  1  0  0  0  0
  7  8  1  0  0  0  0
  7  9  1  0  0  0  0
  7 29  1  0  0  0  0
  8 30  1  0  0  0  0
  9 10  1  0  0  0  0
  9 31  1  0  0  0  0
  9 32  1  0  0  0  0
 10 11  1  0  0  0  0
 11 12  1  0  0  0  0
 11 33  1  0  0  0  0
 11 34  1  0  0  0  0
 12 17  1  0  0  0  0
 12 13  2  0  0  0  0
 13 14  1  0  0  0  0
 13 35  1  0  0  0  0
 14 15  2  0  0  0  0
 14 36  1  0  0  0  0
 15 16  1  0  0  0  0
 15 37  1  0  0  0  0
 16 17  2  0  0  0  0
 16 38  1  0  0  0  0
 17 18  1  0  0  0  0
 19 20  2  0  0  0  0
 19 21  1  0  0  0  0
 21 22  1  0  0  0  0
 22 39  1  0  0  0  0
 22 40  1  0  0  0  0
 22 41  1  0  0  0  0
M  END
> <s_m_source_file>
AV-unprocessed.smi

> <i_m_source_file_index>
2272

> <i_lp_mmshare_version>
43012

> <i_f3d_flags>
0

> <s_epik_input>
W0NIM11jMW5bY0hdbihjKD1PKWMxW0NIM10pW0NIMl1bQ0BIXShbT0hdKVtDSDJdT1tDSDJdYzJbY0hdW2NIXVtjSF1bY0hdYzJG

> <s_epik_cmdline>
J2VwaWtfcHl0aG9uJywgJy1waCcsICc3LjAnLCAnLXRuJywgJzgnLCAnLW1hJywgJzIwMCcsICctbWV0YWxfYmluZGluZycsICctaW1hZScsICc8aW5maWxlLm1hZT4nLCAnLW9tYWUnLCAnPG91dGZpbGUubWFlPic=

> <r_lp_tautomer_probability>
1

> <r_epik_Ionization_Penalty>
5.35985e-05

> <r_epik_Ionization_Penalty_Charging>
1.17753e-07

> <r_epik_Ionization_Penalty_Neutral>
5.34808e-05

> <r_epik_State_Penalty>
-0

> <r_epik_Charging_Adjusted_Penalty>
1.17753e-07

> <i_epik_Tot_Q>
0

> <i_epik_Tot_abs_Q>
0

> <r_epik_Metal_State_Penalty>
-0

> <b_epik_Metal_Only>
0

> <s_lp_Force_Field>
OPLS_2005

> <r_lp_Energy>
21.4702

> <b_lp_Chiralities_Consistent>
1

> <s_lp_Variant>
AV-unprocessed.smi:2272-2

> <Gold.Version>
5.8.1

> <Gold.Id.Protein>
6NUR|6NUR_protein|mol2

> <Gold.PLP.Fitness>
51.2781

> <Gold.PLP.PLP>
-47.6905

> <Gold.PLP.part.hbond>
-3.0000

> <Gold.PLP.part.metal>
0.0000

> <Gold.PLP.part.buried>
-2.8445

> <Gold.PLP.part.nonpolar>
-42.1179

> <Gold.PLP.part.repulsive>
2.4965

> <Gold.PLP.ligand.clash>
0.0000

> <Gold.PLP.ligand.torsion>
0.5979

> <Gold.PLP.Chemscore.Hbond>
1.5496

> <Gold.PLP.Chemscore.CHOScore>
0.0000

> <Gold.PLP.Chemscore.Metal>
0.0000

> <Gold.Chemscore.Hbonds>
donor molecule, donor type, donor heavy atom, donor atom, acceptor molecule, acceptor atom, score
      P1  H  7989  7998       L1     8  0.78
      P1  H  8022  8030       L1    20  0.72

> <Gold.PLP.Chemscore.Internal.Correction>
0.1346

> <Gold.Rescore>
     Score         DG    S(hbond)    S(metal)    S(lipo)     H(rot)  DE(clash)    DE(int)     intcor
     12.18     -14.71       0.81        0.00     114.48       2.69       1.91       0.62       ----

> <Gold.Chemscore.Fitness>
12.1783

> <Gold.Chemscore.DG>
-14.7116

> <Gold.Chemscore.ZeroCoef>
-5.4800

> <Gold.Chemscore.Hbond>
0.8124

> <Gold.Chemscore.Metal>
0.0000

> <Gold.Chemscore.Lipo>
114.4759

> <Gold.Chemscore.Internal_Hbond>
0.0000

> <Gold.Chemscore.DEClash>
1.9110

> <Gold.Chemscore.DEInternal>
0.6223

> <Gold.Chemscore.Rot>
2.6857

> <Gold.Chemscore.Internal.Correction>
   9.000000E+99

> <Gold.Chemscore.Hbonds>
donor molecule, donor type, donor heavy atom, donor atom, acceptor molecule, acceptor atom, score
      P1  H  7989  7998       L1     8  0.10
      P1  H  8022  8030       L1    20  0.70

> <Gold.Chemscore.Hbond.Weighted>
-2.7134

> <Gold.Chemscore.Metal.Weighted>
-0.0000

> <Gold.Chemscore.Lipo.Weighted>
-13.3937

> <Gold.Chemscore.Internal_Hbond.Weighted>
0.0000

> <Gold.Chemscore.DEClash.Weighted>
1.9110

> <Gold.Chemscore.DEInternal.Weighted>
0.6223

> <Gold.Chemscore.Rot.Weighted>
6.8755

> <Gold.Chemscore.Internal.Correction.Weighted>
   9.000000E+99

> <Gold.Protein.RotatedTorsions>
[ 6907 6896 6895 6894 ] final  -76.56 input  -60.11 | X-H torsion
[ 7974 7965 7964 7962 ] final  128.41 input  175.53 | X-H torsion
[ 8008 7997 7996 7995 ] final  -21.95 input   59.86 | X-H torsion
[ 10167 10162 10161 10158 ] final  153.89 input  -65.29 | X-H torsion
[ 10718 10713 10712 10709 ] final   15.07 input   66.30 | X-H torsion
[ 10763 10752 10751 10750 ] final  -92.25 input  -60.55 | X-H torsion
[ 11005 11000 10999 10996 ] final  165.08 input  -57.11 | X-H torsion

> <Gold.Protein.ActiveResidues>
 VAL166  LYS551  ARG553  GLY616  TRP617  ASP618  TYR619  PRO620  LYS621  CYS622 
 ASP623  PHE694  ASN695  SER759  ASP760  ASP761  ALA762  ILE779  LEU786  VAL792 
 PHE793  MET794  SER795  GLU796  ALA797  LYS798  CYS799  TRP800  GLU811  SER814 

> <Gold.Protein.RotatedAtoms>
  150.7024  134.4553  159.5354 H   0  0  0  0  0  0  0  0  0  0  0  0  # atno 6907 bound_to 6896
  152.2238  134.8385  160.0491 H   0  0  0  0  0  0  0  0  0  0  0  0  # atno 6908 bound_to 6896
  151.9226  133.3554  159.3939 H   0  0  0  0  0  0  0  0  0  0  0  0  # atno 6909 bound_to 6896
  145.0399  139.3972  143.5107 H   0  0  0  0  0  0  0  0  0  0  0  0  # atno 7974 bound_to 7965
  154.4673  140.2021  156.0084 H   0  0  0  0  0  0  0  0  0  0  0  0  # atno 8008 bound_to 7997
  156.0950  140.3252  155.7837 H   0  0  0  0  0  0  0  0  0  0  0  0  # atno 8009 bound_to 7997
  155.4893  140.0545  157.2947 H   0  0  0  0  0  0  0  0  0  0  0  0  # atno 8010 bound_to 7997
  139.4825  144.5234  151.7839 H   0  0  0  0  0  0  0  0  0  0  0  0  # atno 10167 bound_to 10162
  157.0482  130.6259  149.5763 H   0  0  0  0  0  0  0  0  0  0  0  0  # atno 10718 bound_to 10713
  154.6842  135.5238  153.8304 H   0  0  0  0  0  0  0  0  0  0  0  0  # atno 10763 bound_to 10752
  153.0586  135.6560  154.0527 H   0  0  0  0  0  0  0  0  0  0  0  0  # atno 10764 bound_to 10752
  154.0411  135.2977  155.3334 H   0  0  0  0  0  0  0  0  0  0  0  0  # atno 10765 bound_to 10752
  140.2524  134.7966  157.3514 H   0  0  0  0  0  0  0  0  0  0  0  0  # atno 11005 bound_to 11000
  146.3508  139.9994  142.8677 LP  0  0  0  0  0  0  0  0  0  0  0  0  # atno 17320 bound_to 7965
  145.1662  140.9698  143.4348 LP  0  0  0  0  0  0  0  0  0  0  0  0  # atno 17321 bound_to 7965
  140.4751  144.1530  150.5924 LP  0  0  0  0  0  0  0  0  0  0  0  0  # atno 17342 bound_to 10162
  140.4339  143.2556  151.9560 LP  0  0  0  0  0  0  0  0  0  0  0  0  # atno 17343 bound_to 10162
  156.0016  130.5096  150.7683 LP  0  0  0  0  0  0  0  0  0  0  0  0  # atno 17370 bound_to 10713
  157.5051  131.0921  151.0267 LP  0  0  0  0  0  0  0  0  0  0  0  0  # atno 17371 bound_to 10713
  140.1545  134.4808  155.7938 LP  0  0  0  0  0  0  0  0  0  0  0  0  # atno 17394 bound_to 11000
  141.2200  133.6876  156.7436 LP  0  0  0  0  0  0  0  0  0  0  0  0  # atno 17395 bound_to 11000

$$$$
