AV-unprocessed.smi:560|AV-procd|sdf|2928|dock3
  -GOLD-   2262023423D 1   1.00000     0.00000
 Structure written by MMmdl.
 42 43  0  0  0  0  0  0  0  0  2 V2000
  147.3345  141.9864  154.9452 C   0  0  0  0  0  0  0  0  0  0  0  0
  148.4933  141.0710  154.5003 C   0  0  2  0  0  0  0  0  0  0  0  0
  148.0148  139.7168  153.9471 C   0  0  0  0  0  0  0  0  0  0  0  0
  148.7761  138.7499  153.8939 O   0  0  0  0  0  0  0  0  0  0  0  0
  146.7368  139.6603  153.5374 N   0  0  0  0  0  0  0  0  0  0  0  0
  146.0903  138.4888  152.9556 C   0  0  2  0  0  0  0  0  0  0  0  0
  146.4205  137.2212  153.7663 C   0  0  0  0  0  0  0  0  0  0  0  0
  145.8343  135.9676  153.0975 C   0  0  0  0  0  0  0  0  0  0  0  0
  146.3227  135.8300  151.6993 N   0  3  1  0  0  0  0  0  0  0  0  0
  145.8946  134.5594  151.0571 C   0  0  0  0  0  0  0  0  0  0  0  0
  144.4018  134.4893  150.6995 C   0  0  0  0  0  0  0  0  0  0  0  0
  144.0434  134.3519  149.4178 N   0  0  0  0  0  0  0  0  0  0  0  0
  143.5645  134.5591  151.5952 O   0  0  0  0  0  0  0  0  0  0  0  0
  145.9730  137.0225  150.8855 C   0  0  0  0  0  0  0  0  0  0  0  0
  146.5564  138.3052  151.5022 C   0  0  0  0  0  0  0  0  0  0  0  0
  149.4678  140.8795  155.5694 N   0  0  0  0  0  0  0  0  0  0  0  0
  150.2311  141.8378  156.2051 C   0  0  0  0  0  0  0  0  0  0  0  0
  151.0161  141.1973  157.1204 C   0  0  0  0  0  0  0  0  0  0  0  0
  150.6638  139.8277  156.9680 C   0  0  0  0  0  0  0  0  0  0  0  0
  149.7442  139.6393  156.0361 N   0  0  0  0  0  0  0  0  0  0  0  0
  146.6478  142.1827  154.1211 H   0  0  0  0  0  0  0  0  0  0  0  0
  147.7114  142.9497  155.2900 H   0  0  0  0  0  0  0  0  0  0  0  0
  146.7575  141.5473  155.7602 H   0  0  0  0  0  0  0  0  0  0  0  0
  149.0087  141.5769  153.6824 H   0  0  0  0  0  0  0  0  0  0  0  0
  146.1788  140.4978  153.6199 H   0  0  0  0  0  0  0  0  0  0  0  0
  145.0093  138.6423  152.9541 H   0  0  0  0  0  0  0  0  0  0  0  0
  147.5021  137.1106  153.8603 H   0  0  0  0  0  0  0  0  0  0  0  0
  146.0307  137.3081  154.7812 H   0  0  0  0  0  0  0  0  0  0  0  0
  146.1076  135.0890  153.6822 H   0  0  0  0  0  0  0  0  0  0  0  0
  144.7441  136.0181  153.1000 H   0  0  0  0  0  0  0  0  0  0  0  0
  146.4979  134.3680  150.1681 H   0  0  0  0  0  0  0  0  0  0  0  0
  146.0810  133.7277  151.7379 H   0  0  0  0  0  0  0  0  0  0  0  0
  143.0712  134.3003  149.1537 H   0  0  0  0  0  0  0  0  0  0  0  0
  144.7607  134.2966  148.7080 H   0  0  0  0  0  0  0  0  0  0  0  0
  146.3623  136.9059  149.8734 H   0  0  0  0  0  0  0  0  0  0  0  0
  144.8879  137.1025  150.8015 H   0  0  0  0  0  0  0  0  0  0  0  0
  146.2620  139.1678  150.9032 H   0  0  0  0  0  0  0  0  0  0  0  0
  147.6460  138.2598  151.4644 H   0  0  0  0  0  0  0  0  0  0  0  0
  150.1525  142.8861  155.9566 H   0  0  0  0  0  0  0  0  0  0  0  0
  151.7329  141.6396  157.7961 H   0  0  0  0  0  0  0  0  0  0  0  0
  151.0481  138.9705  157.5011 H   0  0  0  0  0  0  0  0  0  0  0  0
  147.3313  135.8028  151.7360 H   0  0  0  0  0  0  0  0  0  0  0  0
  1  2  1  0  0  0  0
  1 21  1  0  0  0  0
  1 22  1  0  0  0  0
  1 23  1  0  0  0  0
  2  3  1  0  0  0  0
  2 16  1  0  0  0  0
  2 24  1  0  0  0  0
  3  4  2  0  0  0  0
  3  5  1  0  0  0  0
  5  6  1  0  0  0  0
  5 25  1  0  0  0  0
  6 15  1  0  0  0  0
  6  7  1  0  0  0  0
  6 26  1  0  0  0  0
  7  8  1  0  0  0  0
  7 27  1  0  0  0  0
  7 28  1  0  0  0  0
  8  9  1  0  0  0  0
  8 29  1  0  0  0  0
  8 30  1  0  0  0  0
  9 10  1  0  0  0  0
  9 14  1  0  0  0  0
  9 42  1  0  0  0  0
 10 11  1  0  0  0  0
 10 31  1  0  0  0  0
 10 32  1  0  0  0  0
 11 12  1  0  0  0  0
 11 13  2  0  0  0  0
 12 33  1  0  0  0  0
 12 34  1  0  0  0  0
 14 15  1  0  0  0  0
 14 35  1  0  0  0  0
 14 36  1  0  0  0  0
 15 37  1  0  0  0  0
 15 38  1  0  0  0  0
 16 20  1  0  0  0  0
 16 17  1  0  0  0  0
 17 18  2  0  0  0  0
 17 39  1  0  0  0  0
 18 19  1  0  0  0  0
 18 40  1  0  0  0  0
 19 20  2  0  0  0  0
 19 41  1  0  0  0  0
M  CHG  1   9   1
M  END
> <s_m_source_file>
AV-unprocessed.smi

> <i_m_source_file_index>
560

> <i_lp_mmshare_version>
43012

> <i_f3d_flags>
0

> <s_epik_input>
bjFbY0hdW2NIXVtjSF1uMVtDQEhdKFtDSDNdKUMoPU8pW05IXVtDSF0yW0NIMl1bQ0gyXU4oW0NIMl1bQ0gyXTIpW0NIMl1DKD1PKVtOSDJd

> <s_epik_cmdline>
J2VwaWtfcHl0aG9uJywgJy1waCcsICc3LjAnLCAnLXRuJywgJzgnLCAnLW1hJywgJzIwMCcsICctbWV0YWxfYmluZGluZycsICctaW1hZScsICc8aW5maWxlLm1hZT4nLCAnLW9tYWUnLCAnPG91dGZpbGUubWFlPic=

> <r_lp_tautomer_probability>
1

> <r_epik_Ionization_Penalty>
1.02943

> <r_epik_Ionization_Penalty_Charging>
1.02936

> <r_epik_Ionization_Penalty_Neutral>
7.4537e-05

> <r_epik_State_Penalty>
1.08036

> <r_epik_Charging_Adjusted_Penalty>
2.10972

> <i_epik_Tot_Q>
1

> <i_epik_Tot_abs_Q>
1

> <r_epik_Metal_State_Penalty>
1.09347

> <b_epik_Metal_Only>
0

> <s_lp_Force_Field>
OPLS_2005

> <r_lp_Energy>
17.0208

> <b_lp_Chiralities_Consistent>
1

> <s_lp_Variant>
AV-unprocessed.smi:560-3

> <Gold.Version>
5.8.1

> <Gold.Id.Protein>
6NUR|6NUR_protein|mol2

> <Gold.PLP.Fitness>
42.7310

> <Gold.PLP.PLP>
-29.4557

> <Gold.PLP.part.hbond>
-3.0000

> <Gold.PLP.part.metal>
0.0000

> <Gold.PLP.part.buried>
3.2362

> <Gold.PLP.part.nonpolar>
-31.3518

> <Gold.PLP.part.repulsive>
1.3496

> <Gold.PLP.ligand.clash>
0.0000

> <Gold.PLP.ligand.torsion>
0.9272

> <Gold.PLP.Chemscore.Hbond>
4.0000

> <Gold.PLP.Chemscore.CHOScore>
1.0000

> <Gold.PLP.Chemscore.Metal>
0.0000

> <Gold.Chemscore.Hbonds>
donor molecule, donor type, donor heavy atom, donor atom, acceptor molecule, acceptor atom, score
      L1  H     9    42       P1  7948  2.00
      L1  H    12    33       P1 10186  0.84
      L1  H    12    34       P1  7921  1.00
      L1  C    17    39       P1  8028  1.00

> <Gold.PLP.Chemscore.Internal.Correction>
0.1298

> <Gold.Rescore>
     Score         DG    S(hbond)    S(metal)    S(lipo)     H(rot)  DE(clash)    DE(int)     intcor
     11.43     -16.77       2.98        0.00      66.53       2.52       2.08       3.25       ----

> <Gold.Chemscore.Fitness>
11.4319

> <Gold.Chemscore.DG>
-16.7667

> <Gold.Chemscore.ZeroCoef>
-5.4800

> <Gold.Chemscore.Hbond>
2.9834

> <Gold.Chemscore.Metal>
0.0000

> <Gold.Chemscore.Lipo>
66.5346

> <Gold.Chemscore.Internal_Hbond>
0.0000

> <Gold.Chemscore.DEClash>
2.0809

> <Gold.Chemscore.DEInternal>
3.2539

> <Gold.Chemscore.Rot>
2.5243

> <Gold.Chemscore.Internal.Correction>
   9.000000E+99

> <Gold.Chemscore.Hbonds>
donor molecule, donor type, donor heavy atom, donor atom, acceptor molecule, acceptor atom, score
      L1  H     9    42       P1  7948  1.00
      L1  H    12    33       P1 10186  0.80
      L1  H    12    34       P1  7921  1.00

> <Gold.Chemscore.Hbond.Weighted>
-9.9644

> <Gold.Chemscore.Metal.Weighted>
-0.0000

> <Gold.Chemscore.Lipo.Weighted>
-7.7846

> <Gold.Chemscore.Internal_Hbond.Weighted>
0.0000

> <Gold.Chemscore.DEClash.Weighted>
2.0809

> <Gold.Chemscore.DEInternal.Weighted>
3.2539

> <Gold.Chemscore.Rot.Weighted>
6.4622

> <Gold.Chemscore.Internal.Correction.Weighted>
   9.000000E+99

> <Gold.Protein.RotatedTorsions>
[ 6907 6896 6895 6894 ] final   85.71 input  -60.11 | X-H torsion
[ 7974 7965 7964 7962 ] final   -5.31 input  175.53 | X-H torsion
[ 8008 7997 7996 7995 ] final   36.08 input   59.86 | X-H torsion
[ 10167 10162 10161 10158 ] final   62.77 input  -65.29 | X-H torsion
[ 10718 10713 10712 10709 ] final -133.53 input   66.30 | X-H torsion
[ 10763 10752 10751 10750 ] final  -63.57 input  -60.55 | X-H torsion
[ 11005 11000 10999 10996 ] final  -48.99 input  -57.11 | X-H torsion

> <Gold.Protein.ActiveResidues>
 VAL166  LYS551  ARG553  GLY616  TRP617  ASP618  TYR619  PRO620  LYS621  CYS622 
 ASP623  PHE694  ASN695  SER759  ASP760  ASP761  ALA762  ILE779  LEU786  VAL792 
 PHE793  MET794  SER795  GLU796  ALA797  LYS798  CYS799  TRP800  GLU811  SER814 

> <Gold.Protein.RotatedAtoms>
  152.5380  134.2545  159.8911 H   0  0  0  0  0  0  0  0  0  0  0  0  # atno 6907 bound_to 6896
  151.2507  133.4345  159.2619 H   0  0  0  0  0  0  0  0  0  0  0  0  # atno 6908 bound_to 6896
  151.0542  134.9707  159.8283 H   0  0  0  0  0  0  0  0  0  0  0  0  # atno 6909 bound_to 6896
  146.2355  140.2001  142.8333 H   0  0  0  0  0  0  0  0  0  0  0  0  # atno 7974 bound_to 7965
  155.1815  140.3300  155.4374 H   0  0  0  0  0  0  0  0  0  0  0  0  # atno 8008 bound_to 7997
  156.2475  140.1926  156.6863 H   0  0  0  0  0  0  0  0  0  0  0  0  # atno 8009 bound_to 7997
  154.6268  140.0588  156.9669 H   0  0  0  0  0  0  0  0  0  0  0  0  # atno 8010 bound_to 7997
  140.1402  144.4560  150.6815 H   0  0  0  0  0  0  0  0  0  0  0  0  # atno 10167 bound_to 10162
  156.2459  130.7124  151.1004 H   0  0  0  0  0  0  0  0  0  0  0  0  # atno 10718 bound_to 10713
  154.3170  135.6204  153.5491 H   0  0  0  0  0  0  0  0  0  0  0  0  # atno 10763 bound_to 10752
  152.9823  135.5715  154.5112 H   0  0  0  0  0  0  0  0  0  0  0  0  # atno 10764 bound_to 10752
  154.4773  135.2861  155.1574 H   0  0  0  0  0  0  0  0  0  0  0  0  # atno 10765 bound_to 10752
  141.0733  133.6673  156.3521 H   0  0  0  0  0  0  0  0  0  0  0  0  # atno 11005 bound_to 11000
  144.9788  140.8440  143.5410 LP  0  0  0  0  0  0  0  0  0  0  0  0  # atno 17320 bound_to 7965
  145.1992  139.2261  143.5202 LP  0  0  0  0  0  0  0  0  0  0  0  0  # atno 17321 bound_to 7965
  140.6765  143.2307  151.5495 LP  0  0  0  0  0  0  0  0  0  0  0  0  # atno 17342 bound_to 10162
  139.5475  144.2481  152.1470 LP  0  0  0  0  0  0  0  0  0  0  0  0  # atno 17343 bound_to 10162
  157.7195  131.0690  150.6195 LP  0  0  0  0  0  0  0  0  0  0  0  0  # atno 17370 bound_to 10713
  156.6271  130.4422  149.5800 LP  0  0  0  0  0  0  0  0  0  0  0  0  # atno 17371 bound_to 10713
  140.5627  134.5918  157.5438 LP  0  0  0  0  0  0  0  0  0  0  0  0  # atno 17394 bound_to 11000
  139.9546  134.7558  156.0371 LP  0  0  0  0  0  0  0  0  0  0  0  0  # atno 17395 bound_to 11000

$$$$
