AV-unprocessed.smi:1740|AV-procd|sdf|7010|dock5
  -GOLD-   22720 8223D 1   1.00000     0.00000
 Structure written by MMmdl.
 53 55  0  0  0  0  0  0  0  0  3 V2000
  142.6770  132.4023  147.5281 N   0  0  0  0  0  0  0  0  0  0  0  0
  143.8960  132.7846  147.9154 C   0  0  0  0  0  0  0  0  0  0  0  0
  144.5118  133.6851  147.3475 O   0  0  0  0  0  0  0  0  0  0  0  0
  144.4950  132.0582  149.1245 C   0  0  0  0  0  0  0  0  0  0  0  0
  145.2426  132.9612  150.0376 N   0  3  2  0  0  0  0  0  0  0  0  0
  146.0020  132.2317  151.0887 C   0  0  0  0  0  0  0  0  0  0  0  0
  146.8643  133.1953  151.9208 C   0  0  0  0  0  0  0  0  0  0  0  0
  146.0027  134.3050  152.5511 C   0  0  1  0  0  0  0  0  0  0  0  0
  146.8307  135.2707  153.2684 N   0  0  0  0  0  0  0  0  0  0  0  0
  146.7082  135.5729  154.5690 C   0  0  0  0  0  0  0  0  0  0  0  0
  145.8883  135.0409  155.3170 O   0  0  0  0  0  0  0  0  0  0  0  0
  147.6003  136.5060  154.9423 N   0  0  0  0  0  0  0  0  0  0  0  0
  147.7893  137.0603  156.2403 C   0  0  0  0  0  0  0  0  0  0  0  0
  147.6200  136.2675  157.4048 C   0  0  0  0  0  0  0  0  0  0  0  0
  147.7403  136.8533  158.6787 C   0  0  0  0  0  0  0  0  0  0  0  0
  148.0123  138.2287  158.7714 C   0  0  0  0  0  0  0  0  0  0  0  0
  148.1553  138.9589  157.6462 N   0  3  0  0  0  0  0  0  0  0  0  0
  148.0657  138.4509  156.3913 C   0  0  0  0  0  0  0  0  0  0  0  0
  148.2496  139.3389  155.3066 N   0  0  0  0  0  0  0  0  0  0  0  0
  147.3139  140.4352  155.0818 C   0  0  0  0  0  0  0  0  0  0  0  0
  148.0191  141.3644  154.0973 C   0  0  0  0  0  0  0  0  0  0  0  0
  149.4804  141.2353  154.5152 C   0  0  0  0  0  0  0  0  0  0  0  0
  149.5999  139.7759  154.9657 C   0  0  0  0  0  0  0  0  0  0  0  0
  145.2009  135.0179  151.4505 C   0  0  0  0  0  0  0  0  0  0  0  0
  144.3766  134.0157  150.6243 C   0  0  0  0  0  0  0  0  0  0  0  0
  142.2375  132.8555  146.7393 H   0  0  0  0  0  0  0  0  0  0  0  0
  142.1925  131.6676  148.0236 H   0  0  0  0  0  0  0  0  0  0  0  0
  143.6589  131.6059  149.6599 H   0  0  0  0  0  0  0  0  0  0  0  0
  145.1381  131.2389  148.7984 H   0  0  0  0  0  0  0  0  0  0  0  0
  145.3057  131.6987  151.7382 H   0  0  0  0  0  0  0  0  0  0  0  0
  146.6462  131.4784  150.6346 H   0  0  0  0  0  0  0  0  0  0  0  0
  147.3887  132.6364  152.6968 H   0  0  0  0  0  0  0  0  0  0  0  0
  147.6333  133.6361  151.2845 H   0  0  0  0  0  0  0  0  0  0  0  0
  145.2957  133.8538  153.2506 H   0  0  0  0  0  0  0  0  0  0  0  0
  147.5351  135.7546  152.7306 H   0  0  0  0  0  0  0  0  0  0  0  0
  148.2788  136.7808  154.2472 H   0  0  0  0  0  0  0  0  0  0  0  0
  147.3752  135.2180  157.3410 H   0  0  0  0  0  0  0  0  0  0  0  0
  147.6125  136.2577  159.5709 H   0  0  0  0  0  0  0  0  0  0  0  0
  148.1140  138.7653  159.7035 H   0  0  0  0  0  0  0  0  0  0  0  0
  146.3637  140.0742  154.6878 H   0  0  0  0  0  0  0  0  0  0  0  0
  147.1211  140.9699  156.0127 H   0  0  0  0  0  0  0  0  0  0  0  0
  147.8896  140.9980  153.0780 H   0  0  0  0  0  0  0  0  0  0  0  0
  147.6497  142.3893  154.1400 H   0  0  0  0  0  0  0  0  0  0  0  0
  150.1771  141.4912  153.7167 H   0  0  0  0  0  0  0  0  0  0  0  0
  149.6786  141.8972  155.3593 H   0  0  0  0  0  0  0  0  0  0  0  0
  150.2914  139.6751  155.8034 H   0  0  0  0  0  0  0  0  0  0  0  0
  149.9685  139.1621  154.1437 H   0  0  0  0  0  0  0  0  0  0  0  0
  144.5375  135.7620  151.8930 H   0  0  0  0  0  0  0  0  0  0  0  0
  145.8778  135.5611  150.7892 H   0  0  0  0  0  0  0  0  0  0  0  0
  143.8580  134.5520  149.8288 H   0  0  0  0  0  0  0  0  0  0  0  0
  143.6099  133.5528  151.2478 H   0  0  0  0  0  0  0  0  0  0  0  0
  145.9216  133.4384  149.4612 H   0  0  0  0  0  0  0  0  0  0  0  0
  148.3505  139.9550  157.7468 H   0  0  0  0  0  0  0  0  0  0  0  0
  1  2  1  0  0  0  0
  1 26  1  0  0  0  0
  1 27  1  0  0  0  0
  2  3  2  0  0  0  0
  2  4  1  0  0  0  0
  4  5  1  0  0  0  0
  4 28  1  0  0  0  0
  4 29  1  0  0  0  0
  5 25  1  0  0  0  0
  5  6  1  0  0  0  0
  5 52  1  0  0  0  0
  6  7  1  0  0  0  0
  6 30  1  0  0  0  0
  6 31  1  0  0  0  0
  7  8  1  0  0  0  0
  7 32  1  0  0  0  0
  7 33  1  0  0  0  0
  8  9  1  0  0  0  0
  8 24  1  0  0  0  0
  8 34  1  0  0  0  0
  9 10  1  0  0  0  0
  9 35  1  0  0  0  0
 10 11  2  0  0  0  0
 10 12  1  0  0  0  0
 12 13  1  0  0  0  0
 12 36  1  0  0  0  0
 13 18  1  0  0  0  0
 13 14  2  0  0  0  0
 14 15  1  0  0  0  0
 14 37  1  0  0  0  0
 15 16  2  0  0  0  0
 15 38  1  0  0  0  0
 16 17  1  0  0  0  0
 16 39  1  0  0  0  0
 17 18  2  0  0  0  0
 17 53  1  0  0  0  0
 18 19  1  0  0  0  0
 19 23  1  0  0  0  0
 19 20  1  0  0  0  0
 20 21  1  0  0  0  0
 20 40  1  0  0  0  0
 20 41  1  0  0  0  0
 21 22  1  0  0  0  0
 21 42  1  0  0  0  0
 21 43  1  0  0  0  0
 22 23  1  0  0  0  0
 22 44  1  0  0  0  0
 22 45  1  0  0  0  0
 23 46  1  0  0  0  0
 23 47  1  0  0  0  0
 24 25  1  0  0  0  0
 24 48  1  0  0  0  0
 24 49  1  0  0  0  0
 25 50  1  0  0  0  0
 25 51  1  0  0  0  0
M  CHG  1   5   1
M  CHG  1  17   1
M  END
> <s_m_source_file>
AV-unprocessed.smi

> <i_m_source_file_index>
1740

> <i_lp_mmshare_version>
43012

> <i_f3d_flags>
0

> <s_epik_input>
W05IMl1DKD1PKVtDSDJdTjFbQ0gyXVtDSDJdW0NIXShbQ0gyXVtDSDJdMSlbTkhdQyg9TylbTkhdYzJbY0hdW2NIXVtjSF1uYzJOM1tDSDJdW0NIMl1bQ0gyXVtDSDJdMw==

> <s_epik_cmdline>
J2VwaWtfcHl0aG9uJywgJy1waCcsICc3LjAnLCAnLXRuJywgJzgnLCAnLW1hJywgJzIwMCcsICctbWV0YWxfYmluZGluZycsICctaW1hZScsICc8aW5maWxlLm1hZT4nLCAnLW9tYWUnLCAnPG91dGZpbGUubWFlPic=

> <r_lp_tautomer_probability>
0.999994

> <r_epik_Ionization_Penalty>
2.11361

> <r_epik_Ionization_Penalty_Charging>
2.11355

> <r_epik_Ionization_Penalty_Neutral>
5.98217e-05

> <r_epik_State_Penalty>
2.13444

> <r_epik_Charging_Adjusted_Penalty>
4.24799

> <i_epik_Tot_Q>
2

> <i_epik_Tot_abs_Q>
2

> <r_epik_Metal_State_Penalty>
2.23528

> <b_epik_Metal_Only>
0

> <s_lp_Force_Field>
OPLS_2005

> <r_lp_Energy>
49.3709

> <b_lp_Chiralities_Consistent>
1

> <s_lp_Variant>
AV-unprocessed.smi:1740-5

> <Gold.Version>
5.8.1

> <Gold.Id.Protein>
6NUR|6NUR_protein|mol2

> <Gold.PLP.Fitness>
46.4808

> <Gold.PLP.PLP>
-31.5450

> <Gold.PLP.part.hbond>
-6.9051

> <Gold.PLP.part.metal>
0.0000

> <Gold.PLP.part.buried>
-1.4419

> <Gold.PLP.part.nonpolar>
-28.5652

> <Gold.PLP.part.repulsive>
6.4560

> <Gold.PLP.ligand.clash>
0.0000

> <Gold.PLP.ligand.torsion>
0.8287

> <Gold.PLP.Chemscore.Hbond>
5.3868

> <Gold.PLP.Chemscore.CHOScore>
0.0000

> <Gold.PLP.Chemscore.Metal>
0.0000

> <Gold.Chemscore.Hbonds>
donor molecule, donor type, donor heavy atom, donor atom, acceptor molecule, acceptor atom, score
      L1  H     1    26       P1 10195  0.47
      L1  H     5    52       P1  7921  0.21
      L1  H     9    35       P1  7948  1.00
      P1  H  7918  7932       L1     3  0.63

> <Gold.PLP.Chemscore.Internal.Correction>
0.4328

> <Gold.Rescore>
     Score         DG    S(hbond)    S(metal)    S(lipo)     H(rot)  DE(clash)    DE(int)     intcor
     16.73     -20.87       3.76        0.00      72.93       2.22       2.14       2.00       ----

> <Gold.Chemscore.Fitness>
16.7265

> <Gold.Chemscore.DG>
-20.8717

> <Gold.Chemscore.ZeroCoef>
-5.4800

> <Gold.Chemscore.Hbond>
3.7555

> <Gold.Chemscore.Metal>
0.0000

> <Gold.Chemscore.Lipo>
72.9346

> <Gold.Chemscore.Internal_Hbond>
0.0000

> <Gold.Chemscore.DEClash>
2.1427

> <Gold.Chemscore.DEInternal>
2.0025

> <Gold.Chemscore.Rot>
2.2207

> <Gold.Chemscore.Internal.Correction>
   9.000000E+99

> <Gold.Chemscore.Hbonds>
donor molecule, donor type, donor heavy atom, donor atom, acceptor molecule, acceptor atom, score
      L1  H     1    26       P1 10195  0.48
      L1  H     1    27       P1 10952  0.07
      L1  H     5    52       P1  7921  0.02
      L1  H     9    35       P1  7948  1.00
      P1  H  7918  7932       L1     3  0.53

> <Gold.Chemscore.Hbond.Weighted>
-12.5433

> <Gold.Chemscore.Metal.Weighted>
-0.0000

> <Gold.Chemscore.Lipo.Weighted>
-8.5333

> <Gold.Chemscore.Internal_Hbond.Weighted>
0.0000

> <Gold.Chemscore.DEClash.Weighted>
2.1427

> <Gold.Chemscore.DEInternal.Weighted>
2.0025

> <Gold.Chemscore.Rot.Weighted>
5.6849

> <Gold.Chemscore.Internal.Correction.Weighted>
   9.000000E+99

> <Gold.Protein.RotatedTorsions>
[ 6907 6896 6895 6894 ] final  173.49 input  -60.11 | X-H torsion
[ 7974 7965 7964 7962 ] final   54.08 input  175.53 | X-H torsion
[ 8008 7997 7996 7995 ] final -150.13 input   59.86 | X-H torsion
[ 10167 10162 10161 10158 ] final   93.83 input  -65.29 | X-H torsion
[ 10718 10713 10712 10709 ] final   54.96 input   66.30 | X-H torsion
[ 10763 10752 10751 10750 ] final   71.29 input  -60.55 | X-H torsion
[ 11005 11000 10999 10996 ] final -168.90 input  -57.11 | X-H torsion

> <Gold.Protein.ActiveResidues>
 VAL166  LYS551  ARG553  GLY616  TRP617  ASP618  TYR619  PRO620  LYS621  CYS622 
 ASP623  PHE694  ASN695  SER759  ASP760  ASP761  ALA762  ILE779  LEU786  VAL792 
 PHE793  MET794  SER795  GLU796  ALA797  LYS798  CYS799  TRP800  GLU811  SER814 

> <Gold.Protein.RotatedAtoms>
  151.7674  133.3338  159.3434 H   0  0  0  0  0  0  0  0  0  0  0  0  # atno 6907 bound_to 6896
  150.7474  134.6050  159.6065 H   0  0  0  0  0  0  0  0  0  0  0  0  # atno 6908 bound_to 6896
  152.3364  134.7194  160.0327 H   0  0  0  0  0  0  0  0  0  0  0  0  # atno 6909 bound_to 6896
  145.9645  139.4091  143.0227 H   0  0  0  0  0  0  0  0  0  0  0  0  # atno 7974 bound_to 7965
  155.6186  140.0679  157.2685 H   0  0  0  0  0  0  0  0  0  0  0  0  # atno 8008 bound_to 7997
  154.4235  140.1788  156.1396 H   0  0  0  0  0  0  0  0  0  0  0  0  # atno 8009 bound_to 7997
  156.0027  140.3334  155.6865 H   0  0  0  0  0  0  0  0  0  0  0  0  # atno 8010 bound_to 7997
  139.8142  144.6760  150.9602 H   0  0  0  0  0  0  0  0  0  0  0  0  # atno 10167 bound_to 10162
  157.5303  130.8625  149.8678 H   0  0  0  0  0  0  0  0  0  0  0  0  # atno 10718 bound_to 10713
  153.0390  135.5142  154.7570 H   0  0  0  0  0  0  0  0  0  0  0  0  # atno 10763 bound_to 10752
  154.6523  135.2927  154.9974 H   0  0  0  0  0  0  0  0  0  0  0  0  # atno 10764 bound_to 10752
  154.0853  135.6658  153.4896 H   0  0  0  0  0  0  0  0  0  0  0  0  # atno 10765 bound_to 10752
  140.5368  134.5562  157.5089 H   0  0  0  0  0  0  0  0  0  0  0  0  # atno 11005 bound_to 11000
  145.7993  140.9778  143.1007 LP  0  0  0  0  0  0  0  0  0  0  0  0  # atno 17320 bound_to 7965
  144.6822  139.9780  143.7483 LP  0  0  0  0  0  0  0  0  0  0  0  0  # atno 17321 bound_to 7965
  140.7816  143.4155  151.0924 LP  0  0  0  0  0  0  0  0  0  0  0  0  # atno 17342 bound_to 10162
  139.7820  143.8342  152.3139 LP  0  0  0  0  0  0  0  0  0  0  0  0  # atno 17343 bound_to 10162
  156.0417  130.3737  150.1418 LP  0  0  0  0  0  0  0  0  0  0  0  0  # atno 17370 bound_to 10713
  156.9603  130.9803  151.3480 LP  0  0  0  0  0  0  0  0  0  0  0  0  # atno 17371 bound_to 10713
  139.9525  134.7592  156.0416 LP  0  0  0  0  0  0  0  0  0  0  0  0  # atno 17394 bound_to 11000
  141.1250  133.6602  156.3313 LP  0  0  0  0  0  0  0  0  0  0  0  0  # atno 17395 bound_to 11000

$$$$
