AV-unprocessed.smi:1377|AV-procd|sdf|5594|dock5
  -GOLD-   22720 5193D 1   1.00000     0.00000
 Structure written by MMmdl.
 29 30  0  0  0  0  0  0  0  0  1 V2000
  149.7031  136.2790  154.6491 N   0  0  0  0  0  0  0  0  0  0  0  0
  150.8702  136.8511  154.9575 C   0  0  0  0  0  0  0  0  0  0  0  0
  151.5972  136.4185  155.8493 O   0  0  0  0  0  0  0  0  0  0  0  0
  151.2798  138.0848  154.1505 C   0  0  0  0  0  0  0  0  0  0  0  0
  150.4142  139.2558  154.5157 C   0  0  0  0  0  0  0  0  0  0  0  0
  149.0764  139.4126  154.2409 C   0  0  0  0  0  0  0  0  0  0  0  0
  148.4553  140.9235  154.8494 S   0  0  0  0  0  0  0  0  0  0  0  0
  150.0620  141.2966  155.4536 C   0  0  0  0  0  0  0  0  0  0  0  0
  150.3440  142.5036  156.1452 N   0  0  0  0  0  0  0  0  0  0  0  0
  151.0399  142.6682  157.2856 C   0  0  0  0  0  0  0  0  0  0  0  0
  151.5686  141.7531  157.9185 O   0  0  0  0  0  0  0  0  0  0  0  0
  151.1523  144.1159  157.7835 C   0  0  0  0  0  0  0  0  0  0  0  0
  152.5665  144.5306  158.2265 C   0  0  0  0  0  0  0  0  0  0  0  0
  151.9439  145.1959  159.4574 C   0  0  0  0  0  0  0  0  0  0  0  0
  150.6986  144.3321  159.2385 C   0  0  0  0  0  0  0  0  0  0  0  0
  150.9655  140.3426  155.2026 N   0  0  0  0  0  0  0  0  0  0  0  0
  149.3971  135.4623  155.1584 H   0  0  0  0  0  0  0  0  0  0  0  0
  149.1316  136.6621  153.9104 H   0  0  0  0  0  0  0  0  0  0  0  0
  152.3308  138.3019  154.3473 H   0  0  0  0  0  0  0  0  0  0  0  0
  151.2068  137.8718  153.0831 H   0  0  0  0  0  0  0  0  0  0  0  0
  148.4197  138.7292  153.7234 H   0  0  0  0  0  0  0  0  0  0  0  0
  149.9735  143.3425  155.7233 H   0  0  0  0  0  0  0  0  0  0  0  0
  150.7067  144.8467  157.1056 H   0  0  0  0  0  0  0  0  0  0  0  0
  153.2206  143.6956  158.4845 H   0  0  0  0  0  0  0  0  0  0  0  0
  153.0622  145.2274  157.5502 H   0  0  0  0  0  0  0  0  0  0  0  0
  152.4702  145.0052  160.3930 H   0  0  0  0  0  0  0  0  0  0  0  0
  151.7508  146.2595  159.3095 H   0  0  0  0  0  0  0  0  0  0  0  0
  149.7591  144.8763  159.3395 H   0  0  0  0  0  0  0  0  0  0  0  0
  150.7009  143.4292  159.8518 H   0  0  0  0  0  0  0  0  0  0  0  0
  1  2  1  0  0  0  0
  1 17  1  0  0  0  0
  1 18  1  0  0  0  0
  2  3  2  0  0  0  0
  2  4  1  0  0  0  0
  4  5  1  0  0  0  0
  4 19  1  0  0  0  0
  4 20  1  0  0  0  0
  5 16  1  0  0  0  0
  5  6  2  0  0  0  0
  6  7  1  0  0  0  0
  6 21  1  0  0  0  0
  7  8  1  0  0  0  0
  8  9  1  0  0  0  0
  8 16  2  0  0  0  0
  9 10  1  0  0  0  0
  9 22  1  0  0  0  0
 10 11  2  0  0  0  0
 10 12  1  0  0  0  0
 12 15  1  0  0  0  0
 12 13  1  0  0  0  0
 12 23  1  0  0  0  0
 13 14  1  0  0  0  0
 13 24  1  0  0  0  0
 13 25  1  0  0  0  0
 14 15  1  0  0  0  0
 14 26  1  0  0  0  0
 14 27  1  0  0  0  0
 15 28  1  0  0  0  0
 15 29  1  0  0  0  0
M  END
> <s_m_source_file>
AV-unprocessed.smi

> <i_m_source_file_index>
1377

> <i_lp_mmshare_version>
43012

> <i_f3d_flags>
0

> <s_epik_input>
W05IMl1DKD1PKVtDSDJdYzFbY0hdc2MobjEpW05IXUMoPU8pW0NIXTJbQ0gyXVtDSDJdW0NIMl0y

> <s_epik_cmdline>
J2VwaWtfcHl0aG9uJywgJy1waCcsICc3LjAnLCAnLXRuJywgJzgnLCAnLW1hJywgJzIwMCcsICctbWV0YWxfYmluZGluZycsICctaW1hZScsICc8aW5maWxlLm1hZT4nLCAnLW9tYWUnLCAnPG91dGZpbGUubWFlPic=

> <r_lp_tautomer_probability>
1

> <r_epik_Ionization_Penalty>
0.000217978

> <r_epik_Ionization_Penalty_Charging>
0

> <r_epik_Ionization_Penalty_Neutral>
0.000217978

> <r_epik_State_Penalty>
-0

> <r_epik_Charging_Adjusted_Penalty>
0

> <i_epik_Tot_Q>
0

> <i_epik_Tot_abs_Q>
0

> <r_epik_Metal_State_Penalty>
0.13268

> <b_epik_Metal_Only>
0

> <s_lp_Force_Field>
OPLS_2005

> <r_lp_Energy>
11.3529

> <b_lp_Chiralities_Consistent>
1

> <s_lp_Variant>
AV-unprocessed.smi:1377-1

> <Gold.Version>
5.8.1

> <Gold.Id.Protein>
6NUR|6NUR_protein|mol2

> <Gold.PLP.Fitness>
45.8628

> <Gold.PLP.PLP>
-38.2197

> <Gold.PLP.part.hbond>
-4.0000

> <Gold.PLP.part.metal>
0.0000

> <Gold.PLP.part.buried>
-3.1804

> <Gold.PLP.part.nonpolar>
-31.5539

> <Gold.PLP.part.repulsive>
0.2553

> <Gold.PLP.ligand.clash>
0.0000

> <Gold.PLP.ligand.torsion>
0.7832

> <Gold.PLP.Chemscore.Hbond>
2.9344

> <Gold.PLP.Chemscore.CHOScore>
0.0000

> <Gold.PLP.Chemscore.Metal>
0.0000

> <Gold.Chemscore.Hbonds>
donor molecule, donor type, donor heavy atom, donor atom, acceptor molecule, acceptor atom, score
      L1  H     1    18       P1  7948  0.55
      L1  H     9    22       P1  8028  1.00
      P1  H  7989  7998       L1    16  0.30
      P1  H 10752 10764       L1     3  1.00

> <Gold.PLP.Chemscore.Internal.Correction>
0.4063

> <Gold.Rescore>
     Score         DG    S(hbond)    S(metal)    S(lipo)     H(rot)  DE(clash)    DE(int)     intcor
     17.58     -18.35       2.60        0.00      78.06       1.92       0.04       0.74       ----

> <Gold.Chemscore.Fitness>
17.5757

> <Gold.Chemscore.DG>
-18.3549

> <Gold.Chemscore.ZeroCoef>
-5.4800

> <Gold.Chemscore.Hbond>
2.5951

> <Gold.Chemscore.Metal>
0.0000

> <Gold.Chemscore.Lipo>
78.0573

> <Gold.Chemscore.Internal_Hbond>
0.0000

> <Gold.Chemscore.DEClash>
0.0358

> <Gold.Chemscore.DEInternal>
0.7434

> <Gold.Chemscore.Rot>
1.9239

> <Gold.Chemscore.Internal.Correction>
   9.000000E+99

> <Gold.Chemscore.Hbonds>
donor molecule, donor type, donor heavy atom, donor atom, acceptor molecule, acceptor atom, score
      L1  H     1    18       P1  7948  0.53
      L1  H     9    22       P1  8028  0.98
      P1  H 10752 10764       L1     3  0.55

> <Gold.Chemscore.Hbond.Weighted>
-8.6675

> <Gold.Chemscore.Metal.Weighted>
-0.0000

> <Gold.Chemscore.Lipo.Weighted>
-9.1327

> <Gold.Chemscore.Internal_Hbond.Weighted>
0.0000

> <Gold.Chemscore.DEClash.Weighted>
0.0358

> <Gold.Chemscore.DEInternal.Weighted>
0.7434

> <Gold.Chemscore.Rot.Weighted>
4.9253

> <Gold.Chemscore.Internal.Correction.Weighted>
   9.000000E+99

> <Gold.Protein.RotatedTorsions>
[ 6907 6896 6895 6894 ] final   22.03 input  -60.11 | X-H torsion
[ 7974 7965 7964 7962 ] final -129.51 input  175.53 | X-H torsion
[ 8008 7997 7996 7995 ] final -165.70 input   59.86 | X-H torsion
[ 10167 10162 10161 10158 ] final  -62.93 input  -65.29 | X-H torsion
[ 10718 10713 10712 10709 ] final  170.15 input   66.30 | X-H torsion
[ 10763 10752 10751 10750 ] final  -36.16 input  -60.55 | X-H torsion
[ 11005 11000 10999 10996 ] final  128.46 input  -57.11 | X-H torsion

> <Gold.Protein.ActiveResidues>
 VAL166  LYS551  ARG553  GLY616  TRP617  ASP618  TYR619  PRO620  LYS621  CYS622 
 ASP623  PHE694  ASN695  SER759  ASP760  ASP761  ALA762  ILE779  LEU786  VAL792 
 PHE793  MET794  SER795  GLU796  ALA797  LYS798  CYS799  TRP800  GLU811  SER814 

> <Gold.Protein.RotatedAtoms>
  151.9209  135.0299  160.0521 H   0  0  0  0  0  0  0  0  0  0  0  0  # atno 6907 bound_to 6896
  152.2200  133.4972  159.5166 H   0  0  0  0  0  0  0  0  0  0  0  0  # atno 6908 bound_to 6896
  150.6997  134.1271  159.4099 H   0  0  0  0  0  0  0  0  0  0  0  0  # atno 6909 bound_to 6896
  144.9565  140.7401  143.4755 H   0  0  0  0  0  0  0  0  0  0  0  0  # atno 7974 bound_to 7965
  155.8534  140.0966  157.1660 H   0  0  0  0  0  0  0  0  0  0  0  0  # atno 8008 bound_to 7997
  154.3986  140.1379  156.3934 H   0  0  0  0  0  0  0  0  0  0  0  0  # atno 8009 bound_to 7997
  155.7936  140.3455  155.5365 H   0  0  0  0  0  0  0  0  0  0  0  0  # atno 8010 bound_to 7997
  140.5906  143.2341  151.6148 H   0  0  0  0  0  0  0  0  0  0  0  0  # atno 10167 bound_to 10162
  157.0122  131.0207  151.2799 H   0  0  0  0  0  0  0  0  0  0  0  0  # atno 10718 bound_to 10713
  153.8751  135.6827  153.4771 H   0  0  0  0  0  0  0  0  0  0  0  0  # atno 10763 bound_to 10752
  153.1265  135.4716  154.9279 H   0  0  0  0  0  0  0  0  0  0  0  0  # atno 10764 bound_to 10752
  154.7696  135.3234  154.8168 H   0  0  0  0  0  0  0  0  0  0  0  0  # atno 10765 bound_to 10752
  139.9562  134.9612  156.9005 H   0  0  0  0  0  0  0  0  0  0  0  0  # atno 11005 bound_to 11000
  145.2764  139.1935  143.4814 LP  0  0  0  0  0  0  0  0  0  0  0  0  # atno 17320 bound_to 7965
  146.3339  140.2719  142.8606 LP  0  0  0  0  0  0  0  0  0  0  0  0  # atno 17321 bound_to 7965
  139.5225  144.3161  152.0951 LP  0  0  0  0  0  0  0  0  0  0  0  0  # atno 17342 bound_to 10162
  140.2325  144.4353  150.6294 LP  0  0  0  0  0  0  0  0  0  0  0  0  # atno 17343 bound_to 10162
  157.5312  130.8059  149.7919 LP  0  0  0  0  0  0  0  0  0  0  0  0  # atno 17370 bound_to 10713
  156.0132  130.3824  150.2196 LP  0  0  0  0  0  0  0  0  0  0  0  0  # atno 17371 bound_to 10713
  140.5604  134.0540  155.7397 LP  0  0  0  0  0  0  0  0  0  0  0  0  # atno 17394 bound_to 11000
  141.1233  133.9424  157.2685 LP  0  0  0  0  0  0  0  0  0  0  0  0  # atno 17395 bound_to 11000

$$$$
