AV-unprocessed.smi:1787|AV-procd|sdf|7208|dock8
  -GOLD-   22720 8453D 1   1.00000     0.00000
 Structure written by MMmdl.
 45 47  0  0  0  0  0  0  0  0  2 V2000
  144.7451  136.1100  153.6126 O   0  0  0  0  0  0  0  0  0  0  0  0
  145.8577  136.0239  153.0957 C   0  0  0  0  0  0  0  0  0  0  0  0
  146.8838  136.8256  153.4129 N   0  0  0  0  0  0  0  0  0  0  0  0
  146.8512  137.9042  154.4009 C   0  0  0  0  0  0  0  0  0  0  0  0
  148.1242  138.8116  154.3790 C   0  0  1  0  0  0  0  0  0  0  0  0
  149.3531  137.9344  154.3367 N   0  3  0  0  0  0  0  0  0  0  0  0
  150.6402  138.6851  154.3527 C   0  0  0  0  0  0  0  0  0  0  0  0
  151.8276  137.7430  154.1068 C   0  0  0  0  0  0  0  0  0  0  0  0
  151.8392  136.7386  155.1097 O   0  0  0  0  0  0  0  0  0  0  0  0
  150.6688  135.9369  155.0560 C   0  0  0  0  0  0  0  0  0  0  0  0
  149.4167  136.7990  155.2998 C   0  0  0  0  0  0  0  0  0  0  0  0
  148.0505  139.7892  153.1811 C   0  0  0  0  0  0  0  0  0  0  0  0
  146.9733  140.8449  153.4703 C   0  0  0  0  0  0  0  0  0  0  0  0
  146.8732  141.0685  155.2643 S   0  0  0  0  0  0  0  0  0  0  0  0
  148.0935  139.7745  155.5965 C   0  0  0  0  0  0  0  0  0  0  0  0
  146.2147  135.1409  152.1473 N   0  0  0  0  0  0  0  0  0  0  0  0
  145.4448  134.1078  151.5464 C   0  0  0  0  0  0  0  0  0  0  0  0
  145.9430  133.1690  150.6098 C   0  0  0  0  0  0  0  0  0  0  0  0
  145.0639  132.2035  150.0821 C   0  0  0  0  0  0  0  0  0  0  0  0
  143.7199  132.2143  150.5026 C   0  0  0  0  0  0  0  0  0  0  0  0
  143.2292  133.1090  151.3856 N   0  0  0  0  0  0  0  0  0  0  0  0
  144.0778  134.0301  151.8882 C   0  0  0  0  0  0  0  0  0  0  0  0
  147.7521  136.6943  152.9152 H   0  0  0  0  0  0  0  0  0  0  0  0
  145.9644  138.4982  154.1826 H   0  0  0  0  0  0  0  0  0  0  0  0
  146.6617  137.4947  155.3938 H   0  0  0  0  0  0  0  0  0  0  0  0
  150.6507  139.4616  153.5897 H   0  0  0  0  0  0  0  0  0  0  0  0
  150.7743  139.1802  155.3151 H   0  0  0  0  0  0  0  0  0  0  0  0
  151.7738  137.2932  153.1140 H   0  0  0  0  0  0  0  0  0  0  0  0
  152.7640  138.2992  154.1549 H   0  0  0  0  0  0  0  0  0  0  0  0
  150.6078  135.4307  154.0911 H   0  0  0  0  0  0  0  0  0  0  0  0
  150.7408  135.1589  155.8163 H   0  0  0  0  0  0  0  0  0  0  0  0
  149.4114  137.1737  156.3239 H   0  0  0  0  0  0  0  0  0  0  0  0
  148.5626  136.1345  155.1829 H   0  0  0  0  0  0  0  0  0  0  0  0
  149.0074  140.2978  153.0598 H   0  0  0  0  0  0  0  0  0  0  0  0
  147.8440  139.2825  152.2378 H   0  0  0  0  0  0  0  0  0  0  0  0
  147.1918  141.7905  152.9738 H   0  0  0  0  0  0  0  0  0  0  0  0
  146.0006  140.5042  153.1146 H   0  0  0  0  0  0  0  0  0  0  0  0
  147.9045  139.2779  156.5472 H   0  0  0  0  0  0  0  0  0  0  0  0
  149.0205  140.3339  155.7025 H   0  0  0  0  0  0  0  0  0  0  0  0
  147.1494  135.2426  151.7800 H   0  0  0  0  0  0  0  0  0  0  0  0
  146.9682  133.1709  150.2755 H   0  0  0  0  0  0  0  0  0  0  0  0
  145.4118  131.4723  149.3677 H   0  0  0  0  0  0  0  0  0  0  0  0
  143.0200  131.4883  150.1166 H   0  0  0  0  0  0  0  0  0  0  0  0
  143.6489  134.7299  152.5906 H   0  0  0  0  0  0  0  0  0  0  0  0
  149.3099  137.4902  153.4305 H   0  0  0  0  0  0  0  0  0  0  0  0
  1  2  2  0  0  0  0
  2  3  1  0  0  0  0
  2 16  1  0  0  0  0
  3  4  1  0  0  0  0
  3 23  1  0  0  0  0
  4  5  1  0  0  0  0
  4 24  1  0  0  0  0
  4 25  1  0  0  0  0
  5 15  1  0  0  0  0
  5  6  1  0  0  0  0
  5 12  1  0  0  0  0
  6 11  1  0  0  0  0
  6  7  1  0  0  0  0
  6 45  1  0  0  0  0
  7  8  1  0  0  0  0
  7 26  1  0  0  0  0
  7 27  1  0  0  0  0
  8  9  1  0  0  0  0
  8 28  1  0  0  0  0
  8 29  1  0  0  0  0
  9 10  1  0  0  0  0
 10 11  1  0  0  0  0
 10 30  1  0  0  0  0
 10 31  1  0  0  0  0
 11 32  1  0  0  0  0
 11 33  1  0  0  0  0
 12 13  1  0  0  0  0
 12 34  1  0  0  0  0
 12 35  1  0  0  0  0
 13 14  1  0  0  0  0
 13 36  1  0  0  0  0
 13 37  1  0  0  0  0
 14 15  1  0  0  0  0
 15 38  1  0  0  0  0
 15 39  1  0  0  0  0
 16 17  1  0  0  0  0
 16 40  1  0  0  0  0
 17 22  1  0  0  0  0
 17 18  2  0  0  0  0
 18 19  1  0  0  0  0
 18 41  1  0  0  0  0
 19 20  2  0  0  0  0
 19 42  1  0  0  0  0
 20 21  1  0  0  0  0
 20 43  1  0  0  0  0
 21 22  2  0  0  0  0
 22 44  1  0  0  0  0
M  CHG  1   6   1
M  END
> <s_m_source_file>
AV-unprocessed.smi

> <i_m_source_file_index>
1787

> <i_lp_mmshare_version>
43012

> <i_f3d_flags>
0

> <s_epik_input>
W2NIXTFuW2NIXVtjSF1bY0hdYzFbTkhdQyg9TylbTkhdW0NIMl1bQ0BdMihbQ0gyXVtDSDJdU1tDSDJdMilOM1tDSDJdW0NIMl1PW0NIMl1bQ0gyXTM=

> <s_epik_cmdline>
J2VwaWtfcHl0aG9uJywgJy1waCcsICc3LjAnLCAnLXRuJywgJzgnLCAnLW1hJywgJzIwMCcsICctbWV0YWxfYmluZGluZycsICctaW1hZScsICc8aW5maWxlLm1hZT4nLCAnLW9tYWUnLCAnPG91dGZpbGUubWFlPic=

> <r_epik_Ionization_Penalty>
2.03633

> <r_epik_Ionization_Penalty_Charging>
2.03219

> <r_epik_Ionization_Penalty_Neutral>
0.00414252

> <r_epik_State_Penalty>
2.16328

> <r_epik_Charging_Adjusted_Penalty>
4.19546

> <i_epik_Tot_Q>
1

> <i_epik_Tot_abs_Q>
1

> <r_epik_Metal_State_Penalty>
2.16381

> <b_epik_Metal_Only>
0

> <s_lp_Force_Field>
OPLS_2005

> <r_lp_Energy>
45.3922

> <b_lp_Chiralities_Consistent>
1

> <s_lp_Variant>
AV-unprocessed.smi:1787-3

> <Gold.Version>
5.8.1

> <Gold.Id.Protein>
6NUR|6NUR_protein|mol2

> <Gold.PLP.Fitness>
48.4261

> <Gold.PLP.PLP>
-30.9398

> <Gold.PLP.part.hbond>
-4.0000

> <Gold.PLP.part.metal>
0.0000

> <Gold.PLP.part.buried>
-2.6323

> <Gold.PLP.part.nonpolar>
-26.2889

> <Gold.PLP.part.repulsive>
0.4273

> <Gold.PLP.ligand.clash>
0.0000

> <Gold.PLP.ligand.torsion>
0.3058

> <Gold.PLP.Chemscore.Hbond>
4.9920

> <Gold.PLP.Chemscore.CHOScore>
1.0000

> <Gold.PLP.Chemscore.Metal>
0.0000

> <Gold.Chemscore.Hbonds>
donor molecule, donor type, donor heavy atom, donor atom, acceptor molecule, acceptor atom, score
      L1  H     3    23       P1  7948  1.00
      L1  H     6    45       P1  7948  2.00
      L1  H    16    40       P1  7948  0.99
      P1  H 10752 10763       L1     9  0.95
      L1  C    20    43       P1 10952  0.98

> <Gold.PLP.Chemscore.Internal.Correction>
0.1217

> <Gold.Rescore>
     Score         DG    S(hbond)    S(metal)    S(lipo)     H(rot)  DE(clash)    DE(int)     intcor
     18.91     -22.28       2.95        0.00      91.79       1.49       1.69       1.68       ----

> <Gold.Chemscore.Fitness>
18.9080

> <Gold.Chemscore.DG>
-22.2773

> <Gold.Chemscore.ZeroCoef>
-5.4800

> <Gold.Chemscore.Hbond>
2.9526

> <Gold.Chemscore.Metal>
0.0000

> <Gold.Chemscore.Lipo>
91.7942

> <Gold.Chemscore.Internal_Hbond>
0.0000

> <Gold.Chemscore.DEClash>
1.6913

> <Gold.Chemscore.DEInternal>
1.6780

> <Gold.Chemscore.Rot>
1.4860

> <Gold.Chemscore.Internal.Correction>
   9.000000E+99

> <Gold.Chemscore.Hbonds>
donor molecule, donor type, donor heavy atom, donor atom, acceptor molecule, acceptor atom, score
      L1  H     3    23       P1  7948  1.00
      L1  H     6    45       P1  7948  0.93
      L1  H    16    40       P1  7948  0.86
      P1  H 10752 10763       L1     9  0.12

> <Gold.Chemscore.Hbond.Weighted>
-9.8616

> <Gold.Chemscore.Metal.Weighted>
-0.0000

> <Gold.Chemscore.Lipo.Weighted>
-10.7399

> <Gold.Chemscore.Internal_Hbond.Weighted>
0.0000

> <Gold.Chemscore.DEClash.Weighted>
1.6913

> <Gold.Chemscore.DEInternal.Weighted>
1.6780

> <Gold.Chemscore.Rot.Weighted>
3.8042

> <Gold.Chemscore.Internal.Correction.Weighted>
   9.000000E+99

> <Gold.Protein.RotatedTorsions>
[ 6907 6896 6895 6894 ] final -174.61 input  -60.11 | X-H torsion
[ 7974 7965 7964 7962 ] final  -84.57 input  175.53 | X-H torsion
[ 8008 7997 7996 7995 ] final    0.29 input   59.86 | X-H torsion
[ 10167 10162 10161 10158 ] final  -86.99 input  -65.29 | X-H torsion
[ 10718 10713 10712 10709 ] final  119.63 input   66.30 | X-H torsion
[ 10763 10752 10751 10750 ] final   59.53 input  -60.55 | X-H torsion
[ 11005 11000 10999 10996 ] final   25.07 input  -57.11 | X-H torsion

> <Gold.Protein.ActiveResidues>
 VAL166  LYS551  ARG553  GLY616  TRP617  ASP618  TYR619  PRO620  LYS621  CYS622 
 ASP623  PHE694  ASN695  SER759  ASP760  ASP761  ALA762  ILE779  LEU786  VAL792 
 PHE793  MET794  SER795  GLU796  ALA797  LYS798  CYS799  TRP800  GLU811  SER814 

> <Gold.Protein.RotatedAtoms>
  151.5752  133.3385  159.2997 H   0  0  0  0  0  0  0  0  0  0  0  0  # atno 6907 bound_to 6896
  150.8345  134.7615  159.6892 H   0  0  0  0  0  0  0  0  0  0  0  0  # atno 6908 bound_to 6896
  152.4423  134.5572  159.9935 H   0  0  0  0  0  0  0  0  0  0  0  0  # atno 6909 bound_to 6896
  145.5048  140.9544  143.1740 H   0  0  0  0  0  0  0  0  0  0  0  0  # atno 7974 bound_to 7965
  154.6664  140.2602  155.7053 H   0  0  0  0  0  0  0  0  0  0  0  0  # atno 8008 bound_to 7997
  156.2640  140.2838  156.1078 H   0  0  0  0  0  0  0  0  0  0  0  0  # atno 8009 bound_to 7997
  155.1232  140.0377  157.2745 H   0  0  0  0  0  0  0  0  0  0  0  0  # atno 8010 bound_to 7997
  140.3888  143.2714  151.9291 H   0  0  0  0  0  0  0  0  0  0  0  0  # atno 10167 bound_to 10162
  157.5948  131.1059  150.7923 H   0  0  0  0  0  0  0  0  0  0  0  0  # atno 10718 bound_to 10713
  152.9897  135.5568  154.5729 H   0  0  0  0  0  0  0  0  0  0  0  0  # atno 10763 bound_to 10752
  154.5125  135.2803  155.1332 H   0  0  0  0  0  0  0  0  0  0  0  0  # atno 10764 bound_to 10752
  154.2718  135.6361  153.5366 H   0  0  0  0  0  0  0  0  0  0  0  0  # atno 10765 bound_to 10752
  140.3518  134.2220  155.7679 H   0  0  0  0  0  0  0  0  0  0  0  0  # atno 11005 bound_to 11000
  144.7760  139.6629  143.7175 LP  0  0  0  0  0  0  0  0  0  0  0  0  # atno 17320 bound_to 7965
  146.2203  139.5624  142.9622 LP  0  0  0  0  0  0  0  0  0  0  0  0  # atno 17321 bound_to 7965
  139.4790  144.5748  151.8030 LP  0  0  0  0  0  0  0  0  0  0  0  0  # atno 17342 bound_to 10162
  140.4862  144.1378  150.5941 LP  0  0  0  0  0  0  0  0  0  0  0  0  # atno 17343 bound_to 10162
  156.8337  130.5024  149.5328 LP  0  0  0  0  0  0  0  0  0  0  0  0  # atno 17370 bound_to 10713
  156.1008  130.5968  150.9891 LP  0  0  0  0  0  0  0  0  0  0  0  0  # atno 17371 bound_to 10713
  141.2010  133.7974  157.0463 LP  0  0  0  0  0  0  0  0  0  0  0  0  # atno 17394 bound_to 11000
  140.0697  134.9709  157.1446 LP  0  0  0  0  0  0  0  0  0  0  0  0  # atno 17395 bound_to 11000

$$$$
