AV-unprocessed.smi:2159|AV-procd|sdf|8791|dock4
  -GOLD-   2272011573D 1   1.00000     0.00000
 Structure written by MMmdl.
 47 49  0  0  0  0  0  0  0  0  1 V2000
  148.9809  141.2796  153.8375 O   0  0  0  0  0  0  0  0  0  0  0  0
  148.6345  141.7042  154.9400 C   0  0  0  0  0  0  0  0  0  0  0  0
  149.4223  141.3173  156.1923 C   0  0  0  0  0  0  0  0  0  0  0  0
  150.9083  141.7103  156.0781 C   0  0  0  0  0  0  0  0  0  0  0  0
  151.5528  141.7554  157.3919 N   0  0  0  0  0  0  0  0  0  0  0  0
  151.5402  142.8270  158.2070 C   0  0  0  0  0  0  0  0  0  0  0  0
  150.9305  143.8828  158.0406 O   0  0  0  0  0  0  0  0  0  0  0  0
  152.4845  142.5686  159.3715 C   0  0  1  0  0  0  0  0  0  0  0  0
  152.2197  143.1002  160.7810 C   0  0  0  0  0  0  0  0  0  0  0  0
  153.4095  142.6382  161.6637 C   0  0  0  0  0  0  0  0  0  0  0  0
  153.7214  141.1159  161.5599 C   0  0  0  0  0  0  0  0  0  0  0  0
  153.7862  140.5811  160.1045 C   0  0  0  0  0  0  0  0  0  0  0  0
  152.5127  141.0530  159.4014 C   0  0  2  0  0  0  0  0  0  0  0  0
  152.2069  140.7181  157.9490 C   0  0  0  0  0  0  0  0  0  0  0  0
  152.4636  139.6331  157.4279 O   0  0  0  0  0  0  0  0  0  0  0  0
  147.5594  142.4863  155.1283 N   0  0  0  0  0  0  0  0  0  0  0  0
  146.5931  142.8587  154.0974 C   0  0  0  0  0  0  0  0  0  0  0  0
  145.1427  142.8639  154.6226 C   0  0  0  0  0  0  0  0  0  0  0  0
  144.5949  144.2525  154.9116 C   0  0  0  0  0  0  0  0  0  0  0  0
  144.2825  145.1338  153.8550 C   0  0  0  0  0  0  0  0  0  0  0  0
  143.7305  146.3902  154.1707 C   0  0  0  0  0  0  0  0  0  0  0  0
  143.5142  146.7162  155.5236 C   0  0  0  0  0  0  0  0  0  0  0  0
  143.8622  145.7676  156.5054 C   0  0  0  0  0  0  0  0  0  0  0  0
  144.3905  144.5598  156.2135 N   0  0  0  0  0  0  0  0  0  0  0  0
  148.9697  141.7989  157.0598 H   0  0  0  0  0  0  0  0  0  0  0  0
  149.3348  140.2412  156.3510 H   0  0  0  0  0  0  0  0  0  0  0  0
  151.4393  141.0022  155.4390 H   0  0  0  0  0  0  0  0  0  0  0  0
  151.0034  142.6786  155.5829 H   0  0  0  0  0  0  0  0  0  0  0  0
  153.4524  142.9546  159.0433 H   0  0  0  0  0  0  0  0  0  0  0  0
  152.1467  144.1881  160.7791 H   0  0  0  0  0  0  0  0  0  0  0  0
  151.2766  142.7153  161.1712 H   0  0  0  0  0  0  0  0  0  0  0  0
  154.2995  143.1943  161.3666 H   0  0  0  0  0  0  0  0  0  0  0  0
  153.2240  142.9069  162.7040 H   0  0  0  0  0  0  0  0  0  0  0  0
  154.6559  140.8942  162.0763 H   0  0  0  0  0  0  0  0  0  0  0  0
  152.9462  140.5685  162.0977 H   0  0  0  0  0  0  0  0  0  0  0  0
  154.6739  140.9562  159.5938 H   0  0  0  0  0  0  0  0  0  0  0  0
  153.8501  139.4924  160.1020 H   0  0  0  0  0  0  0  0  0  0  0  0
  151.6578  140.6739  159.9660 H   0  0  0  0  0  0  0  0  0  0  0  0
  147.3550  142.7866  156.0705 H   0  0  0  0  0  0  0  0  0  0  0  0
  146.8510  143.8507  153.7260 H   0  0  0  0  0  0  0  0  0  0  0  0
  146.6701  142.1874  153.2404 H   0  0  0  0  0  0  0  0  0  0  0  0
  144.4928  142.3745  153.8953 H   0  0  0  0  0  0  0  0  0  0  0  0
  145.0801  142.2632  155.5306 H   0  0  0  0  0  0  0  0  0  0  0  0
  144.4481  144.8485  152.8266 H   0  0  0  0  0  0  0  0  0  0  0  0
  143.4730  147.0891  153.3886 H   0  0  0  0  0  0  0  0  0  0  0  0
  143.0902  147.6695  155.8020 H   0  0  0  0  0  0  0  0  0  0  0  0
  143.7074  145.9821  157.5526 H   0  0  0  0  0  0  0  0  0  0  0  0
  1  2  2  0  0  0  0
  2  3  1  0  0  0  0
  2 16  1  0  0  0  0
  3  4  1  0  0  0  0
  3 25  1  0  0  0  0
  3 26  1  0  0  0  0
  4  5  1  0  0  0  0
  4 27  1  0  0  0  0
  4 28  1  0  0  0  0
  5 14  1  0  0  0  0
  5  6  1  0  0  0  0
  6  7  2  0  0  0  0
  6  8  1  0  0  0  0
  8 13  1  0  0  0  0
  8  9  1  0  0  0  0
  8 29  1  0  0  0  0
  9 10  1  0  0  0  0
  9 30  1  0  0  0  0
  9 31  1  0  0  0  0
 10 11  1  0  0  0  0
 10 32  1  0  0  0  0
 10 33  1  0  0  0  0
 11 12  1  0  0  0  0
 11 34  1  0  0  0  0
 11 35  1  0  0  0  0
 12 13  1  0  0  0  0
 12 36  1  0  0  0  0
 12 37  1  0  0  0  0
 13 14  1  0  0  0  0
 13 38  1  0  0  0  0
 14 15  2  0  0  0  0
 16 17  1  0  0  0  0
 16 39  1  0  0  0  0
 17 18  1  0  0  0  0
 17 40  1  0  0  0  0
 17 41  1  0  0  0  0
 18 19  1  0  0  0  0
 18 42  1  0  0  0  0
 18 43  1  0  0  0  0
 19 24  1  0  0  0  0
 19 20  2  0  0  0  0
 20 21  1  0  0  0  0
 20 44  1  0  0  0  0
 21 22  2  0  0  0  0
 21 45  1  0  0  0  0
 22 23  1  0  0  0  0
 22 46  1  0  0  0  0
 23 24  2  0  0  0  0
 23 47  1  0  0  0  0
M  END
> <s_m_source_file>
AV-unprocessed.smi

> <i_m_source_file_index>
2159

> <i_lp_mmshare_version>
43012

> <i_f3d_flags>
0

> <s_epik_input>
bjFbY0hdW2NIXVtjSF1bY0hdYzFbQ0gyXVtDSDJdW05IXUMoPU8pW0NIMl1bQ0gyXU4oQzI9TylDKD1PKVtDQEhdKFtDQEBIXTIzKVtDSDJdW0NIMl1bQ0gyXVtDSDJdMw==

> <s_epik_cmdline>
J2VwaWtfcHl0aG9uJywgJy1waCcsICc3LjAnLCAnLXRuJywgJzgnLCAnLW1hJywgJzIwMCcsICctbWV0YWxfYmluZGluZycsICctaW1hZScsICc8aW5maWxlLm1hZT4nLCAnLW9tYWUnLCAnPG91dGZpbGUubWFlPic=

> <r_lp_tautomer_probability>
1

> <r_epik_Ionization_Penalty>
0.026624

> <r_epik_Ionization_Penalty_Charging>
0

> <r_epik_Ionization_Penalty_Neutral>
0.026624

> <r_epik_State_Penalty>
0.0217444

> <r_epik_Charging_Adjusted_Penalty>
0.0217444

> <i_epik_Tot_Q>
0

> <i_epik_Tot_abs_Q>
0

> <r_epik_Metal_State_Penalty>
0.0208054

> <b_epik_Metal_Only>
0

> <s_lp_Force_Field>
OPLS_2005

> <r_lp_Energy>
31.6251

> <b_lp_Chiralities_Consistent>
1

> <s_lp_Variant>
AV-unprocessed.smi:2159-1

> <Gold.Version>
5.8.1

> <Gold.Id.Protein>
6NUR|6NUR_protein|mol2

> <Gold.PLP.Fitness>
53.8790

> <Gold.PLP.PLP>
-50.3812

> <Gold.PLP.part.hbond>
-3.3953

> <Gold.PLP.part.metal>
0.0000

> <Gold.PLP.part.buried>
-6.7961

> <Gold.PLP.part.nonpolar>
-40.6863

> <Gold.PLP.part.repulsive>
1.0796

> <Gold.PLP.ligand.clash>
0.0000

> <Gold.PLP.ligand.torsion>
1.0032

> <Gold.PLP.Chemscore.Hbond>
1.8000

> <Gold.PLP.Chemscore.CHOScore>
0.0000

> <Gold.PLP.Chemscore.Metal>
0.0000

> <Gold.Chemscore.Hbonds>
donor molecule, donor type, donor heavy atom, donor atom, acceptor molecule, acceptor atom, score
      P1  H  7997  8009       L1    15  0.76
      P1  H  8011  8017       L1     1  0.78

> <Gold.PLP.Chemscore.Internal.Correction>
0.1042

> <Gold.Rescore>
     Score         DG    S(hbond)    S(metal)    S(lipo)     H(rot)  DE(clash)    DE(int)     intcor
     18.75     -20.67       1.81        0.00     121.16       1.97       1.00       0.92       ----

> <Gold.Chemscore.Fitness>
18.7496

> <Gold.Chemscore.DG>
-20.6704

> <Gold.Chemscore.ZeroCoef>
-5.4800

> <Gold.Chemscore.Hbond>
1.8139

> <Gold.Chemscore.Metal>
0.0000

> <Gold.Chemscore.Lipo>
121.1635

> <Gold.Chemscore.Internal_Hbond>
0.0000

> <Gold.Chemscore.DEClash>
1.0024

> <Gold.Chemscore.DEInternal>
0.9184

> <Gold.Chemscore.Rot>
1.9704

> <Gold.Chemscore.Internal.Correction>
   9.000000E+99

> <Gold.Chemscore.Hbonds>
donor molecule, donor type, donor heavy atom, donor atom, acceptor molecule, acceptor atom, score
      P1  H  7997  8009       L1    15  0.17
      P1  H  8011  8017       L1     1  0.73

> <Gold.Chemscore.Hbond.Weighted>
-6.0585

> <Gold.Chemscore.Metal.Weighted>
-0.0000

> <Gold.Chemscore.Lipo.Weighted>
-14.1761

> <Gold.Chemscore.Internal_Hbond.Weighted>
0.0000

> <Gold.Chemscore.DEClash.Weighted>
1.0024

> <Gold.Chemscore.DEInternal.Weighted>
0.9184

> <Gold.Chemscore.Rot.Weighted>
5.0443

> <Gold.Chemscore.Internal.Correction.Weighted>
   9.000000E+99

> <Gold.Protein.RotatedTorsions>
[ 6907 6896 6895 6894 ] final   95.98 input  -60.11 | X-H torsion
[ 7974 7965 7964 7962 ] final -120.04 input  175.53 | X-H torsion
[ 8008 7997 7996 7995 ] final -179.68 input   59.86 | X-H torsion
[ 10167 10162 10161 10158 ] final -178.85 input  -65.29 | X-H torsion
[ 10718 10713 10712 10709 ] final -106.97 input   66.30 | X-H torsion
[ 10763 10752 10751 10750 ] final  -84.94 input  -60.55 | X-H torsion
[ 11005 11000 10999 10996 ] final   65.46 input  -57.11 | X-H torsion

> <Gold.Protein.ActiveResidues>
 VAL166  LYS551  ARG553  GLY616  TRP617  ASP618  TYR619  PRO620  LYS621  CYS622 
 ASP623  PHE694  ASN695  SER759  ASP760  ASP761  ALA762  ILE779  LEU786  VAL792 
 PHE793  MET794  SER795  GLU796  ALA797  LYS798  CYS799  TRP800  GLU811  SER814 

> <Gold.Protein.RotatedAtoms>
  152.5439  134.0956  159.8295 H   0  0  0  0  0  0  0  0  0  0  0  0  # atno 6907 bound_to 6896
  151.1040  133.5215  159.2616 H   0  0  0  0  0  0  0  0  0  0  0  0  # atno 6908 bound_to 6896
  151.1959  135.0431  159.8906 H   0  0  0  0  0  0  0  0  0  0  0  0  # atno 6909 bound_to 6896
  145.0558  140.8253  143.4182 H   0  0  0  0  0  0  0  0  0  0  0  0  # atno 7974 bound_to 7965
  156.0333  140.1287  157.0235 H   0  0  0  0  0  0  0  0  0  0  0  0  # atno 8008 bound_to 7997
  154.4359  140.1045  156.6201 H   0  0  0  0  0  0  0  0  0  0  0  0  # atno 8009 bound_to 7997
  155.5775  140.3467  155.4533 H   0  0  0  0  0  0  0  0  0  0  0  0  # atno 8010 bound_to 7997
  139.5413  144.2355  152.0900 H   0  0  0  0  0  0  0  0  0  0  0  0  # atno 10167 bound_to 10162
  156.0415  130.5639  150.7756 H   0  0  0  0  0  0  0  0  0  0  0  0  # atno 10718 bound_to 10713
  154.6054  135.5502  153.7417 H   0  0  0  0  0  0  0  0  0  0  0  0  # atno 10763 bound_to 10752
  153.0172  135.6376  154.1655 H   0  0  0  0  0  0  0  0  0  0  0  0  # atno 10764 bound_to 10752
  154.1594  135.2898  155.3093 H   0  0  0  0  0  0  0  0  0  0  0  0  # atno 10765 bound_to 10752
  139.9893  134.6618  156.0120 H   0  0  0  0  0  0  0  0  0  0  0  0  # atno 11005 bound_to 11000
  145.1470  139.2537  143.5460 LP  0  0  0  0  0  0  0  0  0  0  0  0  # atno 17320 bound_to 7965
  146.3521  140.1163  142.8602 LP  0  0  0  0  0  0  0  0  0  0  0  0  # atno 17321 bound_to 7965
  140.1834  144.4822  150.6516 LP  0  0  0  0  0  0  0  0  0  0  0  0  # atno 17342 bound_to 10162
  140.6644  143.2263  151.5779 LP  0  0  0  0  0  0  0  0  0  0  0  0  # atno 17343 bound_to 10162
  157.5238  131.0933  151.0044 LP  0  0  0  0  0  0  0  0  0  0  0  0  # atno 17370 bound_to 10713
  157.0368  130.5733  149.5350 LP  0  0  0  0  0  0  0  0  0  0  0  0  # atno 17371 bound_to 10713
  141.1552  133.6543  156.4138 LP  0  0  0  0  0  0  0  0  0  0  0  0  # atno 17394 bound_to 11000
  140.4940  134.6548  157.5222 LP  0  0  0  0  0  0  0  0  0  0  0  0  # atno 17395 bound_to 11000

$$$$
