AV-unprocessed.smi:470|AV-procd|sdf|2655|dock8
  -GOLD-   2262023 63D 1   1.00000     0.00000
 Structure written by MMmdl.
 33 34  0  0  0  0  0  0  0  0  1 V2000
  144.5487  139.5056  154.7430 N   0  0  0  0  0  0  0  0  0  0  0  0
  145.8433  139.5212  155.0720 C   0  0  0  0  0  0  0  0  0  0  0  0
  146.2388  139.2358  156.2003 O   0  0  0  0  0  0  0  0  0  0  0  0
  146.8374  139.9172  153.9788 C   0  0  0  0  0  0  0  0  0  0  0  0
  148.2400  139.8732  154.5108 C   0  0  0  0  0  0  0  0  0  0  0  0
  149.2737  139.0918  154.0542 C   0  0  0  0  0  0  0  0  0  0  0  0
  150.7443  139.3635  154.9506 S   0  0  0  0  0  0  0  0  0  0  0  0
  149.8779  140.5200  155.9493 C   0  0  0  0  0  0  0  0  0  0  0  0
  150.5240  141.2582  156.9759 N   0  0  0  0  0  0  0  0  0  0  0  0
  151.7507  141.1153  157.5189 C   0  0  0  0  0  0  0  0  0  0  0  0
  152.4871  140.2132  157.1228 O   0  0  0  0  0  0  0  0  0  0  0  0
  152.2506  142.0479  158.6422 C   0  0  1  0  0  0  0  0  0  0  0  0
  151.2217  143.1536  158.9836 C   0  0  0  0  0  0  0  0  0  0  0  0
  151.6164  143.9312  160.2270 C   0  0  0  0  0  0  0  0  0  0  0  0
  152.5244  143.4907  161.1151 C   0  0  0  0  0  0  0  0  0  0  0  0
  153.2526  142.1651  160.9769 C   0  0  0  0  0  0  0  0  0  0  0  0
  152.6060  141.2544  159.9164 C   0  0  0  0  0  0  0  0  0  0  0  0
  148.6027  140.6899  155.5862 N   0  0  0  0  0  0  0  0  0  0  0  0
  143.8596  139.2419  155.4322 H   0  0  0  0  0  0  0  0  0  0  0  0
  144.2640  139.7491  153.8052 H   0  0  0  0  0  0  0  0  0  0  0  0
  146.7235  139.2490  153.1238 H   0  0  0  0  0  0  0  0  0  0  0  0
  146.5955  140.9181  153.6198 H   0  0  0  0  0  0  0  0  0  0  0  0
  149.2604  138.3826  153.2399 H   0  0  0  0  0  0  0  0  0  0  0  0
  149.9652  141.9971  157.3773 H   0  0  0  0  0  0  0  0  0  0  0  0
  153.1376  142.5763  158.2961 H   0  0  0  0  0  0  0  0  0  0  0  0
  151.1367  143.8503  158.1491 H   0  0  0  0  0  0  0  0  0  0  0  0
  150.2268  142.7416  159.1572 H   0  0  0  0  0  0  0  0  0  0  0  0
  151.1185  144.8758  160.3902 H   0  0  0  0  0  0  0  0  0  0  0  0
  152.7724  144.0961  161.9746 H   0  0  0  0  0  0  0  0  0  0  0  0
  154.2888  142.3752  160.7094 H   0  0  0  0  0  0  0  0  0  0  0  0
  153.2687  141.6592  161.9424 H   0  0  0  0  0  0  0  0  0  0  0  0
  151.6987  140.8101  160.3292 H   0  0  0  0  0  0  0  0  0  0  0  0
  153.2750  140.4228  159.6925 H   0  0  0  0  0  0  0  0  0  0  0  0
  1  2  1  0  0  0  0
  1 19  1  0  0  0  0
  1 20  1  0  0  0  0
  2  3  2  0  0  0  0
  2  4  1  0  0  0  0
  4  5  1  0  0  0  0
  4 21  1  0  0  0  0
  4 22  1  0  0  0  0
  5 18  1  0  0  0  0
  5  6  2  0  0  0  0
  6  7  1  0  0  0  0
  6 23  1  0  0  0  0
  7  8  1  0  0  0  0
  8  9  1  0  0  0  0
  8 18  2  0  0  0  0
  9 10  1  0  0  0  0
  9 24  1  0  0  0  0
 10 11  2  0  0  0  0
 10 12  1  0  0  0  0
 12 17  1  0  0  0  0
 12 13  1  0  0  0  0
 12 25  1  0  0  0  0
 13 14  1  0  0  0  0
 13 26  1  0  0  0  0
 13 27  1  0  0  0  0
 14 15  2  0  0  0  0
 14 28  1  0  0  0  0
 15 16  1  0  0  0  0
 15 29  1  0  0  0  0
 16 17  1  0  0  0  0
 16 30  1  0  0  0  0
 16 31  1  0  0  0  0
 17 32  1  0  0  0  0
 17 33  1  0  0  0  0
M  END
> <s_m_source_file>
AV-unprocessed.smi

> <i_m_source_file_index>
470

> <i_lp_mmshare_version>
43012

> <i_f3d_flags>
0

> <s_epik_input>
W05IMl1DKD1PKVtDSDJdYzFbY0hdc2MobjEpW05IXUMoPU8pW0NAQEhdMltDSDJdW0NIXT1bQ0hdW0NIMl1bQ0gyXTI=

> <s_epik_cmdline>
J2VwaWtfcHl0aG9uJywgJy1waCcsICc3LjAnLCAnLXRuJywgJzgnLCAnLW1hJywgJzIwMCcsICctbWV0YWxfYmluZGluZycsICctaW1hZScsICc8aW5maWxlLm1hZT4nLCAnLW9tYWUnLCAnPG91dGZpbGUubWFlPic=

> <r_lp_tautomer_probability>
1

> <r_epik_Ionization_Penalty>
0.00025496

> <r_epik_Ionization_Penalty_Charging>
0

> <r_epik_Ionization_Penalty_Neutral>
0.00025496

> <r_epik_State_Penalty>
-0

> <r_epik_Charging_Adjusted_Penalty>
0

> <i_epik_Tot_Q>
0

> <i_epik_Tot_abs_Q>
0

> <r_epik_Metal_State_Penalty>
0.149391

> <b_epik_Metal_Only>
0

> <s_lp_Force_Field>
OPLS_2005

> <r_lp_Energy>
12.0987

> <b_lp_Chiralities_Consistent>
1

> <s_lp_Variant>
AV-unprocessed.smi:470-2

> <Gold.Version>
5.8.1

> <Gold.Id.Protein>
6NUR|6NUR_protein|mol2

> <Gold.PLP.Fitness>
40.3212

> <Gold.PLP.PLP>
-30.4646

> <Gold.PLP.part.hbond>
-1.9772

> <Gold.PLP.part.metal>
0.0000

> <Gold.PLP.part.buried>
-1.9479

> <Gold.PLP.part.nonpolar>
-26.3684

> <Gold.PLP.part.repulsive>
0.1285

> <Gold.PLP.ligand.clash>
0.0000

> <Gold.PLP.ligand.torsion>
0.0263

> <Gold.PLP.Chemscore.Hbond>
2.0000

> <Gold.PLP.Chemscore.CHOScore>
1.2965

> <Gold.PLP.Chemscore.Metal>
0.0000

> <Gold.Chemscore.Hbonds>
donor molecule, donor type, donor heavy atom, donor atom, acceptor molecule, acceptor atom, score
      L1  H     1    20       P1 10175  1.00
      P1  H  7997  8008       L1    11  1.00
      L1  C     6    23       P1  7948  0.98
      L1  C     6    23       P1  7957  0.28

> <Gold.PLP.Chemscore.Internal.Correction>
0.0196

> <Gold.Rescore>
     Score         DG    S(hbond)    S(metal)    S(lipo)     H(rot)  DE(clash)    DE(int)     intcor
     15.91     -17.41       1.96        0.00      87.48       1.90       0.03       1.47       ----

> <Gold.Chemscore.Fitness>
15.9116

> <Gold.Chemscore.DG>
-17.4097

> <Gold.Chemscore.ZeroCoef>
-5.4800

> <Gold.Chemscore.Hbond>
1.9613

> <Gold.Chemscore.Metal>
0.0000

> <Gold.Chemscore.Lipo>
87.4763

> <Gold.Chemscore.Internal_Hbond>
0.0000

> <Gold.Chemscore.DEClash>
0.0302

> <Gold.Chemscore.DEInternal>
1.4680

> <Gold.Chemscore.Rot>
1.8968

> <Gold.Chemscore.Internal.Correction>
   9.000000E+99

> <Gold.Chemscore.Hbonds>
donor molecule, donor type, donor heavy atom, donor atom, acceptor molecule, acceptor atom, score
      L1  H     1    20       P1 10175  0.99
      P1  H  7997  8008       L1    11  0.95

> <Gold.Chemscore.Hbond.Weighted>
-6.5508

> <Gold.Chemscore.Metal.Weighted>
-0.0000

> <Gold.Chemscore.Lipo.Weighted>
-10.2347

> <Gold.Chemscore.Internal_Hbond.Weighted>
0.0000

> <Gold.Chemscore.DEClash.Weighted>
0.0302

> <Gold.Chemscore.DEInternal.Weighted>
1.4680

> <Gold.Chemscore.Rot.Weighted>
4.8558

> <Gold.Chemscore.Internal.Correction.Weighted>
   9.000000E+99

> <Gold.Protein.RotatedTorsions>
[ 6907 6896 6895 6894 ] final   39.32 input  -60.11 | X-H torsion
[ 7974 7965 7964 7962 ] final -161.80 input  175.53 | X-H torsion
[ 8008 7997 7996 7995 ] final  -56.78 input   59.86 | X-H torsion
[ 10167 10162 10161 10158 ] final   34.52 input  -65.29 | X-H torsion
[ 10718 10713 10712 10709 ] final -147.95 input   66.30 | X-H torsion
[ 10763 10752 10751 10750 ] final -144.67 input  -60.55 | X-H torsion
[ 11005 11000 10999 10996 ] final   88.02 input  -57.11 | X-H torsion

> <Gold.Protein.ActiveResidues>
 VAL166  LYS551  ARG553  GLY616  TRP617  ASP618  TYR619  PRO620  LYS621  CYS622 
 ASP623  PHE694  ASN695  SER759  ASP760  ASP761  ALA762  ILE779  LEU786  VAL792 
 PHE793  MET794  SER795  GLU796  ALA797  LYS798  CYS799  TRP800  GLU811  SER814 

> <Gold.Protein.RotatedAtoms>
  152.1680  134.8857  160.0536 H   0  0  0  0  0  0  0  0  0  0  0  0  # atno 6907 bound_to 6896
  151.9828  133.3758  159.4122 H   0  0  0  0  0  0  0  0  0  0  0  0  # atno 6908 bound_to 6896
  150.6897  134.3943  159.5134 H   0  0  0  0  0  0  0  0  0  0  0  0  # atno 6909 bound_to 6896
  144.7379  140.3346  143.6146 H   0  0  0  0  0  0  0  0  0  0  0  0  # atno 7974 bound_to 7965
  154.4243  140.1122  156.5692 H   0  0  0  0  0  0  0  0  0  0  0  0  # atno 8008 bound_to 7997
  155.6229  140.3495  155.4639 H   0  0  0  0  0  0  0  0  0  0  0  0  # atno 8009 bound_to 7997
  156.0009  140.1199  157.0537 H   0  0  0  0  0  0  0  0  0  0  0  0  # atno 8010 bound_to 7997
  140.4307  144.1329  150.6159 H   0  0  0  0  0  0  0  0  0  0  0  0  # atno 10167 bound_to 10162
  156.4141  130.7996  151.2215 H   0  0  0  0  0  0  0  0  0  0  0  0  # atno 10718 bound_to 10713
  154.8418  135.3434  154.6382 H   0  0  0  0  0  0  0  0  0  0  0  0  # atno 10763 bound_to 10752
  153.6993  135.6970  153.5072 H   0  0  0  0  0  0  0  0  0  0  0  0  # atno 10764 bound_to 10752
  153.2535  135.4346  155.0776 H   0  0  0  0  0  0  0  0  0  0  0  0  # atno 10765 bound_to 10752
  139.8906  134.8460  156.2942 H   0  0  0  0  0  0  0  0  0  0  0  0  # atno 11005 bound_to 11000
  145.7437  139.1772  143.2361 LP  0  0  0  0  0  0  0  0  0  0  0  0  # atno 17320 bound_to 7965
  146.1114  140.7423  142.9501 LP  0  0  0  0  0  0  0  0  0  0  0  0  # atno 17321 bound_to 7965
  140.4430  143.2518  151.9448 LP  0  0  0  0  0  0  0  0  0  0  0  0  # atno 17342 bound_to 10162
  139.4785  144.5636  151.8201 LP  0  0  0  0  0  0  0  0  0  0  0  0  # atno 17343 bound_to 10162
  157.7507  131.0248  150.3894 LP  0  0  0  0  0  0  0  0  0  0  0  0  # atno 17370 bound_to 10713
  156.4198  130.3950  149.6833 LP  0  0  0  0  0  0  0  0  0  0  0  0  # atno 17371 bound_to 10713
  140.9956  133.7182  156.0881 LP  0  0  0  0  0  0  0  0  0  0  0  0  # atno 17394 bound_to 11000
  140.7566  134.3985  157.5533 LP  0  0  0  0  0  0  0  0  0  0  0  0  # atno 17395 bound_to 11000

$$$$
