AV-unprocessed.smi:2069|AV-procd|sdf|8432|dock1
  -GOLD-   2272011123D 1   1.00000     0.00000
 Structure written by MMmdl.
 38 39  0  0  0  0  0  0  0  0  1 V2000
  138.1014  136.9019  153.7777 C   0  0  0  0  0  0  0  0  0  0  0  0
  139.5757  137.0599  153.9313 C   0  0  0  0  0  0  0  0  0  0  0  0
  140.3298  136.1957  154.6216 N   0  0  0  0  0  0  0  0  0  0  0  0
  141.6713  136.5519  154.6225 N   0  0  0  0  0  0  0  0  0  0  0  0
  141.8902  137.6774  153.9289 C   0  0  0  0  0  0  0  0  0  0  0  0
  143.1714  138.2681  153.7662 N   0  0  0  0  0  0  0  0  0  0  0  0
  144.3552  137.8339  154.2334 C   0  0  0  0  0  0  0  0  0  0  0  0
  144.5243  136.8168  154.9063 O   0  0  0  0  0  0  0  0  0  0  0  0
  145.3484  138.6617  153.8757 N   0  0  0  0  0  0  0  0  0  0  0  0
  146.7612  138.4922  154.2099 C   0  0  0  0  0  0  0  0  0  0  0  0
  147.5614  139.8248  154.1632 C   0  0  1  0  0  0  0  0  0  0  0  0
  146.6655  140.9718  154.6962 C   0  0  0  0  0  0  0  0  0  0  0  0
  148.8651  139.7457  154.8639 N   0  0  0  0  0  0  0  0  0  0  0  0
  149.8267  138.8716  154.1812 C   0  0  0  0  0  0  0  0  0  0  0  0
  151.1901  138.8112  154.8922 C   0  0  0  0  0  0  0  0  0  0  0  0
  151.7247  140.1214  155.0170 O   0  0  0  0  0  0  0  0  0  0  0  0
  150.8593  140.9811  155.7450 C   0  0  0  0  0  0  0  0  0  0  0  0
  149.4946  141.0603  155.0389 C   0  0  0  0  0  0  0  0  0  0  0  0
  140.4600  138.3998  153.2113 S   0  0  0  0  0  0  0  0  0  0  0  0
  137.7136  136.1883  154.5053 H   0  0  0  0  0  0  0  0  0  0  0  0
  137.8682  136.5421  152.7756 H   0  0  0  0  0  0  0  0  0  0  0  0
  137.6043  137.8598  153.9312 H   0  0  0  0  0  0  0  0  0  0  0  0
  143.1882  139.1227  153.2297 H   0  0  0  0  0  0  0  0  0  0  0  0
  145.1114  139.4744  153.3261 H   0  0  0  0  0  0  0  0  0  0  0  0
  146.8895  138.0155  155.1832 H   0  0  0  0  0  0  0  0  0  0  0  0
  147.1310  137.7833  153.4716 H   0  0  0  0  0  0  0  0  0  0  0  0
  147.7588  140.0404  153.1119 H   0  0  0  0  0  0  0  0  0  0  0  0
  145.6951  141.0057  154.2028 H   0  0  0  0  0  0  0  0  0  0  0  0
  147.1013  141.9544  154.5221 H   0  0  0  0  0  0  0  0  0  0  0  0
  146.4855  140.8656  155.7665 H   0  0  0  0  0  0  0  0  0  0  0  0
  149.4536  137.8507  154.1326 H   0  0  0  0  0  0  0  0  0  0  0  0
  149.9686  139.2085  153.1532 H   0  0  0  0  0  0  0  0  0  0  0  0
  151.0912  138.3543  155.8780 H   0  0  0  0  0  0  0  0  0  0  0  0
  151.8868  138.1958  154.3228 H   0  0  0  0  0  0  0  0  0  0  0  0
  150.7453  140.6166  156.7670 H   0  0  0  0  0  0  0  0  0  0  0  0
  151.3108  141.9713  155.8074 H   0  0  0  0  0  0  0  0  0  0  0  0
  149.6173  141.5446  154.0689 H   0  0  0  0  0  0  0  0  0  0  0  0
  148.8642  141.7115  155.6412 H   0  0  0  0  0  0  0  0  0  0  0  0
  1  2  1  0  0  0  0
  1 20  1  0  0  0  0
  1 21  1  0  0  0  0
  1 22  1  0  0  0  0
  2 19  1  0  0  0  0
  2  3  2  0  0  0  0
  3  4  1  0  0  0  0
  4  5  2  0  0  0  0
  5  6  1  0  0  0  0
  5 19  1  0  0  0  0
  6  7  1  0  0  0  0
  6 23  1  0  0  0  0
  7  8  2  0  0  0  0
  7  9  1  0  0  0  0
  9 10  1  0  0  0  0
  9 24  1  0  0  0  0
 10 11  1  0  0  0  0
 10 25  1  0  0  0  0
 10 26  1  0  0  0  0
 11 12  1  0  0  0  0
 11 13  1  0  0  0  0
 11 27  1  0  0  0  0
 12 28  1  0  0  0  0
 12 29  1  0  0  0  0
 12 30  1  0  0  0  0
 13 18  1  0  0  0  0
 13 14  1  0  0  0  0
 14 15  1  0  0  0  0
 14 31  1  0  0  0  0
 14 32  1  0  0  0  0
 15 16  1  0  0  0  0
 15 33  1  0  0  0  0
 15 34  1  0  0  0  0
 16 17  1  0  0  0  0
 17 18  1  0  0  0  0
 17 35  1  0  0  0  0
 17 36  1  0  0  0  0
 18 37  1  0  0  0  0
 18 38  1  0  0  0  0
M  END
> <s_m_source_file>
AV-unprocessed.smi

> <i_m_source_file_index>
2069

> <i_lp_mmshare_version>
43012

> <i_f3d_flags>
0

> <s_epik_input>
W0NIM11jMW5uYyhzMSlbTkhdQyg9TylbTkhdW0NIMl1bQ0BIXShbQ0gzXSlOMltDSDJdW0NIMl1PW0NIMl1bQ0gyXTI=

> <s_epik_cmdline>
J2VwaWtfcHl0aG9uJywgJy1waCcsICc3LjAnLCAnLXRuJywgJzgnLCAnLW1hJywgJzIwMCcsICctbWV0YWxfYmluZGluZycsICctaW1hZScsICc8aW5maWxlLm1hZT4nLCAnLW9tYWUnLCAnPG91dGZpbGUubWFlPic=

> <r_lp_tautomer_probability>
1

> <r_epik_Ionization_Penalty>
0.221104

> <r_epik_Ionization_Penalty_Charging>
0

> <r_epik_Ionization_Penalty_Neutral>
0.221104

> <r_epik_State_Penalty>
0.209349

> <r_epik_Charging_Adjusted_Penalty>
0.209349

> <i_epik_Tot_Q>
0

> <i_epik_Tot_abs_Q>
0

> <r_epik_Metal_State_Penalty>
0.561068

> <b_epik_Metal_Only>
0

> <s_lp_Force_Field>
OPLS_2005

> <r_lp_Energy>
28.2693

> <b_lp_Chiralities_Consistent>
1

> <s_lp_Variant>
AV-unprocessed.smi:2069-2

> <Gold.Version>
5.8.1

> <Gold.Id.Protein>
6NUR|6NUR_protein|mol2

> <Gold.PLP.Fitness>
39.8644

> <Gold.PLP.PLP>
-29.2222

> <Gold.PLP.part.hbond>
-4.0000

> <Gold.PLP.part.metal>
0.0000

> <Gold.PLP.part.buried>
-3.8823

> <Gold.PLP.part.nonpolar>
-21.7554

> <Gold.PLP.part.repulsive>
0.2302

> <Gold.PLP.ligand.clash>
0.0000

> <Gold.PLP.ligand.torsion>
0.4891

> <Gold.PLP.Chemscore.Hbond>
3.8640

> <Gold.PLP.Chemscore.CHOScore>
0.0000

> <Gold.PLP.Chemscore.Metal>
0.0000

> <Gold.Chemscore.Hbonds>
donor molecule, donor type, donor heavy atom, donor atom, acceptor molecule, acceptor atom, score
      L1  H     6    23       P1 10175  1.00
      L1  H     9    24       P1 10175  0.91
      P1  H  7989  7998       L1    16  0.96
      P1  H 11000 11005       L1     3  0.99

> <Gold.PLP.Chemscore.Internal.Correction>
0.0284

> <Gold.Rescore>
     Score         DG    S(hbond)    S(metal)    S(lipo)     H(rot)  DE(clash)    DE(int)     intcor
     17.17     -18.94       3.02        0.00      63.84       1.60       0.02       1.74       ----

> <Gold.Chemscore.Fitness>
17.1744

> <Gold.Chemscore.DG>
-18.9390

> <Gold.Chemscore.ZeroCoef>
-5.4800

> <Gold.Chemscore.Hbond>
3.0207

> <Gold.Chemscore.Metal>
0.0000

> <Gold.Chemscore.Lipo>
63.8441

> <Gold.Chemscore.Internal_Hbond>
0.0000

> <Gold.Chemscore.DEClash>
0.0222

> <Gold.Chemscore.DEInternal>
1.7424

> <Gold.Chemscore.Rot>
1.6016

> <Gold.Chemscore.Internal.Correction>
   9.000000E+99

> <Gold.Chemscore.Hbonds>
donor molecule, donor type, donor heavy atom, donor atom, acceptor molecule, acceptor atom, score
      L1  H     6    23       P1 10175  0.97
      L1  H     9    24       P1 10175  0.87
      P1  H  7989  7998       L1    16  0.17
      P1  H 11000 11005       L1     3  0.66

> <Gold.Chemscore.Hbond.Weighted>
-10.0893

> <Gold.Chemscore.Metal.Weighted>
-0.0000

> <Gold.Chemscore.Lipo.Weighted>
-7.4698

> <Gold.Chemscore.Internal_Hbond.Weighted>
0.0000

> <Gold.Chemscore.DEClash.Weighted>
0.0222

> <Gold.Chemscore.DEInternal.Weighted>
1.7424

> <Gold.Chemscore.Rot.Weighted>
4.1001

> <Gold.Chemscore.Internal.Correction.Weighted>
   9.000000E+99

> <Gold.Protein.RotatedTorsions>
[ 6907 6896 6895 6894 ] final  -73.50 input  -60.11 | X-H torsion
[ 7974 7965 7964 7962 ] final   36.48 input  175.53 | X-H torsion
[ 8008 7997 7996 7995 ] final -126.82 input   59.86 | X-H torsion
[ 10167 10162 10161 10158 ] final   96.61 input  -65.29 | X-H torsion
[ 10718 10713 10712 10709 ] final  177.46 input   66.30 | X-H torsion
[ 10763 10752 10751 10750 ] final  -62.17 input  -60.55 | X-H torsion
[ 11005 11000 10999 10996 ] final   60.54 input  -57.11 | X-H torsion

> <Gold.Protein.ActiveResidues>
 VAL166  LYS551  ARG553  GLY616  TRP617  ASP618  TYR619  PRO620  LYS621  CYS622 
 ASP623  PHE694  ASN695  SER759  ASP760  ASP761  ALA762  ILE779  LEU786  VAL792 
 PHE793  MET794  SER795  GLU796  ALA797  LYS798  CYS799  TRP800  GLU811  SER814 

> <Gold.Protein.RotatedAtoms>
  150.7128  134.5008  159.5559 H   0  0  0  0  0  0  0  0  0  0  0  0  # atno 6907 bound_to 6896
  152.2605  134.8036  160.0440 H   0  0  0  0  0  0  0  0  0  0  0  0  # atno 6908 bound_to 6896
  151.8751  133.3448  159.3784 H   0  0  0  0  0  0  0  0  0  0  0  0  # atno 6909 bound_to 6896
  146.1208  139.6012  142.9291 H   0  0  0  0  0  0  0  0  0  0  0  0  # atno 7974 bound_to 7965
  155.2360  140.0427  157.2968 H   0  0  0  0  0  0  0  0  0  0  0  0  # atno 8008 bound_to 7997
  154.5858  140.2413  155.7959 H   0  0  0  0  0  0  0  0  0  0  0  0  # atno 8009 bound_to 7997
  156.2225  140.2965  155.9995 H   0  0  0  0  0  0  0  0  0  0  0  0  # atno 8010 bound_to 7997
  139.7878  144.6864  150.9934 H   0  0  0  0  0  0  0  0  0  0  0  0  # atno 10167 bound_to 10162
  156.9049  130.9891  151.3030 H   0  0  0  0  0  0  0  0  0  0  0  0  # atno 10718 bound_to 10713
  154.2958  135.6244  153.5404 H   0  0  0  0  0  0  0  0  0  0  0  0  # atno 10763 bound_to 10752
  152.9846  135.5666  154.5340 H   0  0  0  0  0  0  0  0  0  0  0  0  # atno 10764 bound_to 10752
  154.4960  135.2869  155.1435 H   0  0  0  0  0  0  0  0  0  0  0  0  # atno 10765 bound_to 10752
  140.0225  134.6132  155.9620 H   0  0  0  0  0  0  0  0  0  0  0  0  # atno 11005 bound_to 11000
  145.5470  141.0416  143.2299 LP  0  0  0  0  0  0  0  0  0  0  0  0  # atno 17320 bound_to 7965
  144.7595  139.6991  143.7240 LP  0  0  0  0  0  0  0  0  0  0  0  0  # atno 17321 bound_to 7965
  140.7820  143.4413  151.0547 LP  0  0  0  0  0  0  0  0  0  0  0  0  # atno 17342 bound_to 10162
  139.8091  143.7976  152.3170 LP  0  0  0  0  0  0  0  0  0  0  0  0  # atno 17343 bound_to 10162
  157.6003  130.8508  149.8792 LP  0  0  0  0  0  0  0  0  0  0  0  0  # atno 17370 bound_to 10713
  156.0564  130.3708  150.1082 LP  0  0  0  0  0  0  0  0  0  0  0  0  # atno 17371 bound_to 10713
  141.1782  133.6543  156.4914 LP  0  0  0  0  0  0  0  0  0  0  0  0  # atno 17394 bound_to 11000
  140.4363  134.7056  157.4968 LP  0  0  0  0  0  0  0  0  0  0  0  0  # atno 17395 bound_to 11000

$$$$
