AV-unprocessed.smi:3330|AV-procd|sdf|12813|dock7
  -GOLD-   2272019183D 1   1.00000     0.00000
 Structure written by MMmdl.
 37 38  0  0  0  0  0  0  0  0  2 V2000
  147.6523  134.8284  156.3443 C   0  0  0  0  0  0  0  0  0  0  0  0
  147.6064  135.1035  154.8280 C   0  0  2  0  0  0  0  0  0  0  0  0
  148.7494  135.9408  154.4733 N   0  0  0  0  0  0  0  0  0  0  0  0
  148.6918  137.2521  155.1004 C   0  0  0  0  0  0  0  0  0  0  0  0
  149.6200  138.2164  154.3471 C   0  0  0  0  0  0  0  0  0  0  0  0
  150.8752  138.4159  155.0767 N   0  0  0  0  0  0  0  0  0  0  0  0
  151.6520  137.4234  155.5217 C   0  0  0  0  0  0  0  0  0  0  0  0
  151.4647  136.2107  155.4187 O   0  0  0  0  0  0  0  0  0  0  0  0
  152.8523  138.0507  156.1919 C   0  0  0  0  0  0  0  0  0  0  0  0
  152.5969  139.4635  156.0240 N   0  5  0  0  0  0  0  0  0  0  0  0
  151.4264  139.6119  155.3600 C   0  0  0  0  0  0  0  0  0  0  0  0
  150.8971  140.6735  155.0318 O   0  0  0  0  0  0  0  0  0  0  0  0
  146.3058  135.8254  154.3810 C   0  0  2  0  0  0  0  0  0  0  0  0
  145.0821  135.4660  155.2462 C   0  0  0  0  0  0  0  0  0  0  0  0
  146.0133  135.5657  152.9744 N   0  0  0  0  0  0  0  0  0  0  0  0
  145.7788  134.3503  152.3643 C   0  0  0  0  0  0  0  0  0  0  0  0
  145.5250  134.5959  151.0454 C   0  0  0  0  0  0  0  0  0  0  0  0
  145.6210  136.0113  150.9413 C   0  0  0  0  0  0  0  0  0  0  0  0
  145.9136  136.5889  152.0948 N   0  0  0  0  0  0  0  0  0  0  0  0
  146.8661  134.1373  156.6469 H   0  0  0  0  0  0  0  0  0  0  0  0
  147.5282  135.7470  156.9186 H   0  0  0  0  0  0  0  0  0  0  0  0
  148.5950  134.3735  156.6475 H   0  0  0  0  0  0  0  0  0  0  0  0
  147.6732  134.1562  154.2904 H   0  0  0  0  0  0  0  0  0  0  0  0
  148.8223  136.0307  153.4701 H   0  0  0  0  0  0  0  0  0  0  0  0
  147.6705  137.6326  155.0905 H   0  0  0  0  0  0  0  0  0  0  0  0
  149.0038  137.1738  156.1429 H   0  0  0  0  0  0  0  0  0  0  0  0
  149.8296  137.8309  153.3475 H   0  0  0  0  0  0  0  0  0  0  0  0
  149.1220  139.1757  154.1951 H   0  0  0  0  0  0  0  0  0  0  0  0
  152.8970  137.7427  157.2370 H   0  0  0  0  0  0  0  0  0  0  0  0
  153.7673  137.7167  155.7018 H   0  0  0  0  0  0  0  0  0  0  0  0
  146.4612  136.9012  154.4785 H   0  0  0  0  0  0  0  0  0  0  0  0
  145.1954  135.8210  156.2701 H   0  0  0  0  0  0  0  0  0  0  0  0
  144.9183  134.3886  155.2820 H   0  0  0  0  0  0  0  0  0  0  0  0
  144.1763  135.9265  154.8500 H   0  0  0  0  0  0  0  0  0  0  0  0
  145.8075  133.4218  152.9152 H   0  0  0  0  0  0  0  0  0  0  0  0
  145.2990  133.8747  150.2741 H   0  0  0  0  0  0  0  0  0  0  0  0
  145.4870  136.6322  150.0677 H   0  0  0  0  0  0  0  0  0  0  0  0
  1  2  1  0  0  0  0
  1 20  1  0  0  0  0
  1 21  1  0  0  0  0
  1 22  1  0  0  0  0
  2  3  1  0  0  0  0
  2 13  1  0  0  0  0
  2 23  1  0  0  0  0
  3  4  1  0  0  0  0
  3 24  1  0  0  0  0
  4  5  1  0  0  0  0
  4 25  1  0  0  0  0
  4 26  1  0  0  0  0
  5  6  1  0  0  0  0
  5 27  1  0  0  0  0
  5 28  1  0  0  0  0
  6 11  1  0  0  0  0
  6  7  1  0  0  0  0
  7  8  2  0  0  0  0
  7  9  1  0  0  0  0
  9 10  1  0  0  0  0
  9 29  1  0  0  0  0
  9 30  1  0  0  0  0
 10 11  1  0  0  0  0
 11 12  2  0  0  0  0
 13 14  1  0  0  0  0
 13 15  1  0  0  0  0
 13 31  1  0  0  0  0
 14 32  1  0  0  0  0
 14 33  1  0  0  0  0
 14 34  1  0  0  0  0
 15 19  1  0  0  0  0
 15 16  1  0  0  0  0
 16 17  2  0  0  0  0
 16 35  1  0  0  0  0
 17 18  1  0  0  0  0
 17 36  1  0  0  0  0
 18 19  2  0  0  0  0
 18 37  1  0  0  0  0
M  CHG  1  10  -1
M  END
> <s_m_source_file>
AV-unprocessed.smi

> <i_m_source_file_index>
3330

> <i_lp_mmshare_version>
43012

> <i_f3d_flags>
0

> <s_epik_input>
bjFbY0hdW2NIXVtjSF1uMVtDQEBIXShbQ0gzXSlbQ0BIXShbQ0gzXSlbTkhdW0NIMl1bQ0gyXU4yQyg9TylbQ0gyXVtOSF1DMj1P

> <s_epik_cmdline>
J2VwaWtfcHl0aG9uJywgJy1waCcsICc3LjAnLCAnLXRuJywgJzgnLCAnLW1hJywgJzIwMCcsICctbWV0YWxfYmluZGluZycsICctaW1hZScsICc8aW5maWxlLm1hZT4nLCAnLW9tYWUnLCAnPG91dGZpbGUubWFlPic=

> <r_lp_tautomer_probability>
1

> <r_epik_Ionization_Penalty>
8.77477

> <r_epik_Ionization_Penalty_Charging>
6.28461

> <r_epik_Ionization_Penalty_Neutral>
2.49016

> <r_epik_State_Penalty>
8.73376

> <r_epik_Charging_Adjusted_Penalty>
15.0184

> <i_epik_Tot_Q>
-1

> <i_epik_Tot_abs_Q>
1

> <r_epik_Metal_State_Penalty>
4.73175

> <b_epik_Metal_Only>
1

> <s_lp_Force_Field>
OPLS_2005

> <r_lp_Energy>
21.1742

> <b_lp_Chiralities_Consistent>
1

> <s_lp_Variant>
AV-unprocessed.smi:3330-13

> <Gold.Version>
5.8.1

> <Gold.Id.Protein>
6NUR|6NUR_protein|mol2

> <Gold.PLP.Fitness>
38.9228

> <Gold.PLP.PLP>
-23.3217

> <Gold.PLP.part.hbond>
-4.0000

> <Gold.PLP.part.metal>
0.0000

> <Gold.PLP.part.buried>
-1.3045

> <Gold.PLP.part.nonpolar>
-18.4106

> <Gold.PLP.part.repulsive>
0.7415

> <Gold.PLP.ligand.clash>
0.0000

> <Gold.PLP.ligand.torsion>
1.1311

> <Gold.PLP.Chemscore.Hbond>
4.9440

> <Gold.PLP.Chemscore.CHOScore>
0.9859

> <Gold.PLP.Chemscore.Metal>
0.0000

> <Gold.Chemscore.Hbonds>
donor molecule, donor type, donor heavy atom, donor atom, acceptor molecule, acceptor atom, score
      L1  H     3    24       P1  7948  1.00
      P1  H  7989  7998       L1    12  0.87
      P1  H  7997  8010       L1    10  1.90
      P1  H 10752 10763       L1     8  1.00
      L1  C    18    37       P1 10171  0.95

> <Gold.PLP.Chemscore.Internal.Correction>
0.0734

> <Gold.Rescore>
     Score         DG    S(hbond)    S(metal)    S(lipo)     H(rot)  DE(clash)    DE(int)     intcor
      8.78     -12.47       2.91        0.00      31.68       2.52       0.06       3.63       ----

> <Gold.Chemscore.Fitness>
8.7835

> <Gold.Chemscore.DG>
-12.4710

> <Gold.Chemscore.ZeroCoef>
-5.4800

> <Gold.Chemscore.Hbond>
2.9118

> <Gold.Chemscore.Metal>
0.0000

> <Gold.Chemscore.Lipo>
31.6813

> <Gold.Chemscore.Internal_Hbond>
0.0000

> <Gold.Chemscore.DEClash>
0.0588

> <Gold.Chemscore.DEInternal>
3.6287

> <Gold.Chemscore.Rot>
2.5160

> <Gold.Chemscore.Internal.Correction>
   9.000000E+99

> <Gold.Chemscore.Hbonds>
donor molecule, donor type, donor heavy atom, donor atom, acceptor molecule, acceptor atom, score
      L1  H     3    24       P1  7948  0.98
      P1  H  7989  7998       L1    12  0.19
      P1  H  7997  8010       L1    10  0.22
      P1  H 10752 10763       L1     8  0.55

> <Gold.Chemscore.Hbond.Weighted>
-9.7254

> <Gold.Chemscore.Metal.Weighted>
-0.0000

> <Gold.Chemscore.Lipo.Weighted>
-3.7067

> <Gold.Chemscore.Internal_Hbond.Weighted>
0.0000

> <Gold.Chemscore.DEClash.Weighted>
0.0588

> <Gold.Chemscore.DEInternal.Weighted>
3.6287

> <Gold.Chemscore.Rot.Weighted>
6.4410

> <Gold.Chemscore.Internal.Correction.Weighted>
   9.000000E+99

> <Gold.Protein.RotatedTorsions>
[ 6907 6896 6895 6894 ] final  -10.13 input  -60.11 | X-H torsion
[ 7974 7965 7964 7962 ] final -119.24 input  175.53 | X-H torsion
[ 8008 7997 7996 7995 ] final   77.64 input   59.86 | X-H torsion
[ 10167 10162 10161 10158 ] final   56.50 input  -65.29 | X-H torsion
[ 10718 10713 10712 10709 ] final  -12.80 input   66.30 | X-H torsion
[ 10763 10752 10751 10750 ] final   65.90 input  -60.55 | X-H torsion
[ 11005 11000 10999 10996 ] final  142.08 input  -57.11 | X-H torsion

> <Gold.Protein.ActiveResidues>
 VAL166  LYS551  ARG553  GLY616  TRP617  ASP618  TYR619  PRO620  LYS621  CYS622 
 ASP623  PHE694  ASN695  SER759  ASP760  ASP761  ALA762  ILE779  LEU786  VAL792 
 PHE793  MET794  SER795  GLU796  ALA797  LYS798  CYS799  TRP800  GLU811  SER814 

> <Gold.Protein.RotatedAtoms>
  151.4068  135.0979  159.9572 H   0  0  0  0  0  0  0  0  0  0  0  0  # atno 6907 bound_to 6896
  152.5033  133.8835  159.7369 H   0  0  0  0  0  0  0  0  0  0  0  0  # atno 6908 bound_to 6896
  150.9321  133.6697  159.2837 H   0  0  0  0  0  0  0  0  0  0  0  0  # atno 6909 bound_to 6896
  145.0647  140.8316  143.4131 H   0  0  0  0  0  0  0  0  0  0  0  0  # atno 7974 bound_to 7965
  155.8444  140.3461  155.5652 H   0  0  0  0  0  0  0  0  0  0  0  0  # atno 8008 bound_to 7997
  155.8106  140.0898  157.1926 H   0  0  0  0  0  0  0  0  0  0  0  0  # atno 8009 bound_to 7997
  154.4006  140.1448  156.3369 H   0  0  0  0  0  0  0  0  0  0  0  0  # atno 8010 bound_to 7997
  140.2081  144.3918  150.6500 H   0  0  0  0  0  0  0  0  0  0  0  0  # atno 10167 bound_to 10162
  156.6394  130.4924  149.6100 H   0  0  0  0  0  0  0  0  0  0  0  0  # atno 10718 bound_to 10713
  153.0116  135.5340  154.6739 H   0  0  0  0  0  0  0  0  0  0  0  0  # atno 10763 bound_to 10752
  154.5916  135.2859  155.0631 H   0  0  0  0  0  0  0  0  0  0  0  0  # atno 10764 bound_to 10752
  154.1722  135.6530  153.5065 H   0  0  0  0  0  0  0  0  0  0  0  0  # atno 10765 bound_to 10752
  140.0449  134.9286  157.0912 H   0  0  0  0  0  0  0  0  0  0  0  0  # atno 11005 bound_to 11000
  145.1365  139.2599  143.5512 LP  0  0  0  0  0  0  0  0  0  0  0  0  # atno 17320 bound_to 7965
  146.3526  140.1030  142.8607 LP  0  0  0  0  0  0  0  0  0  0  0  0  # atno 17321 bound_to 7965
  140.6343  143.2192  151.6428 LP  0  0  0  0  0  0  0  0  0  0  0  0  # atno 17342 bound_to 10162
  139.5191  144.3265  152.0865 LP  0  0  0  0  0  0  0  0  0  0  0  0  # atno 17343 bound_to 10162
  156.2171  130.6714  151.1330 LP  0  0  0  0  0  0  0  0  0  0  0  0  # atno 17370 bound_to 10713
  157.7175  131.0701  150.6267 LP  0  0  0  0  0  0  0  0  0  0  0  0  # atno 17371 bound_to 10713
  140.4009  134.2084  155.7163 LP  0  0  0  0  0  0  0  0  0  0  0  0  # atno 17394 bound_to 11000
  141.1902  133.8222  157.0927 LP  0  0  0  0  0  0  0  0  0  0  0  0  # atno 17395 bound_to 11000

$$$$
