AV-unprocessed.smi:792|AV-procd|sdf|3751|dock3
  -GOLD-   22720 1183D 1   1.00000     0.00000
 Structure written by MMmdl.
 47 48  0  0  0  0  0  0  0  0  2 V2000
  143.8054  133.2038  151.0619 C   0  0  0  0  0  0  0  0  0  0  0  0
  145.1677  133.1101  151.7160 C   0  0  0  0  0  0  0  0  0  0  0  0
  146.3570  133.4512  151.0364 C   0  0  0  0  0  0  0  0  0  0  0  0
  147.5914  133.3387  151.7096 C   0  0  0  0  0  0  0  0  0  0  0  0
  147.6119  132.8894  153.0483 C   0  0  0  0  0  0  0  0  0  0  0  0
  148.9226  132.7556  153.7987 C   0  0  0  0  0  0  0  0  0  0  0  0
  149.0166  133.7347  154.9761 C   0  0  0  0  0  0  0  0  0  0  0  0
  149.2464  135.0909  154.4988 N   0  0  0  0  0  0  0  0  0  0  0  0
  150.3226  135.8249  154.8096 C   0  0  0  0  0  0  0  0  0  0  0  0
  151.2461  135.4247  155.5189 O   0  0  0  0  0  0  0  0  0  0  0  0
  150.2704  137.0460  154.2584 N   0  0  0  0  0  0  0  0  0  0  0  0
  151.3003  138.0746  154.3961 C   0  0  0  0  0  0  0  0  0  0  0  0
  150.7293  139.4887  154.6164 C   0  0  0  0  0  0  0  0  0  0  0  0
  149.8615  139.9091  153.8484 O   0  0  0  0  0  0  0  0  0  0  0  0
  151.1936  140.2282  155.6534 N   0  0  0  0  0  0  0  0  0  0  0  0
  152.1733  139.7129  156.6197 C   0  0  0  0  0  0  0  0  0  0  0  0
  151.4820  139.5345  157.9839 C   0  0  0  0  0  0  0  0  0  0  0  0
  150.8386  140.8528  158.4534 C   0  0  0  0  0  0  0  0  0  0  0  0
  149.9560  141.4768  157.3561 C   0  0  0  0  0  0  0  0  0  0  0  0
  150.7229  141.5704  156.0246 C   0  0  0  0  0  0  0  0  0  0  0  0
  146.3912  132.5609  153.6761 C   0  0  0  0  0  0  0  0  0  0  0  0
  145.2297  132.6819  152.9968 N   0  3  0  0  0  0  0  0  0  0  0  0
  143.8862  133.5599  150.0344 H   0  0  0  0  0  0  0  0  0  0  0  0
  143.1663  133.8949  151.6123 H   0  0  0  0  0  0  0  0  0  0  0  0
  143.3230  132.2260  151.0464 H   0  0  0  0  0  0  0  0  0  0  0  0
  146.3273  133.7944  150.0125 H   0  0  0  0  0  0  0  0  0  0  0  0
  148.5105  133.5939  151.2025 H   0  0  0  0  0  0  0  0  0  0  0  0
  149.0260  131.7296  154.1552 H   0  0  0  0  0  0  0  0  0  0  0  0
  149.7470  132.9248  153.1044 H   0  0  0  0  0  0  0  0  0  0  0  0
  148.0939  133.7097  155.5586 H   0  0  0  0  0  0  0  0  0  0  0  0
  149.8286  133.4442  155.6444 H   0  0  0  0  0  0  0  0  0  0  0  0
  148.5411  135.4981  153.9021 H   0  0  0  0  0  0  0  0  0  0  0  0
  149.4711  137.2785  153.6872 H   0  0  0  0  0  0  0  0  0  0  0  0
  151.9226  137.8083  155.2509 H   0  0  0  0  0  0  0  0  0  0  0  0
  151.9435  138.0665  153.5143 H   0  0  0  0  0  0  0  0  0  0  0  0
  152.6223  138.7687  156.3086 H   0  0  0  0  0  0  0  0  0  0  0  0
  153.0004  140.4189  156.7076 H   0  0  0  0  0  0  0  0  0  0  0  0
  150.7164  138.7614  157.9045 H   0  0  0  0  0  0  0  0  0  0  0  0
  152.2001  139.1849  158.7262 H   0  0  0  0  0  0  0  0  0  0  0  0
  150.2554  140.6874  159.3596 H   0  0  0  0  0  0  0  0  0  0  0  0
  151.6271  141.5581  158.7187 H   0  0  0  0  0  0  0  0  0  0  0  0
  149.0581  140.8727  157.2182 H   0  0  0  0  0  0  0  0  0  0  0  0
  149.6194  142.4660  157.6669 H   0  0  0  0  0  0  0  0  0  0  0  0
  151.5836  142.2310  156.1389 H   0  0  0  0  0  0  0  0  0  0  0  0
  150.0983  142.0436  155.2689 H   0  0  0  0  0  0  0  0  0  0  0  0
  146.3083  132.2067  154.6935 H   0  0  0  0  0  0  0  0  0  0  0  0
  144.3600  132.4390  153.4722 H   0  0  0  0  0  0  0  0  0  0  0  0
  1  2  1  0  0  0  0
  1 23  1  0  0  0  0
  1 24  1  0  0  0  0
  1 25  1  0  0  0  0
  2 22  1  0  0  0  0
  2  3  2  0  0  0  0
  3  4  1  0  0  0  0
  3 26  1  0  0  0  0
  4  5  2  0  0  0  0
  4 27  1  0  0  0  0
  5  6  1  0  0  0  0
  5 21  1  0  0  0  0
  6  7  1  0  0  0  0
  6 28  1  0  0  0  0
  6 29  1  0  0  0  0
  7  8  1  0  0  0  0
  7 30  1  0  0  0  0
  7 31  1  0  0  0  0
  8  9  1  0  0  0  0
  8 32  1  0  0  0  0
  9 10  2  0  0  0  0
  9 11  1  0  0  0  0
 11 12  1  0  0  0  0
 11 33  1  0  0  0  0
 12 13  1  0  0  0  0
 12 34  1  0  0  0  0
 12 35  1  0  0  0  0
 13 14  2  0  0  0  0
 13 15  1  0  0  0  0
 15 20  1  0  0  0  0
 15 16  1  0  0  0  0
 16 17  1  0  0  0  0
 16 36  1  0  0  0  0
 16 37  1  0  0  0  0
 17 18  1  0  0  0  0
 17 38  1  0  0  0  0
 17 39  1  0  0  0  0
 18 19  1  0  0  0  0
 18 40  1  0  0  0  0
 18 41  1  0  0  0  0
 19 20  1  0  0  0  0
 19 42  1  0  0  0  0
 19 43  1  0  0  0  0
 20 44  1  0  0  0  0
 20 45  1  0  0  0  0
 21 22  2  0  0  0  0
 21 46  1  0  0  0  0
 22 47  1  0  0  0  0
M  CHG  1  22   1
M  END
> <s_m_source_file>
AV-unprocessed.smi

> <i_m_source_file_index>
792

> <i_lp_mmshare_version>
43012

> <i_f3d_flags>
0

> <s_epik_input>
W0NIM11jMVtjSF1bY0hdYyhbY0hdbjEpW0NIMl1bQ0gyXVtOSF1DKD1PKVtOSF1bQ0gyXUMoPU8pTjJbQ0gyXVtDSDJdW0NIMl1bQ0gyXVtDSDJdMg==

> <s_epik_cmdline>
J2VwaWtfcHl0aG9uJywgJy1waCcsICc3LjAnLCAnLXRuJywgJzgnLCAnLW1hJywgJzIwMCcsICctbWV0YWxfYmluZGluZycsICctaW1hZScsICc8aW5maWxlLm1hZT4nLCAnLW9tYWUnLCAnPG91dGZpbGUubWFlPic=

> <r_epik_Ionization_Penalty>
1.3596

> <r_epik_Ionization_Penalty_Charging>
1.35956

> <r_epik_Ionization_Penalty_Neutral>
4.39183e-05

> <r_epik_State_Penalty>
1.43833

> <r_epik_Charging_Adjusted_Penalty>
2.79788

> <i_epik_Tot_Q>
1

> <i_epik_Tot_abs_Q>
1

> <r_epik_Metal_State_Penalty>
1.49594

> <b_epik_Metal_Only>
0

> <s_lp_Force_Field>
OPLS_2005

> <r_lp_Energy>
23.5444

> <b_lp_Chiralities_Consistent>
1

> <s_lp_Variant>
AV-unprocessed.smi:792-2

> <Gold.Version>
5.8.1

> <Gold.Id.Protein>
6NUR|6NUR_protein|mol2

> <Gold.PLP.Fitness>
49.0752

> <Gold.PLP.PLP>
-39.7362

> <Gold.PLP.part.hbond>
-5.5068

> <Gold.PLP.part.metal>
0.0000

> <Gold.PLP.part.buried>
-3.5749

> <Gold.PLP.part.nonpolar>
-33.3968

> <Gold.PLP.part.repulsive>
1.8458

> <Gold.PLP.ligand.clash>
0.0000

> <Gold.PLP.ligand.torsion>
0.2862

> <Gold.PLP.Chemscore.Hbond>
3.2743

> <Gold.PLP.Chemscore.CHOScore>
0.0000

> <Gold.PLP.Chemscore.Metal>
0.0000

> <Gold.Chemscore.Hbonds>
donor molecule, donor type, donor heavy atom, donor atom, acceptor molecule, acceptor atom, score
      L1  H     8    32       P1  7948  0.27
      L1  H    11    33       P1  7948  0.33
      L1  H    22    47       P1 10957  0.91
      P1  H 10752 10764       L1    10  1.00

> <Gold.PLP.Chemscore.Internal.Correction>
0.0885

> <Gold.Rescore>
     Score         DG    S(hbond)    S(metal)    S(lipo)     H(rot)  DE(clash)    DE(int)     intcor
     14.94     -15.27       1.87        0.00      71.11       1.86       0.09       0.23       ----

> <Gold.Chemscore.Fitness>
14.9442

> <Gold.Chemscore.DG>
-15.2681

> <Gold.Chemscore.ZeroCoef>
-5.4800

> <Gold.Chemscore.Hbond>
1.8682

> <Gold.Chemscore.Metal>
0.0000

> <Gold.Chemscore.Lipo>
71.1090

> <Gold.Chemscore.Internal_Hbond>
0.0000

> <Gold.Chemscore.DEClash>
0.0930

> <Gold.Chemscore.DEInternal>
0.2309

> <Gold.Chemscore.Rot>
1.8639

> <Gold.Chemscore.Internal.Correction>
   9.000000E+99

> <Gold.Chemscore.Hbonds>
donor molecule, donor type, donor heavy atom, donor atom, acceptor molecule, acceptor atom, score
      L1  H     8    32       P1  7948  0.26
      L1  H    11    33       P1  7948  0.32
      L1  H    22    47       P1 10957  0.09
      P1  H 10752 10764       L1    10  0.96

> <Gold.Chemscore.Hbond.Weighted>
-6.2398

> <Gold.Chemscore.Metal.Weighted>
-0.0000

> <Gold.Chemscore.Lipo.Weighted>
-8.3198

> <Gold.Chemscore.Internal_Hbond.Weighted>
0.0000

> <Gold.Chemscore.DEClash.Weighted>
0.0930

> <Gold.Chemscore.DEInternal.Weighted>
0.2309

> <Gold.Chemscore.Rot.Weighted>
4.7715

> <Gold.Chemscore.Internal.Correction.Weighted>
   9.000000E+99

> <Gold.Protein.RotatedTorsions>
[ 6907 6896 6895 6894 ] final  -14.59 input  -60.11 | X-H torsion
[ 7974 7965 7964 7962 ] final    0.23 input  175.53 | X-H torsion
[ 8008 7997 7996 7995 ] final    2.79 input   59.86 | X-H torsion
[ 10167 10162 10161 10158 ] final   85.42 input  -65.29 | X-H torsion
[ 10718 10713 10712 10709 ] final  -23.01 input   66.30 | X-H torsion
[ 10763 10752 10751 10750 ] final  -38.78 input  -60.55 | X-H torsion
[ 11005 11000 10999 10996 ] final   19.26 input  -57.11 | X-H torsion

> <Gold.Protein.ActiveResidues>
 VAL166  LYS551  ARG553  GLY616  TRP617  ASP618  TYR619  PRO620  LYS621  CYS622 
 ASP623  PHE694  ASN695  SER759  ASP760  ASP761  ALA762  ILE779  LEU786  VAL792 
 PHE793  MET794  SER795  GLU796  ALA797  LYS798  CYS799  TRP800  GLU811  SER814 

> <Gold.Protein.RotatedAtoms>
  151.3371  135.0855  159.9358 H   0  0  0  0  0  0  0  0  0  0  0  0  # atno 6907 bound_to 6896
  152.5220  133.9485  159.7670 H   0  0  0  0  0  0  0  0  0  0  0  0  # atno 6908 bound_to 6896
  150.9834  133.6169  159.2749 H   0  0  0  0  0  0  0  0  0  0  0  0  # atno 6909 bound_to 6896
  146.2433  140.1169  142.8342 H   0  0  0  0  0  0  0  0  0  0  0  0  # atno 7974 bound_to 7965
  154.6958  140.2663  155.6767 H   0  0  0  0  0  0  0  0  0  0  0  0  # atno 8008 bound_to 7997
  156.2748  140.2782  156.1475 H   0  0  0  0  0  0  0  0  0  0  0  0  # atno 8009 bound_to 7997
  155.0833  140.0373  157.2636 H   0  0  0  0  0  0  0  0  0  0  0  0  # atno 8010 bound_to 7997
  139.8980  144.6347  150.8668 H   0  0  0  0  0  0  0  0  0  0  0  0  # atno 10167 bound_to 10162
  156.4968  130.4579  149.6723 H   0  0  0  0  0  0  0  0  0  0  0  0  # atno 10718 bound_to 10713
  153.9186  135.6785  153.4748 H   0  0  0  0  0  0  0  0  0  0  0  0  # atno 10763 bound_to 10752
  153.1041  135.4814  154.8916 H   0  0  0  0  0  0  0  0  0  0  0  0  # atno 10764 bound_to 10752
  154.7490  135.3180  154.8548 H   0  0  0  0  0  0  0  0  0  0  0  0  # atno 10765 bound_to 10752
  140.4157  134.1571  155.7669 H   0  0  0  0  0  0  0  0  0  0  0  0  # atno 11005 bound_to 11000
  145.0439  140.8967  143.5036 LP  0  0  0  0  0  0  0  0  0  0  0  0  # atno 17320 bound_to 7965
  145.1254  139.2666  143.5566 LP  0  0  0  0  0  0  0  0  0  0  0  0  # atno 17321 bound_to 7965
  140.7713  143.3459  151.2112 LP  0  0  0  0  0  0  0  0  0  0  0  0  # atno 17342 bound_to 10162
  139.7051  143.9469  152.2923 LP  0  0  0  0  0  0  0  0  0  0  0  0  # atno 17343 bound_to 10162
  156.3371  130.7362  151.2302 LP  0  0  0  0  0  0  0  0  0  0  0  0  # atno 17370 bound_to 10713
  157.7467  131.0414  150.4643 LP  0  0  0  0  0  0  0  0  0  0  0  0  # atno 17371 bound_to 10713
  141.1804  133.8426  157.1278 LP  0  0  0  0  0  0  0  0  0  0  0  0  # atno 17394 bound_to 11000
  140.0236  134.9934  157.0640 LP  0  0  0  0  0  0  0  0  0  0  0  0  # atno 17395 bound_to 11000

$$$$
