AV-unprocessed.smi:2493|AV-procd|sdf|9819|dock9
  -GOLD-   2272013453D 1   1.00000     0.00000
 Structure written by MMmdl.
 41 42  0  0  0  0  0  0  0  0  1 V2000
  151.5156  144.5856  157.8865 C   0  0  0  0  0  0  0  0  0  0  0  0
  151.2069  143.4931  158.9362 C   0  0  0  0  0  0  0  0  0  0  0  0
  149.9547  142.6873  158.4874 C   0  0  0  0  0  0  0  0  0  0  0  0
  149.9603  142.3412  157.0667 N   0  0  0  0  0  0  0  0  0  0  0  0
  150.1656  141.1165  156.5567 C   0  0  0  0  0  0  0  0  0  0  0  0
  150.3900  140.1206  157.2440 O   0  0  0  0  0  0  0  0  0  0  0  0
  150.1194  140.9974  155.0331 C   0  0  0  0  0  0  0  0  0  0  0  0
  148.7415  141.2554  154.5129 C   0  0  0  0  0  0  0  0  0  0  0  0
  147.8805  140.4635  153.8052 C   0  0  0  0  0  0  0  0  0  0  0  0
  146.7318  141.2842  153.6124 C   0  0  0  0  0  0  0  0  0  0  0  0
  146.8620  142.4848  154.1541 N   0  0  0  0  0  0  0  0  0  0  0  0
  148.0913  142.4550  154.7022 N   0  0  0  0  0  0  0  0  0  0  0  0
  152.4236  142.5274  158.9768 C   0  0  0  0  0  0  0  0  0  0  0  0
  152.5610  141.6478  160.2338 C   0  0  0  0  0  0  0  0  0  0  0  0
  153.3786  142.3234  161.3476 C   0  0  0  0  0  0  0  0  0  0  0  0
  152.6559  143.4730  162.0640 C   0  0  0  0  0  0  0  0  0  0  0  0
  152.1505  144.5911  161.1360 C   0  0  0  0  0  0  0  0  0  0  0  0
  150.9226  144.1704  160.3072 C   0  0  0  0  0  0  0  0  0  0  0  0
  148.4721  143.2519  155.1926 H   0  0  0  0  0  0  0  0  0  0  0  0
  151.6690  144.1510  156.8979 H   0  0  0  0  0  0  0  0  0  0  0  0
  152.4172  145.1436  158.1403 H   0  0  0  0  0  0  0  0  0  0  0  0
  150.7083  145.3128  157.8004 H   0  0  0  0  0  0  0  0  0  0  0  0
  149.8404  141.7896  159.0978 H   0  0  0  0  0  0  0  0  0  0  0  0
  149.0531  143.2738  158.6642 H   0  0  0  0  0  0  0  0  0  0  0  0
  149.7850  143.0956  156.4188 H   0  0  0  0  0  0  0  0  0  0  0  0
  150.8250  141.7048  154.5959 H   0  0  0  0  0  0  0  0  0  0  0  0
  150.4526  140.0023  154.7349 H   0  0  0  0  0  0  0  0  0  0  0  0
  148.0460  139.4495  153.4722 H   0  0  0  0  0  0  0  0  0  0  0  0
  145.8132  141.0437  153.0975 H   0  0  0  0  0  0  0  0  0  0  0  0
  152.3812  141.8764  158.1024 H   0  0  0  0  0  0  0  0  0  0  0  0
  153.3513  143.0870  158.8483 H   0  0  0  0  0  0  0  0  0  0  0  0
  151.5892  141.3211  160.6043 H   0  0  0  0  0  0  0  0  0  0  0  0
  153.0883  140.7368  159.9483 H   0  0  0  0  0  0  0  0  0  0  0  0
  153.6435  141.5716  162.0917 H   0  0  0  0  0  0  0  0  0  0  0  0
  154.3258  142.6819  160.9429 H   0  0  0  0  0  0  0  0  0  0  0  0
  151.8249  143.0757  162.6478 H   0  0  0  0  0  0  0  0  0  0  0  0
  153.3435  143.9066  162.7907 H   0  0  0  0  0  0  0  0  0  0  0  0
  151.8555  145.4298  161.7675 H   0  0  0  0  0  0  0  0  0  0  0  0
  152.9521  144.9688  160.5011 H   0  0  0  0  0  0  0  0  0  0  0  0
  150.3064  145.0549  160.1392 H   0  0  0  0  0  0  0  0  0  0  0  0
  150.3000  143.5181  160.9211 H   0  0  0  0  0  0  0  0  0  0  0  0
  1  2  1  0  0  0  0
  1 20  1  0  0  0  0
  1 21  1  0  0  0  0
  1 22  1  0  0  0  0
  2 18  1  0  0  0  0
  2  3  1  0  0  0  0
  2 13  1  0  0  0  0
  3  4  1  0  0  0  0
  3 23  1  0  0  0  0
  3 24  1  0  0  0  0
  4  5  1  0  0  0  0
  4 25  1  0  0  0  0
  5  6  2  0  0  0  0
  5  7  1  0  0  0  0
  7  8  1  0  0  0  0
  7 26  1  0  0  0  0
  7 27  1  0  0  0  0
  8 12  1  0  0  0  0
  8  9  2  0  0  0  0
  9 10  1  0  0  0  0
  9 28  1  0  0  0  0
 10 11  2  0  0  0  0
 10 29  1  0  0  0  0
 11 12  1  0  0  0  0
 12 19  1  0  0  0  0
 13 14  1  0  0  0  0
 13 30  1  0  0  0  0
 13 31  1  0  0  0  0
 14 15  1  0  0  0  0
 14 32  1  0  0  0  0
 14 33  1  0  0  0  0
 15 16  1  0  0  0  0
 15 34  1  0  0  0  0
 15 35  1  0  0  0  0
 16 17  1  0  0  0  0
 16 36  1  0  0  0  0
 16 37  1  0  0  0  0
 17 18  1  0  0  0  0
 17 38  1  0  0  0  0
 17 39  1  0  0  0  0
 18 40  1  0  0  0  0
 18 41  1  0  0  0  0
M  END
> <s_m_source_file>
AV-unprocessed.smi

> <i_m_source_file_index>
2493

> <i_lp_mmshare_version>
43012

> <i_f3d_flags>
0

> <s_epik_input>
W0NIMl0xW0NIMl1bQ0gyXVtDSDJdW0NIMl1bQ0gyXUMxKFtDSDNdKVtDSDJdW05IXUMoPU8pW0NIMl1jMltjSF1bY0hdbltuSF0y

> <s_epik_cmdline>
J2VwaWtfcHl0aG9uJywgJy1waCcsICc3LjAnLCAnLXRuJywgJzgnLCAnLW1hJywgJzIwMCcsICctbWV0YWxfYmluZGluZycsICctaW1hZScsICc8aW5maWxlLm1hZT4nLCAnLW9tYWUnLCAnPG91dGZpbGUubWFlPic=

> <r_lp_tautomer_probability>
0.5

> <r_epik_Ionization_Penalty>
2.55018e-05

> <r_epik_Ionization_Penalty_Charging>
0

> <r_epik_Ionization_Penalty_Neutral>
2.55018e-05

> <r_epik_State_Penalty>
0.41068

> <r_epik_Charging_Adjusted_Penalty>
0.41068

> <i_epik_Tot_Q>
0

> <i_epik_Tot_abs_Q>
0

> <r_epik_Metal_State_Penalty>
0.410675

> <b_epik_Metal_Only>
0

> <s_lp_Force_Field>
OPLS_2005

> <r_lp_Energy>
19.8643

> <b_lp_Chiralities_Consistent>
1

> <s_lp_Variant>
AV-unprocessed.smi:2493-1

> <Gold.Version>
5.8.1

> <Gold.Id.Protein>
6NUR|6NUR_protein|mol2

> <Gold.PLP.Fitness>
49.5655

> <Gold.PLP.PLP>
-41.1412

> <Gold.PLP.part.hbond>
-1.9948

> <Gold.PLP.part.metal>
0.0000

> <Gold.PLP.part.buried>
-4.4522

> <Gold.PLP.part.nonpolar>
-35.0705

> <Gold.PLP.part.repulsive>
0.3989

> <Gold.PLP.ligand.clash>
0.0000

> <Gold.PLP.ligand.torsion>
0.2916

> <Gold.PLP.Chemscore.Hbond>
2.0000

> <Gold.PLP.Chemscore.CHOScore>
1.0000

> <Gold.PLP.Chemscore.Metal>
0.0000

> <Gold.Chemscore.Hbonds>
donor molecule, donor type, donor heavy atom, donor atom, acceptor molecule, acceptor atom, score
      L1  H     4    25       P1  8028  1.00
      L1  H    12    19       P1  8028  1.00
      L1  C    10    29       P1 10175  1.00

> <Gold.PLP.Chemscore.Internal.Correction>
0.0074

> <Gold.Rescore>
     Score         DG    S(hbond)    S(metal)    S(lipo)     H(rot)  DE(clash)    DE(int)     intcor
     21.14     -22.27       1.97        0.00     123.49       1.66       0.72       0.41       ----

> <Gold.Chemscore.Fitness>
21.1394

> <Gold.Chemscore.DG>
-22.2747

> <Gold.Chemscore.ZeroCoef>
-5.4800

> <Gold.Chemscore.Hbond>
1.9742

> <Gold.Chemscore.Metal>
0.0000

> <Gold.Chemscore.Lipo>
123.4891

> <Gold.Chemscore.Internal_Hbond>
0.0000

> <Gold.Chemscore.DEClash>
0.7242

> <Gold.Chemscore.DEInternal>
0.4111

> <Gold.Chemscore.Rot>
1.6592

> <Gold.Chemscore.Internal.Correction>
   9.000000E+99

> <Gold.Chemscore.Hbonds>
donor molecule, donor type, donor heavy atom, donor atom, acceptor molecule, acceptor atom, score
      L1  H     4    25       P1  8028  0.95
      L1  H    12    19       P1  8028  0.97

> <Gold.Chemscore.Hbond.Weighted>
-6.5940

> <Gold.Chemscore.Metal.Weighted>
-0.0000

> <Gold.Chemscore.Lipo.Weighted>
-14.4482

> <Gold.Chemscore.Internal_Hbond.Weighted>
0.0000

> <Gold.Chemscore.DEClash.Weighted>
0.7242

> <Gold.Chemscore.DEInternal.Weighted>
0.4111

> <Gold.Chemscore.Rot.Weighted>
4.2475

> <Gold.Chemscore.Internal.Correction.Weighted>
   9.000000E+99

> <Gold.Protein.RotatedTorsions>
[ 6907 6896 6895 6894 ] final -147.59 input  -60.11 | X-H torsion
[ 7974 7965 7964 7962 ] final  135.55 input  175.53 | X-H torsion
[ 8008 7997 7996 7995 ] final  135.46 input   59.86 | X-H torsion
[ 10167 10162 10161 10158 ] final  -90.67 input  -65.29 | X-H torsion
[ 10718 10713 10712 10709 ] final   65.72 input   66.30 | X-H torsion
[ 10763 10752 10751 10750 ] final  136.21 input  -60.55 | X-H torsion
[ 11005 11000 10999 10996 ] final  177.10 input  -57.11 | X-H torsion

> <Gold.Protein.ActiveResidues>
 VAL166  LYS551  ARG553  GLY616  TRP617  ASP618  TYR619  PRO620  LYS621  CYS622 
 ASP623  PHE694  ASN695  SER759  ASP760  ASP761  ALA762  ILE779  LEU786  VAL792 
 PHE793  MET794  SER795  GLU796  ALA797  LYS798  CYS799  TRP800  GLU811  SER814 

> <Gold.Protein.RotatedAtoms>
  151.1579  133.4864  159.2594 H   0  0  0  0  0  0  0  0  0  0  0  0  # atno 6907 bound_to 6896
  151.1485  135.0215  159.8668 H   0  0  0  0  0  0  0  0  0  0  0  0  # atno 6908 bound_to 6896
  152.5463  134.1465  159.8554 H   0  0  0  0  0  0  0  0  0  0  0  0  # atno 6909 bound_to 6896
  144.9652  139.4666  143.5460 H   0  0  0  0  0  0  0  0  0  0  0  0  # atno 7974 bound_to 7965
  156.3003  140.2470  156.3585 H   0  0  0  0  0  0  0  0  0  0  0  0  # atno 8008 bound_to 7997
  154.8899  140.0409  157.1852 H   0  0  0  0  0  0  0  0  0  0  0  0  # atno 8009 bound_to 7997
  154.8608  140.2920  155.5544 H   0  0  0  0  0  0  0  0  0  0  0  0  # atno 8010 bound_to 7997
  140.3526  143.2883  151.9708 H   0  0  0  0  0  0  0  0  0  0  0  0  # atno 10167 bound_to 10162
  157.6123  130.9229  150.0014 H   0  0  0  0  0  0  0  0  0  0  0  0  # atno 10718 bound_to 10713
  153.8528  135.3077  155.3433 H   0  0  0  0  0  0  0  0  0  0  0  0  # atno 10763 bound_to 10752
  154.7884  135.4797  154.0000 H   0  0  0  0  0  0  0  0  0  0  0  0  # atno 10764 bound_to 10752
  153.1508  135.6843  153.8978 H   0  0  0  0  0  0  0  0  0  0  0  0  # atno 10765 bound_to 10752
  140.3804  134.6951  157.4447 H   0  0  0  0  0  0  0  0  0  0  0  0  # atno 11005 bound_to 11000
  146.3365  139.8828  142.8821 LP  0  0  0  0  0  0  0  0  0  0  0  0  # atno 17320 bound_to 7965
  145.2640  141.0087  143.3810 LP  0  0  0  0  0  0  0  0  0  0  0  0  # atno 17321 bound_to 7965
  139.4824  144.6063  151.7516 LP  0  0  0  0  0  0  0  0  0  0  0  0  # atno 17342 bound_to 10162
  140.5204  144.0887  150.6021 LP  0  0  0  0  0  0  0  0  0  0  0  0  # atno 17343 bound_to 10162
  156.1231  130.3645  149.9854 LP  0  0  0  0  0  0  0  0  0  0  0  0  # atno 17370 bound_to 10713
  156.7930  130.9263  151.3646 LP  0  0  0  0  0  0  0  0  0  0  0  0  # atno 17371 bound_to 10713
  140.0482  134.6168  155.8894 LP  0  0  0  0  0  0  0  0  0  0  0  0  # atno 17394 bound_to 11000
  141.1925  133.6575  156.5505 LP  0  0  0  0  0  0  0  0  0  0  0  0  # atno 17395 bound_to 11000

$$$$
