AV-unprocessed.smi:1956|AV-procd|sdf|7902|dock7
  -GOLD-   2272010 63D 1   1.00000     0.00000
 Structure written by MMmdl.
 46 47  0  0  0  0  0  0  0  0  2 V2000
  150.7315  142.0781  157.9548 C   0  0  0  0  0  0  0  0  0  0  0  0
  151.3011  141.3618  156.8646 O   0  0  0  0  0  0  0  0  0  0  0  0
  150.4843  140.5235  156.1338 C   0  0  0  0  0  0  0  0  0  0  0  0
  149.2382  140.1540  156.6767 C   0  0  0  0  0  0  0  0  0  0  0  0
  148.3974  139.2997  155.9378 C   0  0  0  0  0  0  0  0  0  0  0  0
  148.8321  138.8375  154.6714 C   0  0  0  0  0  0  0  0  0  0  0  0
  148.0900  137.9773  153.8145 N   0  0  0  0  0  0  0  0  0  0  0  0
  146.7660  137.7482  153.7672 C   0  0  0  0  0  0  0  0  0  0  0  0
  145.9196  138.2622  154.4974 O   0  0  0  0  0  0  0  0  0  0  0  0
  146.4624  136.8670  152.8035 N   0  0  0  0  0  0  0  0  0  0  0  0
  145.1159  136.3967  152.4978 C   0  0  0  0  0  0  0  0  0  0  0  0
  144.9016  136.2389  150.9796 C   0  0  0  0  0  0  0  0  0  0  0  0
  145.0954  134.8393  150.5242 N   0  3  1  0  0  0  0  0  0  0  0  0
  146.4088  134.2868  150.9456 C   0  0  0  0  0  0  0  0  0  0  0  0
  146.6529  132.9021  150.3251 C   0  0  0  0  0  0  0  0  0  0  0  0
  145.5113  131.9349  150.6689 C   0  0  0  0  0  0  0  0  0  0  0  0
  144.1417  132.5296  150.2921 C   0  0  2  0  0  0  0  0  0  0  0  0
  143.8850  132.5230  148.7748 C   0  0  0  0  0  0  0  0  0  0  0  0
  143.9754  133.9357  150.9045 C   0  0  0  0  0  0  0  0  0  0  0  0
  150.0966  139.2693  154.2189 C   0  0  0  0  0  0  0  0  0  0  0  0
  150.9071  140.0876  154.9219 N   0  0  0  0  0  0  0  0  0  0  0  0
  151.5012  142.6888  158.4263 H   0  0  0  0  0  0  0  0  0  0  0  0
  150.3346  141.4019  158.7137 H   0  0  0  0  0  0  0  0  0  0  0  0
  149.9372  142.7471  157.6205 H   0  0  0  0  0  0  0  0  0  0  0  0
  148.9307  140.5207  157.6450 H   0  0  0  0  0  0  0  0  0  0  0  0
  147.4449  139.0285  156.3629 H   0  0  0  0  0  0  0  0  0  0  0  0
  148.6468  137.4583  153.1514 H   0  0  0  0  0  0  0  0  0  0  0  0
  147.2166  136.4875  152.2494 H   0  0  0  0  0  0  0  0  0  0  0  0
  144.9831  135.4457  153.0118 H   0  0  0  0  0  0  0  0  0  0  0  0
  144.3780  137.0820  152.9187 H   0  0  0  0  0  0  0  0  0  0  0  0
  143.8822  136.5477  150.7441 H   0  0  0  0  0  0  0  0  0  0  0  0
  145.5602  136.9062  150.4214 H   0  0  0  0  0  0  0  0  0  0  0  0
  147.2107  134.9586  150.6371 H   0  0  0  0  0  0  0  0  0  0  0  0
  146.4471  134.2255  152.0344 H   0  0  0  0  0  0  0  0  0  0  0  0
  146.7507  132.9952  149.2430 H   0  0  0  0  0  0  0  0  0  0  0  0
  147.6004  132.4978  150.6824 H   0  0  0  0  0  0  0  0  0  0  0  0
  145.6640  130.9761  150.1722 H   0  0  0  0  0  0  0  0  0  0  0  0
  145.5301  131.7293  151.7401 H   0  0  0  0  0  0  0  0  0  0  0  0
  143.3778  131.8886  150.7343 H   0  0  0  0  0  0  0  0  0  0  0  0
  144.5866  133.1624  148.2389 H   0  0  0  0  0  0  0  0  0  0  0  0
  142.8791  132.8775  148.5477 H   0  0  0  0  0  0  0  0  0  0  0  0
  143.9759  131.5161  148.3665 H   0  0  0  0  0  0  0  0  0  0  0  0
  143.9341  133.8611  151.9925 H   0  0  0  0  0  0  0  0  0  0  0  0
  143.0194  134.3518  150.5888 H   0  0  0  0  0  0  0  0  0  0  0  0
  150.4732  138.9481  153.2587 H   0  0  0  0  0  0  0  0  0  0  0  0
  145.1179  134.8719  149.5148 H   0  0  0  0  0  0  0  0  0  0  0  0
  1  2  1  0  0  0  0
  1 22  1  0  0  0  0
  1 23  1  0  0  0  0
  1 24  1  0  0  0  0
  2  3  1  0  0  0  0
  3 21  1  0  0  0  0
  3  4  2  0  0  0  0
  4  5  1  0  0  0  0
  4 25  1  0  0  0  0
  5  6  2  0  0  0  0
  5 26  1  0  0  0  0
  6  7  1  0  0  0  0
  6 20  1  0  0  0  0
  7  8  1  0  0  0  0
  7 27  1  0  0  0  0
  8  9  2  0  0  0  0
  8 10  1  0  0  0  0
 10 11  1  0  0  0  0
 10 28  1  0  0  0  0
 11 12  1  0  0  0  0
 11 29  1  0  0  0  0
 11 30  1  0  0  0  0
 12 13  1  0  0  0  0
 12 31  1  0  0  0  0
 12 32  1  0  0  0  0
 13 19  1  0  0  0  0
 13 14  1  0  0  0  0
 13 46  1  0  0  0  0
 14 15  1  0  0  0  0
 14 33  1  0  0  0  0
 14 34  1  0  0  0  0
 15 16  1  0  0  0  0
 15 35  1  0  0  0  0
 15 36  1  0  0  0  0
 16 17  1  0  0  0  0
 16 37  1  0  0  0  0
 16 38  1  0  0  0  0
 17 18  1  0  0  0  0
 17 19  1  0  0  0  0
 17 39  1  0  0  0  0
 18 40  1  0  0  0  0
 18 41  1  0  0  0  0
 18 42  1  0  0  0  0
 19 43  1  0  0  0  0
 19 44  1  0  0  0  0
 20 21  2  0  0  0  0
 20 45  1  0  0  0  0
M  CHG  1  13   1
M  END
> <s_m_source_file>
AV-unprocessed.smi

> <i_m_source_file_index>
1956

> <i_lp_mmshare_version>
43012

> <i_f3d_flags>
0

> <s_epik_input>
W0NIM11PYzFbY0hdW2NIXWMoW2NIXW4xKVtOSF1DKD1PKVtOSF1bQ0gyXVtDSDJdTjJbQ0gyXVtDSDJdW0NIMl1bQ0BASF0oW0NIM10pW0NIMl0y

> <s_epik_cmdline>
J2VwaWtfcHl0aG9uJywgJy1waCcsICc3LjAnLCAnLXRuJywgJzgnLCAnLW1hJywgJzIwMCcsICctbWV0YWxfYmluZGluZycsICctaW1hZScsICc8aW5maWxlLm1hZT4nLCAnLW9tYWUnLCAnPG91dGZpbGUubWFlPic=

> <r_lp_tautomer_probability>
1

> <r_epik_Ionization_Penalty>
0.00179545

> <r_epik_Ionization_Penalty_Charging>
0.00171832

> <r_epik_Ionization_Penalty_Neutral>
7.7124e-05

> <r_epik_State_Penalty>
0.0011618

> <r_epik_Charging_Adjusted_Penalty>
0.00288012

> <i_epik_Tot_Q>
1

> <i_epik_Tot_abs_Q>
1

> <r_epik_Metal_State_Penalty>
-0

> <b_epik_Metal_Only>
0

> <s_lp_Force_Field>
OPLS_2005

> <r_lp_Energy>
22.555

> <b_lp_Chiralities_Consistent>
1

> <s_lp_Variant>
AV-unprocessed.smi:1956-3

> <Gold.Version>
5.8.1

> <Gold.Id.Protein>
6NUR|6NUR_protein|mol2

> <Gold.PLP.Fitness>
44.1398

> <Gold.PLP.PLP>
-31.9992

> <Gold.PLP.part.hbond>
-4.0000

> <Gold.PLP.part.metal>
0.0000

> <Gold.PLP.part.buried>
1.6851

> <Gold.PLP.part.nonpolar>
-29.7408

> <Gold.PLP.part.repulsive>
0.3544

> <Gold.PLP.ligand.clash>
0.0000

> <Gold.PLP.ligand.torsion>
0.7780

> <Gold.PLP.Chemscore.Hbond>
4.0000

> <Gold.PLP.Chemscore.CHOScore>
0.5499

> <Gold.PLP.Chemscore.Metal>
0.0000

> <Gold.Chemscore.Hbonds>
donor molecule, donor type, donor heavy atom, donor atom, acceptor molecule, acceptor atom, score
      L1  H     7    27       P1  7948  1.00
      L1  H    10    28       P1  7948  1.00
      L1  H    13    46       P1  7921  0.73
      P1  H  7989  7998       L1    21  0.80
      L1  C    20    45       P1  7957  0.81

> <Gold.PLP.Chemscore.Internal.Correction>
0.0468

> <Gold.Rescore>
     Score         DG    S(hbond)    S(metal)    S(lipo)     H(rot)  DE(clash)    DE(int)     intcor
     18.56     -22.18       3.12        0.00      90.97       1.71       1.54       2.08       ----

> <Gold.Chemscore.Fitness>
18.5582

> <Gold.Chemscore.DG>
-22.1810

> <Gold.Chemscore.ZeroCoef>
-5.4800

> <Gold.Chemscore.Hbond>
3.1247

> <Gold.Chemscore.Metal>
0.0000

> <Gold.Chemscore.Lipo>
90.9731

> <Gold.Chemscore.Internal_Hbond>
0.0000

> <Gold.Chemscore.DEClash>
1.5424

> <Gold.Chemscore.DEInternal>
2.0804

> <Gold.Chemscore.Rot>
1.7107

> <Gold.Chemscore.Internal.Correction>
   9.000000E+99

> <Gold.Chemscore.Hbonds>
donor molecule, donor type, donor heavy atom, donor atom, acceptor molecule, acceptor atom, score
      L1  H     7    27       P1  7948  0.99
      L1  H    10    28       P1  7948  0.98
      L1  H    13    46       P1  7921  0.71
      P1  H  7989  7998       L1    21  0.12

> <Gold.Chemscore.Hbond.Weighted>
-10.4365

> <Gold.Chemscore.Metal.Weighted>
-0.0000

> <Gold.Chemscore.Lipo.Weighted>
-10.6438

> <Gold.Chemscore.Internal_Hbond.Weighted>
0.0000

> <Gold.Chemscore.DEClash.Weighted>
1.5424

> <Gold.Chemscore.DEInternal.Weighted>
2.0804

> <Gold.Chemscore.Rot.Weighted>
4.3794

> <Gold.Chemscore.Internal.Correction.Weighted>
   9.000000E+99

> <Gold.Protein.RotatedTorsions>
[ 6907 6896 6895 6894 ] final  154.41 input  -60.11 | X-H torsion
[ 7974 7965 7964 7962 ] final    4.92 input  175.53 | X-H torsion
[ 8008 7997 7996 7995 ] final  157.25 input   59.86 | X-H torsion
[ 10167 10162 10161 10158 ] final  113.98 input  -65.29 | X-H torsion
[ 10718 10713 10712 10709 ] final  -47.95 input   66.30 | X-H torsion
[ 10763 10752 10751 10750 ] final   30.26 input  -60.55 | X-H torsion
[ 11005 11000 10999 10996 ] final -141.44 input  -57.11 | X-H torsion

> <Gold.Protein.ActiveResidues>
 VAL166  LYS551  ARG553  GLY616  TRP617  ASP618  TYR619  PRO620  LYS621  CYS622 
 ASP623  PHE694  ASN695  SER759  ASP760  ASP761  ALA762  ILE779  LEU786  VAL792 
 PHE793  MET794  SER795  GLU796  ALA797  LYS798  CYS799  TRP800  GLU811  SER814 

> <Gold.Protein.RotatedAtoms>
  152.0589  133.4053  159.4408 H   0  0  0  0  0  0  0  0  0  0  0  0  # atno 6907 bound_to 6896
  150.6867  134.3223  159.4801 H   0  0  0  0  0  0  0  0  0  0  0  0  # atno 6908 bound_to 6896
  152.1041  134.9320  160.0619 H   0  0  0  0  0  0  0  0  0  0  0  0  # atno 6909 bound_to 6896
  146.2442  140.0462  142.8378 H   0  0  0  0  0  0  0  0  0  0  0  0  # atno 7974 bound_to 7965
  156.2375  140.1890  156.7079 H   0  0  0  0  0  0  0  0  0  0  0  0  # atno 8008 bound_to 7997
  154.6134  140.0619  156.9550 H   0  0  0  0  0  0  0  0  0  0  0  0  # atno 8009 bound_to 7997
  155.1979  140.3290  155.4350 H   0  0  0  0  0  0  0  0  0  0  0  0  # atno 8010 bound_to 7997
  139.6421  144.7124  151.2215 H   0  0  0  0  0  0  0  0  0  0  0  0  # atno 10167 bound_to 10162
  156.2035  130.4157  149.9209 H   0  0  0  0  0  0  0  0  0  0  0  0  # atno 10718 bound_to 10713
  153.0382  135.6468  154.1017 H   0  0  0  0  0  0  0  0  0  0  0  0  # atno 10763 bound_to 10752
  154.0728  135.2879  155.3306 H   0  0  0  0  0  0  0  0  0  0  0  0  # atno 10764 bound_to 10752
  154.6583  135.5401  153.8050 H   0  0  0  0  0  0  0  0  0  0  0  0  # atno 10765 bound_to 10752
  140.8324  134.2501  157.4850 H   0  0  0  0  0  0  0  0  0  0  0  0  # atno 11005 bound_to 11000
  145.1025  140.9355  143.4704 LP  0  0  0  0  0  0  0  0  0  0  0  0  # atno 17320 bound_to 7965
  145.0658  139.3070  143.5857 LP  0  0  0  0  0  0  0  0  0  0  0  0  # atno 17321 bound_to 7965
  140.7496  143.6293  150.8438 LP  0  0  0  0  0  0  0  0  0  0  0  0  # atno 17342 bound_to 10162
  139.9932  143.5825  152.2903 LP  0  0  0  0  0  0  0  0  0  0  0  0  # atno 17343 bound_to 10162
  156.6911  130.8896  151.3588 LP  0  0  0  0  0  0  0  0  0  0  0  0  # atno 17370 bound_to 10713
  157.6999  130.9322  150.0754 LP  0  0  0  0  0  0  0  0  0  0  0  0  # atno 17371 bound_to 10713
  139.8704  134.9593  156.4328 LP  0  0  0  0  0  0  0  0  0  0  0  0  # atno 17394 bound_to 11000
  140.8983  133.7797  155.9651 LP  0  0  0  0  0  0  0  0  0  0  0  0  # atno 17395 bound_to 11000

$$$$
