AV-unprocessed.smi:1251|AV-procd|sdf|5257|dock7
  -GOLD-   22720 4363D 1   1.00000     0.00000
 Structure written by MMmdl.
 39 40  0  0  0  0  0  0  0  0  1 V2000
  151.6857  142.9466  158.2078 C   0  0  0  0  0  0  0  0  0  0  0  0
  151.3347  141.6788  157.4215 C   0  0  0  0  0  0  0  0  0  0  0  0
  150.4516  141.9685  156.1999 C   0  0  0  0  0  0  0  0  0  0  0  0
  150.1096  140.7340  155.4340 C   0  0  0  0  0  0  0  0  0  0  0  0
  151.0399  139.9308  154.9031 N   0  0  0  0  0  0  0  0  0  0  0  0
  150.4822  138.8624  154.2152 N   0  0  0  0  0  0  0  0  0  0  0  0
  149.1428  138.9000  154.2335 C   0  0  0  0  0  0  0  0  0  0  0  0
  148.3171  137.9306  153.6048 N   0  0  0  0  0  0  0  0  0  0  0  0
  147.0522  137.5901  153.9082 C   0  0  0  0  0  0  0  0  0  0  0  0
  146.3830  138.0793  154.8187 O   0  0  0  0  0  0  0  0  0  0  0  0
  146.5983  136.6331  153.0847 N   0  0  0  0  0  0  0  0  0  0  0  0
  145.2730  136.0195  153.1420 C   0  0  1  0  0  0  0  0  0  0  0  0
  144.2183  137.1362  153.1785 C   0  0  0  0  0  0  0  0  0  0  0  0
  145.0809  135.0697  151.9408 C   0  0  2  0  0  0  0  0  0  0  0  0
  143.8262  134.1955  152.0174 C   0  0  0  0  0  0  0  0  0  0  0  0
  144.2248  133.0001  151.1838 C   0  0  0  0  0  0  0  0  0  0  0  0
  145.6856  132.8305  151.5813 C   0  0  0  0  0  0  0  0  0  0  0  0
  146.1651  134.1448  151.8478 O   0  0  0  0  0  0  0  0  0  0  0  0
  148.4480  140.2585  155.1012 S   0  0  0  0  0  0  0  0  0  0  0  0
  152.3109  142.7088  159.0689 H   0  0  0  0  0  0  0  0  0  0  0  0
  150.7876  143.4438  158.5754 H   0  0  0  0  0  0  0  0  0  0  0  0
  152.2321  143.6567  157.5864 H   0  0  0  0  0  0  0  0  0  0  0  0
  152.2554  141.1910  157.0990 H   0  0  0  0  0  0  0  0  0  0  0  0
  150.8271  140.9742  158.0816 H   0  0  0  0  0  0  0  0  0  0  0  0
  149.5266  142.4551  156.5129 H   0  0  0  0  0  0  0  0  0  0  0  0
  150.9566  142.6635  155.5283 H   0  0  0  0  0  0  0  0  0  0  0  0
  148.7388  137.4400  152.8304 H   0  0  0  0  0  0  0  0  0  0  0  0
  147.2220  136.2907  152.3689 H   0  0  0  0  0  0  0  0  0  0  0  0
  145.1738  135.4429  154.0635 H   0  0  0  0  0  0  0  0  0  0  0  0
  143.2123  136.7302  153.2850 H   0  0  0  0  0  0  0  0  0  0  0  0
  144.2410  137.7350  152.2673 H   0  0  0  0  0  0  0  0  0  0  0  0
  144.3872  137.8063  154.0220 H   0  0  0  0  0  0  0  0  0  0  0  0
  145.0592  135.6397  151.0103 H   0  0  0  0  0  0  0  0  0  0  0  0
  143.6357  133.8824  153.0450 H   0  0  0  0  0  0  0  0  0  0  0  0
  142.9341  134.6975  151.6420 H   0  0  0  0  0  0  0  0  0  0  0  0
  143.6217  132.1140  151.3842 H   0  0  0  0  0  0  0  0  0  0  0  0
  144.1466  133.2381  150.1221 H   0  0  0  0  0  0  0  0  0  0  0  0
  145.7650  132.2418  152.4960 H   0  0  0  0  0  0  0  0  0  0  0  0
  146.2753  132.3379  150.8078 H   0  0  0  0  0  0  0  0  0  0  0  0
  1  2  1  0  0  0  0
  1 20  1  0  0  0  0
  1 21  1  0  0  0  0
  1 22  1  0  0  0  0
  2  3  1  0  0  0  0
  2 23  1  0  0  0  0
  2 24  1  0  0  0  0
  3  4  1  0  0  0  0
  3 25  1  0  0  0  0
  3 26  1  0  0  0  0
  4 19  1  0  0  0  0
  4  5  2  0  0  0  0
  5  6  1  0  0  0  0
  6  7  2  0  0  0  0
  7  8  1  0  0  0  0
  7 19  1  0  0  0  0
  8  9  1  0  0  0  0
  8 27  1  0  0  0  0
  9 10  2  0  0  0  0
  9 11  1  0  0  0  0
 11 12  1  0  0  0  0
 11 28  1  0  0  0  0
 12 13  1  0  0  0  0
 12 14  1  0  0  0  0
 12 29  1  0  0  0  0
 13 30  1  0  0  0  0
 13 31  1  0  0  0  0
 13 32  1  0  0  0  0
 14 18  1  0  0  0  0
 14 15  1  0  0  0  0
 14 33  1  0  0  0  0
 15 16  1  0  0  0  0
 15 34  1  0  0  0  0
 15 35  1  0  0  0  0
 16 17  1  0  0  0  0
 16 36  1  0  0  0  0
 16 37  1  0  0  0  0
 17 18  1  0  0  0  0
 17 38  1  0  0  0  0
 17 39  1  0  0  0  0
M  END
> <s_m_source_file>
AV-unprocessed.smi

> <i_m_source_file_index>
1251

> <i_lp_mmshare_version>
43012

> <i_f3d_flags>
0

> <s_epik_input>
W0NIM11bQ0gyXVtDSDJdYzFubmMoczEpW05IXUMoPU8pW05IXVtDQEhdKFtDSDNdKVtDQEBIXTJbQ0gyXVtDSDJdW0NIMl1PMg==

> <s_epik_cmdline>
J2VwaWtfcHl0aG9uJywgJy1waCcsICc3LjAnLCAnLXRuJywgJzgnLCAnLW1hJywgJzIwMCcsICctbWV0YWxfYmluZGluZycsICctaW1hZScsICc8aW5maWxlLm1hZT4nLCAnLW9tYWUnLCAnPG91dGZpbGUubWFlPic=

> <r_lp_tautomer_probability>
1

> <r_epik_Ionization_Penalty>
0.000503621

> <r_epik_Ionization_Penalty_Charging>
0

> <r_epik_Ionization_Penalty_Neutral>
0.000503621

> <r_epik_State_Penalty>
-0

> <r_epik_Charging_Adjusted_Penalty>
0

> <i_epik_Tot_Q>
0

> <i_epik_Tot_abs_Q>
0

> <r_epik_Metal_State_Penalty>
0.219912

> <b_epik_Metal_Only>
0

> <s_lp_Force_Field>
OPLS_2005

> <r_lp_Energy>
12.879

> <b_lp_Chiralities_Consistent>
1

> <s_lp_Variant>
AV-unprocessed.smi:1251-2

> <Gold.Version>
5.8.1

> <Gold.Id.Protein>
6NUR|6NUR_protein|mol2

> <Gold.PLP.Fitness>
35.5665

> <Gold.PLP.PLP>
-27.4478

> <Gold.PLP.part.hbond>
-2.8734

> <Gold.PLP.part.metal>
0.0000

> <Gold.PLP.part.buried>
-4.2033

> <Gold.PLP.part.nonpolar>
-21.2548

> <Gold.PLP.part.repulsive>
0.5136

> <Gold.PLP.ligand.clash>
0.0000

> <Gold.PLP.ligand.torsion>
0.2715

> <Gold.PLP.Chemscore.Hbond>
2.8800

> <Gold.PLP.Chemscore.CHOScore>
0.0000

> <Gold.PLP.Chemscore.Metal>
0.0000

> <Gold.Chemscore.Hbonds>
donor molecule, donor type, donor heavy atom, donor atom, acceptor molecule, acceptor atom, score
      L1  H     8    27       P1  7948  1.00
      L1  H    11    28       P1  7948  0.90
      P1  H  7989  7998       L1     5  0.95

> <Gold.PLP.Chemscore.Internal.Correction>
0.0216

> <Gold.Rescore>
     Score         DG    S(hbond)    S(metal)    S(lipo)     H(rot)  DE(clash)    DE(int)     intcor
     13.99     -15.31       1.94        0.00      63.18       1.58       0.13       1.19       ----

> <Gold.Chemscore.Fitness>
13.9911

> <Gold.Chemscore.DG>
-15.3111

> <Gold.Chemscore.ZeroCoef>
-5.4800

> <Gold.Chemscore.Hbond>
1.9446

> <Gold.Chemscore.Metal>
0.0000

> <Gold.Chemscore.Lipo>
63.1805

> <Gold.Chemscore.Internal_Hbond>
0.0000

> <Gold.Chemscore.DEClash>
0.1347

> <Gold.Chemscore.DEInternal>
1.1853

> <Gold.Chemscore.Rot>
1.5843

> <Gold.Chemscore.Internal.Correction>
   9.000000E+99

> <Gold.Chemscore.Hbonds>
donor molecule, donor type, donor heavy atom, donor atom, acceptor molecule, acceptor atom, score
      L1  H     8    27       P1  7948  0.93
      L1  H    11    28       P1  7948  0.88
      P1  H  7989  7998       L1     5  0.09

> <Gold.Chemscore.Hbond.Weighted>
-6.4948

> <Gold.Chemscore.Metal.Weighted>
-0.0000

> <Gold.Chemscore.Lipo.Weighted>
-7.3921

> <Gold.Chemscore.Internal_Hbond.Weighted>
0.0000

> <Gold.Chemscore.DEClash.Weighted>
0.1347

> <Gold.Chemscore.DEInternal.Weighted>
1.1853

> <Gold.Chemscore.Rot.Weighted>
4.0558

> <Gold.Chemscore.Internal.Correction.Weighted>
   9.000000E+99

> <Gold.Protein.RotatedTorsions>
[ 6907 6896 6895 6894 ] final  -26.68 input  -60.11 | X-H torsion
[ 7974 7965 7964 7962 ] final -139.69 input  175.53 | X-H torsion
[ 8008 7997 7996 7995 ] final  144.89 input   59.86 | X-H torsion
[ 10167 10162 10161 10158 ] final  -39.96 input  -65.29 | X-H torsion
[ 10718 10713 10712 10709 ] final -145.85 input   66.30 | X-H torsion
[ 10763 10752 10751 10750 ] final   52.58 input  -60.55 | X-H torsion
[ 11005 11000 10999 10996 ] final   19.62 input  -57.11 | X-H torsion

> <Gold.Protein.ActiveResidues>
 VAL166  LYS551  ARG553  GLY616  TRP617  ASP618  TYR619  PRO620  LYS621  CYS622 
 ASP623  PHE694  ASN695  SER759  ASP760  ASP761  ALA762  ILE779  LEU786  VAL792 
 PHE793  MET794  SER795  GLU796  ALA797  LYS798  CYS799  TRP800  GLU811  SER814 

> <Gold.Protein.RotatedAtoms>
  151.1576  135.0258  159.8695 H   0  0  0  0  0  0  0  0  0  0  0  0  # atno 6907 bound_to 6896
  152.5452  134.1316  159.8452 H   0  0  0  0  0  0  0  0  0  0  0  0  # atno 6908 bound_to 6896
  151.1408  133.4926  159.2629 H   0  0  0  0  0  0  0  0  0  0  0  0  # atno 6909 bound_to 6896
  144.8656  140.6288  143.5300 H   0  0  0  0  0  0  0  0  0  0  0  0  # atno 7974 bound_to 7965
  156.2897  140.2224  156.5126 H   0  0  0  0  0  0  0  0  0  0  0  0  # atno 8008 bound_to 7997
  154.7596  140.0474  157.0984 H   0  0  0  0  0  0  0  0  0  0  0  0  # atno 8009 bound_to 7997
  155.0007  140.3101  155.4871 H   0  0  0  0  0  0  0  0  0  0  0  0  # atno 8010 bound_to 7997
  140.7049  143.3182  151.2856 H   0  0  0  0  0  0  0  0  0  0  0  0  # atno 10167 bound_to 10162
  156.3876  130.7869  151.2068 H   0  0  0  0  0  0  0  0  0  0  0  0  # atno 10718 bound_to 10713
  152.9790  135.5807  154.4602 H   0  0  0  0  0  0  0  0  0  0  0  0  # atno 10763 bound_to 10752
  154.4179  135.2771  155.1996 H   0  0  0  0  0  0  0  0  0  0  0  0  # atno 10764 bound_to 10752
  154.3758  135.6157  153.5818 H   0  0  0  0  0  0  0  0  0  0  0  0  # atno 10765 bound_to 10752
  140.4116  134.1612  155.7667 H   0  0  0  0  0  0  0  0  0  0  0  0  # atno 11005 bound_to 11000
  145.4228  139.1561  143.4065 LP  0  0  0  0  0  0  0  0  0  0  0  0  # atno 17320 bound_to 7965
  146.2893  140.4339  142.8745 LP  0  0  0  0  0  0  0  0  0  0  0  0  # atno 17321 bound_to 7965
  139.6628  144.0159  152.2703 LP  0  0  0  0  0  0  0  0  0  0  0  0  # atno 17342 bound_to 10162
  139.9732  144.6479  150.7970 LP  0  0  0  0  0  0  0  0  0  0  0  0  # atno 17343 bound_to 10162
  157.7497  131.0325  150.4230 LP  0  0  0  0  0  0  0  0  0  0  0  0  # atno 17370 bound_to 10713
  156.4486  130.4006  149.6651 LP  0  0  0  0  0  0  0  0  0  0  0  0  # atno 17371 bound_to 10713
  141.1819  133.8396  157.1228 LP  0  0  0  0  0  0  0  0  0  0  0  0  # atno 17394 bound_to 11000
  140.0263  134.9922  157.0693 LP  0  0  0  0  0  0  0  0  0  0  0  0  # atno 17395 bound_to 11000

$$$$
