AV-unprocessed.smi:1535|AV-procd|sdf|6181|dock8
  -GOLD-   22720 6343D 1   1.00000     0.00000
 Structure written by MMmdl.
 47 48  0  0  0  0  0  0  0  0  2 V2000
  153.1510  142.6430  162.8830 C   0  0  0  0  0  0  0  0  0  0  0  0
  152.8191  142.2120  161.4651 C   0  0  0  0  0  0  0  0  0  0  0  0
  153.1665  140.9085  161.0441 C   0  0  0  0  0  0  0  0  0  0  0  0
  152.8765  140.4690  159.7338 C   0  0  0  0  0  0  0  0  0  0  0  0
  153.1213  139.2539  159.1171 N   0  0  0  0  0  0  0  0  0  0  0  0
  152.6212  139.4635  157.9028 C   0  0  0  0  0  0  0  0  0  0  0  0
  152.0842  140.6746  157.6579 N   0  0  0  0  0  0  0  0  0  0  0  0
  151.4848  141.1379  156.4193 C   0  0  0  0  0  0  0  0  0  0  0  0
  149.9982  141.5051  156.5897 C   0  0  1  0  0  0  0  0  0  0  0  0
  149.8918  142.8547  157.0020 O   0  0  0  0  0  0  0  0  0  0  0  0
  149.2024  141.3222  155.2822 C   0  0  0  0  0  0  0  0  0  0  0  0
  147.8847  142.0043  155.3365 N   0  3  1  0  0  0  0  0  0  0  0  0
  147.1864  141.9784  154.0308 C   0  0  0  0  0  0  0  0  0  0  0  0
  147.0223  141.5314  156.4511 C   0  0  0  0  0  0  0  0  0  0  0  0
  146.1277  142.6533  157.0081 C   0  0  2  0  0  0  0  0  0  0  0  0
  145.3490  142.2077  158.2553 C   0  0  0  0  0  0  0  0  0  0  0  0
  145.2040  143.1393  155.9709 C   0  0  0  0  0  0  0  0  0  0  0  0
  144.4774  143.5201  155.1556 N   0  0  0  0  0  0  0  0  0  0  0  0
  152.2257  141.3777  158.8490 C   0  0  0  0  0  0  0  0  0  0  0  0
  151.8728  142.6763  159.2564 C   0  0  0  0  0  0  0  0  0  0  0  0
  152.1677  143.0982  160.5697 C   0  0  0  0  0  0  0  0  0  0  0  0
  151.7796  144.5016  161.0012 C   0  0  0  0  0  0  0  0  0  0  0  0
  153.7069  141.8699  163.4143 H   0  0  0  0  0  0  0  0  0  0  0  0
  152.2377  142.8443  163.4433 H   0  0  0  0  0  0  0  0  0  0  0  0
  153.7605  143.5468  162.8768 H   0  0  0  0  0  0  0  0  0  0  0  0
  153.6605  140.2325  161.7266 H   0  0  0  0  0  0  0  0  0  0  0  0
  152.6506  138.6929  157.1461 H   0  0  0  0  0  0  0  0  0  0  0  0
  152.0528  141.9938  156.0513 H   0  0  0  0  0  0  0  0  0  0  0  0
  151.5949  140.3473  155.6761 H   0  0  0  0  0  0  0  0  0  0  0  0
  149.5740  140.8831  157.3778 H   0  0  0  0  0  0  0  0  0  0  0  0
  149.4056  143.3352  156.3488 H   0  0  0  0  0  0  0  0  0  0  0  0
  149.7967  141.7153  154.4554 H   0  0  0  0  0  0  0  0  0  0  0  0
  149.0481  140.2635  155.0662 H   0  0  0  0  0  0  0  0  0  0  0  0
  146.9663  140.9546  153.7253 H   0  0  0  0  0  0  0  0  0  0  0  0
  147.8004  142.4406  153.2571 H   0  0  0  0  0  0  0  0  0  0  0  0
  146.2480  142.5308  154.0744 H   0  0  0  0  0  0  0  0  0  0  0  0
  146.4140  140.6936  156.1058 H   0  0  0  0  0  0  0  0  0  0  0  0
  147.6267  141.1365  157.2681 H   0  0  0  0  0  0  0  0  0  0  0  0
  146.7429  143.5139  157.2703 H   0  0  0  0  0  0  0  0  0  0  0  0
  144.7125  143.0121  158.6244 H   0  0  0  0  0  0  0  0  0  0  0  0
  146.0201  141.9232  159.0662 H   0  0  0  0  0  0  0  0  0  0  0  0
  144.7084  141.3529  158.0363 H   0  0  0  0  0  0  0  0  0  0  0  0
  151.3788  143.3418  158.5643 H   0  0  0  0  0  0  0  0  0  0  0  0
  151.2073  145.0117  160.2259 H   0  0  0  0  0  0  0  0  0  0  0  0
  152.6700  145.0957  161.2084 H   0  0  0  0  0  0  0  0  0  0  0  0
  151.1655  144.4708  161.9015 H   0  0  0  0  0  0  0  0  0  0  0  0
  148.0949  142.9743  155.5261 H   0  0  0  0  0  0  0  0  0  0  0  0
  1  2  1  0  0  0  0
  1 23  1  0  0  0  0
  1 24  1  0  0  0  0
  1 25  1  0  0  0  0
  2 21  1  0  0  0  0
  2  3  2  0  0  0  0
  3  4  1  0  0  0  0
  3 26  1  0  0  0  0
  4 19  2  0  0  0  0
  4  5  1  0  0  0  0
  5  6  2  0  0  0  0
  6  7  1  0  0  0  0
  6 27  1  0  0  0  0
  7  8  1  0  0  0  0
  7 19  1  0  0  0  0
  8  9  1  0  0  0  0
  8 28  1  0  0  0  0
  8 29  1  0  0  0  0
  9 10  1  0  0  0  0
  9 11  1  0  0  0  0
  9 30  1  0  0  0  0
 10 31  1  0  0  0  0
 11 12  1  0  0  0  0
 11 32  1  0  0  0  0
 11 33  1  0  0  0  0
 12 13  1  0  0  0  0
 12 14  1  0  0  0  0
 12 47  1  0  0  0  0
 13 34  1  0  0  0  0
 13 35  1  0  0  0  0
 13 36  1  0  0  0  0
 14 15  1  0  0  0  0
 14 37  1  0  0  0  0
 14 38  1  0  0  0  0
 15 16  1  0  0  0  0
 15 17  1  0  0  0  0
 15 39  1  0  0  0  0
 16 40  1  0  0  0  0
 16 41  1  0  0  0  0
 16 42  1  0  0  0  0
 17 18  3  0  0  0  0
 19 20  1  0  0  0  0
 20 21  2  0  0  0  0
 20 43  1  0  0  0  0
 21 22  1  0  0  0  0
 22 44  1  0  0  0  0
 22 45  1  0  0  0  0
 22 46  1  0  0  0  0
M  CHG  1  12   1
M  END
> <s_m_source_file>
AV-unprocessed.smi

> <i_m_source_file_index>
1535

> <i_lp_mmshare_version>
43012

> <i_f3d_flags>
0

> <s_epik_input>
W0NIM11jKFtjSF0xKWMoW0NIM10pW2NIXWMoYzEyKW4oW2NIXW4yKVtDSDJdW0NASF0oW09IXSlbQ0gyXU4oW0NIM10pW0NIMl1bQ0BIXShbQ0gzXSlDI04=

> <s_epik_cmdline>
J2VwaWtfcHl0aG9uJywgJy1waCcsICc3LjAnLCAnLXRuJywgJzgnLCAnLW1hJywgJzIwMCcsICctbWV0YWxfYmluZGluZycsICctaW1hZScsICc8aW5maWxlLm1hZT4nLCAnLW9tYWUnLCAnPG91dGZpbGUubWFlPic=

> <r_epik_Ionization_Penalty>
2.21058

> <r_epik_Ionization_Penalty_Charging>
2.12381

> <r_epik_Ionization_Penalty_Neutral>
0.0867699

> <r_epik_State_Penalty>
2.36208

> <r_epik_Charging_Adjusted_Penalty>
4.48589

> <i_epik_Tot_Q>
1

> <i_epik_Tot_abs_Q>
1

> <r_epik_Metal_State_Penalty>
2.2818

> <b_epik_Metal_Only>
0

> <s_lp_Force_Field>
OPLS_2005

> <r_lp_Energy>
17.3963

> <b_lp_Chiralities_Consistent>
1

> <s_lp_Variant>
AV-unprocessed.smi:1535-12

> <Gold.Version>
5.8.1

> <Gold.Id.Protein>
6NUR|6NUR_protein|mol2

> <Gold.PLP.Fitness>
51.6963

> <Gold.PLP.PLP>
-44.1961

> <Gold.PLP.part.hbond>
-1.7014

> <Gold.PLP.part.metal>
0.0000

> <Gold.PLP.part.buried>
-7.6036

> <Gold.PLP.part.nonpolar>
-35.0164

> <Gold.PLP.part.repulsive>
0.2472

> <Gold.PLP.ligand.clash>
0.0000

> <Gold.PLP.ligand.torsion>
0.8284

> <Gold.PLP.Chemscore.Hbond>
2.9920

> <Gold.PLP.Chemscore.CHOScore>
0.0000

> <Gold.PLP.Chemscore.Metal>
0.0000

> <Gold.Chemscore.Hbonds>
donor molecule, donor type, donor heavy atom, donor atom, acceptor molecule, acceptor atom, score
      L1  H    10    31       P1  8028  1.00
      L1  H    12    47       P1  8028  2.00

> <Gold.PLP.Chemscore.Internal.Correction>
0.1811

> <Gold.Rescore>
     Score         DG    S(hbond)    S(metal)    S(lipo)     H(rot)  DE(clash)    DE(int)     intcor
     17.07     -18.17       1.81        0.00     113.65       2.60       0.07       1.04       ----

> <Gold.Chemscore.Fitness>
17.0665

> <Gold.Chemscore.DG>
-18.1743

> <Gold.Chemscore.ZeroCoef>
-5.4800

> <Gold.Chemscore.Hbond>
1.8146

> <Gold.Chemscore.Metal>
0.0000

> <Gold.Chemscore.Lipo>
113.6523

> <Gold.Chemscore.Internal_Hbond>
0.0000

> <Gold.Chemscore.DEClash>
0.0674

> <Gold.Chemscore.DEInternal>
1.0403

> <Gold.Chemscore.Rot>
2.6031

> <Gold.Chemscore.Internal.Correction>
   9.000000E+99

> <Gold.Chemscore.Hbonds>
donor molecule, donor type, donor heavy atom, donor atom, acceptor molecule, acceptor atom, score
      L1  H    10    31       P1  8028  0.96
      L1  H    12    47       P1  8028  0.88

> <Gold.Chemscore.Hbond.Weighted>
-6.0609

> <Gold.Chemscore.Metal.Weighted>
-0.0000

> <Gold.Chemscore.Lipo.Weighted>
-13.2973

> <Gold.Chemscore.Internal_Hbond.Weighted>
0.0000

> <Gold.Chemscore.DEClash.Weighted>
0.0674

> <Gold.Chemscore.DEInternal.Weighted>
1.0403

> <Gold.Chemscore.Rot.Weighted>
6.6640

> <Gold.Chemscore.Internal.Correction.Weighted>
   9.000000E+99

> <Gold.Protein.RotatedTorsions>
[ 6907 6896 6895 6894 ] final  132.15 input  -60.11 | X-H torsion
[ 7974 7965 7964 7962 ] final  -68.52 input  175.53 | X-H torsion
[ 8008 7997 7996 7995 ] final   26.45 input   59.86 | X-H torsion
[ 10167 10162 10161 10158 ] final   36.46 input  -65.29 | X-H torsion
[ 10718 10713 10712 10709 ] final  -69.03 input   66.30 | X-H torsion
[ 10763 10752 10751 10750 ] final  -91.12 input  -60.55 | X-H torsion
[ 11005 11000 10999 10996 ] final -100.36 input  -57.11 | X-H torsion

> <Gold.Protein.ActiveResidues>
 VAL166  LYS551  ARG553  GLY616  TRP617  ASP618  TYR619  PRO620  LYS621  CYS622 
 ASP623  PHE694  ASN695  SER759  ASP760  ASP761  ALA762  ILE779  LEU786  VAL792 
 PHE793  MET794  SER795  GLU796  ALA797  LYS798  CYS799  TRP800  GLU811  SER814 

> <Gold.Protein.RotatedAtoms>
  152.3353  133.6004  159.5837 H   0  0  0  0  0  0  0  0  0  0  0  0  # atno 6907 bound_to 6896
  150.7446  133.9806  159.3584 H   0  0  0  0  0  0  0  0  0  0  0  0  # atno 6908 bound_to 6896
  151.7676  135.0795  160.0406 H   0  0  0  0  0  0  0  0  0  0  0  0  # atno 6909 bound_to 6896
  145.7155  140.9061  143.0658 H   0  0  0  0  0  0  0  0  0  0  0  0  # atno 7974 bound_to 7965
  155.0275  140.3155  155.4770 H   0  0  0  0  0  0  0  0  0  0  0  0  # atno 8008 bound_to 7997
  156.2880  140.2186  156.5338 H   0  0  0  0  0  0  0  0  0  0  0  0  # atno 8009 bound_to 7997
  154.7398  140.0474  157.0789 H   0  0  0  0  0  0  0  0  0  0  0  0  # atno 8010 bound_to 7997
  140.4125  144.1572  150.6140 H   0  0  0  0  0  0  0  0  0  0  0  0  # atno 10167 bound_to 10162
  156.0476  130.4305  150.2087 H   0  0  0  0  0  0  0  0  0  0  0  0  # atno 10718 bound_to 10713
  154.6728  135.5279  153.8160 H   0  0  0  0  0  0  0  0  0  0  0  0  # atno 10763 bound_to 10752
  153.0512  135.6533  154.0698 H   0  0  0  0  0  0  0  0  0  0  0  0  # atno 10764 bound_to 10752
  154.0595  135.2963  155.3307 H   0  0  0  0  0  0  0  0  0  0  0  0  # atno 10765 bound_to 10752
  141.1273  133.8393  157.1092 H   0  0  0  0  0  0  0  0  0  0  0  0  # atno 11005 bound_to 11000
  144.6930  139.9131  143.7464 LP  0  0  0  0  0  0  0  0  0  0  0  0  # atno 17320 bound_to 7965
  146.0674  139.3664  143.0544 LP  0  0  0  0  0  0  0  0  0  0  0  0  # atno 17321 bound_to 7965
  140.4622  143.2444  151.9204 LP  0  0  0  0  0  0  0  0  0  0  0  0  # atno 17342 bound_to 10162
  139.4782  144.5456  151.8463 LP  0  0  0  0  0  0  0  0  0  0  0  0  # atno 17343 bound_to 10162
  157.0175  130.9969  151.3349 LP  0  0  0  0  0  0  0  0  0  0  0  0  # atno 17370 bound_to 10713
  157.5368  130.8094  149.7981 LP  0  0  0  0  0  0  0  0  0  0  0  0  # atno 17371 bound_to 10713
  140.0285  134.9912  157.0734 LP  0  0  0  0  0  0  0  0  0  0  0  0  # atno 17394 bound_to 11000
  140.4323  134.1767  155.7169 LP  0  0  0  0  0  0  0  0  0  0  0  0  # atno 17395 bound_to 11000

$$$$
