AV-unprocessed.smi:2597|AV-procd|sdf|10173|dock3
  -GOLD-   2272014183D 1   1.00000     0.00000
 Structure written by MMmdl.
 31 32  0  0  0  0  0  0  0  0  2 V2000
  150.0037  142.3240  156.6729 N   0  3  0  0  0  0  0  0  0  0  0  0
  151.2824  142.5028  157.3866 C   0  0  2  0  0  0  0  0  0  0  0  0
  151.6508  141.2372  158.1876 C   0  0  0  0  0  0  0  0  0  0  0  0
  152.9858  141.4150  158.9280 C   0  0  0  0  0  0  0  0  0  0  0  0
  152.9697  142.6527  159.8385 C   0  0  0  0  0  0  0  0  0  0  0  0
  152.5994  143.9252  159.0535 C   0  0  0  0  0  0  0  0  0  0  0  0
  151.2864  143.7964  158.2462 C   0  0  2  0  0  0  0  0  0  0  0  0
  150.0928  143.9659  159.0766 N   0  0  0  0  0  0  0  0  0  0  0  0
  149.7905  145.0329  159.8994 C   0  0  0  0  0  0  0  0  0  0  0  0
  148.5710  144.7075  160.4212 C   0  0  0  0  0  0  0  0  0  0  0  0
  147.7115  145.4753  161.3783 C   0  0  0  0  0  0  0  0  0  0  0  0
  148.3561  146.7112  161.5992 O   0  0  0  0  0  0  0  0  0  0  0  0
  148.1856  143.4708  159.9096 N   0  0  0  0  0  0  0  0  0  0  0  0
  149.1060  143.0356  159.1099 N   0  0  0  0  0  0  0  0  0  0  0  0
  152.0425  142.6247  156.6137 H   0  0  0  0  0  0  0  0  0  0  0  0
  151.2734  144.6351  157.5480 H   0  0  0  0  0  0  0  0  0  0  0  0
  149.3217  141.9230  157.3011 H   0  0  0  0  0  0  0  0  0  0  0  0
  150.1391  141.7066  155.8851 H   0  0  0  0  0  0  0  0  0  0  0  0
  150.8657  140.9847  158.8997 H   0  0  0  0  0  0  0  0  0  0  0  0
  151.7263  140.3833  157.5135 H   0  0  0  0  0  0  0  0  0  0  0  0
  153.2052  140.5243  159.5175 H   0  0  0  0  0  0  0  0  0  0  0  0
  153.7942  141.5099  158.2020 H   0  0  0  0  0  0  0  0  0  0  0  0
  152.2754  142.4965  160.6632 H   0  0  0  0  0  0  0  0  0  0  0  0
  153.9504  142.7809  160.2976 H   0  0  0  0  0  0  0  0  0  0  0  0
  152.5445  144.7789  159.7302 H   0  0  0  0  0  0  0  0  0  0  0  0
  153.4118  144.1473  158.3602 H   0  0  0  0  0  0  0  0  0  0  0  0
  150.4314  145.8921  160.0334 H   0  0  0  0  0  0  0  0  0  0  0  0
  146.7133  145.6498  160.9755 H   0  0  0  0  0  0  0  0  0  0  0  0
  147.6015  144.9444  162.3239 H   0  0  0  0  0  0  0  0  0  0  0  0
  148.8330  146.6587  162.4133 H   0  0  0  0  0  0  0  0  0  0  0  0
  149.6712  143.2198  156.3454 H   0  0  0  0  0  0  0  0  0  0  0  0
  1  2  1  0  0  0  0
  1 17  1  0  0  0  0
  1 18  1  0  0  0  0
  1 31  1  0  0  0  0
  2 15  1  0  0  0  0
  2  7  1  0  0  0  0
  2  3  1  0  0  0  0
  3  4  1  0  0  0  0
  3 19  1  0  0  0  0
  3 20  1  0  0  0  0
  4  5  1  0  0  0  0
  4 21  1  0  0  0  0
  4 22  1  0  0  0  0
  5  6  1  0  0  0  0
  5 23  1  0  0  0  0
  5 24  1  0  0  0  0
  6  7  1  0  0  0  0
  6 25  1  0  0  0  0
  6 26  1  0  0  0  0
  7 16  1  0  0  0  0
  7  8  1  0  0  0  0
  8 14  1  0  0  0  0
  8  9  1  0  0  0  0
  9 10  2  0  0  0  0
  9 27  1  0  0  0  0
 10 11  1  0  0  0  0
 10 13  1  0  0  0  0
 11 12  1  0  0  0  0
 11 28  1  0  0  0  0
 11 29  1  0  0  0  0
 12 30  1  0  0  0  0
 13 14  2  0  0  0  0
M  CHG  1   1   1
M  END
> <s_m_source_file>
AV-unprocessed.smi

> <i_m_source_file_index>
2597

> <i_lp_mmshare_version>
43012

> <i_f3d_flags>
0

> <s_epik_input>
W05IMl1bQ0BIXTFbQ0gyXVtDSDJdW0NIMl1bQ0gyXVtDQEhdMW4yW2NIXWMobm4yKVtDSDJdW09IXQ==

> <s_epik_cmdline>
J2VwaWtfcHl0aG9uJywgJy1waCcsICc3LjAnLCAnLXRuJywgJzgnLCAnLW1hJywgJzIwMCcsICctbWV0YWxfYmluZGluZycsICctaW1hZScsICc8aW5maWxlLm1hZT4nLCAnLW9tYWUnLCAnPG91dGZpbGUubWFlPic=

> <r_lp_tautomer_probability>
1

> <r_epik_Ionization_Penalty>
0.014346

> <r_epik_Ionization_Penalty_Charging>
0.014316

> <r_epik_Ionization_Penalty_Neutral>
3.00097e-05

> <r_epik_State_Penalty>
0.0111909

> <r_epik_Charging_Adjusted_Penalty>
0.0255069

> <i_epik_Tot_Q>
1

> <i_epik_Tot_abs_Q>
1

> <r_epik_Metal_State_Penalty>
0.011192

> <b_epik_Metal_Only>
0

> <s_lp_Force_Field>
OPLS_2005

> <r_lp_Energy>
16.1833

> <b_lp_Chiralities_Consistent>
1

> <s_lp_Variant>
AV-unprocessed.smi:2597-4

> <Gold.Version>
5.8.1

> <Gold.Id.Protein>
6NUR|6NUR_protein|mol2

> <Gold.PLP.Fitness>
43.6829

> <Gold.PLP.PLP>
-35.1870

> <Gold.PLP.part.hbond>
-6.3642

> <Gold.PLP.part.metal>
0.0000

> <Gold.PLP.part.buried>
-6.1008

> <Gold.PLP.part.nonpolar>
-23.3199

> <Gold.PLP.part.repulsive>
0.2902

> <Gold.PLP.ligand.clash>
0.0000

> <Gold.PLP.ligand.torsion>
0.0565

> <Gold.PLP.Chemscore.Hbond>
2.8480

> <Gold.PLP.Chemscore.CHOScore>
0.0000

> <Gold.PLP.Chemscore.Metal>
0.0000

> <Gold.Chemscore.Hbonds>
donor molecule, donor type, donor heavy atom, donor atom, acceptor molecule, acceptor atom, score
      L1  H     1    31       P1  8028  2.00
      P1  H  6933  6944       L1    13  0.85

> <Gold.PLP.Chemscore.Internal.Correction>
0.0649

> <Gold.Rescore>
     Score         DG    S(hbond)    S(metal)    S(lipo)     H(rot)  DE(clash)    DE(int)     intcor
     11.34     -13.69       0.95        0.00      83.48       1.86       0.79       1.55       ----

> <Gold.Chemscore.Fitness>
11.3413

> <Gold.Chemscore.DG>
-13.6856

> <Gold.Chemscore.ZeroCoef>
-5.4800

> <Gold.Chemscore.Hbond>
0.9545

> <Gold.Chemscore.Metal>
0.0000

> <Gold.Chemscore.Lipo>
83.4754

> <Gold.Chemscore.Internal_Hbond>
0.0000

> <Gold.Chemscore.DEClash>
0.7932

> <Gold.Chemscore.DEInternal>
1.5510

> <Gold.Chemscore.Rot>
1.8551

> <Gold.Chemscore.Internal.Correction>
   9.000000E+99

> <Gold.Chemscore.Hbonds>
donor molecule, donor type, donor heavy atom, donor atom, acceptor molecule, acceptor atom, score
      L1  H     1    31       P1  8028  1.00
      P1  H  6933  6944       L1    13  0.06

> <Gold.Chemscore.Hbond.Weighted>
-3.1879

> <Gold.Chemscore.Metal.Weighted>
-0.0000

> <Gold.Chemscore.Lipo.Weighted>
-9.7666

> <Gold.Chemscore.Internal_Hbond.Weighted>
0.0000

> <Gold.Chemscore.DEClash.Weighted>
0.7932

> <Gold.Chemscore.DEInternal.Weighted>
1.5510

> <Gold.Chemscore.Rot.Weighted>
4.7489

> <Gold.Chemscore.Internal.Correction.Weighted>
   9.000000E+99

> <Gold.Protein.RotatedTorsions>
[ 6907 6896 6895 6894 ] final   64.12 input  -60.11 | X-H torsion
[ 7974 7965 7964 7962 ] final  125.41 input  175.53 | X-H torsion
[ 8008 7997 7996 7995 ] final   53.23 input   59.86 | X-H torsion
[ 10167 10162 10161 10158 ] final  136.67 input  -65.29 | X-H torsion
[ 10718 10713 10712 10709 ] final  160.56 input   66.30 | X-H torsion
[ 10763 10752 10751 10750 ] final -102.95 input  -60.55 | X-H torsion
[ 11005 11000 10999 10996 ] final   34.30 input  -57.11 | X-H torsion

> <Gold.Protein.ActiveResidues>
 VAL166  LYS551  ARG553  GLY616  TRP617  ASP618  TYR619  PRO620  LYS621  CYS622 
 ASP623  PHE694  ASN695  SER759  ASP760  ASP761  ALA762  ILE779  LEU786  VAL792 
 PHE793  MET794  SER795  GLU796  ALA797  LYS798  CYS799  TRP800  GLU811  SER814 

> <Gold.Protein.RotatedAtoms>
  152.4307  134.5783  159.9940 H   0  0  0  0  0  0  0  0  0  0  0  0  # atno 6907 bound_to 6896
  151.5907  133.3361  159.3035 H   0  0  0  0  0  0  0  0  0  0  0  0  # atno 6908 bound_to 6896
  150.8200  134.7438  159.6828 H   0  0  0  0  0  0  0  0  0  0  0  0  # atno 6909 bound_to 6896
  145.0733  139.3713  143.4946 H   0  0  0  0  0  0  0  0  0  0  0  0  # atno 7974 bound_to 7965
  155.4649  140.3463  155.4318 H   0  0  0  0  0  0  0  0  0  0  0  0  # atno 8008 bound_to 7997
  156.1137  140.1468  156.9331 H   0  0  0  0  0  0  0  0  0  0  0  0  # atno 8009 bound_to 7997
  154.4774  140.0880  156.7274 H   0  0  0  0  0  0  0  0  0  0  0  0  # atno 8010 bound_to 7997
  139.5171  144.6452  151.5460 H   0  0  0  0  0  0  0  0  0  0  0  0  # atno 10167 bound_to 10162
  157.1487  131.0558  151.2291 H   0  0  0  0  0  0  0  0  0  0  0  0  # atno 10718 bound_to 10713
  154.7771  135.4841  153.9768 H   0  0  0  0  0  0  0  0  0  0  0  0  # atno 10763 bound_to 10752
  153.1444  135.6779  153.8985 H   0  0  0  0  0  0  0  0  0  0  0  0  # atno 10764 bound_to 10752
  153.8649  135.3151  155.3418 H   0  0  0  0  0  0  0  0  0  0  0  0  # atno 10765 bound_to 10752
  140.2543  134.3267  155.7879 H   0  0  0  0  0  0  0  0  0  0  0  0  # atno 11005 bound_to 11000
  146.3529  140.0489  142.8637 LP  0  0  0  0  0  0  0  0  0  0  0  0  # atno 17320 bound_to 7965
  145.1265  140.9493  143.4569 LP  0  0  0  0  0  0  0  0  0  0  0  0  # atno 17321 bound_to 7965
  140.6234  143.9215  150.6544 LP  0  0  0  0  0  0  0  0  0  0  0  0  # atno 17342 bound_to 10162
  140.2496  143.3603  152.1417 LP  0  0  0  0  0  0  0  0  0  0  0  0  # atno 17343 bound_to 10162
  157.4240  130.7453  149.6936 LP  0  0  0  0  0  0  0  0  0  0  0  0  # atno 17370 bound_to 10713
  155.9774  130.4063  150.3711 LP  0  0  0  0  0  0  0  0  0  0  0  0  # atno 17371 bound_to 10713
  141.2198  133.7372  156.9086 LP  0  0  0  0  0  0  0  0  0  0  0  0  # atno 17394 bound_to 11000
  140.1527  134.9219  157.2614 LP  0  0  0  0  0  0  0  0  0  0  0  0  # atno 17395 bound_to 11000

$$$$
