AV-unprocessed.smi:2090|AV-procd|sdf|8536|dock9
  -GOLD-   2272011253D 1   1.00000     0.00000
 Structure written by MMmdl.
 41 42  0  0  0  0  0  0  0  0  3 V2000
  151.3392  145.1108  159.9994 C   0  0  0  0  0  0  0  0  0  0  0  0
  151.1743  143.8459  159.2288 C   0  0  0  0  0  0  0  0  0  0  0  0
  151.2313  143.5565  157.8947 C   0  0  0  0  0  0  0  0  0  0  0  0
  150.9831  142.1583  157.8583 C   0  0  0  0  0  0  0  0  0  0  0  0
  150.9625  141.4586  156.6226 N   0  0  0  0  0  0  0  0  0  0  0  0
  151.6642  140.3695  156.2596 C   0  0  0  0  0  0  0  0  0  0  0  0
  152.4562  139.8437  157.0512 O   0  0  0  0  0  0  0  0  0  0  0  0
  151.3881  139.9784  154.9844 N   0  5  0  0  0  0  0  0  0  0  0  0
  150.3836  138.9808  154.6188 C   0  0  0  0  0  0  0  0  0  0  0  0
  150.9450  137.5589  154.8235 C   0  0  0  0  0  0  0  0  0  0  0  0
  149.9413  136.5150  154.4870 N   0  3  2  0  0  0  0  0  0  0  0  0
  148.6181  136.7350  155.1348 C   0  0  0  0  0  0  0  0  0  0  0  0
  147.5802  135.7165  154.6356 C   0  0  0  0  0  0  0  0  0  0  0  0
  148.0572  134.2739  154.8728 C   0  0  1  0  0  0  0  0  0  0  0  0
  147.0412  133.2460  154.3554 C   0  0  0  0  0  0  0  0  0  0  0  0
  149.4394  134.0851  154.2258 C   0  0  0  0  0  0  0  0  0  0  0  0
  150.4417  135.1370  154.7301 C   0  0  0  0  0  0  0  0  0  0  0  0
  150.7907  141.6421  159.0634 N   0  0  0  0  0  0  0  0  0  0  0  0
  150.9113  142.7208  159.9473 O   0  0  0  0  0  0  0  0  0  0  0  0
  151.9317  145.8333  159.4378 H   0  0  0  0  0  0  0  0  0  0  0  0
  151.8440  144.9256  160.9478 H   0  0  0  0  0  0  0  0  0  0  0  0
  150.3696  145.5608  160.2134 H   0  0  0  0  0  0  0  0  0  0  0  0
  151.4211  144.2362  157.0773 H   0  0  0  0  0  0  0  0  0  0  0  0
  150.3372  141.8294  155.9224 H   0  0  0  0  0  0  0  0  0  0  0  0
  149.4655  139.0931  155.1967 H   0  0  0  0  0  0  0  0  0  0  0  0
  150.0828  139.0904  153.5767 H   0  0  0  0  0  0  0  0  0  0  0  0
  151.8240  137.4502  154.1864 H   0  0  0  0  0  0  0  0  0  0  0  0
  151.2989  137.4159  155.8459 H   0  0  0  0  0  0  0  0  0  0  0  0
  148.7250  136.6597  156.2181 H   0  0  0  0  0  0  0  0  0  0  0  0
  148.2591  137.7433  154.9250 H   0  0  0  0  0  0  0  0  0  0  0  0
  146.6298  135.8841  155.1433 H   0  0  0  0  0  0  0  0  0  0  0  0
  147.3952  135.8774  153.5725 H   0  0  0  0  0  0  0  0  0  0  0  0
  148.1625  134.1228  155.9482 H   0  0  0  0  0  0  0  0  0  0  0  0
  146.8840  133.3476  153.2810 H   0  0  0  0  0  0  0  0  0  0  0  0
  146.0753  133.3686  154.8459 H   0  0  0  0  0  0  0  0  0  0  0  0
  147.3808  132.2278  154.5476 H   0  0  0  0  0  0  0  0  0  0  0  0
  149.8194  133.0855  154.4398 H   0  0  0  0  0  0  0  0  0  0  0  0
  149.3532  134.1570  153.1405 H   0  0  0  0  0  0  0  0  0  0  0  0
  151.3933  134.9953  154.2160 H   0  0  0  0  0  0  0  0  0  0  0  0
  150.6317  135.0001  155.7960 H   0  0  0  0  0  0  0  0  0  0  0  0
  149.7969  136.5877  153.4900 H   0  0  0  0  0  0  0  0  0  0  0  0
  1  2  1  0  0  0  0
  1 20  1  0  0  0  0
  1 21  1  0  0  0  0
  1 22  1  0  0  0  0
  2 19  1  0  0  0  0
  2  3  2  0  0  0  0
  3  4  1  0  0  0  0
  3 23  1  0  0  0  0
  4  5  1  0  0  0  0
  4 18  2  0  0  0  0
  5  6  1  0  0  0  0
  5 24  1  0  0  0  0
  6  7  2  0  0  0  0
  6  8  1  0  0  0  0
  8  9  1  0  0  0  0
  9 10  1  0  0  0  0
  9 25  1  0  0  0  0
  9 26  1  0  0  0  0
 10 11  1  0  0  0  0
 10 27  1  0  0  0  0
 10 28  1  0  0  0  0
 11 17  1  0  0  0  0
 11 12  1  0  0  0  0
 11 41  1  0  0  0  0
 12 13  1  0  0  0  0
 12 29  1  0  0  0  0
 12 30  1  0  0  0  0
 13 14  1  0  0  0  0
 13 31  1  0  0  0  0
 13 32  1  0  0  0  0
 14 15  1  0  0  0  0
 14 16  1  0  0  0  0
 14 33  1  0  0  0  0
 15 34  1  0  0  0  0
 15 35  1  0  0  0  0
 15 36  1  0  0  0  0
 16 17  1  0  0  0  0
 16 37  1  0  0  0  0
 16 38  1  0  0  0  0
 17 39  1  0  0  0  0
 17 40  1  0  0  0  0
 18 19  1  0  0  0  0
M  CHG  1   8  -1
M  CHG  1  11   1
M  END
> <s_m_source_file>
AV-unprocessed.smi

> <i_m_source_file_index>
2090

> <i_lp_mmshare_version>
43012

> <i_f3d_flags>
0

> <s_epik_input>
W0NIM11jMVtjSF1jKG5vMSlbTkhdQyg9TylbTkhdW0NIMl1bQ0gyXU4yW0NIMl1bQ0gyXVtDSF0oW0NIM10pW0NIMl1bQ0gyXTI=

> <s_epik_cmdline>
J2VwaWtfcHl0aG9uJywgJy1waCcsICc3LjAnLCAnLXRuJywgJzgnLCAnLW1hJywgJzIwMCcsICctbWV0YWxfYmluZGluZycsICctaW1hZScsICc8aW5maWxlLm1hZT4nLCAnLW9tYWUnLCAnPG91dGZpbGUubWFlPic=

> <r_epik_Ionization_Penalty>
6.7721

> <r_epik_Ionization_Penalty_Charging>
6.7721

> <r_epik_Ionization_Penalty_Neutral>
5.78572e-06

> <r_epik_State_Penalty>
6.79704

> <r_epik_Charging_Adjusted_Penalty>
13.5691

> <i_epik_Tot_Q>
0

> <i_epik_Tot_abs_Q>
2

> <r_epik_Metal_State_Penalty>
2.73105

> <b_epik_Metal_Only>
1

> <s_lp_Force_Field>
OPLS_2005

> <r_lp_Energy>
11.0836

> <b_lp_Chiralities_Consistent>
1

> <s_lp_Variant>
AV-unprocessed.smi:2090-5

> <Gold.Version>
5.8.1

> <Gold.Id.Protein>
6NUR|6NUR_protein|mol2

> <Gold.PLP.Fitness>
43.3106

> <Gold.PLP.PLP>
-34.0819

> <Gold.PLP.part.hbond>
-3.5471

> <Gold.PLP.part.metal>
0.0000

> <Gold.PLP.part.buried>
-5.6850

> <Gold.PLP.part.nonpolar>
-25.0031

> <Gold.PLP.part.repulsive>
0.2164

> <Gold.PLP.ligand.clash>
0.0000

> <Gold.PLP.ligand.torsion>
1.4085

> <Gold.PLP.Chemscore.Hbond>
4.0000

> <Gold.PLP.Chemscore.CHOScore>
0.0000

> <Gold.PLP.Chemscore.Metal>
0.0000

> <Gold.Chemscore.Hbonds>
donor molecule, donor type, donor heavy atom, donor atom, acceptor molecule, acceptor atom, score
      L1  H    11    41       P1  7948  2.00
      P1  H  7989  7998       L1     8  1.00
      P1  H  7997  8008       L1     7  1.00

> <Gold.PLP.Chemscore.Internal.Correction>
0.0459

> <Gold.Rescore>
     Score         DG    S(hbond)    S(metal)    S(lipo)     H(rot)  DE(clash)    DE(int)     intcor
     17.80     -19.11       2.77        0.00      71.22       1.54       0.01       1.30       ----

> <Gold.Chemscore.Fitness>
17.7984

> <Gold.Chemscore.DG>
-19.1138

> <Gold.Chemscore.ZeroCoef>
-5.4800

> <Gold.Chemscore.Hbond>
2.7683

> <Gold.Chemscore.Metal>
0.0000

> <Gold.Chemscore.Lipo>
71.2163

> <Gold.Chemscore.Internal_Hbond>
0.0000

> <Gold.Chemscore.DEClash>
0.0123

> <Gold.Chemscore.DEInternal>
1.3031

> <Gold.Chemscore.Rot>
1.5409

> <Gold.Chemscore.Internal.Correction>
   9.000000E+99

> <Gold.Chemscore.Hbonds>
donor molecule, donor type, donor heavy atom, donor atom, acceptor molecule, acceptor atom, score
      L1  H    11    41       P1  7948  0.34
      P1  H  7989  7998       L1     8  0.44
      P1  H  7997  8008       L1     7  0.58

> <Gold.Chemscore.Hbond.Weighted>
-9.2461

> <Gold.Chemscore.Metal.Weighted>
-0.0000

> <Gold.Chemscore.Lipo.Weighted>
-8.3323

> <Gold.Chemscore.Internal_Hbond.Weighted>
0.0000

> <Gold.Chemscore.DEClash.Weighted>
0.0123

> <Gold.Chemscore.DEInternal.Weighted>
1.3031

> <Gold.Chemscore.Rot.Weighted>
3.9446

> <Gold.Chemscore.Internal.Correction.Weighted>
   9.000000E+99

> <Gold.Protein.RotatedTorsions>
[ 6907 6896 6895 6894 ] final  -89.03 input  -60.11 | X-H torsion
[ 7974 7965 7964 7962 ] final -171.62 input  175.53 | X-H torsion
[ 8008 7997 7996 7995 ] final  -41.41 input   59.86 | X-H torsion
[ 10167 10162 10161 10158 ] final  171.35 input  -65.29 | X-H torsion
[ 10718 10713 10712 10709 ] final   59.56 input   66.30 | X-H torsion
[ 10763 10752 10751 10750 ] final  -33.99 input  -60.55 | X-H torsion
[ 11005 11000 10999 10996 ] final  137.58 input  -57.11 | X-H torsion

> <Gold.Protein.ActiveResidues>
 VAL166  LYS551  ARG553  GLY616  TRP617  ASP618  TYR619  PRO620  LYS621  CYS622 
 ASP623  PHE694  ASN695  SER759  ASP760  ASP761  ALA762  ILE779  LEU786  VAL792 
 PHE793  MET794  SER795  GLU796  ALA797  LYS798  CYS799  TRP800  GLU811  SER814 

> <Gold.Protein.RotatedAtoms>
  150.6871  134.2651  159.4564 H   0  0  0  0  0  0  0  0  0  0  0  0  # atno 6907 bound_to 6896
  152.0578  134.9611  160.0584 H   0  0  0  0  0  0  0  0  0  0  0  0  # atno 6908 bound_to 6896
  152.1050  133.4235  159.4641 H   0  0  0  0  0  0  0  0  0  0  0  0  # atno 6909 bound_to 6896
  144.7155  140.1895  143.6350 H   0  0  0  0  0  0  0  0  0  0  0  0  # atno 7974 bound_to 7965
  154.4004  140.1500  156.3186 H   0  0  0  0  0  0  0  0  0  0  0  0  # atno 8008 bound_to 7997
  155.8550  140.3456  155.5697 H   0  0  0  0  0  0  0  0  0  0  0  0  # atno 8009 bound_to 7997
  155.7943  140.0861  157.1982 H   0  0  0  0  0  0  0  0  0  0  0  0  # atno 8010 bound_to 7997
  139.5044  144.3496  151.9936 H   0  0  0  0  0  0  0  0  0  0  0  0  # atno 10167 bound_to 10162
  157.5685  130.8889  149.9227 H   0  0  0  0  0  0  0  0  0  0  0  0  # atno 10718 bound_to 10713
  153.8392  135.6859  153.4805 H   0  0  0  0  0  0  0  0  0  0  0  0  # atno 10763 bound_to 10752
  153.1464  135.4636  154.9570 H   0  0  0  0  0  0  0  0  0  0  0  0  # atno 10764 bound_to 10752
  154.7852  135.3282  154.7848 H   0  0  0  0  0  0  0  0  0  0  0  0  # atno 10765 bound_to 10752
  140.0124  134.9433  157.0305 H   0  0  0  0  0  0  0  0  0  0  0  0  # atno 11005 bound_to 11000
  145.8781  139.2308  143.1621 LP  0  0  0  0  0  0  0  0  0  0  0  0  # atno 17320 bound_to 7965
  146.0021  140.8511  143.0013 LP  0  0  0  0  0  0  0  0  0  0  0  0  # atno 17321 bound_to 7965
  140.2933  144.3730  150.6082 LP  0  0  0  0  0  0  0  0  0  0  0  0  # atno 17342 bound_to 10162
  140.5930  143.2167  151.7217 LP  0  0  0  0  0  0  0  0  0  0  0  0  # atno 17343 bound_to 10162
  156.0732  130.3682  150.0732 LP  0  0  0  0  0  0  0  0  0  0  0  0  # atno 17370 bound_to 10713
  156.8888  130.9581  151.3591 LP  0  0  0  0  0  0  0  0  0  0  0  0  # atno 17371 bound_to 10713
  140.4531  134.1562  155.7183 LP  0  0  0  0  0  0  0  0  0  0  0  0  # atno 17394 bound_to 11000
  141.1720  133.8590  157.1541 LP  0  0  0  0  0  0  0  0  0  0  0  0  # atno 17395 bound_to 11000

$$$$
