AV-unprocessed.smi:1230|AV-procd|sdf|5153|dock3
  -GOLD-   22720 4223D 1   1.00000     0.00000
 Structure written by MMmdl.
 38 39  0  0  0  0  0  0  0  0  2 V2000
  151.2369  145.2391  159.1405 C   0  0  0  0  0  0  0  0  0  0  0  0
  152.2794  144.3412  159.8244 C   0  0  1  0  0  0  0  0  0  0  0  0
  151.8528  143.9547  161.2548 C   0  0  0  0  0  0  0  0  0  0  0  0
  152.9226  143.0962  161.9487 C   0  0  0  0  0  0  0  0  0  0  0  0
  153.2574  141.8456  161.1220 C   0  0  0  0  0  0  0  0  0  0  0  0
  153.6807  142.2192  159.6912 C   0  0  0  0  0  0  0  0  0  0  0  0
  152.6222  143.0874  158.9863 C   0  0  1  0  0  0  0  0  0  0  0  0
  151.4568  142.2911  158.8011 O   0  0  0  0  0  0  0  0  0  0  0  0
  151.4983  141.4574  157.6543 C   0  0  0  0  0  0  0  0  0  0  0  0
  150.1836  140.6705  157.5711 C   0  0  0  0  0  0  0  0  0  0  0  0
  150.3457  139.4442  156.7800 N   0  0  0  0  0  0  0  0  0  0  0  0
  149.9298  138.2355  157.3636 C   0  0  0  0  0  0  0  0  0  0  0  0
  150.0484  137.0612  156.7157 C   0  0  0  0  0  0  0  0  0  0  0  0
  149.6382  135.8203  157.2861 C   0  0  0  0  0  0  0  0  0  0  0  0
  149.3118  134.8244  157.7783 N   0  0  0  0  0  0  0  0  0  0  0  0
  150.6267  137.0572  155.3739 C   0  0  0  0  0  0  0  0  0  0  0  0
  150.7420  135.9993  154.7563 O   0  0  0  0  0  0  0  0  0  0  0  0
  151.0219  138.2591  154.8598 N   0  5  0  0  0  0  0  0  0  0  0  0
  150.9010  139.4470  155.5309 C   0  0  0  0  0  0  0  0  0  0  0  0
  151.2774  140.5159  155.0494 O   0  0  0  0  0  0  0  0  0  0  0  0
  150.2727  144.7371  159.0538 H   0  0  0  0  0  0  0  0  0  0  0  0
  151.5580  145.5204  158.1373 H   0  0  0  0  0  0  0  0  0  0  0  0
  151.0803  146.1585  159.7050 H   0  0  0  0  0  0  0  0  0  0  0  0
  153.1934  144.9312  159.9076 H   0  0  0  0  0  0  0  0  0  0  0  0
  151.6697  144.8536  161.8444 H   0  0  0  0  0  0  0  0  0  0  0  0
  150.9086  143.4089  161.2260 H   0  0  0  0  0  0  0  0  0  0  0  0
  153.8262  143.6888  162.0972 H   0  0  0  0  0  0  0  0  0  0  0  0
  152.5781  142.8043  162.9410 H   0  0  0  0  0  0  0  0  0  0  0  0
  154.0528  141.2804  161.6084 H   0  0  0  0  0  0  0  0  0  0  0  0
  152.3887  141.1871  161.0888 H   0  0  0  0  0  0  0  0  0  0  0  0
  154.6258  142.7622  159.7268 H   0  0  0  0  0  0  0  0  0  0  0  0
  153.8681  141.3159  159.1099 H   0  0  0  0  0  0  0  0  0  0  0  0
  153.0344  143.4045  158.0260 H   0  0  0  0  0  0  0  0  0  0  0  0
  151.6362  142.0607  156.7561 H   0  0  0  0  0  0  0  0  0  0  0  0
  152.3448  140.7725  157.7261 H   0  0  0  0  0  0  0  0  0  0  0  0
  149.8406  140.4255  158.5772 H   0  0  0  0  0  0  0  0  0  0  0  0
  149.3987  141.3001  157.1483 H   0  0  0  0  0  0  0  0  0  0  0  0
  149.5200  138.3222  158.3594 H   0  0  0  0  0  0  0  0  0  0  0  0
  1  2  1  0  0  0  0
  1 21  1  0  0  0  0
  1 22  1  0  0  0  0
  1 23  1  0  0  0  0
  2  7  1  0  0  0  0
  2  3  1  0  0  0  0
  2 24  1  0  0  0  0
  3  4  1  0  0  0  0
  3 25  1  0  0  0  0
  3 26  1  0  0  0  0
  4  5  1  0  0  0  0
  4 27  1  0  0  0  0
  4 28  1  0  0  0  0
  5  6  1  0  0  0  0
  5 29  1  0  0  0  0
  5 30  1  0  0  0  0
  6  7  1  0  0  0  0
  6 31  1  0  0  0  0
  6 32  1  0  0  0  0
  7  8  1  0  0  0  0
  7 33  1  0  0  0  0
  8  9  1  0  0  0  0
  9 10  1  0  0  0  0
  9 34  1  0  0  0  0
  9 35  1  0  0  0  0
 10 11  1  0  0  0  0
 10 36  1  0  0  0  0
 10 37  1  0  0  0  0
 11 19  1  0  0  0  0
 11 12  1  0  0  0  0
 12 13  2  0  0  0  0
 12 38  1  0  0  0  0
 13 14  1  0  0  0  0
 13 16  1  0  0  0  0
 14 15  3  0  0  0  0
 16 17  2  0  0  0  0
 16 18  1  0  0  0  0
 18 19  1  0  0  0  0
 19 20  2  0  0  0  0
M  CHG  1  18  -1
M  END
> <s_m_source_file>
AV-unprocessed.smi

> <i_m_source_file_index>
1230

> <i_lp_mmshare_version>
43012

> <i_f3d_flags>
0

> <s_epik_input>
W0NIM11bQ0BASF0xW0NIMl1bQ0gyXVtDSDJdW0NIMl1bQ0BIXTFPW0NIMl1bQ0gyXW4yW2NIXWMoQyNOKWMoPU8pW25IXWMyPU8=

> <s_epik_cmdline>
J2VwaWtfcHl0aG9uJywgJy1waCcsICc3LjAnLCAnLXRuJywgJzgnLCAnLW1hJywgJzIwMCcsICctbWV0YWxfYmluZGluZycsICctaW1hZScsICc8aW5maWxlLm1hZT4nLCAnLW9tYWUnLCAnPG91dGZpbGUubWFlPic=

> <r_epik_Ionization_Penalty>
0.400014

> <r_epik_Ionization_Penalty_Charging>
4.81474e-10

> <r_epik_Ionization_Penalty_Neutral>
0.400014

> <r_epik_State_Penalty>
0.399305

> <r_epik_Charging_Adjusted_Penalty>
0.399305

> <i_epik_Tot_Q>
-1

> <i_epik_Tot_abs_Q>
1

> <r_epik_Metal_State_Penalty>
0.00056968

> <b_epik_Metal_Only>
0

> <s_lp_Force_Field>
OPLS_2005

> <r_lp_Energy>
24.4713

> <b_lp_Chiralities_Consistent>
1

> <s_lp_Variant>
AV-unprocessed.smi:1230-2

> <Gold.Version>
5.8.1

> <Gold.Id.Protein>
6NUR|6NUR_protein|mol2

> <Gold.PLP.Fitness>
48.5656

> <Gold.PLP.PLP>
-40.6936

> <Gold.PLP.part.hbond>
-3.0000

> <Gold.PLP.part.metal>
0.0000

> <Gold.PLP.part.buried>
-5.6982

> <Gold.PLP.part.nonpolar>
-31.8918

> <Gold.PLP.part.repulsive>
0.3080

> <Gold.PLP.ligand.clash>
0.0000

> <Gold.PLP.ligand.torsion>
0.4339

> <Gold.PLP.Chemscore.Hbond>
2.9120

> <Gold.PLP.Chemscore.CHOScore>
0.0000

> <Gold.PLP.Chemscore.Metal>
0.0000

> <Gold.Chemscore.Hbonds>
donor molecule, donor type, donor heavy atom, donor atom, acceptor molecule, acceptor atom, score
      P1  H  6896  6908       L1    15  0.59
      P1  H  7989  7998       L1    20  0.94
      P1  H 10752 10764       L1    17  0.49

> <Gold.PLP.Chemscore.Internal.Correction>
0.0038

> <Gold.Rescore>
     Score         DG    S(hbond)    S(metal)    S(lipo)     H(rot)  DE(clash)    DE(int)     intcor
     19.51     -21.15       2.77        0.00      96.51       1.90       0.04       1.60       ----

> <Gold.Chemscore.Fitness>
19.5105

> <Gold.Chemscore.DG>
-21.1532

> <Gold.Chemscore.ZeroCoef>
-5.4800

> <Gold.Chemscore.Hbond>
2.7670

> <Gold.Chemscore.Metal>
0.0000

> <Gold.Chemscore.Lipo>
96.5051

> <Gold.Chemscore.Internal_Hbond>
0.0000

> <Gold.Chemscore.DEClash>
0.0383

> <Gold.Chemscore.DEInternal>
1.6045

> <Gold.Chemscore.Rot>
1.8984

> <Gold.Chemscore.Internal.Correction>
   9.000000E+99

> <Gold.Chemscore.Hbonds>
donor molecule, donor type, donor heavy atom, donor atom, acceptor molecule, acceptor atom, score
      P1  H  6896  6908       L1    15  0.52
      P1  H  7989  7998       L1    20  0.90
      P1  H 10752 10764       L1    17  0.33

> <Gold.Chemscore.Hbond.Weighted>
-9.2419

> <Gold.Chemscore.Metal.Weighted>
-0.0000

> <Gold.Chemscore.Lipo.Weighted>
-11.2911

> <Gold.Chemscore.Internal_Hbond.Weighted>
0.0000

> <Gold.Chemscore.DEClash.Weighted>
0.0383

> <Gold.Chemscore.DEInternal.Weighted>
1.6045

> <Gold.Chemscore.Rot.Weighted>
4.8598

> <Gold.Chemscore.Internal.Correction.Weighted>
   9.000000E+99

> <Gold.Protein.RotatedTorsions>
[ 6907 6896 6895 6894 ] final  137.11 input  -60.11 | X-H torsion
[ 7974 7965 7964 7962 ] final -153.33 input  175.53 | X-H torsion
[ 8008 7997 7996 7995 ] final  -91.16 input   59.86 | X-H torsion
[ 10167 10162 10161 10158 ] final  -95.20 input  -65.29 | X-H torsion
[ 10718 10713 10712 10709 ] final   39.34 input   66.30 | X-H torsion
[ 10763 10752 10751 10750 ] final  -71.93 input  -60.55 | X-H torsion
[ 11005 11000 10999 10996 ] final   64.44 input  -57.11 | X-H torsion

> <Gold.Protein.ActiveResidues>
 VAL166  LYS551  ARG553  GLY616  TRP617  ASP618  TYR619  PRO620  LYS621  CYS622 
 ASP623  PHE694  ASN695  SER759  ASP760  ASP761  ALA762  ILE779  LEU786  VAL792 
 PHE793  MET794  SER795  GLU796  ALA797  LYS798  CYS799  TRP800  GLU811  SER814 

> <Gold.Protein.RotatedAtoms>
  152.2817  133.5477  159.5501 H   0  0  0  0  0  0  0  0  0  0  0  0  # atno 6907 bound_to 6896
  150.7199  134.0554  159.3821 H   0  0  0  0  0  0  0  0  0  0  0  0  # atno 6908 bound_to 6896
  151.8464  135.0573  160.0505 H   0  0  0  0  0  0  0  0  0  0  0  0  # atno 6909 bound_to 6896
  144.7746  140.4540  143.5882 H   0  0  0  0  0  0  0  0  0  0  0  0  # atno 7974 bound_to 7965
  154.7073  140.0522  157.0516 H   0  0  0  0  0  0  0  0  0  0  0  0  # atno 8008 bound_to 7997
  155.0602  140.3188  155.4644 H   0  0  0  0  0  0  0  0  0  0  0  0  # atno 8009 bound_to 7997
  156.2779  140.2100  156.5729 H   0  0  0  0  0  0  0  0  0  0  0  0  # atno 8010 bound_to 7997
  140.3066  143.3130  152.0193 H   0  0  0  0  0  0  0  0  0  0  0  0  # atno 10167 bound_to 10162
  157.3694  130.7693  149.7107 H   0  0  0  0  0  0  0  0  0  0  0  0  # atno 10718 bound_to 10713
  154.4387  135.5946  153.6115 H   0  0  0  0  0  0  0  0  0  0  0  0  # atno 10763 bound_to 10752
  152.9804  135.5993  154.3749 H   0  0  0  0  0  0  0  0  0  0  0  0  # atno 10764 bound_to 10752
  154.3597  135.2841  155.2306 H   0  0  0  0  0  0  0  0  0  0  0  0  # atno 10765 bound_to 10752
  139.9958  134.6519  156.0012 H   0  0  0  0  0  0  0  0  0  0  0  0  # atno 11005 bound_to 11000
  145.6222  139.1525  143.3016 LP  0  0  0  0  0  0  0  0  0  0  0  0  # atno 17320 bound_to 7965
  146.1917  140.6332  142.9142 LP  0  0  0  0  0  0  0  0  0  0  0  0  # atno 17321 bound_to 7965
  139.4903  144.6416  151.6865 LP  0  0  0  0  0  0  0  0  0  0  0  0  # atno 17342 bound_to 10162
  140.5605  144.0277  150.6167 LP  0  0  0  0  0  0  0  0  0  0  0  0  # atno 17343 bound_to 10162
  155.9752  130.4091  150.3863 LP  0  0  0  0  0  0  0  0  0  0  0  0  # atno 17370 bound_to 10713
  157.1952  131.0425  151.2679 LP  0  0  0  0  0  0  0  0  0  0  0  0  # atno 17371 bound_to 10713
  141.1603  133.6539  156.4298 LP  0  0  0  0  0  0  0  0  0  0  0  0  # atno 17394 bound_to 11000
  140.4820  134.6656  157.5175 LP  0  0  0  0  0  0  0  0  0  0  0  0  # atno 17395 bound_to 11000

$$$$
