AV-unprocessed.smi:468|AV-procd|sdf|2652|dock2
  -GOLD-   2262023 63D 1   1.00000     0.00000
 Structure written by MMmdl.
 49 50  0  0  0  0  0  0  0  0  2 V2000
  151.6577  131.7013  156.7679 C   0  0  0  0  0  0  0  0  0  0  0  0
  151.0164  132.6570  155.9435 O   0  0  0  0  0  0  0  0  0  0  0  0
  150.2497  132.0630  154.9096 C   0  0  0  0  0  0  0  0  0  0  0  0
  149.7448  133.1573  153.9549 C   0  0  0  0  0  0  0  0  0  0  0  0
  148.7052  134.0040  154.5635 N   0  0  0  0  0  0  0  0  0  0  0  0
  147.4325  134.0007  154.0854 C   0  0  0  0  0  0  0  0  0  0  0  0
  146.5294  134.6274  154.6429 O   0  0  0  0  0  0  0  0  0  0  0  0
  147.1137  133.2293  152.7835 C   0  0  0  0  0  0  0  0  0  0  0  0
  145.6189  132.9802  152.4937 C   0  0  0  0  0  0  0  0  0  0  0  0
  145.9800  131.5454  152.1003 C   0  0  0  0  0  0  0  0  0  0  0  0
  147.2719  131.7045  152.9058 C   0  0  0  0  0  0  0  0  0  0  0  0
  149.0845  134.7702  155.6817 C   0  0  0  0  0  0  0  0  0  0  0  0
  149.5273  136.0517  155.5745 C   0  0  0  0  0  0  0  0  0  0  0  0
  149.6356  136.6686  154.3362 N   0  0  0  0  0  0  0  0  0  0  0  0
  149.8941  136.7772  156.7400 N   0  0  0  0  0  0  0  0  0  0  0  0
  150.3853  138.1668  156.5885 C   0  0  0  0  0  0  0  0  0  0  0  0
  151.7280  138.2625  155.8228 C   0  0  0  0  0  0  0  0  0  0  0  0
  152.8822  137.5358  156.5337 C   0  0  0  0  0  0  0  0  0  0  0  0
  152.0958  139.7311  155.5649 C   0  0  0  0  0  0  0  0  0  0  0  0
  149.7976  136.2017  157.9791 C   0  0  0  0  0  0  0  0  0  0  0  0
  150.1283  136.8481  158.9740 O   0  0  0  0  0  0  0  0  0  0  0  0
  149.3420  134.9204  158.0819 N   0  5  0  0  0  0  0  0  0  0  0  0
  148.9769  134.1648  157.0131 C   0  0  0  0  0  0  0  0  0  0  0  0
  148.5610  133.0123  157.1357 O   0  0  0  0  0  0  0  0  0  0  0  0
  152.2274  132.2132  157.5434 H   0  0  0  0  0  0  0  0  0  0  0  0
  152.3506  131.0865  156.1922 H   0  0  0  0  0  0  0  0  0  0  0  0
  150.9316  131.0501  157.2558 H   0  0  0  0  0  0  0  0  0  0  0  0
  150.8351  131.3157  154.3716 H   0  0  0  0  0  0  0  0  0  0  0  0
  149.3965  131.5477  155.3527 H   0  0  0  0  0  0  0  0  0  0  0  0
  150.5829  133.7799  153.6372 H   0  0  0  0  0  0  0  0  0  0  0  0
  149.3745  132.6938  153.0389 H   0  0  0  0  0  0  0  0  0  0  0  0
  147.6077  133.6259  151.8951 H   0  0  0  0  0  0  0  0  0  0  0  0
  144.9625  133.0144  153.3644 H   0  0  0  0  0  0  0  0  0  0  0  0
  145.2164  133.5745  151.6731 H   0  0  0  0  0  0  0  0  0  0  0  0
  145.2982  130.7830  152.4782 H   0  0  0  0  0  0  0  0  0  0  0  0
  146.1616  131.4343  151.0301 H   0  0  0  0  0  0  0  0  0  0  0  0
  148.1557  131.3029  152.4093 H   0  0  0  0  0  0  0  0  0  0  0  0
  147.1840  131.3337  153.9286 H   0  0  0  0  0  0  0  0  0  0  0  0
  149.3886  136.1808  153.4872 H   0  0  0  0  0  0  0  0  0  0  0  0
  150.1831  137.5092  154.2211 H   0  0  0  0  0  0  0  0  0  0  0  0
  149.6265  138.7627  156.0799 H   0  0  0  0  0  0  0  0  0  0  0  0
  150.4877  138.6687  157.5517 H   0  0  0  0  0  0  0  0  0  0  0  0
  151.6042  137.7905  154.8479 H   0  0  0  0  0  0  0  0  0  0  0  0
  153.0353  137.9257  157.5404 H   0  0  0  0  0  0  0  0  0  0  0  0
  153.8172  137.6528  155.9853 H   0  0  0  0  0  0  0  0  0  0  0  0
  152.6911  136.4657  156.6150 H   0  0  0  0  0  0  0  0  0  0  0  0
  152.2523  140.2698  156.5001 H   0  0  0  0  0  0  0  0  0  0  0  0
  151.3067  140.2429  155.0133 H   0  0  0  0  0  0  0  0  0  0  0  0
  153.0107  139.8109  154.9773 H   0  0  0  0  0  0  0  0  0  0  0  0
  1  2  1  0  0  0  0
  1 25  1  0  0  0  0
  1 26  1  0  0  0  0
  1 27  1  0  0  0  0
  2  3  1  0  0  0  0
  3  4  1  0  0  0  0
  3 28  1  0  0  0  0
  3 29  1  0  0  0  0
  4  5  1  0  0  0  0
  4 30  1  0  0  0  0
  4 31  1  0  0  0  0
  5  6  1  0  0  0  0
  5 12  1  0  0  0  0
  6  7  2  0  0  0  0
  6  8  1  0  0  0  0
  8 11  1  0  0  0  0
  8  9  1  0  0  0  0
  8 32  1  0  0  0  0
  9 10  1  0  0  0  0
  9 33  1  0  0  0  0
  9 34  1  0  0  0  0
 10 11  1  0  0  0  0
 10 35  1  0  0  0  0
 10 36  1  0  0  0  0
 11 37  1  0  0  0  0
 11 38  1  0  0  0  0
 12 23  1  0  0  0  0
 12 13  2  0  0  0  0
 13 14  1  0  0  0  0
 13 15  1  0  0  0  0
 14 39  1  0  0  0  0
 14 40  1  0  0  0  0
 15 16  1  0  0  0  0
 15 20  1  0  0  0  0
 16 17  1  0  0  0  0
 16 41  1  0  0  0  0
 16 42  1  0  0  0  0
 17 18  1  0  0  0  0
 17 19  1  0  0  0  0
 17 43  1  0  0  0  0
 18 44  1  0  0  0  0
 18 45  1  0  0  0  0
 18 46  1  0  0  0  0
 19 47  1  0  0  0  0
 19 48  1  0  0  0  0
 19 49  1  0  0  0  0
 20 21  2  0  0  0  0
 20 22  1  0  0  0  0
 22 23  1  0  0  0  0
 23 24  2  0  0  0  0
M  CHG  1  22  -1
M  END
> <s_m_source_file>
AV-unprocessed.smi

> <i_m_source_file_index>
468

> <i_lp_mmshare_version>
43012

> <i_f3d_flags>
0

> <s_epik_input>
W0NIMl0xW0NIMl1bQ0gyXVtDSF0xQyg9TylOKFtDSDJdW0NIMl1PW0NIM10pYzJjKFtOSDJdKW4oW0NIMl1bQ0hdKFtDSDNdKVtDSDNdKWMoPU8pW25IXWMyPU8=

> <s_epik_cmdline>
J2VwaWtfcHl0aG9uJywgJy1waCcsICc3LjAnLCAnLXRuJywgJzgnLCAnLW1hJywgJzIwMCcsICctbWV0YWxfYmluZGluZycsICctaW1hZScsICc8aW5maWxlLm1hZT4nLCAnLW9tYWUnLCAnPG91dGZpbGUubWFlPic=

> <r_lp_tautomer_probability>
1

> <r_epik_Ionization_Penalty>
5.91772

> <r_epik_Ionization_Penalty_Charging>
1.97379e-07

> <r_epik_Ionization_Penalty_Neutral>
5.91772

> <r_epik_State_Penalty>
5.91769

> <r_epik_Charging_Adjusted_Penalty>
5.91769

> <i_epik_Tot_Q>
-1

> <i_epik_Tot_abs_Q>
1

> <r_epik_Metal_State_Penalty>
1.85156

> <b_epik_Metal_Only>
1

> <s_lp_Force_Field>
OPLS_2005

> <r_lp_Energy>
46.8311

> <b_lp_Chiralities_Consistent>
1

> <s_lp_Variant>
AV-unprocessed.smi:468-2

> <Gold.Version>
5.8.1

> <Gold.Id.Protein>
6NUR|6NUR_protein|mol2

> <Gold.PLP.Fitness>
34.4055

> <Gold.PLP.PLP>
-26.3552

> <Gold.PLP.part.hbond>
-2.0367

> <Gold.PLP.part.metal>
0.0000

> <Gold.PLP.part.buried>
-4.3997

> <Gold.PLP.part.nonpolar>
-19.7779

> <Gold.PLP.part.repulsive>
0.0753

> <Gold.PLP.ligand.clash>
0.0000

> <Gold.PLP.ligand.torsion>
1.8403

> <Gold.PLP.Chemscore.Hbond>
3.0000

> <Gold.PLP.Chemscore.CHOScore>
0.0000

> <Gold.PLP.Chemscore.Metal>
0.0000

> <Gold.Chemscore.Hbonds>
donor molecule, donor type, donor heavy atom, donor atom, acceptor molecule, acceptor atom, score
      L1  H    14    39       P1  7948  0.99
      P1  H  6896  6907       L1    22  2.00

> <Gold.PLP.Chemscore.Internal.Correction>
2.7309

> <Gold.Rescore>
     Score         DG    S(hbond)    S(metal)    S(lipo)     H(rot)  DE(clash)    DE(int)     intcor
      7.15     -11.63       1.35        0.00      58.58       2.04       0.02       4.46       ----

> <Gold.Chemscore.Fitness>
7.1521

> <Gold.Chemscore.DG>
-11.6310

> <Gold.Chemscore.ZeroCoef>
-5.4800

> <Gold.Chemscore.Hbond>
1.3504

> <Gold.Chemscore.Metal>
0.0000

> <Gold.Chemscore.Lipo>
58.5756

> <Gold.Chemscore.Internal_Hbond>
0.0000

> <Gold.Chemscore.DEClash>
0.0202

> <Gold.Chemscore.DEInternal>
4.4587

> <Gold.Chemscore.Rot>
2.0362

> <Gold.Chemscore.Internal.Correction>
   9.000000E+99

> <Gold.Chemscore.Hbonds>
donor molecule, donor type, donor heavy atom, donor atom, acceptor molecule, acceptor atom, score
      L1  H    14    39       P1  7948  0.66
      P1  H  6896  6907       L1    22  0.28

> <Gold.Chemscore.Hbond.Weighted>
-4.5102

> <Gold.Chemscore.Metal.Weighted>
-0.0000

> <Gold.Chemscore.Lipo.Weighted>
-6.8533

> <Gold.Chemscore.Internal_Hbond.Weighted>
0.0000

> <Gold.Chemscore.DEClash.Weighted>
0.0202

> <Gold.Chemscore.DEInternal.Weighted>
4.4587

> <Gold.Chemscore.Rot.Weighted>
5.2126

> <Gold.Chemscore.Internal.Correction.Weighted>
   9.000000E+99

> <Gold.Protein.RotatedTorsions>
[ 6907 6896 6895 6894 ] final  -97.57 input  -60.11 | X-H torsion
[ 7974 7965 7964 7962 ] final  -54.98 input  175.53 | X-H torsion
[ 8008 7997 7996 7995 ] final -139.33 input   59.86 | X-H torsion
[ 10167 10162 10161 10158 ] final   68.21 input  -65.29 | X-H torsion
[ 10718 10713 10712 10709 ] final -179.71 input   66.30 | X-H torsion
[ 10763 10752 10751 10750 ] final -137.45 input  -60.55 | X-H torsion
[ 11005 11000 10999 10996 ] final   90.97 input  -57.11 | X-H torsion

> <Gold.Protein.ActiveResidues>
 VAL166  LYS551  ARG553  GLY616  TRP617  ASP618  TYR619  PRO620  LYS621  CYS622 
 ASP623  PHE694  ASN695  SER759  ASP760  ASP761  ALA762  ILE779  LEU786  VAL792 
 PHE793  MET794  SER795  GLU796  ALA797  LYS798  CYS799  TRP800  GLU811  SER814 

> <Gold.Protein.RotatedAtoms>
  150.7020  134.1328  159.4075 H   0  0  0  0  0  0  0  0  0  0  0  0  # atno 6907 bound_to 6896
  151.9314  135.0252  160.0538 H   0  0  0  0  0  0  0  0  0  0  0  0  # atno 6908 bound_to 6896
  152.2172  133.4921  159.5179 H   0  0  0  0  0  0  0  0  0  0  0  0  # atno 6909 bound_to 6896
  145.8794  140.8156  142.9848 H   0  0  0  0  0  0  0  0  0  0  0  0  # atno 7974 bound_to 7965
  155.4431  140.0533  157.3008 H   0  0  0  0  0  0  0  0  0  0  0  0  # atno 8008 bound_to 7997
  154.4810  140.2081  155.9722 H   0  0  0  0  0  0  0  0  0  0  0  0  # atno 8009 bound_to 7997
  156.1205  140.3189  155.8206 H   0  0  0  0  0  0  0  0  0  0  0  0  # atno 8010 bound_to 7997
  140.0811  144.5070  150.7161 H   0  0  0  0  0  0  0  0  0  0  0  0  # atno 10167 bound_to 10162
  156.8631  130.9758  151.3081 H   0  0  0  0  0  0  0  0  0  0  0  0  # atno 10718 bound_to 10713
  154.8661  135.3642  154.5226 H   0  0  0  0  0  0  0  0  0  0  0  0  # atno 10763 bound_to 10752
  153.5855  135.7017  153.5450 H   0  0  0  0  0  0  0  0  0  0  0  0  # atno 10764 bound_to 10752
  153.3419  135.4095  155.1541 H   0  0  0  0  0  0  0  0  0  0  0  0  # atno 10765 bound_to 10752
  139.8847  134.8646  156.3361 H   0  0  0  0  0  0  0  0  0  0  0  0  # atno 11005 bound_to 11000
  144.6727  140.1360  143.7440 LP  0  0  0  0  0  0  0  0  0  0  0  0  # atno 17320 bound_to 7965
  145.9042  139.2448  143.1475 LP  0  0  0  0  0  0  0  0  0  0  0  0  # atno 17321 bound_to 7965
  140.7077  143.2480  151.4676 LP  0  0  0  0  0  0  0  0  0  0  0  0  # atno 17342 bound_to 10162
  139.5779  144.1777  152.1928 LP  0  0  0  0  0  0  0  0  0  0  0  0  # atno 17343 bound_to 10162
  157.6239  130.8676  149.9155 LP  0  0  0  0  0  0  0  0  0  0  0  0  # atno 17370 bound_to 10713
  156.0766  130.3678  150.0665 LP  0  0  0  0  0  0  0  0  0  0  0  0  # atno 17371 bound_to 10713
  140.9690  133.7339  156.0508 LP  0  0  0  0  0  0  0  0  0  0  0  0  # atno 17394 bound_to 11000
  140.7894  134.3634  157.5468 LP  0  0  0  0  0  0  0  0  0  0  0  0  # atno 17395 bound_to 11000

$$$$
