AV-unprocessed.smi:2801|AV-procd|sdf|10801|dock2
  -GOLD-   2272015233D 1   1.00000     0.00000
 Structure written by MMmdl.
 31 31  0  0  0  0  0  0  0  0  2 V2000
  154.5400  140.7540  161.5296 C   0  0  0  0  0  0  0  0  0  0  0  0
  153.6681  140.7934  160.2728 C   0  0  0  0  0  0  0  0  0  0  0  0
  152.7675  141.8896  160.3790 O   0  0  0  0  0  0  0  0  0  0  0  0
  152.5447  142.6169  159.1725 C   0  0  2  0  0  0  0  0  0  0  0  0
  152.1805  144.0644  159.5536 C   0  0  0  0  0  0  0  0  0  0  0  0
  151.4775  144.1622  160.9134 C   0  0  0  0  0  0  0  0  0  0  0  0
  151.4209  141.9566  158.3564 C   0  0  0  0  0  0  0  0  0  0  0  0
  150.2719  141.9549  158.7980 O   0  0  0  0  0  0  0  0  0  0  0  0
  151.8040  141.3884  157.1984 N   0  0  0  0  0  0  0  0  0  0  0  0
  151.0308  140.7043  156.2178 C   0  0  0  0  0  0  0  0  0  0  0  0
  149.6601  140.9606  155.9705 C   0  0  0  0  0  0  0  0  0  0  0  0
  149.0069  140.2301  154.9586 C   0  0  0  0  0  0  0  0  0  0  0  0
  149.6172  139.2972  154.1990 N   0  0  0  0  0  0  0  0  0  0  0  0
  150.9262  139.0620  154.4274 C   0  0  0  0  0  0  0  0  0  0  0  0
  151.6765  139.7340  155.4146 C   0  0  0  0  0  0  0  0  0  0  0  0
  153.0020  139.4369  155.5767 O   0  5  0  0  0  0  0  0  0  0  0  0
  155.2457  139.9242  161.4880 H   0  0  0  0  0  0  0  0  0  0  0  0
  153.9299  140.6304  162.4245 H   0  0  0  0  0  0  0  0  0  0  0  0
  155.1121  141.6756  161.6381 H   0  0  0  0  0  0  0  0  0  0  0  0
  154.2979  140.9105  159.3897 H   0  0  0  0  0  0  0  0  0  0  0  0
  153.1314  139.8495  160.1724 H   0  0  0  0  0  0  0  0  0  0  0  0
  153.4631  142.6346  158.5817 H   0  0  0  0  0  0  0  0  0  0  0  0
  153.0842  144.6748  159.5859 H   0  0  0  0  0  0  0  0  0  0  0  0
  151.5417  144.5037  158.7858 H   0  0  0  0  0  0  0  0  0  0  0  0
  151.2454  145.1990  161.1565 H   0  0  0  0  0  0  0  0  0  0  0  0
  152.1066  143.7662  161.7111 H   0  0  0  0  0  0  0  0  0  0  0  0
  150.5412  143.6035  160.9159 H   0  0  0  0  0  0  0  0  0  0  0  0
  152.7957  141.4047  157.0072 H   0  0  0  0  0  0  0  0  0  0  0  0
  149.1006  141.7015  156.5181 H   0  0  0  0  0  0  0  0  0  0  0  0
  147.9623  140.4061  154.7489 H   0  0  0  0  0  0  0  0  0  0  0  0
  151.3890  138.3147  153.7995 H   0  0  0  0  0  0  0  0  0  0  0  0
  1  2  1  0  0  0  0
  1 17  1  0  0  0  0
  1 18  1  0  0  0  0
  1 19  1  0  0  0  0
  2  3  1  0  0  0  0
  2 20  1  0  0  0  0
  2 21  1  0  0  0  0
  3  4  1  0  0  0  0
  4  5  1  0  0  0  0
  4  7  1  0  0  0  0
  4 22  1  0  0  0  0
  5  6  1  0  0  0  0
  5 23  1  0  0  0  0
  5 24  1  0  0  0  0
  6 25  1  0  0  0  0
  6 26  1  0  0  0  0
  6 27  1  0  0  0  0
  7  8  2  0  0  0  0
  7  9  1  0  0  0  0
  9 28  1  0  0  0  0
  9 10  1  0  0  0  0
 10 11  2  0  0  0  0
 10 15  1  0  0  0  0
 11 12  1  0  0  0  0
 11 29  1  0  0  0  0
 12 13  2  0  0  0  0
 12 30  1  0  0  0  0
 13 14  1  0  0  0  0
 14 15  2  0  0  0  0
 14 31  1  0  0  0  0
 15 16  1  0  0  0  0
M  CHG  1  16  -1
M  END
> <s_m_source_file>
AV-unprocessed.smi

> <i_m_source_file_index>
2801

> <i_lp_mmshare_version>
43012

> <i_f3d_flags>
0

> <s_epik_input>
W0NIM11bQ0gyXU9bQ0BIXShbQ0gyXVtDSDNdKUMoPU8pW05IXWMxW2NIXVtjSF1uW2NIXWMxW09IXQ==

> <s_epik_cmdline>
J2VwaWtfcHl0aG9uJywgJy1waCcsICc3LjAnLCAnLXRuJywgJzgnLCAnLW1hJywgJzIwMCcsICctbWV0YWxfYmluZGluZycsICctaW1hZScsICc8aW5maWxlLm1hZT4nLCAnLW9tYWUnLCAnPG91dGZpbGUubWFlPic=

> <r_lp_tautomer_probability>
0.56342

> <r_epik_Ionization_Penalty>
4.38321

> <r_epik_Ionization_Penalty_Charging>
2.0641

> <r_epik_Ionization_Penalty_Neutral>
2.31912

> <r_epik_State_Penalty>
2.63873

> <r_epik_Charging_Adjusted_Penalty>
4.70283

> <i_epik_Tot_Q>
-1

> <i_epik_Tot_abs_Q>
1

> <r_epik_Metal_State_Penalty>
0.606608

> <b_epik_Metal_Only>
1

> <s_lp_Force_Field>
OPLS_2005

> <r_lp_Energy>
9.76409

> <b_lp_Chiralities_Consistent>
1

> <s_lp_Variant>
AV-unprocessed.smi:2801-5

> <Gold.Version>
5.8.1

> <Gold.Id.Protein>
6NUR|6NUR_protein|mol2

> <Gold.PLP.Fitness>
42.5298

> <Gold.PLP.PLP>
-38.9243

> <Gold.PLP.part.hbond>
-1.0000

> <Gold.PLP.part.metal>
0.0000

> <Gold.PLP.part.buried>
-3.0051

> <Gold.PLP.part.nonpolar>
-35.7267

> <Gold.PLP.part.repulsive>
1.1819

> <Gold.PLP.ligand.clash>
0.0000

> <Gold.PLP.ligand.torsion>
1.2536

> <Gold.PLP.Chemscore.Hbond>
2.0000

> <Gold.PLP.Chemscore.CHOScore>
0.0000

> <Gold.PLP.Chemscore.Metal>
0.0000

> <Gold.Chemscore.Hbonds>
donor molecule, donor type, donor heavy atom, donor atom, acceptor molecule, acceptor atom, score
      P1  H  7997  8008       L1    16  1.70

> <Gold.PLP.Chemscore.Internal.Correction>
0.1127

> <Gold.Rescore>
     Score         DG    S(hbond)    S(metal)    S(lipo)     H(rot)  DE(clash)    DE(int)     intcor
     12.38     -15.56       0.98        0.00      91.97       1.55       0.75       2.42       ----

> <Gold.Chemscore.Fitness>
12.3806

> <Gold.Chemscore.DG>
-15.5593

> <Gold.Chemscore.ZeroCoef>
-5.4800

> <Gold.Chemscore.Hbond>
0.9810

> <Gold.Chemscore.Metal>
0.0000

> <Gold.Chemscore.Lipo>
91.9745

> <Gold.Chemscore.Internal_Hbond>
0.0000

> <Gold.Chemscore.DEClash>
0.7547

> <Gold.Chemscore.DEInternal>
2.4240

> <Gold.Chemscore.Rot>
1.5462

> <Gold.Chemscore.Internal.Correction>
   9.000000E+99

> <Gold.Chemscore.Hbonds>
donor molecule, donor type, donor heavy atom, donor atom, acceptor molecule, acceptor atom, score
      P1  H  7997  8008       L1    16  0.83

> <Gold.Chemscore.Hbond.Weighted>
-3.2767

> <Gold.Chemscore.Metal.Weighted>
-0.0000

> <Gold.Chemscore.Lipo.Weighted>
-10.7610

> <Gold.Chemscore.Internal_Hbond.Weighted>
0.0000

> <Gold.Chemscore.DEClash.Weighted>
0.7547

> <Gold.Chemscore.DEInternal.Weighted>
2.4240

> <Gold.Chemscore.Rot.Weighted>
3.9583

> <Gold.Chemscore.Internal.Correction.Weighted>
   9.000000E+99

> <Gold.Protein.RotatedTorsions>
[ 6907 6896 6895 6894 ] final   62.99 input  -60.11 | X-H torsion
[ 7974 7965 7964 7962 ] final   18.10 input  175.53 | X-H torsion
[ 8008 7997 7996 7995 ] final  -54.28 input   59.86 | X-H torsion
[ 10167 10162 10161 10158 ] final   50.62 input  -65.29 | X-H torsion
[ 10718 10713 10712 10709 ] final    8.90 input   66.30 | X-H torsion
[ 10763 10752 10751 10750 ] final  166.03 input  -60.55 | X-H torsion
[ 11005 11000 10999 10996 ] final   81.82 input  -57.11 | X-H torsion

> <Gold.Protein.ActiveResidues>
 VAL166  LYS551  ARG553  GLY616  TRP617  ASP618  TYR619  PRO620  LYS621  CYS622 
 ASP623  PHE694  ASN695  SER759  ASP760  ASP761  ALA762  ILE779  LEU786  VAL792 
 PHE793  MET794  SER795  GLU796  ALA797  LYS798  CYS799  TRP800  GLU811  SER814 

> <Gold.Protein.RotatedAtoms>
  152.4217  134.5942  159.9982 H   0  0  0  0  0  0  0  0  0  0  0  0  # atno 6907 bound_to 6896
  151.6090  133.3343  159.3071 H   0  0  0  0  0  0  0  0  0  0  0  0  # atno 6908 bound_to 6896
  150.8105  134.7295  159.6749 H   0  0  0  0  0  0  0  0  0  0  0  0  # atno 6909 bound_to 6896
  146.2196  139.8506  142.8623 H   0  0  0  0  0  0  0  0  0  0  0  0  # atno 7974 bound_to 7965
  154.4158  140.1180  156.5289 H   0  0  0  0  0  0  0  0  0  0  0  0  # atno 8008 bound_to 7997
  155.6626  140.3496  155.4769 H   0  0  0  0  0  0  0  0  0  0  0  0  # atno 8009 bound_to 7997
  155.9701  140.1139  157.0810 H   0  0  0  0  0  0  0  0  0  0  0  0  # atno 8010 bound_to 7997
  140.2706  144.3270  150.6291 H   0  0  0  0  0  0  0  0  0  0  0  0  # atno 10167 bound_to 10162
  156.9585  130.5924  149.5660 H   0  0  0  0  0  0  0  0  0  0  0  0  # atno 10718 bound_to 10713
  154.3329  135.2754  155.2463 H   0  0  0  0  0  0  0  0  0  0  0  0  # atno 10763 bound_to 10752
  154.4767  135.5869  153.6363 H   0  0  0  0  0  0  0  0  0  0  0  0  # atno 10764 bound_to 10752
  152.9865  135.6101  154.3523 H   0  0  0  0  0  0  0  0  0  0  0  0  # atno 10765 bound_to 10752
  139.9085  134.8025  156.2092 H   0  0  0  0  0  0  0  0  0  0  0  0  # atno 11005 bound_to 11000
  145.2805  141.0137  143.3720 LP  0  0  0  0  0  0  0  0  0  0  0  0  # atno 17320 bound_to 7965
  144.9154  139.4477  143.6567 LP  0  0  0  0  0  0  0  0  0  0  0  0  # atno 17321 bound_to 7965
  140.5893  143.2168  151.7283 LP  0  0  0  0  0  0  0  0  0  0  0  0  # atno 17342 bound_to 10162
  139.4990  144.3963  152.0227 LP  0  0  0  0  0  0  0  0  0  0  0  0  # atno 17343 bound_to 10162
  156.0332  130.5422  150.8588 LP  0  0  0  0  0  0  0  0  0  0  0  0  # atno 17370 bound_to 10713
  157.5674  131.0946  150.9469 LP  0  0  0  0  0  0  0  0  0  0  0  0  # atno 17371 bound_to 10713
  141.0476  133.6905  156.1712 LP  0  0  0  0  0  0  0  0  0  0  0  0  # atno 17394 bound_to 11000
  140.6860  134.4717  157.5589 LP  0  0  0  0  0  0  0  0  0  0  0  0  # atno 17395 bound_to 11000

$$$$
