AV-unprocessed.smi:937|AV-procd|sdf|4209|dock1
  -GOLD-   22720 2113D 1   1.00000     0.00000
 Structure written by MMmdl.
 45 46  0  0  0  0  0  0  0  0  1 V2000
  152.1142  142.0190  159.3379 C   0  0  0  0  0  0  0  0  0  0  0  0
  151.5801  141.3454  158.0912 C   0  0  0  0  0  0  0  0  0  0  0  0
  150.5313  141.9301  157.3511 C   0  0  0  0  0  0  0  0  0  0  0  0
  150.0682  141.2619  156.2015 C   0  0  0  0  0  0  0  0  0  0  0  0
  150.6687  140.0393  155.8378 C   0  0  0  0  0  0  0  0  0  0  0  0
  150.2014  139.2807  154.6119 C   0  0  0  0  0  0  0  0  0  0  0  0
  148.6811  139.0558  154.6177 C   0  0  0  0  0  0  0  0  0  0  0  0
  148.3368  137.7381  154.0988 N   0  0  0  0  0  0  0  0  0  0  0  0
  147.5352  136.8538  154.7160 C   0  0  0  0  0  0  0  0  0  0  0  0
  147.0126  137.0619  155.8094 O   0  0  0  0  0  0  0  0  0  0  0  0
  147.3370  135.7054  154.0445 N   0  0  0  0  0  0  0  0  0  0  0  0
  146.5274  134.5456  154.4315 C   0  0  2  0  0  0  0  0  0  0  0  0
  147.4098  133.3555  154.8665 C   0  0  0  0  0  0  0  0  0  0  0  0
  148.1772  132.7432  153.6837 C   0  0  0  0  0  0  0  0  0  0  0  0
  147.2229  132.3352  152.5507 C   0  0  0  0  0  0  0  0  0  0  0  0
  146.3605  133.5232  152.0750 C   0  0  1  0  0  0  0  0  0  0  0  0
  145.4095  133.1252  150.9273 C   0  0  0  0  0  0  0  0  0  0  0  0
  144.5004  132.2447  151.3469 F   0  0  0  0  0  0  0  0  0  0  0  0
  144.7811  134.2046  150.4614 F   0  0  0  0  0  0  0  0  0  0  0  0
  146.1034  132.5842  149.9259 F   0  0  0  0  0  0  0  0  0  0  0  0
  145.5973  134.1398  153.2704 C   0  0  0  0  0  0  0  0  0  0  0  0
  151.7096  139.5386  156.6480 C   0  0  0  0  0  0  0  0  0  0  0  0
  152.1596  140.1722  157.7525 N   0  0  0  0  0  0  0  0  0  0  0  0
  151.9446  143.0955  159.3005 H   0  0  0  0  0  0  0  0  0  0  0  0
  153.1864  141.8505  159.4436 H   0  0  0  0  0  0  0  0  0  0  0  0
  151.6144  141.6235  160.2223 H   0  0  0  0  0  0  0  0  0  0  0  0
  150.0902  142.8680  157.6553 H   0  0  0  0  0  0  0  0  0  0  0  0
  149.2653  141.6804  155.6121 H   0  0  0  0  0  0  0  0  0  0  0  0
  150.4996  139.8361  153.7215 H   0  0  0  0  0  0  0  0  0  0  0  0
  150.7219  138.3231  154.5651 H   0  0  0  0  0  0  0  0  0  0  0  0
  148.2966  139.1322  155.6352 H   0  0  0  0  0  0  0  0  0  0  0  0
  148.1768  139.8295  154.0358 H   0  0  0  0  0  0  0  0  0  0  0  0
  148.7262  137.4829  153.2031 H   0  0  0  0  0  0  0  0  0  0  0  0
  147.8194  135.6211  153.1614 H   0  0  0  0  0  0  0  0  0  0  0  0
  145.8900  134.8337  155.2690 H   0  0  0  0  0  0  0  0  0  0  0  0
  148.1088  133.6568  155.6474 H   0  0  0  0  0  0  0  0  0  0  0  0
  146.7765  132.5875  155.3122 H   0  0  0  0  0  0  0  0  0  0  0  0
  148.9096  133.4587  153.3077 H   0  0  0  0  0  0  0  0  0  0  0  0
  148.7432  131.8746  154.0211 H   0  0  0  0  0  0  0  0  0  0  0  0
  147.8026  131.9353  151.7182 H   0  0  0  0  0  0  0  0  0  0  0  0
  146.5787  131.5247  152.8937 H   0  0  0  0  0  0  0  0  0  0  0  0
  147.0364  134.2835  151.6803 H   0  0  0  0  0  0  0  0  0  0  0  0
  144.8681  133.4175  153.6399 H   0  0  0  0  0  0  0  0  0  0  0  0
  145.0209  135.0059  152.9433 H   0  0  0  0  0  0  0  0  0  0  0  0
  152.1930  138.6035  156.4062 H   0  0  0  0  0  0  0  0  0  0  0  0
  1  2  1  0  0  0  0
  1 24  1  0  0  0  0
  1 25  1  0  0  0  0
  1 26  1  0  0  0  0
  2 23  1  0  0  0  0
  2  3  2  0  0  0  0
  3  4  1  0  0  0  0
  3 27  1  0  0  0  0
  4  5  2  0  0  0  0
  4 28  1  0  0  0  0
  5  6  1  0  0  0  0
  5 22  1  0  0  0  0
  6  7  1  0  0  0  0
  6 29  1  0  0  0  0
  6 30  1  0  0  0  0
  7  8  1  0  0  0  0
  7 31  1  0  0  0  0
  7 32  1  0  0  0  0
  8  9  1  0  0  0  0
  8 33  1  0  0  0  0
  9 10  2  0  0  0  0
  9 11  1  0  0  0  0
 11 12  1  0  0  0  0
 11 34  1  0  0  0  0
 12 21  1  0  0  0  0
 12 13  1  0  0  0  0
 12 35  1  0  0  0  0
 13 14  1  0  0  0  0
 13 36  1  0  0  0  0
 13 37  1  0  0  0  0
 14 15  1  0  0  0  0
 14 38  1  0  0  0  0
 14 39  1  0  0  0  0
 15 16  1  0  0  0  0
 15 40  1  0  0  0  0
 15 41  1  0  0  0  0
 16 17  1  0  0  0  0
 16 21  1  0  0  0  0
 16 42  1  0  0  0  0
 17 18  1  0  0  0  0
 17 19  1  0  0  0  0
 17 20  1  0  0  0  0
 21 43  1  0  0  0  0
 21 44  1  0  0  0  0
 22 23  2  0  0  0  0
 22 45  1  0  0  0  0
M  END
> <s_m_source_file>
AV-unprocessed.smi

> <i_m_source_file_index>
937

> <i_lp_mmshare_version>
43012

> <i_f3d_flags>
0

> <s_epik_input>
W0NIM11jMVtjSF1bY0hdYyhbY0hdbjEpW0NIMl1bQ0gyXVtOSF1DKD1PKVtOSF1bQ0BASF0yW0NIMl1bQ0gyXVtDSDJdW0NAQEhdKEMoRikoRilGKVtDSDJdMg==

> <s_epik_cmdline>
J2VwaWtfcHl0aG9uJywgJy1waCcsICc3LjAnLCAnLXRuJywgJzgnLCAnLW1hJywgJzIwMCcsICctbWV0YWxfYmluZGluZycsICctaW1hZScsICc8aW5maWxlLm1hZT4nLCAnLW9tYWUnLCAnPG91dGZpbGUubWFlPic=

> <r_epik_Ionization_Penalty>
0.0563445

> <r_epik_Ionization_Penalty_Charging>
0

> <r_epik_Ionization_Penalty_Neutral>
0.0563445

> <r_epik_State_Penalty>
0.0485409

> <r_epik_Charging_Adjusted_Penalty>
0.0485409

> <i_epik_Tot_Q>
0

> <i_epik_Tot_abs_Q>
0

> <r_epik_Metal_State_Penalty>
0.0443056

> <b_epik_Metal_Only>
0

> <s_lp_Force_Field>
OPLS_2005

> <r_lp_Energy>
16.8022

> <b_lp_Chiralities_Consistent>
1

> <s_lp_Variant>
AV-unprocessed.smi:937-1

> <Gold.Version>
5.8.1

> <Gold.Id.Protein>
6NUR|6NUR_protein|mol2

> <Gold.PLP.Fitness>
47.1574

> <Gold.PLP.PLP>
-39.7832

> <Gold.PLP.part.hbond>
-3.0000

> <Gold.PLP.part.metal>
0.0000

> <Gold.PLP.part.buried>
-3.5468

> <Gold.PLP.part.nonpolar>
-32.9185

> <Gold.PLP.part.repulsive>
0.0313

> <Gold.PLP.ligand.clash>
0.0000

> <Gold.PLP.ligand.torsion>
0.5177

> <Gold.PLP.Chemscore.Hbond>
2.7660

> <Gold.PLP.Chemscore.CHOScore>
0.0000

> <Gold.PLP.Chemscore.Metal>
0.0000

> <Gold.Chemscore.Hbonds>
donor molecule, donor type, donor heavy atom, donor atom, acceptor molecule, acceptor atom, score
      L1  H     8    33       P1  7948  1.00
      L1  H    11    34       P1  7948  1.00

> <Gold.PLP.Chemscore.Internal.Correction>
0.1117

> <Gold.Rescore>
     Score         DG    S(hbond)    S(metal)    S(lipo)     H(rot)  DE(clash)    DE(int)     intcor
     17.54     -18.02       1.93        0.00      86.76       1.58       0.00       0.48       ----

> <Gold.Chemscore.Fitness>
17.5385

> <Gold.Chemscore.DG>
-18.0193

> <Gold.Chemscore.ZeroCoef>
-5.4800

> <Gold.Chemscore.Hbond>
1.9299

> <Gold.Chemscore.Metal>
0.0000

> <Gold.Chemscore.Lipo>
86.7603

> <Gold.Chemscore.Internal_Hbond>
0.0000

> <Gold.Chemscore.DEClash>
0.0048

> <Gold.Chemscore.DEInternal>
0.4760

> <Gold.Chemscore.Rot>
1.5849

> <Gold.Chemscore.Internal.Correction>
   9.000000E+99

> <Gold.Chemscore.Hbonds>
donor molecule, donor type, donor heavy atom, donor atom, acceptor molecule, acceptor atom, score
      L1  H     8    33       P1  7948  0.95
      L1  H    11    34       P1  7948  0.98

> <Gold.Chemscore.Hbond.Weighted>
-6.4458

> <Gold.Chemscore.Metal.Weighted>
-0.0000

> <Gold.Chemscore.Lipo.Weighted>
-10.1510

> <Gold.Chemscore.Internal_Hbond.Weighted>
0.0000

> <Gold.Chemscore.DEClash.Weighted>
0.0048

> <Gold.Chemscore.DEInternal.Weighted>
0.4760

> <Gold.Chemscore.Rot.Weighted>
4.0574

> <Gold.Chemscore.Internal.Correction.Weighted>
   9.000000E+99

> <Gold.Protein.RotatedTorsions>
[ 6907 6896 6895 6894 ] final -132.26 input  -60.11 | X-H torsion
[ 7974 7965 7964 7962 ] final   21.97 input  175.53 | X-H torsion
[ 8008 7997 7996 7995 ] final  -72.86 input   59.86 | X-H torsion
[ 10167 10162 10161 10158 ] final  108.84 input  -65.29 | X-H torsion
[ 10718 10713 10712 10709 ] final   -8.44 input   66.30 | X-H torsion
[ 10763 10752 10751 10750 ] final   15.65 input  -60.55 | X-H torsion
[ 11005 11000 10999 10996 ] final  -12.30 input  -57.11 | X-H torsion

> <Gold.Protein.ActiveResidues>
 VAL166  LYS551  ARG553  GLY616  TRP617  ASP618  TYR619  PRO620  LYS621  CYS622 
 ASP623  PHE694  ASN695  SER759  ASP760  ASP761  ALA762  ILE779  LEU786  VAL792 
 PHE793  MET794  SER795  GLU796  ALA797  LYS798  CYS799  TRP800  GLU811  SER814 

> <Gold.Protein.RotatedAtoms>
  150.9604  133.6451  159.2755 H   0  0  0  0  0  0  0  0  0  0  0  0  # atno 6907 bound_to 6896
  151.3776  135.0933  159.9495 H   0  0  0  0  0  0  0  0  0  0  0  0  # atno 6908 bound_to 6896
  152.5145  133.9145  159.7559 H   0  0  0  0  0  0  0  0  0  0  0  0  # atno 6909 bound_to 6896
  146.2049  139.7951  142.8734 H   0  0  0  0  0  0  0  0  0  0  0  0  # atno 7974 bound_to 7965
  154.5200  140.0789  156.8154 H   0  0  0  0  0  0  0  0  0  0  0  0  # atno 8008 bound_to 7997
  155.3596  140.3417  155.4222 H   0  0  0  0  0  0  0  0  0  0  0  0  # atno 8009 bound_to 7997
  156.1671  140.1607  156.8500 H   0  0  0  0  0  0  0  0  0  0  0  0  # atno 8010 bound_to 7997
  139.6814  144.7118  151.1509 H   0  0  0  0  0  0  0  0  0  0  0  0  # atno 10167 bound_to 10162
  156.7026  130.5098  149.5913 H   0  0  0  0  0  0  0  0  0  0  0  0  # atno 10718 bound_to 10713
  153.1505  135.6777  153.8889 H   0  0  0  0  0  0  0  0  0  0  0  0  # atno 10763 bound_to 10752
  153.8317  135.3117  155.3420 H   0  0  0  0  0  0  0  0  0  0  0  0  # atno 10764 bound_to 10752
  154.7858  135.4863  154.0030 H   0  0  0  0  0  0  0  0  0  0  0  0  # atno 10765 bound_to 10752
  140.7643  133.8490  155.9151 H   0  0  0  0  0  0  0  0  0  0  0  0  # atno 11005 bound_to 11000
  145.3356  141.0276  143.3422 LP  0  0  0  0  0  0  0  0  0  0  0  0  # atno 17320 bound_to 7965
  144.8768  139.4959  143.6742 LP  0  0  0  0  0  0  0  0  0  0  0  0  # atno 17321 bound_to 7965
  140.7653  143.5694  150.9012 LP  0  0  0  0  0  0  0  0  0  0  0  0  # atno 17342 bound_to 10162
  139.9366  143.6431  152.3064 LP  0  0  0  0  0  0  0  0  0  0  0  0  # atno 17343 bound_to 10162
  156.1718  130.6442  151.0846 LP  0  0  0  0  0  0  0  0  0  0  0  0  # atno 17370 bound_to 10713
  157.6967  131.0791  150.6946 LP  0  0  0  0  0  0  0  0  0  0  0  0  # atno 17371 bound_to 10713
  140.9634  134.1626  157.4636 LP  0  0  0  0  0  0  0  0  0  0  0  0  # atno 17394 bound_to 11000
  139.8766  134.9953  156.5736 LP  0  0  0  0  0  0  0  0  0  0  0  0  # atno 17395 bound_to 11000

$$$$
