AV-unprocessed.smi:891|AV-procd|sdf|4063|dock2
  -GOLD-   22720 1553D 1   1.00000     0.00000
 Structure written by MMmdl.
 38 38  0  0  0  0  0  0  0  0  1 V2000
  154.2586  140.7331  160.8146 C   0  0  0  0  0  0  0  0  0  0  0  0
  153.3340  141.8253  160.3623 C   0  0  0  0  0  0  0  0  0  0  0  0
  152.9105  141.8650  159.1083 N   0  0  0  0  0  0  0  0  0  0  0  0
  152.1197  142.9661  159.0260 N   0  0  0  0  0  0  0  0  0  0  0  0
  151.5480  143.3207  157.7338 C   0  0  0  0  0  0  0  0  0  0  0  0
  150.9512  142.0816  157.0654 C   0  0  0  0  0  0  0  0  0  0  0  0
  151.3142  140.9577  157.4104 O   0  0  0  0  0  0  0  0  0  0  0  0
  150.0816  142.3126  156.0703 N   0  0  0  0  0  0  0  0  0  0  0  0
  149.6300  141.3322  155.0893 C   0  0  0  0  0  0  0  0  0  0  0  0
  148.0932  141.3739  154.9324 C   0  0  2  0  0  0  0  0  0  0  0  0
  147.4184  140.9587  156.2509 C   0  0  0  0  0  0  0  0  0  0  0  0
  147.5944  140.5200  153.7404 C   0  0  0  0  0  0  0  0  0  0  0  0
  147.8099  139.0091  153.9178 C   0  0  0  0  0  0  0  0  0  0  0  0
  147.8847  138.3895  152.6518 O   0  0  0  0  0  0  0  0  0  0  0  0
  152.0206  143.6275  160.2424 C   0  0  0  0  0  0  0  0  0  0  0  0
  151.2222  144.8737  160.4511 C   0  0  0  0  0  0  0  0  0  0  0  0
  152.7979  142.9099  161.1021 C   0  0  0  0  0  0  0  0  0  0  0  0
  153.0914  143.2626  162.7659 Cl  0  0  0  0  0  0  0  0  0  0  0  0
  153.7063  139.9396  161.3177 H   0  0  0  0  0  0  0  0  0  0  0  0
  155.0026  141.1158  161.5133 H   0  0  0  0  0  0  0  0  0  0  0  0
  154.7938  140.2874  159.9756 H   0  0  0  0  0  0  0  0  0  0  0  0
  150.7761  144.0785  157.8765 H   0  0  0  0  0  0  0  0  0  0  0  0
  152.3160  143.7631  157.0990 H   0  0  0  0  0  0  0  0  0  0  0  0
  149.8298  143.2731  155.8884 H   0  0  0  0  0  0  0  0  0  0  0  0
  150.1100  141.4803  154.1205 H   0  0  0  0  0  0  0  0  0  0  0  0
  149.9428  140.3480  155.4397 H   0  0  0  0  0  0  0  0  0  0  0  0
  147.8186  142.4116  154.7370 H   0  0  0  0  0  0  0  0  0  0  0  0
  147.6255  139.9151  156.4896 H   0  0  0  0  0  0  0  0  0  0  0  0
  146.3367  141.0831  156.2077 H   0  0  0  0  0  0  0  0  0  0  0  0
  147.7768  141.5656  157.0827 H   0  0  0  0  0  0  0  0  0  0  0  0
  146.5262  140.6739  153.5948 H   0  0  0  0  0  0  0  0  0  0  0  0
  148.0702  140.8596  152.8193 H   0  0  0  0  0  0  0  0  0  0  0  0
  148.7291  138.8005  154.4646 H   0  0  0  0  0  0  0  0  0  0  0  0
  146.9846  138.5661  154.4761 H   0  0  0  0  0  0  0  0  0  0  0  0
  148.6844  138.6634  152.2291 H   0  0  0  0  0  0  0  0  0  0  0  0
  151.0902  145.0786  161.5133 H   0  0  0  0  0  0  0  0  0  0  0  0
  150.2309  144.7877  160.0073 H   0  0  0  0  0  0  0  0  0  0  0  0
  151.7233  145.7339  160.0081 H   0  0  0  0  0  0  0  0  0  0  0  0
  1  2  1  0  0  0  0
  1 19  1  0  0  0  0
  1 20  1  0  0  0  0
  1 21  1  0  0  0  0
  2 17  1  0  0  0  0
  2  3  2  0  0  0  0
  3  4  1  0  0  0  0
  4  5  1  0  0  0  0
  4 15  1  0  0  0  0
  5  6  1  0  0  0  0
  5 22  1  0  0  0  0
  5 23  1  0  0  0  0
  6  7  2  0  0  0  0
  6  8  1  0  0  0  0
  8  9  1  0  0  0  0
  8 24  1  0  0  0  0
  9 10  1  0  0  0  0
  9 25  1  0  0  0  0
  9 26  1  0  0  0  0
 10 11  1  0  0  0  0
 10 12  1  0  0  0  0
 10 27  1  0  0  0  0
 11 28  1  0  0  0  0
 11 29  1  0  0  0  0
 11 30  1  0  0  0  0
 12 13  1  0  0  0  0
 12 31  1  0  0  0  0
 12 32  1  0  0  0  0
 13 14  1  0  0  0  0
 13 33  1  0  0  0  0
 13 34  1  0  0  0  0
 14 35  1  0  0  0  0
 15 16  1  0  0  0  0
 15 17  2  0  0  0  0
 16 36  1  0  0  0  0
 16 37  1  0  0  0  0
 16 38  1  0  0  0  0
 17 18  1  0  0  0  0
M  END
> <s_m_source_file>
AV-unprocessed.smi

> <i_m_source_file_index>
891

> <i_lp_mmshare_version>
43012

> <i_f3d_flags>
0

> <s_epik_input>
W0NIM11jMW5uKGMoW0NIM10pYzFDbClbQ0gyXUMoPU8pW05IXVtDSDJdW0NASF0oW0NIM10pW0NIMl1bQ0gyXVtPSF0=

> <s_epik_cmdline>
J2VwaWtfcHl0aG9uJywgJy1waCcsICc3LjAnLCAnLXRuJywgJzgnLCAnLW1hJywgJzIwMCcsICctbWV0YWxfYmluZGluZycsICctaW1hZScsICc8aW5maWxlLm1hZT4nLCAnLW9tYWUnLCAnPG91dGZpbGUubWFlPic=

> <r_lp_tautomer_probability>
1

> <r_epik_Ionization_Penalty>
4.9564e-06

> <r_epik_Ionization_Penalty_Charging>
0

> <r_epik_Ionization_Penalty_Neutral>
4.9564e-06

> <r_epik_State_Penalty>
-0

> <r_epik_Charging_Adjusted_Penalty>
0

> <i_epik_Tot_Q>
0

> <i_epik_Tot_abs_Q>
0

> <r_epik_Metal_State_Penalty>
-0

> <b_epik_Metal_Only>
0

> <s_lp_Force_Field>
OPLS_2005

> <r_lp_Energy>
6.31297

> <b_lp_Chiralities_Consistent>
1

> <s_lp_Variant>
AV-unprocessed.smi:891-1

> <Gold.Version>
5.8.1

> <Gold.Id.Protein>
6NUR|6NUR_protein|mol2

> <Gold.PLP.Fitness>
50.7121

> <Gold.PLP.PLP>
-46.0134

> <Gold.PLP.part.hbond>
-2.9983

> <Gold.PLP.part.metal>
0.0000

> <Gold.PLP.part.buried>
-5.0833

> <Gold.PLP.part.nonpolar>
-37.7417

> <Gold.PLP.part.repulsive>
0.1608

> <Gold.PLP.ligand.clash>
0.0000

> <Gold.PLP.ligand.torsion>
0.7015

> <Gold.PLP.Chemscore.Hbond>
2.0000

> <Gold.PLP.Chemscore.CHOScore>
0.0000

> <Gold.PLP.Chemscore.Metal>
0.0000

> <Gold.Chemscore.Hbonds>
donor molecule, donor type, donor heavy atom, donor atom, acceptor molecule, acceptor atom, score
      L1  H     8    24       P1  8028  1.00
      L1  H    14    35       P1  7957  0.94

> <Gold.PLP.Chemscore.Internal.Correction>
0.1016

> <Gold.Rescore>
     Score         DG    S(hbond)    S(metal)    S(lipo)     H(rot)  DE(clash)    DE(int)     intcor
     15.18     -17.44       1.89        0.00     105.65       2.62       0.02       2.24       ----

> <Gold.Chemscore.Fitness>
15.1760

> <Gold.Chemscore.DG>
-17.4355

> <Gold.Chemscore.ZeroCoef>
-5.4800

> <Gold.Chemscore.Hbond>
1.8904

> <Gold.Chemscore.Metal>
0.0000

> <Gold.Chemscore.Lipo>
105.6457

> <Gold.Chemscore.Internal_Hbond>
0.0000

> <Gold.Chemscore.DEClash>
0.0215

> <Gold.Chemscore.DEInternal>
2.2379

> <Gold.Chemscore.Rot>
2.6247

> <Gold.Chemscore.Internal.Correction>
   9.000000E+99

> <Gold.Chemscore.Hbonds>
donor molecule, donor type, donor heavy atom, donor atom, acceptor molecule, acceptor atom, score
      L1  H     8    24       P1  8028  1.00
      L1  H    14    35       P1  7957  0.80

> <Gold.Chemscore.Hbond.Weighted>
-6.3141

> <Gold.Chemscore.Metal.Weighted>
-0.0000

> <Gold.Chemscore.Lipo.Weighted>
-12.3606

> <Gold.Chemscore.Internal_Hbond.Weighted>
0.0000

> <Gold.Chemscore.DEClash.Weighted>
0.0215

> <Gold.Chemscore.DEInternal.Weighted>
2.2379

> <Gold.Chemscore.Rot.Weighted>
6.7192

> <Gold.Chemscore.Internal.Correction.Weighted>
   9.000000E+99

> <Gold.Protein.RotatedTorsions>
[ 6907 6896 6895 6894 ] final  154.76 input  -60.11 | X-H torsion
[ 7974 7965 7964 7962 ] final  -48.44 input  175.53 | X-H torsion
[ 8008 7997 7996 7995 ] final   16.12 input   59.86 | X-H torsion
[ 10167 10162 10161 10158 ] final   24.11 input  -65.29 | X-H torsion
[ 10718 10713 10712 10709 ] final    9.22 input   66.30 | X-H torsion
[ 10763 10752 10751 10750 ] final   50.41 input  -60.55 | X-H torsion
[ 11005 11000 10999 10996 ] final   73.74 input  -57.11 | X-H torsion

> <Gold.Protein.ActiveResidues>
 VAL166  LYS551  ARG553  GLY616  TRP617  ASP618  TYR619  PRO620  LYS621  CYS622 
 ASP623  PHE694  ASN695  SER759  ASP760  ASP761  ALA762  ILE779  LEU786  VAL792 
 PHE793  MET794  SER795  GLU796  ALA797  LYS798  CYS799  TRP800  GLU811  SER814 

> <Gold.Protein.RotatedAtoms>
  152.0538  133.4031  159.4388 H   0  0  0  0  0  0  0  0  0  0  0  0  # atno 6907 bound_to 6896
  150.6869  134.3277  159.4823 H   0  0  0  0  0  0  0  0  0  0  0  0  # atno 6908 bound_to 6896
  152.1090  134.9287  160.0618 H   0  0  0  0  0  0  0  0  0  0  0  0  # atno 6909 bound_to 6896
  145.9511  140.7571  142.9504 H   0  0  0  0  0  0  0  0  0  0  0  0  # atno 7974 bound_to 7965
  154.8724  140.2960  155.5474 H   0  0  0  0  0  0  0  0  0  0  0  0  # atno 8008 bound_to 7997
  156.3021  140.2458  156.3647 H   0  0  0  0  0  0  0  0  0  0  0  0  # atno 8009 bound_to 7997
  154.8803  140.0398  157.1767 H   0  0  0  0  0  0  0  0  0  0  0  0  # atno 8010 bound_to 7997
  140.5214  143.9995  150.6419 H   0  0  0  0  0  0  0  0  0  0  0  0  # atno 10167 bound_to 10162
  156.9631  130.5940  149.5663 H   0  0  0  0  0  0  0  0  0  0  0  0  # atno 10718 bound_to 10713
  152.9785  135.5880  154.4248 H   0  0  0  0  0  0  0  0  0  0  0  0  # atno 10763 bound_to 10752
  154.3868  135.2767  155.2180 H   0  0  0  0  0  0  0  0  0  0  0  0  # atno 10764 bound_to 10752
  154.4070  135.6090  153.5985 H   0  0  0  0  0  0  0  0  0  0  0  0  # atno 10765 bound_to 10752
  139.9425  134.7373  156.1062 H   0  0  0  0  0  0  0  0  0  0  0  0  # atno 11005 bound_to 11000
  144.6796  140.2437  143.7340 LP  0  0  0  0  0  0  0  0  0  0  0  0  # atno 17320 bound_to 7965
  145.8169  139.2027  143.1960 LP  0  0  0  0  0  0  0  0  0  0  0  0  # atno 17321 bound_to 7965
  140.3345  143.3057  152.0652 LP  0  0  0  0  0  0  0  0  0  0  0  0  # atno 17342 bound_to 10162
  139.4925  144.6486  151.6725 LP  0  0  0  0  0  0  0  0  0  0  0  0  # atno 17343 bound_to 10162
  156.0314  130.5405  150.8543 LP  0  0  0  0  0  0  0  0  0  0  0  0  # atno 17370 bound_to 10713
  157.5644  131.0946  150.9511 LP  0  0  0  0  0  0  0  0  0  0  0  0  # atno 17371 bound_to 10713
  141.1065  133.6658  156.2875 LP  0  0  0  0  0  0  0  0  0  0  0  0  # atno 17394 bound_to 11000
  140.5916  134.5645  157.5500 LP  0  0  0  0  0  0  0  0  0  0  0  0  # atno 17395 bound_to 11000

$$$$
