AV-unprocessed.smi:168|AV-procd|sdf|1397|dock7
  -GOLD-   2262019143D 1   1.00000     0.00000
 Structure written by MMmdl.
 62 66  0  0  0  0  0  0  0  0  1 V2000
  147.8392  141.6343  157.6150 C   0  0  0  0  0  0  0  0  0  0  0  0
  146.9165  140.8452  156.6754 C   0  0  0  0  0  0  0  0  0  0  0  0
  145.6997  140.3147  157.4660 C   0  0  0  0  0  0  0  0  0  0  0  0
  147.7108  139.7975  155.8496 C   0  0  1  0  0  0  0  0  0  0  0  0
  146.9200  139.2871  154.7268 N   0  0  0  0  0  0  0  0  0  0  0  0
  146.8568  137.8626  154.5708 C   0  0  0  0  0  0  0  0  0  0  0  0
  147.5857  137.0773  155.4102 N   0  0  0  0  0  0  0  0  0  0  0  0
  147.5841  135.7464  155.3038 C   0  0  0  0  0  0  0  0  0  0  0  0
  146.9382  134.9839  154.4235 N   0  0  0  0  0  0  0  0  0  0  0  0
  146.2190  135.7475  153.5547 C   0  0  0  0  0  0  0  0  0  0  0  0
  146.1325  137.1713  153.5516 C   0  0  0  0  0  0  0  0  0  0  0  0
  145.3301  137.5792  152.4923 N   0  0  0  0  0  0  0  0  0  0  0  0
  144.9652  136.4714  151.9097 C   0  0  0  0  0  0  0  0  0  0  0  0
  145.4288  135.3200  152.5013 N   0  0  0  0  0  0  0  0  0  0  0  0
  145.2185  133.9775  152.0425 C   0  0  0  0  0  0  0  0  0  0  0  0
  145.8191  133.4921  150.7194 C   0  0  0  0  0  0  0  0  0  0  0  0
  144.5609  132.6383  150.4456 C   0  0  0  0  0  0  0  0  0  0  0  0
  143.9838  132.7603  149.0268 C   0  0  0  0  0  0  0  0  0  0  0  0
  142.7235  132.1285  148.9260 O   0  0  0  0  0  0  0  0  0  0  0  0
  144.6452  131.1306  150.7731 C   0  0  0  0  0  0  0  0  0  0  0  0
  145.2670  130.8614  152.0131 O   0  0  0  0  0  0  0  0  0  0  0  0
  143.8596  133.5279  151.4968 C   0  0  0  0  0  0  0  0  0  0  0  0
  147.7268  140.0143  153.7483 C   0  0  0  0  0  0  0  0  0  0  0  0
  148.8125  140.1729  154.8214 C   0  0  0  0  0  0  0  0  0  0  0  0
  149.9772  139.1657  154.6946 C   0  0  0  0  0  0  0  0  0  0  0  0
  150.9666  139.2276  155.8700 C   0  0  0  0  0  0  0  0  0  0  0  0
  151.5645  140.6312  156.0113 C   0  0  0  0  0  0  0  0  0  0  0  0
  150.4600  141.6902  156.0971 C   0  0  0  0  0  0  0  0  0  0  0  0
  149.4712  141.5644  154.9235 C   0  0  0  0  0  0  0  0  0  0  0  0
  148.2596  140.9904  158.3880 H   0  0  0  0  0  0  0  0  0  0  0  0
  147.2985  142.4392  158.1135 H   0  0  0  0  0  0  0  0  0  0  0  0
  148.6657  142.0879  157.0676 H   0  0  0  0  0  0  0  0  0  0  0  0
  146.5241  141.5822  155.9762 H   0  0  0  0  0  0  0  0  0  0  0  0
  146.0017  139.6203  158.2504 H   0  0  0  0  0  0  0  0  0  0  0  0
  144.9745  139.8063  156.8352 H   0  0  0  0  0  0  0  0  0  0  0  0
  145.1718  141.1351  157.9528 H   0  0  0  0  0  0  0  0  0  0  0  0
  148.1000  139.0066  156.4891 H   0  0  0  0  0  0  0  0  0  0  0  0
  148.1871  135.2182  156.0274 H   0  0  0  0  0  0  0  0  0  0  0  0
  144.3410  136.4666  151.0278 H   0  0  0  0  0  0  0  0  0  0  0  0
  145.5328  133.3338  152.8649 H   0  0  0  0  0  0  0  0  0  0  0  0
  145.9429  134.3010  149.9974 H   0  0  0  0  0  0  0  0  0  0  0  0
  146.7432  132.9235  150.8279 H   0  0  0  0  0  0  0  0  0  0  0  0
  143.8799  133.8047  148.7310 H   0  0  0  0  0  0  0  0  0  0  0  0
  144.6461  132.2976  148.2945 H   0  0  0  0  0  0  0  0  0  0  0  0
  142.0548  132.7955  148.8998 H   0  0  0  0  0  0  0  0  0  0  0  0
  143.6499  130.6861  150.7994 H   0  0  0  0  0  0  0  0  0  0  0  0
  145.2051  130.5933  150.0073 H   0  0  0  0  0  0  0  0  0  0  0  0
  146.1870  131.0638  151.9374 H   0  0  0  0  0  0  0  0  0  0  0  0
  143.2444  132.9886  152.2180 H   0  0  0  0  0  0  0  0  0  0  0  0
  143.3003  134.3532  151.0531 H   0  0  0  0  0  0  0  0  0  0  0  0
  148.0577  139.4673  152.8656 H   0  0  0  0  0  0  0  0  0  0  0  0
  147.2586  140.9565  153.4644 H   0  0  0  0  0  0  0  0  0  0  0  0
  149.5990  138.1465  154.6176 H   0  0  0  0  0  0  0  0  0  0  0  0
  150.5188  139.3403  153.7641 H   0  0  0  0  0  0  0  0  0  0  0  0
  150.4598  138.9488  156.7945 H   0  0  0  0  0  0  0  0  0  0  0  0
  151.7640  138.4987  155.7235 H   0  0  0  0  0  0  0  0  0  0  0  0
  152.2046  140.6817  156.8924 H   0  0  0  0  0  0  0  0  0  0  0  0
  152.2020  140.8417  155.1518 H   0  0  0  0  0  0  0  0  0  0  0  0
  149.9317  141.5849  157.0443 H   0  0  0  0  0  0  0  0  0  0  0  0
  150.9039  142.6861  156.1029 H   0  0  0  0  0  0  0  0  0  0  0  0
  149.9996  141.7868  153.9955 H   0  0  0  0  0  0  0  0  0  0  0  0
  148.7246  142.3497  155.0139 H   0  0  0  0  0  0  0  0  0  0  0  0
  1  2  1  0  0  0  0
  1 30  1  0  0  0  0
  1 31  1  0  0  0  0
  1 32  1  0  0  0  0
  2  3  1  0  0  0  0
  2  4  1  0  0  0  0
  2 33  1  0  0  0  0
  3 34  1  0  0  0  0
  3 35  1  0  0  0  0
  3 36  1  0  0  0  0
  4 24  1  0  0  0  0
  4  5  1  0  0  0  0
  4 37  1  0  0  0  0
  5  6  1  0  0  0  0
  5 23  1  0  0  0  0
  6 11  1  0  0  0  0
  6  7  2  0  0  0  0
  7  8  1  0  0  0  0
  8  9  2  0  0  0  0
  8 38  1  0  0  0  0
  9 10  1  0  0  0  0
 10 14  1  0  0  0  0
 10 11  2  0  0  0  0
 11 12  1  0  0  0  0
 12 13  2  0  0  0  0
 13 14  1  0  0  0  0
 13 39  1  0  0  0  0
 14 15  1  0  0  0  0
 15 22  1  0  0  0  0
 15 16  1  0  0  0  0
 15 40  1  0  0  0  0
 16 17  1  0  0  0  0
 16 41  1  0  0  0  0
 16 42  1  0  0  0  0
 17 18  1  0  0  0  0
 17 20  1  0  0  0  0
 17 22  1  0  0  0  0
 18 19  1  0  0  0  0
 18 43  1  0  0  0  0
 18 44  1  0  0  0  0
 19 45  1  0  0  0  0
 20 21  1  0  0  0  0
 20 46  1  0  0  0  0
 20 47  1  0  0  0  0
 21 48  1  0  0  0  0
 22 49  1  0  0  0  0
 22 50  1  0  0  0  0
 23 24  1  0  0  0  0
 23 51  1  0  0  0  0
 23 52  1  0  0  0  0
 24 29  1  0  0  0  0
 24 25  1  0  0  0  0
 25 26  1  0  0  0  0
 25 53  1  0  0  0  0
 25 54  1  0  0  0  0
 26 27  1  0  0  0  0
 26 55  1  0  0  0  0
 26 56  1  0  0  0  0
 27 28  1  0  0  0  0
 27 57  1  0  0  0  0
 27 58  1  0  0  0  0
 28 29  1  0  0  0  0
 28 59  1  0  0  0  0
 28 60  1  0  0  0  0
 29 61  1  0  0  0  0
 29 62  1  0  0  0  0
M  END
> <s_m_source_file>
AV-unprocessed.smi

> <i_m_source_file_index>
168

> <i_lp_mmshare_version>
43012

> <i_f3d_flags>
0

> <s_epik_input>
W0NIMl0xW0NIMl1bQ0gyXVtDSDJdW0NIMl1DMTJbQ0BIXShbQ0hdKFtDSDNdKVtDSDNdKU4oW0NIMl0yKWMobltjSF1uMyljKGMzNCluW2NIXW40W0NIXShbQ0gyXTUpW0NIMl1DNShbQ0gyXVtPSF0pW0NIMl1bT0hd

> <s_epik_cmdline>
J2VwaWtfcHl0aG9uJywgJy1waCcsICc3LjAnLCAnLXRuJywgJzgnLCAnLW1hJywgJzIwMCcsICctbWV0YWxfYmluZGluZycsICctaW1hZScsICc8aW5maWxlLm1hZT4nLCAnLW9tYWUnLCAnPG91dGZpbGUubWFlPic=

> <r_lp_tautomer_probability>
1

> <r_epik_Ionization_Penalty>
0.00324652

> <r_epik_Ionization_Penalty_Charging>
0

> <r_epik_Ionization_Penalty_Neutral>
0.00324652

> <r_epik_State_Penalty>
0.00223464

> <r_epik_Charging_Adjusted_Penalty>
0.00223464

> <i_epik_Tot_Q>
0

> <i_epik_Tot_abs_Q>
0

> <r_epik_Metal_State_Penalty>
-0

> <b_epik_Metal_Only>
0

> <s_lp_Force_Field>
OPLS_2005

> <r_lp_Energy>
69.202

> <b_lp_Chiralities_Consistent>
1

> <s_lp_Variant>
AV-unprocessed.smi:168-2

> <Gold.Version>
5.8.1

> <Gold.Id.Protein>
6NUR|6NUR_protein|mol2

> <Gold.PLP.Fitness>
49.0175

> <Gold.PLP.PLP>
-41.4116

> <Gold.PLP.part.hbond>
-3.0000

> <Gold.PLP.part.metal>
0.0000

> <Gold.PLP.part.buried>
-4.8688

> <Gold.PLP.part.nonpolar>
-33.5237

> <Gold.PLP.part.repulsive>
0.4772

> <Gold.PLP.ligand.clash>
0.0000

> <Gold.PLP.ligand.torsion>
0.7975

> <Gold.PLP.Chemscore.Hbond>
2.0000

> <Gold.PLP.Chemscore.CHOScore>
0.8076

> <Gold.PLP.Chemscore.Metal>
0.0000

> <Gold.Chemscore.Hbonds>
donor molecule, donor type, donor heavy atom, donor atom, acceptor molecule, acceptor atom, score
      L1  H    19    45       P1 10186  1.00
      P1  H 10785 10796       L1    19  0.96
      L1  C    13    39       P1 10171  0.82

> <Gold.PLP.Chemscore.Internal.Correction>
0.7783

> <Gold.Rescore>
     Score         DG    S(hbond)    S(metal)    S(lipo)     H(rot)  DE(clash)    DE(int)     intcor
     14.15     -15.15       1.64        0.00     104.08       3.12       0.15       0.84       ----

> <Gold.Chemscore.Fitness>
14.1542

> <Gold.Chemscore.DG>
-15.1454

> <Gold.Chemscore.ZeroCoef>
-5.4800

> <Gold.Chemscore.Hbond>
1.6380

> <Gold.Chemscore.Metal>
0.0000

> <Gold.Chemscore.Lipo>
104.0751

> <Gold.Chemscore.Internal_Hbond>
0.0000

> <Gold.Chemscore.DEClash>
0.1531

> <Gold.Chemscore.DEInternal>
0.8381

> <Gold.Chemscore.Rot>
3.1181

> <Gold.Chemscore.Internal.Correction>
   9.000000E+99

> <Gold.Chemscore.Hbonds>
donor molecule, donor type, donor heavy atom, donor atom, acceptor molecule, acceptor atom, score
      L1  H    19    45       P1 10186  0.94
      P1  H 10785 10796       L1    19  0.40

> <Gold.Chemscore.Hbond.Weighted>
-5.4709

> <Gold.Chemscore.Metal.Weighted>
-0.0000

> <Gold.Chemscore.Lipo.Weighted>
-12.1768

> <Gold.Chemscore.Internal_Hbond.Weighted>
0.0000

> <Gold.Chemscore.DEClash.Weighted>
0.1531

> <Gold.Chemscore.DEInternal.Weighted>
0.8381

> <Gold.Chemscore.Rot.Weighted>
7.9823

> <Gold.Chemscore.Internal.Correction.Weighted>
   9.000000E+99

> <Gold.Protein.RotatedTorsions>
[ 6907 6896 6895 6894 ] final   56.23 input  -60.11 | X-H torsion
[ 7974 7965 7964 7962 ] final  135.53 input  175.53 | X-H torsion
[ 8008 7997 7996 7995 ] final   36.06 input   59.86 | X-H torsion
[ 10167 10162 10161 10158 ] final   34.16 input  -65.29 | X-H torsion
[ 10718 10713 10712 10709 ] final  -11.97 input   66.30 | X-H torsion
[ 10763 10752 10751 10750 ] final  125.49 input  -60.55 | X-H torsion
[ 11005 11000 10999 10996 ] final  -54.12 input  -57.11 | X-H torsion

> <Gold.Protein.ActiveResidues>
 VAL166  LYS551  ARG553  GLY616  TRP617  ASP618  TYR619  PRO620  LYS621  CYS622 
 ASP623  PHE694  ASN695  SER759  ASP760  ASP761  ALA762  ILE779  LEU786  VAL792 
 PHE793  MET794  SER795  GLU796  ALA797  LYS798  CYS799  TRP800  GLU811  SER814 

> <Gold.Protein.RotatedAtoms>
  152.3616  134.6864  160.0205 H   0  0  0  0  0  0  0  0  0  0  0  0  # atno 6907 bound_to 6896
  151.7185  133.3308  159.3317 H   0  0  0  0  0  0  0  0  0  0  0  0  # atno 6908 bound_to 6896
  150.7609  134.6403  159.6278 H   0  0  0  0  0  0  0  0  0  0  0  0  # atno 6909 bound_to 6896
  144.9654  139.4664  143.5459 H   0  0  0  0  0  0  0  0  0  0  0  0  # atno 7974 bound_to 7965
  155.1813  140.3300  155.4374 H   0  0  0  0  0  0  0  0  0  0  0  0  # atno 8008 bound_to 7997
  156.2476  140.1926  156.6861 H   0  0  0  0  0  0  0  0  0  0  0  0  # atno 8009 bound_to 7997
  154.6269  140.0588  156.9671 H   0  0  0  0  0  0  0  0  0  0  0  0  # atno 8010 bound_to 7997
  140.4341  144.1282  150.6163 H   0  0  0  0  0  0  0  0  0  0  0  0  # atno 10167 bound_to 10162
  156.6513  130.4955  149.6061 H   0  0  0  0  0  0  0  0  0  0  0  0  # atno 10718 bound_to 10713
  153.6781  135.3319  155.3171 H   0  0  0  0  0  0  0  0  0  0  0  0  # atno 10763 bound_to 10752
  154.8473  135.4402  154.1635 H   0  0  0  0  0  0  0  0  0  0  0  0  # atno 10764 bound_to 10752
  153.2644  135.6994  153.7621 H   0  0  0  0  0  0  0  0  0  0  0  0  # atno 10765 bound_to 10752
  141.1010  133.6618  156.4274 H   0  0  0  0  0  0  0  0  0  0  0  0  # atno 11005 bound_to 11000
  146.3366  139.8831  142.8821 LP  0  0  0  0  0  0  0  0  0  0  0  0  # atno 17320 bound_to 7965
  145.2638  141.0086  143.3811 LP  0  0  0  0  0  0  0  0  0  0  0  0  # atno 17321 bound_to 7965
  140.4394  143.2533  151.9493 LP  0  0  0  0  0  0  0  0  0  0  0  0  # atno 17342 bound_to 10162
  139.4786  144.5669  151.8150 LP  0  0  0  0  0  0  0  0  0  0  0  0  # atno 17343 bound_to 10162
  156.2082  130.6662  151.1241 LP  0  0  0  0  0  0  0  0  0  0  0  0  # atno 17370 bound_to 10713
  157.7140  131.0720  150.6397 LP  0  0  0  0  0  0  0  0  0  0  0  0  # atno 17371 bound_to 10713
  140.5021  134.6475  157.5252 LP  0  0  0  0  0  0  0  0  0  0  0  0  # atno 17394 bound_to 11000
  139.9862  134.7058  155.9770 LP  0  0  0  0  0  0  0  0  0  0  0  0  # atno 17395 bound_to 11000

$$$$
