AV-unprocessed.smi:928|AV-procd|sdf|4192|dock6
  -GOLD-   22720 2 93D 1   1.00000     0.00000
 Structure written by MMmdl.
 43 44  0  0  0  0  0  0  0  0  1 V2000
  140.2761  138.2472  153.6192 C   0  0  0  0  0  0  0  0  0  0  0  0
  140.5105  136.7731  153.9713 C   0  0  0  0  0  0  0  0  0  0  0  0
  141.8035  136.2492  153.4412 C   0  0  0  0  0  0  0  0  0  0  0  0
  142.2457  134.9491  153.4402 C   0  0  0  0  0  0  0  0  0  0  0  0
  143.4808  134.7724  152.8123 N   0  0  0  0  0  0  0  0  0  0  0  0
  143.9804  135.9171  152.3410 C   0  0  0  0  0  0  0  0  0  0  0  0
  145.2230  135.9953  151.5126 C   0  0  0  0  0  0  0  0  0  0  0  0
  145.6299  137.4349  151.1299 C   0  0  0  0  0  0  0  0  0  0  0  0
  146.9485  137.8001  151.6457 N   0  0  0  0  0  0  0  0  0  0  0  0
  147.1716  138.5628  152.7265 C   0  0  0  0  0  0  0  0  0  0  0  0
  146.2885  139.1413  153.3598 O   0  0  0  0  0  0  0  0  0  0  0  0
  148.4661  138.5703  153.0711 N   0  0  0  0  0  0  0  0  0  0  0  0
  149.0018  139.1691  154.2915 C   0  0  1  0  0  0  0  0  0  0  0  0
  150.4921  138.8168  154.4566 C   0  0  0  0  0  0  0  0  0  0  0  0
  151.0572  139.4140  155.7551 C   0  0  0  0  0  0  0  0  0  0  0  0
  150.8451  140.9356  155.8073 C   0  0  0  0  0  0  0  0  0  0  0  0
  149.3616  141.3068  155.6238 C   0  0  0  0  0  0  0  0  0  0  0  0
  148.7605  140.6968  154.3420 C   0  0  1  0  0  0  0  0  0  0  0  0
  149.3301  141.3338  153.2134 O   0  0  0  0  0  0  0  0  0  0  0  0
  142.9641  137.3123  152.6903 S   0  0  0  0  0  0  0  0  0  0  0  0
  139.3194  138.5933  154.0105 H   0  0  0  0  0  0  0  0  0  0  0  0
  140.2689  138.3968  152.5391 H   0  0  0  0  0  0  0  0  0  0  0  0
  141.0564  138.8831  154.0382 H   0  0  0  0  0  0  0  0  0  0  0  0
  140.4868  136.6511  155.0545 H   0  0  0  0  0  0  0  0  0  0  0  0
  139.6867  136.1747  153.5810 H   0  0  0  0  0  0  0  0  0  0  0  0
  141.7351  134.0855  153.8396 H   0  0  0  0  0  0  0  0  0  0  0  0
  146.0332  135.5218  152.0681 H   0  0  0  0  0  0  0  0  0  0  0  0
  145.0811  135.3992  150.6105 H   0  0  0  0  0  0  0  0  0  0  0  0
  145.6470  137.5339  150.0445 H   0  0  0  0  0  0  0  0  0  0  0  0
  144.8758  138.1393  151.4853 H   0  0  0  0  0  0  0  0  0  0  0  0
  147.7449  137.3740  151.1949 H   0  0  0  0  0  0  0  0  0  0  0  0
  149.1181  138.0651  152.4892 H   0  0  0  0  0  0  0  0  0  0  0  0
  148.4772  138.7212  155.1383 H   0  0  0  0  0  0  0  0  0  0  0  0
  150.6206  137.7337  154.4672 H   0  0  0  0  0  0  0  0  0  0  0  0
  151.0634  139.1869  153.6040 H   0  0  0  0  0  0  0  0  0  0  0  0
  150.5709  138.9472  156.6129 H   0  0  0  0  0  0  0  0  0  0  0  0
  152.1195  139.1835  155.8388 H   0  0  0  0  0  0  0  0  0  0  0  0
  151.2094  141.3283  156.7570 H   0  0  0  0  0  0  0  0  0  0  0  0
  151.4423  141.4134  155.0297 H   0  0  0  0  0  0  0  0  0  0  0  0
  148.7984  140.9464  156.4856 H   0  0  0  0  0  0  0  0  0  0  0  0
  149.2443  142.3912  155.6174 H   0  0  0  0  0  0  0  0  0  0  0  0
  147.6892  140.9007  154.3242 H   0  0  0  0  0  0  0  0  0  0  0  0
  149.6146  140.6660  152.6082 H   0  0  0  0  0  0  0  0  0  0  0  0
  1  2  1  0  0  0  0
  1 21  1  0  0  0  0
  1 22  1  0  0  0  0
  1 23  1  0  0  0  0
  2  3  1  0  0  0  0
  2 24  1  0  0  0  0
  2 25  1  0  0  0  0
  3 20  1  0  0  0  0
  3  4  2  0  0  0  0
  4  5  1  0  0  0  0
  4 26  1  0  0  0  0
  5  6  2  0  0  0  0
  6  7  1  0  0  0  0
  6 20  1  0  0  0  0
  7  8  1  0  0  0  0
  7 27  1  0  0  0  0
  7 28  1  0  0  0  0
  8  9  1  0  0  0  0
  8 29  1  0  0  0  0
  8 30  1  0  0  0  0
  9 10  1  0  0  0  0
  9 31  1  0  0  0  0
 10 11  2  0  0  0  0
 10 12  1  0  0  0  0
 12 13  1  0  0  0  0
 12 32  1  0  0  0  0
 13 18  1  0  0  0  0
 13 14  1  0  0  0  0
 13 33  1  0  0  0  0
 14 15  1  0  0  0  0
 14 34  1  0  0  0  0
 14 35  1  0  0  0  0
 15 16  1  0  0  0  0
 15 36  1  0  0  0  0
 15 37  1  0  0  0  0
 16 17  1  0  0  0  0
 16 38  1  0  0  0  0
 16 39  1  0  0  0  0
 17 18  1  0  0  0  0
 17 40  1  0  0  0  0
 17 41  1  0  0  0  0
 18 19  1  0  0  0  0
 18 42  1  0  0  0  0
 19 43  1  0  0  0  0
M  END
> <s_m_source_file>
AV-unprocessed.smi

> <i_m_source_file_index>
928

> <i_lp_mmshare_version>
43012

> <i_f3d_flags>
0

> <s_epik_input>
W0NIM11bQ0gyXWMxW2NIXW5jKHMxKVtDSDJdW0NIMl1bTkhdQyg9TylbTkhdW0NAQEhdMltDSDJdW0NIMl1bQ0gyXVtDSDJdW0NASF0yW09IXQ==

> <s_epik_cmdline>
J2VwaWtfcHl0aG9uJywgJy1waCcsICc3LjAnLCAnLXRuJywgJzgnLCAnLW1hJywgJzIwMCcsICctbWV0YWxfYmluZGluZycsICctaW1hZScsICc8aW5maWxlLm1hZT4nLCAnLW9tYWUnLCAnPG91dGZpbGUubWFlPic=

> <r_epik_Ionization_Penalty>
0.000957396

> <r_epik_Ionization_Penalty_Charging>
0

> <r_epik_Ionization_Penalty_Neutral>
0.000957396

> <r_epik_State_Penalty>
0.000586538

> <r_epik_Charging_Adjusted_Penalty>
0.000586538

> <i_epik_Tot_Q>
0

> <i_epik_Tot_abs_Q>
0

> <r_epik_Metal_State_Penalty>
-0

> <b_epik_Metal_Only>
0

> <s_lp_Force_Field>
OPLS_2005

> <r_lp_Energy>
0.733769

> <b_lp_Chiralities_Consistent>
1

> <s_lp_Variant>
AV-unprocessed.smi:928-2

> <Gold.Version>
5.8.1

> <Gold.Id.Protein>
6NUR|6NUR_protein|mol2

> <Gold.PLP.Fitness>
47.5024

> <Gold.PLP.PLP>
-38.1624

> <Gold.PLP.part.hbond>
-5.5737

> <Gold.PLP.part.metal>
0.0000

> <Gold.PLP.part.buried>
0.0569

> <Gold.PLP.part.nonpolar>
-34.5276

> <Gold.PLP.part.repulsive>
1.2291

> <Gold.PLP.ligand.clash>
0.0000

> <Gold.PLP.ligand.torsion>
0.6215

> <Gold.PLP.Chemscore.Hbond>
2.5195

> <Gold.PLP.Chemscore.CHOScore>
0.9826

> <Gold.PLP.Chemscore.Metal>
0.0000

> <Gold.Chemscore.Hbonds>
donor molecule, donor type, donor heavy atom, donor atom, acceptor molecule, acceptor atom, score
      L1  H     9    31       P1  7948  0.62
      L1  H    12    32       P1  7948  0.58
      L1  H    19    43       P1  7957  0.99
      P1  H  8011  8017       L1    19  0.51
      L1  C     4    26       P1 10957  0.70

> <Gold.PLP.Chemscore.Internal.Correction>
0.0767

> <Gold.Rescore>
     Score         DG    S(hbond)    S(metal)    S(lipo)     H(rot)  DE(clash)    DE(int)     intcor
     13.27     -16.25       1.96        0.00      84.29       2.21       2.37       0.60       ----

> <Gold.Chemscore.Fitness>
13.2693

> <Gold.Chemscore.DG>
-16.2473

> <Gold.Chemscore.ZeroCoef>
-5.4800

> <Gold.Chemscore.Hbond>
1.9639

> <Gold.Chemscore.Metal>
0.0000

> <Gold.Chemscore.Lipo>
84.2852

> <Gold.Chemscore.Internal_Hbond>
0.0000

> <Gold.Chemscore.DEClash>
2.3740

> <Gold.Chemscore.DEInternal>
0.6040

> <Gold.Chemscore.Rot>
2.2084

> <Gold.Chemscore.Internal.Correction>
   9.000000E+99

> <Gold.Chemscore.Hbonds>
donor molecule, donor type, donor heavy atom, donor atom, acceptor molecule, acceptor atom, score
      L1  H     9    31       P1  7948  0.64
      L1  H    12    32       P1  7948  0.55
      L1  H    19    43       P1  7957  0.91
      P1  H  8011  8017       L1    19  0.03

> <Gold.Chemscore.Hbond.Weighted>
-6.5595

> <Gold.Chemscore.Metal.Weighted>
-0.0000

> <Gold.Chemscore.Lipo.Weighted>
-9.8614

> <Gold.Chemscore.Internal_Hbond.Weighted>
0.0000

> <Gold.Chemscore.DEClash.Weighted>
2.3740

> <Gold.Chemscore.DEInternal.Weighted>
0.6040

> <Gold.Chemscore.Rot.Weighted>
5.6535

> <Gold.Chemscore.Internal.Correction.Weighted>
   9.000000E+99

> <Gold.Protein.RotatedTorsions>
[ 6907 6896 6895 6894 ] final   57.88 input  -60.11 | X-H torsion
[ 7974 7965 7964 7962 ] final  -66.57 input  175.53 | X-H torsion
[ 8008 7997 7996 7995 ] final   68.62 input   59.86 | X-H torsion
[ 10167 10162 10161 10158 ] final  -54.00 input  -65.29 | X-H torsion
[ 10718 10713 10712 10709 ] final  131.32 input   66.30 | X-H torsion
[ 10763 10752 10751 10750 ] final   35.65 input  -60.55 | X-H torsion
[ 11005 11000 10999 10996 ] final   43.64 input  -57.11 | X-H torsion

> <Gold.Protein.ActiveResidues>
 VAL166  LYS551  ARG553  GLY616  TRP617  ASP618  TYR619  PRO620  LYS621  CYS622 
 ASP623  PHE694  ASN695  SER759  ASP760  ASP761  ALA762  ILE779  LEU786  VAL792 
 PHE793  MET794  SER795  GLU796  ALA797  LYS798  CYS799  TRP800  GLU811  SER814 

> <Gold.Protein.RotatedAtoms>
  152.3773  134.6644  160.0155 H   0  0  0  0  0  0  0  0  0  0  0  0  # atno 6907 bound_to 6896
  151.6918  133.3305  159.3253 H   0  0  0  0  0  0  0  0  0  0  0  0  # atno 6908 bound_to 6896
  150.7719  134.6627  159.6393 H   0  0  0  0  0  0  0  0  0  0  0  0  # atno 6909 bound_to 6896
  145.7401  140.8957  143.0534 H   0  0  0  0  0  0  0  0  0  0  0  0  # atno 7974 bound_to 7965
  155.7112  140.3494  155.4974 H   0  0  0  0  0  0  0  0  0  0  0  0  # atno 8008 bound_to 7997
  155.9354  140.1092  157.1120 H   0  0  0  0  0  0  0  0  0  0  0  0  # atno 8009 bound_to 7997
  154.4093  140.1223  156.4844 H   0  0  0  0  0  0  0  0  0  0  0  0  # atno 8010 bound_to 7997
  140.6454  143.2532  151.4873 H   0  0  0  0  0  0  0  0  0  0  0  0  # atno 10167 bound_to 10162
  157.4978  131.1093  150.9468 H   0  0  0  0  0  0  0  0  0  0  0  0  # atno 10718 bound_to 10713
  153.0110  135.6327  154.1861 H   0  0  0  0  0  0  0  0  0  0  0  0  # atno 10763 bound_to 10752
  154.1603  135.2824  155.3112 H   0  0  0  0  0  0  0  0  0  0  0  0  # atno 10764 bound_to 10752
  154.5987  135.5594  153.7412 H   0  0  0  0  0  0  0  0  0  0  0  0  # atno 10765 bound_to 10752
  140.1626  134.4323  155.8308 H   0  0  0  0  0  0  0  0  0  0  0  0  # atno 11005 bound_to 11000
  144.6872  139.9449  143.7476 LP  0  0  0  0  0  0  0  0  0  0  0  0  # atno 17320 bound_to 7965
  146.0456  139.3462  143.0671 LP  0  0  0  0  0  0  0  0  0  0  0  0  # atno 17321 bound_to 7965
  139.5665  144.2030  152.1772 LP  0  0  0  0  0  0  0  0  0  0  0  0  # atno 17342 bound_to 10162
  140.1314  144.5285  150.6800 LP  0  0  0  0  0  0  0  0  0  0  0  0  # atno 17343 bound_to 10162
  157.0149  130.5651  149.5325 LP  0  0  0  0  0  0  0  0  0  0  0  0  # atno 17370 bound_to 10713
  156.0211  130.5306  150.8278 LP  0  0  0  0  0  0  0  0  0  0  0  0  # atno 17371 bound_to 10713
  141.2211  133.6920  156.7620 LP  0  0  0  0  0  0  0  0  0  0  0  0  # atno 17394 bound_to 11000
  140.2472  134.8568  157.3632 LP  0  0  0  0  0  0  0  0  0  0  0  0  # atno 17395 bound_to 11000

$$$$
