AV-unprocessed.smi:1231|AV-procd|sdf|5164|dock2
  -GOLD-   22720 4233D 1   1.00000     0.00000
 Structure written by MMmdl.
 43 44  0  0  0  0  0  0  0  0  2 V2000
  149.1227  141.3826  154.8592 C   0  0  0  0  0  0  0  0  0  0  0  0
  149.7101  139.9759  155.0178 C   0  0  1  0  0  0  0  0  0  0  0  0
  149.0693  138.9673  154.0421 C   0  0  0  0  0  0  0  0  0  0  0  0
  149.7084  137.6329  154.1490 N   0  3  2  0  0  0  0  0  0  0  0  0
  149.2695  136.8587  155.3401 C   0  0  0  0  0  0  0  0  0  0  0  0
  149.6849  135.3766  155.2650 C   0  0  0  0  0  0  0  0  0  0  0  0
  149.0487  134.7004  154.1402 N   0  0  0  0  0  0  0  0  0  0  0  0
  148.5818  133.4434  154.1715 C   0  0  0  0  0  0  0  0  0  0  0  0
  148.6385  132.7284  155.1726 O   0  0  0  0  0  0  0  0  0  0  0  0
  148.0566  133.0858  152.9864 N   0  0  0  0  0  0  0  0  0  0  0  0
  147.4521  131.8500  152.6327 C   0  0  0  0  0  0  0  0  0  0  0  0
  146.6066  131.8990  151.5014 C   0  0  0  0  0  0  0  0  0  0  0  0
  145.9592  130.7251  151.0692 C   0  0  0  0  0  0  0  0  0  0  0  0
  146.1737  129.5315  151.7810 C   0  0  0  0  0  0  0  0  0  0  0  0
  147.0290  129.5698  152.8975 C   0  0  0  0  0  0  0  0  0  0  0  0
  147.6503  130.6936  153.3137 N   0  0  0  0  0  0  0  0  0  0  0  0
  151.1809  137.7528  153.9922 C   0  0  0  0  0  0  0  0  0  0  0  0
  151.7738  138.8065  154.9524 C   0  0  1  0  0  0  0  0  0  0  0  0
  153.2702  139.0268  154.7072 C   0  0  0  0  0  0  0  0  0  0  0  0
  151.1070  140.0486  154.7537 O   0  0  0  0  0  0  0  0  0  0  0  0
  148.0503  141.3850  155.0561 H   0  0  0  0  0  0  0  0  0  0  0  0
  149.2788  141.7650  153.8500 H   0  0  0  0  0  0  0  0  0  0  0  0
  149.5890  142.0805  155.5552 H   0  0  0  0  0  0  0  0  0  0  0  0
  149.5543  139.6534  156.0486 H   0  0  0  0  0  0  0  0  0  0  0  0
  147.9942  138.8910  154.2096 H   0  0  0  0  0  0  0  0  0  0  0  0
  149.1932  139.3231  153.0183 H   0  0  0  0  0  0  0  0  0  0  0  0
  149.6439  137.3230  156.2522 H   0  0  0  0  0  0  0  0  0  0  0  0
  148.1814  136.8960  155.4073 H   0  0  0  0  0  0  0  0  0  0  0  0
  150.7654  135.2988  155.1415 H   0  0  0  0  0  0  0  0  0  0  0  0
  149.4393  134.8420  156.1828 H   0  0  0  0  0  0  0  0  0  0  0  0
  148.9645  135.2214  153.2793 H   0  0  0  0  0  0  0  0  0  0  0  0
  148.0923  133.7763  152.2511 H   0  0  0  0  0  0  0  0  0  0  0  0
  146.4534  132.8244  150.9651 H   0  0  0  0  0  0  0  0  0  0  0  0
  145.3093  130.7416  150.2067 H   0  0  0  0  0  0  0  0  0  0  0  0
  145.6956  128.6111  151.4800 H   0  0  0  0  0  0  0  0  0  0  0  0
  147.2193  128.6756  153.4726 H   0  0  0  0  0  0  0  0  0  0  0  0
  151.6719  136.7901  154.1282 H   0  0  0  0  0  0  0  0  0  0  0  0
  151.3832  138.0506  152.9624 H   0  0  0  0  0  0  0  0  0  0  0  0
  151.6441  138.4919  155.9888 H   0  0  0  0  0  0  0  0  0  0  0  0
  153.8323  138.1042  154.8549 H   0  0  0  0  0  0  0  0  0  0  0  0
  153.6710  139.7731  155.3937 H   0  0  0  0  0  0  0  0  0  0  0  0
  153.4580  139.3743  153.6908 H   0  0  0  0  0  0  0  0  0  0  0  0
  149.3756  137.1044  153.3551 H   0  0  0  0  0  0  0  0  0  0  0  0
  1  2  1  0  0  0  0
  1 21  1  0  0  0  0
  1 22  1  0  0  0  0
  1 23  1  0  0  0  0
  2 20  1  0  0  0  0
  2  3  1  0  0  0  0
  2 24  1  0  0  0  0
  3  4  1  0  0  0  0
  3 25  1  0  0  0  0
  3 26  1  0  0  0  0
  4  5  1  0  0  0  0
  4 17  1  0  0  0  0
  4 43  1  0  0  0  0
  5  6  1  0  0  0  0
  5 27  1  0  0  0  0
  5 28  1  0  0  0  0
  6  7  1  0  0  0  0
  6 29  1  0  0  0  0
  6 30  1  0  0  0  0
  7  8  1  0  0  0  0
  7 31  1  0  0  0  0
  8  9  2  0  0  0  0
  8 10  1  0  0  0  0
 10 11  1  0  0  0  0
 10 32  1  0  0  0  0
 11 16  1  0  0  0  0
 11 12  2  0  0  0  0
 12 13  1  0  0  0  0
 12 33  1  0  0  0  0
 13 14  2  0  0  0  0
 13 34  1  0  0  0  0
 14 15  1  0  0  0  0
 14 35  1  0  0  0  0
 15 16  2  0  0  0  0
 15 36  1  0  0  0  0
 17 18  1  0  0  0  0
 17 37  1  0  0  0  0
 17 38  1  0  0  0  0
 18 19  1  0  0  0  0
 18 20  1  0  0  0  0
 18 39  1  0  0  0  0
 19 40  1  0  0  0  0
 19 41  1  0  0  0  0
 19 42  1  0  0  0  0
M  CHG  1   4   1
M  END
> <s_m_source_file>
AV-unprocessed.smi

> <i_m_source_file_index>
1231

> <i_lp_mmshare_version>
43012

> <i_f3d_flags>
0

> <s_epik_input>
W0NIM11bQ0BASF0xW0NIMl1OKFtDSDJdW0NASF0oTzEpW0NIM10pW0NIMl1bQ0gyXVtOSF1DKD1PKVtOSF1jMltjSF1bY0hdW2NIXVtjSF1uMg==

> <s_epik_cmdline>
J2VwaWtfcHl0aG9uJywgJy1waCcsICc3LjAnLCAnLXRuJywgJzgnLCAnLW1hJywgJzIwMCcsICctbWV0YWxfYmluZGluZycsICctaW1hZScsICc8aW5maWxlLm1hZT4nLCAnLW9tYWUnLCAnPG91dGZpbGUubWFlPic=

> <r_epik_Ionization_Penalty>
0.602565

> <r_epik_Ionization_Penalty_Charging>
0.602531

> <r_epik_Ionization_Penalty_Neutral>
3.43186e-05

> <r_epik_State_Penalty>
0.617039

> <r_epik_Charging_Adjusted_Penalty>
1.21957

> <i_epik_Tot_Q>
1

> <i_epik_Tot_abs_Q>
1

> <r_epik_Metal_State_Penalty>
0.617041

> <b_epik_Metal_Only>
0

> <s_lp_Force_Field>
OPLS_2005

> <r_lp_Energy>
17.2402

> <b_lp_Chiralities_Consistent>
1

> <s_lp_Variant>
AV-unprocessed.smi:1231-5

> <Gold.Version>
5.8.1

> <Gold.Id.Protein>
6NUR|6NUR_protein|mol2

> <Gold.PLP.Fitness>
47.7660

> <Gold.PLP.PLP>
-36.3161

> <Gold.PLP.part.hbond>
-3.0343

> <Gold.PLP.part.metal>
0.0000

> <Gold.PLP.part.buried>
-1.6806

> <Gold.PLP.part.nonpolar>
-31.7138

> <Gold.PLP.part.repulsive>
0.2194

> <Gold.PLP.ligand.clash>
0.0000

> <Gold.PLP.ligand.torsion>
0.2934

> <Gold.PLP.Chemscore.Hbond>
4.0000

> <Gold.PLP.Chemscore.CHOScore>
0.0000

> <Gold.PLP.Chemscore.Metal>
0.0000

> <Gold.Chemscore.Hbonds>
donor molecule, donor type, donor heavy atom, donor atom, acceptor molecule, acceptor atom, score
      L1  H     4    43       P1  7948  2.00
      L1  H     7    31       P1  7948  1.00
      P1  H  7989  7998       L1    20  1.00

> <Gold.PLP.Chemscore.Internal.Correction>
0.0368

> <Gold.Rescore>
     Score         DG    S(hbond)    S(metal)    S(lipo)     H(rot)  DE(clash)    DE(int)     intcor
     19.57     -21.44       2.84        0.00      89.35       1.55       0.29       1.59       ----

> <Gold.Chemscore.Fitness>
19.5703

> <Gold.Chemscore.DG>
-21.4440

> <Gold.Chemscore.ZeroCoef>
-5.4800

> <Gold.Chemscore.Hbond>
2.8412

> <Gold.Chemscore.Metal>
0.0000

> <Gold.Chemscore.Lipo>
89.3505

> <Gold.Chemscore.Internal_Hbond>
0.0000

> <Gold.Chemscore.DEClash>
0.2870

> <Gold.Chemscore.DEInternal>
1.5867

> <Gold.Chemscore.Rot>
1.5546

> <Gold.Chemscore.Internal.Correction>
   9.000000E+99

> <Gold.Chemscore.Hbonds>
donor molecule, donor type, donor heavy atom, donor atom, acceptor molecule, acceptor atom, score
      L1  H     4    43       P1  7948  0.94
      L1  H     7    31       P1  7948  0.45
      P1  H  7989  7998       L1    20  0.84

> <Gold.Chemscore.Hbond.Weighted>
-9.4897

> <Gold.Chemscore.Metal.Weighted>
-0.0000

> <Gold.Chemscore.Lipo.Weighted>
-10.4540

> <Gold.Chemscore.Internal_Hbond.Weighted>
0.0000

> <Gold.Chemscore.DEClash.Weighted>
0.2870

> <Gold.Chemscore.DEInternal.Weighted>
1.5867

> <Gold.Chemscore.Rot.Weighted>
3.9797

> <Gold.Chemscore.Internal.Correction.Weighted>
   9.000000E+99

> <Gold.Protein.RotatedTorsions>
[ 6907 6896 6895 6894 ] final  -14.84 input  -60.11 | X-H torsion
[ 7974 7965 7964 7962 ] final  -99.14 input  175.53 | X-H torsion
[ 8008 7997 7996 7995 ] final  -37.86 input   59.86 | X-H torsion
[ 10167 10162 10161 10158 ] final   18.55 input  -65.29 | X-H torsion
[ 10718 10713 10712 10709 ] final   98.00 input   66.30 | X-H torsion
[ 10763 10752 10751 10750 ] final -121.15 input  -60.55 | X-H torsion
[ 11005 11000 10999 10996 ] final  164.64 input  -57.11 | X-H torsion

> <Gold.Protein.ActiveResidues>
 VAL166  LYS551  ARG553  GLY616  TRP617  ASP618  TYR619  PRO620  LYS621  CYS622 
 ASP623  PHE694  ASN695  SER759  ASP760  ASP761  ALA762  ILE779  LEU786  VAL792 
 PHE793  MET794  SER795  GLU796  ALA797  LYS798  CYS799  TRP800  GLU811  SER814 

> <Gold.Protein.RotatedAtoms>
  151.3332  135.0846  159.9345 H   0  0  0  0  0  0  0  0  0  0  0  0  # atno 6907 bound_to 6896
  152.5229  133.9522  159.7688 H   0  0  0  0  0  0  0  0  0  0  0  0  # atno 6908 bound_to 6896
  150.9865  133.6140  159.2744 H   0  0  0  0  0  0  0  0  0  0  0  0  # atno 6909 bound_to 6896
  145.3114  140.9401  143.2767 H   0  0  0  0  0  0  0  0  0  0  0  0  # atno 7974 bound_to 7965
  154.4046  140.1593  156.2606 H   0  0  0  0  0  0  0  0  0  0  0  0  # atno 8008 bound_to 7997
  155.9040  140.3431  155.6025 H   0  0  0  0  0  0  0  0  0  0  0  0  # atno 8009 bound_to 7997
  155.7414  140.0793  157.2234 H   0  0  0  0  0  0  0  0  0  0  0  0  # atno 8010 bound_to 7997
  140.5645  143.9276  150.6666 H   0  0  0  0  0  0  0  0  0  0  0  0  # atno 10167 bound_to 10162
  157.6903  131.0627  150.4730 H   0  0  0  0  0  0  0  0  0  0  0  0  # atno 10718 bound_to 10713
  154.8661  135.4178  154.2574 H   0  0  0  0  0  0  0  0  0  0  0  0  # atno 10763 bound_to 10752
  153.3509  135.6998  153.6795 H   0  0  0  0  0  0  0  0  0  0  0  0  # atno 10764 bound_to 10752
  153.5735  135.3586  155.2820 H   0  0  0  0  0  0  0  0  0  0  0  0  # atno 10765 bound_to 10752
  140.2479  134.7999  157.3474 H   0  0  0  0  0  0  0  0  0  0  0  0  # atno 11005 bound_to 11000
  144.9013  139.4646  143.6631 LP  0  0  0  0  0  0  0  0  0  0  0  0  # atno 17320 bound_to 7965
  146.3116  139.7768  142.9015 LP  0  0  0  0  0  0  0  0  0  0  0  0  # atno 17321 bound_to 7965
  140.2736  143.3439  152.1216 LP  0  0  0  0  0  0  0  0  0  0  0  0  # atno 17342 bound_to 10162
  139.5086  144.6853  151.5904 LP  0  0  0  0  0  0  0  0  0  0  0  0  # atno 17343 bound_to 10162
  156.5066  130.4129  149.6324 LP  0  0  0  0  0  0  0  0  0  0  0  0  # atno 17370 bound_to 10713
  156.3279  130.7315  151.2239 LP  0  0  0  0  0  0  0  0  0  0  0  0  # atno 17371 bound_to 10713
  140.1587  134.4756  155.7910 LP  0  0  0  0  0  0  0  0  0  0  0  0  # atno 17394 bound_to 11000
  141.2204  133.6892  156.7506 LP  0  0  0  0  0  0  0  0  0  0  0  0  # atno 17395 bound_to 11000

$$$$
