AV-unprocessed.smi:1235|AV-procd|sdf|5177|dock1
  -GOLD-   22720 4253D 1   1.00000     0.00000
 Structure written by MMmdl.
 50 51  0  0  0  0  0  0  0  0  2 V2000
  152.9383  141.5522  159.7875 C   0  0  0  0  0  0  0  0  0  0  0  0
  152.8372  140.1586  159.5519 O   0  0  0  0  0  0  0  0  0  0  0  0
  151.9901  139.8524  158.4577 C   0  0  0  0  0  0  0  0  0  0  0  0
  152.0662  138.3436  158.1789 C   0  0  0  0  0  0  0  0  0  0  0  0
  151.5953  138.0220  156.8280 N   0  0  0  0  0  0  0  0  0  0  0  0
  150.6138  137.0455  156.7907 N   0  0  0  0  0  0  0  0  0  0  0  0
  150.1243  136.6590  155.6571 C   0  0  0  0  0  0  0  0  0  0  0  0
  149.0713  135.6086  155.5737 C   0  0  0  0  0  0  0  0  0  0  0  0
  148.4427  135.2361  156.5657 O   0  0  0  0  0  0  0  0  0  0  0  0
  148.8575  135.1011  154.3462 N   0  0  0  0  0  0  0  0  0  0  0  0
  147.8663  134.0834  154.0182 C   0  0  0  0  0  0  0  0  0  0  0  0
  146.5825  134.7046  153.4317 C   0  0  0  0  0  0  0  0  0  0  0  0
  145.7957  133.7554  152.5984 N   0  3  2  0  0  0  0  0  0  0  0  0
  146.6676  132.9376  151.7118 C   0  0  0  0  0  0  0  0  0  0  0  0
  145.8745  131.8158  151.0227 C   0  0  0  0  0  0  0  0  0  0  0  0
  144.6817  132.3811  150.2444 C   0  0  0  0  0  0  0  0  0  0  0  0
  143.8098  133.2341  151.1756 C   0  0  0  0  0  0  0  0  0  0  0  0
  144.6196  134.3428  151.8815 C   0  0  2  0  0  0  0  0  0  0  0  0
  144.9908  135.4937  150.9215 C   0  0  0  0  0  0  0  0  0  0  0  0
  150.5886  137.2400  154.4088 C   0  0  0  0  0  0  0  0  0  0  0  0
  151.5472  138.1906  154.4612 C   0  0  0  0  0  0  0  0  0  0  0  0
  152.1225  138.6419  155.7294 C   0  0  0  0  0  0  0  0  0  0  0  0
  153.0038  139.4977  155.8023 O   0  0  0  0  0  0  0  0  0  0  0  0
  153.6036  141.7331  160.6317 H   0  0  0  0  0  0  0  0  0  0  0  0
  151.9654  141.9829  160.0278 H   0  0  0  0  0  0  0  0  0  0  0  0
  153.3467  142.0714  158.9195 H   0  0  0  0  0  0  0  0  0  0  0  0
  150.9644  140.1453  158.6872 H   0  0  0  0  0  0  0  0  0  0  0  0
  152.3044  140.4139  157.5764 H   0  0  0  0  0  0  0  0  0  0  0  0
  153.0962  138.0041  158.3027 H   0  0  0  0  0  0  0  0  0  0  0  0
  151.4894  137.7952  158.9258 H   0  0  0  0  0  0  0  0  0  0  0  0
  149.4145  135.4613  153.5841 H   0  0  0  0  0  0  0  0  0  0  0  0
  148.2949  133.3567  153.3259 H   0  0  0  0  0  0  0  0  0  0  0  0
  147.6512  133.5492  154.9430 H   0  0  0  0  0  0  0  0  0  0  0  0
  145.9607  135.1261  154.2217 H   0  0  0  0  0  0  0  0  0  0  0  0
  146.8680  135.5467  152.7999 H   0  0  0  0  0  0  0  0  0  0  0  0
  147.1507  133.5741  150.9698 H   0  0  0  0  0  0  0  0  0  0  0  0
  147.4681  132.4870  152.2999 H   0  0  0  0  0  0  0  0  0  0  0  0
  146.5266  131.2567  150.3509 H   0  0  0  0  0  0  0  0  0  0  0  0
  145.5201  131.1057  151.7711 H   0  0  0  0  0  0  0  0  0  0  0  0
  145.0346  132.9797  149.4042 H   0  0  0  0  0  0  0  0  0  0  0  0
  144.0921  131.5682  149.8191 H   0  0  0  0  0  0  0  0  0  0  0  0
  142.9797  133.6675  150.6164 H   0  0  0  0  0  0  0  0  0  0  0  0
  143.3587  132.5863  151.9287 H   0  0  0  0  0  0  0  0  0  0  0  0
  143.9480  134.7610  152.6303 H   0  0  0  0  0  0  0  0  0  0  0  0
  144.1045  135.8643  150.4058 H   0  0  0  0  0  0  0  0  0  0  0  0
  145.7035  135.1849  150.1573 H   0  0  0  0  0  0  0  0  0  0  0  0
  145.4191  136.3428  151.4533 H   0  0  0  0  0  0  0  0  0  0  0  0
  150.1826  136.9258  153.4582 H   0  0  0  0  0  0  0  0  0  0  0  0
  151.9014  138.6313  153.5408 H   0  0  0  0  0  0  0  0  0  0  0  0
  145.4030  133.0946  153.2538 H   0  0  0  0  0  0  0  0  0  0  0  0
  1  2  1  0  0  0  0
  1 24  1  0  0  0  0
  1 25  1  0  0  0  0
  1 26  1  0  0  0  0
  2  3  1  0  0  0  0
  3  4  1  0  0  0  0
  3 27  1  0  0  0  0
  3 28  1  0  0  0  0
  4  5  1  0  0  0  0
  4 29  1  0  0  0  0
  4 30  1  0  0  0  0
  5 22  1  0  0  0  0
  5  6  1  0  0  0  0
  6  7  2  0  0  0  0
  7  8  1  0  0  0  0
  7 20  1  0  0  0  0
  8  9  2  0  0  0  0
  8 10  1  0  0  0  0
 10 11  1  0  0  0  0
 10 31  1  0  0  0  0
 11 12  1  0  0  0  0
 11 32  1  0  0  0  0
 11 33  1  0  0  0  0
 12 13  1  0  0  0  0
 12 34  1  0  0  0  0
 12 35  1  0  0  0  0
 13 18  1  0  0  0  0
 13 14  1  0  0  0  0
 13 50  1  0  0  0  0
 14 15  1  0  0  0  0
 14 36  1  0  0  0  0
 14 37  1  0  0  0  0
 15 16  1  0  0  0  0
 15 38  1  0  0  0  0
 15 39  1  0  0  0  0
 16 17  1  0  0  0  0
 16 40  1  0  0  0  0
 16 41  1  0  0  0  0
 17 18  1  0  0  0  0
 17 42  1  0  0  0  0
 17 43  1  0  0  0  0
 18 19  1  0  0  0  0
 18 44  1  0  0  0  0
 19 45  1  0  0  0  0
 19 46  1  0  0  0  0
 19 47  1  0  0  0  0
 20 21  2  0  0  0  0
 20 48  1  0  0  0  0
 21 22  1  0  0  0  0
 21 49  1  0  0  0  0
 22 23  2  0  0  0  0
M  CHG  1  13   1
M  END
> <s_m_source_file>
AV-unprocessed.smi

> <i_m_source_file_index>
1235

> <i_lp_mmshare_version>
43012

> <i_f3d_flags>
0

> <s_epik_input>
W0NIM11PW0NIMl1bQ0gyXW4xbmMoW2NIXVtjSF1jMT1PKUMoPU8pW05IXVtDSDJdW0NIMl1OMltDSDJdW0NIMl1bQ0gyXVtDSDJdW0NASF0yW0NIM10=

> <s_epik_cmdline>
J2VwaWtfcHl0aG9uJywgJy1waCcsICc3LjAnLCAnLXRuJywgJzgnLCAnLW1hJywgJzIwMCcsICctbWV0YWxfYmluZGluZycsICctaW1hZScsICc8aW5maWxlLm1hZT4nLCAnLW9tYWUnLCAnPG91dGZpbGUubWFlPic=

> <r_lp_tautomer_probability>
1

> <r_epik_Ionization_Penalty>
0.00271975

> <r_epik_Ionization_Penalty_Charging>
0.00271407

> <r_epik_Ionization_Penalty_Neutral>
5.6803e-06

> <r_epik_State_Penalty>
0.00189271

> <r_epik_Charging_Adjusted_Penalty>
0.00460678

> <i_epik_Tot_Q>
1

> <i_epik_Tot_abs_Q>
1

> <r_epik_Metal_State_Penalty>
-0

> <b_epik_Metal_Only>
0

> <s_lp_Force_Field>
OPLS_2005

> <r_lp_Energy>
40.192

> <b_lp_Chiralities_Consistent>
1

> <s_lp_Variant>
AV-unprocessed.smi:1235-3

> <Gold.Version>
5.8.1

> <Gold.Id.Protein>
6NUR|6NUR_protein|mol2

> <Gold.PLP.Fitness>
40.2271

> <Gold.PLP.PLP>
-35.9780

> <Gold.PLP.part.hbond>
-2.0000

> <Gold.PLP.part.metal>
0.0000

> <Gold.PLP.part.buried>
-3.9191

> <Gold.PLP.part.nonpolar>
-29.9668

> <Gold.PLP.part.repulsive>
0.0066

> <Gold.PLP.ligand.clash>
0.0000

> <Gold.PLP.ligand.torsion>
0.5836

> <Gold.PLP.Chemscore.Hbond>
1.6720

> <Gold.PLP.Chemscore.CHOScore>
0.0000

> <Gold.PLP.Chemscore.Metal>
0.0000

> <Gold.Chemscore.Hbonds>
donor molecule, donor type, donor heavy atom, donor atom, acceptor molecule, acceptor atom, score
      L1  H    10    31       P1  7948  0.65
      P1  H  7997  8010       L1    23  1.00

> <Gold.PLP.Chemscore.Internal.Correction>
0.4003

> <Gold.Rescore>
     Score         DG    S(hbond)    S(metal)    S(lipo)     H(rot)  DE(clash)    DE(int)     intcor
     14.27     -15.89       1.81        0.00      81.24       2.00       0.01       1.61       ----

> <Gold.Chemscore.Fitness>
14.2683

> <Gold.Chemscore.DG>
-15.8911

> <Gold.Chemscore.ZeroCoef>
-5.4800

> <Gold.Chemscore.Hbond>
1.8057

> <Gold.Chemscore.Metal>
0.0000

> <Gold.Chemscore.Lipo>
81.2421

> <Gold.Chemscore.Internal_Hbond>
0.0000

> <Gold.Chemscore.DEClash>
0.0088

> <Gold.Chemscore.DEInternal>
1.6140

> <Gold.Chemscore.Rot>
2.0020

> <Gold.Chemscore.Internal.Correction>
   9.000000E+99

> <Gold.Chemscore.Hbonds>
donor molecule, donor type, donor heavy atom, donor atom, acceptor molecule, acceptor atom, score
      L1  H    10    31       P1  7948  0.15
      P1  H  7997  8010       L1    23  0.97

> <Gold.Chemscore.Hbond.Weighted>
-6.0310

> <Gold.Chemscore.Metal.Weighted>
-0.0000

> <Gold.Chemscore.Lipo.Weighted>
-9.5053

> <Gold.Chemscore.Internal_Hbond.Weighted>
0.0000

> <Gold.Chemscore.DEClash.Weighted>
0.0088

> <Gold.Chemscore.DEInternal.Weighted>
1.6140

> <Gold.Chemscore.Rot.Weighted>
5.1252

> <Gold.Chemscore.Internal.Correction.Weighted>
   9.000000E+99

> <Gold.Protein.RotatedTorsions>
[ 6907 6896 6895 6894 ] final -137.11 input  -60.11 | X-H torsion
[ 7974 7965 7964 7962 ] final  122.91 input  175.53 | X-H torsion
[ 8008 7997 7996 7995 ] final   97.47 input   59.86 | X-H torsion
[ 10167 10162 10161 10158 ] final  112.29 input  -65.29 | X-H torsion
[ 10718 10713 10712 10709 ] final   14.63 input   66.30 | X-H torsion
[ 10763 10752 10751 10750 ] final  -64.98 input  -60.55 | X-H torsion
[ 11005 11000 10999 10996 ] final -152.53 input  -57.11 | X-H torsion

> <Gold.Protein.ActiveResidues>
 VAL166  LYS551  ARG553  GLY616  TRP617  ASP618  TYR619  PRO620  LYS621  CYS622 
 ASP623  PHE694  ASN695  SER759  ASP760  ASP761  ALA762  ILE779  LEU786  VAL792 
 PHE793  MET794  SER795  GLU796  ALA797  LYS798  CYS799  TRP800  GLU811  SER814 

> <Gold.Protein.RotatedAtoms>
  151.0184  133.5899  159.2673 H   0  0  0  0  0  0  0  0  0  0  0  0  # atno 6907 bound_to 6896
  151.3025  135.0771  159.9253 H   0  0  0  0  0  0  0  0  0  0  0  0  # atno 6908 bound_to 6896
  152.5317  133.9864  159.7884 H   0  0  0  0  0  0  0  0  0  0  0  0  # atno 6909 bound_to 6896
  145.1021  139.3511  143.4806 H   0  0  0  0  0  0  0  0  0  0  0  0  # atno 7974 bound_to 7965
  156.0904  140.3258  155.7809 H   0  0  0  0  0  0  0  0  0  0  0  0  # atno 8008 bound_to 7997
  155.5005  140.0569  157.2957 H   0  0  0  0  0  0  0  0  0  0  0  0  # atno 8009 bound_to 7997
  154.4634  140.1978  156.0198 H   0  0  0  0  0  0  0  0  0  0  0  0  # atno 8010 bound_to 7997
  139.6547  144.7129  151.1981 H   0  0  0  0  0  0  0  0  0  0  0  0  # atno 10167 bound_to 10162
  157.0419  130.6235  149.5752 H   0  0  0  0  0  0  0  0  0  0  0  0  # atno 10718 bound_to 10713
  154.3382  135.6162  153.5583 H   0  0  0  0  0  0  0  0  0  0  0  0  # atno 10763 bound_to 10752
  152.9806  135.5763  154.4884 H   0  0  0  0  0  0  0  0  0  0  0  0  # atno 10764 bound_to 10752
  154.4583  135.2855  155.1709 H   0  0  0  0  0  0  0  0  0  0  0  0  # atno 10765 bound_to 10752
  140.7179  134.3760  157.5188 H   0  0  0  0  0  0  0  0  0  0  0  0  # atno 11005 bound_to 11000
  146.3529  140.0903  142.8613 LP  0  0  0  0  0  0  0  0  0  0  0  0  # atno 17320 bound_to 7965
  145.0944  140.9305  143.4750 LP  0  0  0  0  0  0  0  0  0  0  0  0  # atno 17321 bound_to 7965
  140.7553  143.6092  150.8622 LP  0  0  0  0  0  0  0  0  0  0  0  0  # atno 17342 bound_to 10162
  139.9744  143.6021  152.2963 LP  0  0  0  0  0  0  0  0  0  0  0  0  # atno 17343 bound_to 10162
  156.0035  130.5118  150.7748 LP  0  0  0  0  0  0  0  0  0  0  0  0  # atno 17370 bound_to 10713
  157.5098  131.0924  151.0213 LP  0  0  0  0  0  0  0  0  0  0  0  0  # atno 17371 bound_to 10713
  139.8855  134.8935  156.2638 LP  0  0  0  0  0  0  0  0  0  0  0  0  # atno 17394 bound_to 11000
  141.0028  133.7141  156.0988 LP  0  0  0  0  0  0  0  0  0  0  0  0  # atno 17395 bound_to 11000

$$$$
