AV-unprocessed.smi:2089|AV-procd|sdf|8530|dock9
  -GOLD-   2272011253D 1   1.00000     0.00000
 Structure written by MMmdl.
 40 41  0  0  0  0  0  0  0  0  2 V2000
  153.9701  137.3908  157.4950 C   0  0  0  0  0  0  0  0  0  0  0  0
  152.4420  136.4746  157.9508 S   0  0  0  0  0  0  0  0  0  0  0  0
  152.5691  135.0933  157.4609 O   0  0  0  0  0  0  0  0  0  0  0  0
  152.1334  136.7247  159.3668 O   0  0  0  0  0  0  0  0  0  0  0  0
  151.2255  137.2549  156.9990 N   0  0  0  0  0  0  0  0  0  0  0  0
  149.8727  136.6821  156.9735 C   0  0  0  0  0  0  0  0  0  0  0  0
  149.2485  137.1571  155.6638 C   0  0  0  0  0  0  0  0  0  0  0  0
  150.4497  137.2744  154.7364 C   0  0  0  0  0  0  0  0  0  0  0  0
  151.5888  137.7441  155.6586 C   0  0  1  0  0  0  0  0  0  0  0  0
  151.8199  139.2617  155.6274 C   0  0  0  0  0  0  0  0  0  0  0  0
  152.7257  139.7505  154.9514 O   0  0  0  0  0  0  0  0  0  0  0  0
  150.9745  140.0015  156.3589 N   0  0  0  0  0  0  0  0  0  0  0  0
  151.0077  141.4543  156.4378 C   0  0  0  0  0  0  0  0  0  0  0  0
  150.1680  141.9502  157.6228 C   0  0  0  0  0  0  0  0  0  0  0  0
  150.8371  143.0945  158.3596 C   0  0  0  0  0  0  0  0  0  0  0  0
  151.7503  142.8781  159.4145 C   0  0  0  0  0  0  0  0  0  0  0  0
  152.3428  143.9887  160.0513 C   0  0  0  0  0  0  0  0  0  0  0  0
  152.0117  145.2900  159.6196 C   0  0  0  0  0  0  0  0  0  0  0  0
  151.0944  145.4482  158.5607 C   0  0  0  0  0  0  0  0  0  0  0  0
  150.5473  144.3593  157.9767 N   0  3  0  0  0  0  0  0  0  0  0  0
  154.8224  136.9514  158.0126 H   0  0  0  0  0  0  0  0  0  0  0  0
  153.8730  138.4362  157.7863 H   0  0  0  0  0  0  0  0  0  0  0  0
  154.1268  137.3257  156.4187 H   0  0  0  0  0  0  0  0  0  0  0  0
  149.9389  135.5936  156.9824 H   0  0  0  0  0  0  0  0  0  0  0  0
  149.3001  136.9973  157.8460 H   0  0  0  0  0  0  0  0  0  0  0  0
  148.4860  136.4754  155.2865 H   0  0  0  0  0  0  0  0  0  0  0  0
  148.7872  138.1357  155.8037 H   0  0  0  0  0  0  0  0  0  0  0  0
  150.6942  136.2942  154.3246 H   0  0  0  0  0  0  0  0  0  0  0  0
  150.2588  137.9395  153.8929 H   0  0  0  0  0  0  0  0  0  0  0  0
  152.5099  137.2561  155.3346 H   0  0  0  0  0  0  0  0  0  0  0  0
  150.2498  139.5248  156.8767 H   0  0  0  0  0  0  0  0  0  0  0  0
  152.0420  141.7856  156.5438 H   0  0  0  0  0  0  0  0  0  0  0  0
  150.6263  141.8755  155.5060 H   0  0  0  0  0  0  0  0  0  0  0  0
  149.1873  142.2798  157.2755 H   0  0  0  0  0  0  0  0  0  0  0  0
  149.9881  141.1319  158.3215 H   0  0  0  0  0  0  0  0  0  0  0  0
  151.9969  141.8753  159.7322 H   0  0  0  0  0  0  0  0  0  0  0  0
  153.0439  143.8440  160.8602 H   0  0  0  0  0  0  0  0  0  0  0  0
  152.4549  146.1536  160.0937 H   0  0  0  0  0  0  0  0  0  0  0  0
  150.7845  146.4046  158.1656 H   0  0  0  0  0  0  0  0  0  0  0  0
  149.8867  144.4976  157.2116 H   0  0  0  0  0  0  0  0  0  0  0  0
  1  2  1  0  0  0  0
  1 21  1  0  0  0  0
  1 22  1  0  0  0  0
  1 23  1  0  0  0  0
  2  3  2  0  0  0  0
  2  4  2  0  0  0  0
  2  5  1  0  0  0  0
  5  9  1  0  0  0  0
  5  6  1  0  0  0  0
  6  7  1  0  0  0  0
  6 24  1  0  0  0  0
  6 25  1  0  0  0  0
  7  8  1  0  0  0  0
  7 26  1  0  0  0  0
  7 27  1  0  0  0  0
  8  9  1  0  0  0  0
  8 28  1  0  0  0  0
  8 29  1  0  0  0  0
  9 10  1  0  0  0  0
  9 30  1  0  0  0  0
 10 11  2  0  0  0  0
 10 12  1  0  0  0  0
 12 13  1  0  0  0  0
 12 31  1  0  0  0  0
 13 14  1  0  0  0  0
 13 32  1  0  0  0  0
 13 33  1  0  0  0  0
 14 15  1  0  0  0  0
 14 34  1  0  0  0  0
 14 35  1  0  0  0  0
 15 20  1  0  0  0  0
 15 16  2  0  0  0  0
 16 17  1  0  0  0  0
 16 36  1  0  0  0  0
 17 18  2  0  0  0  0
 17 37  1  0  0  0  0
 18 19  1  0  0  0  0
 18 38  1  0  0  0  0
 19 20  2  0  0  0  0
 19 39  1  0  0  0  0
 20 40  1  0  0  0  0
M  CHG  1  20   1
M  END
> <s_m_source_file>
AV-unprocessed.smi

> <i_m_source_file_index>
2089

> <i_lp_mmshare_version>
43012

> <i_f3d_flags>
0

> <s_epik_input>
W0NIM11TKD1PKSg9TylOMVtDSDJdW0NIMl1bQ0gyXVtDQEhdMUMoPU8pW05IXVtDSDJdW0NIMl1jMltjSF1bY0hdW2NIXVtjSF1uMg==

> <s_epik_cmdline>
J2VwaWtfcHl0aG9uJywgJy1waCcsICc3LjAnLCAnLXRuJywgJzgnLCAnLW1hJywgJzIwMCcsICctbWV0YWxfYmluZGluZycsICctaW1hZScsICc8aW5maWxlLm1hZT4nLCAnLW9tYWUnLCAnPG91dGZpbGUubWFlPic=

> <r_epik_Ionization_Penalty>
1.90116

> <r_epik_Ionization_Penalty_Charging>
1.90116

> <r_epik_Ionization_Penalty_Neutral>
1.4017e-07

> <r_epik_State_Penalty>
2.02245

> <r_epik_Charging_Adjusted_Penalty>
3.9236

> <i_epik_Tot_Q>
1

> <i_epik_Tot_abs_Q>
1

> <r_epik_Metal_State_Penalty>
2.04621

> <b_epik_Metal_Only>
0

> <s_lp_Force_Field>
OPLS_2005

> <r_lp_Energy>
11.7086

> <b_lp_Chiralities_Consistent>
1

> <s_lp_Variant>
AV-unprocessed.smi:2089-3

> <Gold.Version>
5.8.1

> <Gold.Id.Protein>
6NUR|6NUR_protein|mol2

> <Gold.PLP.Fitness>
49.4180

> <Gold.PLP.PLP>
-36.4656

> <Gold.PLP.part.hbond>
-5.3117

> <Gold.PLP.part.metal>
0.0000

> <Gold.PLP.part.buried>
-4.5309

> <Gold.PLP.part.nonpolar>
-26.2406

> <Gold.PLP.part.repulsive>
0.1885

> <Gold.PLP.ligand.clash>
0.0000

> <Gold.PLP.ligand.torsion>
1.9167

> <Gold.PLP.Chemscore.Hbond>
5.4160

> <Gold.PLP.Chemscore.CHOScore>
0.0000

> <Gold.PLP.Chemscore.Metal>
0.0000

> <Gold.Chemscore.Hbonds>
donor molecule, donor type, donor heavy atom, donor atom, acceptor molecule, acceptor atom, score
      L1  H    20    40       P1  8028  2.00
      P1  H  6896  6907       L1     4  0.94
      P1  H  7989  7998       L1    11  0.43
      P1  H  7997  8009       L1    11  1.00

> <Gold.PLP.Chemscore.Internal.Correction>
0.5378

> <Gold.Rescore>
     Score         DG    S(hbond)    S(metal)    S(lipo)     H(rot)  DE(clash)    DE(int)     intcor
     22.20     -23.55       3.88        0.00      87.53       2.00       0.03       1.32       ----

> <Gold.Chemscore.Fitness>
22.2017

> <Gold.Chemscore.DG>
-23.5516

> <Gold.Chemscore.ZeroCoef>
-5.4800

> <Gold.Chemscore.Hbond>
3.8808

> <Gold.Chemscore.Metal>
0.0000

> <Gold.Chemscore.Lipo>
87.5272

> <Gold.Chemscore.Internal_Hbond>
0.0000

> <Gold.Chemscore.DEClash>
0.0260

> <Gold.Chemscore.DEInternal>
1.3239

> <Gold.Chemscore.Rot>
2.0043

> <Gold.Chemscore.Internal.Correction>
   9.000000E+99

> <Gold.Chemscore.Hbonds>
donor molecule, donor type, donor heavy atom, donor atom, acceptor molecule, acceptor atom, score
      L1  H    20    40       P1  8028  0.30
      P1  H  6896  6907       L1     4  0.36
      P1  H  7989  7998       L1    11  0.17
      P1  H  7997  8009       L1    11  0.92
      P1  H 10752 10764       L1     3  0.01

> <Gold.Chemscore.Hbond.Weighted>
-12.9618

> <Gold.Chemscore.Metal.Weighted>
-0.0000

> <Gold.Chemscore.Lipo.Weighted>
-10.2407

> <Gold.Chemscore.Internal_Hbond.Weighted>
0.0000

> <Gold.Chemscore.DEClash.Weighted>
0.0260

> <Gold.Chemscore.DEInternal.Weighted>
1.3239

> <Gold.Chemscore.Rot.Weighted>
5.1309

> <Gold.Chemscore.Internal.Correction.Weighted>
   9.000000E+99

> <Gold.Protein.RotatedTorsions>
[ 6907 6896 6895 6894 ] final   25.42 input  -60.11 | X-H torsion
[ 7974 7965 7964 7962 ] final   95.31 input  175.53 | X-H torsion
[ 8008 7997 7996 7995 ] final -128.83 input   59.86 | X-H torsion
[ 10167 10162 10161 10158 ] final   39.97 input  -65.29 | X-H torsion
[ 10718 10713 10712 10709 ] final  -28.74 input   66.30 | X-H torsion
[ 10763 10752 10751 10750 ] final   26.05 input  -60.55 | X-H torsion
[ 11005 11000 10999 10996 ] final  -99.69 input  -57.11 | X-H torsion

> <Gold.Protein.ActiveResidues>
 VAL166  LYS551  ARG553  GLY616  TRP617  ASP618  TYR619  PRO620  LYS621  CYS622 
 ASP623  PHE694  ASN695  SER759  ASP760  ASP761  ALA762  ILE779  LEU786  VAL792 
 PHE793  MET794  SER795  GLU796  ALA797  LYS798  CYS799  TRP800  GLU811  SER814 

> <Gold.Protein.RotatedAtoms>
  151.9723  135.0071  160.0553 H   0  0  0  0  0  0  0  0  0  0  0  0  # atno 6907 bound_to 6896
  152.1772  133.4678  159.4948 H   0  0  0  0  0  0  0  0  0  0  0  0  # atno 6908 bound_to 6896
  150.6911  134.1796  159.4286 H   0  0  0  0  0  0  0  0  0  0  0  0  # atno 6909 bound_to 6896
  145.4538  139.2291  143.3025 H   0  0  0  0  0  0  0  0  0  0  0  0  # atno 7974 bound_to 7965
  155.2692  140.0439  157.3005 H   0  0  0  0  0  0  0  0  0  0  0  0  # atno 8008 bound_to 7997
  154.5664  140.2361  155.8226 H   0  0  0  0  0  0  0  0  0  0  0  0  # atno 8009 bound_to 7997
  156.2088  140.3005  155.9694 H   0  0  0  0  0  0  0  0  0  0  0  0  # atno 8010 bound_to 7997
  140.3788  144.2008  150.6131 H   0  0  0  0  0  0  0  0  0  0  0  0  # atno 10167 bound_to 10162
  156.4213  130.4427  149.7181 H   0  0  0  0  0  0  0  0  0  0  0  0  # atno 10718 bound_to 10713
  153.0649  135.6569  154.0377 H   0  0  0  0  0  0  0  0  0  0  0  0  # atno 10763 bound_to 10752
  154.0036  135.2935  155.3401 H   0  0  0  0  0  0  0  0  0  0  0  0  # atno 10764 bound_to 10752
  154.7003  135.5247  153.8586 H   0  0  0  0  0  0  0  0  0  0  0  0  # atno 10765 bound_to 10752
  141.1299  133.8341  157.1004 H   0  0  0  0  0  0  0  0  0  0  0  0  # atno 11005 bound_to 11000
  146.2489  140.5300  142.8902 LP  0  0  0  0  0  0  0  0  0  0  0  0  # atno 17320 bound_to 7965
  144.8045  140.6274  143.6456 LP  0  0  0  0  0  0  0  0  0  0  0  0  # atno 17321 bound_to 7965
  140.4959  143.2333  151.8750 LP  0  0  0  0  0  0  0  0  0  0  0  0  # atno 17342 bound_to 10162
  139.4797  144.5114  151.8927 LP  0  0  0  0  0  0  0  0  0  0  0  0  # atno 17343 bound_to 10162
  156.4121  130.7727  151.2741 LP  0  0  0  0  0  0  0  0  0  0  0  0  # atno 17370 bound_to 10713
  157.7508  131.0208  150.3724 LP  0  0  0  0  0  0  0  0  0  0  0  0  # atno 17371 bound_to 10713
  140.0337  134.9889  157.0829 LP  0  0  0  0  0  0  0  0  0  0  0  0  # atno 17394 bound_to 11000
  140.4245  134.1846  155.7165 LP  0  0  0  0  0  0  0  0  0  0  0  0  # atno 17395 bound_to 11000

$$$$
