AV-unprocessed.smi:1047|AV-procd|sdf|4576|dock10
  -GOLD-   22720 3 43D 1   1.00000     0.00000
 Structure written by MMmdl.
 56 58  0  0  0  0  0  0  0  0  2 V2000
  141.3965  146.7666  155.3106 C   0  0  0  0  0  0  0  0  0  0  0  0
  142.5770  146.3175  154.4380 C   0  0  0  0  0  0  0  0  0  0  0  0
  143.2883  145.1439  155.0033 N   0  3  1  0  0  0  0  0  0  0  0  0
  142.3881  144.0196  155.3603 C   0  0  0  0  0  0  0  0  0  0  0  0
  143.1907  142.8655  155.9839 C   0  0  0  0  0  0  0  0  0  0  0  0
  144.2062  142.4401  155.0835 O   0  0  0  0  0  0  0  0  0  0  0  0
  145.1244  143.4836  154.7738 C   0  0  1  0  0  0  0  0  0  0  0  0
  146.2614  142.9114  153.9103 C   0  0  0  0  0  0  0  0  0  0  0  0
  147.0406  141.9040  154.6255 N   0  0  0  0  0  0  0  0  0  0  0  0
  148.0638  141.2724  153.7978 C   0  0  0  0  0  0  0  0  0  0  0  0
  149.1758  140.6480  154.6631 C   0  0  1  0  0  0  0  0  0  0  0  0
  149.9790  139.8330  153.8354 O   0  0  0  0  0  0  0  0  0  0  0  0
  150.1038  141.6881  155.3209 C   0  0  0  0  0  0  0  0  0  0  0  0
  150.8387  141.1467  156.4499 N   0  0  0  0  0  0  0  0  0  0  0  0
  151.2153  139.8663  156.6297 C   0  0  0  0  0  0  0  0  0  0  0  0
  151.8805  139.5779  157.7442 N   0  0  0  0  0  0  0  0  0  0  0  0
  151.9483  140.8171  158.3573 C   0  0  0  0  0  0  0  0  0  0  0  0
  152.5289  141.2014  159.5858 C   0  0  0  0  0  0  0  0  0  0  0  0
  152.4771  142.5440  160.0235 C   0  0  0  0  0  0  0  0  0  0  0  0
  153.1148  142.9127  161.3512 C   0  0  0  0  0  0  0  0  0  0  0  0
  151.8364  143.5269  159.2270 C   0  0  0  0  0  0  0  0  0  0  0  0
  151.7697  144.9761  159.6758 C   0  0  0  0  0  0  0  0  0  0  0  0
  151.2499  143.1597  157.9978 C   0  0  0  0  0  0  0  0  0  0  0  0
  151.3084  141.8206  157.5726 C   0  0  0  0  0  0  0  0  0  0  0  0
  144.3803  144.6679  154.1214 C   0  0  0  0  0  0  0  0  0  0  0  0
  140.9555  147.6823  154.9163 H   0  0  0  0  0  0  0  0  0  0  0  0
  141.7165  146.9694  156.3330 H   0  0  0  0  0  0  0  0  0  0  0  0
  140.6054  146.0183  155.3461 H   0  0  0  0  0  0  0  0  0  0  0  0
  142.2446  146.1013  153.4218 H   0  0  0  0  0  0  0  0  0  0  0  0
  143.2736  147.1537  154.3644 H   0  0  0  0  0  0  0  0  0  0  0  0
  141.6278  144.3487  156.0675 H   0  0  0  0  0  0  0  0  0  0  0  0
  141.8659  143.6701  154.4681 H   0  0  0  0  0  0  0  0  0  0  0  0
  143.6336  143.1687  156.9339 H   0  0  0  0  0  0  0  0  0  0  0  0
  142.5326  142.0226  156.1952 H   0  0  0  0  0  0  0  0  0  0  0  0
  145.5724  143.8275  155.7080 H   0  0  0  0  0  0  0  0  0  0  0  0
  145.8420  142.4770  153.0019 H   0  0  0  0  0  0  0  0  0  0  0  0
  146.9120  143.7262  153.5906 H   0  0  0  0  0  0  0  0  0  0  0  0
  147.4759  142.3265  155.4396 H   0  0  0  0  0  0  0  0  0  0  0  0
  147.6242  140.5221  153.1390 H   0  0  0  0  0  0  0  0  0  0  0  0
  148.4935  142.0341  153.1478 H   0  0  0  0  0  0  0  0  0  0  0  0
  148.7369  140.0249  155.4439 H   0  0  0  0  0  0  0  0  0  0  0  0
  149.5848  139.7998  152.9771 H   0  0  0  0  0  0  0  0  0  0  0  0
  150.8276  142.0606  154.5945 H   0  0  0  0  0  0  0  0  0  0  0  0
  149.5306  142.5525  155.6585 H   0  0  0  0  0  0  0  0  0  0  0  0
  150.9832  139.1018  155.9024 H   0  0  0  0  0  0  0  0  0  0  0  0
  153.0164  140.4524  160.1924 H   0  0  0  0  0  0  0  0  0  0  0  0
  153.9035  143.6507  161.2042 H   0  0  0  0  0  0  0  0  0  0  0  0
  153.5577  142.0420  161.8358 H   0  0  0  0  0  0  0  0  0  0  0  0
  152.3708  143.3305  162.0297 H   0  0  0  0  0  0  0  0  0  0  0  0
  151.2581  145.5972  158.9401 H   0  0  0  0  0  0  0  0  0  0  0  0
  152.7728  145.3805  159.8137 H   0  0  0  0  0  0  0  0  0  0  0  0
  151.2289  145.0597  160.6187 H   0  0  0  0  0  0  0  0  0  0  0  0
  150.7562  143.8981  157.3834 H   0  0  0  0  0  0  0  0  0  0  0  0
  143.9579  144.3765  153.1585 H   0  0  0  0  0  0  0  0  0  0  0  0
  145.0822  145.4808  153.9309 H   0  0  0  0  0  0  0  0  0  0  0  0
  143.7283  145.4554  155.8574 H   0  0  0  0  0  0  0  0  0  0  0  0
  1  2  1  0  0  0  0
  1 26  1  0  0  0  0
  1 27  1  0  0  0  0
  1 28  1  0  0  0  0
  2  3  1  0  0  0  0
  2 29  1  0  0  0  0
  2 30  1  0  0  0  0
  3 25  1  0  0  0  0
  3  4  1  0  0  0  0
  3 56  1  0  0  0  0
  4  5  1  0  0  0  0
  4 31  1  0  0  0  0
  4 32  1  0  0  0  0
  5  6  1  0  0  0  0
  5 33  1  0  0  0  0
  5 34  1  0  0  0  0
  6  7  1  0  0  0  0
  7  8  1  0  0  0  0
  7 25  1  0  0  0  0
  7 35  1  0  0  0  0
  8  9  1  0  0  0  0
  8 36  1  0  0  0  0
  8 37  1  0  0  0  0
  9 10  1  0  0  0  0
  9 38  1  0  0  0  0
 10 11  1  0  0  0  0
 10 39  1  0  0  0  0
 10 40  1  0  0  0  0
 11 12  1  0  0  0  0
 11 13  1  0  0  0  0
 11 41  1  0  0  0  0
 12 42  1  0  0  0  0
 13 14  1  0  0  0  0
 13 43  1  0  0  0  0
 13 44  1  0  0  0  0
 14 24  1  0  0  0  0
 14 15  1  0  0  0  0
 15 16  2  0  0  0  0
 15 45  1  0  0  0  0
 16 17  1  0  0  0  0
 17 24  2  0  0  0  0
 17 18  1  0  0  0  0
 18 19  2  0  0  0  0
 18 46  1  0  0  0  0
 19 20  1  0  0  0  0
 19 21  1  0  0  0  0
 20 47  1  0  0  0  0
 20 48  1  0  0  0  0
 20 49  1  0  0  0  0
 21 22  1  0  0  0  0
 21 23  2  0  0  0  0
 22 50  1  0  0  0  0
 22 51  1  0  0  0  0
 22 52  1  0  0  0  0
 23 24  1  0  0  0  0
 23 53  1  0  0  0  0
 25 54  1  0  0  0  0
 25 55  1  0  0  0  0
M  CHG  1   3   1
M  END
> <s_m_source_file>
AV-unprocessed.smi

> <i_m_source_file_index>
1047

> <i_lp_mmshare_version>
43012

> <i_f3d_flags>
0

> <s_epik_input>
W0NIM11bQ0gyXU4xW0NIMl1bQ0gyXU9bQ0BIXShbQ0gyXTEpW0NIMl1bTkhdW0NIMl1bQ0BIXShbT0hdKVtDSDJdbihbY0hdbjIpYyhjMjMpW2NIXWMoW0NIM10pYyhbY0hdMylbQ0gzXQ==

> <s_epik_cmdline>
J2VwaWtfcHl0aG9uJywgJy1waCcsICc3LjAnLCAnLXRuJywgJzgnLCAnLW1hJywgJzIwMCcsICctbWV0YWxfYmluZGluZycsICctaW1hZScsICc8aW5maWxlLm1hZT4nLCAnLW9tYWUnLCAnPG91dGZpbGUubWFlPic=

> <r_epik_Ionization_Penalty>
1.19246

> <r_epik_Ionization_Penalty_Charging>
0.210041

> <r_epik_Ionization_Penalty_Neutral>
0.982415

> <r_epik_State_Penalty>
1.57595

> <r_epik_Charging_Adjusted_Penalty>
1.78599

> <i_epik_Tot_Q>
1

> <i_epik_Tot_abs_Q>
1

> <r_epik_Metal_State_Penalty>
1.46172

> <b_epik_Metal_Only>
0

> <s_lp_Force_Field>
OPLS_2005

> <r_lp_Energy>
33.3203

> <b_lp_Chiralities_Consistent>
1

> <s_lp_Variant>
AV-unprocessed.smi:1047-17

> <Gold.Version>
5.8.1

> <Gold.Id.Protein>
6NUR|6NUR_protein|mol2

> <Gold.PLP.Fitness>
58.7390

> <Gold.PLP.PLP>
-54.5309

> <Gold.PLP.part.hbond>
-2.0000

> <Gold.PLP.part.metal>
0.0000

> <Gold.PLP.part.buried>
-8.2911

> <Gold.PLP.part.nonpolar>
-43.9597

> <Gold.PLP.part.repulsive>
0.2221

> <Gold.PLP.ligand.clash>
0.0000

> <Gold.PLP.ligand.torsion>
0.7736

> <Gold.PLP.Chemscore.Hbond>
1.8800

> <Gold.PLP.Chemscore.CHOScore>
0.0000

> <Gold.PLP.Chemscore.Metal>
0.0000

> <Gold.Chemscore.Hbonds>
donor molecule, donor type, donor heavy atom, donor atom, acceptor molecule, acceptor atom, score
      L1  H    12    42       P1  7957  1.00
      P1  H  7989  7998       L1    12  0.88

> <Gold.PLP.Chemscore.Internal.Correction>
0.1153

> <Gold.Rescore>
     Score         DG    S(hbond)    S(metal)    S(lipo)     H(rot)  DE(clash)    DE(int)     intcor
     17.74     -18.73       1.07        0.00     140.17       2.62       0.19       0.80       ----

> <Gold.Chemscore.Fitness>
17.7378

> <Gold.Chemscore.DG>
-18.7335

> <Gold.Chemscore.ZeroCoef>
-5.4800

> <Gold.Chemscore.Hbond>
1.0667

> <Gold.Chemscore.Metal>
0.0000

> <Gold.Chemscore.Lipo>
140.1743

> <Gold.Chemscore.Internal_Hbond>
0.0000

> <Gold.Chemscore.DEClash>
0.1938

> <Gold.Chemscore.DEInternal>
0.8020

> <Gold.Chemscore.Rot>
2.6209

> <Gold.Chemscore.Internal.Correction>
   9.000000E+99

> <Gold.Chemscore.Hbonds>
donor molecule, donor type, donor heavy atom, donor atom, acceptor molecule, acceptor atom, score
      L1  H    12    42       P1  7957  0.97
      P1  H  7989  7998       L1    12  0.14

> <Gold.Chemscore.Hbond.Weighted>
-3.5628

> <Gold.Chemscore.Metal.Weighted>
-0.0000

> <Gold.Chemscore.Lipo.Weighted>
-16.4004

> <Gold.Chemscore.Internal_Hbond.Weighted>
0.0000

> <Gold.Chemscore.DEClash.Weighted>
0.1938

> <Gold.Chemscore.DEInternal.Weighted>
0.8020

> <Gold.Chemscore.Rot.Weighted>
6.7096

> <Gold.Chemscore.Internal.Correction.Weighted>
   9.000000E+99

> <Gold.Protein.RotatedTorsions>
[ 6907 6896 6895 6894 ] final -123.97 input  -60.11 | X-H torsion
[ 7974 7965 7964 7962 ] final  -19.79 input  175.53 | X-H torsion
[ 8008 7997 7996 7995 ] final  -39.04 input   59.86 | X-H torsion
[ 10167 10162 10161 10158 ] final -134.02 input  -65.29 | X-H torsion
[ 10718 10713 10712 10709 ] final   62.06 input   66.30 | X-H torsion
[ 10763 10752 10751 10750 ] final   39.72 input  -60.55 | X-H torsion
[ 11005 11000 10999 10996 ] final -121.80 input  -57.11 | X-H torsion

> <Gold.Protein.ActiveResidues>
 VAL166  LYS551  ARG553  GLY616  TRP617  ASP618  TYR619  PRO620  LYS621  CYS622 
 ASP623  PHE694  ASN695  SER759  ASP760  ASP761  ALA762  ILE779  LEU786  VAL792 
 PHE793  MET794  SER795  GLU796  ALA797  LYS798  CYS799  TRP800  GLU811  SER814 

> <Gold.Protein.RotatedAtoms>
  150.8723  133.7488  159.2957 H   0  0  0  0  0  0  0  0  0  0  0  0  # atno 6907 bound_to 6896
  151.5096  135.1063  159.9860 H   0  0  0  0  0  0  0  0  0  0  0  0  # atno 6908 bound_to 6896
  152.4703  133.7970  159.6988 H   0  0  0  0  0  0  0  0  0  0  0  0  # atno 6909 bound_to 6896
  146.1823  140.4111  142.8490 H   0  0  0  0  0  0  0  0  0  0  0  0  # atno 7974 bound_to 7965
  154.4028  140.1562  156.2799 H   0  0  0  0  0  0  0  0  0  0  0  0  # atno 8008 bound_to 7997
  155.8879  140.3440  155.5913 H   0  0  0  0  0  0  0  0  0  0  0  0  # atno 8009 bound_to 7997
  155.7592  140.0815  157.2154 H   0  0  0  0  0  0  0  0  0  0  0  0  # atno 8010 bound_to 7997
  139.8923  143.6708  152.2610 H   0  0  0  0  0  0  0  0  0  0  0  0  # atno 10167 bound_to 10162
  157.5873  130.9029  149.9540 H   0  0  0  0  0  0  0  0  0  0  0  0  # atno 10718 bound_to 10713
  152.9958  135.6212  154.2510 H   0  0  0  0  0  0  0  0  0  0  0  0  # atno 10763 bound_to 10752
  154.2249  135.2794  155.2913 H   0  0  0  0  0  0  0  0  0  0  0  0  # atno 10764 bound_to 10752
  154.5498  135.5736  153.6970 H   0  0  0  0  0  0  0  0  0  0  0  0  # atno 10765 bound_to 10752
  141.0043  134.0357  157.3497 H   0  0  0  0  0  0  0  0  0  0  0  0  # atno 11005 bound_to 11000
  144.8335  140.6746  143.6275 LP  0  0  0  0  0  0  0  0  0  0  0  0  # atno 17320 bound_to 7965
  145.4042  139.1592  143.4161 LP  0  0  0  0  0  0  0  0  0  0  0  0  # atno 17321 bound_to 7965
  139.7099  144.7622  151.1130 LP  0  0  0  0  0  0  0  0  0  0  0  0  # atno 17342 bound_to 10162
  140.7724  143.5345  150.9384 LP  0  0  0  0  0  0  0  0  0  0  0  0  # atno 17343 bound_to 10162
  156.0924  130.3662  150.0370 LP  0  0  0  0  0  0  0  0  0  0  0  0  # atno 17370 bound_to 10713
  156.8499  130.9455  151.3626 LP  0  0  0  0  0  0  0  0  0  0  0  0  # atno 17371 bound_to 10713
  139.9055  135.0178  156.7465 LP  0  0  0  0  0  0  0  0  0  0  0  0  # atno 17394 bound_to 11000
  140.6838  133.9450  155.7926 LP  0  0  0  0  0  0  0  0  0  0  0  0  # atno 17395 bound_to 11000

$$$$
