AV-unprocessed.smi:3270|AV-procd|sdf|12512|dock4
  -GOLD-   2272018423D 1   1.00000     0.00000
 Structure written by MMmdl.
 38 39  0  0  0  0  0  0  0  0  1 V2000
  150.1514  137.4891  155.2629 C   0  0  0  0  0  0  0  0  0  0  0  0
  150.5258  138.8304  154.5988 C   0  0  2  0  0  0  0  0  0  0  0  0
  151.5356  139.6418  155.4262 C   0  0  0  0  0  0  0  0  0  0  0  0
  152.6419  139.9265  154.9659 O   0  0  0  0  0  0  0  0  0  0  0  0
  151.1375  140.0091  156.6548 N   0  0  0  0  0  0  0  0  0  0  0  0
  151.9438  140.7615  157.6080 C   0  0  0  0  0  0  0  0  0  0  0  0
  151.2780  142.1011  157.9755 C   0  0  0  0  0  0  0  0  0  0  0  0
  151.9954  142.8924  158.9739 N   0  0  0  0  0  0  0  0  0  0  0  0
  151.2635  144.1132  159.2961 C   0  0  0  0  0  0  0  0  0  0  0  0
  151.9965  144.9651  160.3467 C   0  0  0  0  0  0  0  0  0  0  0  0
  152.2197  144.1876  161.5182 O   0  0  0  0  0  0  0  0  0  0  0  0
  152.9732  143.0082  161.2574 C   0  0  0  0  0  0  0  0  0  0  0  0
  152.2456  142.1497  160.2075 C   0  0  0  0  0  0  0  0  0  0  0  0
  149.3545  139.6439  154.2924 N   0  0  0  0  0  0  0  0  0  0  0  0
  148.2342  139.2793  153.5730 C   0  0  0  0  0  0  0  0  0  0  0  0
  147.4164  140.3704  153.5031 C   0  0  0  0  0  0  0  0  0  0  0  0
  148.1350  141.3760  154.2067 C   0  0  0  0  0  0  0  0  0  0  0  0
  149.2958  140.9427  154.6693 N   0  0  0  0  0  0  0  0  0  0  0  0
  151.0362  136.8747  155.4326 H   0  0  0  0  0  0  0  0  0  0  0  0
  149.4751  136.9171  154.6270 H   0  0  0  0  0  0  0  0  0  0  0  0
  149.6585  137.6295  156.2261 H   0  0  0  0  0  0  0  0  0  0  0  0
  151.0055  138.5913  153.6480 H   0  0  0  0  0  0  0  0  0  0  0  0
  150.2133  139.7361  156.9557 H   0  0  0  0  0  0  0  0  0  0  0  0
  152.0660  140.1340  158.4900 H   0  0  0  0  0  0  0  0  0  0  0  0
  152.9430  140.9294  157.2024 H   0  0  0  0  0  0  0  0  0  0  0  0
  151.1912  142.6924  157.0631 H   0  0  0  0  0  0  0  0  0  0  0  0
  150.2561  141.9213  158.3129 H   0  0  0  0  0  0  0  0  0  0  0  0
  151.1175  144.7061  158.3925 H   0  0  0  0  0  0  0  0  0  0  0  0
  150.2690  143.8615  159.6679 H   0  0  0  0  0  0  0  0  0  0  0  0
  152.9477  145.3283  159.9549 H   0  0  0  0  0  0  0  0  0  0  0  0
  151.4018  145.8406  160.6075 H   0  0  0  0  0  0  0  0  0  0  0  0
  153.9725  143.2764  160.9110 H   0  0  0  0  0  0  0  0  0  0  0  0
  153.0949  142.4499  162.1855 H   0  0  0  0  0  0  0  0  0  0  0  0
  151.3018  141.7938  160.6236 H   0  0  0  0  0  0  0  0  0  0  0  0
  152.8507  141.2673  160.0031 H   0  0  0  0  0  0  0  0  0  0  0  0
  148.1133  138.2832  153.1738 H   0  0  0  0  0  0  0  0  0  0  0  0
  146.4537  140.4412  153.0190 H   0  0  0  0  0  0  0  0  0  0  0  0
  147.8519  142.4019  154.3898 H   0  0  0  0  0  0  0  0  0  0  0  0
  1  2  1  0  0  0  0
  1 19  1  0  0  0  0
  1 20  1  0  0  0  0
  1 21  1  0  0  0  0
  2  3  1  0  0  0  0
  2 14  1  0  0  0  0
  2 22  1  0  0  0  0
  3  4  2  0  0  0  0
  3  5  1  0  0  0  0
  5  6  1  0  0  0  0
  5 23  1  0  0  0  0
  6  7  1  0  0  0  0
  6 24  1  0  0  0  0
  6 25  1  0  0  0  0
  7  8  1  0  0  0  0
  7 26  1  0  0  0  0
  7 27  1  0  0  0  0
  8 13  1  0  0  0  0
  8  9  1  0  0  0  0
  9 10  1  0  0  0  0
  9 28  1  0  0  0  0
  9 29  1  0  0  0  0
 10 11  1  0  0  0  0
 10 30  1  0  0  0  0
 10 31  1  0  0  0  0
 11 12  1  0  0  0  0
 12 13  1  0  0  0  0
 12 32  1  0  0  0  0
 12 33  1  0  0  0  0
 13 34  1  0  0  0  0
 13 35  1  0  0  0  0
 14 18  1  0  0  0  0
 14 15  1  0  0  0  0
 15 16  2  0  0  0  0
 15 36  1  0  0  0  0
 16 17  1  0  0  0  0
 16 37  1  0  0  0  0
 17 18  2  0  0  0  0
 17 38  1  0  0  0  0
M  END
> <s_m_source_file>
AV-unprocessed.smi

> <i_m_source_file_index>
3270

> <i_lp_mmshare_version>
43012

> <i_f3d_flags>
0

> <s_epik_input>
bjFbY0hdW2NIXVtjSF1uMVtDQEhdKFtDSDNdKUMoPU8pW05IXVtDSDJdW0NIMl1OMltDSDJdW0NIMl1PW0NIMl1bQ0gyXTI=

> <s_epik_cmdline>
J2VwaWtfcHl0aG9uJywgJy1waCcsICc3LjAnLCAnLXRuJywgJzgnLCAnLW1hJywgJzIwMCcsICctbWV0YWxfYmluZGluZycsICctaW1hZScsICc8aW5maWxlLm1hZT4nLCAnLW9tYWUnLCAnPG91dGZpbGUubWFlPic=

> <r_lp_tautomer_probability>
1

> <r_epik_Ionization_Penalty>
0.203323

> <r_epik_Ionization_Penalty_Charging>
0

> <r_epik_Ionization_Penalty_Neutral>
0.203323

> <r_epik_State_Penalty>
0.193192

> <r_epik_Charging_Adjusted_Penalty>
0.193192

> <i_epik_Tot_Q>
0

> <i_epik_Tot_abs_Q>
0

> <r_epik_Metal_State_Penalty>
0.193187

> <b_epik_Metal_Only>
0

> <s_lp_Force_Field>
OPLS_2005

> <r_lp_Energy>
25.3297

> <b_lp_Chiralities_Consistent>
1

> <s_lp_Variant>
AV-unprocessed.smi:3270-1

> <Gold.Version>
5.8.1

> <Gold.Id.Protein>
6NUR|6NUR_protein|mol2

> <Gold.PLP.Fitness>
43.8784

> <Gold.PLP.PLP>
-36.4815

> <Gold.PLP.part.hbond>
-2.0000

> <Gold.PLP.part.metal>
0.0000

> <Gold.PLP.part.buried>
-2.9667

> <Gold.PLP.part.nonpolar>
-32.0473

> <Gold.PLP.part.repulsive>
0.3940

> <Gold.PLP.ligand.clash>
0.0000

> <Gold.PLP.ligand.torsion>
0.1095

> <Gold.PLP.Chemscore.Hbond>
1.2112

> <Gold.PLP.Chemscore.CHOScore>
1.2887

> <Gold.PLP.Chemscore.Metal>
0.0000

> <Gold.Chemscore.Hbonds>
donor molecule, donor type, donor heavy atom, donor atom, acceptor molecule, acceptor atom, score
      P1  H  7989  7998       L1     4  0.20
      P1  H  7997  8010       L1     4  0.96
      L1  C    15    36       P1  7948  0.93
      L1  C    17    38       P1  8028  0.31

> <Gold.PLP.Chemscore.Internal.Correction>
0.1162

> <Gold.Rescore>
     Score         DG    S(hbond)    S(metal)    S(lipo)     H(rot)  DE(clash)    DE(int)     intcor
     13.22     -14.82       1.00        0.00      91.28       1.83       0.17       1.43       ----

> <Gold.Chemscore.Fitness>
13.2153

> <Gold.Chemscore.DG>
-14.8190

> <Gold.Chemscore.ZeroCoef>
-5.4800

> <Gold.Chemscore.Hbond>
1.0006

> <Gold.Chemscore.Metal>
0.0000

> <Gold.Chemscore.Lipo>
91.2759

> <Gold.Chemscore.Internal_Hbond>
0.0000

> <Gold.Chemscore.DEClash>
0.1746

> <Gold.Chemscore.DEInternal>
1.4291

> <Gold.Chemscore.Rot>
1.8290

> <Gold.Chemscore.Internal.Correction>
   9.000000E+99

> <Gold.Chemscore.Hbonds>
donor molecule, donor type, donor heavy atom, donor atom, acceptor molecule, acceptor atom, score
      P1  H  7989  7998       L1     4  0.01
      P1  H  7997  8010       L1     4  0.91

> <Gold.Chemscore.Hbond.Weighted>
-3.3419

> <Gold.Chemscore.Metal.Weighted>
-0.0000

> <Gold.Chemscore.Lipo.Weighted>
-10.6793

> <Gold.Chemscore.Internal_Hbond.Weighted>
0.0000

> <Gold.Chemscore.DEClash.Weighted>
0.1746

> <Gold.Chemscore.DEInternal.Weighted>
1.4291

> <Gold.Chemscore.Rot.Weighted>
4.6821

> <Gold.Chemscore.Internal.Correction.Weighted>
   9.000000E+99

> <Gold.Protein.RotatedTorsions>
[ 6907 6896 6895 6894 ] final  179.46 input  -60.11 | X-H torsion
[ 7974 7965 7964 7962 ] final  -67.88 input  175.53 | X-H torsion
[ 8008 7997 7996 7995 ] final  104.01 input   59.86 | X-H torsion
[ 10167 10162 10161 10158 ] final  -34.14 input  -65.29 | X-H torsion
[ 10718 10713 10712 10709 ] final -103.02 input   66.30 | X-H torsion
[ 10763 10752 10751 10750 ] final  158.36 input  -60.55 | X-H torsion
[ 11005 11000 10999 10996 ] final  159.00 input  -57.11 | X-H torsion

> <Gold.Protein.ActiveResidues>
 VAL166  LYS551  ARG553  GLY616  TRP617  ASP618  TYR619  PRO620  LYS621  CYS622 
 ASP623  PHE694  ASN695  SER759  ASP760  ASP761  ALA762  ILE779  LEU786  VAL792 
 PHE793  MET794  SER795  GLU796  ALA797  LYS798  CYS799  TRP800  GLU811  SER814 

> <Gold.Protein.RotatedAtoms>
  151.6713  133.3314  159.3196 H   0  0  0  0  0  0  0  0  0  0  0  0  # atno 6907 bound_to 6896
  150.7866  134.6860  159.6480 H   0  0  0  0  0  0  0  0  0  0  0  0  # atno 6908 bound_to 6896
  152.3937  134.6403  160.0149 H   0  0  0  0  0  0  0  0  0  0  0  0  # atno 6909 bound_to 6896
  145.7236  140.9028  143.0617 H   0  0  0  0  0  0  0  0  0  0  0  0  # atno 7974 bound_to 7965
  156.1535  140.3155  155.8687 H   0  0  0  0  0  0  0  0  0  0  0  0  # atno 8008 bound_to 7997
  155.3924  140.0494  157.3057 H   0  0  0  0  0  0  0  0  0  0  0  0  # atno 8009 bound_to 7997
  154.5080  140.2154  155.9224 H   0  0  0  0  0  0  0  0  0  0  0  0  # atno 8010 bound_to 7997
  140.7191  143.3569  151.2041 H   0  0  0  0  0  0  0  0  0  0  0  0  # atno 10167 bound_to 10162
  156.0250  130.5447  150.7192 H   0  0  0  0  0  0  0  0  0  0  0  0  # atno 10718 bound_to 10713
  154.2148  135.2784  155.2946 H   0  0  0  0  0  0  0  0  0  0  0  0  # atno 10763 bound_to 10752
  154.5750  135.5607  153.7134 H   0  0  0  0  0  0  0  0  0  0  0  0  # atno 10764 bound_to 10752
  153.0055  135.6330  154.2287 H   0  0  0  0  0  0  0  0  0  0  0  0  # atno 10765 bound_to 10752
  140.1920  134.8400  157.2922 H   0  0  0  0  0  0  0  0  0  0  0  0  # atno 11005 bound_to 11000
  144.6910  139.9235  143.7469 LP  0  0  0  0  0  0  0  0  0  0  0  0  # atno 17320 bound_to 7965
  146.0603  139.3597  143.0585 LP  0  0  0  0  0  0  0  0  0  0  0  0  # atno 17321 bound_to 7965
  139.7113  143.9372  152.2948 LP  0  0  0  0  0  0  0  0  0  0  0  0  # atno 17342 bound_to 10162
  139.9098  144.6863  150.8574 LP  0  0  0  0  0  0  0  0  0  0  0  0  # atno 17343 bound_to 10162
  157.4812  131.0902  151.0534 LP  0  0  0  0  0  0  0  0  0  0  0  0  # atno 17370 bound_to 10713
  157.0967  130.5965  149.5451 LP  0  0  0  0  0  0  0  0  0  0  0  0  # atno 17371 bound_to 10713
  140.2149  134.4093  155.7594 LP  0  0  0  0  0  0  0  0  0  0  0  0  # atno 17394 bound_to 11000
  141.2226  133.7137  156.8398 LP  0  0  0  0  0  0  0  0  0  0  0  0  # atno 17395 bound_to 11000

$$$$
