AV-unprocessed.smi:215|AV-procd|sdf|1657|dock6
  -GOLD-   2262020 53D 1   1.00000     0.00000
 Structure written by MMmdl.
 59 62  0  0  0  0  0  0  0  0  2 V2000
  149.4270  138.3261  154.2067 C   0  0  0  0  0  0  0  0  0  0  0  0
  148.8569  137.5987  155.4453 C   0  0  1  0  0  0  0  0  0  0  0  0
  148.3074  136.1886  155.1424 C   0  0  1  0  0  0  0  0  0  0  0  0
  147.4637  136.0838  153.9143 N   0  3  1  0  0  0  0  0  0  0  0  0
  146.8345  134.7465  153.7664 C   0  0  0  0  0  0  0  0  0  0  0  0
  146.4630  137.1828  153.8129 C   0  0  0  0  0  0  0  0  0  0  0  0
  145.8372  137.3053  152.4110 C   0  0  0  0  0  0  0  0  0  0  0  0
  145.8725  138.6466  151.9731 O   0  0  0  0  0  0  0  0  0  0  0  0
  149.5880  135.3365  155.1424 C   0  0  0  0  0  0  0  0  0  0  0  0
  150.4792  136.0049  156.1966 C   0  0  0  0  0  0  0  0  0  0  0  0
  149.9032  137.3265  156.4218 N   0  0  0  0  0  0  0  0  0  0  0  0
  150.5543  138.2867  157.1335 C   0  0  0  0  0  0  0  0  0  0  0  0
  151.5681  137.8991  157.9521 N   0  0  0  0  0  0  0  0  0  0  0  0
  152.2497  138.7974  158.6677 C   0  0  0  0  0  0  0  0  0  0  0  0
  152.0810  140.1184  158.7233 N   0  0  0  0  0  0  0  0  0  0  0  0
  151.0551  140.5195  157.9201 C   0  0  0  0  0  0  0  0  0  0  0  0
  150.2481  139.6812  157.0961 C   0  0  0  0  0  0  0  0  0  0  0  0
  149.3134  140.4603  156.4217 N   0  0  0  0  0  0  0  0  0  0  0  0
  149.5615  141.6801  156.8110 C   0  0  0  0  0  0  0  0  0  0  0  0
  150.5742  141.8038  157.7334 N   0  0  0  0  0  0  0  0  0  0  0  0
  151.0771  143.0225  158.2965 C   0  0  0  0  0  0  0  0  0  0  0  0
  152.3808  143.0460  159.0981 C   0  0  0  0  0  0  0  0  0  0  0  0
  151.8140  144.1880  159.9718 C   0  0  0  0  0  0  0  0  0  0  0  0
  152.1494  144.0678  161.4686 C   0  0  0  0  0  0  0  0  0  0  0  0
  151.7889  142.8061  161.9919 O   0  0  0  0  0  0  0  0  0  0  0  0
  152.1929  145.5999  159.4761 C   0  0  0  0  0  0  0  0  0  0  0  0
  151.8112  146.6088  160.3887 O   0  0  0  0  0  0  0  0  0  0  0  0
  150.4321  143.6506  159.5336 C   0  0  0  0  0  0  0  0  0  0  0  0
  148.0691  138.1960  155.9004 H   0  0  0  0  0  0  0  0  0  0  0  0
  147.7006  135.8677  155.9918 H   0  0  0  0  0  0  0  0  0  0  0  0
  148.6472  138.5456  153.4796 H   0  0  0  0  0  0  0  0  0  0  0  0
  150.1944  137.7377  153.7037 H   0  0  0  0  0  0  0  0  0  0  0  0
  149.8787  139.2797  154.4791 H   0  0  0  0  0  0  0  0  0  0  0  0
  146.2040  134.5166  154.6263 H   0  0  0  0  0  0  0  0  0  0  0  0
  147.5840  133.9610  153.6743 H   0  0  0  0  0  0  0  0  0  0  0  0
  146.2177  134.6837  152.8717 H   0  0  0  0  0  0  0  0  0  0  0  0
  145.6824  137.0260  154.5589 H   0  0  0  0  0  0  0  0  0  0  0  0
  146.9166  138.1430  154.0564 H   0  0  0  0  0  0  0  0  0  0  0  0
  146.3250  136.6664  151.6765 H   0  0  0  0  0  0  0  0  0  0  0  0
  144.7935  136.9918  152.4497 H   0  0  0  0  0  0  0  0  0  0  0  0
  145.4658  138.6973  151.1208 H   0  0  0  0  0  0  0  0  0  0  0  0
  149.4014  134.2867  155.3714 H   0  0  0  0  0  0  0  0  0  0  0  0
  150.0800  135.3844  154.1699 H   0  0  0  0  0  0  0  0  0  0  0  0
  150.4589  135.4437  157.1315 H   0  0  0  0  0  0  0  0  0  0  0  0
  151.5132  136.0641  155.8544 H   0  0  0  0  0  0  0  0  0  0  0  0
  153.0432  138.4007  159.2838 H   0  0  0  0  0  0  0  0  0  0  0  0
  149.0033  142.5267  156.4380 H   0  0  0  0  0  0  0  0  0  0  0  0
  151.1144  143.7398  157.4750 H   0  0  0  0  0  0  0  0  0  0  0  0
  152.5422  142.1181  159.6503 H   0  0  0  0  0  0  0  0  0  0  0  0
  153.2641  143.3071  158.5143 H   0  0  0  0  0  0  0  0  0  0  0  0
  153.2195  144.1933  161.6366 H   0  0  0  0  0  0  0  0  0  0  0  0
  151.6554  144.8471  162.0497 H   0  0  0  0  0  0  0  0  0  0  0  0
  152.5123  142.4723  162.4997 H   0  0  0  0  0  0  0  0  0  0  0  0
  153.2656  145.6788  159.2980 H   0  0  0  0  0  0  0  0  0  0  0  0
  151.7133  145.8242  158.5231 H   0  0  0  0  0  0  0  0  0  0  0  0
  152.5298  147.2144  160.4860 H   0  0  0  0  0  0  0  0  0  0  0  0
  149.6857  144.4145  159.3136 H   0  0  0  0  0  0  0  0  0  0  0  0
  150.0327  142.9042  160.2233 H   0  0  0  0  0  0  0  0  0  0  0  0
  148.0929  136.1991  153.1319 H   0  0  0  0  0  0  0  0  0  0  0  0
  1  2  1  0  0  0  0
  1 31  1  0  0  0  0
  1 32  1  0  0  0  0
  1 33  1  0  0  0  0
  2 29  1  0  0  0  0
  2 11  1  0  0  0  0
  2  3  1  0  0  0  0
  3 30  1  0  0  0  0
  3  4  1  0  0  0  0
  3  9  1  0  0  0  0
  4  5  1  0  0  0  0
  4  6  1  0  0  0  0
  4 59  1  0  0  0  0
  5 34  1  0  0  0  0
  5 35  1  0  0  0  0
  5 36  1  0  0  0  0
  6  7  1  0  0  0  0
  6 37  1  0  0  0  0
  6 38  1  0  0  0  0
  7  8  1  0  0  0  0
  7 39  1  0  0  0  0
  7 40  1  0  0  0  0
  8 41  1  0  0  0  0
  9 10  1  0  0  0  0
  9 42  1  0  0  0  0
  9 43  1  0  0  0  0
 10 11  1  0  0  0  0
 10 44  1  0  0  0  0
 10 45  1  0  0  0  0
 11 12  1  0  0  0  0
 12 17  1  0  0  0  0
 12 13  2  0  0  0  0
 13 14  1  0  0  0  0
 14 15  2  0  0  0  0
 14 46  1  0  0  0  0
 15 16  1  0  0  0  0
 16 20  1  0  0  0  0
 16 17  2  0  0  0  0
 17 18  1  0  0  0  0
 18 19  2  0  0  0  0
 19 20  1  0  0  0  0
 19 47  1  0  0  0  0
 20 21  1  0  0  0  0
 21 28  1  0  0  0  0
 21 22  1  0  0  0  0
 21 48  1  0  0  0  0
 22 23  1  0  0  0  0
 22 49  1  0  0  0  0
 22 50  1  0  0  0  0
 23 24  1  0  0  0  0
 23 26  1  0  0  0  0
 23 28  1  0  0  0  0
 24 25  1  0  0  0  0
 24 51  1  0  0  0  0
 24 52  1  0  0  0  0
 25 53  1  0  0  0  0
 26 27  1  0  0  0  0
 26 54  1  0  0  0  0
 26 55  1  0  0  0  0
 27 56  1  0  0  0  0
 28 57  1  0  0  0  0
 28 58  1  0  0  0  0
M  CHG  1   4   1
M  END
> <s_m_source_file>
AV-unprocessed.smi

> <i_m_source_file_index>
215

> <i_lp_mmshare_version>
43012

> <i_f3d_flags>
0

> <s_epik_input>
W09IXVtDSDJdW0NIMl1OKFtDSDNdKVtDQEBIXShbQ0BIXTFbQ0gzXSlbQ0gyXVtDSDJdTjFjKG5bY0hdbjIpYyhjMjMpbltjSF1uM1tDSF0oW0NIMl00KVtDSDJdQzQoW0NIMl1bT0hdKVtDSDJdW09IXQ==

> <s_epik_cmdline>
J2VwaWtfcHl0aG9uJywgJy1waCcsICc3LjAnLCAnLXRuJywgJzgnLCAnLW1hJywgJzIwMCcsICctbWV0YWxfYmluZGluZycsICctaW1hZScsICc8aW5maWxlLm1hZT4nLCAnLW9tYWUnLCAnPG91dGZpbGUubWFlPic=

> <r_lp_tautomer_probability>
1

> <r_epik_Ionization_Penalty>
0.0036237

> <r_epik_Ionization_Penalty_Charging>
0.0032725

> <r_epik_Ionization_Penalty_Neutral>
0.000351196

> <r_epik_State_Penalty>
-0

> <r_epik_Charging_Adjusted_Penalty>
0.0032725

> <i_epik_Tot_Q>
1

> <i_epik_Tot_abs_Q>
1

> <r_epik_Metal_State_Penalty>
-0

> <b_epik_Metal_Only>
0

> <s_lp_Force_Field>
OPLS_2005

> <r_lp_Energy>
65.1718

> <b_lp_Chiralities_Consistent>
1

> <s_lp_Variant>
AV-unprocessed.smi:215-8

> <Gold.Version>
5.8.1

> <Gold.Id.Protein>
6NUR|6NUR_protein|mol2

> <Gold.PLP.Fitness>
55.7790

> <Gold.PLP.PLP>
-43.3261

> <Gold.PLP.part.hbond>
-8.6596

> <Gold.PLP.part.metal>
0.0000

> <Gold.PLP.part.buried>
-5.8793

> <Gold.PLP.part.nonpolar>
-29.0695

> <Gold.PLP.part.repulsive>
0.0338

> <Gold.PLP.ligand.clash>
0.0000

> <Gold.PLP.ligand.torsion>
1.4102

> <Gold.PLP.Chemscore.Hbond>
3.8233

> <Gold.PLP.Chemscore.CHOScore>
1.0000

> <Gold.PLP.Chemscore.Metal>
0.0000

> <Gold.Chemscore.Hbonds>
donor molecule, donor type, donor heavy atom, donor atom, acceptor molecule, acceptor atom, score
      L1  H     4    59       P1  7948  2.00
      L1  H     8    41       P1 10171  0.94
      P1  H  6933  6945       L1    25  0.81
      L1  C    19    47       P1  8028  1.00

> <Gold.PLP.Chemscore.Internal.Correction>
0.8035

> <Gold.Rescore>
     Score         DG    S(hbond)    S(metal)    S(lipo)     H(rot)  DE(clash)    DE(int)     intcor
     10.33     -14.28       2.72        0.00      95.56       4.48       0.60       3.34       ----

> <Gold.Chemscore.Fitness>
10.3344

> <Gold.Chemscore.DG>
-14.2750

> <Gold.Chemscore.ZeroCoef>
-5.4800

> <Gold.Chemscore.Hbond>
2.7187

> <Gold.Chemscore.Metal>
0.0000

> <Gold.Chemscore.Lipo>
95.5567

> <Gold.Chemscore.Internal_Hbond>
0.0000

> <Gold.Chemscore.DEClash>
0.6010

> <Gold.Chemscore.DEInternal>
3.3396

> <Gold.Chemscore.Rot>
4.4787

> <Gold.Chemscore.Internal.Correction>
   9.000000E+99

> <Gold.Chemscore.Hbonds>
donor molecule, donor type, donor heavy atom, donor atom, acceptor molecule, acceptor atom, score
      L1  H     4    59       P1  7948  0.93
      L1  H     8    41       P1 10171  0.88
      P1  H  6933  6945       L1    25  0.67

> <Gold.Chemscore.Hbond.Weighted>
-9.0804

> <Gold.Chemscore.Metal.Weighted>
-0.0000

> <Gold.Chemscore.Lipo.Weighted>
-11.1801

> <Gold.Chemscore.Internal_Hbond.Weighted>
0.0000

> <Gold.Chemscore.DEClash.Weighted>
0.6010

> <Gold.Chemscore.DEInternal.Weighted>
3.3396

> <Gold.Chemscore.Rot.Weighted>
11.4655

> <Gold.Chemscore.Internal.Correction.Weighted>
   9.000000E+99

> <Gold.Protein.RotatedTorsions>
[ 6907 6896 6895 6894 ] final  -53.19 input  -60.11 | X-H torsion
[ 7974 7965 7964 7962 ] final  156.53 input  175.53 | X-H torsion
[ 8008 7997 7996 7995 ] final  -17.40 input   59.86 | X-H torsion
[ 10167 10162 10161 10158 ] final -111.61 input  -65.29 | X-H torsion
[ 10718 10713 10712 10709 ] final  111.28 input   66.30 | X-H torsion
[ 10763 10752 10751 10750 ] final   -2.35 input  -60.55 | X-H torsion
[ 11005 11000 10999 10996 ] final  113.59 input  -57.11 | X-H torsion

> <Gold.Protein.ActiveResidues>
 VAL166  LYS551  ARG553  GLY616  TRP617  ASP618  TYR619  PRO620  LYS621  CYS622 
 ASP623  PHE694  ASN695  SER759  ASP760  ASP761  ALA762  ILE779  LEU786  VAL792 
 PHE793  MET794  SER795  GLU796  ALA797  LYS798  CYS799  TRP800  GLU811  SER814 

> <Gold.Protein.RotatedAtoms>
  150.8449  134.7754  159.6961 H   0  0  0  0  0  0  0  0  0  0  0  0  # atno 6907 bound_to 6896
  152.4528  134.5354  159.9833 H   0  0  0  0  0  0  0  0  0  0  0  0  # atno 6908 bound_to 6896
  151.5486  133.3383  159.2984 H   0  0  0  0  0  0  0  0  0  0  0  0  # atno 6909 bound_to 6896
  144.7957  139.7217  143.6203 H   0  0  0  0  0  0  0  0  0  0  0  0  # atno 7974 bound_to 7965
  154.4981  140.2144  155.9404 H   0  0  0  0  0  0  0  0  0  0  0  0  # atno 8008 bound_to 7997
  156.1398  140.3182  155.8445 H   0  0  0  0  0  0  0  0  0  0  0  0  # atno 8009 bound_to 7997
  155.4142  140.0492  157.3020 H   0  0  0  0  0  0  0  0  0  0  0  0  # atno 8010 bound_to 7997
  140.1317  143.4355  152.1623 H   0  0  0  0  0  0  0  0  0  0  0  0  # atno 10167 bound_to 10162
  157.6452  131.0948  150.6726 H   0  0  0  0  0  0  0  0  0  0  0  0  # atno 10718 bound_to 10713
  153.3568  135.6988  153.6744 H   0  0  0  0  0  0  0  0  0  0  0  0  # atno 10763 bound_to 10752
  153.5448  135.3565  155.2735 H   0  0  0  0  0  0  0  0  0  0  0  0  # atno 10764 bound_to 10752
  154.8662  135.4212  154.2816 H   0  0  0  0  0  0  0  0  0  0  0  0  # atno 10765 bound_to 10752
  139.8957  134.9552  156.6763 H   0  0  0  0  0  0  0  0  0  0  0  0  # atno 11005 bound_to 11000
  146.2225  139.5661  142.9609 LP  0  0  0  0  0  0  0  0  0  0  0  0  # atno 17320 bound_to 7965
  145.5679  141.0397  143.2190 LP  0  0  0  0  0  0  0  0  0  0  0  0  # atno 17321 bound_to 7965
  139.5516  144.7342  151.4417 LP  0  0  0  0  0  0  0  0  0  0  0  0  # atno 17342 bound_to 10162
  140.6813  143.8075  150.7125 LP  0  0  0  0  0  0  0  0  0  0  0  0  # atno 17343 bound_to 10162
  156.7044  130.4633  149.5564 LP  0  0  0  0  0  0  0  0  0  0  0  0  # atno 17370 bound_to 10713
  156.1773  130.6476  151.0909 LP  0  0  0  0  0  0  0  0  0  0  0  0  # atno 17371 bound_to 10713
  140.7334  133.9039  155.8227 LP  0  0  0  0  0  0  0  0  0  0  0  0  # atno 17394 bound_to 11000
  141.0135  134.0988  157.4196 LP  0  0  0  0  0  0  0  0  0  0  0  0  # atno 17395 bound_to 11000

$$$$
