AV-unprocessed.smi:101|AV-procd|sdf|932|dock2
  -GOLD-   2262017443D 1   1.00000     0.00000
 Structure written by MMmdl.
 43 45  0  0  0  0  0  0  0  0  2 V2000
  147.7827  133.1532  152.3871 C   0  0  0  0  0  0  0  0  0  0  0  0
  148.7568  132.9775  153.5389 C   0  0  0  0  0  0  0  0  0  0  0  0
  149.3297  134.0291  154.1659 C   0  0  0  0  0  0  0  0  0  0  0  0
  150.2169  133.8629  155.2162 N   0  0  0  0  0  0  0  0  0  0  0  0
  150.8557  135.0495  155.9146 C   0  0  1  0  0  0  0  0  0  0  0  0
  151.1566  136.0412  154.9734 O   0  0  0  0  0  0  0  0  0  0  0  0
  150.2923  137.1579  155.1486 C   0  0  2  0  0  0  0  0  0  0  0  0
  150.9653  138.4127  154.5790 C   0  0  0  0  0  0  0  0  0  0  0  0
  150.7620  139.5052  155.4601 O   0  0  0  0  0  0  0  0  0  0  0  0
  151.7139  139.8393  156.3519 C   0  0  0  0  0  0  0  0  0  0  0  0
  152.7843  139.2384  156.4642 O   0  0  0  0  0  0  0  0  0  0  0  0
  151.3370  141.0143  157.1899 C   0  0  0  0  0  0  0  0  0  0  0  0
  151.9974  141.2269  158.4226 C   0  0  0  0  0  0  0  0  0  0  0  0
  151.6611  142.3260  159.2367 C   0  0  0  0  0  0  0  0  0  0  0  0
  150.6588  143.2252  158.8289 C   0  0  0  0  0  0  0  0  0  0  0  0
  149.9935  143.0244  157.6054 C   0  0  0  0  0  0  0  0  0  0  0  0
  150.3295  141.9265  156.7891 C   0  0  0  0  0  0  0  0  0  0  0  0
  150.0836  137.1755  156.6618 C   0  0  1  0  0  0  0  0  0  0  0  0
  148.9688  137.9458  157.0710 O   0  0  0  0  0  0  0  0  0  0  0  0
  149.9395  135.6921  156.9851 C   0  0  1  0  0  0  0  0  0  0  0  0
  148.5873  135.2639  156.9055 O   0  0  0  0  0  0  0  0  0  0  0  0
  150.5370  132.5543  155.6622 C   0  0  0  0  0  0  0  0  0  0  0  0
  151.3135  132.4438  156.6115 O   0  0  0  0  0  0  0  0  0  0  0  0
  149.9667  131.4874  155.0339 N   0  5  0  0  0  0  0  0  0  0  0  0
  149.0930  131.6236  153.9954 C   0  0  0  0  0  0  0  0  0  0  0  0
  148.5840  130.6517  153.4379 O   0  0  0  0  0  0  0  0  0  0  0  0
  147.6359  134.2070  152.1485 H   0  0  0  0  0  0  0  0  0  0  0  0
  146.8121  132.7261  152.6409 H   0  0  0  0  0  0  0  0  0  0  0  0
  148.1560  132.6531  151.4928 H   0  0  0  0  0  0  0  0  0  0  0  0
  149.0787  135.0229  153.8293 H   0  0  0  0  0  0  0  0  0  0  0  0
  151.8013  134.6819  156.3167 H   0  0  0  0  0  0  0  0  0  0  0  0
  149.3516  136.9576  154.6326 H   0  0  0  0  0  0  0  0  0  0  0  0
  152.0314  138.2367  154.4290 H   0  0  0  0  0  0  0  0  0  0  0  0
  150.5332  138.6542  153.6069 H   0  0  0  0  0  0  0  0  0  0  0  0
  152.7701  140.5495  158.7571 H   0  0  0  0  0  0  0  0  0  0  0  0
  152.1731  142.4787  160.1755 H   0  0  0  0  0  0  0  0  0  0  0  0
  150.4004  144.0675  159.4539 H   0  0  0  0  0  0  0  0  0  0  0  0
  149.2229  143.7130  157.2918 H   0  0  0  0  0  0  0  0  0  0  0  0
  149.7975  141.8003  155.8572 H   0  0  0  0  0  0  0  0  0  0  0  0
  150.9801  137.5646  157.1466 H   0  0  0  0  0  0  0  0  0  0  0  0
  149.1507  138.8522  156.8731 H   0  0  0  0  0  0  0  0  0  0  0  0
  150.3188  135.4582  157.9805 H   0  0  0  0  0  0  0  0  0  0  0  0
  148.2318  135.2449  157.7816 H   0  0  0  0  0  0  0  0  0  0  0  0
  1  2  1  0  0  0  0
  1 27  1  0  0  0  0
  1 28  1  0  0  0  0
  1 29  1  0  0  0  0
  2 25  1  0  0  0  0
  2  3  2  0  0  0  0
  3  4  1  0  0  0  0
  3 30  1  0  0  0  0
  4  5  1  0  0  0  0
  4 22  1  0  0  0  0
  5 20  1  0  0  0  0
  5  6  1  0  0  0  0
  5 31  1  0  0  0  0
  6  7  1  0  0  0  0
  7  8  1  0  0  0  0
  7 18  1  0  0  0  0
  7 32  1  0  0  0  0
  8  9  1  0  0  0  0
  8 33  1  0  0  0  0
  8 34  1  0  0  0  0
  9 10  1  0  0  0  0
 10 11  2  0  0  0  0
 10 12  1  0  0  0  0
 12 17  1  0  0  0  0
 12 13  2  0  0  0  0
 13 14  1  0  0  0  0
 13 35  1  0  0  0  0
 14 15  2  0  0  0  0
 14 36  1  0  0  0  0
 15 16  1  0  0  0  0
 15 37  1  0  0  0  0
 16 17  2  0  0  0  0
 16 38  1  0  0  0  0
 17 39  1  0  0  0  0
 18 19  1  0  0  0  0
 18 20  1  0  0  0  0
 18 40  1  0  0  0  0
 19 41  1  0  0  0  0
 20 21  1  0  0  0  0
 20 42  1  0  0  0  0
 21 43  1  0  0  0  0
 22 23  2  0  0  0  0
 22 24  1  0  0  0  0
 24 25  1  0  0  0  0
 25 26  2  0  0  0  0
M  CHG  1  24  -1
M  END
> <s_m_source_file>
AV-unprocessed.smi

> <i_m_source_file_index>
101

> <i_lp_mmshare_version>
43012

> <i_f3d_flags>
0

> <s_epik_input>
Tz1jMVtuSF1jKD1PKW4oW2NIXWMxW0NIM10pW0NAQEhdMk9bQ0BIXShbQ0BASF0oW09IXSlbQ0BIXTJbT0hdKVtDSDJdT0MoPU8pYzNbY0hdW2NIXVtjSF1bY0hdW2NIXTM=

> <s_epik_cmdline>
J2VwaWtfcHl0aG9uJywgJy1waCcsICc3LjAnLCAnLXRuJywgJzgnLCAnLW1hJywgJzIwMCcsICctbWV0YWxfYmluZGluZycsICctaW1hZScsICc8aW5maWxlLm1hZT4nLCAnLW9tYWUnLCAnPG91dGZpbGUubWFlPic=

> <r_lp_tautomer_probability>
0.999537

> <r_epik_Ionization_Penalty>
3.21006

> <r_epik_Ionization_Penalty_Charging>
5.75142e-08

> <r_epik_Ionization_Penalty_Neutral>
3.21006

> <r_epik_State_Penalty>
3.20925

> <r_epik_Charging_Adjusted_Penalty>
3.20925

> <i_epik_Tot_Q>
-1

> <i_epik_Tot_abs_Q>
1

> <r_epik_Metal_State_Penalty>
0.119957

> <b_epik_Metal_Only>
1

> <s_epik_Chemistry_Notes>
This compound has an ester and may undergo hydrolysis at high or low pH. This compound contains an acetal/aminal-like group ( X-CH(R)-Y where X, Y are N, S, or O) that may be acid/base labile, releasing an aldehyde.

> <s_lp_Force_Field>
OPLS_2005

> <r_lp_Energy>
48.7646

> <b_lp_Chiralities_Consistent>
1

> <s_lp_Variant>
AV-unprocessed.smi:101-20

> <Gold.Version>
5.8.1

> <Gold.Id.Protein>
6NUR|6NUR_protein|mol2

> <Gold.PLP.Fitness>
45.7893

> <Gold.PLP.PLP>
-39.8490

> <Gold.PLP.part.hbond>
-2.0000

> <Gold.PLP.part.metal>
0.0000

> <Gold.PLP.part.buried>
-4.4955

> <Gold.PLP.part.nonpolar>
-32.5903

> <Gold.PLP.part.repulsive>
0.2551

> <Gold.PLP.ligand.clash>
0.0000

> <Gold.PLP.ligand.torsion>
1.6112

> <Gold.PLP.Chemscore.Hbond>
2.0000

> <Gold.PLP.Chemscore.CHOScore>
1.0000

> <Gold.PLP.Chemscore.Metal>
0.0000

> <Gold.Chemscore.Hbonds>
donor molecule, donor type, donor heavy atom, donor atom, acceptor molecule, acceptor atom, score
      P1  H  7997  8009       L1    11  1.00
      P1  H 10752 10763       L1     6  0.80
      L1  C     3    30       P1  7948  1.00

> <Gold.PLP.Chemscore.Internal.Correction>
0.1626

> <Gold.Rescore>
     Score         DG    S(hbond)    S(metal)    S(lipo)     H(rot)  DE(clash)    DE(int)     intcor
     12.15     -16.33       2.76        0.00      85.48       3.27       1.36       2.81       ----

> <Gold.Chemscore.Fitness>
12.1474

> <Gold.Chemscore.DG>
-16.3254

> <Gold.Chemscore.ZeroCoef>
-5.4800

> <Gold.Chemscore.Hbond>
2.7556

> <Gold.Chemscore.Metal>
0.0000

> <Gold.Chemscore.Lipo>
85.4835

> <Gold.Chemscore.Internal_Hbond>
0.0000

> <Gold.Chemscore.DEClash>
1.3633

> <Gold.Chemscore.DEInternal>
2.8147

> <Gold.Chemscore.Rot>
3.2656

> <Gold.Chemscore.Internal.Correction>
   9.000000E+99

> <Gold.Chemscore.Hbonds>
donor molecule, donor type, donor heavy atom, donor atom, acceptor molecule, acceptor atom, score
      P1  H  7997  8009       L1    11  0.99
      P1  H 10752 10763       L1     6  0.12

> <Gold.Chemscore.Hbond.Weighted>
-9.2037

> <Gold.Chemscore.Metal.Weighted>
-0.0000

> <Gold.Chemscore.Lipo.Weighted>
-10.0016

> <Gold.Chemscore.Internal_Hbond.Weighted>
0.0000

> <Gold.Chemscore.DEClash.Weighted>
1.3633

> <Gold.Chemscore.DEInternal.Weighted>
2.8147

> <Gold.Chemscore.Rot.Weighted>
8.3598

> <Gold.Chemscore.Internal.Correction.Weighted>
   9.000000E+99

> <Gold.Protein.RotatedTorsions>
[ 6907 6896 6895 6894 ] final  -28.63 input  -60.11 | X-H torsion
[ 7974 7965 7964 7962 ] final  -41.40 input  175.53 | X-H torsion
[ 8008 7997 7996 7995 ] final -179.75 input   59.86 | X-H torsion
[ 10167 10162 10161 10158 ] final   59.02 input  -65.29 | X-H torsion
[ 10718 10713 10712 10709 ] final -164.83 input   66.30 | X-H torsion
[ 10763 10752 10751 10750 ] final   69.94 input  -60.55 | X-H torsion
[ 11005 11000 10999 10996 ] final -121.64 input  -57.11 | X-H torsion

> <Gold.Protein.ActiveResidues>
 VAL166  LYS551  ARG553  GLY616  TRP617  ASP618  TYR619  PRO620  LYS621  CYS622 
 ASP623  PHE694  ASN695  SER759  ASP760  ASP761  ALA762  ILE779  LEU786  VAL792 
 PHE793  MET794  SER795  GLU796  ALA797  LYS798  CYS799  TRP800  GLU811  SER814 

> <Gold.Protein.RotatedAtoms>
  151.1303  135.0127  159.8579 H   0  0  0  0  0  0  0  0  0  0  0  0  # atno 6907 bound_to 6896
  152.5451  134.1618  159.8571 H   0  0  0  0  0  0  0  0  0  0  0  0  # atno 6908 bound_to 6896
  151.1684  133.4755  159.2627 H   0  0  0  0  0  0  0  0  0  0  0  0  # atno 6909 bound_to 6896
  146.0215  140.6844  142.9176 H   0  0  0  0  0  0  0  0  0  0  0  0  # atno 7974 bound_to 7965
  156.0341  140.1289  157.0226 H   0  0  0  0  0  0  0  0  0  0  0  0  # atno 8008 bound_to 7997
  154.4362  140.1043  156.6213 H   0  0  0  0  0  0  0  0  0  0  0  0  # atno 8009 bound_to 7997
  155.5763  140.3467  155.4530 H   0  0  0  0  0  0  0  0  0  0  0  0  # atno 8010 bound_to 7997
  140.1809  144.4182  150.6615 H   0  0  0  0  0  0  0  0  0  0  0  0  # atno 10167 bound_to 10162
  156.6446  130.8982  151.3002 H   0  0  0  0  0  0  0  0  0  0  0  0  # atno 10718 bound_to 10713
  153.0314  135.5192  154.7365 H   0  0  0  0  0  0  0  0  0  0  0  0  # atno 10763 bound_to 10752
  154.6377  135.2908  155.0143 H   0  0  0  0  0  0  0  0  0  0  0  0  # atno 10764 bound_to 10752
  154.1072  135.6627  153.4931 H   0  0  0  0  0  0  0  0  0  0  0  0  # atno 10765 bound_to 10752
  141.0055  134.0341  157.3483 H   0  0  0  0  0  0  0  0  0  0  0  0  # atno 11005 bound_to 11000
  144.6992  140.3574  143.7170 LP  0  0  0  0  0  0  0  0  0  0  0  0  # atno 17320 bound_to 7965
  145.7186  139.1703  143.2497 LP  0  0  0  0  0  0  0  0  0  0  0  0  # atno 17321 bound_to 7965
  140.6520  143.2227  151.6056 LP  0  0  0  0  0  0  0  0  0  0  0  0  # atno 17342 bound_to 10162
  139.5296  144.2954  152.1117 LP  0  0  0  0  0  0  0  0  0  0  0  0  # atno 17343 bound_to 10162
  157.7160  130.9498  150.1258 LP  0  0  0  0  0  0  0  0  0  0  0  0  # atno 17370 bound_to 10713
  156.2132  130.3668  149.8645 LP  0  0  0  0  0  0  0  0  0  0  0  0  # atno 17371 bound_to 10713
  139.9061  135.0179  156.7491 LP  0  0  0  0  0  0  0  0  0  0  0  0  # atno 17394 bound_to 11000
  140.6820  133.9466  155.7916 LP  0  0  0  0  0  0  0  0  0  0  0  0  # atno 17395 bound_to 11000

$$$$
