AV-unprocessed.smi:2442|AV-procd|sdf|9624|dock9
  -GOLD-   2272013253D 1   1.00000     0.00000
 Structure written by MMmdl.
 46 47  0  0  0  0  0  0  0  0  1 V2000
  149.0780  145.1426  160.6977 C   0  0  0  0  0  0  0  0  0  0  0  0
  149.5990  144.2768  159.7016 O   0  0  0  0  0  0  0  0  0  0  0  0
  150.8503  144.6916  159.1611 C   0  0  1  0  0  0  0  0  0  0  0  0
  151.8375  145.0595  160.2894 C   0  0  0  0  0  0  0  0  0  0  0  0
  152.2144  143.8371  161.1426 C   0  0  0  0  0  0  0  0  0  0  0  0
  152.7775  142.7034  160.2724 C   0  0  0  0  0  0  0  0  0  0  0  0
  151.7955  142.3207  159.1540 C   0  0  0  0  0  0  0  0  0  0  0  0
  151.4173  143.5421  158.2936 C   0  0  1  0  0  0  0  0  0  0  0  0
  150.4699  143.1431  157.2557 N   0  0  0  0  0  0  0  0  0  0  0  0
  150.5301  142.0059  156.5497 C   0  0  0  0  0  0  0  0  0  0  0  0
  151.3961  141.1435  156.7013 O   0  0  0  0  0  0  0  0  0  0  0  0
  149.5398  141.9243  155.6504 N   0  0  0  0  0  0  0  0  0  0  0  0
  149.3605  140.8201  154.7156 C   0  0  0  0  0  0  0  0  0  0  0  0
  148.2006  141.0920  153.7436 C   0  0  0  0  0  0  0  0  0  0  0  0
  147.0186  141.7547  154.4328 C   0  0  0  0  0  0  0  0  0  0  0  0
  146.4895  142.9524  153.9079 C   0  0  0  0  0  0  0  0  0  0  0  0
  145.3974  143.5549  154.5627 C   0  0  0  0  0  0  0  0  0  0  0  0
  144.8258  143.0444  155.6729 N   0  0  0  0  0  0  0  0  0  0  0  0
  145.3350  141.8994  156.1742 C   0  0  0  0  0  0  0  0  0  0  0  0
  146.4273  141.2126  155.6009 C   0  0  0  0  0  0  0  0  0  0  0  0
  146.9316  139.9302  156.2393 C   0  0  0  0  0  0  0  0  0  0  0  0
  148.1175  144.7603  161.0428 H   0  0  0  0  0  0  0  0  0  0  0  0
  148.9135  146.1453  160.3011 H   0  0  0  0  0  0  0  0  0  0  0  0
  149.7378  145.2113  161.5622 H   0  0  0  0  0  0  0  0  0  0  0  0
  150.7005  145.5652  158.5241 H   0  0  0  0  0  0  0  0  0  0  0  0
  152.7430  145.4757  159.8461 H   0  0  0  0  0  0  0  0  0  0  0  0
  151.4295  145.8452  160.9242 H   0  0  0  0  0  0  0  0  0  0  0  0
  152.9469  144.1239  161.8976 H   0  0  0  0  0  0  0  0  0  0  0  0
  151.3362  143.4826  161.6839 H   0  0  0  0  0  0  0  0  0  0  0  0
  153.7264  143.0154  159.8343 H   0  0  0  0  0  0  0  0  0  0  0  0
  152.9941  141.8323  160.8915 H   0  0  0  0  0  0  0  0  0  0  0  0
  152.2400  141.5456  158.5289 H   0  0  0  0  0  0  0  0  0  0  0  0
  150.8982  141.8840  159.5949 H   0  0  0  0  0  0  0  0  0  0  0  0
  152.3272  143.8961  157.8047 H   0  0  0  0  0  0  0  0  0  0  0  0
  149.7236  143.7914  157.0513 H   0  0  0  0  0  0  0  0  0  0  0  0
  148.8755  142.6828  155.5982 H   0  0  0  0  0  0  0  0  0  0  0  0
  150.2881  140.6433  154.1688 H   0  0  0  0  0  0  0  0  0  0  0  0
  149.1632  139.9129  155.2872 H   0  0  0  0  0  0  0  0  0  0  0  0
  148.5442  141.7384  152.9347 H   0  0  0  0  0  0  0  0  0  0  0  0
  147.8774  140.1685  153.2635 H   0  0  0  0  0  0  0  0  0  0  0  0
  146.9114  143.4044  153.0223 H   0  0  0  0  0  0  0  0  0  0  0  0
  144.9716  144.4725  154.1842 H   0  0  0  0  0  0  0  0  0  0  0  0
  144.8532  141.5202  157.0635 H   0  0  0  0  0  0  0  0  0  0  0  0
  146.4438  139.7480  157.1973 H   0  0  0  0  0  0  0  0  0  0  0  0
  148.0057  139.9809  156.4172 H   0  0  0  0  0  0  0  0  0  0  0  0
  146.7276  139.0783  155.5904 H   0  0  0  0  0  0  0  0  0  0  0  0
  1  2  1  0  0  0  0
  1 22  1  0  0  0  0
  1 23  1  0  0  0  0
  1 24  1  0  0  0  0
  2  3  1  0  0  0  0
  3  8  1  0  0  0  0
  3  4  1  0  0  0  0
  3 25  1  0  0  0  0
  4  5  1  0  0  0  0
  4 26  1  0  0  0  0
  4 27  1  0  0  0  0
  5  6  1  0  0  0  0
  5 28  1  0  0  0  0
  5 29  1  0  0  0  0
  6  7  1  0  0  0  0
  6 30  1  0  0  0  0
  6 31  1  0  0  0  0
  7  8  1  0  0  0  0
  7 32  1  0  0  0  0
  7 33  1  0  0  0  0
  8  9  1  0  0  0  0
  8 34  1  0  0  0  0
  9 10  1  0  0  0  0
  9 35  1  0  0  0  0
 10 11  2  0  0  0  0
 10 12  1  0  0  0  0
 12 13  1  0  0  0  0
 12 36  1  0  0  0  0
 13 14  1  0  0  0  0
 13 37  1  0  0  0  0
 13 38  1  0  0  0  0
 14 15  1  0  0  0  0
 14 39  1  0  0  0  0
 14 40  1  0  0  0  0
 15 20  1  0  0  0  0
 15 16  2  0  0  0  0
 16 17  1  0  0  0  0
 16 41  1  0  0  0  0
 17 18  2  0  0  0  0
 17 42  1  0  0  0  0
 18 19  1  0  0  0  0
 19 20  2  0  0  0  0
 19 43  1  0  0  0  0
 20 21  1  0  0  0  0
 21 44  1  0  0  0  0
 21 45  1  0  0  0  0
 21 46  1  0  0  0  0
M  END
> <s_m_source_file>
AV-unprocessed.smi

> <i_m_source_file_index>
2442

> <i_lp_mmshare_version>
43012

> <i_f3d_flags>
0

> <s_epik_input>
W0NIM11PW0NAQEhdMVtDSDJdW0NIMl1bQ0gyXVtDSDJdW0NASF0xW05IXUMoPU8pW05IXVtDSDJdW0NIMl1jMltjSF1bY0hdbltjSF1jMltDSDNd

> <s_epik_cmdline>
J2VwaWtfcHl0aG9uJywgJy1waCcsICc3LjAnLCAnLXRuJywgJzgnLCAnLW1hJywgJzIwMCcsICctbWV0YWxfYmluZGluZycsICctaW1hZScsICc8aW5maWxlLm1hZT4nLCAnLW9tYWUnLCAnPG91dGZpbGUubWFlPic=

> <r_epik_Ionization_Penalty>
0.106136

> <r_epik_Ionization_Penalty_Charging>
0

> <r_epik_Ionization_Penalty_Neutral>
0.106136

> <r_epik_State_Penalty>
0.0959393

> <r_epik_Charging_Adjusted_Penalty>
0.0959393

> <i_epik_Tot_Q>
0

> <i_epik_Tot_abs_Q>
0

> <r_epik_Metal_State_Penalty>
0.0812517

> <b_epik_Metal_Only>
0

> <s_lp_Force_Field>
OPLS_2005

> <r_lp_Energy>
9.97505

> <b_lp_Chiralities_Consistent>
1

> <s_lp_Variant>
AV-unprocessed.smi:2442-2

> <Gold.Version>
5.8.1

> <Gold.Id.Protein>
6NUR|6NUR_protein|mol2

> <Gold.PLP.Fitness>
49.7131

> <Gold.PLP.PLP>
-45.5347

> <Gold.PLP.part.hbond>
-2.0000

> <Gold.PLP.part.metal>
0.0000

> <Gold.PLP.part.buried>
-7.0347

> <Gold.PLP.part.nonpolar>
-37.7724

> <Gold.PLP.part.repulsive>
0.4868

> <Gold.PLP.ligand.clash>
0.0098

> <Gold.PLP.ligand.torsion>
0.4541

> <Gold.PLP.Chemscore.Hbond>
1.6800

> <Gold.PLP.Chemscore.CHOScore>
0.0000

> <Gold.PLP.Chemscore.Metal>
0.0000

> <Gold.Chemscore.Hbonds>
donor molecule, donor type, donor heavy atom, donor atom, acceptor molecule, acceptor atom, score
      L1  H     9    35       P1  8028  0.88
      L1  H    12    36       P1  8028  0.78

> <Gold.PLP.Chemscore.Internal.Correction>
0.0564

> <Gold.Rescore>
     Score         DG    S(hbond)    S(metal)    S(lipo)     H(rot)  DE(clash)    DE(int)     intcor
     18.42     -20.43       1.77        0.00     113.08       1.64       0.18       1.82       ----

> <Gold.Chemscore.Fitness>
18.4212

> <Gold.Chemscore.DG>
-20.4262

> <Gold.Chemscore.ZeroCoef>
-5.4800

> <Gold.Chemscore.Hbond>
1.7694

> <Gold.Chemscore.Metal>
0.0000

> <Gold.Chemscore.Lipo>
113.0758

> <Gold.Chemscore.Internal_Hbond>
0.0000

> <Gold.Chemscore.DEClash>
0.1846

> <Gold.Chemscore.DEInternal>
1.8205

> <Gold.Chemscore.Rot>
1.6380

> <Gold.Chemscore.Internal.Correction>
   9.000000E+99

> <Gold.Chemscore.Hbonds>
donor molecule, donor type, donor heavy atom, donor atom, acceptor molecule, acceptor atom, score
      L1  H     9    35       P1  8028  0.78
      L1  H    12    36       P1  8028  0.72

> <Gold.Chemscore.Hbond.Weighted>
-5.9098

> <Gold.Chemscore.Metal.Weighted>
-0.0000

> <Gold.Chemscore.Lipo.Weighted>
-13.2299

> <Gold.Chemscore.Internal_Hbond.Weighted>
0.0000

> <Gold.Chemscore.DEClash.Weighted>
0.1846

> <Gold.Chemscore.DEInternal.Weighted>
1.8205

> <Gold.Chemscore.Rot.Weighted>
4.1934

> <Gold.Chemscore.Internal.Correction.Weighted>
   9.000000E+99

> <Gold.Protein.RotatedTorsions>
[ 6907 6896 6895 6894 ] final -125.60 input  -60.11 | X-H torsion
[ 7974 7965 7964 7962 ] final -179.66 input  175.53 | X-H torsion
[ 8008 7997 7996 7995 ] final  -60.96 input   59.86 | X-H torsion
[ 10167 10162 10161 10158 ] final  159.57 input  -65.29 | X-H torsion
[ 10718 10713 10712 10709 ] final -153.19 input   66.30 | X-H torsion
[ 10763 10752 10751 10750 ] final   20.90 input  -60.55 | X-H torsion
[ 11005 11000 10999 10996 ] final -174.28 input  -57.11 | X-H torsion

> <Gold.Protein.ActiveResidues>
 VAL166  LYS551  ARG553  GLY616  TRP617  ASP618  TYR619  PRO620  LYS621  CYS622 
 ASP623  PHE694  ASN695  SER759  ASP760  ASP761  ALA762  ILE779  LEU786  VAL792 
 PHE793  MET794  SER795  GLU796  ALA797  LYS798  CYS799  TRP800  GLU811  SER814 

> <Gold.Protein.RotatedAtoms>
  150.8884  133.7276  159.2911 H   0  0  0  0  0  0  0  0  0  0  0  0  # atno 6907 bound_to 6896
  151.4834  135.1052  159.9793 H   0  0  0  0  0  0  0  0  0  0  0  0  # atno 6908 bound_to 6896
  152.4805  133.8195  159.7101 H   0  0  0  0  0  0  0  0  0  0  0  0  # atno 6909 bound_to 6896
  144.7138  140.0684  143.6430 H   0  0  0  0  0  0  0  0  0  0  0  0  # atno 7974 bound_to 7965
  154.4424  140.1028  156.6356 H   0  0  0  0  0  0  0  0  0  0  0  0  # atno 8008 bound_to 7997
  155.5557  140.3486  155.4460 H   0  0  0  0  0  0  0  0  0  0  0  0  # atno 8009 bound_to 7997
  156.0497  140.1301  157.0054 H   0  0  0  0  0  0  0  0  0  0  0  0  # atno 8010 bound_to 7997
  139.4833  144.4718  151.8566 H   0  0  0  0  0  0  0  0  0  0  0  0  # atno 10167 bound_to 10162
  156.4825  130.8309  151.2536 H   0  0  0  0  0  0  0  0  0  0  0  0  # atno 10718 bound_to 10713
  153.1039  135.6679  153.9623 H   0  0  0  0  0  0  0  0  0  0  0  0  # atno 10763 bound_to 10752
  153.9185  135.3017  155.3449 H   0  0  0  0  0  0  0  0  0  0  0  0  # atno 10764 bound_to 10752
  154.7460  135.5057  153.9280 H   0  0  0  0  0  0  0  0  0  0  0  0  # atno 10765 bound_to 10752
  140.4763  134.6118  157.4902 H   0  0  0  0  0  0  0  0  0  0  0  0  # atno 11005 bound_to 11000
  145.9805  139.2937  143.1045 LP  0  0  0  0  0  0  0  0  0  0  0  0  # atno 17320 bound_to 7965
  145.9016  140.9239  143.0500 LP  0  0  0  0  0  0  0  0  0  0  0  0  # atno 17321 bound_to 7965
  140.4187  144.2272  150.5887 LP  0  0  0  0  0  0  0  0  0  0  0  0  # atno 17342 bound_to 10162
  140.4895  143.2352  151.8839 LP  0  0  0  0  0  0  0  0  0  0  0  0  # atno 17343 bound_to 10162
  157.7482  131.0040  150.3060 LP  0  0  0  0  0  0  0  0  0  0  0  0  # atno 17370 bound_to 10713
  156.3508  130.3830  149.7331 LP  0  0  0  0  0  0  0  0  0  0  0  0  # atno 17371 bound_to 10713
  139.9854  134.7070  155.9784 LP  0  0  0  0  0  0  0  0  0  0  0  0  # atno 17394 bound_to 11000
  141.1553  133.6543  156.4141 LP  0  0  0  0  0  0  0  0  0  0  0  0  # atno 17395 bound_to 11000

$$$$
