AV-unprocessed.smi:48|AV-procd|sdf|447|dock10
  -GOLD-   2262016313D 1   1.00000     0.00000
 Structure written by MMmdl.
 30 32  0  0  0  0  0  0  0  0  1 V2000
  149.0179  142.5307  157.2506 O   0  0  0  0  0  0  0  0  0  0  0  0
  149.4307  141.4640  156.4235 C   0  0  0  0  0  0  0  0  0  0  0  0
  148.2765  141.0292  155.5077 C   0  0  1  0  0  0  0  0  0  0  0  0
  147.0384  141.4696  156.0520 O   0  0  0  0  0  0  0  0  0  0  0  0
  146.0848  141.5428  155.0382 C   0  0  1  0  0  0  0  0  0  0  0  0
  145.2592  142.7652  155.2742 N   0  0  0  0  0  0  0  0  0  0  0  0
  144.5951  143.1012  156.3989 C   0  0  0  0  0  0  0  0  0  0  0  0
  143.9209  144.2505  156.3940 N   0  0  0  0  0  0  0  0  0  0  0  0
  144.1859  144.7205  155.1183 C   0  0  0  0  0  0  0  0  0  0  0  0
  143.7933  145.8920  154.4265 C   0  0  0  0  0  0  0  0  0  0  0  0
  142.7806  147.0700  155.1776 Cl  0  0  0  0  0  0  0  0  0  0  0  0
  144.2309  146.0686  153.1569 N   0  0  0  0  0  0  0  0  0  0  0  0
  145.0154  145.1388  152.5985 C   0  0  0  0  0  0  0  0  0  0  0  0
  145.4625  143.9917  153.1223 N   0  0  0  0  0  0  0  0  0  0  0  0
  145.0199  143.8152  154.4022 C   0  0  0  0  0  0  0  0  0  0  0  0
  146.8296  141.6252  153.6944 C   0  0  2  0  0  0  0  0  0  0  0  0
  146.5773  140.4742  152.9089 O   0  0  0  0  0  0  0  0  0  0  0  0
  148.2889  141.7146  154.1405 C   0  0  2  0  0  0  0  0  0  0  0  0
  149.1968  141.1179  153.2328 O   0  0  0  0  0  0  0  0  0  0  0  0
  148.2532  139.9451  155.3787 H   0  0  0  0  0  0  0  0  0  0  0  0
  145.3841  140.7087  155.1038 H   0  0  0  0  0  0  0  0  0  0  0  0
  146.5304  142.5080  153.1274 H   0  0  0  0  0  0  0  0  0  0  0  0
  148.5629  142.7630  154.2605 H   0  0  0  0  0  0  0  0  0  0  0  0
  148.9987  143.3216  156.7337 H   0  0  0  0  0  0  0  0  0  0  0  0
  150.3107  141.7479  155.8455 H   0  0  0  0  0  0  0  0  0  0  0  0
  149.7231  140.6401  157.0751 H   0  0  0  0  0  0  0  0  0  0  0  0
  144.6043  142.4648  157.2718 H   0  0  0  0  0  0  0  0  0  0  0  0
  145.3294  145.3410  151.5851 H   0  0  0  0  0  0  0  0  0  0  0  0
  145.6526  140.2831  152.9420 H   0  0  0  0  0  0  0  0  0  0  0  0
  148.7443  140.4346  152.7627 H   0  0  0  0  0  0  0  0  0  0  0  0
  1  2  1  0  0  0  0
  1 24  1  0  0  0  0
  2  3  1  0  0  0  0
  2 25  1  0  0  0  0
  2 26  1  0  0  0  0
  3 20  1  0  0  0  0
  3 18  1  0  0  0  0
  3  4  1  0  0  0  0
  4  5  1  0  0  0  0
  5 21  1  0  0  0  0
  5  6  1  0  0  0  0
  5 16  1  0  0  0  0
  6 15  1  0  0  0  0
  6  7  1  0  0  0  0
  7  8  2  0  0  0  0
  7 27  1  0  0  0  0
  8  9  1  0  0  0  0
  9 15  2  0  0  0  0
  9 10  1  0  0  0  0
 10 11  1  0  0  0  0
 10 12  2  0  0  0  0
 12 13  1  0  0  0  0
 13 14  2  0  0  0  0
 13 28  1  0  0  0  0
 14 15  1  0  0  0  0
 16 22  1  0  0  0  0
 16 17  1  0  0  0  0
 16 18  1  0  0  0  0
 17 29  1  0  0  0  0
 18 23  1  0  0  0  0
 18 19  1  0  0  0  0
 19 30  1  0  0  0  0
M  END
> <s_m_source_file>
AV-unprocessed.smi

> <i_m_source_file_index>
48

> <i_lp_mmshare_version>
43012

> <i_f3d_flags>
0

> <s_epik_input>
W09IXVtDSDJdW0NASF0xT1tDQEhdKFtDQEhdKFtPSF0pW0NAQEhdMVtPSF0pbihbY0hdbjIpYyhjMjMpbltjSF1uYzNDbA==

> <s_epik_cmdline>
J2VwaWtfcHl0aG9uJywgJy1waCcsICc3LjAnLCAnLXRuJywgJzgnLCAnLW1hJywgJzIwMCcsICctbWV0YWxfYmluZGluZycsICctaW1hZScsICc8aW5maWxlLm1hZT4nLCAnLW9tYWUnLCAnPG91dGZpbGUubWFlPic=

> <r_lp_tautomer_probability>
1

> <r_epik_Ionization_Penalty>
3.45505e-06

> <r_epik_Ionization_Penalty_Charging>
0

> <r_epik_Ionization_Penalty_Neutral>
3.45505e-06

> <r_epik_State_Penalty>
-0

> <r_epik_Charging_Adjusted_Penalty>
0

> <i_epik_Tot_Q>
0

> <i_epik_Tot_abs_Q>
0

> <r_epik_Metal_State_Penalty>
-0

> <b_epik_Metal_Only>
0

> <s_epik_Chemistry_Notes>
This compound contains an acetal/aminal-like group ( X-CH(R)-Y where X, Y are N, S, or O) that may be acid/base labile, releasing an aldehyde.

> <s_lp_Force_Field>
OPLS_2005

> <r_lp_Energy>
36.5243

> <b_lp_Chiralities_Consistent>
1

> <s_lp_Variant>
AV-unprocessed.smi:48-1

> <Gold.Version>
5.8.1

> <Gold.Id.Protein>
6NUR|6NUR_protein|mol2

> <Gold.PLP.Fitness>
45.9038

> <Gold.PLP.PLP>
-37.3572

> <Gold.PLP.part.hbond>
-6.5672

> <Gold.PLP.part.metal>
0.0000

> <Gold.PLP.part.buried>
-6.8042

> <Gold.PLP.part.nonpolar>
-25.2380

> <Gold.PLP.part.repulsive>
0.4375

> <Gold.PLP.ligand.clash>
0.0000

> <Gold.PLP.ligand.torsion>
0.5776

> <Gold.PLP.Chemscore.Hbond>
3.2287

> <Gold.PLP.Chemscore.CHOScore>
0.0000

> <Gold.PLP.Chemscore.Metal>
0.0000

> <Gold.Chemscore.Hbonds>
donor molecule, donor type, donor heavy atom, donor atom, acceptor molecule, acceptor atom, score
      L1  H     1    24       P1  8028  1.00
      L1  H    17    29       P1 10175  1.00
      L1  H    19    30       P1  7957  0.22
      P1  H  8011  8017       L1    19  1.00

> <Gold.PLP.Chemscore.Internal.Correction>
0.0157

> <Gold.Rescore>
     Score         DG    S(hbond)    S(metal)    S(lipo)     H(rot)  DE(clash)    DE(int)     intcor
      6.63     -10.15       2.69        0.00      46.34       3.80       1.59       1.92       ----

> <Gold.Chemscore.Fitness>
6.6315

> <Gold.Chemscore.DG>
-10.1480

> <Gold.Chemscore.ZeroCoef>
-5.4800

> <Gold.Chemscore.Hbond>
2.6882

> <Gold.Chemscore.Metal>
0.0000

> <Gold.Chemscore.Lipo>
46.3393

> <Gold.Chemscore.Internal_Hbond>
0.0000

> <Gold.Chemscore.DEClash>
1.5923

> <Gold.Chemscore.DEInternal>
1.9242

> <Gold.Chemscore.Rot>
3.8017

> <Gold.Chemscore.Internal.Correction>
   9.000000E+99

> <Gold.Chemscore.Hbonds>
donor molecule, donor type, donor heavy atom, donor atom, acceptor molecule, acceptor atom, score
      L1  H     1    24       P1  8028  0.91
      L1  H    17    29       P1 10175  0.87
      L1  H    19    30       P1  7957  0.22
      P1  H  7989  7998       L1    19  0.01
      P1  H  8011  8017       L1    19  0.47

> <Gold.Chemscore.Hbond.Weighted>
-8.9787

> <Gold.Chemscore.Metal.Weighted>
-0.0000

> <Gold.Chemscore.Lipo.Weighted>
-5.4217

> <Gold.Chemscore.Internal_Hbond.Weighted>
0.0000

> <Gold.Chemscore.DEClash.Weighted>
1.5923

> <Gold.Chemscore.DEInternal.Weighted>
1.9242

> <Gold.Chemscore.Rot.Weighted>
9.7324

> <Gold.Chemscore.Internal.Correction.Weighted>
   9.000000E+99

> <Gold.Protein.RotatedTorsions>
[ 6907 6896 6895 6894 ] final  -54.36 input  -60.11 | X-H torsion
[ 7974 7965 7964 7962 ] final  121.05 input  175.53 | X-H torsion
[ 8008 7997 7996 7995 ] final  -67.96 input   59.86 | X-H torsion
[ 10167 10162 10161 10158 ] final   60.09 input  -65.29 | X-H torsion
[ 10718 10713 10712 10709 ] final   91.01 input   66.30 | X-H torsion
[ 10763 10752 10751 10750 ] final  -71.71 input  -60.55 | X-H torsion
[ 11005 11000 10999 10996 ] final  117.04 input  -57.11 | X-H torsion

> <Gold.Protein.ActiveResidues>
 VAL166  LYS551  ARG553  GLY616  TRP617  ASP618  TYR619  PRO620  LYS621  CYS622 
 ASP623  PHE694  ASN695  SER759  ASP760  ASP761  ALA762  ILE779  LEU786  VAL792 
 PHE793  MET794  SER795  GLU796  ALA797  LYS798  CYS799  TRP800  GLU811  SER814 

> <Gold.Protein.RotatedAtoms>
  150.8345  134.7612  159.6880 H   0  0  0  0  0  0  0  0  0  0  0  0  # atno 6907 bound_to 6896
  152.4444  134.5522  159.9880 H   0  0  0  0  0  0  0  0  0  0  0  0  # atno 6908 bound_to 6896
  151.5675  133.3357  159.3019 H   0  0  0  0  0  0  0  0  0  0  0  0  # atno 6909 bound_to 6896
  145.1239  139.3371  143.4700 H   0  0  0  0  0  0  0  0  0  0  0  0  # atno 7974 bound_to 7965
  154.4835  140.0882  156.7433 H   0  0  0  0  0  0  0  0  0  0  0  0  # atno 8008 bound_to 7997
  155.4409  140.3453  155.4271 H   0  0  0  0  0  0  0  0  0  0  0  0  # atno 8009 bound_to 7997
  156.1227  140.1479  156.9169 H   0  0  0  0  0  0  0  0  0  0  0  0  # atno 8010 bound_to 7997
  140.1694  144.4292  150.6669 H   0  0  0  0  0  0  0  0  0  0  0  0  # atno 10167 bound_to 10162
  157.6960  131.0392  150.3665 H   0  0  0  0  0  0  0  0  0  0  0  0  # atno 10718 bound_to 10713
  154.4355  135.5953  153.6096 H   0  0  0  0  0  0  0  0  0  0  0  0  # atno 10763 bound_to 10752
  152.9801  135.5985  154.3787 H   0  0  0  0  0  0  0  0  0  0  0  0  # atno 10764 bound_to 10752
  154.3630  135.2841  155.2288 H   0  0  0  0  0  0  0  0  0  0  0  0  # atno 10765 bound_to 10752
  139.9061  134.9605  156.7291 H   0  0  0  0  0  0  0  0  0  0  0  0  # atno 11005 bound_to 11000
  146.3519  140.1210  142.8600 LP  0  0  0  0  0  0  0  0  0  0  0  0  # atno 17320 bound_to 7965
  145.0709  140.9155  143.4882 LP  0  0  0  0  0  0  0  0  0  0  0  0  # atno 17321 bound_to 7965
  140.6592  143.2247  151.5897 LP  0  0  0  0  0  0  0  0  0  0  0  0  # atno 17342 bound_to 10162
  139.5345  144.2821  152.1221 LP  0  0  0  0  0  0  0  0  0  0  0  0  # atno 17343 bound_to 10162
  156.4095  130.3931  149.6902 LP  0  0  0  0  0  0  0  0  0  0  0  0  # atno 17370 bound_to 10713
  156.4191  130.7760  151.2776 LP  0  0  0  0  0  0  0  0  0  0  0  0  # atno 17371 bound_to 10713
  140.6940  133.9365  155.7983 LP  0  0  0  0  0  0  0  0  0  0  0  0  # atno 17394 bound_to 11000
  141.0421  134.0606  157.3889 LP  0  0  0  0  0  0  0  0  0  0  0  0  # atno 17395 bound_to 11000

$$$$
