AV-unprocessed.smi:109|AV-procd|sdf|1031|dock4
  -GOLD-   2262018 33D 1   1.00000     0.00000
 Structure written by MMmdl.
 58 61  0  0  0  0  0  0  0  0  1 V2000
  153.5036  139.0906  157.4994 O   0  0  0  0  0  0  0  0  0  0  0  0
  153.4504  139.5590  158.8296 C   0  0  0  0  0  0  0  0  0  0  0  0
  151.9946  139.5574  159.3271 C   0  0  0  0  0  0  0  0  0  0  0  0
  151.0654  140.5396  158.5719 C   0  0  2  0  0  0  0  0  0  0  0  0
  151.2991  140.4203  157.1308 N   0  0  0  0  0  0  0  0  0  0  0  0
  150.3875  139.8773  156.2925 C   0  0  0  0  0  0  0  0  0  0  0  0
  150.5952  139.8280  154.9510 N   0  0  0  0  0  0  0  0  0  0  0  0
  149.6730  139.2874  154.1498 C   0  0  0  0  0  0  0  0  0  0  0  0
  148.4959  138.7507  154.4771 N   0  0  0  0  0  0  0  0  0  0  0  0
  148.2803  138.7973  155.8237 C   0  0  0  0  0  0  0  0  0  0  0  0
  149.1722  139.3403  156.7902 C   0  0  0  0  0  0  0  0  0  0  0  0
  148.6236  139.2152  158.0596 N   0  0  0  0  0  0  0  0  0  0  0  0
  147.4748  138.6298  157.8507 C   0  0  0  0  0  0  0  0  0  0  0  0
  147.1867  138.3457  156.5341 N   0  0  0  0  0  0  0  0  0  0  0  0
  145.9598  137.6866  155.9920 C   0  0  2  0  0  0  0  0  0  0  0  0
  146.3107  136.4086  155.5582 O   0  0  0  0  0  0  0  0  0  0  0  0
  145.6648  136.1278  154.3223 C   0  0  2  0  0  0  0  0  0  0  0  0
  146.4510  135.0517  153.5577 C   0  0  0  0  0  0  0  0  0  0  0  0
  147.8326  135.1897  153.8123 O   0  0  0  0  0  0  0  0  0  0  0  0
  145.6660  137.4931  153.6326 C   0  0  1  0  0  0  0  0  0  0  0  0
  144.7100  137.5844  152.5926 O   0  0  0  0  0  0  0  0  0  0  0  0
  145.4056  138.4617  154.7848 C   0  0  1  0  0  0  0  0  0  0  0  0
  144.0266  138.7356  154.9538 O   0  0  0  0  0  0  0  0  0  0  0  0
  151.2448  142.0236  159.0042 C   0  0  0  0  0  0  0  0  0  0  0  0
  150.3436  143.0015  158.2085 C   0  0  0  0  0  0  0  0  0  0  0  0
  150.5646  144.4686  158.6135 C   0  0  0  0  0  0  0  0  0  0  0  0
  152.0355  144.8758  158.4663 C   0  0  0  0  0  0  0  0  0  0  0  0
  152.9364  143.9370  159.2767 C   0  0  0  0  0  0  0  0  0  0  0  0
  152.7229  142.4726  158.8637 C   0  0  0  0  0  0  0  0  0  0  0  0
  145.2720  137.6360  156.8376 H   0  0  0  0  0  0  0  0  0  0  0  0
  144.6370  135.8117  154.5140 H   0  0  0  0  0  0  0  0  0  0  0  0
  146.6521  137.6913  153.2127 H   0  0  0  0  0  0  0  0  0  0  0  0
  145.9344  139.4055  154.6437 H   0  0  0  0  0  0  0  0  0  0  0  0
  152.6284  139.0979  157.1431 H   0  0  0  0  0  0  0  0  0  0  0  0
  154.0809  138.9185  159.4463 H   0  0  0  0  0  0  0  0  0  0  0  0
  153.8681  140.5655  158.8671 H   0  0  0  0  0  0  0  0  0  0  0  0
  151.6265  138.5391  159.2144 H   0  0  0  0  0  0  0  0  0  0  0  0
  151.9708  139.7765  160.3955 H   0  0  0  0  0  0  0  0  0  0  0  0
  150.0377  140.2727  158.8172 H   0  0  0  0  0  0  0  0  0  0  0  0
  152.1748  140.8020  156.8027 H   0  0  0  0  0  0  0  0  0  0  0  0
  149.9123  139.2842  153.0966 H   0  0  0  0  0  0  0  0  0  0  0  0
  146.7990  138.3903  158.6588 H   0  0  0  0  0  0  0  0  0  0  0  0
  146.1547  134.0583  153.8956 H   0  0  0  0  0  0  0  0  0  0  0  0
  146.2530  135.1015  152.4866 H   0  0  0  0  0  0  0  0  0  0  0  0
  148.2074  135.7439  153.1450 H   0  0  0  0  0  0  0  0  0  0  0  0
  144.6257  138.4921  152.3433 H   0  0  0  0  0  0  0  0  0  0  0  0
  143.6681  138.9886  154.1167 H   0  0  0  0  0  0  0  0  0  0  0  0
  150.9697  142.1029  160.0573 H   0  0  0  0  0  0  0  0  0  0  0  0
  150.5307  142.8869  157.1399 H   0  0  0  0  0  0  0  0  0  0  0  0
  149.2901  142.7758  158.3657 H   0  0  0  0  0  0  0  0  0  0  0  0
  149.9377  145.1194  158.0032 H   0  0  0  0  0  0  0  0  0  0  0  0
  150.2466  144.6144  159.6466 H   0  0  0  0  0  0  0  0  0  0  0  0
  152.3227  144.8451  157.4144 H   0  0  0  0  0  0  0  0  0  0  0  0
  152.1744  145.9053  158.7972 H   0  0  0  0  0  0  0  0  0  0  0  0
  153.9818  144.2135  159.1360 H   0  0  0  0  0  0  0  0  0  0  0  0
  152.7260  144.0523  160.3407 H   0  0  0  0  0  0  0  0  0  0  0  0
  153.3773  141.8496  159.4737 H   0  0  0  0  0  0  0  0  0  0  0  0
  153.0495  142.3372  157.8315 H   0  0  0  0  0  0  0  0  0  0  0  0
  1  2  1  0  0  0  0
  1 34  1  0  0  0  0
  2  3  1  0  0  0  0
  2 35  1  0  0  0  0
  2 36  1  0  0  0  0
  3  4  1  0  0  0  0
  3 37  1  0  0  0  0
  3 38  1  0  0  0  0
  4  5  1  0  0  0  0
  4 24  1  0  0  0  0
  4 39  1  0  0  0  0
  5  6  1  0  0  0  0
  5 40  1  0  0  0  0
  6 11  1  0  0  0  0
  6  7  2  0  0  0  0
  7  8  1  0  0  0  0
  8  9  2  0  0  0  0
  8 41  1  0  0  0  0
  9 10  1  0  0  0  0
 10 14  1  0  0  0  0
 10 11  2  0  0  0  0
 11 12  1  0  0  0  0
 12 13  2  0  0  0  0
 13 14  1  0  0  0  0
 13 42  1  0  0  0  0
 14 15  1  0  0  0  0
 15 30  1  0  0  0  0
 15 22  1  0  0  0  0
 15 16  1  0  0  0  0
 16 17  1  0  0  0  0
 17 31  1  0  0  0  0
 17 18  1  0  0  0  0
 17 20  1  0  0  0  0
 18 19  1  0  0  0  0
 18 43  1  0  0  0  0
 18 44  1  0  0  0  0
 19 45  1  0  0  0  0
 20 32  1  0  0  0  0
 20 21  1  0  0  0  0
 20 22  1  0  0  0  0
 21 46  1  0  0  0  0
 22 33  1  0  0  0  0
 22 23  1  0  0  0  0
 23 47  1  0  0  0  0
 24 29  1  0  0  0  0
 24 25  1  0  0  0  0
 24 48  1  0  0  0  0
 25 26  1  0  0  0  0
 25 49  1  0  0  0  0
 25 50  1  0  0  0  0
 26 27  1  0  0  0  0
 26 51  1  0  0  0  0
 26 52  1  0  0  0  0
 27 28  1  0  0  0  0
 27 53  1  0  0  0  0
 27 54  1  0  0  0  0
 28 29  1  0  0  0  0
 28 55  1  0  0  0  0
 28 56  1  0  0  0  0
 29 57  1  0  0  0  0
 29 58  1  0  0  0  0
M  END
> <s_m_source_file>
AV-unprocessed.smi

> <i_m_source_file_index>
109

> <i_lp_mmshare_version>
43012

> <i_f3d_flags>
0

> <s_epik_input>
W0NIMl0xW0NIMl1bQ0gyXVtDSDJdW0NIMl1bQ0hdMVtDQEhdKFtDSDJdW0NIMl1bT0hdKVtOSF1jKG5bY0hdbjIpYyhjMjMpbltjSF1uM1tDQEBIXTRPW0NASF0oW0NIMl1bT0hdKVtDQEBIXShbT0hdKVtDQEhdNFtPSF0=

> <s_epik_cmdline>
J2VwaWtfcHl0aG9uJywgJy1waCcsICc3LjAnLCAnLXRuJywgJzgnLCAnLW1hJywgJzIwMCcsICctbWV0YWxfYmluZGluZycsICctaW1hZScsICc8aW5maWxlLm1hZT4nLCAnLW9tYWUnLCAnPG91dGZpbGUubWFlPic=

> <r_lp_tautomer_probability>
1

> <r_epik_Ionization_Penalty>
0.000793976

> <r_epik_Ionization_Penalty_Charging>
0

> <r_epik_Ionization_Penalty_Neutral>
0.000793976

> <r_epik_State_Penalty>
-0

> <r_epik_Charging_Adjusted_Penalty>
0

> <i_epik_Tot_Q>
0

> <i_epik_Tot_abs_Q>
0

> <r_epik_Metal_State_Penalty>
-0

> <b_epik_Metal_Only>
0

> <s_epik_Chemistry_Notes>
This compound contains an acetal/aminal-like group ( X-CH(R)-Y where X, Y are N, S, or O) that may be acid/base labile, releasing an aldehyde.

> <s_lp_Force_Field>
OPLS_2005

> <r_lp_Energy>
54.5538

> <b_lp_Chiralities_Consistent>
1

> <s_lp_Variant>
AV-unprocessed.smi:109-1

> <Gold.Version>
5.8.1

> <Gold.Id.Protein>
6NUR|6NUR_protein|mol2

> <Gold.PLP.Fitness>
50.8305

> <Gold.PLP.PLP>
-34.7474

> <Gold.PLP.part.hbond>
-5.9367

> <Gold.PLP.part.metal>
0.0000

> <Gold.PLP.part.buried>
-3.9621

> <Gold.PLP.part.nonpolar>
-25.1562

> <Gold.PLP.part.repulsive>
0.2918

> <Gold.PLP.ligand.clash>
0.0000

> <Gold.PLP.ligand.torsion>
0.7127

> <Gold.PLP.Chemscore.Hbond>
4.7866

> <Gold.PLP.Chemscore.CHOScore>
0.9833

> <Gold.PLP.Chemscore.Metal>
0.0000

> <Gold.Chemscore.Hbonds>
donor molecule, donor type, donor heavy atom, donor atom, acceptor molecule, acceptor atom, score
      L1  H    19    45       P1  7948  1.00
      L1  H    21    46       P1 10175  0.63
      L1  H    23    47       P1 10175  0.57
      P1  H  7989  7998       L1     7  0.77
      P1  H  7997  8009       L1     1  0.93
      L1  C     8    41       P1  7957  1.00

> <Gold.PLP.Chemscore.Internal.Correction>
0.1990

> <Gold.Rescore>
     Score         DG    S(hbond)    S(metal)    S(lipo)     H(rot)  DE(clash)    DE(int)     intcor
     10.66     -13.39       3.52        0.00      86.80       5.47       0.05       2.67       ----

> <Gold.Chemscore.Fitness>
10.6637

> <Gold.Chemscore.DG>
-13.3871

> <Gold.Chemscore.ZeroCoef>
-5.4800

> <Gold.Chemscore.Hbond>
3.5165

> <Gold.Chemscore.Metal>
0.0000

> <Gold.Chemscore.Lipo>
86.7997

> <Gold.Chemscore.Internal_Hbond>
0.0000

> <Gold.Chemscore.DEClash>
0.0510

> <Gold.Chemscore.DEInternal>
2.6724

> <Gold.Chemscore.Rot>
5.4662

> <Gold.Chemscore.Internal.Correction>
   9.000000E+99

> <Gold.Chemscore.Hbonds>
donor molecule, donor type, donor heavy atom, donor atom, acceptor molecule, acceptor atom, score
      L1  H    19    45       P1  7948  0.95
      L1  H    21    46       P1 10175  0.61
      L1  H    23    47       P1 10175  0.56
      P1  H  7989  7998       L1     7  0.13
      P1  H  7997  8009       L1     1  0.33

> <Gold.Chemscore.Hbond.Weighted>
-11.7451

> <Gold.Chemscore.Metal.Weighted>
-0.0000

> <Gold.Chemscore.Lipo.Weighted>
-10.1556

> <Gold.Chemscore.Internal_Hbond.Weighted>
0.0000

> <Gold.Chemscore.DEClash.Weighted>
0.0510

> <Gold.Chemscore.DEInternal.Weighted>
2.6724

> <Gold.Chemscore.Rot.Weighted>
13.9935

> <Gold.Chemscore.Internal.Correction.Weighted>
   9.000000E+99

> <Gold.Protein.RotatedTorsions>
[ 6907 6896 6895 6894 ] final  101.93 input  -60.11 | X-H torsion
[ 7974 7965 7964 7962 ] final   10.44 input  175.53 | X-H torsion
[ 8008 7997 7996 7995 ] final  167.23 input   59.86 | X-H torsion
[ 10167 10162 10161 10158 ] final   28.11 input  -65.29 | X-H torsion
[ 10718 10713 10712 10709 ] final  159.41 input   66.30 | X-H torsion
[ 10763 10752 10751 10750 ] final -113.79 input  -60.55 | X-H torsion
[ 11005 11000 10999 10996 ] final   81.09 input  -57.11 | X-H torsion

> <Gold.Protein.ActiveResidues>
 VAL166  LYS551  ARG553  GLY616  TRP617  ASP618  TYR619  PRO620  LYS621  CYS622 
 ASP623  PHE694  ASN695  SER759  ASP760  ASP761  ALA762  ILE779  LEU786  VAL792 
 PHE793  MET794  SER795  GLU796  ALA797  LYS798  CYS799  TRP800  GLU811  SER814 

> <Gold.Protein.RotatedAtoms>
  152.5337  134.0052  159.7912 H   0  0  0  0  0  0  0  0  0  0  0  0  # atno 6907 bound_to 6896
  151.0264  133.5822  159.2672 H   0  0  0  0  0  0  0  0  0  0  0  0  # atno 6908 bound_to 6896
  151.2843  135.0730  159.9234 H   0  0  0  0  0  0  0  0  0  0  0  0  # atno 6909 bound_to 6896
  146.2388  139.9633  142.8456 H   0  0  0  0  0  0  0  0  0  0  0  0  # atno 7974 bound_to 7965
  156.1651  140.1622  156.8545 H   0  0  0  0  0  0  0  0  0  0  0  0  # atno 8008 bound_to 7997
  154.5200  140.0780  156.8188 H   0  0  0  0  0  0  0  0  0  0  0  0  # atno 8009 bound_to 7997
  155.3627  140.3396  155.4243 H   0  0  0  0  0  0  0  0  0  0  0  0  # atno 8010 bound_to 7997
  140.4881  144.0510  150.6287 H   0  0  0  0  0  0  0  0  0  0  0  0  # atno 10167 bound_to 10162
  157.1645  131.0595  151.2215 H   0  0  0  0  0  0  0  0  0  0  0  0  # atno 10718 bound_to 10713
  154.8412  135.4441  154.1404 H   0  0  0  0  0  0  0  0  0  0  0  0  # atno 10763 bound_to 10752
  153.2591  135.6934  153.7604 H   0  0  0  0  0  0  0  0  0  0  0  0  # atno 10764 bound_to 10752
  153.6887  135.3391  155.3172 H   0  0  0  0  0  0  0  0  0  0  0  0  # atno 10765 bound_to 10752
  139.9111  134.7970  156.1995 H   0  0  0  0  0  0  0  0  0  0  0  0  # atno 11005 bound_to 11000
  145.1750  140.9739  143.4299 LP  0  0  0  0  0  0  0  0  0  0  0  0  # atno 17320 bound_to 7965
  144.9994  139.3613  143.6175 LP  0  0  0  0  0  0  0  0  0  0  0  0  # atno 17321 bound_to 7965
  140.3771  143.2822  152.0212 LP  0  0  0  0  0  0  0  0  0  0  0  0  # atno 17342 bound_to 10162
  139.4846  144.6184  151.7302 LP  0  0  0  0  0  0  0  0  0  0  0  0  # atno 17343 bound_to 10162
  157.4101  130.7380  149.6833 LP  0  0  0  0  0  0  0  0  0  0  0  0  # atno 17370 bound_to 10713
  155.9748  130.4097  150.3894 LP  0  0  0  0  0  0  0  0  0  0  0  0  # atno 17371 bound_to 10713
  141.0534  133.6877  156.1814 LP  0  0  0  0  0  0  0  0  0  0  0  0  # atno 17394 bound_to 11000
  140.6775  134.4802  157.5588 LP  0  0  0  0  0  0  0  0  0  0  0  0  # atno 17395 bound_to 11000

$$$$
