AV-unprocessed.smi:99|AV-procd|sdf|896|dock10
  -GOLD-   2262017393D 1   1.00000     0.00000
 Structure written by MMmdl.
 52 55  0  0  0  0  0  0  0  0  2 V2000
  146.2696  133.8304  157.6974 O   0  0  0  0  0  0  0  0  0  0  0  0
  146.9679  133.4350  158.6328 C   0  0  0  0  0  0  0  0  0  0  0  0
  147.9721  132.5483  158.4940 O   0  0  0  0  0  0  0  0  0  0  0  0
  148.5129  132.2605  157.2145 C   0  0  0  0  0  0  0  0  0  0  0  0
  148.9382  133.5756  156.5491 C   0  0  1  0  0  0  0  0  0  0  0  0
  150.0342  134.1458  157.2567 O   0  0  0  0  0  0  0  0  0  0  0  0
  150.7712  134.9826  156.4075 C   0  0  2  0  0  0  0  0  0  0  0  0
  150.6120  136.4236  156.8544 N   0  0  0  0  0  0  0  0  0  0  0  0
  149.8097  136.7643  157.9315 C   0  0  0  0  0  0  0  0  0  0  0  0
  149.6689  138.0476  158.3227 C   0  0  0  0  0  0  0  0  0  0  0  0
  150.3745  139.1005  157.5975 C   0  0  0  0  0  0  0  0  0  0  0  0
  150.2433  140.2666  157.9640 O   0  0  0  0  0  0  0  0  0  0  0  0
  151.1522  138.7396  156.5363 N   0  5  0  0  0  0  0  0  0  0  0  0
  151.2932  137.4425  156.1355 C   0  0  0  0  0  0  0  0  0  0  0  0
  151.9775  137.1050  155.1690 O   0  0  0  0  0  0  0  0  0  0  0  0
  150.2676  134.7356  154.9642 C   0  0  2  0  0  0  0  0  0  0  0  0
  149.4108  135.7665  154.4947 O   0  0  0  0  0  0  0  0  0  0  0  0
  149.5156  133.4254  155.1426 C   0  0  2  0  0  0  0  0  0  0  0  0
  148.5465  133.2181  154.1179 O   0  0  0  0  0  0  0  0  0  0  0  0
  147.9971  132.0028  153.9040 C   0  0  0  0  0  0  0  0  0  0  0  0
  148.1781  131.0277  154.6359 O   0  0  0  0  0  0  0  0  0  0  0  0
  147.1073  131.9757  152.7084 C   0  0  0  0  0  0  0  0  0  0  0  0
  147.0675  133.0985  151.8492 C   0  0  0  0  0  0  0  0  0  0  0  0
  146.2567  133.0918  150.6978 C   0  0  0  0  0  0  0  0  0  0  0  0
  145.4733  131.9635  150.3936 C   0  0  0  0  0  0  0  0  0  0  0  0
  145.5013  130.8419  151.2425 C   0  0  0  0  0  0  0  0  0  0  0  0
  146.3132  130.8458  152.3934 C   0  0  0  0  0  0  0  0  0  0  0  0
  146.8096  133.9076  160.0386 C   0  0  0  0  0  0  0  0  0  0  0  0
  145.8358  134.8894  160.3352 C   0  0  0  0  0  0  0  0  0  0  0  0
  145.6809  135.3716  161.6495 C   0  0  0  0  0  0  0  0  0  0  0  0
  146.4978  134.8781  162.6831 C   0  0  0  0  0  0  0  0  0  0  0  0
  147.4673  133.8981  162.4018 C   0  0  0  0  0  0  0  0  0  0  0  0
  147.6219  133.4132  161.0889 C   0  0  0  0  0  0  0  0  0  0  0  0
  149.3737  131.6026  157.3373 H   0  0  0  0  0  0  0  0  0  0  0  0
  147.7891  131.7425  156.5834 H   0  0  0  0  0  0  0  0  0  0  0  0
  148.1129  134.2897  156.5515 H   0  0  0  0  0  0  0  0  0  0  0  0
  151.8268  134.7428  156.5464 H   0  0  0  0  0  0  0  0  0  0  0  0
  149.2762  136.0016  158.4774 H   0  0  0  0  0  0  0  0  0  0  0  0
  149.0381  138.2957  159.1636 H   0  0  0  0  0  0  0  0  0  0  0  0
  151.1137  134.6356  154.2840 H   0  0  0  0  0  0  0  0  0  0  0  0
  149.2235  135.6021  153.5825 H   0  0  0  0  0  0  0  0  0  0  0  0
  150.2554  132.6234  155.1551 H   0  0  0  0  0  0  0  0  0  0  0  0
  147.6666  133.9731  152.0582 H   0  0  0  0  0  0  0  0  0  0  0  0
  146.2389  133.9528  150.0462 H   0  0  0  0  0  0  0  0  0  0  0  0
  144.8519  131.9579  149.5103 H   0  0  0  0  0  0  0  0  0  0  0  0
  144.8996  129.9756  151.0109 H   0  0  0  0  0  0  0  0  0  0  0  0
  146.3136  129.9679  153.0227 H   0  0  0  0  0  0  0  0  0  0  0  0
  145.2015  135.2884  159.5567 H   0  0  0  0  0  0  0  0  0  0  0  0
  144.9358  136.1237  161.8635 H   0  0  0  0  0  0  0  0  0  0  0  0
  146.3816  135.2508  163.6899 H   0  0  0  0  0  0  0  0  0  0  0  0
  148.0983  133.5204  163.1927 H   0  0  0  0  0  0  0  0  0  0  0  0
  148.3812  132.6667  160.9071 H   0  0  0  0  0  0  0  0  0  0  0  0
  1  2  2  0  0  0  0
  2  3  1  0  0  0  0
  2 28  1  0  0  0  0
  3  4  1  0  0  0  0
  4  5  1  0  0  0  0
  4 34  1  0  0  0  0
  4 35  1  0  0  0  0
  5 18  1  0  0  0  0
  5  6  1  0  0  0  0
  5 36  1  0  0  0  0
  6  7  1  0  0  0  0
  7  8  1  0  0  0  0
  7 16  1  0  0  0  0
  7 37  1  0  0  0  0
  8 14  1  0  0  0  0
  8  9  1  0  0  0  0
  9 10  2  0  0  0  0
  9 38  1  0  0  0  0
 10 11  1  0  0  0  0
 10 39  1  0  0  0  0
 11 12  2  0  0  0  0
 11 13  1  0  0  0  0
 13 14  1  0  0  0  0
 14 15  2  0  0  0  0
 16 17  1  0  0  0  0
 16 18  1  0  0  0  0
 16 40  1  0  0  0  0
 17 41  1  0  0  0  0
 18 19  1  0  0  0  0
 18 42  1  0  0  0  0
 19 20  1  0  0  0  0
 20 21  2  0  0  0  0
 20 22  1  0  0  0  0
 22 27  1  0  0  0  0
 22 23  2  0  0  0  0
 23 24  1  0  0  0  0
 23 43  1  0  0  0  0
 24 25  2  0  0  0  0
 24 44  1  0  0  0  0
 25 26  1  0  0  0  0
 25 45  1  0  0  0  0
 26 27  2  0  0  0  0
 26 46  1  0  0  0  0
 27 47  1  0  0  0  0
 28 33  1  0  0  0  0
 28 29  2  0  0  0  0
 29 30  1  0  0  0  0
 29 48  1  0  0  0  0
 30 31  2  0  0  0  0
 30 49  1  0  0  0  0
 31 32  1  0  0  0  0
 31 50  1  0  0  0  0
 32 33  2  0  0  0  0
 32 51  1  0  0  0  0
 33 52  1  0  0  0  0
M  CHG  1  13  -1
M  END
> <s_m_source_file>
AV-unprocessed.smi

> <i_m_source_file_index>
99

> <i_lp_mmshare_version>
43012

> <i_f3d_flags>
0

> <s_epik_input>
W2NIXTFbY0hdW2NIXVtjSF1bY0hdYzFDKD1PKU9bQ0gyXVtDQEBIXTJPW0NAQEhdKG4zW2NIXVtjSF1jKD1PKVtuSF1jMz1PKVtDQEBIXShbT0hdKVtDQEhdMk9DKD1PKWM0W2NIXVtjSF1bY0hdW2NIXVtjSF00

> <s_epik_cmdline>
J2VwaWtfcHl0aG9uJywgJy1waCcsICc3LjAnLCAnLXRuJywgJzgnLCAnLW1hJywgJzIwMCcsICctbWV0YWxfYmluZGluZycsICctaW1hZScsICc8aW5maWxlLm1hZT4nLCAnLW9tYWUnLCAnPG91dGZpbGUubWFlPic=

> <r_lp_tautomer_probability>
1

> <r_epik_Ionization_Penalty>
2.89159

> <r_epik_Ionization_Penalty_Charging>
2.1077e-08

> <r_epik_Ionization_Penalty_Neutral>
2.89159

> <r_epik_State_Penalty>
2.88671

> <r_epik_Charging_Adjusted_Penalty>
2.88671

> <i_epik_Tot_Q>
-1

> <i_epik_Tot_abs_Q>
1

> <r_epik_Metal_State_Penalty>
0.0727308

> <b_epik_Metal_Only>
1

> <s_epik_Chemistry_Notes>
This compound has an ester and may undergo hydrolysis at high or low pH. This compound contains an acetal/aminal-like group ( X-CH(R)-Y where X, Y are N, S, or O) that may be acid/base labile, releasing an aldehyde.

> <s_lp_Force_Field>
OPLS_2005

> <r_lp_Energy>
52.3549

> <b_lp_Chiralities_Consistent>
1

> <s_lp_Variant>
AV-unprocessed.smi:99-32

> <Gold.Version>
5.8.1

> <Gold.Id.Protein>
6NUR|6NUR_protein|mol2

> <Gold.PLP.Fitness>
51.7338

> <Gold.PLP.PLP>
-43.7222

> <Gold.PLP.part.hbond>
-3.0000

> <Gold.PLP.part.metal>
0.0000

> <Gold.PLP.part.buried>
-8.2347

> <Gold.PLP.part.nonpolar>
-34.2130

> <Gold.PLP.part.repulsive>
0.1862

> <Gold.PLP.ligand.clash>
0.0000

> <Gold.PLP.ligand.torsion>
0.4621

> <Gold.PLP.Chemscore.Hbond>
2.8400

> <Gold.PLP.Chemscore.CHOScore>
0.0000

> <Gold.PLP.Chemscore.Metal>
0.0000

> <Gold.Chemscore.Hbonds>
donor molecule, donor type, donor heavy atom, donor atom, acceptor molecule, acceptor atom, score
      L1  H    17    41       P1  7948  1.00
      P1  H  6896  6907       L1     6  0.63
      P1  H 10752 10765       L1    15  0.96

> <Gold.PLP.Chemscore.Internal.Correction>
0.4159

> <Gold.Rescore>
     Score         DG    S(hbond)    S(metal)    S(lipo)     H(rot)  DE(clash)    DE(int)     intcor
     15.85     -18.03       2.38        0.00     107.90       3.13       0.09       2.08       ----

> <Gold.Chemscore.Fitness>
15.8518

> <Gold.Chemscore.DG>
-18.0278

> <Gold.Chemscore.ZeroCoef>
-5.4800

> <Gold.Chemscore.Hbond>
2.3797

> <Gold.Chemscore.Metal>
0.0000

> <Gold.Chemscore.Lipo>
107.8993

> <Gold.Chemscore.Internal_Hbond>
0.0000

> <Gold.Chemscore.DEClash>
0.0912

> <Gold.Chemscore.DEInternal>
2.0847

> <Gold.Chemscore.Rot>
3.1346

> <Gold.Chemscore.Internal.Correction>
   9.000000E+99

> <Gold.Chemscore.Hbonds>
donor molecule, donor type, donor heavy atom, donor atom, acceptor molecule, acceptor atom, score
      L1  H    17    41       P1  7948  0.53
      P1  H  6896  6907       L1     6  0.57
      P1  H 10752 10765       L1    15  0.92

> <Gold.Chemscore.Hbond.Weighted>
-7.9481

> <Gold.Chemscore.Metal.Weighted>
-0.0000

> <Gold.Chemscore.Lipo.Weighted>
-12.6242

> <Gold.Chemscore.Internal_Hbond.Weighted>
0.0000

> <Gold.Chemscore.DEClash.Weighted>
0.0912

> <Gold.Chemscore.DEInternal.Weighted>
2.0847

> <Gold.Chemscore.Rot.Weighted>
8.0246

> <Gold.Chemscore.Internal.Correction.Weighted>
   9.000000E+99

> <Gold.Protein.RotatedTorsions>
[ 6907 6896 6895 6894 ] final -115.58 input  -60.11 | X-H torsion
[ 7974 7965 7964 7962 ] final   39.76 input  175.53 | X-H torsion
[ 8008 7997 7996 7995 ] final  157.15 input   59.86 | X-H torsion
[ 10167 10162 10161 10158 ] final   -4.72 input  -65.29 | X-H torsion
[ 10718 10713 10712 10709 ] final  169.41 input   66.30 | X-H torsion
[ 10763 10752 10751 10750 ] final -173.75 input  -60.55 | X-H torsion
[ 11005 11000 10999 10996 ] final -148.38 input  -57.11 | X-H torsion

> <Gold.Protein.ActiveResidues>
 VAL166  LYS551  ARG553  GLY616  TRP617  ASP618  TYR619  PRO620  LYS621  CYS622 
 ASP623  PHE694  ASN695  SER759  ASP760  ASP761  ALA762  ILE779  LEU786  VAL792 
 PHE793  MET794  SER795  GLU796  ALA797  LYS798  CYS799  TRP800  GLU811  SER814 

> <Gold.Protein.RotatedAtoms>
  150.7988  133.8639  159.3239 H   0  0  0  0  0  0  0  0  0  0  0  0  # atno 6907 bound_to 6896
  151.6456  135.1006  160.0160 H   0  0  0  0  0  0  0  0  0  0  0  0  # atno 6908 bound_to 6896
  152.4073  133.6870  159.6403 H   0  0  0  0  0  0  0  0  0  0  0  0  # atno 6909 bound_to 6896
  146.0958  139.5613  142.9446 H   0  0  0  0  0  0  0  0  0  0  0  0  # atno 7974 bound_to 7965
  156.2381  140.1893  156.7065 H   0  0  0  0  0  0  0  0  0  0  0  0  # atno 8008 bound_to 7997
  154.6144  140.0617  156.9562 H   0  0  0  0  0  0  0  0  0  0  0  0  # atno 8009 bound_to 7997
  155.1964  140.3288  155.4353 H   0  0  0  0  0  0  0  0  0  0  0  0  # atno 8010 bound_to 7997
  140.6938  143.6391  150.8452 H   0  0  0  0  0  0  0  0  0  0  0  0  # atno 10167 bound_to 10162
  157.0230  131.0237  151.2769 H   0  0  0  0  0  0  0  0  0  0  0  0  # atno 10718 bound_to 10713
  154.6042  135.2857  155.0503 H   0  0  0  0  0  0  0  0  0  0  0  0  # atno 10763 bound_to 10752
  154.1756  135.6465  153.5024 H   0  0  0  0  0  0  0  0  0  0  0  0  # atno 10764 bound_to 10752
  153.0169  135.5411  154.6772 H   0  0  0  0  0  0  0  0  0  0  0  0  # atno 10765 bound_to 10752
  140.7619  134.3289  157.5099 H   0  0  0  0  0  0  0  0  0  0  0  0  # atno 11005 bound_to 11000
  145.5950  141.0364  143.2049 LP  0  0  0  0  0  0  0  0  0  0  0  0  # atno 17320 bound_to 7965
  144.7394  139.7490  143.7316 LP  0  0  0  0  0  0  0  0  0  0  0  0  # atno 17321 bound_to 7965
  140.0106  143.5646  152.2840 LP  0  0  0  0  0  0  0  0  0  0  0  0  # atno 17342 bound_to 10162
  139.6369  144.7651  151.2419 LP  0  0  0  0  0  0  0  0  0  0  0  0  # atno 17343 bound_to 10162
  157.5235  130.8013  149.7836 LP  0  0  0  0  0  0  0  0  0  0  0  0  # atno 17370 bound_to 10713
  156.0096  130.3839  150.2311 LP  0  0  0  0  0  0  0  0  0  0  0  0  # atno 17371 bound_to 10713
  139.8769  134.9207  156.3258 LP  0  0  0  0  0  0  0  0  0  0  0  0  # atno 17394 bound_to 11000
  140.9655  133.7361  156.0461 LP  0  0  0  0  0  0  0  0  0  0  0  0  # atno 17395 bound_to 11000

$$$$
