AV-unprocessed.smi:2154|AV-procd|sdf|8775|dock1
  -GOLD-   2272011553D 1   1.00000     0.00000
 Structure written by MMmdl.
 31 32  0  0  0  0  0  0  0  0  2 V2000
  152.9650  142.4656  159.4114 C   0  0  0  0  0  0  0  0  0  0  0  0
  152.8024  143.9725  159.4259 C   0  0  1  0  0  0  0  0  0  0  0  0
  152.5775  144.7362  158.1416 C   0  0  0  0  0  0  0  0  0  0  0  0
  151.4708  144.6489  159.1674 C   0  0  1  0  0  0  0  0  0  0  0  0
  150.2053  143.8558  158.8870 C   0  0  0  0  0  0  0  0  0  0  0  0
  150.0866  143.3508  157.5255 N   0  0  0  0  0  0  0  0  0  0  0  0
  150.4096  142.1094  157.1332 C   0  0  0  0  0  0  0  0  0  0  0  0
  150.8335  141.2474  157.9044 O   0  0  0  0  0  0  0  0  0  0  0  0
  150.1875  141.7920  155.6480 C   0  0  0  0  0  0  0  0  0  0  0  0
  150.5102  140.3979  155.3034 N   0  0  0  0  0  0  0  0  0  0  0  0
  151.8106  139.9398  155.5798 C   0  0  0  0  0  0  0  0  0  0  0  0
  152.1953  138.6809  155.2963 C   0  0  0  0  0  0  0  0  0  0  0  0
  151.2227  137.7823  154.6869 C   0  0  0  0  0  0  0  0  0  0  0  0
  151.5548  136.6275  154.4270 O   0  0  0  0  0  0  0  0  0  0  0  0
  149.9753  138.2754  154.4328 N   0  5  0  0  0  0  0  0  0  0  0  0
  149.5989  139.5594  154.7238 C   0  0  0  0  0  0  0  0  0  0  0  0
  148.4682  139.9849  154.4840 O   0  0  0  0  0  0  0  0  0  0  0  0
  152.4178  142.0151  158.5837 H   0  0  0  0  0  0  0  0  0  0  0  0
  152.5983  142.0405  160.3458 H   0  0  0  0  0  0  0  0  0  0  0  0
  154.0184  142.2072  159.3033 H   0  0  0  0  0  0  0  0  0  0  0  0
  153.4321  144.4613  160.1668 H   0  0  0  0  0  0  0  0  0  0  0  0
  153.0831  145.6933  158.0308 H   0  0  0  0  0  0  0  0  0  0  0  0
  152.4638  144.1629  157.2235 H   0  0  0  0  0  0  0  0  0  0  0  0
  151.2966  145.5414  159.7660 H   0  0  0  0  0  0  0  0  0  0  0  0
  150.1535  143.0008  159.5608 H   0  0  0  0  0  0  0  0  0  0  0  0
  149.3422  144.4815  159.1196 H   0  0  0  0  0  0  0  0  0  0  0  0
  149.7420  143.9934  156.8271 H   0  0  0  0  0  0  0  0  0  0  0  0
  149.1465  142.0114  155.4077 H   0  0  0  0  0  0  0  0  0  0  0  0
  150.7733  142.4761  155.0309 H   0  0  0  0  0  0  0  0  0  0  0  0
  152.4704  140.6696  156.0248 H   0  0  0  0  0  0  0  0  0  0  0  0
  153.1991  138.3454  155.5115 H   0  0  0  0  0  0  0  0  0  0  0  0
  1  2  1  0  0  0  0
  1 18  1  0  0  0  0
  1 19  1  0  0  0  0
  1 20  1  0  0  0  0
  2  4  1  0  0  0  0
  2  3  1  0  0  0  0
  2 21  1  0  0  0  0
  3  4  1  0  0  0  0
  3 22  1  0  0  0  0
  3 23  1  0  0  0  0
  4  5  1  0  0  0  0
  4 24  1  0  0  0  0
  5  6  1  0  0  0  0
  5 25  1  0  0  0  0
  5 26  1  0  0  0  0
  6  7  1  0  0  0  0
  6 27  1  0  0  0  0
  7  8  2  0  0  0  0
  7  9  1  0  0  0  0
  9 10  1  0  0  0  0
  9 28  1  0  0  0  0
  9 29  1  0  0  0  0
 10 16  1  0  0  0  0
 10 11  1  0  0  0  0
 11 12  2  0  0  0  0
 11 30  1  0  0  0  0
 12 13  1  0  0  0  0
 12 31  1  0  0  0  0
 13 14  2  0  0  0  0
 13 15  1  0  0  0  0
 15 16  1  0  0  0  0
 16 17  2  0  0  0  0
M  CHG  1  15  -1
M  END
> <s_m_source_file>
AV-unprocessed.smi

> <i_m_source_file_index>
2154

> <i_lp_mmshare_version>
43012

> <i_f3d_flags>
0

> <s_epik_input>
W0NIM11bQ0BASF0xW0NIMl1bQ0BIXTFbQ0gyXVtOSF1DKD1PKVtDSDJdbjJbY0hdW2NIXWMoPU8pW25IXWMyPU8=

> <s_epik_cmdline>
J2VwaWtfcHl0aG9uJywgJy1waCcsICc3LjAnLCAnLXRuJywgJzgnLCAnLW1hJywgJzIwMCcsICctbWV0YWxfYmluZGluZycsICctaW1hZScsICc8aW5maWxlLm1hZT4nLCAnLW9tYWUnLCAnPG91dGZpbGUubWFlPic=

> <r_lp_tautomer_probability>
0.999537

> <r_epik_Ionization_Penalty>
3.12283

> <r_epik_Ionization_Penalty_Charging>
2.83566e-08

> <r_epik_Ionization_Penalty_Neutral>
3.12283

> <r_epik_State_Penalty>
3.12192

> <r_epik_Charging_Adjusted_Penalty>
3.12192

> <i_epik_Tot_Q>
-1

> <i_epik_Tot_abs_Q>
1

> <r_epik_Metal_State_Penalty>
0.463748

> <b_epik_Metal_Only>
1

> <s_lp_Force_Field>
OPLS_2005

> <r_lp_Energy>
25.8954

> <b_lp_Chiralities_Consistent>
1

> <s_lp_Variant>
AV-unprocessed.smi:2154-6

> <Gold.Version>
5.8.1

> <Gold.Id.Protein>
6NUR|6NUR_protein|mol2

> <Gold.PLP.Fitness>
45.6894

> <Gold.PLP.PLP>
-40.3810

> <Gold.PLP.part.hbond>
-2.0000

> <Gold.PLP.part.metal>
0.0000

> <Gold.PLP.part.buried>
-4.0368

> <Gold.PLP.part.nonpolar>
-35.0323

> <Gold.PLP.part.repulsive>
1.1993

> <Gold.PLP.ligand.clash>
0.0000

> <Gold.PLP.ligand.torsion>
0.6182

> <Gold.PLP.Chemscore.Hbond>
2.0000

> <Gold.PLP.Chemscore.CHOScore>
0.0000

> <Gold.PLP.Chemscore.Metal>
0.0000

> <Gold.Chemscore.Hbonds>
donor molecule, donor type, donor heavy atom, donor atom, acceptor molecule, acceptor atom, score
      L1  H     6    27       P1  8028  1.00
      P1  H 10752 10763       L1    14  1.00

> <Gold.PLP.Chemscore.Internal.Correction>
0.5447

> <Gold.Rescore>
     Score         DG    S(hbond)    S(metal)    S(lipo)     H(rot)  DE(clash)    DE(int)     intcor
     14.81     -16.75       1.94        0.00      83.99       1.96       0.10       1.84       ----

> <Gold.Chemscore.Fitness>
14.8117

> <Gold.Chemscore.DG>
-16.7512

> <Gold.Chemscore.ZeroCoef>
-5.4800

> <Gold.Chemscore.Hbond>
1.9354

> <Gold.Chemscore.Metal>
0.0000

> <Gold.Chemscore.Lipo>
83.9927

> <Gold.Chemscore.Internal_Hbond>
0.0000

> <Gold.Chemscore.DEClash>
0.0991

> <Gold.Chemscore.DEInternal>
1.8405

> <Gold.Chemscore.Rot>
1.9609

> <Gold.Chemscore.Internal.Correction>
   9.000000E+99

> <Gold.Chemscore.Hbonds>
donor molecule, donor type, donor heavy atom, donor atom, acceptor molecule, acceptor atom, score
      L1  H     6    27       P1  8028  0.93
      P1  H 10752 10763       L1    14  0.99

> <Gold.Chemscore.Hbond.Weighted>
-6.4641

> <Gold.Chemscore.Metal.Weighted>
-0.0000

> <Gold.Chemscore.Lipo.Weighted>
-9.8271

> <Gold.Chemscore.Internal_Hbond.Weighted>
0.0000

> <Gold.Chemscore.DEClash.Weighted>
0.0991

> <Gold.Chemscore.DEInternal.Weighted>
1.8405

> <Gold.Chemscore.Rot.Weighted>
5.0200

> <Gold.Chemscore.Internal.Correction.Weighted>
   9.000000E+99

> <Gold.Protein.RotatedTorsions>
[ 6907 6896 6895 6894 ] final -102.68 input  -60.11 | X-H torsion
[ 7974 7965 7964 7962 ] final -109.46 input  175.53 | X-H torsion
[ 8008 7997 7996 7995 ] final  101.33 input   59.86 | X-H torsion
[ 10167 10162 10161 10158 ] final  -36.33 input  -65.29 | X-H torsion
[ 10718 10713 10712 10709 ] final  -28.38 input   66.30 | X-H torsion
[ 10763 10752 10751 10750 ] final   58.28 input  -60.55 | X-H torsion
[ 11005 11000 10999 10996 ] final -145.02 input  -57.11 | X-H torsion

> <Gold.Protein.ActiveResidues>
 VAL166  LYS551  ARG553  GLY616  TRP617  ASP618  TYR619  PRO620  LYS621  CYS622 
 ASP623  PHE694  ASN695  SER759  ASP760  ASP761  ALA762  ILE779  LEU786  VAL792 
 PHE793  MET794  SER795  GLU796  ALA797  LYS798  CYS799  TRP800  GLU811  SER814 

> <Gold.Protein.RotatedAtoms>
  150.7207  134.0544  159.3809 H   0  0  0  0  0  0  0  0  0  0  0  0  # atno 6907 bound_to 6896
  151.8522  135.0551  160.0469 H   0  0  0  0  0  0  0  0  0  0  0  0  # atno 6908 bound_to 6896
  152.2782  133.5409  159.5517 H   0  0  0  0  0  0  0  0  0  0  0  0  # atno 6909 bound_to 6896
  145.1802  140.8967  143.3484 H   0  0  0  0  0  0  0  0  0  0  0  0  # atno 7974 bound_to 7965
  156.1289  140.3199  155.8319 H   0  0  0  0  0  0  0  0  0  0  0  0  # atno 8008 bound_to 7997
  155.4368  140.0522  157.3031 H   0  0  0  0  0  0  0  0  0  0  0  0  # atno 8009 bound_to 7997
  154.4884  140.2082  155.9617 H   0  0  0  0  0  0  0  0  0  0  0  0  # atno 8010 bound_to 7997
  140.7145  143.3416  151.2346 H   0  0  0  0  0  0  0  0  0  0  0  0  # atno 10167 bound_to 10162
  156.4259  130.4435  149.7151 H   0  0  0  0  0  0  0  0  0  0  0  0  # atno 10718 bound_to 10713
  152.9867  135.5612  154.5527 H   0  0  0  0  0  0  0  0  0  0  0  0  # atno 10763 bound_to 10752
  154.4961  135.2795  155.1460 H   0  0  0  0  0  0  0  0  0  0  0  0  # atno 10764 bound_to 10752
  154.2910  135.6326  153.5438 H   0  0  0  0  0  0  0  0  0  0  0  0  # atno 10765 bound_to 10752
  140.7965  134.2906  157.4994 H   0  0  0  0  0  0  0  0  0  0  0  0  # atno 11005 bound_to 11000
  145.0144  139.3480  143.6104 LP  0  0  0  0  0  0  0  0  0  0  0  0  # atno 17320 bound_to 7965
  146.3454  139.9419  142.8740 LP  0  0  0  0  0  0  0  0  0  0  0  0  # atno 17321 bound_to 7965
  139.6924  143.9669  152.2866 LP  0  0  0  0  0  0  0  0  0  0  0  0  # atno 17342 bound_to 10162
  139.9335  144.6726  150.8339 LP  0  0  0  0  0  0  0  0  0  0  0  0  # atno 17343 bound_to 10162
  156.4073  130.7704  151.2716 LP  0  0  0  0  0  0  0  0  0  0  0  0  # atno 17370 bound_to 10713
  157.7508  131.0222  150.3781 LP  0  0  0  0  0  0  0  0  0  0  0  0  # atno 17371 bound_to 10713
  139.8726  134.9405  156.3771 LP  0  0  0  0  0  0  0  0  0  0  0  0  # atno 17394 bound_to 11000
  140.9337  133.7562  156.0057 LP  0  0  0  0  0  0  0  0  0  0  0  0  # atno 17395 bound_to 11000

$$$$
