AV-unprocessed.smi:1486|AV-procd|sdf|6006|dock5
  -GOLD-   22720 6103D 1   1.00000     0.00000
 Structure written by MMmdl.
 39 40  0  0  0  0  0  0  0  0  1 V2000
  145.9055  143.1754  160.6202 C   0  0  0  0  0  0  0  0  0  0  0  0
  145.4169  143.0885  159.2932 O   0  0  0  0  0  0  0  0  0  0  0  0
  146.4556  142.9171  158.3422 C   0  0  0  0  0  0  0  0  0  0  0  0
  145.8452  142.7518  156.9422 C   0  0  1  0  0  0  0  0  0  0  0  0
  144.9710  143.9577  156.5627 C   0  0  0  0  0  0  0  0  0  0  0  0
  146.9111  142.5780  155.9591 N   0  0  0  0  0  0  0  0  0  0  0  0
  147.1353  141.4625  155.2469 C   0  0  0  0  0  0  0  0  0  0  0  0
  146.4545  140.4420  155.3500 O   0  0  0  0  0  0  0  0  0  0  0  0
  148.3044  141.5039  154.2623 C   0  0  0  0  0  0  0  0  0  0  0  0
  149.5320  140.9062  154.8873 C   0  0  0  0  0  0  0  0  0  0  0  0
  150.2559  139.8351  154.4221 C   0  0  0  0  0  0  0  0  0  0  0  0
  151.6097  139.4628  155.4526 S   0  0  0  0  0  0  0  0  0  0  0  0
  151.1309  140.7967  156.5066 C   0  0  0  0  0  0  0  0  0  0  0  0
  151.7813  141.1975  157.7119 N   0  0  0  0  0  0  0  0  0  0  0  0
  151.4468  142.4480  158.3869 C   0  0  0  0  0  0  0  0  0  0  0  0
  152.1678  142.4023  159.7384 C   0  0  0  0  0  0  0  0  0  0  0  0
  153.2024  141.2869  159.6054 C   0  0  0  0  0  0  0  0  0  0  0  0
  152.7603  140.5393  158.3581 C   0  0  0  0  0  0  0  0  0  0  0  0
  153.2774  139.4716  158.0329 O   0  0  0  0  0  0  0  0  0  0  0  0
  150.0410  141.4418  156.0756 N   0  0  0  0  0  0  0  0  0  0  0  0
  145.0720  143.3076  161.3100 H   0  0  0  0  0  0  0  0  0  0  0  0
  146.5775  144.0264  160.7380 H   0  0  0  0  0  0  0  0  0  0  0  0
  146.4379  142.2669  160.9048 H   0  0  0  0  0  0  0  0  0  0  0  0
  147.1078  143.7920  158.3598 H   0  0  0  0  0  0  0  0  0  0  0  0
  147.0666  142.0496  158.5982 H   0  0  0  0  0  0  0  0  0  0  0  0
  145.2155  141.8602  156.9544 H   0  0  0  0  0  0  0  0  0  0  0  0
  144.1633  144.0972  157.2815 H   0  0  0  0  0  0  0  0  0  0  0  0
  144.5148  143.8234  155.5812 H   0  0  0  0  0  0  0  0  0  0  0  0
  145.5550  144.8783  156.5351 H   0  0  0  0  0  0  0  0  0  0  0  0
  147.5250  143.3659  155.8103 H   0  0  0  0  0  0  0  0  0  0  0  0
  148.0290  140.9740  153.3491 H   0  0  0  0  0  0  0  0  0  0  0  0
  148.4910  142.5384  153.9717 H   0  0  0  0  0  0  0  0  0  0  0  0
  150.0756  139.2473  153.5340 H   0  0  0  0  0  0  0  0  0  0  0  0
  151.8053  143.2850  157.7859 H   0  0  0  0  0  0  0  0  0  0  0  0
  150.3696  142.5603  158.5179 H   0  0  0  0  0  0  0  0  0  0  0  0
  152.6250  143.3603  159.9881 H   0  0  0  0  0  0  0  0  0  0  0  0
  151.4610  142.1574  160.5326 H   0  0  0  0  0  0  0  0  0  0  0  0
  154.2036  141.6900  159.4488 H   0  0  0  0  0  0  0  0  0  0  0  0
  153.2198  140.6343  160.4787 H   0  0  0  0  0  0  0  0  0  0  0  0
  1  2  1  0  0  0  0
  1 21  1  0  0  0  0
  1 22  1  0  0  0  0
  1 23  1  0  0  0  0
  2  3  1  0  0  0  0
  3  4  1  0  0  0  0
  3 24  1  0  0  0  0
  3 25  1  0  0  0  0
  4  5  1  0  0  0  0
  4  6  1  0  0  0  0
  4 26  1  0  0  0  0
  5 27  1  0  0  0  0
  5 28  1  0  0  0  0
  5 29  1  0  0  0  0
  6  7  1  0  0  0  0
  6 30  1  0  0  0  0
  7  8  2  0  0  0  0
  7  9  1  0  0  0  0
  9 10  1  0  0  0  0
  9 31  1  0  0  0  0
  9 32  1  0  0  0  0
 10 20  1  0  0  0  0
 10 11  2  0  0  0  0
 11 12  1  0  0  0  0
 11 33  1  0  0  0  0
 12 13  1  0  0  0  0
 13 14  1  0  0  0  0
 13 20  2  0  0  0  0
 14 18  1  0  0  0  0
 14 15  1  0  0  0  0
 15 16  1  0  0  0  0
 15 34  1  0  0  0  0
 15 35  1  0  0  0  0
 16 17  1  0  0  0  0
 16 36  1  0  0  0  0
 16 37  1  0  0  0  0
 17 18  1  0  0  0  0
 17 38  1  0  0  0  0
 17 39  1  0  0  0  0
 18 19  2  0  0  0  0
M  END
> <s_m_source_file>
AV-unprocessed.smi

> <i_m_source_file_index>
1486

> <i_lp_mmshare_version>
43012

> <i_f3d_flags>
0

> <s_epik_input>
W0NIM11PW0NIMl1bQ0BIXShbQ0gzXSlbTkhdQyg9TylbQ0gyXWMxW2NIXXNjKG4xKU4yW0NIMl1bQ0gyXVtDSDJdQzI9Tw==

> <s_epik_cmdline>
J2VwaWtfcHl0aG9uJywgJy1waCcsICc3LjAnLCAnLXRuJywgJzgnLCAnLW1hJywgJzIwMCcsICctbWV0YWxfYmluZGluZycsICctaW1hZScsICc8aW5maWxlLm1hZT4nLCAnLW9tYWUnLCAnPG91dGZpbGUubWFlPic=

> <r_lp_tautomer_probability>
1

> <r_epik_Ionization_Penalty>
3.00988e-05

> <r_epik_Ionization_Penalty_Charging>
0

> <r_epik_Ionization_Penalty_Neutral>
3.00988e-05

> <r_epik_State_Penalty>
-0

> <r_epik_Charging_Adjusted_Penalty>
0

> <i_epik_Tot_Q>
0

> <i_epik_Tot_abs_Q>
0

> <r_epik_Metal_State_Penalty>
-0

> <b_epik_Metal_Only>
0

> <s_lp_Force_Field>
OPLS_2005

> <r_lp_Energy>
17.9426

> <b_lp_Chiralities_Consistent>
1

> <s_lp_Variant>
AV-unprocessed.smi:1486-2

> <Gold.Version>
5.8.1

> <Gold.Id.Protein>
6NUR|6NUR_protein|mol2

> <Gold.PLP.Fitness>
40.2228

> <Gold.PLP.PLP>
-33.2174

> <Gold.PLP.part.hbond>
-2.0000

> <Gold.PLP.part.metal>
0.0000

> <Gold.PLP.part.buried>
-1.5318

> <Gold.PLP.part.nonpolar>
-29.0364

> <Gold.PLP.part.repulsive>
0.2017

> <Gold.PLP.ligand.clash>
0.0000

> <Gold.PLP.ligand.torsion>
0.4147

> <Gold.PLP.Chemscore.Hbond>
1.6000

> <Gold.PLP.Chemscore.CHOScore>
0.9933

> <Gold.PLP.Chemscore.Metal>
0.0000

> <Gold.Chemscore.Hbonds>
donor molecule, donor type, donor heavy atom, donor atom, acceptor molecule, acceptor atom, score
      L1  H     6    30       P1  8028  0.60
      P1  H  7997  8010       L1    19  1.00
      L1  C    11    33       P1  7957  0.97

> <Gold.PLP.Chemscore.Internal.Correction>
0.0548

> <Gold.Rescore>
     Score         DG    S(hbond)    S(metal)    S(lipo)     H(rot)  DE(clash)    DE(int)     intcor
     12.69     -14.12       1.57        0.00      71.31       1.94       0.25       1.18       ----

> <Gold.Chemscore.Fitness>
12.6922

> <Gold.Chemscore.DG>
-14.1189

> <Gold.Chemscore.ZeroCoef>
-5.4800

> <Gold.Chemscore.Hbond>
1.5735

> <Gold.Chemscore.Metal>
0.0000

> <Gold.Chemscore.Lipo>
71.3054

> <Gold.Chemscore.Internal_Hbond>
0.0000

> <Gold.Chemscore.DEClash>
0.2475

> <Gold.Chemscore.DEInternal>
1.1792

> <Gold.Chemscore.Rot>
1.9373

> <Gold.Chemscore.Internal.Correction>
   9.000000E+99

> <Gold.Chemscore.Hbonds>
donor molecule, donor type, donor heavy atom, donor atom, acceptor molecule, acceptor atom, score
      L1  H     6    30       P1  8028  0.04
      P1  H  7997  8010       L1    19  0.30

> <Gold.Chemscore.Hbond.Weighted>
-5.2556

> <Gold.Chemscore.Metal.Weighted>
-0.0000

> <Gold.Chemscore.Lipo.Weighted>
-8.3427

> <Gold.Chemscore.Internal_Hbond.Weighted>
0.0000

> <Gold.Chemscore.DEClash.Weighted>
0.2475

> <Gold.Chemscore.DEInternal.Weighted>
1.1792

> <Gold.Chemscore.Rot.Weighted>
4.9594

> <Gold.Chemscore.Internal.Correction.Weighted>
   9.000000E+99

> <Gold.Protein.RotatedTorsions>
[ 6907 6896 6895 6894 ] final -117.54 input  -60.11 | X-H torsion
[ 7974 7965 7964 7962 ] final  -84.40 input  175.53 | X-H torsion
[ 8008 7997 7996 7995 ] final   29.82 input   59.86 | X-H torsion
[ 10167 10162 10161 10158 ] final   89.53 input  -65.29 | X-H torsion
[ 10718 10713 10712 10709 ] final  -63.79 input   66.30 | X-H torsion
[ 10763 10752 10751 10750 ] final   53.94 input  -60.55 | X-H torsion
[ 11005 11000 10999 10996 ] final -177.42 input  -57.11 | X-H torsion

> <Gold.Protein.ActiveResidues>
 VAL166  LYS551  ARG553  GLY616  TRP617  ASP618  TYR619  PRO620  LYS621  CYS622 
 ASP623  PHE694  ASN695  SER759  ASP760  ASP761  ALA762  ILE779  LEU786  VAL792 
 PHE793  MET794  SER795  GLU796  ALA797  LYS798  CYS799  TRP800  GLU811  SER814 

> <Gold.Protein.RotatedAtoms>
  150.8145  133.8361  159.3166 H   0  0  0  0  0  0  0  0  0  0  0  0  # atno 6907 bound_to 6896
  151.6137  135.1036  160.0096 H   0  0  0  0  0  0  0  0  0  0  0  0  # atno 6908 bound_to 6896
  152.4237  133.7118  159.6540 H   0  0  0  0  0  0  0  0  0  0  0  0  # atno 6909 bound_to 6896
  145.5071  140.9543  143.1728 H   0  0  0  0  0  0  0  0  0  0  0  0  # atno 7974 bound_to 7965
  155.0806  140.3210  155.4602 H   0  0  0  0  0  0  0  0  0  0  0  0  # atno 8008 bound_to 7997
  156.2768  140.2095  156.5880 H   0  0  0  0  0  0  0  0  0  0  0  0  # atno 8009 bound_to 7997
  154.6981  140.0509  157.0418 H   0  0  0  0  0  0  0  0  0  0  0  0  # atno 8010 bound_to 7997
  139.8563  144.6567  150.9110 H   0  0  0  0  0  0  0  0  0  0  0  0  # atno 10167 bound_to 10162
  156.0769  130.4225  150.1328 H   0  0  0  0  0  0  0  0  0  0  0  0  # atno 10718 bound_to 10713
  152.9800  135.5762  154.4822 H   0  0  0  0  0  0  0  0  0  0  0  0  # atno 10763 bound_to 10752
  154.4369  135.2775  155.1876 H   0  0  0  0  0  0  0  0  0  0  0  0  # atno 10764 bound_to 10752
  154.3560  135.6199  153.5720 H   0  0  0  0  0  0  0  0  0  0  0  0  # atno 10765 bound_to 10752
  140.4411  134.6430  157.4758 H   0  0  0  0  0  0  0  0  0  0  0  0  # atno 11005 bound_to 11000
  144.7748  139.6655  143.7179 LP  0  0  0  0  0  0  0  0  0  0  0  0  # atno 17320 bound_to 7965
  146.2190  139.5601  142.9631 LP  0  0  0  0  0  0  0  0  0  0  0  0  # atno 17321 bound_to 7965
  140.7781  143.3783  151.1524 LP  0  0  0  0  0  0  0  0  0  0  0  0  # atno 17342 bound_to 10162
  139.7416  143.8915  152.3051 LP  0  0  0  0  0  0  0  0  0  0  0  0  # atno 17343 bound_to 10162
  156.9367  130.9731  151.3523 LP  0  0  0  0  0  0  0  0  0  0  0  0  # atno 17370 bound_to 10713
  157.5868  130.8415  149.8601 LP  0  0  0  0  0  0  0  0  0  0  0  0  # atno 17371 bound_to 10713
  140.0069  134.6750  155.9441 LP  0  0  0  0  0  0  0  0  0  0  0  0  # atno 17394 bound_to 11000
  141.1705  133.6537  156.4634 LP  0  0  0  0  0  0  0  0  0  0  0  0  # atno 17395 bound_to 11000

$$$$
