AV-unprocessed.smi:2787|AV-procd|sdf|10757|dock3
  -GOLD-   2272015183D 1   1.00000     0.00000
 Structure written by MMmdl.
 35 36  0  0  0  0  0  0  0  0  1 V2000
  152.5551  135.7945  156.7225 O   0  0  0  0  0  0  0  0  0  0  0  0
  152.4762  137.1995  156.6031 C   0  0  0  0  0  0  0  0  0  0  0  0
  151.5444  137.5908  155.4468 C   0  0  0  0  0  0  0  0  0  0  0  0
  151.7640  139.0310  154.9514 C   0  0  0  0  0  0  0  0  0  0  0  0
  151.7703  140.0369  156.0676 C   0  0  0  0  0  0  0  0  0  0  0  0
  152.6187  139.9129  157.0898 N   0  0  0  0  0  0  0  0  0  0  0  0
  152.3215  141.0084  157.8745 C   0  0  0  0  0  0  0  0  0  0  0  0
  152.8829  141.4431  159.0966 C   0  0  0  0  0  0  0  0  0  0  0  0
  152.4074  142.6132  159.7240 C   0  0  0  0  0  0  0  0  0  0  0  0
  151.3658  143.3628  159.1400 C   0  0  0  0  0  0  0  0  0  0  0  0
  150.7932  142.9465  157.9228 C   0  0  0  0  0  0  0  0  0  0  0  0
  151.2722  141.7780  157.2999 C   0  0  0  0  0  0  0  0  0  0  0  0
  150.9342  141.1097  156.1262 N   0  0  0  0  0  0  0  0  0  0  0  0
  149.8841  141.5277  155.2029 C   0  0  0  0  0  0  0  0  0  0  0  0
  148.4675  141.2734  155.7564 C   0  0  1  0  0  0  0  0  0  0  0  0
  148.1362  142.2711  156.7014 O   0  0  0  0  0  0  0  0  0  0  0  0
  147.3905  141.2415  154.6550 C   0  0  0  0  0  0  0  0  0  0  0  0
  147.2626  142.4481  154.1025 F   0  0  0  0  0  0  0  0  0  0  0  0
  147.6955  140.3484  153.7130 F   0  0  0  0  0  0  0  0  0  0  0  0
  146.2164  140.9096  155.1923 F   0  0  0  0  0  0  0  0  0  0  0  0
  151.7400  135.4759  157.0792 H   0  0  0  0  0  0  0  0  0  0  0  0
  152.1299  137.6271  157.5446 H   0  0  0  0  0  0  0  0  0  0  0  0
  153.4793  137.5869  156.4224 H   0  0  0  0  0  0  0  0  0  0  0  0
  151.7123  136.9027  154.6174 H   0  0  0  0  0  0  0  0  0  0  0  0
  150.5074  137.4474  155.7500 H   0  0  0  0  0  0  0  0  0  0  0  0
  152.6837  139.0820  154.3747 H   0  0  0  0  0  0  0  0  0  0  0  0
  150.9671  139.3018  154.2578 H   0  0  0  0  0  0  0  0  0  0  0  0
  153.6807  140.8751  159.5517 H   0  0  0  0  0  0  0  0  0  0  0  0
  152.8432  142.9371  160.6578 H   0  0  0  0  0  0  0  0  0  0  0  0
  151.0066  144.2574  159.6273 H   0  0  0  0  0  0  0  0  0  0  0  0
  149.9955  143.5192  157.4737 H   0  0  0  0  0  0  0  0  0  0  0  0
  150.0160  142.5703  154.9218 H   0  0  0  0  0  0  0  0  0  0  0  0
  150.0168  140.9664  154.2775 H   0  0  0  0  0  0  0  0  0  0  0  0
  148.4587  140.3159  156.2787 H   0  0  0  0  0  0  0  0  0  0  0  0
  148.5146  143.0891  156.4178 H   0  0  0  0  0  0  0  0  0  0  0  0
  1  2  1  0  0  0  0
  1 21  1  0  0  0  0
  2  3  1  0  0  0  0
  2 22  1  0  0  0  0
  2 23  1  0  0  0  0
  3  4  1  0  0  0  0
  3 24  1  0  0  0  0
  3 25  1  0  0  0  0
  4  5  1  0  0  0  0
  4 26  1  0  0  0  0
  4 27  1  0  0  0  0
  5 13  1  0  0  0  0
  5  6  2  0  0  0  0
  6  7  1  0  0  0  0
  7 12  2  0  0  0  0
  7  8  1  0  0  0  0
  8  9  2  0  0  0  0
  8 28  1  0  0  0  0
  9 10  1  0  0  0  0
  9 29  1  0  0  0  0
 10 11  2  0  0  0  0
 10 30  1  0  0  0  0
 11 12  1  0  0  0  0
 11 31  1  0  0  0  0
 12 13  1  0  0  0  0
 13 14  1  0  0  0  0
 14 15  1  0  0  0  0
 14 32  1  0  0  0  0
 14 33  1  0  0  0  0
 15 16  1  0  0  0  0
 15 17  1  0  0  0  0
 15 34  1  0  0  0  0
 16 35  1  0  0  0  0
 17 18  1  0  0  0  0
 17 19  1  0  0  0  0
 17 20  1  0  0  0  0
M  END
> <s_m_source_file>
AV-unprocessed.smi

> <i_m_source_file_index>
2787

> <i_lp_mmshare_version>
43012

> <i_f3d_flags>
0

> <s_epik_input>
W09IXVtDSDJdW0NIMl1bQ0gyXWMobjEpbihbQ0gyXVtDQEhdKFtPSF0pQyhGKShGKUYpYyhjMTIpW2NIXVtjSF1bY0hdW2NIXTI=

> <s_epik_cmdline>
J2VwaWtfcHl0aG9uJywgJy1waCcsICc3LjAnLCAnLXRuJywgJzgnLCAnLW1hJywgJzIwMCcsICctbWV0YWxfYmluZGluZycsICctaW1hZScsICc8aW5maWxlLm1hZT4nLCAnLW9tYWUnLCAnPG91dGZpbGUubWFlPic=

> <r_epik_Ionization_Penalty>
0.137914

> <r_epik_Ionization_Penalty_Charging>
0

> <r_epik_Ionization_Penalty_Neutral>
0.137914

> <r_epik_State_Penalty>
0.107668

> <r_epik_Charging_Adjusted_Penalty>
0.107668

> <i_epik_Tot_Q>
0

> <i_epik_Tot_abs_Q>
0

> <r_epik_Metal_State_Penalty>
0.000111872

> <b_epik_Metal_Only>
0

> <s_lp_Force_Field>
OPLS_2005

> <r_lp_Energy>
11.7706

> <b_lp_Chiralities_Consistent>
1

> <s_lp_Variant>
AV-unprocessed.smi:2787-2

> <Gold.Version>
5.8.1

> <Gold.Id.Protein>
6NUR|6NUR_protein|mol2

> <Gold.PLP.Fitness>
47.2703

> <Gold.PLP.PLP>
-39.1171

> <Gold.PLP.part.hbond>
-3.0000

> <Gold.PLP.part.metal>
0.0000

> <Gold.PLP.part.buried>
-3.3253

> <Gold.PLP.part.nonpolar>
-32.5632

> <Gold.PLP.part.repulsive>
0.0000

> <Gold.PLP.ligand.clash>
0.0000

> <Gold.PLP.ligand.torsion>
0.4793

> <Gold.PLP.Chemscore.Hbond>
3.0000

> <Gold.PLP.Chemscore.CHOScore>
0.0000

> <Gold.PLP.Chemscore.Metal>
0.0000

> <Gold.Chemscore.Hbonds>
donor molecule, donor type, donor heavy atom, donor atom, acceptor molecule, acceptor atom, score
      L1  H    16    35       P1  8028  1.00
      P1  H  7997  8009       L1     6  1.00
      P1  H 10752 10764       L1     1  1.00

> <Gold.PLP.Chemscore.Internal.Correction>
0.1119

> <Gold.Rescore>
     Score         DG    S(hbond)    S(metal)    S(lipo)     H(rot)  DE(clash)    DE(int)     intcor
     13.24     -15.59       2.51        0.00      89.86       3.44       0.30       2.05       ----

> <Gold.Chemscore.Fitness>
13.2394

> <Gold.Chemscore.DG>
-15.5871

> <Gold.Chemscore.ZeroCoef>
-5.4800

> <Gold.Chemscore.Hbond>
2.5126

> <Gold.Chemscore.Metal>
0.0000

> <Gold.Chemscore.Lipo>
89.8573

> <Gold.Chemscore.Internal_Hbond>
0.0000

> <Gold.Chemscore.DEClash>
0.2950

> <Gold.Chemscore.DEInternal>
2.0527

> <Gold.Chemscore.Rot>
3.4369

> <Gold.Chemscore.Internal.Correction>
   9.000000E+99

> <Gold.Chemscore.Hbonds>
donor molecule, donor type, donor heavy atom, donor atom, acceptor molecule, acceptor atom, score
      L1  H    16    35       P1  8028  0.82
      P1  H  7997  8009       L1     6  0.49
      P1  H 10752 10764       L1     1  0.35

> <Gold.Chemscore.Hbond.Weighted>
-8.3922

> <Gold.Chemscore.Metal.Weighted>
-0.0000

> <Gold.Chemscore.Lipo.Weighted>
-10.5133

> <Gold.Chemscore.Internal_Hbond.Weighted>
0.0000

> <Gold.Chemscore.DEClash.Weighted>
0.2950

> <Gold.Chemscore.DEInternal.Weighted>
2.0527

> <Gold.Chemscore.Rot.Weighted>
8.7984

> <Gold.Chemscore.Internal.Correction.Weighted>
   9.000000E+99

> <Gold.Protein.RotatedTorsions>
[ 6907 6896 6895 6894 ] final   94.41 input  -60.11 | X-H torsion
[ 7974 7965 7964 7962 ] final  157.14 input  175.53 | X-H torsion
[ 8008 7997 7996 7995 ] final -178.42 input   59.86 | X-H torsion
[ 10167 10162 10161 10158 ] final  -26.63 input  -65.29 | X-H torsion
[ 10718 10713 10712 10709 ] final -119.94 input   66.30 | X-H torsion
[ 10763 10752 10751 10750 ] final   -1.74 input  -60.55 | X-H torsion
[ 11005 11000 10999 10996 ] final    9.83 input  -57.11 | X-H torsion

> <Gold.Protein.ActiveResidues>
 VAL166  LYS551  ARG553  GLY616  TRP617  ASP618  TYR619  PRO620  LYS621  CYS622 
 ASP623  PHE694  ASN695  SER759  ASP760  ASP761  ALA762  ILE779  LEU786  VAL792 
 PHE793  MET794  SER795  GLU796  ALA797  LYS798  CYS799  TRP800  GLU811  SER814 

> <Gold.Protein.RotatedAtoms>
  152.5449  134.1198  159.8393 H   0  0  0  0  0  0  0  0  0  0  0  0  # atno 6907 bound_to 6896
  151.1255  133.5066  159.2608 H   0  0  0  0  0  0  0  0  0  0  0  0  # atno 6908 bound_to 6896
  151.1732  135.0337  159.8815 H   0  0  0  0  0  0  0  0  0  0  0  0  # atno 6909 bound_to 6896
  144.7921  139.7300  143.6217 H   0  0  0  0  0  0  0  0  0  0  0  0  # atno 7974 bound_to 7965
  156.0186  140.1256  157.0381 H   0  0  0  0  0  0  0  0  0  0  0  0  # atno 8008 bound_to 7997
  154.4303  140.1073  156.6001 H   0  0  0  0  0  0  0  0  0  0  0  0  # atno 8009 bound_to 7997
  155.5977  140.3470  155.4587 H   0  0  0  0  0  0  0  0  0  0  0  0  # atno 8010 bound_to 7997
  140.7282  143.4162  151.1025 H   0  0  0  0  0  0  0  0  0  0  0  0  # atno 10167 bound_to 10162
  156.1219  130.6330  150.9478 H   0  0  0  0  0  0  0  0  0  0  0  0  # atno 10718 bound_to 10713
  153.3488  135.6984  153.6805 H   0  0  0  0  0  0  0  0  0  0  0  0  # atno 10763 bound_to 10752
  153.5540  135.3548  155.2772 H   0  0  0  0  0  0  0  0  0  0  0  0  # atno 10764 bound_to 10752
  154.8650  135.4233  154.2719 H   0  0  0  0  0  0  0  0  0  0  0  0  # atno 10765 bound_to 10752
  140.5213  134.0556  155.7846 H   0  0  0  0  0  0  0  0  0  0  0  0  # atno 11005 bound_to 11000
  146.2176  139.5578  142.9639 LP  0  0  0  0  0  0  0  0  0  0  0  0  # atno 17320 bound_to 7965
  145.5768  141.0387  143.2144 LP  0  0  0  0  0  0  0  0  0  0  0  0  # atno 17321 bound_to 7965
  139.7802  143.8367  152.3136 LP  0  0  0  0  0  0  0  0  0  0  0  0  # atno 17342 bound_to 10162
  139.8315  144.7251  150.9444 LP  0  0  0  0  0  0  0  0  0  0  0  0  # atno 17343 bound_to 10162
  157.6402  131.0911  150.8266 LP  0  0  0  0  0  0  0  0  0  0  0  0  # atno 17370 bound_to 10713
  156.8362  130.5032  149.5326 LP  0  0  0  0  0  0  0  0  0  0  0  0  # atno 17371 bound_to 10713
  141.1332  133.9266  157.2490 LP  0  0  0  0  0  0  0  0  0  0  0  0  # atno 17394 bound_to 11000
  139.9604  135.0155  156.9245 LP  0  0  0  0  0  0  0  0  0  0  0  0  # atno 17395 bound_to 11000

$$$$
