AV-unprocessed.smi:2713|AV-procd|sdf|10479|dock4
  -GOLD-   2272014523D 1   1.00000     0.00000
 Structure written by MMmdl.
 52 53  0  0  0  0  0  0  0  0  1 V2000
  146.3993  133.3171  149.7365 C   0  0  0  0  0  0  0  0  0  0  0  0
  144.9930  133.9564  149.7463 C   0  0  0  0  0  0  0  0  0  0  0  0
  144.5375  134.0548  148.2748 C   0  0  0  0  0  0  0  0  0  0  0  0
  144.0044  133.0239  150.4754 C   0  0  0  0  0  0  0  0  0  0  0  0
  145.0094  135.4129  150.3208 C   0  0  0  0  0  0  0  0  0  0  0  0
  144.7212  135.7176  151.8264 C   0  0  0  0  0  0  0  0  0  0  0  0
  145.3822  134.7112  152.7931 C   0  0  0  0  0  0  0  0  0  0  0  0
  145.2646  137.1333  152.1252 C   0  0  0  0  0  0  0  0  0  0  0  0
  143.2635  135.7580  151.9881 N   0  0  0  0  0  0  0  0  0  0  0  0
  142.7220  135.3358  153.2750 C   0  0  0  0  0  0  0  0  0  0  0  0
  141.3852  135.9850  153.5714 C   0  0  0  0  0  0  0  0  0  0  0  0
  141.2049  137.3827  153.5301 C   0  0  0  0  0  0  0  0  0  0  0  0
  140.0069  137.9505  153.7870 N   0  0  0  0  0  0  0  0  0  0  0  0
  138.9797  137.1405  154.0799 C   0  0  0  0  0  0  0  0  0  0  0  0
  137.7390  137.7339  154.3457 N   0  0  0  0  0  0  0  0  0  0  0  0
  136.7010  137.0535  155.1233 C   0  0  0  0  0  0  0  0  0  0  0  0
  135.2999  137.4772  154.6502 C   0  0  0  0  0  0  0  0  0  0  0  0
  135.1795  138.8933  154.7055 O   0  0  0  0  0  0  0  0  0  0  0  0
  136.1161  139.5320  153.8468 C   0  0  0  0  0  0  0  0  0  0  0  0
  137.5479  139.1853  154.2889 C   0  0  0  0  0  0  0  0  0  0  0  0
  139.0506  135.8033  154.1379 N   0  0  0  0  0  0  0  0  0  0  0  0
  140.2428  135.2225  153.8855 C   0  0  0  0  0  0  0  0  0  0  0  0
  146.4010  132.3848  149.1704 H   0  0  0  0  0  0  0  0  0  0  0  0
  146.7597  133.0656  150.7307 H   0  0  0  0  0  0  0  0  0  0  0  0
  147.1348  133.9757  149.2733 H   0  0  0  0  0  0  0  0  0  0  0  0
  145.1991  134.6998  147.6950 H   0  0  0  0  0  0  0  0  0  0  0  0
  143.5293  134.4629  148.1939 H   0  0  0  0  0  0  0  0  0  0  0  0
  144.5281  133.0779  147.7897 H   0  0  0  0  0  0  0  0  0  0  0  0
  143.9435  132.0522  149.9841 H   0  0  0  0  0  0  0  0  0  0  0  0
  142.9982  133.4442  150.4903 H   0  0  0  0  0  0  0  0  0  0  0  0
  144.3030  132.8373  151.5063 H   0  0  0  0  0  0  0  0  0  0  0  0
  145.9840  135.8369  150.0737 H   0  0  0  0  0  0  0  0  0  0  0  0
  144.3063  136.0114  149.7382 H   0  0  0  0  0  0  0  0  0  0  0  0
  146.4322  134.5585  152.5419 H   0  0  0  0  0  0  0  0  0  0  0  0
  144.8830  133.7432  152.7822 H   0  0  0  0  0  0  0  0  0  0  0  0
  145.3575  135.0661  153.8239 H   0  0  0  0  0  0  0  0  0  0  0  0
  146.3346  137.1926  151.9218 H   0  0  0  0  0  0  0  0  0  0  0  0
  145.1309  137.4206  153.1679 H   0  0  0  0  0  0  0  0  0  0  0  0
  144.7754  137.8896  151.5097 H   0  0  0  0  0  0  0  0  0  0  0  0
  142.9203  136.6790  151.7551 H   0  0  0  0  0  0  0  0  0  0  0  0
  142.5763  134.2559  153.2881 H   0  0  0  0  0  0  0  0  0  0  0  0
  143.4145  135.5819  154.0789 H   0  0  0  0  0  0  0  0  0  0  0  0
  142.0213  138.0486  153.2913 H   0  0  0  0  0  0  0  0  0  0  0  0
  136.7757  135.9694  155.0400 H   0  0  0  0  0  0  0  0  0  0  0  0
  136.8330  137.3019  156.1769 H   0  0  0  0  0  0  0  0  0  0  0  0
  135.1088  137.1237  153.6355 H   0  0  0  0  0  0  0  0  0  0  0  0
  134.5380  137.0321  155.2899 H   0  0  0  0  0  0  0  0  0  0  0  0
  135.9446  139.2309  152.8119 H   0  0  0  0  0  0  0  0  0  0  0  0
  135.9607  140.6100  153.8937 H   0  0  0  0  0  0  0  0  0  0  0  0
  137.7421  139.5985  155.2794 H   0  0  0  0  0  0  0  0  0  0  0  0
  138.2449  139.6692  153.6057 H   0  0  0  0  0  0  0  0  0  0  0  0
  140.2813  134.1441  153.9351 H   0  0  0  0  0  0  0  0  0  0  0  0
  1  2  1  0  0  0  0
  1 23  1  0  0  0  0
  1 24  1  0  0  0  0
  1 25  1  0  0  0  0
  2  3  1  0  0  0  0
  2  4  1  0  0  0  0
  2  5  1  0  0  0  0
  3 26  1  0  0  0  0
  3 27  1  0  0  0  0
  3 28  1  0  0  0  0
  4 29  1  0  0  0  0
  4 30  1  0  0  0  0
  4 31  1  0  0  0  0
  5  6  1  0  0  0  0
  5 32  1  0  0  0  0
  5 33  1  0  0  0  0
  6  7  1  0  0  0  0
  6  8  1  0  0  0  0
  6  9  1  0  0  0  0
  7 34  1  0  0  0  0
  7 35  1  0  0  0  0
  7 36  1  0  0  0  0
  8 37  1  0  0  0  0
  8 38  1  0  0  0  0
  8 39  1  0  0  0  0
  9 10  1  0  0  0  0
  9 40  1  0  0  0  0
 10 11  1  0  0  0  0
 10 41  1  0  0  0  0
 10 42  1  0  0  0  0
 11 22  1  0  0  0  0
 11 12  2  0  0  0  0
 12 13  1  0  0  0  0
 12 43  1  0  0  0  0
 13 14  2  0  0  0  0
 14 15  1  0  0  0  0
 14 21  1  0  0  0  0
 15 20  1  0  0  0  0
 15 16  1  0  0  0  0
 16 17  1  0  0  0  0
 16 44  1  0  0  0  0
 16 45  1  0  0  0  0
 17 18  1  0  0  0  0
 17 46  1  0  0  0  0
 17 47  1  0  0  0  0
 18 19  1  0  0  0  0
 19 20  1  0  0  0  0
 19 48  1  0  0  0  0
 19 49  1  0  0  0  0
 20 50  1  0  0  0  0
 20 51  1  0  0  0  0
 21 22  2  0  0  0  0
 22 52  1  0  0  0  0
M  END
> <s_m_source_file>
AV-unprocessed.smi

> <i_m_source_file_index>
2713

> <i_lp_mmshare_version>
43012

> <i_f3d_flags>
0

> <s_epik_input>
W0NIM11DKFtDSDNdKShbQ0gzXSlbQ0gyXUMoW0NIM10pKFtDSDNdKVtOSF1bQ0gyXWMxW2NIXW5jKG5bY0hdMSlOMltDSDJdW0NIMl1PW0NIMl1bQ0gyXTI=

> <s_epik_cmdline>
J2VwaWtfcHl0aG9uJywgJy1waCcsICc3LjAnLCAnLXRuJywgJzgnLCAnLW1hJywgJzIwMCcsICctbWV0YWxfYmluZGluZycsICctaW1hZScsICc8aW5maWxlLm1hZT4nLCAnLW9tYWUnLCAnPG91dGZpbGUubWFlPic=

> <r_lp_tautomer_probability>
1

> <r_epik_Ionization_Penalty>
1.66691

> <r_epik_Ionization_Penalty_Charging>
0

> <r_epik_Ionization_Penalty_Neutral>
1.66691

> <r_epik_State_Penalty>
1.77023

> <r_epik_Charging_Adjusted_Penalty>
1.77023

> <i_epik_Tot_Q>
0

> <i_epik_Tot_abs_Q>
0

> <r_epik_Metal_State_Penalty>
1.77023

> <b_epik_Metal_Only>
0

> <s_lp_Force_Field>
OPLS_2005

> <r_lp_Energy>
27.9038

> <b_lp_Chiralities_Consistent>
1

> <s_lp_Variant>
AV-unprocessed.smi:2713-2

> <Gold.Version>
5.8.1

> <Gold.Id.Protein>
6NUR|6NUR_protein|mol2

> <Gold.PLP.Fitness>
42.4951

> <Gold.PLP.PLP>
-40.4360

> <Gold.PLP.part.hbond>
0.0000

> <Gold.PLP.part.metal>
0.0000

> <Gold.PLP.part.buried>
-6.5994

> <Gold.PLP.part.nonpolar>
-35.6121

> <Gold.PLP.part.repulsive>
0.6074

> <Gold.PLP.ligand.clash>
0.0000

> <Gold.PLP.ligand.torsion>
1.8604

> <Gold.PLP.Chemscore.Hbond>
0.0000

> <Gold.PLP.Chemscore.CHOScore>
1.8745

> <Gold.PLP.Chemscore.Metal>
0.0000

> <Gold.Chemscore.Hbonds>
donor molecule, donor type, donor heavy atom, donor atom, acceptor molecule, acceptor atom, score
      L1  C    22    52       P1 11000  0.15

> <Gold.PLP.Chemscore.Internal.Correction>
0.1563

> <Gold.Rescore>
     Score         DG    S(hbond)    S(metal)    S(lipo)     H(rot)  DE(clash)    DE(int)     intcor
     11.02     -14.09       0.00        0.00     105.97       1.48       0.34       2.74       ----

> <Gold.Chemscore.Fitness>
11.0159

> <Gold.Chemscore.DG>
-14.0882

> <Gold.Chemscore.ZeroCoef>
-5.4800

> <Gold.Chemscore.Hbond>
0.0000

> <Gold.Chemscore.Metal>
0.0000

> <Gold.Chemscore.Lipo>
105.9678

> <Gold.Chemscore.Internal_Hbond>
0.0000

> <Gold.Chemscore.DEClash>
0.3352

> <Gold.Chemscore.DEInternal>
2.7371

> <Gold.Chemscore.Rot>
1.4805

> <Gold.Chemscore.Internal.Correction>
   9.000000E+99

> <Gold.Chemscore.Hbond.Weighted>
-0.0000

> <Gold.Chemscore.Metal.Weighted>
-0.0000

> <Gold.Chemscore.Lipo.Weighted>
-12.3982

> <Gold.Chemscore.Internal_Hbond.Weighted>
0.0000

> <Gold.Chemscore.DEClash.Weighted>
0.3352

> <Gold.Chemscore.DEInternal.Weighted>
2.7371

> <Gold.Chemscore.Rot.Weighted>
3.7900

> <Gold.Chemscore.Internal.Correction.Weighted>
   9.000000E+99

> <Gold.Protein.RotatedTorsions>
[ 6907 6896 6895 6894 ] final    6.02 input  -60.11 | X-H torsion
[ 7974 7965 7964 7962 ] final   93.05 input  175.53 | X-H torsion
[ 8008 7997 7996 7995 ] final  166.53 input   59.86 | X-H torsion
[ 10167 10162 10161 10158 ] final  -89.51 input  -65.29 | X-H torsion
[ 10718 10713 10712 10709 ] final  -99.86 input   66.30 | X-H torsion
[ 10763 10752 10751 10750 ] final -162.66 input  -60.55 | X-H torsion
[ 11005 11000 10999 10996 ] final -173.54 input  -57.11 | X-H torsion

> <Gold.Protein.ActiveResidues>
 VAL166  LYS551  ARG553  GLY616  TRP617  ASP618  TYR619  PRO620  LYS621  CYS622 
 ASP623  PHE694  ASN695  SER759  ASP760  ASP761  ALA762  ILE779  LEU786  VAL792 
 PHE793  MET794  SER795  GLU796  ALA797  LYS798  CYS799  TRP800  GLU811  SER814 

> <Gold.Protein.RotatedAtoms>
  151.6670  135.0981  160.0190 H   0  0  0  0  0  0  0  0  0  0  0  0  # atno 6907 bound_to 6896
  152.3914  133.6679  159.6249 H   0  0  0  0  0  0  0  0  0  0  0  0  # atno 6908 bound_to 6896
  150.7829  133.8865  159.3342 H   0  0  0  0  0  0  0  0  0  0  0  0  # atno 6909 bound_to 6896
  145.4841  139.2278  143.2866 H   0  0  0  0  0  0  0  0  0  0  0  0  # atno 7974 bound_to 7965
  156.1711  140.1641  156.8446 H   0  0  0  0  0  0  0  0  0  0  0  0  # atno 8008 bound_to 7997
  154.5257  140.0768  156.8289 H   0  0  0  0  0  0  0  0  0  0  0  0  # atno 8009 bound_to 7997
  155.3511  140.3390  155.4241 H   0  0  0  0  0  0  0  0  0  0  0  0  # atno 8010 bound_to 7997
  140.3641  143.2827  151.9579 H   0  0  0  0  0  0  0  0  0  0  0  0  # atno 10167 bound_to 10162
  156.0146  130.5301  150.6732 H   0  0  0  0  0  0  0  0  0  0  0  0  # atno 10718 bound_to 10713
  154.7194  135.3022  154.9071 H   0  0  0  0  0  0  0  0  0  0  0  0  # atno 10763 bound_to 10752
  153.9948  135.6714  153.4760 H   0  0  0  0  0  0  0  0  0  0  0  0  # atno 10764 bound_to 10752
  153.0821  135.5003  154.8440 H   0  0  0  0  0  0  0  0  0  0  0  0  # atno 10765 bound_to 10752
  140.4846  134.6043  157.4932 H   0  0  0  0  0  0  0  0  0  0  0  0  # atno 11005 bound_to 11000
  146.2323  140.5630  142.8970 LP  0  0  0  0  0  0  0  0  0  0  0  0  # atno 17320 bound_to 7965
  144.7872  140.5960  143.6566 LP  0  0  0  0  0  0  0  0  0  0  0  0  # atno 17321 bound_to 7965
  139.4811  144.5966  151.7679 LP  0  0  0  0  0  0  0  0  0  0  0  0  # atno 17342 bound_to 10162
  140.5098  144.1043  150.5992 LP  0  0  0  0  0  0  0  0  0  0  0  0  # atno 17343 bound_to 10162
  157.4450  131.0866  151.0905 LP  0  0  0  0  0  0  0  0  0  0  0  0  # atno 17370 bound_to 10713
  157.1437  130.6154  149.5562 LP  0  0  0  0  0  0  0  0  0  0  0  0  # atno 17371 bound_to 10713
  139.9806  134.7144  155.9867 LP  0  0  0  0  0  0  0  0  0  0  0  0  # atno 17394 bound_to 11000
  141.1514  133.6548  156.4026 LP  0  0  0  0  0  0  0  0  0  0  0  0  # atno 17395 bound_to 11000

$$$$
