AV-unprocessed.smi:2922|AV-procd|sdf|11199|dock9
  -GOLD-   2272016 93D 1   1.00000     0.00000
 Structure written by MMmdl.
 30 31  0  0  0  0  0  0  0  0  1 V2000
  142.4030  132.1558  147.8305 N   0  0  0  0  0  0  0  0  0  0  0  0
  143.2916  132.9434  148.4430 C   0  0  0  0  0  0  0  0  0  0  0  0
  143.6895  133.9896  147.9338 O   0  0  0  0  0  0  0  0  0  0  0  0
  143.8279  132.4850  149.8078 C   0  0  1  0  0  0  0  0  0  0  0  0
  145.3647  132.4670  149.9174 C   0  0  0  0  0  0  0  0  0  0  0  0
  145.6615  133.4255  151.0567 C   0  0  0  0  0  0  0  0  0  0  0  0
  144.3630  133.4054  151.8582 C   0  0  1  0  0  0  0  0  0  0  0  0
  144.1513  134.6304  152.7573 C   0  0  0  0  0  0  0  0  0  0  0  0
  142.8512  134.6011  153.4104 N   0  0  0  0  0  0  0  0  0  0  0  0
  141.9351  135.6344  153.3625 C   0  0  0  0  0  0  0  0  0  0  0  0
  142.3152  136.7931  152.8094 N   0  0  0  0  0  0  0  0  0  0  0  0
  141.4000  137.7865  152.7740 C   0  0  0  0  0  0  0  0  0  0  0  0
  140.1024  137.6118  153.2947 C   0  0  0  0  0  0  0  0  0  0  0  0
  138.9286  138.8753  153.2512 Cl  0  0  0  0  0  0  0  0  0  0  0  0
  139.8136  136.3505  153.8528 C   0  0  0  0  0  0  0  0  0  0  0  0
  140.7358  135.3629  153.8847 N   0  0  0  0  0  0  0  0  0  0  0  0
  143.3869  133.3784  150.8302 O   0  0  0  0  0  0  0  0  0  0  0  0
  142.0249  132.4250  146.9339 H   0  0  0  0  0  0  0  0  0  0  0  0
  142.1113  131.2950  148.2712 H   0  0  0  0  0  0  0  0  0  0  0  0
  143.4332  131.4909  150.0228 H   0  0  0  0  0  0  0  0  0  0  0  0
  145.7044  131.4618  150.1697 H   0  0  0  0  0  0  0  0  0  0  0  0
  145.8833  132.7682  149.0062 H   0  0  0  0  0  0  0  0  0  0  0  0
  146.5306  133.1308  151.6455 H   0  0  0  0  0  0  0  0  0  0  0  0
  145.8434  134.4249  150.6587 H   0  0  0  0  0  0  0  0  0  0  0  0
  144.2851  132.4831  152.4374 H   0  0  0  0  0  0  0  0  0  0  0  0
  144.9385  134.6869  153.5101 H   0  0  0  0  0  0  0  0  0  0  0  0
  144.2166  135.5389  152.1576 H   0  0  0  0  0  0  0  0  0  0  0  0
  142.5851  133.7678  153.9148 H   0  0  0  0  0  0  0  0  0  0  0  0
  141.7054  138.7217  152.3281 H   0  0  0  0  0  0  0  0  0  0  0  0
  138.8435  136.1318  154.2739 H   0  0  0  0  0  0  0  0  0  0  0  0
  1  2  1  0  0  0  0
  1 18  1  0  0  0  0
  1 19  1  0  0  0  0
  2  3  2  0  0  0  0
  2  4  1  0  0  0  0
  4 17  1  0  0  0  0
  4  5  1  0  0  0  0
  4 20  1  0  0  0  0
  5  6  1  0  0  0  0
  5 21  1  0  0  0  0
  5 22  1  0  0  0  0
  6  7  1  0  0  0  0
  6 23  1  0  0  0  0
  6 24  1  0  0  0  0
  7  8  1  0  0  0  0
  7 17  1  0  0  0  0
  7 25  1  0  0  0  0
  8  9  1  0  0  0  0
  8 26  1  0  0  0  0
  8 27  1  0  0  0  0
  9 10  1  0  0  0  0
  9 28  1  0  0  0  0
 10 16  1  0  0  0  0
 10 11  2  0  0  0  0
 11 12  1  0  0  0  0
 12 13  2  0  0  0  0
 12 29  1  0  0  0  0
 13 14  1  0  0  0  0
 13 15  1  0  0  0  0
 15 16  2  0  0  0  0
 15 30  1  0  0  0  0
M  END
> <s_m_source_file>
AV-unprocessed.smi

> <i_m_source_file_index>
2922

> <i_lp_mmshare_version>
43012

> <i_f3d_flags>
0

> <s_epik_input>
W05IMl1DKD1PKVtDQEBIXTFbQ0gyXVtDSDJdW0NASF0oTzEpW0NIMl1bTkhdYzJuW2NIXWMoQ2wpW2NIXW4y

> <s_epik_cmdline>
J2VwaWtfcHl0aG9uJywgJy1waCcsICc3LjAnLCAnLXRuJywgJzgnLCAnLW1hJywgJzIwMCcsICctbWV0YWxfYmluZGluZycsICctaW1hZScsICc8aW5maWxlLm1hZT4nLCAnLW9tYWUnLCAnPG91dGZpbGUubWFlPic=

> <r_lp_tautomer_probability>
1

> <r_epik_Ionization_Penalty>
6.13883e-06

> <r_epik_Ionization_Penalty_Charging>
0

> <r_epik_Ionization_Penalty_Neutral>
6.13883e-06

> <r_epik_State_Penalty>
-0

> <r_epik_Charging_Adjusted_Penalty>
0

> <i_epik_Tot_Q>
0

> <i_epik_Tot_abs_Q>
0

> <r_epik_Metal_State_Penalty>
-0

> <b_epik_Metal_Only>
0

> <s_lp_Force_Field>
OPLS_2005

> <r_lp_Energy>
9.86334

> <b_lp_Chiralities_Consistent>
1

> <s_lp_Variant>
AV-unprocessed.smi:2922-2

> <Gold.Version>
5.8.1

> <Gold.Id.Protein>
6NUR|6NUR_protein|mol2

> <Gold.PLP.Fitness>
46.6873

> <Gold.PLP.PLP>
-28.7098

> <Gold.PLP.part.hbond>
-5.4294

> <Gold.PLP.part.metal>
0.0000

> <Gold.PLP.part.buried>
-6.0868

> <Gold.PLP.part.nonpolar>
-24.1120

> <Gold.PLP.part.repulsive>
6.1269

> <Gold.PLP.ligand.clash>
0.0000

> <Gold.PLP.ligand.torsion>
0.1617

> <Gold.PLP.Chemscore.Hbond>
4.5520

> <Gold.PLP.Chemscore.CHOScore>
1.5413

> <Gold.PLP.Chemscore.Metal>
0.0000

> <Gold.Chemscore.Hbonds>
donor molecule, donor type, donor heavy atom, donor atom, acceptor molecule, acceptor atom, score
      L1  H     1    18       P1 10195  1.00
      L1  H     1    19       P1 10952  0.94
      L1  H     9    28       P1 10957  0.63
      P1  H 10192 10197       L1     3  0.62
      P1  H 11000 11005       L1    16  0.70
      L1  C    12    29       P1 10160  0.81
      L1  C    12    29       P1 10175  0.95

> <Gold.PLP.Chemscore.Internal.Correction>
0.0211

> <Gold.Rescore>
     Score         DG    S(hbond)    S(metal)    S(lipo)     H(rot)  DE(clash)    DE(int)     intcor
     18.03     -22.69       4.38        0.00      63.88       1.91       4.62       0.04       ----

> <Gold.Chemscore.Fitness>
18.0284

> <Gold.Chemscore.DG>
-22.6879

> <Gold.Chemscore.ZeroCoef>
-5.4800

> <Gold.Chemscore.Hbond>
4.3813

> <Gold.Chemscore.Metal>
0.0000

> <Gold.Chemscore.Lipo>
63.8844

> <Gold.Chemscore.Internal_Hbond>
0.0000

> <Gold.Chemscore.DEClash>
4.6217

> <Gold.Chemscore.DEInternal>
0.0378

> <Gold.Chemscore.Rot>
1.9142

> <Gold.Chemscore.Internal.Correction>
   9.000000E+99

> <Gold.Chemscore.Hbonds>
donor molecule, donor type, donor heavy atom, donor atom, acceptor molecule, acceptor atom, score
      L1  H     1    18       P1 10195  0.98
      L1  H     1    19       P1 10952  0.84
      L1  H     9    28       P1 10957  0.62
      P1  H  7918  7932       L1     3  0.01
      P1  H 10192 10197       L1     3  0.47
      P1  H 11000 11005       L1    16  0.24

> <Gold.Chemscore.Hbond.Weighted>
-14.6337

> <Gold.Chemscore.Metal.Weighted>
-0.0000

> <Gold.Chemscore.Lipo.Weighted>
-7.4745

> <Gold.Chemscore.Internal_Hbond.Weighted>
0.0000

> <Gold.Chemscore.DEClash.Weighted>
4.6217

> <Gold.Chemscore.DEInternal.Weighted>
0.0378

> <Gold.Chemscore.Rot.Weighted>
4.9002

> <Gold.Chemscore.Internal.Correction.Weighted>
   9.000000E+99

> <Gold.Protein.RotatedTorsions>
[ 6907 6896 6895 6894 ] final   21.14 input  -60.11 | X-H torsion
[ 7974 7965 7964 7962 ] final -155.58 input  175.53 | X-H torsion
[ 8008 7997 7996 7995 ] final   59.67 input   59.86 | X-H torsion
[ 10167 10162 10161 10158 ] final  -40.53 input  -65.29 | X-H torsion
[ 10718 10713 10712 10709 ] final    7.88 input   66.30 | X-H torsion
[ 10763 10752 10751 10750 ] final   57.30 input  -60.55 | X-H torsion
[ 11005 11000 10999 10996 ] final   33.91 input  -57.11 | X-H torsion

> <Gold.Protein.ActiveResidues>
 VAL166  LYS551  ARG553  GLY616  TRP617  ASP618  TYR619  PRO620  LYS621  CYS622 
 ASP623  PHE694  ASN695  SER759  ASP760  ASP761  ALA762  ILE779  LEU786  VAL792 
 PHE793  MET794  SER795  GLU796  ALA797  LYS798  CYS799  TRP800  GLU811  SER814 

> <Gold.Protein.RotatedAtoms>
  151.9072  135.0354  160.0511 H   0  0  0  0  0  0  0  0  0  0  0  0  # atno 6907 bound_to 6896
  152.2310  133.5053  159.5224 H   0  0  0  0  0  0  0  0  0  0  0  0  # atno 6908 bound_to 6896
  150.7025  134.1133  159.4051 H   0  0  0  0  0  0  0  0  0  0  0  0  # atno 6909 bound_to 6896
  144.7633  140.4229  143.5960 H   0  0  0  0  0  0  0  0  0  0  0  0  # atno 7974 bound_to 7965
  155.5699  140.3490  155.4512 H   0  0  0  0  0  0  0  0  0  0  0  0  # atno 8008 bound_to 7997
  156.0452  140.1305  157.0137 H   0  0  0  0  0  0  0  0  0  0  0  0  # atno 8009 bound_to 7997
  154.4409  140.1016  156.6280 H   0  0  0  0  0  0  0  0  0  0  0  0  # atno 8010 bound_to 7997
  140.7031  143.3148  151.2938 H   0  0  0  0  0  0  0  0  0  0  0  0  # atno 10167 bound_to 10162
  156.9435  130.5870  149.5653 H   0  0  0  0  0  0  0  0  0  0  0  0  # atno 10718 bound_to 10713
  152.9847  135.5646  154.5368 H   0  0  0  0  0  0  0  0  0  0  0  0  # atno 10763 bound_to 10752
  154.4830  135.2789  155.1558 H   0  0  0  0  0  0  0  0  0  0  0  0  # atno 10764 bound_to 10752
  154.3059  135.6298  153.5498 H   0  0  0  0  0  0  0  0  0  0  0  0  # atno 10765 bound_to 10752
  140.2583  134.3222  155.7866 H   0  0  0  0  0  0  0  0  0  0  0  0  # atno 11005 bound_to 11000
  145.6549  139.1571  143.2841 LP  0  0  0  0  0  0  0  0  0  0  0  0  # atno 17320 bound_to 7965
  146.1717  140.6635  142.9230 LP  0  0  0  0  0  0  0  0  0  0  0  0  # atno 17321 bound_to 7965
  139.6582  144.0237  152.2674 LP  0  0  0  0  0  0  0  0  0  0  0  0  # atno 17342 bound_to 10162
  139.9795  144.6438  150.7914 LP  0  0  0  0  0  0  0  0  0  0  0  0  # atno 17343 bound_to 10162
  156.0394  130.5478  150.8733 LP  0  0  0  0  0  0  0  0  0  0  0  0  # atno 17370 bound_to 10713
  157.5769  131.0946  150.9331 LP  0  0  0  0  0  0  0  0  0  0  0  0  # atno 17371 bound_to 10713
  141.2193  133.7394  156.9146 LP  0  0  0  0  0  0  0  0  0  0  0  0  # atno 17394 bound_to 11000
  140.1490  134.9243  157.2567 LP  0  0  0  0  0  0  0  0  0  0  0  0  # atno 17395 bound_to 11000

$$$$
