AV-unprocessed.smi:1629|AV-procd|sdf|6522|dock7
  -GOLD-   22720 7193D 1   1.00000     0.00000
 Structure written by MMmdl.
 45 46  0  0  0  0  0  0  0  0  2 V2000
  148.8857  132.5975  157.2747 C   0  0  0  0  0  0  0  0  0  0  0  0
  150.0142  133.5347  156.1677 S   0  0  0  0  0  0  0  0  0  0  0  0
  151.2479  133.8520  156.9025 O   0  0  0  0  0  0  0  0  0  0  0  0
  150.0786  132.8356  154.8751 O   0  0  0  0  0  0  0  0  0  0  0  0
  149.1531  135.0134  155.9334 N   0  0  0  0  0  0  0  0  0  0  0  0
  149.6802  136.0113  154.9983 C   0  0  0  0  0  0  0  0  0  0  0  0
  151.1974  136.2119  155.2082 C   0  0  0  0  0  0  0  0  0  0  0  0
  151.7228  137.3842  154.3598 C   0  0  0  0  0  0  0  0  0  0  0  0
  150.9575  138.5984  154.6923 N   0  0  0  0  0  0  0  0  0  0  0  0
  151.4043  139.6533  155.4198 C   0  0  0  0  0  0  0  0  0  0  0  0
  152.4107  139.6082  156.1289 O   0  0  0  0  0  0  0  0  0  0  0  0
  150.6338  140.7512  155.3515 N   0  0  0  0  0  0  0  0  0  0  0  0
  150.8870  141.9849  156.0826 C   0  0  0  0  0  0  0  0  0  0  0  0
  150.9850  141.7127  157.5898 C   0  0  0  0  0  0  0  0  0  0  0  0
  151.3170  142.9659  158.3771 C   0  0  0  0  0  0  0  0  0  0  0  0
  152.1791  142.9432  159.4951 C   0  0  0  0  0  0  0  0  0  0  0  0
  152.4546  144.1466  160.1775 C   0  0  0  0  0  0  0  0  0  0  0  0
  151.8640  145.3458  159.7280 C   0  0  0  0  0  0  0  0  0  0  0  0
  151.0129  145.3115  158.6046 C   0  0  0  0  0  0  0  0  0  0  0  0
  150.7738  144.1387  157.9773 N   0  3  0  0  0  0  0  0  0  0  0  0
  149.5437  138.4544  154.3215 C   0  0  0  0  0  0  0  0  0  0  0  0
  148.9118  137.3370  155.1706 C   0  0  0  0  0  0  0  0  0  0  0  0
  149.3198  131.6220  157.4932 H   0  0  0  0  0  0  0  0  0  0  0  0
  147.9226  132.4624  156.7822 H   0  0  0  0  0  0  0  0  0  0  0  0
  148.7448  133.1482  158.2045 H   0  0  0  0  0  0  0  0  0  0  0  0
  148.9096  135.4399  156.8272 H   0  0  0  0  0  0  0  0  0  0  0  0
  149.5120  135.6560  153.9809 H   0  0  0  0  0  0  0  0  0  0  0  0
  151.4049  136.4073  156.2614 H   0  0  0  0  0  0  0  0  0  0  0  0
  151.7387  135.3015  154.9489 H   0  0  0  0  0  0  0  0  0  0  0  0
  152.7985  137.4837  154.5030 H   0  0  0  0  0  0  0  0  0  0  0  0
  151.5927  137.1609  153.2998 H   0  0  0  0  0  0  0  0  0  0  0  0
  149.8129  140.7201  154.7643 H   0  0  0  0  0  0  0  0  0  0  0  0
  151.8162  142.4332  155.7264 H   0  0  0  0  0  0  0  0  0  0  0  0
  150.0849  142.6954  155.8764 H   0  0  0  0  0  0  0  0  0  0  0  0
  150.0443  141.3008  157.9586 H   0  0  0  0  0  0  0  0  0  0  0  0
  151.7487  140.9581  157.7839 H   0  0  0  0  0  0  0  0  0  0  0  0
  152.6270  142.0172  159.8254 H   0  0  0  0  0  0  0  0  0  0  0  0
  153.1118  144.1502  161.0348 H   0  0  0  0  0  0  0  0  0  0  0  0
  152.0620  146.2779  160.2371 H   0  0  0  0  0  0  0  0  0  0  0  0
  150.5202  146.1798  158.1920 H   0  0  0  0  0  0  0  0  0  0  0  0
  148.9799  139.3802  154.4443 H   0  0  0  0  0  0  0  0  0  0  0  0
  149.4721  138.2056  153.2618 H   0  0  0  0  0  0  0  0  0  0  0  0
  147.8662  137.2037  154.8910 H   0  0  0  0  0  0  0  0  0  0  0  0
  148.9163  137.6377  156.2197 H   0  0  0  0  0  0  0  0  0  0  0  0
  150.1551  144.1382  157.1659 H   0  0  0  0  0  0  0  0  0  0  0  0
  1  2  1  0  0  0  0
  1 23  1  0  0  0  0
  1 24  1  0  0  0  0
  1 25  1  0  0  0  0
  2  3  2  0  0  0  0
  2  4  2  0  0  0  0
  2  5  1  0  0  0  0
  5  6  1  0  0  0  0
  5 26  1  0  0  0  0
  6 22  1  0  0  0  0
  6  7  1  0  0  0  0
  6 27  1  0  0  0  0
  7  8  1  0  0  0  0
  7 28  1  0  0  0  0
  7 29  1  0  0  0  0
  8  9  1  0  0  0  0
  8 30  1  0  0  0  0
  8 31  1  0  0  0  0
  9 10  1  0  0  0  0
  9 21  1  0  0  0  0
 10 11  2  0  0  0  0
 10 12  1  0  0  0  0
 12 13  1  0  0  0  0
 12 32  1  0  0  0  0
 13 14  1  0  0  0  0
 13 33  1  0  0  0  0
 13 34  1  0  0  0  0
 14 15  1  0  0  0  0
 14 35  1  0  0  0  0
 14 36  1  0  0  0  0
 15 20  1  0  0  0  0
 15 16  2  0  0  0  0
 16 17  1  0  0  0  0
 16 37  1  0  0  0  0
 17 18  2  0  0  0  0
 17 38  1  0  0  0  0
 18 19  1  0  0  0  0
 18 39  1  0  0  0  0
 19 20  2  0  0  0  0
 19 40  1  0  0  0  0
 20 45  1  0  0  0  0
 21 22  1  0  0  0  0
 21 41  1  0  0  0  0
 21 42  1  0  0  0  0
 22 43  1  0  0  0  0
 22 44  1  0  0  0  0
M  CHG  1  20   1
M  END
> <s_m_source_file>
AV-unprocessed.smi

> <i_m_source_file_index>
1629

> <i_lp_mmshare_version>
43012

> <i_f3d_flags>
0

> <s_epik_input>
W0NIM11TKD1PKSg9TylbTkhdW0NIXTFbQ0gyXVtDSDJdTihbQ0gyXVtDSDJdMSlDKD1PKVtOSF1bQ0gyXVtDSDJdYzJbY0hdW2NIXVtjSF1bY0hdbjI=

> <s_epik_cmdline>
J2VwaWtfcHl0aG9uJywgJy1waCcsICc3LjAnLCAnLXRuJywgJzgnLCAnLW1hJywgJzIwMCcsICctbWV0YWxfYmluZGluZycsICctaW1hZScsICc8aW5maWxlLm1hZT4nLCAnLW9tYWUnLCAnPG91dGZpbGUubWFlPic=

> <r_epik_Ionization_Penalty>
1.55223

> <r_epik_Ionization_Penalty_Charging>
1.55216

> <r_epik_Ionization_Penalty_Neutral>
6.06433e-05

> <r_epik_State_Penalty>
1.64647

> <r_epik_Charging_Adjusted_Penalty>
3.19864

> <i_epik_Tot_Q>
1

> <i_epik_Tot_abs_Q>
1

> <r_epik_Metal_State_Penalty>
1.69511

> <b_epik_Metal_Only>
0

> <s_lp_Force_Field>
OPLS_2005

> <r_lp_Energy>
29.0489

> <b_lp_Chiralities_Consistent>
1

> <s_lp_Variant>
AV-unprocessed.smi:1629-2

> <Gold.Version>
5.8.1

> <Gold.Id.Protein>
6NUR|6NUR_protein|mol2

> <Gold.PLP.Fitness>
46.4346

> <Gold.PLP.PLP>
-38.7292

> <Gold.PLP.part.hbond>
-2.9740

> <Gold.PLP.part.metal>
0.0000

> <Gold.PLP.part.buried>
-2.9575

> <Gold.PLP.part.nonpolar>
-32.3445

> <Gold.PLP.part.repulsive>
0.6408

> <Gold.PLP.ligand.clash>
0.2538

> <Gold.PLP.ligand.torsion>
0.6595

> <Gold.PLP.Chemscore.Hbond>
3.0362

> <Gold.PLP.Chemscore.CHOScore>
0.0000

> <Gold.PLP.Chemscore.Metal>
0.0000

> <Gold.Chemscore.Hbonds>
donor molecule, donor type, donor heavy atom, donor atom, acceptor molecule, acceptor atom, score
      L1  H    20    45       P1  8028  2.00
      P1  H  7997  8010       L1    11  1.00

> <Gold.PLP.Chemscore.Internal.Correction>
0.1697

> <Gold.Rescore>
     Score         DG    S(hbond)    S(metal)    S(lipo)     H(rot)  DE(clash)    DE(int)     intcor
     14.91     -18.38       2.07        0.00      97.80       2.13       0.47       3.00       ----

> <Gold.Chemscore.Fitness>
14.9071

> <Gold.Chemscore.DG>
-18.3815

> <Gold.Chemscore.ZeroCoef>
-5.4800

> <Gold.Chemscore.Hbond>
2.0715

> <Gold.Chemscore.Metal>
0.0000

> <Gold.Chemscore.Lipo>
97.7958

> <Gold.Chemscore.Internal_Hbond>
0.0000

> <Gold.Chemscore.DEClash>
0.4695

> <Gold.Chemscore.DEInternal>
3.0049

> <Gold.Chemscore.Rot>
2.1326

> <Gold.Chemscore.Internal.Correction>
   9.000000E+99

> <Gold.Chemscore.Hbonds>
donor molecule, donor type, donor heavy atom, donor atom, acceptor molecule, acceptor atom, score
      L1  H    20    45       P1  8028  0.80
      P1  H  6896  6907       L1     3  0.02
      P1  H  7997  8010       L1    11  0.96

> <Gold.Chemscore.Hbond.Weighted>
-6.9189

> <Gold.Chemscore.Metal.Weighted>
-0.0000

> <Gold.Chemscore.Lipo.Weighted>
-11.4421

> <Gold.Chemscore.Internal_Hbond.Weighted>
0.0000

> <Gold.Chemscore.DEClash.Weighted>
0.4695

> <Gold.Chemscore.DEInternal.Weighted>
3.0049

> <Gold.Chemscore.Rot.Weighted>
5.4595

> <Gold.Chemscore.Internal.Correction.Weighted>
   9.000000E+99

> <Gold.Protein.RotatedTorsions>
[ 6907 6896 6895 6894 ] final  179.36 input  -60.11 | X-H torsion
[ 7974 7965 7964 7962 ] final -159.76 input  175.53 | X-H torsion
[ 8008 7997 7996 7995 ] final   80.34 input   59.86 | X-H torsion
[ 10167 10162 10161 10158 ] final  -20.71 input  -65.29 | X-H torsion
[ 10718 10713 10712 10709 ] final  -23.06 input   66.30 | X-H torsion
[ 10763 10752 10751 10750 ] final  -43.60 input  -60.55 | X-H torsion
[ 11005 11000 10999 10996 ] final -123.77 input  -57.11 | X-H torsion

> <Gold.Protein.ActiveResidues>
 VAL166  LYS551  ARG553  GLY616  TRP617  ASP618  TYR619  PRO620  LYS621  CYS622 
 ASP623  PHE694  ASN695  SER759  ASP760  ASP761  ALA762  ILE779  LEU786  VAL792 
 PHE793  MET794  SER795  GLU796  ALA797  LYS798  CYS799  TRP800  GLU811  SER814 

> <Gold.Protein.RotatedAtoms>
  151.6729  133.3313  159.3200 H   0  0  0  0  0  0  0  0  0  0  0  0  # atno 6907 bound_to 6896
  150.7859  134.6847  159.6472 H   0  0  0  0  0  0  0  0  0  0  0  0  # atno 6908 bound_to 6896
  152.3928  134.6417  160.0153 H   0  0  0  0  0  0  0  0  0  0  0  0  # atno 6909 bound_to 6896
  144.7453  140.3639  143.6090 H   0  0  0  0  0  0  0  0  0  0  0  0  # atno 7974 bound_to 7965
  155.8822  140.3443  155.5896 H   0  0  0  0  0  0  0  0  0  0  0  0  # atno 8008 bound_to 7997
  155.7707  140.0845  157.2128 H   0  0  0  0  0  0  0  0  0  0  0  0  # atno 8009 bound_to 7997
  154.4025  140.1519  156.2926 H   0  0  0  0  0  0  0  0  0  0  0  0  # atno 8010 bound_to 7997
  140.7278  143.4696  151.0265 H   0  0  0  0  0  0  0  0  0  0  0  0  # atno 10167 bound_to 10162
  156.4961  130.4577  149.6727 H   0  0  0  0  0  0  0  0  0  0  0  0  # atno 10718 bound_to 10713
  153.9983  135.6697  153.4758 H   0  0  0  0  0  0  0  0  0  0  0  0  # atno 10763 bound_to 10752
  153.0674  135.4993  154.8226 H   0  0  0  0  0  0  0  0  0  0  0  0  # atno 10764 bound_to 10752
  154.7068  135.3089  154.9221 H   0  0  0  0  0  0  0  0  0  0  0  0  # atno 10765 bound_to 10752
  140.9893  134.0561  157.3673 H   0  0  0  0  0  0  0  0  0  0  0  0  # atno 11005 bound_to 11000
  145.7148  139.1694  143.2518 LP  0  0  0  0  0  0  0  0  0  0  0  0  # atno 17320 bound_to 7965
  146.1320  140.7173  142.9407 LP  0  0  0  0  0  0  0  0  0  0  0  0  # atno 17321 bound_to 7965
  139.8387  143.7593  152.3180 LP  0  0  0  0  0  0  0  0  0  0  0  0  # atno 17342 bound_to 10162
  139.7734  144.7469  151.0192 LP  0  0  0  0  0  0  0  0  0  0  0  0  # atno 17343 bound_to 10162
  156.3378  130.7366  151.2306 LP  0  0  0  0  0  0  0  0  0  0  0  0  # atno 17370 bound_to 10713
  157.7468  131.0412  150.4634 LP  0  0  0  0  0  0  0  0  0  0  0  0  # atno 17371 bound_to 10713
  139.8985  135.0155  156.7151 LP  0  0  0  0  0  0  0  0  0  0  0  0  # atno 17394 bound_to 11000
  140.7065  133.9261  155.8057 LP  0  0  0  0  0  0  0  0  0  0  0  0  # atno 17395 bound_to 11000

$$$$
