AV-unprocessed.smi:2131|AV-procd|sdf|8689|dock2
  -GOLD-   2272011443D 1   1.00000     0.00000
 Structure written by MMmdl.
 41 43  0  0  0  0  0  0  0  0  2 V2000
  143.7506  133.5863  161.9156 N   0  0  0  0  0  0  0  0  0  0  0  0
  144.8303  133.2938  161.6202 C   0  0  0  0  0  0  0  0  0  0  0  0
  146.2029  132.9214  161.2447 C   0  0  0  0  0  0  0  0  0  0  0  0
  147.0098  134.1171  160.7825 C   0  0  0  0  0  0  0  0  0  0  0  0
  147.2798  135.1764  161.6705 C   0  0  0  0  0  0  0  0  0  0  0  0
  148.0279  136.2879  161.2373 C   0  0  0  0  0  0  0  0  0  0  0  0
  148.5166  136.3598  159.9163 C   0  0  0  0  0  0  0  0  0  0  0  0
  149.2383  137.4842  159.5763 O   0  0  0  0  0  0  0  0  0  0  0  0
  149.2103  137.9179  158.2227 C   0  0  0  0  0  0  0  0  0  0  0  0
  150.6383  138.2667  157.7770 C   0  0  2  0  0  0  0  0  0  0  0  0
  151.4271  137.0960  157.8559 O   0  0  0  0  0  0  0  0  0  0  0  0
  151.2660  139.3875  158.6294 C   0  0  0  0  0  0  0  0  0  0  0  0
  150.9921  140.7289  158.0941 N   0  0  0  0  0  0  0  0  0  0  0  0
  150.2845  141.0934  156.9908 C   0  0  0  0  0  0  0  0  0  0  0  0
  150.3163  142.4524  156.9113 N   0  3  0  0  0  0  0  0  0  0  0  0
  151.0560  142.9649  157.9789 C   0  0  0  0  0  0  0  0  0  0  0  0
  151.3677  144.2764  158.3234 C   0  0  0  0  0  0  0  0  0  0  0  0
  152.1506  144.4573  159.4825 C   0  0  0  0  0  0  0  0  0  0  0  0
  152.5926  143.3593  160.2488 C   0  0  0  0  0  0  0  0  0  0  0  0
  152.2702  142.0338  159.8902 C   0  0  0  0  0  0  0  0  0  0  0  0
  151.4943  141.8629  158.7438 C   0  0  0  0  0  0  0  0  0  0  0  0
  148.2410  135.2894  159.0278 C   0  0  0  0  0  0  0  0  0  0  0  0
  147.4926  134.1775  159.4607 C   0  0  0  0  0  0  0  0  0  0  0  0
  146.6822  132.4550  162.1058 H   0  0  0  0  0  0  0  0  0  0  0  0
  146.1536  132.1739  160.4526 H   0  0  0  0  0  0  0  0  0  0  0  0
  146.9121  135.1397  162.6855 H   0  0  0  0  0  0  0  0  0  0  0  0
  148.2279  137.0953  161.9265 H   0  0  0  0  0  0  0  0  0  0  0  0
  148.7944  137.1430  157.5762 H   0  0  0  0  0  0  0  0  0  0  0  0
  148.5769  138.8031  158.1411 H   0  0  0  0  0  0  0  0  0  0  0  0
  150.6183  138.5759  156.7312 H   0  0  0  0  0  0  0  0  0  0  0  0
  151.6207  136.9262  158.7654 H   0  0  0  0  0  0  0  0  0  0  0  0
  150.8570  139.3595  159.6401 H   0  0  0  0  0  0  0  0  0  0  0  0
  152.3426  139.2518  158.7341 H   0  0  0  0  0  0  0  0  0  0  0  0
  149.7887  140.4248  156.3017 H   0  0  0  0  0  0  0  0  0  0  0  0
  151.0316  145.1193  157.7374 H   0  0  0  0  0  0  0  0  0  0  0  0
  152.4185  145.4580  159.7894 H   0  0  0  0  0  0  0  0  0  0  0  0
  153.1929  143.5366  161.1294 H   0  0  0  0  0  0  0  0  0  0  0  0
  152.6198  141.2005  160.4811 H   0  0  0  0  0  0  0  0  0  0  0  0
  148.5914  135.2971  158.0070 H   0  0  0  0  0  0  0  0  0  0  0  0
  147.2881  133.3700  158.7730 H   0  0  0  0  0  0  0  0  0  0  0  0
  149.8670  142.9883  156.1798 H   0  0  0  0  0  0  0  0  0  0  0  0
  1  2  3  0  0  0  0
  2  3  1  0  0  0  0
  3  4  1  0  0  0  0
  3 24  1  0  0  0  0
  3 25  1  0  0  0  0
  4 23  1  0  0  0  0
  4  5  2  0  0  0  0
  5  6  1  0  0  0  0
  5 26  1  0  0  0  0
  6  7  2  0  0  0  0
  6 27  1  0  0  0  0
  7  8  1  0  0  0  0
  7 22  1  0  0  0  0
  8  9  1  0  0  0  0
  9 10  1  0  0  0  0
  9 28  1  0  0  0  0
  9 29  1  0  0  0  0
 10 11  1  0  0  0  0
 10 12  1  0  0  0  0
 10 30  1  0  0  0  0
 11 31  1  0  0  0  0
 12 13  1  0  0  0  0
 12 32  1  0  0  0  0
 12 33  1  0  0  0  0
 13 21  1  0  0  0  0
 13 14  1  0  0  0  0
 14 15  2  0  0  0  0
 14 34  1  0  0  0  0
 15 16  1  0  0  0  0
 15 41  1  0  0  0  0
 16 21  2  0  0  0  0
 16 17  1  0  0  0  0
 17 18  2  0  0  0  0
 17 35  1  0  0  0  0
 18 19  1  0  0  0  0
 18 36  1  0  0  0  0
 19 20  2  0  0  0  0
 19 37  1  0  0  0  0
 20 21  1  0  0  0  0
 20 38  1  0  0  0  0
 22 23  2  0  0  0  0
 22 39  1  0  0  0  0
 23 40  1  0  0  0  0
M  CHG  1  15   1
M  END
> <s_m_source_file>
AV-unprocessed.smi

> <i_m_source_file_index>
2131

> <i_lp_mmshare_version>
43012

> <i_f3d_flags>
0

> <s_epik_input>
TiNDW0NIMl1jMVtjSF1bY0hdYyhbY0hdW2NIXTEpT1tDSDJdW0NASF0oW09IXSlbQ0gyXW4oW2NIXW4yKWMoYzIzKVtjSF1bY0hdW2NIXVtjSF0z

> <s_epik_cmdline>
J2VwaWtfcHl0aG9uJywgJy1waCcsICc3LjAnLCAnLXRuJywgJzgnLCAnLW1hJywgJzIwMCcsICctbWV0YWxfYmluZGluZycsICctaW1hZScsICc8aW5maWxlLm1hZT4nLCAnLW9tYWUnLCAnPG91dGZpbGUubWFlPic=

> <r_lp_tautomer_probability>
1

> <r_epik_Ionization_Penalty>
1.3774

> <r_epik_Ionization_Penalty_Charging>
1.37739

> <r_epik_Ionization_Penalty_Neutral>
2.3994e-06

> <r_epik_State_Penalty>
1.45762

> <r_epik_Charging_Adjusted_Penalty>
2.83501

> <i_epik_Tot_Q>
1

> <i_epik_Tot_abs_Q>
1

> <r_epik_Metal_State_Penalty>
5.49752

> <b_epik_Metal_Only>
0

> <s_lp_Force_Field>
OPLS_2005

> <r_lp_Energy>
20.896

> <b_lp_Chiralities_Consistent>
1

> <s_lp_Variant>
AV-unprocessed.smi:2131-3

> <Gold.Version>
5.8.1

> <Gold.Id.Protein>
6NUR|6NUR_protein|mol2

> <Gold.PLP.Fitness>
51.8951

> <Gold.PLP.PLP>
-47.6057

> <Gold.PLP.part.hbond>
-2.5789

> <Gold.PLP.part.metal>
0.0000

> <Gold.PLP.part.buried>
-3.7576

> <Gold.PLP.part.nonpolar>
-41.4860

> <Gold.PLP.part.repulsive>
0.1295

> <Gold.PLP.ligand.clash>
0.0000

> <Gold.PLP.ligand.torsion>
1.0810

> <Gold.PLP.Chemscore.Hbond>
2.0324

> <Gold.PLP.Chemscore.CHOScore>
0.0000

> <Gold.PLP.Chemscore.Metal>
0.0000

> <Gold.Chemscore.Hbonds>
donor molecule, donor type, donor heavy atom, donor atom, acceptor molecule, acceptor atom, score
      L1  H    15    41       P1  8028  1.78

> <Gold.PLP.Chemscore.Internal.Correction>
0.3541

> <Gold.Rescore>
     Score         DG    S(hbond)    S(metal)    S(lipo)     H(rot)  DE(clash)    DE(int)     intcor
     14.21     -15.55       0.99        0.00     119.39       2.81       0.36       0.98       ----

> <Gold.Chemscore.Fitness>
14.2084

> <Gold.Chemscore.DG>
-15.5489

> <Gold.Chemscore.ZeroCoef>
-5.4800

> <Gold.Chemscore.Hbond>
0.9893

> <Gold.Chemscore.Metal>
0.0000

> <Gold.Chemscore.Lipo>
119.3901

> <Gold.Chemscore.Internal_Hbond>
0.0000

> <Gold.Chemscore.DEClash>
0.3559

> <Gold.Chemscore.DEInternal>
0.9847

> <Gold.Chemscore.Rot>
2.8140

> <Gold.Chemscore.Internal.Correction>
   9.000000E+99

> <Gold.Chemscore.Hbonds>
donor molecule, donor type, donor heavy atom, donor atom, acceptor molecule, acceptor atom, score
      L1  H    15    41       P1  8028  0.82

> <Gold.Chemscore.Hbond.Weighted>
-3.3043

> <Gold.Chemscore.Metal.Weighted>
-0.0000

> <Gold.Chemscore.Lipo.Weighted>
-13.9686

> <Gold.Chemscore.Internal_Hbond.Weighted>
0.0000

> <Gold.Chemscore.DEClash.Weighted>
0.3559

> <Gold.Chemscore.DEInternal.Weighted>
0.9847

> <Gold.Chemscore.Rot.Weighted>
7.2039

> <Gold.Chemscore.Internal.Correction.Weighted>
   9.000000E+99

> <Gold.Protein.RotatedTorsions>
[ 6907 6896 6895 6894 ] final   42.97 input  -60.11 | X-H torsion
[ 7974 7965 7964 7962 ] final  -92.00 input  175.53 | X-H torsion
[ 8008 7997 7996 7995 ] final  -64.17 input   59.86 | X-H torsion
[ 10167 10162 10161 10158 ] final  -19.82 input  -65.29 | X-H torsion
[ 10718 10713 10712 10709 ] final   65.23 input   66.30 | X-H torsion
[ 10763 10752 10751 10750 ] final   12.09 input  -60.55 | X-H torsion
[ 11005 11000 10999 10996 ] final  153.24 input  -57.11 | X-H torsion

> <Gold.Protein.ActiveResidues>
 VAL166  LYS551  ARG553  GLY616  TRP617  ASP618  TYR619  PRO620  LYS621  CYS622 
 ASP623  PHE694  ASN695  SER759  ASP760  ASP761  ALA762  ILE779  LEU786  VAL792 
 PHE793  MET794  SER795  GLU796  ALA797  LYS798  CYS799  TRP800  GLU811  SER814 

> <Gold.Protein.RotatedAtoms>
  152.2144  134.8471  160.0493 H   0  0  0  0  0  0  0  0  0  0  0  0  # atno 6907 bound_to 6896
  151.9277  133.3597  159.3928 H   0  0  0  0  0  0  0  0  0  0  0  0  # atno 6908 bound_to 6896
  150.6984  134.4494  159.5373 H   0  0  0  0  0  0  0  0  0  0  0  0  # atno 6909 bound_to 6896
  145.4057  140.9541  143.2262 H   0  0  0  0  0  0  0  0  0  0  0  0  # atno 7974 bound_to 7965
  154.4596  140.0959  156.6856 H   0  0  0  0  0  0  0  0  0  0  0  0  # atno 8008 bound_to 7997
  155.5034  140.3474  155.4357 H   0  0  0  0  0  0  0  0  0  0  0  0  # atno 8009 bound_to 7997
  156.0845  140.1381  156.9659 H   0  0  0  0  0  0  0  0  0  0  0  0  # atno 8010 bound_to 7997
  140.7271  143.4781  151.0154 H   0  0  0  0  0  0  0  0  0  0  0  0  # atno 10167 bound_to 10162
  157.6092  130.9203  149.9950 H   0  0  0  0  0  0  0  0  0  0  0  0  # atno 10718 bound_to 10713
  153.1858  135.6835  153.8417 H   0  0  0  0  0  0  0  0  0  0  0  0  # atno 10763 bound_to 10752
  153.7733  135.3193  155.3356 H   0  0  0  0  0  0  0  0  0  0  0  0  # atno 10764 bound_to 10752
  154.8088  135.4731  154.0558 H   0  0  0  0  0  0  0  0  0  0  0  0  # atno 10765 bound_to 10752
  140.1379  134.8758  157.2292 H   0  0  0  0  0  0  0  0  0  0  0  0  # atno 11005 bound_to 11000
  144.8343  139.5576  143.6929 LP  0  0  0  0  0  0  0  0  0  0  0  0  # atno 17320 bound_to 7965
  146.2730  139.6682  142.9283 LP  0  0  0  0  0  0  0  0  0  0  0  0  # atno 17321 bound_to 7965
  139.8478  143.7478  152.3179 LP  0  0  0  0  0  0  0  0  0  0  0  0  # atno 17342 bound_to 10162
  139.7649  144.7495  151.0308 LP  0  0  0  0  0  0  0  0  0  0  0  0  # atno 17343 bound_to 10162
  156.1189  130.3646  149.9921 LP  0  0  0  0  0  0  0  0  0  0  0  0  # atno 17370 bound_to 10713
  156.8005  130.9289  151.3646 LP  0  0  0  0  0  0  0  0  0  0  0  0  # atno 17371 bound_to 10713
  140.2758  134.3407  155.7358 LP  0  0  0  0  0  0  0  0  0  0  0  0  # atno 17394 bound_to 11000
  141.2181  133.7450  156.9291 LP  0  0  0  0  0  0  0  0  0  0  0  0  # atno 17395 bound_to 11000

$$$$
