AV-unprocessed.smi:591|AV-procd|sdf|3009|dock8
  -GOLD-   2262023513D 1   1.00000     0.00000
 Structure written by MMmdl.
 42 43  0  0  0  0  0  0  0  0  1 V2000
  153.1551  138.0581  158.8367 O   0  0  0  0  0  0  0  0  0  0  0  0
  154.1408  138.5026  159.4270 C   0  0  0  0  0  0  0  0  0  0  0  0
  155.4384  137.6869  159.5215 C   0  0  0  0  0  0  0  0  0  0  0  0
  155.8186  137.3538  160.9047 N   0  0  0  0  0  0  0  0  0  0  0  0
  154.7725  137.1079  161.8160 C   0  0  0  0  0  0  0  0  0  0  0  0
  154.9847  136.8014  163.1103 C   0  0  0  0  0  0  0  0  0  0  0  0
  153.8369  136.4806  164.0551 C   0  0  0  0  0  0  0  0  0  0  0  0
  154.2820  136.2501  165.2906 F   0  0  0  0  0  0  0  0  0  0  0  0
  152.9905  137.5086  164.1040 F   0  0  0  0  0  0  0  0  0  0  0  0
  153.1613  135.4060  163.6458 F   0  0  0  0  0  0  0  0  0  0  0  0
  156.3685  136.7011  163.5309 C   0  0  0  0  0  0  0  0  0  0  0  0
  157.3808  136.9203  162.6691 C   0  0  0  0  0  0  0  0  0  0  0  0
  157.1336  137.2709  161.2687 C   0  0  0  0  0  0  0  0  0  0  0  0
  158.0502  137.4761  160.4726 O   0  0  0  0  0  0  0  0  0  0  0  0
  154.1521  139.6969  160.0354 N   0  0  0  0  0  0  0  0  0  0  0  0
  153.0229  140.6158  160.0631 C   0  0  0  0  0  0  0  0  0  0  0  0
  153.3374  141.8306  160.9486 C   0  0  0  0  0  0  0  0  0  0  0  0
  152.6662  143.1044  160.4618 C   0  0  0  0  0  0  0  0  0  0  0  0
  151.7928  143.1028  159.4356 C   0  0  0  0  0  0  0  0  0  0  0  0
  151.0823  144.3409  158.9174 C   0  0  0  0  0  0  0  0  0  0  0  0
  151.1930  145.5296  159.8867 C   0  0  0  0  0  0  0  0  0  0  0  0
  152.6158  145.6580  160.4449 C   0  0  0  0  0  0  0  0  0  0  0  0
  153.0377  144.3854  161.2010 C   0  0  0  0  0  0  0  0  0  0  0  0
  155.3369  136.7748  158.9299 H   0  0  0  0  0  0  0  0  0  0  0  0
  156.2321  138.2544  159.0337 H   0  0  0  0  0  0  0  0  0  0  0  0
  153.7818  137.1742  161.3904 H   0  0  0  0  0  0  0  0  0  0  0  0
  156.5980  136.4483  164.5555 H   0  0  0  0  0  0  0  0  0  0  0  0
  158.3999  136.8376  163.0180 H   0  0  0  0  0  0  0  0  0  0  0  0
  154.9973  139.9898  160.5042 H   0  0  0  0  0  0  0  0  0  0  0  0
  152.7986  140.9422  159.0462 H   0  0  0  0  0  0  0  0  0  0  0  0
  152.1439  140.0882  160.4357 H   0  0  0  0  0  0  0  0  0  0  0  0
  153.0206  141.6404  161.9747 H   0  0  0  0  0  0  0  0  0  0  0  0
  154.4171  141.9836  160.9837 H   0  0  0  0  0  0  0  0  0  0  0  0
  151.5684  142.1793  158.9218 H   0  0  0  0  0  0  0  0  0  0  0  0
  151.5182  144.5998  157.9521 H   0  0  0  0  0  0  0  0  0  0  0  0
  150.0329  144.1051  158.7389 H   0  0  0  0  0  0  0  0  0  0  0  0
  150.8964  146.4503  159.3835 H   0  0  0  0  0  0  0  0  0  0  0  0
  150.4958  145.3915  160.7144 H   0  0  0  0  0  0  0  0  0  0  0  0
  153.3081  145.8390  159.6215 H   0  0  0  0  0  0  0  0  0  0  0  0
  152.6880  146.5235  161.1044 H   0  0  0  0  0  0  0  0  0  0  0  0
  152.5583  144.3653  162.1800 H   0  0  0  0  0  0  0  0  0  0  0  0
  154.1137  144.4075  161.3765 H   0  0  0  0  0  0  0  0  0  0  0  0
  1  2  2  0  0  0  0
  2  3  1  0  0  0  0
  2 15  1  0  0  0  0
  3  4  1  0  0  0  0
  3 24  1  0  0  0  0
  3 25  1  0  0  0  0
  4 13  1  0  0  0  0
  4  5  1  0  0  0  0
  5  6  2  0  0  0  0
  5 26  1  0  0  0  0
  6  7  1  0  0  0  0
  6 11  1  0  0  0  0
  7  8  1  0  0  0  0
  7  9  1  0  0  0  0
  7 10  1  0  0  0  0
 11 12  2  0  0  0  0
 11 27  1  0  0  0  0
 12 13  1  0  0  0  0
 12 28  1  0  0  0  0
 13 14  2  0  0  0  0
 15 16  1  0  0  0  0
 15 29  1  0  0  0  0
 16 17  1  0  0  0  0
 16 30  1  0  0  0  0
 16 31  1  0  0  0  0
 17 18  1  0  0  0  0
 17 32  1  0  0  0  0
 17 33  1  0  0  0  0
 18 23  1  0  0  0  0
 18 19  2  0  0  0  0
 19 20  1  0  0  0  0
 19 34  1  0  0  0  0
 20 21  1  0  0  0  0
 20 35  1  0  0  0  0
 20 36  1  0  0  0  0
 21 22  1  0  0  0  0
 21 37  1  0  0  0  0
 21 38  1  0  0  0  0
 22 23  1  0  0  0  0
 22 39  1  0  0  0  0
 22 40  1  0  0  0  0
 23 41  1  0  0  0  0
 23 42  1  0  0  0  0
M  END
> <s_m_source_file>
AV-unprocessed.smi

> <i_m_source_file_index>
591

> <i_lp_mmshare_version>
43012

> <i_f3d_flags>
0

> <s_epik_input>
Tz1jMVtjSF1bY0hdYyhDKEYpKEYpRilbY0hdbjFbQ0gyXUMoPU8pW05IXVtDSDJdW0NIMl1DMj1bQ0hdW0NIMl1bQ0gyXVtDSDJdW0NIMl0y

> <s_epik_cmdline>
J2VwaWtfcHl0aG9uJywgJy1waCcsICc3LjAnLCAnLXRuJywgJzgnLCAnLW1hJywgJzIwMCcsICctbWV0YWxfYmluZGluZycsICctaW1hZScsICc8aW5maWxlLm1hZT4nLCAnLW9tYWUnLCAnPG91dGZpbGUubWFlPic=

> <r_lp_tautomer_probability>
1

> <r_epik_Ionization_Penalty>
3.65086e-08

> <r_epik_Ionization_Penalty_Charging>
1.84051e-08

> <r_epik_Ionization_Penalty_Neutral>
1.81035e-08

> <r_epik_State_Penalty>
-0

> <r_epik_Charging_Adjusted_Penalty>
1.84051e-08

> <i_epik_Tot_Q>
0

> <i_epik_Tot_abs_Q>
0

> <r_epik_Metal_State_Penalty>
-0

> <b_epik_Metal_Only>
0

> <s_lp_Force_Field>
OPLS_2005

> <r_lp_Energy>
19.2896

> <b_lp_Chiralities_Consistent>
1

> <s_lp_Variant>
AV-unprocessed.smi:591-1

> <Gold.Version>
5.8.1

> <Gold.Id.Protein>
6NUR|6NUR_protein|mol2

> <Gold.PLP.Fitness>
51.9884

> <Gold.PLP.PLP>
-50.2450

> <Gold.PLP.part.hbond>
-2.0000

> <Gold.PLP.part.metal>
0.0000

> <Gold.PLP.part.buried>
-4.8131

> <Gold.PLP.part.nonpolar>
-43.3554

> <Gold.PLP.part.repulsive>
0.0822

> <Gold.PLP.ligand.clash>
0.0000

> <Gold.PLP.ligand.torsion>
0.6774

> <Gold.PLP.Chemscore.Hbond>
1.0000

> <Gold.PLP.Chemscore.CHOScore>
0.0000

> <Gold.PLP.Chemscore.Metal>
0.0000

> <Gold.PLP.Chemscore.Internal.Correction>
0.0981

> <Gold.Rescore>
     Score         DG    S(hbond)    S(metal)    S(lipo)     H(rot)  DE(clash)    DE(int)     intcor
     15.35     -16.68       1.00        0.00     109.69       1.94       0.24       1.09       ----

> <Gold.Chemscore.Fitness>
15.3512

> <Gold.Chemscore.DG>
-16.6791

> <Gold.Chemscore.ZeroCoef>
-5.4800

> <Gold.Chemscore.Hbond>
0.9966

> <Gold.Chemscore.Metal>
0.0000

> <Gold.Chemscore.Lipo>
109.6950

> <Gold.Chemscore.Internal_Hbond>
0.0000

> <Gold.Chemscore.DEClash>
0.2372

> <Gold.Chemscore.DEInternal>
1.0907

> <Gold.Chemscore.Rot>
1.9390

> <Gold.Chemscore.Internal.Correction>
   9.000000E+99

> <Gold.Chemscore.Hbond.Weighted>
-3.3287

> <Gold.Chemscore.Metal.Weighted>
-0.0000

> <Gold.Chemscore.Lipo.Weighted>
-12.8343

> <Gold.Chemscore.Internal_Hbond.Weighted>
0.0000

> <Gold.Chemscore.DEClash.Weighted>
0.2372

> <Gold.Chemscore.DEInternal.Weighted>
1.0907

> <Gold.Chemscore.Rot.Weighted>
4.9639

> <Gold.Chemscore.Internal.Correction.Weighted>
   9.000000E+99

> <Gold.Protein.RotatedTorsions>
[ 6907 6896 6895 6894 ] final  -81.10 input  -60.11 | X-H torsion
[ 7974 7965 7964 7962 ] final   99.67 input  175.53 | X-H torsion
[ 8008 7997 7996 7995 ] final  -23.71 input   59.86 | X-H torsion
[ 10167 10162 10161 10158 ] final  -66.71 input  -65.29 | X-H torsion
[ 10718 10713 10712 10709 ] final  -10.23 input   66.30 | X-H torsion
[ 10763 10752 10751 10750 ] final -159.54 input  -60.55 | X-H torsion
[ 11005 11000 10999 10996 ] final  171.32 input  -57.11 | X-H torsion

> <Gold.Protein.ActiveResidues>
 VAL166  LYS551  ARG553  GLY616  TRP617  ASP618  TYR619  PRO620  LYS621  CYS622 
 ASP623  PHE694  ASN695  SER759  ASP760  ASP761  ALA762  ILE779  LEU786  VAL792 
 PHE793  MET794  SER795  GLU796  ALA797  LYS798  CYS799  TRP800  GLU811  SER814 

> <Gold.Protein.RotatedAtoms>
  150.6917  134.3869  159.5058 H   0  0  0  0  0  0  0  0  0  0  0  0  # atno 6907 bound_to 6896
  152.1663  134.8868  160.0547 H   0  0  0  0  0  0  0  0  0  0  0  0  # atno 6908 bound_to 6896
  151.9911  133.3756  159.4182 H   0  0  0  0  0  0  0  0  0  0  0  0  # atno 6909 bound_to 6896
  145.3958  139.2355  143.3327 H   0  0  0  0  0  0  0  0  0  0  0  0  # atno 7974 bound_to 7965
  154.4570  140.1973  156.0352 H   0  0  0  0  0  0  0  0  0  0  0  0  # atno 8008 bound_to 7997
  156.0765  140.3277  155.7613 H   0  0  0  0  0  0  0  0  0  0  0  0  # atno 8009 bound_to 7997
  155.5180  140.0567  157.2902 H   0  0  0  0  0  0  0  0  0  0  0  0  # atno 8010 bound_to 7997
  140.5637  143.2314  151.6677 H   0  0  0  0  0  0  0  0  0  0  0  0  # atno 10167 bound_to 10162
  156.6765  130.5024  149.5984 H   0  0  0  0  0  0  0  0  0  0  0  0  # atno 10718 bound_to 10713
  154.7466  135.3082  154.8633 H   0  0  0  0  0  0  0  0  0  0  0  0  # atno 10763 bound_to 10752
  153.9432  135.6772  153.4748 H   0  0  0  0  0  0  0  0  0  0  0  0  # atno 10764 bound_to 10752
  153.1063  135.4888  154.8883 H   0  0  0  0  0  0  0  0  0  0  0  0  # atno 10765 bound_to 10752
  140.3178  134.7463  157.4041 H   0  0  0  0  0  0  0  0  0  0  0  0  # atno 11005 bound_to 11000
  146.2775  140.4648  142.8789 LP  0  0  0  0  0  0  0  0  0  0  0  0  # atno 17320 bound_to 7965
  144.8408  140.6854  143.6231 LP  0  0  0  0  0  0  0  0  0  0  0  0  # atno 17321 bound_to 7965
  139.5082  144.3618  152.0554 LP  0  0  0  0  0  0  0  0  0  0  0  0  # atno 17342 bound_to 10162
  140.2748  144.3925  150.6139 LP  0  0  0  0  0  0  0  0  0  0  0  0  # atno 17343 bound_to 10162
  156.1899  130.6553  151.1049 LP  0  0  0  0  0  0  0  0  0  0  0  0  # atno 17370 bound_to 10713
  157.7059  131.0756  150.6669 LP  0  0  0  0  0  0  0  0  0  0  0  0  # atno 17371 bound_to 10713
  140.0968  134.5526  155.8390 LP  0  0  0  0  0  0  0  0  0  0  0  0  # atno 17394 bound_to 11000
  141.2093  133.6683  156.6433 LP  0  0  0  0  0  0  0  0  0  0  0  0  # atno 17395 bound_to 11000

$$$$
