AV-unprocessed.smi:2714|AV-procd|sdf|10481|dock8
  -GOLD-   2272014523D 1   1.00000     0.00000
 Structure written by MMmdl.
 46 47  0  0  0  0  0  0  0  0  1 V2000
  152.9674  143.1930  162.2953 C   0  0  0  0  0  0  0  0  0  0  0  0
  151.8987  143.8172  161.3917 C   0  0  0  0  0  0  0  0  0  0  0  0
  152.4631  144.2508  160.0262 C   0  0  0  0  0  0  0  0  0  0  0  0
  152.6007  143.1026  159.0017 C   0  0  1  0  0  0  0  0  0  0  0  0
  153.3548  141.9084  159.6114 C   0  0  0  0  0  0  0  0  0  0  0  0
  151.2373  142.6414  158.4663 C   0  0  0  0  0  0  0  0  0  0  0  0
  150.2004  143.1360  158.9089 O   0  0  0  0  0  0  0  0  0  0  0  0
  151.2592  141.6914  157.5185 N   0  0  0  0  0  0  0  0  0  0  0  0
  150.0913  141.0593  156.9137 C   0  0  0  0  0  0  0  0  0  0  0  0
  150.4800  140.0504  155.8412 C   0  0  0  0  0  0  0  0  0  0  0  0
  151.7868  139.5172  155.8337 C   0  0  0  0  0  0  0  0  0  0  0  0
  152.1365  138.5663  154.8580 C   0  0  0  0  0  0  0  0  0  0  0  0
  151.1589  138.1808  153.9230 C   0  0  0  0  0  0  0  0  0  0  0  0
  149.9061  138.6808  153.9161 N   0  0  0  0  0  0  0  0  0  0  0  0
  149.5646  139.5979  154.8542 C   0  0  0  0  0  0  0  0  0  0  0  0
  148.2599  140.1173  154.8035 N   0  0  0  0  0  0  0  0  0  0  0  0
  148.1472  141.5282  154.4522 C   0  0  0  0  0  0  0  0  0  0  0  0
  146.6669  141.9038  154.2708 C   0  0  0  0  0  0  0  0  0  0  0  0
  145.9469  141.5845  155.4585 O   0  0  0  0  0  0  0  0  0  0  0  0
  145.9986  140.1922  155.7580 C   0  0  0  0  0  0  0  0  0  0  0  0
  147.4601  139.7587  155.9672 C   0  0  0  0  0  0  0  0  0  0  0  0
  152.5403  142.8929  163.2524 H   0  0  0  0  0  0  0  0  0  0  0  0
  153.7740  143.8982  162.4975 H   0  0  0  0  0  0  0  0  0  0  0  0
  153.4041  142.3069  161.8338 H   0  0  0  0  0  0  0  0  0  0  0  0
  151.0908  143.0979  161.2549 H   0  0  0  0  0  0  0  0  0  0  0  0
  151.4620  144.6795  161.8969 H   0  0  0  0  0  0  0  0  0  0  0  0
  151.8059  145.0142  159.6079 H   0  0  0  0  0  0  0  0  0  0  0  0
  153.4290  144.7382  160.1698 H   0  0  0  0  0  0  0  0  0  0  0  0
  153.1941  143.4690  158.1623 H   0  0  0  0  0  0  0  0  0  0  0  0
  153.4374  141.0848  158.9009 H   0  0  0  0  0  0  0  0  0  0  0  0
  152.8536  141.5299  160.5032 H   0  0  0  0  0  0  0  0  0  0  0  0
  154.3674  142.1926  159.8986 H   0  0  0  0  0  0  0  0  0  0  0  0
  152.1611  141.3528  157.2162 H   0  0  0  0  0  0  0  0  0  0  0  0
  149.4566  140.5756  157.6570 H   0  0  0  0  0  0  0  0  0  0  0  0
  149.4787  141.8450  156.4706 H   0  0  0  0  0  0  0  0  0  0  0  0
  152.5143  139.8276  156.5695 H   0  0  0  0  0  0  0  0  0  0  0  0
  153.1286  138.1405  154.8291 H   0  0  0  0  0  0  0  0  0  0  0  0
  151.3885  137.4522  153.1596 H   0  0  0  0  0  0  0  0  0  0  0  0
  148.5889  142.1449  155.2365 H   0  0  0  0  0  0  0  0  0  0  0  0
  148.7001  141.7242  153.5326 H   0  0  0  0  0  0  0  0  0  0  0  0
  146.5711  142.9712  154.0722 H   0  0  0  0  0  0  0  0  0  0  0  0
  146.2327  141.3805  153.4179 H   0  0  0  0  0  0  0  0  0  0  0  0
  145.4182  140.0017  156.6607 H   0  0  0  0  0  0  0  0  0  0  0  0
  145.5332  139.6197  154.9546 H   0  0  0  0  0  0  0  0  0  0  0  0
  147.5091  138.6834  156.1418 H   0  0  0  0  0  0  0  0  0  0  0  0
  147.8712  140.2471  156.8518 H   0  0  0  0  0  0  0  0  0  0  0  0
  1  2  1  0  0  0  0
  1 22  1  0  0  0  0
  1 23  1  0  0  0  0
  1 24  1  0  0  0  0
  2  3  1  0  0  0  0
  2 25  1  0  0  0  0
  2 26  1  0  0  0  0
  3  4  1  0  0  0  0
  3 27  1  0  0  0  0
  3 28  1  0  0  0  0
  4  5  1  0  0  0  0
  4  6  1  0  0  0  0
  4 29  1  0  0  0  0
  5 30  1  0  0  0  0
  5 31  1  0  0  0  0
  5 32  1  0  0  0  0
  6  7  2  0  0  0  0
  6  8  1  0  0  0  0
  8  9  1  0  0  0  0
  8 33  1  0  0  0  0
  9 10  1  0  0  0  0
  9 34  1  0  0  0  0
  9 35  1  0  0  0  0
 10 15  1  0  0  0  0
 10 11  2  0  0  0  0
 11 12  1  0  0  0  0
 11 36  1  0  0  0  0
 12 13  2  0  0  0  0
 12 37  1  0  0  0  0
 13 14  1  0  0  0  0
 13 38  1  0  0  0  0
 14 15  2  0  0  0  0
 15 16  1  0  0  0  0
 16 21  1  0  0  0  0
 16 17  1  0  0  0  0
 17 18  1  0  0  0  0
 17 39  1  0  0  0  0
 17 40  1  0  0  0  0
 18 19  1  0  0  0  0
 18 41  1  0  0  0  0
 18 42  1  0  0  0  0
 19 20  1  0  0  0  0
 20 21  1  0  0  0  0
 20 43  1  0  0  0  0
 20 44  1  0  0  0  0
 21 45  1  0  0  0  0
 21 46  1  0  0  0  0
M  END
> <s_m_source_file>
AV-unprocessed.smi

> <i_m_source_file_index>
2714

> <i_lp_mmshare_version>
43012

> <i_f3d_flags>
0

> <s_epik_input>
W0NIM11bQ0gyXVtDSDJdW0NASF0oW0NIM10pQyg9TylbTkhdW0NIMl1jMVtjSF1bY0hdW2NIXW5jMU4yW0NIMl1bQ0gyXU9bQ0gyXVtDSDJdMg==

> <s_epik_cmdline>
J2VwaWtfcHl0aG9uJywgJy1waCcsICc3LjAnLCAnLXRuJywgJzgnLCAnLW1hJywgJzIwMCcsICctbWV0YWxfYmluZGluZycsICctaW1hZScsICc8aW5maWxlLm1hZT4nLCAnLW9tYWUnLCAnPG91dGZpbGUubWFlPic=

> <r_lp_tautomer_probability>
1

> <r_epik_Ionization_Penalty>
0.00517355

> <r_epik_Ionization_Penalty_Charging>
0

> <r_epik_Ionization_Penalty_Neutral>
0.00517355

> <r_epik_State_Penalty>
0.00376978

> <r_epik_Charging_Adjusted_Penalty>
0.00376978

> <i_epik_Tot_Q>
0

> <i_epik_Tot_abs_Q>
0

> <r_epik_Metal_State_Penalty>
-0

> <b_epik_Metal_Only>
0

> <s_lp_Force_Field>
OPLS_2005

> <r_lp_Energy>
17.5243

> <b_lp_Chiralities_Consistent>
1

> <s_lp_Variant>
AV-unprocessed.smi:2714-2

> <Gold.Version>
5.8.1

> <Gold.Id.Protein>
6NUR|6NUR_protein|mol2

> <Gold.PLP.Fitness>
45.9395

> <Gold.PLP.PLP>
-43.7913

> <Gold.PLP.part.hbond>
0.0000

> <Gold.PLP.part.metal>
0.0000

> <Gold.PLP.part.buried>
-6.9662

> <Gold.PLP.part.nonpolar>
-37.0468

> <Gold.PLP.part.repulsive>
1.0260

> <Gold.PLP.ligand.clash>
0.0000

> <Gold.PLP.ligand.torsion>
0.5255

> <Gold.PLP.Chemscore.Hbond>
0.0000

> <Gold.PLP.Chemscore.CHOScore>
1.0000

> <Gold.PLP.Chemscore.Metal>
0.0000

> <Gold.Chemscore.Hbonds>
donor molecule, donor type, donor heavy atom, donor atom, acceptor molecule, acceptor atom, score
      L1  C    13    38       P1  7949  1.00

> <Gold.PLP.Chemscore.Internal.Correction>
0.1992

> <Gold.Rescore>
     Score         DG    S(hbond)    S(metal)    S(lipo)     H(rot)  DE(clash)    DE(int)     intcor
     13.59     -14.22       0.00        0.00     112.30       1.72       0.03       0.59       ----

> <Gold.Chemscore.Fitness>
13.5910

> <Gold.Chemscore.DG>
-14.2183

> <Gold.Chemscore.ZeroCoef>
-5.4800

> <Gold.Chemscore.Hbond>
0.0000

> <Gold.Chemscore.Metal>
0.0000

> <Gold.Chemscore.Lipo>
112.3030

> <Gold.Chemscore.Internal_Hbond>
0.0000

> <Gold.Chemscore.DEClash>
0.0336

> <Gold.Chemscore.DEInternal>
0.5937

> <Gold.Chemscore.Rot>
1.7192

> <Gold.Chemscore.Internal.Correction>
   9.000000E+99

> <Gold.Chemscore.Hbond.Weighted>
-0.0000

> <Gold.Chemscore.Metal.Weighted>
-0.0000

> <Gold.Chemscore.Lipo.Weighted>
-13.1394

> <Gold.Chemscore.Internal_Hbond.Weighted>
0.0000

> <Gold.Chemscore.DEClash.Weighted>
0.0336

> <Gold.Chemscore.DEInternal.Weighted>
0.5937

> <Gold.Chemscore.Rot.Weighted>
4.4011

> <Gold.Chemscore.Internal.Correction.Weighted>
   9.000000E+99

> <Gold.Protein.RotatedTorsions>
[ 6907 6896 6895 6894 ] final -128.65 input  -60.11 | X-H torsion
[ 7974 7965 7964 7962 ] final -179.28 input  175.53 | X-H torsion
[ 8008 7997 7996 7995 ] final   34.64 input   59.86 | X-H torsion
[ 10167 10162 10161 10158 ] final -102.42 input  -65.29 | X-H torsion
[ 10718 10713 10712 10709 ] final   68.94 input   66.30 | X-H torsion
[ 10763 10752 10751 10750 ] final   64.01 input  -60.55 | X-H torsion
[ 11005 11000 10999 10996 ] final  156.77 input  -57.11 | X-H torsion

> <Gold.Protein.ActiveResidues>
 VAL166  LYS551  ARG553  GLY616  TRP617  ASP618  TYR619  PRO620  LYS621  CYS622 
 ASP623  PHE694  ASN695  SER759  ASP760  ASP761  ALA762  ILE779  LEU786  VAL792 
 PHE793  MET794  SER795  GLU796  ALA797  LYS798  CYS799  TRP800  GLU811  SER814 

> <Gold.Protein.RotatedAtoms>
  150.9202  133.6889  159.2833 H   0  0  0  0  0  0  0  0  0  0  0  0  # atno 6907 bound_to 6896
  151.4346  135.1012  159.9662 H   0  0  0  0  0  0  0  0  0  0  0  0  # atno 6908 bound_to 6896
  152.4976  133.8624  159.7312 H   0  0  0  0  0  0  0  0  0  0  0  0  # atno 6909 bound_to 6896
  144.7135  140.0741  143.6428 H   0  0  0  0  0  0  0  0  0  0  0  0  # atno 7974 bound_to 7965
  155.1581  140.3281  155.4417 H   0  0  0  0  0  0  0  0  0  0  0  0  # atno 8008 bound_to 7997
  156.2552  140.1965  156.6640 H   0  0  0  0  0  0  0  0  0  0  0  0  # atno 8009 bound_to 7997
  154.6424  140.0568  156.9848 H   0  0  0  0  0  0  0  0  0  0  0  0  # atno 8010 bound_to 7997
  140.2308  143.3608  152.0888 H   0  0  0  0  0  0  0  0  0  0  0  0  # atno 10167 bound_to 10162
  157.6318  130.9400  150.0446 H   0  0  0  0  0  0  0  0  0  0  0  0  # atno 10718 bound_to 10713
  153.0039  135.5408  154.6442 H   0  0  0  0  0  0  0  0  0  0  0  0  # atno 10763 bound_to 10752
  154.5690  135.2840  155.0848 H   0  0  0  0  0  0  0  0  0  0  0  0  # atno 10764 bound_to 10752
  154.2021  135.6482  153.5143 H   0  0  0  0  0  0  0  0  0  0  0  0  # atno 10765 bound_to 10752
  140.1706  134.8546  157.2685 H   0  0  0  0  0  0  0  0  0  0  0  0  # atno 11005 bound_to 11000
  145.9758  139.2904  143.1071 LP  0  0  0  0  0  0  0  0  0  0  0  0  # atno 17320 bound_to 7965
  145.9065  140.9208  143.0476 LP  0  0  0  0  0  0  0  0  0  0  0  0  # atno 17321 bound_to 7965
  139.5110  144.6894  151.5800 LP  0  0  0  0  0  0  0  0  0  0  0  0  # atno 17342 bound_to 10162
  140.6186  143.9301  150.6508 LP  0  0  0  0  0  0  0  0  0  0  0  0  # atno 17343 bound_to 10162
  156.1527  130.3642  149.9414 LP  0  0  0  0  0  0  0  0  0  0  0  0  # atno 17370 bound_to 10713
  156.7431  130.9087  151.3633 LP  0  0  0  0  0  0  0  0  0  0  0  0  # atno 17371 bound_to 10713
  140.2382  134.3827  155.7492 LP  0  0  0  0  0  0  0  0  0  0  0  0  # atno 17394 bound_to 11000
  141.2217  133.7251  156.8747 LP  0  0  0  0  0  0  0  0  0  0  0  0  # atno 17395 bound_to 11000

$$$$
