AV-unprocessed.smi:3110|AV-procd|sdf|11829|dock9
  -GOLD-   2272017203D 1   1.00000     0.00000
 Structure written by MMmdl.
 34 35  0  0  0  0  0  0  0  0  2 V2000
  150.0659  142.8336  158.2143 O   0  0  0  0  0  0  0  0  0  0  0  0
  150.9761  142.8958  157.3874 C   0  0  0  0  0  0  0  0  0  0  0  0
  151.9315  144.0936  157.3745 C   0  0  0  0  0  0  0  0  0  0  0  0
  152.6138  144.3405  158.7360 C   0  0  1  0  0  0  0  0  0  0  0  0
  151.6521  144.8652  159.7704 C   0  0  0  0  0  0  0  0  0  0  0  0
  151.6954  144.1776  160.9097 C   0  0  0  0  0  0  0  0  0  0  0  0
  152.6931  143.0538  160.8655 C   0  0  0  0  0  0  0  0  0  0  0  0
  153.1965  143.0664  159.4054 C   0  0  0  0  0  0  0  0  0  0  0  0
  151.1909  141.9495  156.4606 N   0  0  0  0  0  0  0  0  0  0  0  0
  150.3825  140.7478  156.2959 C   0  0  0  0  0  0  0  0  0  0  0  0
  150.4335  140.2294  154.8490 C   0  0  0  0  0  0  0  0  0  0  0  0
  151.5895  139.3604  154.6256 N   0  0  0  0  0  0  0  0  0  0  0  0
  152.7816  139.3686  155.3027 C   0  0  0  0  0  0  0  0  0  0  0  0
  153.5522  138.3793  154.7478 C   0  0  0  0  0  0  0  0  0  0  0  0
  152.7974  137.8089  153.7577 N   0  3  0  0  0  0  0  0  0  0  0  0
  151.6040  138.4074  153.6850 C   0  0  0  0  0  0  0  0  0  0  0  0
  152.6887  143.9088  156.6119 H   0  0  0  0  0  0  0  0  0  0  0  0
  151.3934  144.9909  157.0639 H   0  0  0  0  0  0  0  0  0  0  0  0
  153.3982  145.0912  158.6272 H   0  0  0  0  0  0  0  0  0  0  0  0
  151.0198  145.7213  159.5862 H   0  0  0  0  0  0  0  0  0  0  0  0
  151.1046  144.3897  161.7886 H   0  0  0  0  0  0  0  0  0  0  0  0
  153.5000  143.2497  161.5724 H   0  0  0  0  0  0  0  0  0  0  0  0
  152.2221  142.1053  161.1258 H   0  0  0  0  0  0  0  0  0  0  0  0
  152.8423  142.1679  158.8984 H   0  0  0  0  0  0  0  0  0  0  0  0
  154.2857  143.0516  159.3557 H   0  0  0  0  0  0  0  0  0  0  0  0
  151.9637  142.0751  155.8227 H   0  0  0  0  0  0  0  0  0  0  0  0
  150.7608  139.9860  156.9781 H   0  0  0  0  0  0  0  0  0  0  0  0
  149.3529  140.9499  156.5969 H   0  0  0  0  0  0  0  0  0  0  0  0
  149.5343  139.6634  154.6007 H   0  0  0  0  0  0  0  0  0  0  0  0
  150.4946  141.0592  154.1436 H   0  0  0  0  0  0  0  0  0  0  0  0
  152.9876  140.0593  156.1078 H   0  0  0  0  0  0  0  0  0  0  0  0
  154.5540  138.0464  154.9779 H   0  0  0  0  0  0  0  0  0  0  0  0
  150.8083  138.1675  153.0019 H   0  0  0  0  0  0  0  0  0  0  0  0
  153.0966  137.0450  153.1646 H   0  0  0  0  0  0  0  0  0  0  0  0
  1  2  2  0  0  0  0
  2  3  1  0  0  0  0
  2  9  1  0  0  0  0
  3  4  1  0  0  0  0
  3 17  1  0  0  0  0
  3 18  1  0  0  0  0
  4  8  1  0  0  0  0
  4  5  1  0  0  0  0
  4 19  1  0  0  0  0
  5  6  2  0  0  0  0
  5 20  1  0  0  0  0
  6  7  1  0  0  0  0
  6 21  1  0  0  0  0
  7  8  1  0  0  0  0
  7 22  1  0  0  0  0
  7 23  1  0  0  0  0
  8 24  1  0  0  0  0
  8 25  1  0  0  0  0
  9 10  1  0  0  0  0
  9 26  1  0  0  0  0
 10 11  1  0  0  0  0
 10 27  1  0  0  0  0
 10 28  1  0  0  0  0
 11 12  1  0  0  0  0
 11 29  1  0  0  0  0
 11 30  1  0  0  0  0
 12 16  1  0  0  0  0
 12 13  1  0  0  0  0
 13 14  2  0  0  0  0
 13 31  1  0  0  0  0
 14 15  1  0  0  0  0
 14 32  1  0  0  0  0
 15 16  2  0  0  0  0
 15 34  1  0  0  0  0
 16 33  1  0  0  0  0
M  CHG  1  15   1
M  END
> <s_m_source_file>
AV-unprocessed.smi

> <i_m_source_file_index>
3110

> <i_lp_mmshare_version>
43012

> <i_f3d_flags>
0

> <s_epik_input>
W0NIMl0xW0NIMl1bQ0hdPVtDSF1bQ0BIXTFbQ0gyXUMoPU8pW05IXVtDSDJdW0NIMl1uMltjSF1bY0hdbltjSF0y

> <s_epik_cmdline>
J2VwaWtfcHl0aG9uJywgJy1waCcsICc3LjAnLCAnLXRuJywgJzgnLCAnLW1hJywgJzIwMCcsICctbWV0YWxfYmluZGluZycsICctaW1hZScsICc8aW5maWxlLm1hZT4nLCAnLW9tYWUnLCAnPG91dGZpbGUubWFlPic=

> <r_lp_tautomer_probability>
1

> <r_epik_Ionization_Penalty>
0.271094

> <r_epik_Ionization_Penalty_Charging>
0

> <r_epik_Ionization_Penalty_Neutral>
0.271094

> <r_epik_State_Penalty>
0.263241

> <r_epik_Charging_Adjusted_Penalty>
0.263241

> <i_epik_Tot_Q>
1

> <i_epik_Tot_abs_Q>
1

> <r_epik_Metal_State_Penalty>
0.547832

> <b_epik_Metal_Only>
0

> <s_lp_Force_Field>
OPLS_2005

> <r_lp_Energy>
18.3702

> <b_lp_Chiralities_Consistent>
1

> <s_lp_Variant>
AV-unprocessed.smi:3110-2

> <Gold.Version>
5.8.1

> <Gold.Id.Protein>
6NUR|6NUR_protein|mol2

> <Gold.PLP.Fitness>
50.2965

> <Gold.PLP.PLP>
-41.9269

> <Gold.PLP.part.hbond>
-1.1049

> <Gold.PLP.part.metal>
0.0000

> <Gold.PLP.part.buried>
-0.8839

> <Gold.PLP.part.nonpolar>
-39.6536

> <Gold.PLP.part.repulsive>
0.3846

> <Gold.PLP.ligand.clash>
0.0000

> <Gold.PLP.ligand.torsion>
0.7871

> <Gold.PLP.Chemscore.Hbond>
2.0000

> <Gold.PLP.Chemscore.CHOScore>
1.3020

> <Gold.PLP.Chemscore.Metal>
0.0000

> <Gold.Chemscore.Hbonds>
donor molecule, donor type, donor heavy atom, donor atom, acceptor molecule, acceptor atom, score
      L1  C    16    33       P1  7948  0.09
      L1  C    16    33       P1  7949  0.41
      L1  C    16    33       P1  7957  0.11

> <Gold.PLP.Chemscore.Internal.Correction>
0.0376

> <Gold.Rescore>
     Score         DG    S(hbond)    S(metal)    S(lipo)     H(rot)  DE(clash)    DE(int)     intcor
     12.69     -15.11       0.92        0.00     101.83       2.10       0.63       1.79       ----

> <Gold.Chemscore.Fitness>
12.6910

> <Gold.Chemscore.DG>
-15.1106

> <Gold.Chemscore.ZeroCoef>
-5.4800

> <Gold.Chemscore.Hbond>
0.9229

> <Gold.Chemscore.Metal>
0.0000

> <Gold.Chemscore.Lipo>
101.8332

> <Gold.Chemscore.Internal_Hbond>
0.0000

> <Gold.Chemscore.DEClash>
0.6302

> <Gold.Chemscore.DEInternal>
1.7893

> <Gold.Chemscore.Rot>
2.0963

> <Gold.Chemscore.Internal.Correction>
   9.000000E+99

> <Gold.Chemscore.Hbond.Weighted>
-3.0826

> <Gold.Chemscore.Metal.Weighted>
-0.0000

> <Gold.Chemscore.Lipo.Weighted>
-11.9145

> <Gold.Chemscore.Internal_Hbond.Weighted>
0.0000

> <Gold.Chemscore.DEClash.Weighted>
0.6302

> <Gold.Chemscore.DEInternal.Weighted>
1.7893

> <Gold.Chemscore.Rot.Weighted>
5.3665

> <Gold.Chemscore.Internal.Correction.Weighted>
   9.000000E+99

> <Gold.Protein.RotatedTorsions>
[ 6907 6896 6895 6894 ] final  112.93 input  -60.11 | X-H torsion
[ 7974 7965 7964 7962 ] final  103.43 input  175.53 | X-H torsion
[ 8008 7997 7996 7995 ] final  125.52 input   59.86 | X-H torsion
[ 10167 10162 10161 10158 ] final  -82.95 input  -65.29 | X-H torsion
[ 10718 10713 10712 10709 ] final  102.55 input   66.30 | X-H torsion
[ 10763 10752 10751 10750 ] final  -77.94 input  -60.55 | X-H torsion
[ 11005 11000 10999 10996 ] final -103.61 input  -57.11 | X-H torsion

> <Gold.Protein.ActiveResidues>
 VAL166  LYS551  ARG553  GLY616  TRP617  ASP618  TYR619  PRO620  LYS621  CYS622 
 ASP623  PHE694  ASN695  SER759  ASP760  ASP761  ALA762  ILE779  LEU786  VAL792 
 PHE793  MET794  SER795  GLU796  ALA797  LYS798  CYS799  TRP800  GLU811  SER814 

> <Gold.Protein.RotatedAtoms>
  152.4889  133.8446  159.7169 H   0  0  0  0  0  0  0  0  0  0  0  0  # atno 6907 bound_to 6896
  150.9000  133.7122  159.2888 H   0  0  0  0  0  0  0  0  0  0  0  0  # atno 6908 bound_to 6896
  151.4566  135.1038  159.9765 H   0  0  0  0  0  0  0  0  0  0  0  0  # atno 6909 bound_to 6896
  145.3460  139.2451  143.3584 H   0  0  0  0  0  0  0  0  0  0  0  0  # atno 7974 bound_to 7965
  156.2836  140.2714  156.1963 H   0  0  0  0  0  0  0  0  0  0  0  0  # atno 8008 bound_to 7997
  155.0406  140.0386  157.2526 H   0  0  0  0  0  0  0  0  0  0  0  0  # atno 8009 bound_to 7997
  154.7277  140.2700  155.6489 H   0  0  0  0  0  0  0  0  0  0  0  0  # atno 8010 bound_to 7997
  140.4272  143.2562  151.8809 H   0  0  0  0  0  0  0  0  0  0  0  0  # atno 10167 bound_to 10162
  157.6799  131.0756  150.5421 H   0  0  0  0  0  0  0  0  0  0  0  0  # atno 10718 bound_to 10713
  154.5195  135.5747  153.6669 H   0  0  0  0  0  0  0  0  0  0  0  0  # atno 10763 bound_to 10752
  152.9914  135.6178  154.2773 H   0  0  0  0  0  0  0  0  0  0  0  0  # atno 10764 bound_to 10752
  154.2693  135.2854  155.2724 H   0  0  0  0  0  0  0  0  0  0  0  0  # atno 10765 bound_to 10752
  141.1138  133.8654  157.1507 H   0  0  0  0  0  0  0  0  0  0  0  0  # atno 11005 bound_to 11000
  146.2988  140.4066  142.8712 LP  0  0  0  0  0  0  0  0  0  0  0  0  # atno 17320 bound_to 7965
  144.8754  140.7329  143.6020 LP  0  0  0  0  0  0  0  0  0  0  0  0  # atno 17321 bound_to 7965
  139.4784  144.5374  151.8579 LP  0  0  0  0  0  0  0  0  0  0  0  0  # atno 17342 bound_to 10162
  140.4468  144.1911  150.5894 LP  0  0  0  0  0  0  0  0  0  0  0  0  # atno 17343 bound_to 10162
  156.5728  130.4284  149.6012 LP  0  0  0  0  0  0  0  0  0  0  0  0  # atno 17370 bound_to 10713
  156.2727  130.7026  151.1828 LP  0  0  0  0  0  0  0  0  0  0  0  0  # atno 17371 bound_to 10713
  140.0047  135.0013  157.0267 LP  0  0  0  0  0  0  0  0  0  0  0  0  # atno 17394 bound_to 11000
  140.4702  134.1394  155.7202 LP  0  0  0  0  0  0  0  0  0  0  0  0  # atno 17395 bound_to 11000

$$$$
