AV-unprocessed.smi:1165|AV-procd|sdf|4932|dock2
  -GOLD-   22720 3513D 1   1.00000     0.00000
 Structure written by MMmdl.
 40 41  0  0  0  0  0  0  0  0  2 V2000
  152.7483  143.5557  162.4268 C   0  0  0  0  0  0  0  0  0  0  0  0
  153.1058  143.0372  161.0297 C   0  0  1  0  0  0  0  0  0  0  0  0
  152.8766  141.5203  160.9005 C   0  0  0  0  0  0  0  0  0  0  0  0
  153.1031  141.0570  159.5214 N   0  0  0  0  0  0  0  0  0  0  0  0
  153.1083  139.3379  159.2743 S   0  0  0  0  0  0  0  0  0  0  0  0
  151.6989  138.9194  159.2039 O   0  0  0  0  0  0  0  0  0  0  0  0
  153.9483  139.1107  158.0866 O   0  0  0  0  0  0  0  0  0  0  0  0
  153.8078  138.9236  160.6789 N   0  5  0  0  0  0  0  0  0  0  0  0
  153.5943  137.5894  161.2173 C   0  0  0  0  0  0  0  0  0  0  0  0
  154.3067  137.4292  162.5805 C   0  0  0  0  0  0  0  0  0  0  0  0
  154.4480  135.9936  163.0756 C   0  0  0  0  0  0  0  0  0  0  0  0
  154.0831  135.6303  164.3905 C   0  0  0  0  0  0  0  0  0  0  0  0
  154.2295  134.2886  164.7913 C   0  0  0  0  0  0  0  0  0  0  0  0
  154.7391  133.3629  163.8594 C   0  0  0  0  0  0  0  0  0  0  0  0
  155.1033  133.6971  162.6031 N   0  0  0  0  0  0  0  0  0  0  0  0
  154.9594  134.9860  162.2275 C   0  0  0  0  0  0  0  0  0  0  0  0
  152.4053  141.8822  158.5154 C   0  0  0  0  0  0  0  0  0  0  0  0
  152.6454  143.3840  158.7489 C   0  0  1  0  0  0  0  0  0  0  0  0
  151.8074  144.2508  157.8026 C   0  0  0  0  0  0  0  0  0  0  0  0
  152.2982  143.7221  160.0838 O   0  0  0  0  0  0  0  0  0  0  0  0
  153.3551  143.0710  163.1923 H   0  0  0  0  0  0  0  0  0  0  0  0
  151.7004  143.3679  162.6616 H   0  0  0  0  0  0  0  0  0  0  0  0
  152.9188  144.6300  162.4985 H   0  0  0  0  0  0  0  0  0  0  0  0
  154.1560  143.2649  160.8380 H   0  0  0  0  0  0  0  0  0  0  0  0
  153.5465  140.9931  161.5797 H   0  0  0  0  0  0  0  0  0  0  0  0
  151.8574  141.2628  161.1914 H   0  0  0  0  0  0  0  0  0  0  0  0
  152.5311  137.3978  161.3624 H   0  0  0  0  0  0  0  0  0  0  0  0
  153.9383  136.8076  160.5390 H   0  0  0  0  0  0  0  0  0  0  0  0
  155.2965  137.8852  162.5318 H   0  0  0  0  0  0  0  0  0  0  0  0
  153.7587  137.9935  163.3355 H   0  0  0  0  0  0  0  0  0  0  0  0
  153.6904  136.3655  165.0773 H   0  0  0  0  0  0  0  0  0  0  0  0
  153.9541  133.9763  165.7875 H   0  0  0  0  0  0  0  0  0  0  0  0
  154.8624  132.3253  164.1326 H   0  0  0  0  0  0  0  0  0  0  0  0
  155.2588  135.2202  161.2169 H   0  0  0  0  0  0  0  0  0  0  0  0
  152.7416  141.6192  157.5136 H   0  0  0  0  0  0  0  0  0  0  0  0
  151.3386  141.6585  158.5597 H   0  0  0  0  0  0  0  0  0  0  0  0
  153.6992  143.6139  158.5824 H   0  0  0  0  0  0  0  0  0  0  0  0
  152.0457  144.0363  156.7606 H   0  0  0  0  0  0  0  0  0  0  0  0
  151.9947  145.3107  157.9755 H   0  0  0  0  0  0  0  0  0  0  0  0
  150.7411  144.0727  157.9452 H   0  0  0  0  0  0  0  0  0  0  0  0
  1  2  1  0  0  0  0
  1 21  1  0  0  0  0
  1 22  1  0  0  0  0
  1 23  1  0  0  0  0
  2 20  1  0  0  0  0
  2  3  1  0  0  0  0
  2 24  1  0  0  0  0
  3  4  1  0  0  0  0
  3 25  1  0  0  0  0
  3 26  1  0  0  0  0
  4  5  1  0  0  0  0
  4 17  1  0  0  0  0
  5  6  2  0  0  0  0
  5  7  2  0  0  0  0
  5  8  1  0  0  0  0
  8  9  1  0  0  0  0
  9 10  1  0  0  0  0
  9 27  1  0  0  0  0
  9 28  1  0  0  0  0
 10 11  1  0  0  0  0
 10 29  1  0  0  0  0
 10 30  1  0  0  0  0
 11 16  1  0  0  0  0
 11 12  2  0  0  0  0
 12 13  1  0  0  0  0
 12 31  1  0  0  0  0
 13 14  2  0  0  0  0
 13 32  1  0  0  0  0
 14 15  1  0  0  0  0
 14 33  1  0  0  0  0
 15 16  2  0  0  0  0
 16 34  1  0  0  0  0
 17 18  1  0  0  0  0
 17 35  1  0  0  0  0
 17 36  1  0  0  0  0
 18 19  1  0  0  0  0
 18 20  1  0  0  0  0
 18 37  1  0  0  0  0
 19 38  1  0  0  0  0
 19 39  1  0  0  0  0
 19 40  1  0  0  0  0
M  CHG  1   8  -1
M  END
> <s_m_source_file>
AV-unprocessed.smi

> <i_m_source_file_index>
1165

> <i_lp_mmshare_version>
43012

> <i_f3d_flags>
0

> <s_epik_input>
W0NIM11bQ0BASF0xW0NIMl1OKFtDSDJdW0NASF0oTzEpW0NIM10pUyg9TykoPU8pW05IXVtDSDJdW0NIMl1jMltjSF1bY0hdW2NIXW5bY0hdMg==

> <s_epik_cmdline>
J2VwaWtfcHl0aG9uJywgJy1waCcsICc3LjAnLCAnLXRuJywgJzgnLCAnLW1hJywgJzIwMCcsICctbWV0YWxfYmluZGluZycsICctaW1hZScsICc8aW5maWxlLm1hZT4nLCAnLW9tYWUnLCAnPG91dGZpbGUubWFlPic=

> <r_epik_Ionization_Penalty>
1.23471

> <r_epik_Ionization_Penalty_Charging>
1.20871

> <r_epik_Ionization_Penalty_Neutral>
0.025996

> <r_epik_State_Penalty>
1.46261

> <r_epik_Charging_Adjusted_Penalty>
2.67132

> <i_epik_Tot_Q>
-1

> <i_epik_Tot_abs_Q>
1

> <r_epik_Metal_State_Penalty>
0.521406

> <b_epik_Metal_Only>
0

> <s_lp_Force_Field>
OPLS_2005

> <r_lp_Energy>
1.53282

> <b_lp_Chiralities_Consistent>
1

> <s_lp_Variant>
AV-unprocessed.smi:1165-5

> <Gold.Version>
5.8.1

> <Gold.Id.Protein>
6NUR|6NUR_protein|mol2

> <Gold.PLP.Fitness>
42.6657

> <Gold.PLP.PLP>
-40.8328

> <Gold.PLP.part.hbond>
-1.0000

> <Gold.PLP.part.metal>
0.0000

> <Gold.PLP.part.buried>
-5.7132

> <Gold.PLP.part.nonpolar>
-35.2106

> <Gold.PLP.part.repulsive>
0.0253

> <Gold.PLP.ligand.clash>
0.0000

> <Gold.PLP.ligand.torsion>
1.3335

> <Gold.PLP.Chemscore.Hbond>
1.0000

> <Gold.PLP.Chemscore.CHOScore>
0.0000

> <Gold.PLP.Chemscore.Metal>
0.0000

> <Gold.Chemscore.Hbonds>
donor molecule, donor type, donor heavy atom, donor atom, acceptor molecule, acceptor atom, score
      P1  H  7997  8010       L1     7  0.98

> <Gold.PLP.Chemscore.Internal.Correction>
1.4999

> <Gold.Rescore>
     Score         DG    S(hbond)    S(metal)    S(lipo)     H(rot)  DE(clash)    DE(int)     intcor
     18.01     -19.41       0.99        0.00     122.91       1.47       0.06       1.34       ----

> <Gold.Chemscore.Fitness>
18.0146

> <Gold.Chemscore.DG>
-19.4109

> <Gold.Chemscore.ZeroCoef>
-5.4800

> <Gold.Chemscore.Hbond>
0.9944

> <Gold.Chemscore.Metal>
0.0000

> <Gold.Chemscore.Lipo>
122.9127

> <Gold.Chemscore.Internal_Hbond>
0.0000

> <Gold.Chemscore.DEClash>
0.0582

> <Gold.Chemscore.DEInternal>
1.3381

> <Gold.Chemscore.Rot>
1.4731

> <Gold.Chemscore.Internal.Correction>
   9.000000E+99

> <Gold.Chemscore.Hbonds>
donor molecule, donor type, donor heavy atom, donor atom, acceptor molecule, acceptor atom, score
      P1  H  7997  8010       L1     7  0.92

> <Gold.Chemscore.Hbond.Weighted>
-3.3213

> <Gold.Chemscore.Metal.Weighted>
-0.0000

> <Gold.Chemscore.Lipo.Weighted>
-14.3808

> <Gold.Chemscore.Internal_Hbond.Weighted>
0.0000

> <Gold.Chemscore.DEClash.Weighted>
0.0582

> <Gold.Chemscore.DEInternal.Weighted>
1.3381

> <Gold.Chemscore.Rot.Weighted>
3.7712

> <Gold.Chemscore.Internal.Correction.Weighted>
   9.000000E+99

> <Gold.Protein.RotatedTorsions>
[ 6907 6896 6895 6894 ] final  -42.63 input  -60.11 | X-H torsion
[ 7974 7965 7964 7962 ] final   -1.52 input  175.53 | X-H torsion
[ 8008 7997 7996 7995 ] final   18.85 input   59.86 | X-H torsion
[ 10167 10162 10161 10158 ] final  175.74 input  -65.29 | X-H torsion
[ 10718 10713 10712 10709 ] final -133.45 input   66.30 | X-H torsion
[ 10763 10752 10751 10750 ] final  -63.40 input  -60.55 | X-H torsion
[ 11005 11000 10999 10996 ] final  -41.52 input  -57.11 | X-H torsion

> <Gold.Protein.ActiveResidues>
 VAL166  LYS551  ARG553  GLY616  TRP617  ASP618  TYR619  PRO620  LYS621  CYS622 
 ASP623  PHE694  ASN695  SER759  ASP760  ASP761  ALA762  ILE779  LEU786  VAL792 
 PHE793  MET794  SER795  GLU796  ALA797  LYS798  CYS799  TRP800  GLU811  SER814 

> <Gold.Protein.RotatedAtoms>
  150.9531  134.8928  159.7683 H   0  0  0  0  0  0  0  0  0  0  0  0  # atno 6907 bound_to 6896
  152.5127  134.3779  159.9351 H   0  0  0  0  0  0  0  0  0  0  0  0  # atno 6908 bound_to 6896
  151.3794  133.3786  159.2743 H   0  0  0  0  0  0  0  0  0  0  0  0  # atno 6909 bound_to 6896
  146.2416  140.1433  142.8335 H   0  0  0  0  0  0  0  0  0  0  0  0  # atno 7974 bound_to 7965
  154.9121  140.3015  155.5260 H   0  0  0  0  0  0  0  0  0  0  0  0  # atno 8008 bound_to 7997
  156.3014  140.2387  156.4097 H   0  0  0  0  0  0  0  0  0  0  0  0  # atno 8009 bound_to 7997
  154.8415  140.0413  157.1533 H   0  0  0  0  0  0  0  0  0  0  0  0  # atno 8010 bound_to 7997
  139.5188  144.2996  152.0390 H   0  0  0  0  0  0  0  0  0  0  0  0  # atno 10167 bound_to 10162
  156.2450  130.7119  151.0995 H   0  0  0  0  0  0  0  0  0  0  0  0  # atno 10718 bound_to 10713
  154.3145  135.6209  153.5480 H   0  0  0  0  0  0  0  0  0  0  0  0  # atno 10763 bound_to 10752
  152.9826  135.5709  154.5139 H   0  0  0  0  0  0  0  0  0  0  0  0  # atno 10764 bound_to 10752
  154.4795  135.2862  155.1557 H   0  0  0  0  0  0  0  0  0  0  0  0  # atno 10765 bound_to 10752
  141.0252  133.6845  156.2469 H   0  0  0  0  0  0  0  0  0  0  0  0  # atno 11005 bound_to 11000
  145.0228  140.8808  143.5156 LP  0  0  0  0  0  0  0  0  0  0  0  0  # atno 17320 bound_to 7965
  145.1484  139.2529  143.5453 LP  0  0  0  0  0  0  0  0  0  0  0  0  # atno 17321 bound_to 7965
  140.2444  144.4235  150.6247 LP  0  0  0  0  0  0  0  0  0  0  0  0  # atno 17342 bound_to 10162
  140.6268  143.2182  151.6579 LP  0  0  0  0  0  0  0  0  0  0  0  0  # atno 17343 bound_to 10162
  157.7191  131.0692  150.6208 LP  0  0  0  0  0  0  0  0  0  0  0  0  # atno 17370 bound_to 10713
  156.6284  130.4425  149.5796 LP  0  0  0  0  0  0  0  0  0  0  0  0  # atno 17371 bound_to 10713
  140.6504  134.5073  157.5577 LP  0  0  0  0  0  0  0  0  0  0  0  0  # atno 17394 bound_to 11000
  139.9171  134.8224  156.1331 LP  0  0  0  0  0  0  0  0  0  0  0  0  # atno 17395 bound_to 11000

$$$$
