AV-unprocessed.smi:1756|AV-procd|sdf|7073|dock10
  -GOLD-   22720 8293D 1   1.00000     0.00000
 Structure written by MMmdl.
 37 38  0  0  0  0  0  0  0  0  2 V2000
  154.9374  140.9284  161.4474 O   0  0  0  0  0  0  0  0  0  0  0  0
  154.7365  140.0247  160.6365 C   0  0  0  0  0  0  0  0  0  0  0  0
  155.3991  138.8594  160.6575 N   0  0  0  0  0  0  0  0  0  0  0  0
  156.4447  138.4934  161.6082 C   0  0  0  0  0  0  0  0  0  0  0  0
  155.9170  137.5819  162.7309 C   0  0  2  0  0  0  0  0  0  0  0  0
  154.9097  136.5188  162.2414 C   0  0  0  0  0  0  0  0  0  0  0  0
  154.3472  135.7201  163.4225 C   0  0  0  0  0  0  0  0  0  0  0  0
  153.7877  136.6791  164.4778 C   0  0  0  0  0  0  0  0  0  0  0  0
  154.8463  137.7252  164.8585 C   0  0  0  0  0  0  0  0  0  0  0  0
  155.2806  138.4201  163.6935 O   0  0  0  0  0  0  0  0  0  0  0  0
  153.8384  140.0419  159.6348 N   0  0  0  0  0  0  0  0  0  0  0  0
  152.9511  141.0572  159.2360 C   0  0  0  0  0  0  0  0  0  0  0  0
  152.6826  142.1878  159.9471 C   0  0  0  0  0  0  0  0  0  0  0  0
  151.7582  143.2090  159.4703 C   0  0  0  0  0  0  0  0  0  0  0  0
  151.4993  144.5165  160.1980 C   0  0  0  0  0  0  0  0  0  0  0  0
  150.1978  144.6869  160.4316 F   0  0  0  0  0  0  0  0  0  0  0  0
  152.1352  144.5176  161.3685 F   0  0  0  0  0  0  0  0  0  0  0  0
  151.9379  145.5546  159.4858 F   0  0  0  0  0  0  0  0  0  0  0  0
  151.2310  142.9016  158.2312 C   0  0  0  0  0  0  0  0  0  0  0  0
  151.4343  141.8050  157.4687 N   0  5  0  0  0  0  0  0  0  0  0  0
  152.2946  140.8530  157.9277 C   0  0  0  0  0  0  0  0  0  0  0  0
  152.5324  139.8342  157.2776 O   0  0  0  0  0  0  0  0  0  0  0  0
  155.1635  138.1709  159.9577 H   0  0  0  0  0  0  0  0  0  0  0  0
  157.2179  137.9653  161.0496 H   0  0  0  0  0  0  0  0  0  0  0  0
  156.9269  139.3778  162.0281 H   0  0  0  0  0  0  0  0  0  0  0  0
  156.7660  137.0883  163.2074 H   0  0  0  0  0  0  0  0  0  0  0  0
  154.0929  137.0056  161.7070 H   0  0  0  0  0  0  0  0  0  0  0  0
  155.3822  135.8363  161.5350 H   0  0  0  0  0  0  0  0  0  0  0  0
  153.5723  135.0325  163.0826 H   0  0  0  0  0  0  0  0  0  0  0  0
  155.1376  135.1106  163.8621 H   0  0  0  0  0  0  0  0  0  0  0  0
  152.9031  137.1821  164.0848 H   0  0  0  0  0  0  0  0  0  0  0  0
  153.4680  136.1250  165.3606 H   0  0  0  0  0  0  0  0  0  0  0  0
  154.4260  138.4446  165.5613 H   0  0  0  0  0  0  0  0  0  0  0  0
  155.6975  137.2564  165.3548 H   0  0  0  0  0  0  0  0  0  0  0  0
  153.7651  139.1964  159.0880 H   0  0  0  0  0  0  0  0  0  0  0  0
  153.1584  142.3765  160.8946 H   0  0  0  0  0  0  0  0  0  0  0  0
  150.5464  143.6526  157.7822 H   0  0  0  0  0  0  0  0  0  0  0  0
  1  2  2  0  0  0  0
  2  3  1  0  0  0  0
  2 11  1  0  0  0  0
  3  4  1  0  0  0  0
  3 23  1  0  0  0  0
  4  5  1  0  0  0  0
  4 24  1  0  0  0  0
  4 25  1  0  0  0  0
  5 10  1  0  0  0  0
  5  6  1  0  0  0  0
  5 26  1  0  0  0  0
  6  7  1  0  0  0  0
  6 27  1  0  0  0  0
  6 28  1  0  0  0  0
  7  8  1  0  0  0  0
  7 29  1  0  0  0  0
  7 30  1  0  0  0  0
  8  9  1  0  0  0  0
  8 31  1  0  0  0  0
  8 32  1  0  0  0  0
  9 10  1  0  0  0  0
  9 33  1  0  0  0  0
  9 34  1  0  0  0  0
 11 12  1  0  0  0  0
 11 35  1  0  0  0  0
 12 21  1  0  0  0  0
 12 13  2  0  0  0  0
 13 14  1  0  0  0  0
 13 36  1  0  0  0  0
 14 15  1  0  0  0  0
 14 19  2  0  0  0  0
 15 16  1  0  0  0  0
 15 17  1  0  0  0  0
 15 18  1  0  0  0  0
 19 20  1  0  0  0  0
 19 37  1  0  0  0  0
 20 21  1  0  0  0  0
 21 22  2  0  0  0  0
M  CHG  1  20  -1
M  END
> <s_m_source_file>
AV-unprocessed.smi

> <i_m_source_file_index>
1756

> <i_lp_mmshare_version>
43012

> <i_f3d_flags>
0

> <s_epik_input>
Tz1jMVtuSF1bY0hdYyhDKEYpKEYpRilbY0hdYzFbTkhdQyg9TylbTkhdW0NIMl1bQ0BASF0yW0NIMl1bQ0gyXVtDSDJdW0NIMl1PMg==

> <s_epik_cmdline>
J2VwaWtfcHl0aG9uJywgJy1waCcsICc3LjAnLCAnLXRuJywgJzgnLCAnLW1hJywgJzIwMCcsICctbWV0YWxfYmluZGluZycsICctaW1hZScsICc8aW5maWxlLm1hZT4nLCAnLW9tYWUnLCAnPG91dGZpbGUubWFlPic=

> <r_lp_tautomer_probability>
1

> <r_epik_Ionization_Penalty>
3.16985

> <r_epik_Ionization_Penalty_Charging>
0.174782

> <r_epik_Ionization_Penalty_Neutral>
2.99507

> <r_epik_State_Penalty>
2.99125

> <r_epik_Charging_Adjusted_Penalty>
3.16603

> <i_epik_Tot_Q>
-1

> <i_epik_Tot_abs_Q>
1

> <r_epik_Metal_State_Penalty>
0.453096

> <b_epik_Metal_Only>
1

> <s_lp_Force_Field>
OPLS_2005

> <r_lp_Energy>
21.0117

> <b_lp_Chiralities_Consistent>
1

> <s_lp_Variant>
AV-unprocessed.smi:1756-3

> <Gold.Version>
5.8.1

> <Gold.Id.Protein>
6NUR|6NUR_protein|mol2

> <Gold.PLP.Fitness>
45.1187

> <Gold.PLP.PLP>
-42.9012

> <Gold.PLP.part.hbond>
-2.0000

> <Gold.PLP.part.metal>
0.0000

> <Gold.PLP.part.buried>
-5.6199

> <Gold.PLP.part.nonpolar>
-35.9525

> <Gold.PLP.part.repulsive>
0.1394

> <Gold.PLP.ligand.clash>
0.0000

> <Gold.PLP.ligand.torsion>
0.4168

> <Gold.PLP.Chemscore.Hbond>
1.0000

> <Gold.PLP.Chemscore.CHOScore>
0.0000

> <Gold.PLP.Chemscore.Metal>
0.0000

> <Gold.Chemscore.Hbonds>
donor molecule, donor type, donor heavy atom, donor atom, acceptor molecule, acceptor atom, score
      P1  H  7997  8009       L1    22  1.00

> <Gold.PLP.Chemscore.Internal.Correction>
0.0510

> <Gold.Rescore>
     Score         DG    S(hbond)    S(metal)    S(lipo)     H(rot)  DE(clash)    DE(int)     intcor
     13.45     -15.50       0.86        0.00      90.08       1.32       0.64       1.42       ----

> <Gold.Chemscore.Fitness>
13.4477

> <Gold.Chemscore.DG>
-15.5015

> <Gold.Chemscore.ZeroCoef>
-5.4800

> <Gold.Chemscore.Hbond>
0.8603

> <Gold.Chemscore.Metal>
0.0000

> <Gold.Chemscore.Lipo>
90.0817

> <Gold.Chemscore.Internal_Hbond>
0.0000

> <Gold.Chemscore.DEClash>
0.6377

> <Gold.Chemscore.DEInternal>
1.4161

> <Gold.Chemscore.Rot>
1.3248

> <Gold.Chemscore.Internal.Correction>
   9.000000E+99

> <Gold.Chemscore.Hbonds>
donor molecule, donor type, donor heavy atom, donor atom, acceptor molecule, acceptor atom, score
      P1  H  7997  8009       L1    22  0.33

> <Gold.Chemscore.Hbond.Weighted>
-2.8735

> <Gold.Chemscore.Metal.Weighted>
-0.0000

> <Gold.Chemscore.Lipo.Weighted>
-10.5396

> <Gold.Chemscore.Internal_Hbond.Weighted>
0.0000

> <Gold.Chemscore.DEClash.Weighted>
0.6377

> <Gold.Chemscore.DEInternal.Weighted>
1.4161

> <Gold.Chemscore.Rot.Weighted>
3.3915

> <Gold.Chemscore.Internal.Correction.Weighted>
   9.000000E+99

> <Gold.Protein.RotatedTorsions>
[ 6907 6896 6895 6894 ] final   86.64 input  -60.11 | X-H torsion
[ 7974 7965 7964 7962 ] final  -63.40 input  175.53 | X-H torsion
[ 8008 7997 7996 7995 ] final  165.75 input   59.86 | X-H torsion
[ 10167 10162 10161 10158 ] final  -79.04 input  -65.29 | X-H torsion
[ 10718 10713 10712 10709 ] final  168.94 input   66.30 | X-H torsion
[ 10763 10752 10751 10750 ] final   -3.01 input  -60.55 | X-H torsion
[ 11005 11000 10999 10996 ] final  107.79 input  -57.11 | X-H torsion

> <Gold.Protein.ActiveResidues>
 VAL166  LYS551  ARG553  GLY616  TRP617  ASP618  TYR619  PRO620  LYS621  CYS622 
 ASP623  PHE694  ASN695  SER759  ASP760  ASP761  ALA762  ILE779  LEU786  VAL792 
 PHE793  MET794  SER795  GLU796  ALA797  LYS798  CYS799  TRP800  GLU811  SER814 

> <Gold.Protein.RotatedAtoms>
  152.5398  134.2400  159.8858 H   0  0  0  0  0  0  0  0  0  0  0  0  # atno 6907 bound_to 6896
  151.2368  133.4414  159.2613 H   0  0  0  0  0  0  0  0  0  0  0  0  # atno 6908 bound_to 6896
  151.0664  134.9783  159.8342 H   0  0  0  0  0  0  0  0  0  0  0  0  # atno 6909 bound_to 6896
  145.7795  140.8770  143.0338 H   0  0  0  0  0  0  0  0  0  0  0  0  # atno 7974 bound_to 7965
  156.1775  140.1662  156.8335 H   0  0  0  0  0  0  0  0  0  0  0  0  # atno 8008 bound_to 7997
  154.5323  140.0754  156.8400 H   0  0  0  0  0  0  0  0  0  0  0  0  # atno 8009 bound_to 7997
  155.3381  140.3383  155.4241 H   0  0  0  0  0  0  0  0  0  0  0  0  # atno 8010 bound_to 7997
  140.4628  143.2448  151.8322 H   0  0  0  0  0  0  0  0  0  0  0  0  # atno 10167 bound_to 10162
  157.0298  131.0256  151.2748 H   0  0  0  0  0  0  0  0  0  0  0  0  # atno 10718 bound_to 10713
  153.3656  135.6992  153.6677 H   0  0  0  0  0  0  0  0  0  0  0  0  # atno 10763 bound_to 10752
  153.5348  135.3585  155.2693 H   0  0  0  0  0  0  0  0  0  0  0  0  # atno 10764 bound_to 10752
  154.8674  135.4189  154.2923 H   0  0  0  0  0  0  0  0  0  0  0  0  # atno 10765 bound_to 10752
  139.8833  134.9411  156.5873 H   0  0  0  0  0  0  0  0  0  0  0  0  # atno 11005 bound_to 11000
  144.6799  139.9969  143.7484 LP  0  0  0  0  0  0  0  0  0  0  0  0  # atno 17320 bound_to 7965
  146.0088  139.3152  143.0883 LP  0  0  0  0  0  0  0  0  0  0  0  0  # atno 17321 bound_to 7965
  139.4808  144.4986  151.9090 LP  0  0  0  0  0  0  0  0  0  0  0  0  # atno 17342 bound_to 10162
  140.4072  144.2416  150.5890 LP  0  0  0  0  0  0  0  0  0  0  0  0  # atno 17343 bound_to 10162
  157.5186  130.7984  149.7784 LP  0  0  0  0  0  0  0  0  0  0  0  0  # atno 17370 bound_to 10713
  156.0073  130.3849  150.2385 LP  0  0  0  0  0  0  0  0  0  0  0  0  # atno 17371 bound_to 10713
  140.7982  133.8527  155.8704 LP  0  0  0  0  0  0  0  0  0  0  0  0  # atno 17394 bound_to 11000
  140.9616  134.1648  157.4649 LP  0  0  0  0  0  0  0  0  0  0  0  0  # atno 17395 bound_to 11000

$$$$
