AV-unprocessed.smi:295|AV-procd|sdf|2254|dock9
  -GOLD-   2262022143D 1   1.00000     0.00000
 Structure written by MMmdl.
 35 36  0  0  0  0  0  0  0  0  1 V2000
  151.4042  145.2798  158.9574 C   0  0  0  0  0  0  0  0  0  0  0  0
  151.5905  143.9662  159.7394 C   0  0  2  0  0  0  0  0  0  0  0  0
  152.3141  144.2251  161.0760 C   0  0  0  0  0  0  0  0  0  0  0  0
  152.5004  142.9316  161.8836 C   0  0  0  0  0  0  0  0  0  0  0  0
  153.2525  141.8732  161.0650 C   0  0  0  0  0  0  0  0  0  0  0  0
  152.5373  141.5947  159.7351 C   0  0  0  0  0  0  0  0  0  0  0  0
  152.3376  142.8867  158.9176 C   0  0  1  0  0  0  0  0  0  0  0  0
  151.5951  142.5873  157.6974 N   0  0  0  0  0  0  0  0  0  0  0  0
  150.3407  142.1149  157.6343 C   0  0  0  0  0  0  0  0  0  0  0  0
  149.6210  141.9559  158.6194 O   0  0  0  0  0  0  0  0  0  0  0  0
  149.8258  141.7511  156.2406 C   0  0  0  0  0  0  0  0  0  0  0  0
  150.5398  140.6032  155.7088 N   0  0  0  0  0  0  0  0  0  0  0  0
  150.4488  139.9986  154.5194 C   0  0  0  0  0  0  0  0  0  0  0  0
  151.2389  138.9398  154.3909 N   0  0  0  0  0  0  0  0  0  0  0  0
  151.8229  138.9602  155.6241 C   0  0  0  0  0  0  0  0  0  0  0  0
  152.8003  137.9602  156.0186 C   0  0  0  0  0  0  0  0  0  0  0  0
  153.5791  137.1642  156.3333 N   0  0  0  0  0  0  0  0  0  0  0  0
  151.4500  139.9305  156.4556 N   0  0  0  0  0  0  0  0  0  0  0  0
  152.3643  145.6999  158.6566 H   0  0  0  0  0  0  0  0  0  0  0  0
  150.8902  146.0262  159.5635 H   0  0  0  0  0  0  0  0  0  0  0  0
  150.8082  145.1338  158.0559 H   0  0  0  0  0  0  0  0  0  0  0  0
  150.5954  143.5842  159.9738 H   0  0  0  0  0  0  0  0  0  0  0  0
  153.2884  144.6773  160.8854 H   0  0  0  0  0  0  0  0  0  0  0  0
  151.7521  144.9460  161.6709 H   0  0  0  0  0  0  0  0  0  0  0  0
  153.0430  143.1435  162.8053 H   0  0  0  0  0  0  0  0  0  0  0  0
  151.5259  142.5416  162.1806 H   0  0  0  0  0  0  0  0  0  0  0  0
  154.2696  142.2152  160.8689 H   0  0  0  0  0  0  0  0  0  0  0  0
  153.3408  140.9513  161.6403 H   0  0  0  0  0  0  0  0  0  0  0  0
  153.1118  140.8699  159.1570 H   0  0  0  0  0  0  0  0  0  0  0  0
  151.5703  141.1312  159.9366 H   0  0  0  0  0  0  0  0  0  0  0  0
  153.3201  143.2845  158.6554 H   0  0  0  0  0  0  0  0  0  0  0  0
  152.0986  142.6908  156.8280 H   0  0  0  0  0  0  0  0  0  0  0  0
  148.7618  141.5144  156.2814 H   0  0  0  0  0  0  0  0  0  0  0  0
  149.9444  142.6007  155.5664 H   0  0  0  0  0  0  0  0  0  0  0  0
  149.7832  140.3333  153.7373 H   0  0  0  0  0  0  0  0  0  0  0  0
  1  2  1  0  0  0  0
  1 19  1  0  0  0  0
  1 20  1  0  0  0  0
  1 21  1  0  0  0  0
  2  7  1  0  0  0  0
  2  3  1  0  0  0  0
  2 22  1  0  0  0  0
  3  4  1  0  0  0  0
  3 23  1  0  0  0  0
  3 24  1  0  0  0  0
  4  5  1  0  0  0  0
  4 25  1  0  0  0  0
  4 26  1  0  0  0  0
  5  6  1  0  0  0  0
  5 27  1  0  0  0  0
  5 28  1  0  0  0  0
  6  7  1  0  0  0  0
  6 29  1  0  0  0  0
  6 30  1  0  0  0  0
  7  8  1  0  0  0  0
  7 31  1  0  0  0  0
  8  9  1  0  0  0  0
  8 32  1  0  0  0  0
  9 10  2  0  0  0  0
  9 11  1  0  0  0  0
 11 12  1  0  0  0  0
 11 33  1  0  0  0  0
 11 34  1  0  0  0  0
 12 18  1  0  0  0  0
 12 13  1  0  0  0  0
 13 14  2  0  0  0  0
 13 35  1  0  0  0  0
 14 15  1  0  0  0  0
 15 16  1  0  0  0  0
 15 18  2  0  0  0  0
 16 17  3  0  0  0  0
M  END
> <s_m_source_file>
AV-unprocessed.smi

> <i_m_source_file_index>
295

> <i_lp_mmshare_version>
43012

> <i_f3d_flags>
0

> <s_epik_input>
W0NIM11bQ0BASF0xW0NIMl1bQ0gyXVtDSDJdW0NIMl1bQ0BIXTFbTkhdQyg9TylbQ0gyXW4yW2NIXW5jKG4yKUMjTg==

> <s_epik_cmdline>
J2VwaWtfcHl0aG9uJywgJy1waCcsICc3LjAnLCAnLXRuJywgJzgnLCAnLW1hJywgJzIwMCcsICctbWV0YWxfYmluZGluZycsICctaW1hZScsICc8aW5maWxlLm1hZT4nLCAnLW9tYWUnLCAnPG91dGZpbGUubWFlPic=

> <r_lp_tautomer_probability>
1

> <r_epik_Ionization_Penalty>
5.31112e-08

> <r_epik_Ionization_Penalty_Charging>
0

> <r_epik_Ionization_Penalty_Neutral>
5.31112e-08

> <r_epik_State_Penalty>
-0

> <r_epik_Charging_Adjusted_Penalty>
0

> <i_epik_Tot_Q>
0

> <i_epik_Tot_abs_Q>
0

> <r_epik_Metal_State_Penalty>
-0

> <b_epik_Metal_Only>
0

> <s_lp_Force_Field>
OPLS_2005

> <r_lp_Energy>
13.1712

> <b_lp_Chiralities_Consistent>
1

> <s_lp_Variant>
AV-unprocessed.smi:295-1

> <Gold.Version>
5.8.1

> <Gold.Id.Protein>
6NUR|6NUR_protein|mol2

> <Gold.PLP.Fitness>
43.6478

> <Gold.PLP.PLP>
-39.5450

> <Gold.PLP.part.hbond>
-2.1882

> <Gold.PLP.part.metal>
0.0000

> <Gold.PLP.part.buried>
-0.8371

> <Gold.PLP.part.nonpolar>
-36.4225

> <Gold.PLP.part.repulsive>
0.2466

> <Gold.PLP.ligand.clash>
0.0000

> <Gold.PLP.ligand.torsion>
0.0805

> <Gold.PLP.Chemscore.Hbond>
0.5392

> <Gold.PLP.Chemscore.CHOScore>
0.8797

> <Gold.PLP.Chemscore.Metal>
0.0000

> <Gold.Chemscore.Hbonds>
donor molecule, donor type, donor heavy atom, donor atom, acceptor molecule, acceptor atom, score
      P1  H 10752 10764       L1    17  0.56
      L1  C    13    35       P1  7957  0.83

> <Gold.PLP.Chemscore.Internal.Correction>
0.0070

> <Gold.Rescore>
     Score         DG    S(hbond)    S(metal)    S(lipo)     H(rot)  DE(clash)    DE(int)     intcor
     12.63     -13.59       0.97        0.00      84.13       1.95       0.01       0.95       ----

> <Gold.Chemscore.Fitness>
12.6324

> <Gold.Chemscore.DG>
-13.5913

> <Gold.Chemscore.ZeroCoef>
-5.4800

> <Gold.Chemscore.Hbond>
0.9742

> <Gold.Chemscore.Metal>
0.0000

> <Gold.Chemscore.Lipo>
84.1254

> <Gold.Chemscore.Internal_Hbond>
0.0000

> <Gold.Chemscore.DEClash>
0.0069

> <Gold.Chemscore.DEInternal>
0.9520

> <Gold.Chemscore.Rot>
1.9474

> <Gold.Chemscore.Internal.Correction>
   9.000000E+99

> <Gold.Chemscore.Hbonds>
donor molecule, donor type, donor heavy atom, donor atom, acceptor molecule, acceptor atom, score
      P1  H 10752 10764       L1    17  0.47

> <Gold.Chemscore.Hbond.Weighted>
-3.2539

> <Gold.Chemscore.Metal.Weighted>
-0.0000

> <Gold.Chemscore.Lipo.Weighted>
-9.8427

> <Gold.Chemscore.Internal_Hbond.Weighted>
0.0000

> <Gold.Chemscore.DEClash.Weighted>
0.0069

> <Gold.Chemscore.DEInternal.Weighted>
0.9520

> <Gold.Chemscore.Rot.Weighted>
4.9852

> <Gold.Chemscore.Internal.Correction.Weighted>
   9.000000E+99

> <Gold.Protein.RotatedTorsions>
[ 6907 6896 6895 6894 ] final   73.87 input  -60.11 | X-H torsion
[ 7974 7965 7964 7962 ] final -172.76 input  175.53 | X-H torsion
[ 8008 7997 7996 7995 ] final  -95.61 input   59.86 | X-H torsion
[ 10167 10162 10161 10158 ] final -119.93 input  -65.29 | X-H torsion
[ 10718 10713 10712 10709 ] final  -69.62 input   66.30 | X-H torsion
[ 10763 10752 10751 10750 ] final   -5.25 input  -60.55 | X-H torsion
[ 11005 11000 10999 10996 ] final   72.97 input  -57.11 | X-H torsion

> <Gold.Protein.ActiveResidues>
 VAL166  LYS551  ARG553  GLY616  TRP617  ASP618  TYR619  PRO620  LYS621  CYS622 
 ASP623  PHE694  ASN695  SER759  ASP760  ASP761  ALA762  ILE779  LEU786  VAL792 
 PHE793  MET794  SER795  GLU796  ALA797  LYS798  CYS799  TRP800  GLU811  SER814 

> <Gold.Protein.RotatedAtoms>
  152.4946  134.4356  159.9526 H   0  0  0  0  0  0  0  0  0  0  0  0  # atno 6907 bound_to 6896
  151.4337  133.3657  159.2780 H   0  0  0  0  0  0  0  0  0  0  0  0  # atno 6908 bound_to 6896
  150.9136  134.8577  159.7502 H   0  0  0  0  0  0  0  0  0  0  0  0  # atno 6909 bound_to 6896
  144.7143  140.1724  143.6366 H   0  0  0  0  0  0  0  0  0  0  0  0  # atno 7974 bound_to 7965
  154.7637  140.0478  157.0994 H   0  0  0  0  0  0  0  0  0  0  0  0  # atno 8008 bound_to 7997
  154.9906  140.3112  155.4888 H   0  0  0  0  0  0  0  0  0  0  0  0  # atno 8009 bound_to 7997
  156.2909  140.2219  156.5011 H   0  0  0  0  0  0  0  0  0  0  0  0  # atno 8010 bound_to 7997
  140.0414  143.5150  152.2128 H   0  0  0  0  0  0  0  0  0  0  0  0  # atno 10167 bound_to 10162
  156.0446  130.4316  150.2174 H   0  0  0  0  0  0  0  0  0  0  0  0  # atno 10718 bound_to 10713
  153.3960  135.7003  153.6460 H   0  0  0  0  0  0  0  0  0  0  0  0  # atno 10763 bound_to 10752
  153.5013  135.3651  155.2542 H   0  0  0  0  0  0  0  0  0  0  0  0  # atno 10764 bound_to 10752
  154.8706  135.4112  154.3286 H   0  0  0  0  0  0  0  0  0  0  0  0  # atno 10765 bound_to 10752
  139.9464  134.7306  156.0970 H   0  0  0  0  0  0  0  0  0  0  0  0  # atno 11005 bound_to 11000
  145.8932  139.2387  143.1537 LP  0  0  0  0  0  0  0  0  0  0  0  0  # atno 17320 bound_to 7965
  145.9883  140.8624  143.0079 LP  0  0  0  0  0  0  0  0  0  0  0  0  # atno 17321 bound_to 7965
  139.6011  144.7583  151.3169 LP  0  0  0  0  0  0  0  0  0  0  0  0  # atno 17342 bound_to 10162
  140.7258  143.7006  150.7848 LP  0  0  0  0  0  0  0  0  0  0  0  0  # atno 17343 bound_to 10162
  157.0266  130.9995  151.3324 LP  0  0  0  0  0  0  0  0  0  0  0  0  # atno 17370 bound_to 10713
  157.5307  130.8057  149.7914 LP  0  0  0  0  0  0  0  0  0  0  0  0  # atno 17371 bound_to 10713
  141.1115  133.6642  156.2990 LP  0  0  0  0  0  0  0  0  0  0  0  0  # atno 17394 bound_to 11000
  140.5825  134.5731  157.5482 LP  0  0  0  0  0  0  0  0  0  0  0  0  # atno 17395 bound_to 11000

$$$$
