AV-unprocessed.smi:1936|AV-procd|sdf|7830|dock7
  -GOLD-   22720 9573D 1   1.00000     0.00000
 Structure written by MMmdl.
 38 39  0  0  0  0  0  0  0  0  1 V2000
  145.6503  138.0570  154.7294 C   0  0  0  0  0  0  0  0  0  0  0  0
  145.8876  138.1519  153.2132 C   0  0  1  0  0  0  0  0  0  0  0  0
  146.8876  139.2774  152.8686 C   0  0  0  0  0  0  0  0  0  0  0  0
  147.7976  139.6602  153.9491 N   0  0  0  0  0  0  0  0  0  0  0  0
  148.3036  141.0241  153.8066 C   0  0  0  0  0  0  0  0  0  0  0  0
  149.2848  141.3957  154.9320 C   0  0  0  0  0  0  0  0  0  0  0  0
  150.3540  140.4563  154.9658 O   0  0  0  0  0  0  0  0  0  0  0  0
  149.9018  139.1199  155.1576 C   0  0  0  0  0  0  0  0  0  0  0  0
  148.9281  138.7409  154.0286 C   0  0  0  0  0  0  0  0  0  0  0  0
  146.3996  136.8713  152.7294 N   0  0  0  0  0  0  0  0  0  0  0  0
  145.7429  135.7020  152.7745 C   0  0  0  0  0  0  0  0  0  0  0  0
  144.6146  135.5812  153.2547 O   0  0  0  0  0  0  0  0  0  0  0  0
  146.4896  134.5005  152.1815 C   0  0  0  0  0  0  0  0  0  0  0  0
  145.6379  133.6468  151.3688 N   0  0  0  0  0  0  0  0  0  0  0  0
  145.9887  132.5257  150.6452 C   0  0  0  0  0  0  0  0  0  0  0  0
  144.8546  132.0568  150.0464 C   0  0  0  0  0  0  0  0  0  0  0  0
  143.8477  132.9693  150.4684 C   0  0  0  0  0  0  0  0  0  0  0  0
  144.3194  133.9212  151.2575 N   0  0  0  0  0  0  0  0  0  0  0  0
  145.2486  138.9913  155.1229 H   0  0  0  0  0  0  0  0  0  0  0  0
  146.5759  137.8410  155.2640 H   0  0  0  0  0  0  0  0  0  0  0  0
  144.9347  137.2699  154.9695 H   0  0  0  0  0  0  0  0  0  0  0  0
  144.9290  138.3770  152.7408 H   0  0  0  0  0  0  0  0  0  0  0  0
  147.4990  138.9287  152.0353 H   0  0  0  0  0  0  0  0  0  0  0  0
  146.3597  140.1536  152.4882 H   0  0  0  0  0  0  0  0  0  0  0  0
  148.8009  141.1355  152.8419 H   0  0  0  0  0  0  0  0  0  0  0  0
  147.4786  141.7357  153.8189 H   0  0  0  0  0  0  0  0  0  0  0  0
  149.6913  142.3935  154.7659 H   0  0  0  0  0  0  0  0  0  0  0  0
  148.7764  141.4133  155.8974 H   0  0  0  0  0  0  0  0  0  0  0  0
  150.7611  138.4494  155.1591 H   0  0  0  0  0  0  0  0  0  0  0  0
  149.4200  139.0268  156.1322 H   0  0  0  0  0  0  0  0  0  0  0  0
  148.5682  137.7242  154.1913 H   0  0  0  0  0  0  0  0  0  0  0  0
  149.4656  138.7329  153.0790 H   0  0  0  0  0  0  0  0  0  0  0  0
  147.3219  136.8788  152.3184 H   0  0  0  0  0  0  0  0  0  0  0  0
  147.3254  134.8560  151.5764 H   0  0  0  0  0  0  0  0  0  0  0  0
  146.9095  133.8990  152.9887 H   0  0  0  0  0  0  0  0  0  0  0  0
  147.0041  132.1586  150.6197 H   0  0  0  0  0  0  0  0  0  0  0  0
  144.7585  131.1927  149.4059 H   0  0  0  0  0  0  0  0  0  0  0  0
  142.7952  132.9685  150.2259 H   0  0  0  0  0  0  0  0  0  0  0  0
  1  2  1  0  0  0  0
  1 19  1  0  0  0  0
  1 20  1  0  0  0  0
  1 21  1  0  0  0  0
  2  3  1  0  0  0  0
  2 10  1  0  0  0  0
  2 22  1  0  0  0  0
  3  4  1  0  0  0  0
  3 23  1  0  0  0  0
  3 24  1  0  0  0  0
  4  9  1  0  0  0  0
  4  5  1  0  0  0  0
  5  6  1  0  0  0  0
  5 25  1  0  0  0  0
  5 26  1  0  0  0  0
  6  7  1  0  0  0  0
  6 27  1  0  0  0  0
  6 28  1  0  0  0  0
  7  8  1  0  0  0  0
  8  9  1  0  0  0  0
  8 29  1  0  0  0  0
  8 30  1  0  0  0  0
  9 31  1  0  0  0  0
  9 32  1  0  0  0  0
 10 11  1  0  0  0  0
 10 33  1  0  0  0  0
 11 12  2  0  0  0  0
 11 13  1  0  0  0  0
 13 14  1  0  0  0  0
 13 34  1  0  0  0  0
 13 35  1  0  0  0  0
 14 18  1  0  0  0  0
 14 15  1  0  0  0  0
 15 16  2  0  0  0  0
 15 36  1  0  0  0  0
 16 17  1  0  0  0  0
 16 37  1  0  0  0  0
 17 18  2  0  0  0  0
 17 38  1  0  0  0  0
M  END
> <s_m_source_file>
AV-unprocessed.smi

> <i_m_source_file_index>
1936

> <i_lp_mmshare_version>
43012

> <i_f3d_flags>
0

> <s_epik_input>
W0NIMl0xW0NIMl1PW0NIMl1bQ0gyXU4xW0NIMl1bQ0BASF0oW0NIM10pW05IXUMoPU8pW0NIMl1uMltjSF1bY0hdW2NIXW4y

> <s_epik_cmdline>
J2VwaWtfcHl0aG9uJywgJy1waCcsICc3LjAnLCAnLXRuJywgJzgnLCAnLW1hJywgJzIwMCcsICctbWV0YWxfYmluZGluZycsICctaW1hZScsICc8aW5maWxlLm1hZT4nLCAnLW9tYWUnLCAnPG91dGZpbGUubWFlPic=

> <r_lp_tautomer_probability>
1

> <r_epik_Ionization_Penalty>
0.196927

> <r_epik_Ionization_Penalty_Charging>
0

> <r_epik_Ionization_Penalty_Neutral>
0.196927

> <r_epik_State_Penalty>
0.186684

> <r_epik_Charging_Adjusted_Penalty>
0.186684

> <i_epik_Tot_Q>
0

> <i_epik_Tot_abs_Q>
0

> <r_epik_Metal_State_Penalty>
0.186682

> <b_epik_Metal_Only>
0

> <s_lp_Force_Field>
OPLS_2005

> <r_lp_Energy>
27.4163

> <b_lp_Chiralities_Consistent>
1

> <s_lp_Variant>
AV-unprocessed.smi:1936-2

> <Gold.Version>
5.8.1

> <Gold.Id.Protein>
6NUR|6NUR_protein|mol2

> <Gold.PLP.Fitness>
38.1766

> <Gold.PLP.PLP>
-28.1454

> <Gold.PLP.part.hbond>
-2.0000

> <Gold.PLP.part.metal>
0.0000

> <Gold.PLP.part.buried>
-2.2241

> <Gold.PLP.part.nonpolar>
-25.0840

> <Gold.PLP.part.repulsive>
0.4456

> <Gold.PLP.ligand.clash>
0.0000

> <Gold.PLP.ligand.torsion>
1.0089

> <Gold.PLP.Chemscore.Hbond>
2.0000

> <Gold.PLP.Chemscore.CHOScore>
2.0000

> <Gold.PLP.Chemscore.Metal>
0.0000

> <Gold.Chemscore.Hbonds>
donor molecule, donor type, donor heavy atom, donor atom, acceptor molecule, acceptor atom, score
      L1  H    10    33       P1  7948  1.00
      P1  H  7989  7998       L1     7  1.00
      L1  C    15    36       P1 10747  1.00
      L1  C    17    38       P1 10186  1.00

> <Gold.PLP.Chemscore.Internal.Correction>
0.0491

> <Gold.Rescore>
     Score         DG    S(hbond)    S(metal)    S(lipo)     H(rot)  DE(clash)    DE(int)     intcor
     12.91     -15.55       1.80        0.00      75.33       1.85       0.17       2.47       ----

> <Gold.Chemscore.Fitness>
12.9102

> <Gold.Chemscore.DG>
-15.5535

> <Gold.Chemscore.ZeroCoef>
-5.4800

> <Gold.Chemscore.Hbond>
1.7988

> <Gold.Chemscore.Metal>
0.0000

> <Gold.Chemscore.Lipo>
75.3342

> <Gold.Chemscore.Internal_Hbond>
0.0000

> <Gold.Chemscore.DEClash>
0.1722

> <Gold.Chemscore.DEInternal>
2.4711

> <Gold.Chemscore.Rot>
1.8549

> <Gold.Chemscore.Internal.Correction>
   9.000000E+99

> <Gold.Chemscore.Hbonds>
donor molecule, donor type, donor heavy atom, donor atom, acceptor molecule, acceptor atom, score
      L1  H    10    33       P1  7948  0.99
      P1  H  7989  7998       L1     7  0.64

> <Gold.Chemscore.Hbond.Weighted>
-6.0079

> <Gold.Chemscore.Metal.Weighted>
-0.0000

> <Gold.Chemscore.Lipo.Weighted>
-8.8141

> <Gold.Chemscore.Internal_Hbond.Weighted>
0.0000

> <Gold.Chemscore.DEClash.Weighted>
0.1722

> <Gold.Chemscore.DEInternal.Weighted>
2.4711

> <Gold.Chemscore.Rot.Weighted>
4.7485

> <Gold.Chemscore.Internal.Correction.Weighted>
   9.000000E+99

> <Gold.Protein.RotatedTorsions>
[ 6907 6896 6895 6894 ] final   -8.56 input  -60.11 | X-H torsion
[ 7974 7965 7964 7962 ] final   48.78 input  175.53 | X-H torsion
[ 8008 7997 7996 7995 ] final  153.03 input   59.86 | X-H torsion
[ 10167 10162 10161 10158 ] final -178.41 input  -65.29 | X-H torsion
[ 10718 10713 10712 10709 ] final  141.86 input   66.30 | X-H torsion
[ 10763 10752 10751 10750 ] final  -22.63 input  -60.55 | X-H torsion
[ 11005 11000 10999 10996 ] final -140.57 input  -57.11 | X-H torsion

> <Gold.Protein.ActiveResidues>
 VAL166  LYS551  ARG553  GLY616  TRP617  ASP618  TYR619  PRO620  LYS621  CYS622 
 ASP623  PHE694  ASN695  SER759  ASP760  ASP761  ALA762  ILE779  LEU786  VAL792 
 PHE793  MET794  SER795  GLU796  ALA797  LYS798  CYS799  TRP800  GLU811  SER814 

> <Gold.Protein.RotatedAtoms>
  151.4317  135.1010  159.9643 H   0  0  0  0  0  0  0  0  0  0  0  0  # atno 6907 bound_to 6896
  152.4954  133.8611  159.7261 H   0  0  0  0  0  0  0  0  0  0  0  0  # atno 6908 bound_to 6896
  150.9150  133.6892  159.2873 H   0  0  0  0  0  0  0  0  0  0  0  0  # atno 6909 bound_to 6896
  146.0172  139.4609  142.9920 H   0  0  0  0  0  0  0  0  0  0  0  0  # atno 7974 bound_to 7965
  156.2601  140.2004  156.6427 H   0  0  0  0  0  0  0  0  0  0  0  0  # atno 8008 bound_to 7997
  154.6597  140.0562  157.0073 H   0  0  0  0  0  0  0  0  0  0  0  0  # atno 8009 bound_to 7997
  155.1294  140.3232  155.4480 H   0  0  0  0  0  0  0  0  0  0  0  0  # atno 8010 bound_to 7997
  139.5434  144.2302  152.0940 H   0  0  0  0  0  0  0  0  0  0  0  0  # atno 10167 bound_to 10162
  157.3872  131.1000  151.0682 H   0  0  0  0  0  0  0  0  0  0  0  0  # atno 10718 bound_to 10713
  153.6550  135.6979  153.5196 H   0  0  0  0  0  0  0  0  0  0  0  0  # atno 10763 bound_to 10752
  153.2676  135.4225  155.0955 H   0  0  0  0  0  0  0  0  0  0  0  0  # atno 10764 bound_to 10752
  154.8466  135.3570  154.6095 H   0  0  0  0  0  0  0  0  0  0  0  0  # atno 10765 bound_to 10752
  140.8409  134.2403  157.4810 H   0  0  0  0  0  0  0  0  0  0  0  0  # atno 11005 bound_to 11000
  145.7250  141.0062  143.1382 LP  0  0  0  0  0  0  0  0  0  0  0  0  # atno 17320 bound_to 7965
  144.6975  139.8916  143.7453 LP  0  0  0  0  0  0  0  0  0  0  0  0  # atno 17321 bound_to 7965
  140.1784  144.4868  150.6541 LP  0  0  0  0  0  0  0  0  0  0  0  0  # atno 17342 bound_to 10162
  140.6673  143.2272  151.5712 LP  0  0  0  0  0  0  0  0  0  0  0  0  # atno 17343 bound_to 10162
  157.1729  130.6275  149.5646 LP  0  0  0  0  0  0  0  0  0  0  0  0  # atno 17370 bound_to 10713
  155.9789  130.4779  150.6686 LP  0  0  0  0  0  0  0  0  0  0  0  0  # atno 17371 bound_to 10713
  139.8703  134.9635  156.4464 LP  0  0  0  0  0  0  0  0  0  0  0  0  # atno 17394 bound_to 11000
  140.8896  133.7858  155.9557 LP  0  0  0  0  0  0  0  0  0  0  0  0  # atno 17395 bound_to 11000

$$$$
