AV-unprocessed.smi:101|AV-procd|sdf|922|dock3
  -GOLD-   2262017423D 1   1.00000     0.00000
 Structure written by MMmdl.
 44 46  0  0  0  0  0  0  0  0  1 V2000
  147.8478  137.1512  158.9880 C   0  0  0  0  0  0  0  0  0  0  0  0
  147.8587  138.0607  157.7699 C   0  0  0  0  0  0  0  0  0  0  0  0
  148.8745  138.0590  156.8694 C   0  0  0  0  0  0  0  0  0  0  0  0
  148.9116  138.8621  155.7335 N   0  0  0  0  0  0  0  0  0  0  0  0
  150.0973  138.8325  154.7767 C   0  0  1  0  0  0  0  0  0  0  0  0
  150.8428  140.0085  154.9351 O   0  0  0  0  0  0  0  0  0  0  0  0
  152.0126  139.7768  155.7151 C   0  0  1  0  0  0  0  0  0  0  0  0
  151.6947  139.8556  157.2232 C   0  0  0  0  0  0  0  0  0  0  0  0
  151.8348  141.1959  157.6646 O   0  0  0  0  0  0  0  0  0  0  0  0
  152.2082  141.4525  158.9342 C   0  0  0  0  0  0  0  0  0  0  0  0
  152.6552  140.5972  159.7010 O   0  0  0  0  0  0  0  0  0  0  0  0
  151.9965  142.8756  159.3236 C   0  0  0  0  0  0  0  0  0  0  0  0
  151.9677  143.2211  160.6948 C   0  0  0  0  0  0  0  0  0  0  0  0
  151.7529  144.5544  161.0939 C   0  0  0  0  0  0  0  0  0  0  0  0
  151.5653  145.5586  160.1264 C   0  0  0  0  0  0  0  0  0  0  0  0
  151.5917  145.2275  158.7591 C   0  0  0  0  0  0  0  0  0  0  0  0
  151.8057  143.8945  158.3579 C   0  0  0  0  0  0  0  0  0  0  0  0
  152.4230  138.3879  155.2239 C   0  0  1  0  0  0  0  0  0  0  0  0
  153.2759  137.7218  156.1354 O   0  0  0  0  0  0  0  0  0  0  0  0
  151.0880  137.6695  155.0564 C   0  0  2  0  0  0  0  0  0  0  0  0
  151.1652  136.7702  153.9683 O   0  0  0  0  0  0  0  0  0  0  0  0
  147.9050  139.8402  155.5685 C   0  0  0  0  0  0  0  0  0  0  0  0
  147.9278  140.6844  154.6743 O   0  0  0  0  0  0  0  0  0  0  0  0
  146.8523  139.8325  156.4816 N   0  0  0  0  0  0  0  0  0  0  0  0
  146.7351  138.9802  157.5812 C   0  0  0  0  0  0  0  0  0  0  0  0
  145.7460  139.0571  158.3081 O   0  0  0  0  0  0  0  0  0  0  0  0
  146.1176  140.5116  156.3454 H   0  0  0  0  0  0  0  0  0  0  0  0
  148.7529  136.5464  159.0510 H   0  0  0  0  0  0  0  0  0  0  0  0
  146.9961  136.4713  158.9458 H   0  0  0  0  0  0  0  0  0  0  0  0
  147.7750  137.7376  159.9045 H   0  0  0  0  0  0  0  0  0  0  0  0
  149.6974  137.3891  157.0673 H   0  0  0  0  0  0  0  0  0  0  0  0
  149.6430  138.8115  153.7845 H   0  0  0  0  0  0  0  0  0  0  0  0
  152.7771  140.5142  155.4677 H   0  0  0  0  0  0  0  0  0  0  0  0
  150.6902  139.4823  157.4255 H   0  0  0  0  0  0  0  0  0  0  0  0
  152.3873  139.2341  157.7913 H   0  0  0  0  0  0  0  0  0  0  0  0
  152.1057  142.4666  161.4559 H   0  0  0  0  0  0  0  0  0  0  0  0
  151.7313  144.8061  162.1439 H   0  0  0  0  0  0  0  0  0  0  0  0
  151.4007  146.5811  160.4326 H   0  0  0  0  0  0  0  0  0  0  0  0
  151.4471  145.9974  158.0156 H   0  0  0  0  0  0  0  0  0  0  0  0
  151.8168  143.6740  157.3005 H   0  0  0  0  0  0  0  0  0  0  0  0
  152.9264  138.4878  154.2605 H   0  0  0  0  0  0  0  0  0  0  0  0
  153.7285  138.3701  156.6531 H   0  0  0  0  0  0  0  0  0  0  0  0
  150.8256  137.1494  155.9786 H   0  0  0  0  0  0  0  0  0  0  0  0
  151.0143  137.2553  153.1710 H   0  0  0  0  0  0  0  0  0  0  0  0
  1  2  1  0  0  0  0
  1 28  1  0  0  0  0
  1 29  1  0  0  0  0
  1 30  1  0  0  0  0
  2 25  1  0  0  0  0
  2  3  2  0  0  0  0
  3  4  1  0  0  0  0
  3 31  1  0  0  0  0
  4  5  1  0  0  0  0
  4 22  1  0  0  0  0
  5 20  1  0  0  0  0
  5  6  1  0  0  0  0
  5 32  1  0  0  0  0
  6  7  1  0  0  0  0
  7  8  1  0  0  0  0
  7 18  1  0  0  0  0
  7 33  1  0  0  0  0
  8  9  1  0  0  0  0
  8 34  1  0  0  0  0
  8 35  1  0  0  0  0
  9 10  1  0  0  0  0
 10 11  2  0  0  0  0
 10 12  1  0  0  0  0
 12 17  1  0  0  0  0
 12 13  2  0  0  0  0
 13 14  1  0  0  0  0
 13 36  1  0  0  0  0
 14 15  2  0  0  0  0
 14 37  1  0  0  0  0
 15 16  1  0  0  0  0
 15 38  1  0  0  0  0
 16 17  2  0  0  0  0
 16 39  1  0  0  0  0
 17 40  1  0  0  0  0
 18 19  1  0  0  0  0
 18 20  1  0  0  0  0
 18 41  1  0  0  0  0
 19 42  1  0  0  0  0
 20 21  1  0  0  0  0
 20 43  1  0  0  0  0
 21 44  1  0  0  0  0
 22 23  2  0  0  0  0
 22 24  1  0  0  0  0
 24 27  1  0  0  0  0
 24 25  1  0  0  0  0
 25 26  2  0  0  0  0
M  END
> <s_m_source_file>
AV-unprocessed.smi

> <i_m_source_file_index>
101

> <i_lp_mmshare_version>
43012

> <i_f3d_flags>
0

> <s_epik_input>
Tz1jMVtuSF1jKD1PKW4oW2NIXWMxW0NIM10pW0NAQEhdMk9bQ0BIXShbQ0BASF0oW09IXSlbQ0BIXTJbT0hdKVtDSDJdT0MoPU8pYzNbY0hdW2NIXVtjSF1bY0hdW2NIXTM=

> <s_epik_cmdline>
J2VwaWtfcHl0aG9uJywgJy1waCcsICc3LjAnLCAnLXRuJywgJzgnLCAnLW1hJywgJzIwMCcsICctbWV0YWxfYmluZGluZycsICctaW1hZScsICc8aW5maWxlLm1hZT4nLCAnLW9tYWUnLCAnPG91dGZpbGUubWFlPic=

> <r_lp_tautomer_probability>
0.999537

> <r_epik_Ionization_Penalty>
0.00263537

> <r_epik_Ionization_Penalty_Charging>
0.00263428

> <r_epik_Ionization_Penalty_Neutral>
1.09111e-06

> <r_epik_State_Penalty>
0.00183335

> <r_epik_Charging_Adjusted_Penalty>
0.00446763

> <i_epik_Tot_Q>
0

> <i_epik_Tot_abs_Q>
0

> <r_epik_Metal_State_Penalty>
1.00528

> <b_epik_Metal_Only>
0

> <s_epik_Chemistry_Notes>
This compound has an ester and may undergo hydrolysis at high or low pH. This compound contains an acetal/aminal-like group ( X-CH(R)-Y where X, Y are N, S, or O) that may be acid/base labile, releasing an aldehyde.

> <s_lp_Force_Field>
OPLS_2005

> <r_lp_Energy>
31.3632

> <b_lp_Chiralities_Consistent>
1

> <s_lp_Variant>
AV-unprocessed.smi:101-10

> <Gold.Version>
5.8.1

> <Gold.Id.Protein>
6NUR|6NUR_protein|mol2

> <Gold.PLP.Fitness>
52.4498

> <Gold.PLP.PLP>
-47.4859

> <Gold.PLP.part.hbond>
-5.8685

> <Gold.PLP.part.metal>
0.0000

> <Gold.PLP.part.buried>
-5.0924

> <Gold.PLP.part.nonpolar>
-36.3159

> <Gold.PLP.part.repulsive>
0.1784

> <Gold.PLP.ligand.clash>
0.0000

> <Gold.PLP.ligand.torsion>
0.8943

> <Gold.PLP.Chemscore.Hbond>
2.1747

> <Gold.PLP.Chemscore.CHOScore>
0.0000

> <Gold.PLP.Chemscore.Metal>
0.0000

> <Gold.Chemscore.Hbonds>
donor molecule, donor type, donor heavy atom, donor atom, acceptor molecule, acceptor atom, score
      L1  H    21    44       P1  7949  0.18
      P1  H  7989  7998       L1     6  0.95
      P1  H 10752 10764       L1    21  0.80

> <Gold.PLP.Chemscore.Internal.Correction>
0.2284

> <Gold.Rescore>
     Score         DG    S(hbond)    S(metal)    S(lipo)     H(rot)  DE(clash)    DE(int)     intcor
     14.69     -16.12       2.08        0.00     104.24       3.32       0.37       1.06       ----

> <Gold.Chemscore.Fitness>
14.6929

> <Gold.Chemscore.DG>
-16.1206

> <Gold.Chemscore.ZeroCoef>
-5.4800

> <Gold.Chemscore.Hbond>
2.0768

> <Gold.Chemscore.Metal>
0.0000

> <Gold.Chemscore.Lipo>
104.2404

> <Gold.Chemscore.Internal_Hbond>
0.0000

> <Gold.Chemscore.DEClash>
0.3664

> <Gold.Chemscore.DEInternal>
1.0614

> <Gold.Chemscore.Rot>
3.3172

> <Gold.Chemscore.Internal.Correction>
   9.000000E+99

> <Gold.Chemscore.Hbonds>
donor molecule, donor type, donor heavy atom, donor atom, acceptor molecule, acceptor atom, score
      L1  H    21    44       P1  7949  0.05
      P1  H  7989  7998       L1     6  0.21
      P1  H 10752 10764       L1    21  0.39

> <Gold.Chemscore.Hbond.Weighted>
-6.9365

> <Gold.Chemscore.Metal.Weighted>
-0.0000

> <Gold.Chemscore.Lipo.Weighted>
-12.1961

> <Gold.Chemscore.Internal_Hbond.Weighted>
0.0000

> <Gold.Chemscore.DEClash.Weighted>
0.3664

> <Gold.Chemscore.DEInternal.Weighted>
1.0614

> <Gold.Chemscore.Rot.Weighted>
8.4920

> <Gold.Chemscore.Internal.Correction.Weighted>
   9.000000E+99

> <Gold.Protein.RotatedTorsions>
[ 6907 6896 6895 6894 ] final   23.46 input  -60.11 | X-H torsion
[ 7974 7965 7964 7962 ] final   22.82 input  175.53 | X-H torsion
[ 8008 7997 7996 7995 ] final  -67.67 input   59.86 | X-H torsion
[ 10167 10162 10161 10158 ] final  112.59 input  -65.29 | X-H torsion
[ 10718 10713 10712 10709 ] final   41.35 input   66.30 | X-H torsion
[ 10763 10752 10751 10750 ] final  -76.31 input  -60.55 | X-H torsion
[ 11005 11000 10999 10996 ] final   -8.80 input  -57.11 | X-H torsion

> <Gold.Protein.ActiveResidues>
 VAL166  LYS551  ARG553  GLY616  TRP617  ASP618  TYR619  PRO620  LYS621  CYS622 
 ASP623  PHE694  ASN695  SER759  ASP760  ASP761  ALA762  ILE779  LEU786  VAL792 
 PHE793  MET794  SER795  GLU796  ALA797  LYS798  CYS799  TRP800  GLU811  SER814 

> <Gold.Protein.RotatedAtoms>
  151.9426  135.0206  160.0536 H   0  0  0  0  0  0  0  0  0  0  0  0  # atno 6907 bound_to 6896
  152.2023  133.4845  159.5073 H   0  0  0  0  0  0  0  0  0  0  0  0  # atno 6908 bound_to 6896
  150.6957  134.1492  159.4176 H   0  0  0  0  0  0  0  0  0  0  0  0  # atno 6909 bound_to 6896
  146.2012  139.7832  142.8760 H   0  0  0  0  0  0  0  0  0  0  0  0  # atno 7974 bound_to 7965
  154.4816  140.0888  156.7390 H   0  0  0  0  0  0  0  0  0  0  0  0  # atno 8008 bound_to 7997
  155.4457  140.3455  155.4276 H   0  0  0  0  0  0  0  0  0  0  0  0  # atno 8009 bound_to 7997
  156.1199  140.1471  156.9207 H   0  0  0  0  0  0  0  0  0  0  0  0  # atno 8010 bound_to 7997
  139.6524  144.7128  151.2022 H   0  0  0  0  0  0  0  0  0  0  0  0  # atno 10167 bound_to 10162
  157.3926  130.7815  149.7282 H   0  0  0  0  0  0  0  0  0  0  0  0  # atno 10718 bound_to 10713
  154.4982  135.5802  153.6510 H   0  0  0  0  0  0  0  0  0  0  0  0  # atno 10763 bound_to 10752
  152.9874  135.6129  154.3037 H   0  0  0  0  0  0  0  0  0  0  0  0  # atno 10764 bound_to 10752
  154.2942  135.2848  155.2620 H   0  0  0  0  0  0  0  0  0  0  0  0  # atno 10765 bound_to 10752
  140.7274  133.8778  155.8866 H   0  0  0  0  0  0  0  0  0  0  0  0  # atno 11005 bound_to 11000
  145.3477  141.0301  143.3356 LP  0  0  0  0  0  0  0  0  0  0  0  0  # atno 17320 bound_to 7965
  144.8688  139.5068  143.6777 LP  0  0  0  0  0  0  0  0  0  0  0  0  # atno 17321 bound_to 7965
  140.7544  143.6128  150.8589 LP  0  0  0  0  0  0  0  0  0  0  0  0  # atno 17342 bound_to 10162
  139.9777  143.5986  152.2953 LP  0  0  0  0  0  0  0  0  0  0  0  0  # atno 17343 bound_to 10162
  155.9802  130.4032  150.3542 LP  0  0  0  0  0  0  0  0  0  0  0  0  # atno 17370 bound_to 10713
  157.1660  131.0357  151.2818 LP  0  0  0  0  0  0  0  0  0  0  0  0  # atno 17371 bound_to 10713
  140.9951  134.1226  157.4371 LP  0  0  0  0  0  0  0  0  0  0  0  0  # atno 17394 bound_to 11000
  139.8834  135.0052  156.6298 LP  0  0  0  0  0  0  0  0  0  0  0  0  # atno 17395 bound_to 11000

$$$$
