AV-unprocessed.smi:2536|AV-procd|sdf|9978|dock8
  -GOLD-   2272014 23D 1   1.00000     0.00000
 Structure written by MMmdl.
 32 33  0  0  0  0  0  0  0  0  1 V2000
  152.5219  144.0229  161.8674 C   0  0  0  0  0  0  0  0  0  0  0  0
  152.4363  143.1429  160.6348 C   0  0  0  0  0  0  0  0  0  0  0  0
  153.0702  141.8823  160.6003 C   0  0  0  0  0  0  0  0  0  0  0  0
  153.0058  141.0787  159.5170 N   0  0  0  0  0  0  0  0  0  0  0  0
  152.3114  141.5270  158.4693 C   0  0  0  0  0  0  0  0  0  0  0  0
  152.2638  140.6743  157.3808 N   0  0  0  0  0  0  0  0  0  0  0  0
  151.4052  140.8484  156.2158 C   0  0  2  0  0  0  0  0  0  0  0  0
  149.9324  141.0382  156.6181 C   0  0  0  0  0  0  0  0  0  0  0  0
  149.0580  141.1208  155.3626 C   0  0  0  0  0  0  0  0  0  0  0  0
  149.3113  139.9079  154.4536 C   0  0  0  0  0  0  0  0  0  0  0  0
  150.6946  139.8283  154.1259 O   0  0  0  0  0  0  0  0  0  0  0  0
  151.5294  139.6433  155.2649 C   0  0  0  0  0  0  0  0  0  0  0  0
  151.6751  142.7010  158.3878 N   0  0  0  0  0  0  0  0  0  0  0  0
  151.7311  143.5160  159.4643 C   0  0  0  0  0  0  0  0  0  0  0  0
  150.9885  144.8325  159.3227 C   0  0  0  0  0  0  0  0  0  0  0  0
  153.0956  143.5379  162.6577 H   0  0  0  0  0  0  0  0  0  0  0  0
  151.5249  144.2327  162.2554 H   0  0  0  0  0  0  0  0  0  0  0  0
  153.0103  144.9679  161.6286 H   0  0  0  0  0  0  0  0  0  0  0  0
  153.6312  141.5123  161.4457 H   0  0  0  0  0  0  0  0  0  0  0  0
  152.8097  139.8272  157.4410 H   0  0  0  0  0  0  0  0  0  0  0  0
  151.7393  141.7344  155.6741 H   0  0  0  0  0  0  0  0  0  0  0  0
  149.6040  140.2009  157.2357 H   0  0  0  0  0  0  0  0  0  0  0  0
  149.8049  141.9391  157.2188 H   0  0  0  0  0  0  0  0  0  0  0  0
  148.0047  141.1722  155.6393 H   0  0  0  0  0  0  0  0  0  0  0  0
  149.2846  142.0382  154.8182 H   0  0  0  0  0  0  0  0  0  0  0  0
  148.9874  138.9851  154.9373 H   0  0  0  0  0  0  0  0  0  0  0  0
  148.7360  140.0032  153.5325 H   0  0  0  0  0  0  0  0  0  0  0  0
  152.5597  139.5384  154.9234 H   0  0  0  0  0  0  0  0  0  0  0  0
  151.2660  138.7127  155.7709 H   0  0  0  0  0  0  0  0  0  0  0  0
  151.1253  145.4897  160.1799 H   0  0  0  0  0  0  0  0  0  0  0  0
  149.9203  144.6467  159.2086 H   0  0  0  0  0  0  0  0  0  0  0  0
  151.3364  145.3652  158.4372 H   0  0  0  0  0  0  0  0  0  0  0  0
  1  2  1  0  0  0  0
  1 16  1  0  0  0  0
  1 17  1  0  0  0  0
  1 18  1  0  0  0  0
  2 14  1  0  0  0  0
  2  3  2  0  0  0  0
  3  4  1  0  0  0  0
  3 19  1  0  0  0  0
  4  5  2  0  0  0  0
  5  6  1  0  0  0  0
  5 13  1  0  0  0  0
  6  7  1  0  0  0  0
  6 20  1  0  0  0  0
  7 12  1  0  0  0  0
  7  8  1  0  0  0  0
  7 21  1  0  0  0  0
  8  9  1  0  0  0  0
  8 22  1  0  0  0  0
  8 23  1  0  0  0  0
  9 10  1  0  0  0  0
  9 24  1  0  0  0  0
  9 25  1  0  0  0  0
 10 11  1  0  0  0  0
 10 26  1  0  0  0  0
 10 27  1  0  0  0  0
 11 12  1  0  0  0  0
 12 28  1  0  0  0  0
 12 29  1  0  0  0  0
 13 14  2  0  0  0  0
 14 15  1  0  0  0  0
 15 30  1  0  0  0  0
 15 31  1  0  0  0  0
 15 32  1  0  0  0  0
M  END
> <s_m_source_file>
AV-unprocessed.smi

> <i_m_source_file_index>
2536

> <i_lp_mmshare_version>
43012

> <i_f3d_flags>
0

> <s_epik_input>
W0NIM11jMVtjSF1uYyhuYzFbQ0gzXSlbTkhdW0NAQEhdMltDSDJdW0NIMl1bQ0gyXU9bQ0gyXTI=

> <s_epik_cmdline>
J2VwaWtfcHl0aG9uJywgJy1waCcsICc3LjAnLCAnLXRuJywgJzgnLCAnLW1hJywgJzIwMCcsICctbWV0YWxfYmluZGluZycsICctaW1hZScsICc8aW5maWxlLm1hZT4nLCAnLW9tYWUnLCAnPG91dGZpbGUubWFlPic=

> <r_lp_tautomer_probability>
1

> <r_epik_Ionization_Penalty>
0.00982357

> <r_epik_Ionization_Penalty_Charging>
0

> <r_epik_Ionization_Penalty_Neutral>
0.00982357

> <r_epik_State_Penalty>
0.0064698

> <r_epik_Charging_Adjusted_Penalty>
0.0064698

> <i_epik_Tot_Q>
0

> <i_epik_Tot_abs_Q>
0

> <r_epik_Metal_State_Penalty>
-0

> <b_epik_Metal_Only>
0

> <s_lp_Force_Field>
OPLS_2005

> <r_lp_Energy>
1.83983

> <b_lp_Chiralities_Consistent>
1

> <s_lp_Variant>
AV-unprocessed.smi:2536-1

> <Gold.Version>
5.8.1

> <Gold.Id.Protein>
6NUR|6NUR_protein|mol2

> <Gold.PLP.Fitness>
37.7121

> <Gold.PLP.PLP>
-34.8318

> <Gold.PLP.part.hbond>
-1.0000

> <Gold.PLP.part.metal>
0.0000

> <Gold.PLP.part.buried>
-4.0633

> <Gold.PLP.part.nonpolar>
-29.6228

> <Gold.PLP.part.repulsive>
0.2837

> <Gold.PLP.ligand.clash>
0.0000

> <Gold.PLP.ligand.torsion>
0.0613

> <Gold.PLP.Chemscore.Hbond>
1.0000

> <Gold.PLP.Chemscore.CHOScore>
0.0000

> <Gold.PLP.Chemscore.Metal>
0.0000

> <Gold.Chemscore.Hbonds>
donor molecule, donor type, donor heavy atom, donor atom, acceptor molecule, acceptor atom, score
      P1  H  7989  7998       L1    11  0.69

> <Gold.PLP.Chemscore.Internal.Correction>
0.0031

> <Gold.Rescore>
     Score         DG    S(hbond)    S(metal)    S(lipo)     H(rot)  DE(clash)    DE(int)     intcor
     14.33     -15.41       0.64        0.00      88.39       1.00       0.00       1.08       ----

> <Gold.Chemscore.Fitness>
14.3285

> <Gold.Chemscore.DG>
-15.4074

> <Gold.Chemscore.ZeroCoef>
-5.4800

> <Gold.Chemscore.Hbond>
0.6426

> <Gold.Chemscore.Metal>
0.0000

> <Gold.Chemscore.Lipo>
88.3854

> <Gold.Chemscore.Internal_Hbond>
0.0000

> <Gold.Chemscore.DEClash>
0.0029

> <Gold.Chemscore.DEInternal>
1.0760

> <Gold.Chemscore.Rot>
1.0000

> <Gold.Chemscore.Internal.Correction>
   9.000000E+99

> <Gold.Chemscore.Hbonds>
donor molecule, donor type, donor heavy atom, donor atom, acceptor molecule, acceptor atom, score
      P1  H  7989  7998       L1    11  0.07

> <Gold.Chemscore.Hbond.Weighted>
-2.1463

> <Gold.Chemscore.Metal.Weighted>
-0.0000

> <Gold.Chemscore.Lipo.Weighted>
-10.3411

> <Gold.Chemscore.Internal_Hbond.Weighted>
0.0000

> <Gold.Chemscore.DEClash.Weighted>
0.0029

> <Gold.Chemscore.DEInternal.Weighted>
1.0760

> <Gold.Chemscore.Rot.Weighted>
2.5600

> <Gold.Chemscore.Internal.Correction.Weighted>
   9.000000E+99

> <Gold.Protein.RotatedTorsions>
[ 6907 6896 6895 6894 ] final  143.93 input  -60.11 | X-H torsion
[ 7974 7965 7964 7962 ] final  117.39 input  175.53 | X-H torsion
[ 8008 7997 7996 7995 ] final -160.44 input   59.86 | X-H torsion
[ 10167 10162 10161 10158 ] final   73.95 input  -65.29 | X-H torsion
[ 10718 10713 10712 10709 ] final -127.37 input   66.30 | X-H torsion
[ 10763 10752 10751 10750 ] final  169.59 input  -60.55 | X-H torsion
[ 11005 11000 10999 10996 ] final   61.42 input  -57.11 | X-H torsion

> <Gold.Protein.ActiveResidues>
 VAL166  LYS551  ARG553  GLY616  TRP617  ASP618  TYR619  PRO620  LYS621  CYS622 
 ASP623  PHE694  ASN695  SER759  ASP760  ASP761  ALA762  ILE779  LEU786  VAL792 
 PHE793  MET794  SER795  GLU796  ALA797  LYS798  CYS799  TRP800  GLU811  SER814 

> <Gold.Protein.RotatedAtoms>
  152.2001  133.4835  159.5053 H   0  0  0  0  0  0  0  0  0  0  0  0  # atno 6907 bound_to 6896
  150.6968  134.1602  159.4182 H   0  0  0  0  0  0  0  0  0  0  0  0  # atno 6908 bound_to 6896
  151.9519  135.0165  160.0593 H   0  0  0  0  0  0  0  0  0  0  0  0  # atno 6909 bound_to 6896
  145.1679  139.3118  143.4483 H   0  0  0  0  0  0  0  0  0  0  0  0  # atno 7974 bound_to 7965
  155.7774  140.0860  157.2076 H   0  0  0  0  0  0  0  0  0  0  0  0  # atno 8008 bound_to 7997
  154.3992  140.1514  156.3070 H   0  0  0  0  0  0  0  0  0  0  0  0  # atno 8009 bound_to 7997
  155.8687  140.3426  155.5809 H   0  0  0  0  0  0  0  0  0  0  0  0  # atno 8010 bound_to 7997
  140.0189  144.5556  150.7597 H   0  0  0  0  0  0  0  0  0  0  0  0  # atno 10167 bound_to 10162
  156.1851  130.6758  151.0353 H   0  0  0  0  0  0  0  0  0  0  0  0  # atno 10718 bound_to 10713
  154.3854  135.2753  155.2186 H   0  0  0  0  0  0  0  0  0  0  0  0  # atno 10763 bound_to 10752
  154.4275  135.5985  153.6051 H   0  0  0  0  0  0  0  0  0  0  0  0  # atno 10764 bound_to 10752
  152.9833  135.5987  154.4102 H   0  0  0  0  0  0  0  0  0  0  0  0  # atno 10765 bound_to 10752
  140.0162  134.6221  155.9706 H   0  0  0  0  0  0  0  0  0  0  0  0  # atno 11005 bound_to 11000
  146.3473  140.1814  142.8589 LP  0  0  0  0  0  0  0  0  0  0  0  0  # atno 17320 bound_to 7965
  145.0263  140.8834  143.5136 LP  0  0  0  0  0  0  0  0  0  0  0  0  # atno 17321 bound_to 7965
  140.7350  143.2736  151.3811 LP  0  0  0  0  0  0  0  0  0  0  0  0  # atno 17342 bound_to 10162
  139.6153  144.1015  152.2339 LP  0  0  0  0  0  0  0  0  0  0  0  0  # atno 17343 bound_to 10162
  157.6893  131.0815  150.7153 LP  0  0  0  0  0  0  0  0  0  0  0  0  # atno 17370 bound_to 10713
  156.7210  130.4680  149.5523 LP  0  0  0  0  0  0  0  0  0  0  0  0  # atno 17371 bound_to 10713
  141.1744  133.6539  156.4773 LP  0  0  0  0  0  0  0  0  0  0  0  0  # atno 17394 bound_to 11000
  140.4466  134.6966  157.5019 LP  0  0  0  0  0  0  0  0  0  0  0  0  # atno 17395 bound_to 11000

$$$$
