AV-unprocessed.smi:561|AV-procd|sdf|2937|dock1
  -GOLD-   2262023433D 1   1.00000     0.00000
 Structure written by MMmdl.
 37 38  0  0  0  0  0  0  0  0  2 V2000
  148.8009  138.7658  155.6406 C   0  0  0  0  0  0  0  0  0  0  0  0
  149.9584  139.7352  155.3661 C   0  0  1  0  0  0  0  0  0  0  0  0
  149.5125  140.8928  154.4476 C   0  0  0  0  0  0  0  0  0  0  0  0
  148.0570  141.0706  154.4203 N   0  0  0  0  0  0  0  0  0  0  0  0
  147.2828  141.7138  155.3514 C   0  0  0  0  0  0  0  0  0  0  0  0
  145.9866  141.6178  154.9155 C   0  0  0  0  0  0  0  0  0  0  0  0
  146.0247  140.9254  153.7349 N   0  3  0  0  0  0  0  0  0  0  0  0
  147.2852  140.5974  153.4331 C   0  0  0  0  0  0  0  0  0  0  0  0
  150.4620  140.2409  156.6421 N   0  0  0  0  0  0  0  0  0  0  0  0
  151.7360  140.1747  157.0725 C   0  0  0  0  0  0  0  0  0  0  0  0
  152.6434  139.6724  156.4088 O   0  0  0  0  0  0  0  0  0  0  0  0
  152.0011  140.7650  158.4113 C   0  0  0  0  0  0  0  0  0  0  0  0
  153.0299  140.3773  159.0978 N   0  0  0  0  0  0  0  0  0  0  0  0
  153.3073  140.8842  160.3508 N   0  0  0  0  0  0  0  0  0  0  0  0
  154.3329  140.1554  161.0943 C   0  0  0  0  0  0  0  0  0  0  0  0
  152.7256  141.9882  160.8822 C   0  0  0  0  0  0  0  0  0  0  0  0
  152.9759  142.4187  162.0079 O   0  0  0  0  0  0  0  0  0  0  0  0
  151.7289  142.7316  159.9882 C   0  0  0  0  0  0  0  0  0  0  0  0
  151.0417  141.7941  158.9754 C   0  0  0  0  0  0  0  0  0  0  0  0
  148.4163  138.3411  154.7128 H   0  0  0  0  0  0  0  0  0  0  0  0
  147.9737  139.2660  156.1451 H   0  0  0  0  0  0  0  0  0  0  0  0
  149.1240  137.9366  156.2709 H   0  0  0  0  0  0  0  0  0  0  0  0
  150.7409  139.1653  154.8616 H   0  0  0  0  0  0  0  0  0  0  0  0
  149.9402  141.8349  154.7931 H   0  0  0  0  0  0  0  0  0  0  0  0
  149.8679  140.7415  153.4270 H   0  0  0  0  0  0  0  0  0  0  0  0
  147.7007  142.1734  156.2353 H   0  0  0  0  0  0  0  0  0  0  0  0
  145.0645  141.9801  155.3459 H   0  0  0  0  0  0  0  0  0  0  0  0
  147.6126  140.0484  152.5682 H   0  0  0  0  0  0  0  0  0  0  0  0
  149.7850  140.6698  157.2574 H   0  0  0  0  0  0  0  0  0  0  0  0
  153.9341  139.7895  162.0415 H   0  0  0  0  0  0  0  0  0  0  0  0
  155.1843  140.8028  161.3096 H   0  0  0  0  0  0  0  0  0  0  0  0
  154.7065  139.2929  160.5398 H   0  0  0  0  0  0  0  0  0  0  0  0
  150.9840  143.2418  160.5997 H   0  0  0  0  0  0  0  0  0  0  0  0
  152.2818  143.5059  159.4550 H   0  0  0  0  0  0  0  0  0  0  0  0
  150.6158  142.4023  158.1764 H   0  0  0  0  0  0  0  0  0  0  0  0
  150.2046  141.2821  159.4514 H   0  0  0  0  0  0  0  0  0  0  0  0
  145.2170  140.6925  153.1710 H   0  0  0  0  0  0  0  0  0  0  0  0
  1  2  1  0  0  0  0
  1 20  1  0  0  0  0
  1 21  1  0  0  0  0
  1 22  1  0  0  0  0
  2  3  1  0  0  0  0
  2  9  1  0  0  0  0
  2 23  1  0  0  0  0
  3  4  1  0  0  0  0
  3 24  1  0  0  0  0
  3 25  1  0  0  0  0
  4  8  1  0  0  0  0
  4  5  1  0  0  0  0
  5  6  2  0  0  0  0
  5 26  1  0  0  0  0
  6  7  1  0  0  0  0
  6 27  1  0  0  0  0
  7  8  2  0  0  0  0
  7 37  1  0  0  0  0
  8 28  1  0  0  0  0
  9 10  1  0  0  0  0
  9 29  1  0  0  0  0
 10 11  2  0  0  0  0
 10 12  1  0  0  0  0
 12 19  1  0  0  0  0
 12 13  2  0  0  0  0
 13 14  1  0  0  0  0
 14 15  1  0  0  0  0
 14 16  1  0  0  0  0
 15 30  1  0  0  0  0
 15 31  1  0  0  0  0
 15 32  1  0  0  0  0
 16 17  2  0  0  0  0
 16 18  1  0  0  0  0
 18 19  1  0  0  0  0
 18 33  1  0  0  0  0
 18 34  1  0  0  0  0
 19 35  1  0  0  0  0
 19 36  1  0  0  0  0
M  CHG  1   7   1
M  END
> <s_m_source_file>
AV-unprocessed.smi

> <i_m_source_file_index>
561

> <i_lp_mmshare_version>
43012

> <i_f3d_flags>
0

> <s_epik_input>
W2NIXTFuW2NIXVtjSF1uMVtDSDJdW0NAQEhdKFtDSDNdKVtOSF1DKD1PKUMyPU5OKFtDSDNdKUMoPU8pW0NIMl1bQ0gyXTI=

> <s_epik_cmdline>
J2VwaWtfcHl0aG9uJywgJy1waCcsICc3LjAnLCAnLXRuJywgJzgnLCAnLW1hJywgJzIwMCcsICctbWV0YWxfYmluZGluZycsICctaW1hZScsICc8aW5maWxlLm1hZT4nLCAnLW9tYWUnLCAnPG91dGZpbGUubWFlPic=

> <r_lp_tautomer_probability>
1

> <r_epik_Ionization_Penalty>
0.358595

> <r_epik_Ionization_Penalty_Charging>
0

> <r_epik_Ionization_Penalty_Neutral>
0.358595

> <r_epik_State_Penalty>
0.355181

> <r_epik_Charging_Adjusted_Penalty>
0.355181

> <i_epik_Tot_Q>
1

> <i_epik_Tot_abs_Q>
1

> <r_epik_Metal_State_Penalty>
0.718565

> <b_epik_Metal_Only>
0

> <s_epik_Chemistry_Notes>
This compound has an imine and may undergo hydrolysis.

> <s_lp_Force_Field>
OPLS_2005

> <r_lp_Energy>
19.4288

> <b_lp_Chiralities_Consistent>
1

> <s_lp_Variant>
AV-unprocessed.smi:561-2

> <Gold.Version>
5.8.1

> <Gold.Id.Protein>
6NUR|6NUR_protein|mol2

> <Gold.PLP.Fitness>
47.0343

> <Gold.PLP.PLP>
-34.9166

> <Gold.PLP.part.hbond>
-2.0000

> <Gold.PLP.part.metal>
0.0000

> <Gold.PLP.part.buried>
-0.8829

> <Gold.PLP.part.nonpolar>
-31.9276

> <Gold.PLP.part.repulsive>
0.1352

> <Gold.PLP.ligand.clash>
0.0000

> <Gold.PLP.ligand.torsion>
1.1327

> <Gold.PLP.Chemscore.Hbond>
3.0000

> <Gold.PLP.Chemscore.CHOScore>
1.7856

> <Gold.PLP.Chemscore.Metal>
0.0000

> <Gold.Chemscore.Hbonds>
donor molecule, donor type, donor heavy atom, donor atom, acceptor molecule, acceptor atom, score
      L1  H     7    37       P1 10175  2.00
      P1  H  7997  8008       L1    11  1.00
      L1  C     5    26       P1  8028  0.13
      L1  C     8    28       P1  7957  1.00

> <Gold.PLP.Chemscore.Internal.Correction>
0.0263

> <Gold.Rescore>
     Score         DG    S(hbond)    S(metal)    S(lipo)     H(rot)  DE(clash)    DE(int)     intcor
     13.16     -14.18       1.99        0.00      56.11       1.76       0.05       0.98       ----

> <Gold.Chemscore.Fitness>
13.1587

> <Gold.Chemscore.DG>
-14.1814

> <Gold.Chemscore.ZeroCoef>
-5.4800

> <Gold.Chemscore.Hbond>
1.9880

> <Gold.Chemscore.Metal>
0.0000

> <Gold.Chemscore.Lipo>
56.1053

> <Gold.Chemscore.Internal_Hbond>
0.0000

> <Gold.Chemscore.DEClash>
0.0451

> <Gold.Chemscore.DEInternal>
0.9777

> <Gold.Chemscore.Rot>
1.7589

> <Gold.Chemscore.Internal.Correction>
   9.000000E+99

> <Gold.Chemscore.Hbonds>
donor molecule, donor type, donor heavy atom, donor atom, acceptor molecule, acceptor atom, score
      L1  H     7    37       P1 10175  0.82
      P1  H  7997  8008       L1    11  0.99

> <Gold.Chemscore.Hbond.Weighted>
-6.6399

> <Gold.Chemscore.Metal.Weighted>
-0.0000

> <Gold.Chemscore.Lipo.Weighted>
-6.5643

> <Gold.Chemscore.Internal_Hbond.Weighted>
0.0000

> <Gold.Chemscore.DEClash.Weighted>
0.0451

> <Gold.Chemscore.DEInternal.Weighted>
0.9777

> <Gold.Chemscore.Rot.Weighted>
4.5028

> <Gold.Chemscore.Internal.Correction.Weighted>
   9.000000E+99

> <Gold.Protein.RotatedTorsions>
[ 6907 6896 6895 6894 ] final  -16.01 input  -60.11 | X-H torsion
[ 7974 7965 7964 7962 ] final  162.79 input  175.53 | X-H torsion
[ 8008 7997 7996 7995 ] final  -30.66 input   59.86 | X-H torsion
[ 10167 10162 10161 10158 ] final   55.68 input  -65.29 | X-H torsion
[ 10718 10713 10712 10709 ] final  154.66 input   66.30 | X-H torsion
[ 10763 10752 10751 10750 ] final   45.24 input  -60.55 | X-H torsion
[ 11005 11000 10999 10996 ] final -153.41 input  -57.11 | X-H torsion

> <Gold.Protein.ActiveResidues>
 VAL166  LYS551  ARG553  GLY616  TRP617  ASP618  TYR619  PRO620  LYS621  CYS622 
 ASP623  PHE694  ASN695  SER759  ASP760  ASP761  ALA762  ILE779  LEU786  VAL792 
 PHE793  MET794  SER795  GLU796  ALA797  LYS798  CYS799  TRP800  GLU811  SER814 

> <Gold.Protein.RotatedAtoms>
  151.3151  135.0804  159.9285 H   0  0  0  0  0  0  0  0  0  0  0  0  # atno 6907 bound_to 6896
  152.5269  133.9696  159.7766 H   0  0  0  0  0  0  0  0  0  0  0  0  # atno 6908 bound_to 6896
  151.0007  133.6007  159.2725 H   0  0  0  0  0  0  0  0  0  0  0  0  # atno 6909 bound_to 6896
  144.7620  139.8091  143.6329 H   0  0  0  0  0  0  0  0  0  0  0  0  # atno 7974 bound_to 7965
  154.4242  140.1785  156.1442 H   0  0  0  0  0  0  0  0  0  0  0  0  # atno 8008 bound_to 7997
  155.9967  140.3364  155.6781 H   0  0  0  0  0  0  0  0  0  0  0  0  # atno 8009 bound_to 7997
  155.6299  140.0668  157.2643 H   0  0  0  0  0  0  0  0  0  0  0  0  # atno 8010 bound_to 7997
  140.2168  144.3831  150.6466 H   0  0  0  0  0  0  0  0  0  0  0  0  # atno 10167 bound_to 10162
  157.2286  131.0734  151.1867 H   0  0  0  0  0  0  0  0  0  0  0  0  # atno 10718 bound_to 10713
  152.9828  135.6046  154.3404 H   0  0  0  0  0  0  0  0  0  0  0  0  # atno 10763 bound_to 10752
  154.3101  135.2771  155.2572 H   0  0  0  0  0  0  0  0  0  0  0  0  # atno 10764 bound_to 10752
  154.4785  135.5923  153.6428 H   0  0  0  0  0  0  0  0  0  0  0  0  # atno 10765 bound_to 10752
  140.7085  134.3859  157.5201 H   0  0  0  0  0  0  0  0  0  0  0  0  # atno 11005 bound_to 11000
  146.1691  139.4835  142.9939 LP  0  0  0  0  0  0  0  0  0  0  0  0  # atno 17320 bound_to 7965
  145.6590  141.0245  143.1719 LP  0  0  0  0  0  0  0  0  0  0  0  0  # atno 17321 bound_to 7965
  140.6284  143.2184  151.6548 LP  0  0  0  0  0  0  0  0  0  0  0  0  # atno 17342 bound_to 10162
  139.5159  144.3364  152.0780 LP  0  0  0  0  0  0  0  0  0  0  0  0  # atno 17343 bound_to 10162
  157.3501  130.7078  149.6435 LP  0  0  0  0  0  0  0  0  0  0  0  0  # atno 17370 bound_to 10713
  155.9677  130.4255  150.4656 LP  0  0  0  0  0  0  0  0  0  0  0  0  # atno 17371 bound_to 10713
  139.8878  134.8873  156.2509 LP  0  0  0  0  0  0  0  0  0  0  0  0  # atno 17394 bound_to 11000
  141.0105  133.7098  156.1103 LP  0  0  0  0  0  0  0  0  0  0  0  0  # atno 17395 bound_to 11000

$$$$
