AV-unprocessed.smi:281|AV-procd|sdf|2102|dock5
  -GOLD-   2262021393D 1   1.00000     0.00000
 Structure written by MMmdl.
 55 59  0  0  0  0  0  0  0  0  1 V2000
  147.1235  142.1530  153.9553 C   0  0  0  0  0  0  0  0  0  0  0  0
  147.6825  140.8964  154.6291 C   0  0  1  0  0  0  0  0  0  0  0  0
  146.9051  139.6328  154.2325 C   0  0  0  0  0  0  0  0  0  0  0  0
  147.5304  138.4722  154.8470 N   0  0  0  0  0  0  0  0  0  0  0  0
  146.8295  137.3247  154.7399 C   0  0  0  0  0  0  0  0  0  0  0  0
  146.8933  136.4662  155.7864 N   0  0  0  0  0  0  0  0  0  0  0  0
  146.2218  135.3114  155.7443 C   0  0  0  0  0  0  0  0  0  0  0  0
  145.4461  134.8312  154.7697 N   0  0  0  0  0  0  0  0  0  0  0  0
  145.3900  135.6896  153.7108 C   0  0  0  0  0  0  0  0  0  0  0  0
  146.0469  136.9483  153.6119 C   0  0  0  0  0  0  0  0  0  0  0  0
  145.7611  137.5370  152.3858 N   0  0  0  0  0  0  0  0  0  0  0  0
  144.9736  136.6787  151.7972 C   0  0  0  0  0  0  0  0  0  0  0  0
  144.7017  135.5386  152.5196 N   0  0  0  0  0  0  0  0  0  0  0  0
  143.8596  134.4266  152.1060 C   0  0  0  0  0  0  0  0  0  0  0  0
  144.2682  133.8197  150.7439 C   0  0  1  0  0  0  0  0  0  0  0  0
  143.9713  134.7513  149.7177 O   0  0  0  0  0  0  0  0  0  0  0  0
  145.7431  133.4421  150.6450 C   0  0  0  0  0  0  0  0  0  0  0  0
  145.7242  132.2529  149.6951 C   0  0  0  0  0  0  0  0  0  0  0  0
  144.5624  131.5501  150.1017 O   0  0  0  0  0  0  0  0  0  0  0  0
  143.5467  132.4958  150.4226 C   0  0  0  0  0  0  0  0  0  0  0  0
  148.9308  138.3320  154.4774 C   0  0  0  0  0  0  0  0  0  0  0  0
  149.7226  139.6238  154.8041 C   0  0  2  0  0  0  0  0  0  0  0  0
  151.1216  139.5528  154.2138 C   0  0  0  0  0  0  0  0  0  0  0  0
  151.8910  138.7539  155.2600 C   0  0  0  0  0  0  0  0  0  0  0  0
  151.2607  139.0380  156.5049 O   0  0  0  0  0  0  0  0  0  0  0  0
  150.0514  139.7694  156.3080 C   0  0  1  0  0  0  0  0  0  0  0  0
  150.3475  141.2078  156.7745 C   0  0  0  0  0  0  0  0  0  0  0  0
  149.0502  140.7549  154.2389 O   0  0  0  0  0  0  0  0  0  0  0  0
  146.0797  142.3129  154.2264 H   0  0  0  0  0  0  0  0  0  0  0  0
  147.1803  142.0760  152.8691 H   0  0  0  0  0  0  0  0  0  0  0  0
  147.6847  143.0376  154.2567 H   0  0  0  0  0  0  0  0  0  0  0  0
  147.6159  141.0258  155.7095 H   0  0  0  0  0  0  0  0  0  0  0  0
  145.8667  139.7106  154.5578 H   0  0  0  0  0  0  0  0  0  0  0  0
  146.9000  139.5279  153.1473 H   0  0  0  0  0  0  0  0  0  0  0  0
  146.3201  134.6820  156.6165 H   0  0  0  0  0  0  0  0  0  0  0  0
  144.5696  136.8521  150.8103 H   0  0  0  0  0  0  0  0  0  0  0  0
  143.8990  133.6622  152.8830 H   0  0  0  0  0  0  0  0  0  0  0  0
  142.8256  134.7726  152.0723 H   0  0  0  0  0  0  0  0  0  0  0  0
  144.5090  134.5497  148.9669 H   0  0  0  0  0  0  0  0  0  0  0  0
  146.3865  134.2559  150.3080 H   0  0  0  0  0  0  0  0  0  0  0  0
  146.1122  133.1066  151.6147 H   0  0  0  0  0  0  0  0  0  0  0  0
  145.6167  132.5778  148.6591 H   0  0  0  0  0  0  0  0  0  0  0  0
  146.6182  131.6342  149.7741 H   0  0  0  0  0  0  0  0  0  0  0  0
  142.9724  132.1213  151.2705 H   0  0  0  0  0  0  0  0  0  0  0  0
  142.8574  132.5949  149.5824 H   0  0  0  0  0  0  0  0  0  0  0  0
  149.3651  137.4738  154.9924 H   0  0  0  0  0  0  0  0  0  0  0  0
  148.9898  138.1230  153.4082 H   0  0  0  0  0  0  0  0  0  0  0  0
  151.1563  139.1013  153.2219 H   0  0  0  0  0  0  0  0  0  0  0  0
  151.5477  140.5535  154.1323 H   0  0  0  0  0  0  0  0  0  0  0  0
  151.8099  137.6844  155.0636 H   0  0  0  0  0  0  0  0  0  0  0  0
  152.9496  139.0131  155.2825 H   0  0  0  0  0  0  0  0  0  0  0  0
  149.2596  139.3509  156.9303 H   0  0  0  0  0  0  0  0  0  0  0  0
  149.4781  141.8567  156.6820 H   0  0  0  0  0  0  0  0  0  0  0  0
  151.1581  141.6600  156.2035 H   0  0  0  0  0  0  0  0  0  0  0  0
  150.6437  141.2159  157.8236 H   0  0  0  0  0  0  0  0  0  0  0  0
  1  2  1  0  0  0  0
  1 29  1  0  0  0  0
  1 30  1  0  0  0  0
  1 31  1  0  0  0  0
  2 28  1  0  0  0  0
  2  3  1  0  0  0  0
  2 32  1  0  0  0  0
  3  4  1  0  0  0  0
  3 33  1  0  0  0  0
  3 34  1  0  0  0  0
  4  5  1  0  0  0  0
  4 21  1  0  0  0  0
  5 10  1  0  0  0  0
  5  6  2  0  0  0  0
  6  7  1  0  0  0  0
  7  8  2  0  0  0  0
  7 35  1  0  0  0  0
  8  9  1  0  0  0  0
  9 13  1  0  0  0  0
  9 10  2  0  0  0  0
 10 11  1  0  0  0  0
 11 12  2  0  0  0  0
 12 13  1  0  0  0  0
 12 36  1  0  0  0  0
 13 14  1  0  0  0  0
 14 15  1  0  0  0  0
 14 37  1  0  0  0  0
 14 38  1  0  0  0  0
 15 20  1  0  0  0  0
 15 16  1  0  0  0  0
 15 17  1  0  0  0  0
 16 39  1  0  0  0  0
 17 18  1  0  0  0  0
 17 40  1  0  0  0  0
 17 41  1  0  0  0  0
 18 19  1  0  0  0  0
 18 42  1  0  0  0  0
 18 43  1  0  0  0  0
 19 20  1  0  0  0  0
 20 44  1  0  0  0  0
 20 45  1  0  0  0  0
 21 22  1  0  0  0  0
 21 46  1  0  0  0  0
 21 47  1  0  0  0  0
 22 26  1  0  0  0  0
 22 23  1  0  0  0  0
 22 28  1  0  0  0  0
 23 24  1  0  0  0  0
 23 48  1  0  0  0  0
 23 49  1  0  0  0  0
 24 25  1  0  0  0  0
 24 50  1  0  0  0  0
 24 51  1  0  0  0  0
 25 26  1  0  0  0  0
 26 27  1  0  0  0  0
 26 52  1  0  0  0  0
 27 53  1  0  0  0  0
 27 54  1  0  0  0  0
 27 55  1  0  0  0  0
M  END
> <s_m_source_file>
AV-unprocessed.smi

> <i_m_source_file_index>
281

> <i_lp_mmshare_version>
43012

> <i_f3d_flags>
0

> <s_epik_input>
W0NIM11bQ0BASF0xT1tDSDJdW0NIMl1bQ0BAXTEyW0NIMl1OKFtDSDJdW0NASF0oTzIpW0NIM10pYyhuW2NIXW4zKWMoYzM0KW5bY0hdbjRbQ0gyXVtDQEBdNShbT0hdKVtDSDJdW0NIMl1PW0NIMl01

> <s_epik_cmdline>
J2VwaWtfcHl0aG9uJywgJy1waCcsICc3LjAnLCAnLXRuJywgJzgnLCAnLW1hJywgJzIwMCcsICctbWV0YWxfYmluZGluZycsICctaW1hZScsICc8aW5maWxlLm1hZT4nLCAnLW9tYWUnLCAnPG91dGZpbGUubWFlPic=

> <r_lp_tautomer_probability>
1

> <r_epik_Ionization_Penalty>
0.00571331

> <r_epik_Ionization_Penalty_Charging>
0

> <r_epik_Ionization_Penalty_Neutral>
0.00571331

> <r_epik_State_Penalty>
0.00399586

> <r_epik_Charging_Adjusted_Penalty>
0.00399586

> <i_epik_Tot_Q>
0

> <i_epik_Tot_abs_Q>
0

> <r_epik_Metal_State_Penalty>
-0

> <b_epik_Metal_Only>
0

> <s_lp_Force_Field>
OPLS_2005

> <r_lp_Energy>
56.2514

> <b_lp_Chiralities_Consistent>
1

> <s_lp_Variant>
AV-unprocessed.smi:281-2

> <Gold.Version>
5.8.1

> <Gold.Id.Protein>
6NUR|6NUR_protein|mol2

> <Gold.PLP.Fitness>
39.3365

> <Gold.PLP.PLP>
-34.7367

> <Gold.PLP.part.hbond>
-2.5997

> <Gold.PLP.part.metal>
0.0000

> <Gold.PLP.part.buried>
-4.0224

> <Gold.PLP.part.nonpolar>
-29.0294

> <Gold.PLP.part.repulsive>
0.6601

> <Gold.PLP.ligand.clash>
0.0000

> <Gold.PLP.ligand.torsion>
0.7833

> <Gold.PLP.Chemscore.Hbond>
1.0164

> <Gold.PLP.Chemscore.CHOScore>
0.9929

> <Gold.PLP.Chemscore.Metal>
0.0000

> <Gold.Chemscore.Hbonds>
donor molecule, donor type, donor heavy atom, donor atom, acceptor molecule, acceptor atom, score
      L1  H    16    39       P1  7921  0.80
      P1  H 10785 10796       L1    19  0.06
      L1  C    12    36       P1 10171  1.00

> <Gold.PLP.Chemscore.Internal.Correction>
0.1387

> <Gold.Rescore>
     Score         DG    S(hbond)    S(metal)    S(lipo)     H(rot)  DE(clash)    DE(int)     intcor
      9.18     -14.76       1.02        0.00      96.12       2.09       3.02       2.56       ----

> <Gold.Chemscore.Fitness>
9.1802

> <Gold.Chemscore.DG>
-14.7598

> <Gold.Chemscore.ZeroCoef>
-5.4800

> <Gold.Chemscore.Hbond>
1.0151

> <Gold.Chemscore.Metal>
0.0000

> <Gold.Chemscore.Lipo>
96.1246

> <Gold.Chemscore.Internal_Hbond>
0.0000

> <Gold.Chemscore.DEClash>
3.0165

> <Gold.Chemscore.DEInternal>
2.5631

> <Gold.Chemscore.Rot>
2.0927

> <Gold.Chemscore.Internal.Correction>
   9.000000E+99

> <Gold.Chemscore.Hbonds>
donor molecule, donor type, donor heavy atom, donor atom, acceptor molecule, acceptor atom, score
      L1  H    16    39       P1  7921  0.77
      P1  H 10785 10796       L1    19  0.01

> <Gold.Chemscore.Hbond.Weighted>
-3.3906

> <Gold.Chemscore.Metal.Weighted>
-0.0000

> <Gold.Chemscore.Lipo.Weighted>
-11.2466

> <Gold.Chemscore.Internal_Hbond.Weighted>
0.0000

> <Gold.Chemscore.DEClash.Weighted>
3.0165

> <Gold.Chemscore.DEInternal.Weighted>
2.5631

> <Gold.Chemscore.Rot.Weighted>
5.3573

> <Gold.Chemscore.Internal.Correction.Weighted>
   9.000000E+99

> <Gold.Protein.RotatedTorsions>
[ 6907 6896 6895 6894 ] final   -0.23 input  -60.11 | X-H torsion
[ 7974 7965 7964 7962 ] final   28.69 input  175.53 | X-H torsion
[ 8008 7997 7996 7995 ] final  -31.91 input   59.86 | X-H torsion
[ 10167 10162 10161 10158 ] final  -45.36 input  -65.29 | X-H torsion
[ 10718 10713 10712 10709 ] final  -83.47 input   66.30 | X-H torsion
[ 10763 10752 10751 10750 ] final -120.77 input  -60.55 | X-H torsion
[ 11005 11000 10999 10996 ] final   76.46 input  -57.11 | X-H torsion

> <Gold.Protein.ActiveResidues>
 VAL166  LYS551  ARG553  GLY616  TRP617  ASP618  TYR619  PRO620  LYS621  CYS622 
 ASP623  PHE694  ASN695  SER759  ASP760  ASP761  ALA762  ILE779  LEU786  VAL792 
 PHE793  MET794  SER795  GLU796  ALA797  LYS798  CYS799  TRP800  GLU811  SER814 

> <Gold.Protein.RotatedAtoms>
  151.5657  135.1064  159.9982 H   0  0  0  0  0  0  0  0  0  0  0  0  # atno 6907 bound_to 6896
  152.4425  133.7471  159.6684 H   0  0  0  0  0  0  0  0  0  0  0  0  # atno 6908 bound_to 6896
  150.8334  133.7985  159.3113 H   0  0  0  0  0  0  0  0  0  0  0  0  # atno 6909 bound_to 6896
  146.1715  139.7022  142.8964 H   0  0  0  0  0  0  0  0  0  0  0  0  # atno 7974 bound_to 7965
  154.4197  140.1752  156.1642 H   0  0  0  0  0  0  0  0  0  0  0  0  # atno 8008 bound_to 7997
  155.9813  140.3377  155.6641 H   0  0  0  0  0  0  0  0  0  0  0  0  # atno 8009 bound_to 7997
  155.6496  140.0689  157.2582 H   0  0  0  0  0  0  0  0  0  0  0  0  # atno 8010 bound_to 7997
  140.6861  143.2883  151.3627 H   0  0  0  0  0  0  0  0  0  0  0  0  # atno 10167 bound_to 10162
  156.0018  130.4667  150.4262 H   0  0  0  0  0  0  0  0  0  0  0  0  # atno 10718 bound_to 10713
  154.8652  135.4191  154.2512 H   0  0  0  0  0  0  0  0  0  0  0  0  # atno 10763 bound_to 10752
  153.3458  135.6996  153.6835 H   0  0  0  0  0  0  0  0  0  0  0  0  # atno 10764 bound_to 10752
  153.5794  135.3576  155.2842 H   0  0  0  0  0  0  0  0  0  0  0  0  # atno 10765 bound_to 10752
  139.9297  134.7603  156.1399 H   0  0  0  0  0  0  0  0  0  0  0  0  # atno 11005 bound_to 11000
  145.4328  141.0416  143.2901 LP  0  0  0  0  0  0  0  0  0  0  0  0  # atno 17320 bound_to 7965
  144.8170  139.5859  143.7004 LP  0  0  0  0  0  0  0  0  0  0  0  0  # atno 17321 bound_to 7965
  139.6221  144.0886  152.2401 LP  0  0  0  0  0  0  0  0  0  0  0  0  # atno 17342 bound_to 10162
  140.0334  144.6063  150.7469 LP  0  0  0  0  0  0  0  0  0  0  0  0  # atno 17343 bound_to 10162
  157.2315  131.0505  151.2489 LP  0  0  0  0  0  0  0  0  0  0  0  0  # atno 17370 bound_to 10713
  157.3707  130.7179  149.6563 LP  0  0  0  0  0  0  0  0  0  0  0  0  # atno 17371 bound_to 10713
  141.0878  133.6727  156.2474 LP  0  0  0  0  0  0  0  0  0  0  0  0  # atno 17394 bound_to 11000
  140.6236  134.5336  157.5551 LP  0  0  0  0  0  0  0  0  0  0  0  0  # atno 17395 bound_to 11000

$$$$
