AV-unprocessed.smi:3046|AV-procd|sdf|11620|dock4
  -GOLD-   2272017 03D 1   1.00000     0.00000
 Structure written by MMmdl.
 37 37  0  0  0  0  0  0  0  0  1 V2000
  144.7952  135.3579  150.5418 C   0  0  0  0  0  0  0  0  0  0  0  0
  145.4704  135.0634  151.6628 C   0  0  0  0  0  0  0  0  0  0  0  0
  145.3540  135.8364  152.9616 C   0  0  0  0  0  0  0  0  0  0  0  0
  146.6650  136.1241  153.5288 N   0  0  0  0  0  0  0  0  0  0  0  0
  146.9536  136.1426  154.8404 C   0  0  0  0  0  0  0  0  0  0  0  0
  146.1118  135.9278  155.7137 O   0  0  0  0  0  0  0  0  0  0  0  0
  148.4147  136.4504  155.2044 C   0  0  1  0  0  0  0  0  0  0  0  0
  149.3452  135.2531  154.9223 C   0  0  0  0  0  0  0  0  0  0  0  0
  148.8724  137.6425  154.4711 N   0  0  0  0  0  0  0  0  0  0  0  0
  150.0065  138.3496  155.0627 C   0  0  1  0  0  0  0  0  0  0  0  0
  151.3140  137.5461  154.9215 C   0  0  0  0  0  0  0  0  0  0  0  0
  150.0925  139.7572  154.4281 C   0  0  0  0  0  0  0  0  0  0  0  0
  148.8029  140.4053  154.2440 N   0  0  0  0  0  0  0  0  0  0  0  0
  148.4119  141.6651  154.6484 C   0  0  0  0  0  0  0  0  0  0  0  0
  147.1150  141.8347  154.2567 C   0  0  0  0  0  0  0  0  0  0  0  0
  146.7925  140.6060  153.6157 C   0  0  0  0  0  0  0  0  0  0  0  0
  147.8032  139.7521  153.6122 N   0  0  0  0  0  0  0  0  0  0  0  0
  144.1057  136.1886  150.5040 H   0  0  0  0  0  0  0  0  0  0  0  0
  144.9236  134.7686  149.6458 H   0  0  0  0  0  0  0  0  0  0  0  0
  146.1523  134.2254  151.6624 H   0  0  0  0  0  0  0  0  0  0  0  0
  144.8518  136.7823  152.7591 H   0  0  0  0  0  0  0  0  0  0  0  0
  144.7345  135.2954  153.6791 H   0  0  0  0  0  0  0  0  0  0  0  0
  147.4156  136.3053  152.8784 H   0  0  0  0  0  0  0  0  0  0  0  0
  148.4231  136.6477  156.2777 H   0  0  0  0  0  0  0  0  0  0  0  0
  149.0145  134.3609  155.4552 H   0  0  0  0  0  0  0  0  0  0  0  0
  150.3677  135.4526  155.2401 H   0  0  0  0  0  0  0  0  0  0  0  0
  149.3772  135.0129  153.8586 H   0  0  0  0  0  0  0  0  0  0  0  0
  149.0286  137.4571  153.4901 H   0  0  0  0  0  0  0  0  0  0  0  0
  149.7954  138.4913  156.1238 H   0  0  0  0  0  0  0  0  0  0  0  0
  152.1667  138.1337  155.2625 H   0  0  0  0  0  0  0  0  0  0  0  0
  151.5031  137.2568  153.8871 H   0  0  0  0  0  0  0  0  0  0  0  0
  151.2941  136.6383  155.5241 H   0  0  0  0  0  0  0  0  0  0  0  0
  150.7360  140.4107  155.0197 H   0  0  0  0  0  0  0  0  0  0  0  0
  150.5647  139.6799  153.4480 H   0  0  0  0  0  0  0  0  0  0  0  0
  149.0833  142.3295  155.1724 H   0  0  0  0  0  0  0  0  0  0  0  0
  146.4915  142.7036  154.4058 H   0  0  0  0  0  0  0  0  0  0  0  0
  145.8606  140.3105  153.1568 H   0  0  0  0  0  0  0  0  0  0  0  0
  1  2  2  0  0  0  0
  1 18  1  0  0  0  0
  1 19  1  0  0  0  0
  2  3  1  0  0  0  0
  2 20  1  0  0  0  0
  3  4  1  0  0  0  0
  3 21  1  0  0  0  0
  3 22  1  0  0  0  0
  4  5  1  0  0  0  0
  4 23  1  0  0  0  0
  5  6  2  0  0  0  0
  5  7  1  0  0  0  0
  7  8  1  0  0  0  0
  7  9  1  0  0  0  0
  7 24  1  0  0  0  0
  8 25  1  0  0  0  0
  8 26  1  0  0  0  0
  8 27  1  0  0  0  0
  9 10  1  0  0  0  0
  9 28  1  0  0  0  0
 10 11  1  0  0  0  0
 10 12  1  0  0  0  0
 10 29  1  0  0  0  0
 11 30  1  0  0  0  0
 11 31  1  0  0  0  0
 11 32  1  0  0  0  0
 12 13  1  0  0  0  0
 12 33  1  0  0  0  0
 12 34  1  0  0  0  0
 13 17  1  0  0  0  0
 13 14  1  0  0  0  0
 14 15  2  0  0  0  0
 14 35  1  0  0  0  0
 15 16  1  0  0  0  0
 15 36  1  0  0  0  0
 16 17  2  0  0  0  0
 16 37  1  0  0  0  0
M  END
> <s_m_source_file>
AV-unprocessed.smi

> <i_m_source_file_index>
3046

> <i_lp_mmshare_version>
43012

> <i_f3d_flags>
0

> <s_epik_input>
W0NIMl09W0NIXVtDSDJdW05IXUMoPU8pW0NASF0oW0NIM10pW05IXVtDQEhdKFtDSDNdKVtDSDJdbjFbY0hdW2NIXVtjSF1uMQ==

> <s_epik_cmdline>
J2VwaWtfcHl0aG9uJywgJy1waCcsICc3LjAnLCAnLXRuJywgJzgnLCAnLW1hJywgJzIwMCcsICctbWV0YWxfYmluZGluZycsICctaW1hZScsICc8aW5maWxlLm1hZT4nLCAnLW9tYWUnLCAnPG91dGZpbGUubWFlPic=

> <r_lp_tautomer_probability>
1

> <r_epik_Ionization_Penalty>
0.950627

> <r_epik_Ionization_Penalty_Charging>
0

> <r_epik_Ionization_Penalty_Neutral>
0.950627

> <r_epik_State_Penalty>
0.994814

> <r_epik_Charging_Adjusted_Penalty>
0.994814

> <i_epik_Tot_Q>
0

> <i_epik_Tot_abs_Q>
0

> <r_epik_Metal_State_Penalty>
0.994788

> <b_epik_Metal_Only>
0

> <s_lp_Force_Field>
OPLS_2005

> <r_lp_Energy>
8.07161

> <b_lp_Chiralities_Consistent>
1

> <s_lp_Variant>
AV-unprocessed.smi:3046-8

> <Gold.Version>
5.8.1

> <Gold.Id.Protein>
6NUR|6NUR_protein|mol2

> <Gold.PLP.Fitness>
36.7602

> <Gold.PLP.PLP>
-26.6644

> <Gold.PLP.part.hbond>
-2.0000

> <Gold.PLP.part.metal>
0.0000

> <Gold.PLP.part.buried>
-0.5077

> <Gold.PLP.part.nonpolar>
-25.1360

> <Gold.PLP.part.repulsive>
1.3281

> <Gold.PLP.ligand.clash>
0.0000

> <Gold.PLP.ligand.torsion>
1.0325

> <Gold.PLP.Chemscore.Hbond>
2.0000

> <Gold.PLP.Chemscore.CHOScore>
1.9741

> <Gold.PLP.Chemscore.Metal>
0.0000

> <Gold.Chemscore.Hbonds>
donor molecule, donor type, donor heavy atom, donor atom, acceptor molecule, acceptor atom, score
      L1  H     4    23       P1  7948  1.00
      L1  H     9    28       P1  7948  1.00
      L1  C    14    35       P1  8028  0.99
      L1  C    16    37       P1 10175  1.00

> <Gold.PLP.Chemscore.Internal.Correction>
0.2385

> <Gold.Rescore>
     Score         DG    S(hbond)    S(metal)    S(lipo)     H(rot)  DE(clash)    DE(int)     intcor
     10.70     -13.64       1.99        0.00      60.55       2.17       0.24       2.69       ----

> <Gold.Chemscore.Fitness>
10.7020

> <Gold.Chemscore.DG>
-13.6360

> <Gold.Chemscore.ZeroCoef>
-5.4800

> <Gold.Chemscore.Hbond>
1.9870

> <Gold.Chemscore.Metal>
0.0000

> <Gold.Chemscore.Lipo>
60.5526

> <Gold.Chemscore.Internal_Hbond>
0.0000

> <Gold.Chemscore.DEClash>
0.2442

> <Gold.Chemscore.DEInternal>
2.6898

> <Gold.Chemscore.Rot>
2.1739

> <Gold.Chemscore.Internal.Correction>
   9.000000E+99

> <Gold.Chemscore.Hbonds>
donor molecule, donor type, donor heavy atom, donor atom, acceptor molecule, acceptor atom, score
      L1  H     4    23       P1  7948  1.00
      L1  H     9    28       P1  7948  0.92

> <Gold.Chemscore.Hbond.Weighted>
-6.6365

> <Gold.Chemscore.Metal.Weighted>
-0.0000

> <Gold.Chemscore.Lipo.Weighted>
-7.0847

> <Gold.Chemscore.Internal_Hbond.Weighted>
0.0000

> <Gold.Chemscore.DEClash.Weighted>
0.2442

> <Gold.Chemscore.DEInternal.Weighted>
2.6898

> <Gold.Chemscore.Rot.Weighted>
5.5652

> <Gold.Chemscore.Internal.Correction.Weighted>
   9.000000E+99

> <Gold.Protein.RotatedTorsions>
[ 6907 6896 6895 6894 ] final  128.42 input  -60.11 | X-H torsion
[ 7974 7965 7964 7962 ] final  130.50 input  175.53 | X-H torsion
[ 8008 7997 7996 7995 ] final  -74.09 input   59.86 | X-H torsion
[ 10167 10162 10161 10158 ] final  -33.17 input  -65.29 | X-H torsion
[ 10718 10713 10712 10709 ] final   41.55 input   66.30 | X-H torsion
[ 10763 10752 10751 10750 ] final  110.34 input  -60.55 | X-H torsion
[ 11005 11000 10999 10996 ] final   27.12 input  -57.11 | X-H torsion

> <Gold.Protein.ActiveResidues>
 VAL166  LYS551  ARG553  GLY616  TRP617  ASP618  TYR619  PRO620  LYS621  CYS622 
 ASP623  PHE694  ASN695  SER759  ASP760  ASP761  ALA762  ILE779  LEU786  VAL792 
 PHE793  MET794  SER795  GLU796  ALA797  LYS798  CYS799  TRP800  GLU811  SER814 

> <Gold.Protein.RotatedAtoms>
  152.3721  133.6432  159.6094 H   0  0  0  0  0  0  0  0  0  0  0  0  # atno 6907 bound_to 6896
  150.7676  133.9253  159.3419 H   0  0  0  0  0  0  0  0  0  0  0  0  # atno 6908 bound_to 6896
  151.7074  135.0920  160.0313 H   0  0  0  0  0  0  0  0  0  0  0  0  # atno 6909 bound_to 6896
  145.0173  139.4164  143.5215 H   0  0  0  0  0  0  0  0  0  0  0  0  # atno 7974 bound_to 7965
  154.5301  140.0767  156.8330 H   0  0  0  0  0  0  0  0  0  0  0  0  # atno 8008 bound_to 7997
  155.3392  140.3406  155.4221 H   0  0  0  0  0  0  0  0  0  0  0  0  # atno 8009 bound_to 7997
  156.1772  140.1640  156.8327 H   0  0  0  0  0  0  0  0  0  0  0  0  # atno 8010 bound_to 7997
  140.7209  143.3640  151.1907 H   0  0  0  0  0  0  0  0  0  0  0  0  # atno 10167 bound_to 10162
  157.3948  130.7826  149.7299 H   0  0  0  0  0  0  0  0  0  0  0  0  # atno 10718 bound_to 10713
  153.4476  135.3751  155.2265 H   0  0  0  0  0  0  0  0  0  0  0  0  # atno 10763 bound_to 10752
  154.8755  135.3878  154.4077 H   0  0  0  0  0  0  0  0  0  0  0  0  # atno 10764 bound_to 10752
  153.4632  135.7087  153.6101 H   0  0  0  0  0  0  0  0  0  0  0  0  # atno 10765 bound_to 10752
  140.3297  134.2451  155.7704 H   0  0  0  0  0  0  0  0  0  0  0  0  # atno 11005 bound_to 11000
  146.3480  139.9651  142.8713 LP  0  0  0  0  0  0  0  0  0  0  0  0  # atno 17320 bound_to 7965
  145.1943  140.9826  143.4193 LP  0  0  0  0  0  0  0  0  0  0  0  0  # atno 17321 bound_to 7965
  139.7198  143.9242  152.2981 LP  0  0  0  0  0  0  0  0  0  0  0  0  # atno 17342 bound_to 10162
  139.8995  144.6920  150.8681 LP  0  0  0  0  0  0  0  0  0  0  0  0  # atno 17343 bound_to 10162
  155.9807  130.4026  150.3511 LP  0  0  0  0  0  0  0  0  0  0  0  0  # atno 17370 bound_to 10713
  157.1631  131.0350  151.2831 LP  0  0  0  0  0  0  0  0  0  0  0  0  # atno 17371 bound_to 10713
  141.2066  133.7828  157.0166 LP  0  0  0  0  0  0  0  0  0  0  0  0  # atno 17394 bound_to 11000
  140.0871  134.9614  157.1717 LP  0  0  0  0  0  0  0  0  0  0  0  0  # atno 17395 bound_to 11000

$$$$
