AV-unprocessed.smi:1401|AV-procd|sdf|5695|dock2
  -GOLD-   22720 5323D 1   1.00000     0.00000
 Structure written by MMmdl.
 48 50  0  0  0  0  0  0  0  0  1 V2000
  147.6847  138.0884  153.7359 C   0  0  0  0  0  0  0  0  0  0  0  0
  148.7695  137.2072  154.2938 C   0  0  0  0  0  0  0  0  0  0  0  0
  149.7728  137.8034  154.8493 N   0  0  0  0  0  0  0  0  0  0  0  0
  150.8275  137.0891  155.3839 N   0  0  0  0  0  0  0  0  0  0  0  0
  151.9030  137.9251  155.9366 C   0  0  0  0  0  0  0  0  0  0  0  0
  151.7042  139.4117  155.6139 C   0  0  0  0  0  0  0  0  0  0  0  0
  151.7893  139.8098  154.4517 O   0  0  0  0  0  0  0  0  0  0  0  0
  151.4418  140.2144  156.6571 N   0  0  0  0  0  0  0  0  0  0  0  0
  151.2998  141.6686  156.6097 C   0  0  1  0  0  0  0  0  0  0  0  0
  150.3062  142.0308  155.4955 C   0  0  0  0  0  0  0  0  0  0  0  0
  150.8492  142.1911  157.9971 C   0  0  1  0  0  0  0  0  0  0  0  0
  151.6911  141.6942  159.1966 C   0  0  0  0  0  0  0  0  0  0  0  0
  151.9934  142.9902  159.9705 C   0  0  1  0  0  0  0  0  0  0  0  0
  153.0563  143.7952  159.2012 C   0  0  0  0  0  0  0  0  0  0  0  0
  152.2657  144.3273  157.9922 C   0  0  0  0  0  0  0  0  0  0  0  0
  150.8614  143.7258  158.2080 C   0  0  2  0  0  0  0  0  0  0  0  0
  150.7348  143.8143  159.7258 C   0  0  0  0  0  0  0  0  0  0  0  0
  150.9138  135.7271  155.4011 C   0  0  0  0  0  0  0  0  0  0  0  0
  151.8694  135.1297  155.9000 O   0  0  0  0  0  0  0  0  0  0  0  0
  149.7742  135.0589  154.7699 C   0  0  0  0  0  0  0  0  0  0  0  0
  149.8327  133.6330  154.7520 C   0  0  0  0  0  0  0  0  0  0  0  0
  149.8790  132.4763  154.7585 N   0  0  0  0  0  0  0  0  0  0  0  0
  148.7365  135.7491  154.2346 C   0  0  0  0  0  0  0  0  0  0  0  0
  147.5325  135.1012  153.5651 C   0  0  0  0  0  0  0  0  0  0  0  0
  146.7526  137.9465  154.2830 H   0  0  0  0  0  0  0  0  0  0  0  0
  147.5002  137.8602  152.6861 H   0  0  0  0  0  0  0  0  0  0  0  0
  147.9474  139.1454  153.7989 H   0  0  0  0  0  0  0  0  0  0  0  0
  151.9523  137.8188  157.0218 H   0  0  0  0  0  0  0  0  0  0  0  0
  152.8696  137.5814  155.5629 H   0  0  0  0  0  0  0  0  0  0  0  0
  151.3831  139.7877  157.5704 H   0  0  0  0  0  0  0  0  0  0  0  0
  152.2602  142.1141  156.3503 H   0  0  0  0  0  0  0  0  0  0  0  0
  150.2185  143.1109  155.3777 H   0  0  0  0  0  0  0  0  0  0  0  0
  149.3114  141.6363  155.7050 H   0  0  0  0  0  0  0  0  0  0  0  0
  150.6302  141.6269  154.5357 H   0  0  0  0  0  0  0  0  0  0  0  0
  149.8222  141.8546  158.1531 H   0  0  0  0  0  0  0  0  0  0  0  0
  151.1150  140.9964  159.8055 H   0  0  0  0  0  0  0  0  0  0  0  0
  152.6102  141.1887  158.8995 H   0  0  0  0  0  0  0  0  0  0  0  0
  152.2435  142.8260  161.0190 H   0  0  0  0  0  0  0  0  0  0  0  0
  153.4343  144.6204  159.8057 H   0  0  0  0  0  0  0  0  0  0  0  0
  153.9071  143.1811  158.9043 H   0  0  0  0  0  0  0  0  0  0  0  0
  152.2191  145.4165  158.0242 H   0  0  0  0  0  0  0  0  0  0  0  0
  152.7147  144.0536  157.0386 H   0  0  0  0  0  0  0  0  0  0  0  0
  150.0753  144.2484  157.6625 H   0  0  0  0  0  0  0  0  0  0  0  0
  149.8289  143.3465  160.1158 H   0  0  0  0  0  0  0  0  0  0  0  0
  150.8037  144.8340  160.1090 H   0  0  0  0  0  0  0  0  0  0  0  0
  147.5353  134.0169  153.6724 H   0  0  0  0  0  0  0  0  0  0  0  0
  147.5256  135.3281  152.4984 H   0  0  0  0  0  0  0  0  0  0  0  0
  146.6024  135.4667  154.0017 H   0  0  0  0  0  0  0  0  0  0  0  0
  1  2  1  0  0  0  0
  1 25  1  0  0  0  0
  1 26  1  0  0  0  0
  1 27  1  0  0  0  0
  2 23  1  0  0  0  0
  2  3  2  0  0  0  0
  3  4  1  0  0  0  0
  4  5  1  0  0  0  0
  4 18  1  0  0  0  0
  5  6  1  0  0  0  0
  5 28  1  0  0  0  0
  5 29  1  0  0  0  0
  6  7  2  0  0  0  0
  6  8  1  0  0  0  0
  8  9  1  0  0  0  0
  8 30  1  0  0  0  0
  9 10  1  0  0  0  0
  9 11  1  0  0  0  0
  9 31  1  0  0  0  0
 10 32  1  0  0  0  0
 10 33  1  0  0  0  0
 10 34  1  0  0  0  0
 11 16  1  0  0  0  0
 11 12  1  0  0  0  0
 11 35  1  0  0  0  0
 12 13  1  0  0  0  0
 12 36  1  0  0  0  0
 12 37  1  0  0  0  0
 13 17  1  0  0  0  0
 13 14  1  0  0  0  0
 13 38  1  0  0  0  0
 14 15  1  0  0  0  0
 14 39  1  0  0  0  0
 14 40  1  0  0  0  0
 15 16  1  0  0  0  0
 15 41  1  0  0  0  0
 15 42  1  0  0  0  0
 16 17  1  0  0  0  0
 16 43  1  0  0  0  0
 17 44  1  0  0  0  0
 17 45  1  0  0  0  0
 18 19  2  0  0  0  0
 18 20  1  0  0  0  0
 20 21  1  0  0  0  0
 20 23  2  0  0  0  0
 21 22  3  0  0  0  0
 23 24  1  0  0  0  0
 24 46  1  0  0  0  0
 24 47  1  0  0  0  0
 24 48  1  0  0  0  0
M  END
> <s_m_source_file>
AV-unprocessed.smi

> <i_m_source_file_index>
1401

> <i_lp_mmshare_version>
43012

> <i_f3d_flags>
0

> <s_epik_input>
TiNDYyhjMVtDSDNdKWMoPU8pbihuYzFbQ0gzXSlbQ0gyXUMoPU8pW05IXVtDQEhdKFtDSDNdKVtDQEhdKFtDSDJdW0NASF0yMylbQ0BIXShbQ0gyXTMpW0NIMl1bQ0gyXTI=

> <s_epik_cmdline>
J2VwaWtfcHl0aG9uJywgJy1waCcsICc3LjAnLCAnLXRuJywgJzgnLCAnLW1hJywgJzIwMCcsICctbWV0YWxfYmluZGluZycsICctaW1hZScsICc8aW5maWxlLm1hZT4nLCAnLW9tYWUnLCAnPG91dGZpbGUubWFlPic=

> <r_lp_tautomer_probability>
1

> <r_epik_Ionization_Penalty>
2.16501e-08

> <r_epik_Ionization_Penalty_Charging>
2.29436e-11

> <r_epik_Ionization_Penalty_Neutral>
2.16271e-08

> <r_epik_State_Penalty>
-0

> <r_epik_Charging_Adjusted_Penalty>
2.29436e-11

> <i_epik_Tot_Q>
0

> <i_epik_Tot_abs_Q>
0

> <r_epik_Metal_State_Penalty>
-0

> <b_epik_Metal_Only>
0

> <s_lp_Force_Field>
OPLS_2005

> <r_lp_Energy>
66.0828

> <b_lp_Chiralities_Consistent>
1

> <s_lp_Variant>
AV-unprocessed.smi:1401-8

> <Gold.Version>
5.8.1

> <Gold.Id.Protein>
6NUR|6NUR_protein|mol2

> <Gold.PLP.Fitness>
42.9893

> <Gold.PLP.PLP>
-37.4945

> <Gold.PLP.part.hbond>
-2.0000

> <Gold.PLP.part.metal>
0.0000

> <Gold.PLP.part.buried>
-3.2275

> <Gold.PLP.part.nonpolar>
-32.4430

> <Gold.PLP.part.repulsive>
0.2776

> <Gold.PLP.ligand.clash>
0.0000

> <Gold.PLP.ligand.torsion>
0.2609

> <Gold.PLP.Chemscore.Hbond>
2.0000

> <Gold.PLP.Chemscore.CHOScore>
0.0000

> <Gold.PLP.Chemscore.Metal>
0.0000

> <Gold.Chemscore.Hbonds>
donor molecule, donor type, donor heavy atom, donor atom, acceptor molecule, acceptor atom, score
      P1  H  7989  7998       L1     7  0.73
      P1  H 10752 10763       L1    19  1.00

> <Gold.PLP.Chemscore.Internal.Correction>
0.0165

> <Gold.Rescore>
     Score         DG    S(hbond)    S(metal)    S(lipo)     H(rot)  DE(clash)    DE(int)     intcor
     16.62     -20.79       1.94        0.00     111.23       1.63       1.20       2.97       ----

> <Gold.Chemscore.Fitness>
16.6228

> <Gold.Chemscore.DG>
-20.7933

> <Gold.Chemscore.ZeroCoef>
-5.4800

> <Gold.Chemscore.Hbond>
1.9361

> <Gold.Chemscore.Metal>
0.0000

> <Gold.Chemscore.Lipo>
111.2346

> <Gold.Chemscore.Internal_Hbond>
0.0000

> <Gold.Chemscore.DEClash>
1.1993

> <Gold.Chemscore.DEInternal>
2.9711

> <Gold.Chemscore.Rot>
1.6281

> <Gold.Chemscore.Internal.Correction>
   9.000000E+99

> <Gold.Chemscore.Hbonds>
donor molecule, donor type, donor heavy atom, donor atom, acceptor molecule, acceptor atom, score
      P1  H  7989  7998       L1     7  0.69
      P1  H 10752 10763       L1    19  0.59

> <Gold.Chemscore.Hbond.Weighted>
-6.4666

> <Gold.Chemscore.Metal.Weighted>
-0.0000

> <Gold.Chemscore.Lipo.Weighted>
-13.0144

> <Gold.Chemscore.Internal_Hbond.Weighted>
0.0000

> <Gold.Chemscore.DEClash.Weighted>
1.1993

> <Gold.Chemscore.DEInternal.Weighted>
2.9711

> <Gold.Chemscore.Rot.Weighted>
4.1678

> <Gold.Chemscore.Internal.Correction.Weighted>
   9.000000E+99

> <Gold.Protein.RotatedTorsions>
[ 6907 6896 6895 6894 ] final -131.10 input  -60.11 | X-H torsion
[ 7974 7965 7964 7962 ] final -130.63 input  175.53 | X-H torsion
[ 8008 7997 7996 7995 ] final   88.91 input   59.86 | X-H torsion
[ 10167 10162 10161 10158 ] final   97.52 input  -65.29 | X-H torsion
[ 10718 10713 10712 10709 ] final   88.60 input   66.30 | X-H torsion
[ 10763 10752 10751 10750 ] final   89.61 input  -60.55 | X-H torsion
[ 11005 11000 10999 10996 ] final -103.27 input  -57.11 | X-H torsion

> <Gold.Protein.ActiveResidues>
 VAL166  LYS551  ARG553  GLY616  TRP617  ASP618  TYR619  PRO620  LYS621  CYS622 
 ASP623  PHE694  ASN695  SER759  ASP760  ASP761  ALA762  ILE779  LEU786  VAL792 
 PHE793  MET794  SER795  GLU796  ALA797  LYS798  CYS799  TRP800  GLU811  SER814 

> <Gold.Protein.RotatedAtoms>
  150.9472  133.6590  159.2778 H   0  0  0  0  0  0  0  0  0  0  0  0  # atno 6907 bound_to 6896
  151.3959  135.0962  159.9550 H   0  0  0  0  0  0  0  0  0  0  0  0  # atno 6908 bound_to 6896
  152.5094  133.8976  159.7480 H   0  0  0  0  0  0  0  0  0  0  0  0  # atno 6909 bound_to 6896
  144.9456  140.7287  143.4820 H   0  0  0  0  0  0  0  0  0  0  0  0  # atno 7974 bound_to 7965
  155.9936  140.3366  155.6777 H   0  0  0  0  0  0  0  0  0  0  0  0  # atno 8008 bound_to 7997
  155.6387  140.0693  157.2643 H   0  0  0  0  0  0  0  0  0  0  0  0  # atno 8009 bound_to 7997
  154.4227  140.1746  156.1537 H   0  0  0  0  0  0  0  0  0  0  0  0  # atno 8010 bound_to 7997
  139.7794  144.6894  151.0044 H   0  0  0  0  0  0  0  0  0  0  0  0  # atno 10167 bound_to 10162
  157.6950  131.0301  150.3299 H   0  0  0  0  0  0  0  0  0  0  0  0  # atno 10718 bound_to 10713
  153.1889  135.4464  155.0124 H   0  0  0  0  0  0  0  0  0  0  0  0  # atno 10763 bound_to 10752
  154.8078  135.3281  154.7388 H   0  0  0  0  0  0  0  0  0  0  0  0  # atno 10764 bound_to 10752
  153.7845  135.6975  153.4937 H   0  0  0  0  0  0  0  0  0  0  0  0  # atno 10765 bound_to 10752
  141.1153  133.8627  157.1465 H   0  0  0  0  0  0  0  0  0  0  0  0  # atno 11005 bound_to 11000
  145.2923  139.1879  143.4733 LP  0  0  0  0  0  0  0  0  0  0  0  0  # atno 17320 bound_to 7965
  146.3302  140.2902  142.8615 LP  0  0  0  0  0  0  0  0  0  0  0  0  # atno 17321 bound_to 7965
  140.7818  143.4500  151.0426 LP  0  0  0  0  0  0  0  0  0  0  0  0  # atno 17342 bound_to 10162
  139.8181  143.7857  152.3175 LP  0  0  0  0  0  0  0  0  0  0  0  0  # atno 17343 bound_to 10162
  156.3774  130.3874  149.7128 LP  0  0  0  0  0  0  0  0  0  0  0  0  # atno 17370 bound_to 10713
  156.4522  130.7912  151.2933 LP  0  0  0  0  0  0  0  0  0  0  0  0  # atno 17371 bound_to 10713
  140.0071  135.0004  157.0316 LP  0  0  0  0  0  0  0  0  0  0  0  0  # atno 17394 bound_to 11000
  140.4663  134.1432  155.7197 LP  0  0  0  0  0  0  0  0  0  0  0  0  # atno 17395 bound_to 11000

$$$$
