AV-unprocessed.smi:241|AV-procd|sdf|1840|dock1
  -GOLD-   2262020453D 1   1.00000     0.00000
 Structure written by MMmdl.
 54 57  0  0  0  0  0  0  0  0  1 V2000
  151.9210  145.1888  159.8750 C   0  0  0  0  0  0  0  0  0  0  0  0
  151.8556  143.7940  160.1103 O   0  0  0  0  0  0  0  0  0  0  0  0
  153.1267  143.1685  160.0304 C   0  0  0  0  0  0  0  0  0  0  0  0
  152.9896  141.6598  160.3095 C   0  0  2  0  0  0  0  0  0  0  0  0
  154.1601  141.0520  161.0955 C   0  0  0  0  0  0  0  0  0  0  0  0
  154.2849  139.6154  160.5671 C   0  0  1  0  0  0  0  0  0  0  0  0
  154.1708  138.6828  161.6325 O   0  0  0  0  0  0  0  0  0  0  0  0
  155.0549  138.9443  162.7105 C   0  0  0  0  0  0  0  0  0  0  0  0
  153.1414  139.4832  159.5518 C   0  0  0  0  0  0  0  0  0  0  0  0
  152.8640  140.8415  159.1101 N   0  0  0  0  0  0  0  0  0  0  0  0
  151.7331  141.0281  158.3899 C   0  0  0  0  0  0  0  0  0  0  0  0
  150.7772  141.8957  158.8158 N   0  0  0  0  0  0  0  0  0  0  0  0
  149.6742  142.0863  158.0853 C   0  0  0  0  0  0  0  0  0  0  0  0
  149.3357  141.5262  156.9215 N   0  0  0  0  0  0  0  0  0  0  0  0
  150.2951  140.6571  156.4908 C   0  0  0  0  0  0  0  0  0  0  0  0
  151.5144  140.3549  157.1588 C   0  0  0  0  0  0  0  0  0  0  0  0
  152.2476  139.4365  156.4199 N   0  0  0  0  0  0  0  0  0  0  0  0
  151.5081  139.2142  155.3682 C   0  0  0  0  0  0  0  0  0  0  0  0
  150.3080  139.8912  155.3366 N   0  0  0  0  0  0  0  0  0  0  0  0
  149.3151  139.8500  154.3000 C   0  0  0  0  0  0  0  0  0  0  0  0
  147.9476  140.5225  154.4543 C   0  0  0  0  0  0  0  0  0  0  0  0
  147.3133  139.4064  153.5935 C   0  0  0  0  0  0  0  0  0  0  0  0
  145.9537  138.8861  154.0902 C   0  0  0  0  0  0  0  0  0  0  0  0
  145.0294  139.9411  154.2645 O   0  0  0  0  0  0  0  0  0  0  0  0
  147.2158  139.7179  152.0859 C   0  0  0  0  0  0  0  0  0  0  0  0
  146.9447  138.5530  151.3332 O   0  0  0  0  0  0  0  0  0  0  0  0
  148.5403  138.5642  154.0149 C   0  0  0  0  0  0  0  0  0  0  0  0
  152.0831  141.5096  160.8987 H   0  0  0  0  0  0  0  0  0  0  0  0
  155.2490  139.5115  160.0660 H   0  0  0  0  0  0  0  0  0  0  0  0
  150.9214  145.6182  159.9412 H   0  0  0  0  0  0  0  0  0  0  0  0
  152.3157  145.4035  158.8812 H   0  0  0  0  0  0  0  0  0  0  0  0
  152.5486  145.6835  160.6175 H   0  0  0  0  0  0  0  0  0  0  0  0
  153.5468  143.3203  159.0353 H   0  0  0  0  0  0  0  0  0  0  0  0
  153.8190  143.6250  160.7395 H   0  0  0  0  0  0  0  0  0  0  0  0
  155.0898  141.5900  160.9068 H   0  0  0  0  0  0  0  0  0  0  0  0
  153.9744  141.0906  162.1696 H   0  0  0  0  0  0  0  0  0  0  0  0
  154.8951  138.2087  163.4987 H   0  0  0  0  0  0  0  0  0  0  0  0
  154.8779  139.9331  163.1351 H   0  0  0  0  0  0  0  0  0  0  0  0
  156.0979  138.8785  162.3997 H   0  0  0  0  0  0  0  0  0  0  0  0
  153.4159  138.8406  158.7148 H   0  0  0  0  0  0  0  0  0  0  0  0
  152.2659  139.0502  160.0382 H   0  0  0  0  0  0  0  0  0  0  0  0
  148.9619  142.7899  158.4903 H   0  0  0  0  0  0  0  0  0  0  0  0
  151.8270  138.5444  154.5834 H   0  0  0  0  0  0  0  0  0  0  0  0
  149.8004  140.2093  153.3910 H   0  0  0  0  0  0  0  0  0  0  0  0
  147.5771  140.5216  155.4802 H   0  0  0  0  0  0  0  0  0  0  0  0
  147.8867  141.5218  154.0222 H   0  0  0  0  0  0  0  0  0  0  0  0
  145.5287  138.1536  153.4037 H   0  0  0  0  0  0  0  0  0  0  0  0
  146.0609  138.3777  155.0488 H   0  0  0  0  0  0  0  0  0  0  0  0
  144.4604  139.9707  153.5108 H   0  0  0  0  0  0  0  0  0  0  0  0
  146.4402  140.4561  151.8803 H   0  0  0  0  0  0  0  0  0  0  0  0
  148.1453  140.1467  151.7108 H   0  0  0  0  0  0  0  0  0  0  0  0
  147.5784  137.8914  151.5651 H   0  0  0  0  0  0  0  0  0  0  0  0
  148.9721  137.9468  153.2266 H   0  0  0  0  0  0  0  0  0  0  0  0
  148.3658  137.9752  154.9174 H   0  0  0  0  0  0  0  0  0  0  0  0
  1  2  1  0  0  0  0
  1 30  1  0  0  0  0
  1 31  1  0  0  0  0
  1 32  1  0  0  0  0
  2  3  1  0  0  0  0
  3  4  1  0  0  0  0
  3 33  1  0  0  0  0
  3 34  1  0  0  0  0
  4 28  1  0  0  0  0
  4 10  1  0  0  0  0
  4  5  1  0  0  0  0
  5  6  1  0  0  0  0
  5 35  1  0  0  0  0
  5 36  1  0  0  0  0
  6 29  1  0  0  0  0
  6  7  1  0  0  0  0
  6  9  1  0  0  0  0
  7  8  1  0  0  0  0
  8 37  1  0  0  0  0
  8 38  1  0  0  0  0
  8 39  1  0  0  0  0
  9 10  1  0  0  0  0
  9 40  1  0  0  0  0
  9 41  1  0  0  0  0
 10 11  1  0  0  0  0
 11 16  1  0  0  0  0
 11 12  2  0  0  0  0
 12 13  1  0  0  0  0
 13 14  2  0  0  0  0
 13 42  1  0  0  0  0
 14 15  1  0  0  0  0
 15 19  1  0  0  0  0
 15 16  2  0  0  0  0
 16 17  1  0  0  0  0
 17 18  2  0  0  0  0
 18 19  1  0  0  0  0
 18 43  1  0  0  0  0
 19 20  1  0  0  0  0
 20 27  1  0  0  0  0
 20 21  1  0  0  0  0
 20 44  1  0  0  0  0
 21 22  1  0  0  0  0
 21 45  1  0  0  0  0
 21 46  1  0  0  0  0
 22 23  1  0  0  0  0
 22 25  1  0  0  0  0
 22 27  1  0  0  0  0
 23 24  1  0  0  0  0
 23 47  1  0  0  0  0
 23 48  1  0  0  0  0
 24 49  1  0  0  0  0
 25 26  1  0  0  0  0
 25 50  1  0  0  0  0
 25 51  1  0  0  0  0
 26 52  1  0  0  0  0
 27 53  1  0  0  0  0
 27 54  1  0  0  0  0
M  END
> <s_m_source_file>
AV-unprocessed.smi

> <i_m_source_file_index>
241

> <i_lp_mmshare_version>
43012

> <i_f3d_flags>
0

> <s_epik_input>
W0NIM11PW0NIMl1bQ0BASF0xW0NIMl1bQ0BASF0oT1tDSDNdKVtDSDJdTjFjKG5bY0hdbjIpYyhjMjMpbltjSF1uM1tDSF0oW0NIMl00KVtDSDJdQzQoW0NIMl1bT0hdKVtDSDJdW09IXQ==

> <s_epik_cmdline>
J2VwaWtfcHl0aG9uJywgJy1waCcsICc3LjAnLCAnLXRuJywgJzgnLCAnLW1hJywgJzIwMCcsICctbWV0YWxfYmluZGluZycsICctaW1hZScsICc8aW5maWxlLm1hZT4nLCAnLW9tYWUnLCAnPG91dGZpbGUubWFlPic=

> <r_lp_tautomer_probability>
1

> <r_epik_Ionization_Penalty>
0.00568677

> <r_epik_Ionization_Penalty_Charging>
0

> <r_epik_Ionization_Penalty_Neutral>
0.00568677

> <r_epik_State_Penalty>
0.00400877

> <r_epik_Charging_Adjusted_Penalty>
0.00400877

> <i_epik_Tot_Q>
0

> <i_epik_Tot_abs_Q>
0

> <r_epik_Metal_State_Penalty>
-0

> <b_epik_Metal_Only>
0

> <s_lp_Force_Field>
OPLS_2005

> <r_lp_Energy>
60.5945

> <b_lp_Chiralities_Consistent>
1

> <s_lp_Variant>
AV-unprocessed.smi:241-1

> <Gold.Version>
5.8.1

> <Gold.Id.Protein>
6NUR|6NUR_protein|mol2

> <Gold.PLP.Fitness>
56.4134

> <Gold.PLP.PLP>
-48.7216

> <Gold.PLP.part.hbond>
-4.8481

> <Gold.PLP.part.metal>
0.0000

> <Gold.PLP.part.buried>
-1.9769

> <Gold.PLP.part.nonpolar>
-42.3017

> <Gold.PLP.part.repulsive>
0.1797

> <Gold.PLP.ligand.clash>
0.0000

> <Gold.PLP.ligand.torsion>
0.9821

> <Gold.PLP.Chemscore.Hbond>
3.0000

> <Gold.PLP.Chemscore.CHOScore>
0.0000

> <Gold.PLP.Chemscore.Metal>
0.0000

> <Gold.Chemscore.Hbonds>
donor molecule, donor type, donor heavy atom, donor atom, acceptor molecule, acceptor atom, score
      L1  H    24    49       P1 10175  0.63
      L1  H    26    52       P1  7948  0.73
      P1  H  7997  8008       L1    17  0.49

> <Gold.PLP.Chemscore.Internal.Correction>
0.6561

> <Gold.Rescore>
     Score         DG    S(hbond)    S(metal)    S(lipo)     H(rot)  DE(clash)    DE(int)     intcor
      9.82     -16.64       2.59        0.00     108.40       3.97       1.75       5.07       ----

> <Gold.Chemscore.Fitness>
9.8227

> <Gold.Chemscore.DG>
-16.6377

> <Gold.Chemscore.ZeroCoef>
-5.4800

> <Gold.Chemscore.Hbond>
2.5883

> <Gold.Chemscore.Metal>
0.0000

> <Gold.Chemscore.Lipo>
108.4012

> <Gold.Chemscore.Internal_Hbond>
0.0000

> <Gold.Chemscore.DEClash>
1.7478

> <Gold.Chemscore.DEInternal>
5.0672

> <Gold.Chemscore.Rot>
3.9727

> <Gold.Chemscore.Internal.Correction>
   9.000000E+99

> <Gold.Chemscore.Hbonds>
donor molecule, donor type, donor heavy atom, donor atom, acceptor molecule, acceptor atom, score
      L1  H    24    49       P1 10175  0.64
      L1  H    26    52       P1  7948  0.73
      P1  H  7997  8008       L1    17  0.24

> <Gold.Chemscore.Hbond.Weighted>
-8.6450

> <Gold.Chemscore.Metal.Weighted>
-0.0000

> <Gold.Chemscore.Lipo.Weighted>
-12.6829

> <Gold.Chemscore.Internal_Hbond.Weighted>
0.0000

> <Gold.Chemscore.DEClash.Weighted>
1.7478

> <Gold.Chemscore.DEInternal.Weighted>
5.0672

> <Gold.Chemscore.Rot.Weighted>
10.1702

> <Gold.Chemscore.Internal.Correction.Weighted>
   9.000000E+99

> <Gold.Protein.RotatedTorsions>
[ 6907 6896 6895 6894 ] final  168.16 input  -60.11 | X-H torsion
[ 7974 7965 7964 7962 ] final  170.05 input  175.53 | X-H torsion
[ 8008 7997 7996 7995 ] final  -61.28 input   59.86 | X-H torsion
[ 10167 10162 10161 10158 ] final  110.78 input  -65.29 | X-H torsion
[ 10718 10713 10712 10709 ] final  123.17 input   66.30 | X-H torsion
[ 10763 10752 10751 10750 ] final   -3.09 input  -60.55 | X-H torsion
[ 11005 11000 10999 10996 ] final  111.11 input  -57.11 | X-H torsion

> <Gold.Protein.ActiveResidues>
 VAL166  LYS551  ARG553  GLY616  TRP617  ASP618  TYR619  PRO620  LYS621  CYS622 
 ASP623  PHE694  ASN695  SER759  ASP760  ASP761  ALA762  ILE779  LEU786  VAL792 
 PHE793  MET794  SER795  GLU796  ALA797  LYS798  CYS799  TRP800  GLU811  SER814 

> <Gold.Protein.RotatedAtoms>
  151.8520  133.3441  159.3675 H   0  0  0  0  0  0  0  0  0  0  0  0  # atno 6907 bound_to 6896
  150.7204  134.5290  159.5700 H   0  0  0  0  0  0  0  0  0  0  0  0  # atno 6908 bound_to 6896
  152.2786  134.7855  160.0452 H   0  0  0  0  0  0  0  0  0  0  0  0  # atno 6909 bound_to 6896
  144.7336  139.9144  143.6417 H   0  0  0  0  0  0  0  0  0  0  0  0  # atno 7974 bound_to 7965
  154.4440  140.1021  156.6406 H   0  0  0  0  0  0  0  0  0  0  0  0  # atno 8008 bound_to 7997
  155.5505  140.3485  155.4449 H   0  0  0  0  0  0  0  0  0  0  0  0  # atno 8009 bound_to 7997
  156.0532  140.1309  157.0015 H   0  0  0  0  0  0  0  0  0  0  0  0  # atno 8010 bound_to 7997
  139.6661  144.7127  151.1774 H   0  0  0  0  0  0  0  0  0  0  0  0  # atno 10167 bound_to 10162
  157.5686  131.1085  150.8409 H   0  0  0  0  0  0  0  0  0  0  0  0  # atno 10718 bound_to 10713
  153.3667  135.6993  153.6670 H   0  0  0  0  0  0  0  0  0  0  0  0  # atno 10763 bound_to 10752
  153.5336  135.3587  155.2687 H   0  0  0  0  0  0  0  0  0  0  0  0  # atno 10764 bound_to 10752
  154.8676  135.4187  154.2936 H   0  0  0  0  0  0  0  0  0  0  0  0  # atno 10765 bound_to 10752
  139.8896  134.9500  156.6381 H   0  0  0  0  0  0  0  0  0  0  0  0  # atno 11005 bound_to 11000
  146.0976  139.3970  143.0366 LP  0  0  0  0  0  0  0  0  0  0  0  0  # atno 17320 bound_to 7965
  145.7623  140.9930  143.1193 LP  0  0  0  0  0  0  0  0  0  0  0  0  # atno 17321 bound_to 7965
  140.7600  143.5917  150.8790 LP  0  0  0  0  0  0  0  0  0  0  0  0  # atno 17342 bound_to 10162
  139.9578  143.6198  152.3011 LP  0  0  0  0  0  0  0  0  0  0  0  0  # atno 17343 bound_to 10162
  156.8887  130.5205  149.5287 LP  0  0  0  0  0  0  0  0  0  0  0  0  # atno 17370 bound_to 10713
  156.0732  130.5760  150.9424 LP  0  0  0  0  0  0  0  0  0  0  0  0  # atno 17371 bound_to 10713
  140.7614  133.8814  155.8421 LP  0  0  0  0  0  0  0  0  0  0  0  0  # atno 17394 bound_to 11000
  140.9918  134.1268  157.4400 LP  0  0  0  0  0  0  0  0  0  0  0  0  # atno 17395 bound_to 11000

$$$$
