AV-unprocessed.smi:107|AV-procd|sdf|1018|dock3
  -GOLD-   2262018 23D 1   1.00000     0.00000
 Structure written by MMmdl.
 31 32  0  0  0  0  0  0  0  0  1 V2000
  151.1337  139.0470  155.3688 C   0  0  0  0  0  0  0  0  0  0  0  0
  150.0075  140.0146  155.0446 C   0  0  0  0  0  0  0  0  0  0  0  0
  148.9512  139.6667  154.2662 C   0  0  0  0  0  0  0  0  0  0  0  0
  147.9079  140.5266  153.9522 N   0  0  0  0  0  0  0  0  0  0  0  0
  146.7611  140.0764  153.0757 C   0  0  1  0  0  0  0  0  0  0  0  0
  147.2789  139.3726  151.8206 C   0  0  0  0  0  0  0  0  0  0  0  0
  146.2644  138.2595  151.6642 C   0  0  1  0  0  0  0  0  0  0  0  0
  146.8100  137.1758  150.9403 O   0  0  0  0  0  0  0  0  0  0  0  0
  145.9605  137.8976  153.1201 C   0  0  2  0  0  0  0  0  0  0  0  0
  144.5919  137.2270  153.3117 C   0  0  0  0  0  0  0  0  0  0  0  0
  143.6304  137.8450  152.4833 O   0  0  0  0  0  0  0  0  0  0  0  0
  145.9772  139.1612  153.7844 O   0  0  0  0  0  0  0  0  0  0  0  0
  147.9307  141.8485  154.4441 C   0  0  0  0  0  0  0  0  0  0  0  0
  147.0567  142.6760  154.1893 O   0  0  0  0  0  0  0  0  0  0  0  0
  149.0135  142.2055  155.2461 N   0  0  0  0  0  0  0  0  0  0  0  0
  150.0782  141.3710  155.5948 C   0  0  0  0  0  0  0  0  0  0  0  0
  150.9792  141.8036  156.3115 O   0  0  0  0  0  0  0  0  0  0  0  0
  149.0321  143.1497  155.6030 H   0  0  0  0  0  0  0  0  0  0  0  0
  150.9658  138.0664  154.9227 H   0  0  0  0  0  0  0  0  0  0  0  0
  151.2220  138.9119  156.4473 H   0  0  0  0  0  0  0  0  0  0  0  0
  152.0835  139.4280  154.9918 H   0  0  0  0  0  0  0  0  0  0  0  0
  148.9270  138.6640  153.8675 H   0  0  0  0  0  0  0  0  0  0  0  0
  146.1350  140.9433  152.8600 H   0  0  0  0  0  0  0  0  0  0  0  0
  147.3250  140.0556  150.9718 H   0  0  0  0  0  0  0  0  0  0  0  0
  148.2753  138.9679  152.0082 H   0  0  0  0  0  0  0  0  0  0  0  0
  145.3705  138.6357  151.1642 H   0  0  0  0  0  0  0  0  0  0  0  0
  147.1994  136.5701  151.5525 H   0  0  0  0  0  0  0  0  0  0  0  0
  146.7634  137.2713  153.5140 H   0  0  0  0  0  0  0  0  0  0  0  0
  144.6416  136.1572  153.1063 H   0  0  0  0  0  0  0  0  0  0  0  0
  144.2574  137.3442  154.3430 H   0  0  0  0  0  0  0  0  0  0  0  0
  143.7340  138.7819  152.5503 H   0  0  0  0  0  0  0  0  0  0  0  0
  1  2  1  0  0  0  0
  1 19  1  0  0  0  0
  1 20  1  0  0  0  0
  1 21  1  0  0  0  0
  2 16  1  0  0  0  0
  2  3  2  0  0  0  0
  3  4  1  0  0  0  0
  3 22  1  0  0  0  0
  4  5  1  0  0  0  0
  4 13  1  0  0  0  0
  5 12  1  0  0  0  0
  5  6  1  0  0  0  0
  5 23  1  0  0  0  0
  6  7  1  0  0  0  0
  6 24  1  0  0  0  0
  6 25  1  0  0  0  0
  7  8  1  0  0  0  0
  7  9  1  0  0  0  0
  7 26  1  0  0  0  0
  8 27  1  0  0  0  0
  9 10  1  0  0  0  0
  9 12  1  0  0  0  0
  9 28  1  0  0  0  0
 10 11  1  0  0  0  0
 10 29  1  0  0  0  0
 10 30  1  0  0  0  0
 11 31  1  0  0  0  0
 13 14  2  0  0  0  0
 13 15  1  0  0  0  0
 15 18  1  0  0  0  0
 15 16  1  0  0  0  0
 16 17  2  0  0  0  0
M  END
> <s_m_source_file>
AV-unprocessed.smi

> <i_m_source_file_index>
107

> <i_lp_mmshare_version>
43012

> <i_f3d_flags>
0

> <s_epik_input>
Tz1jMVtuSF1jKD1PKW4oW2NIXWMxW0NIM10pW0NAQEhdMltDSDJdW0NAQEhdKFtPSF0pW0NASF0oTzIpW0NIMl1bT0hd

> <s_epik_cmdline>
J2VwaWtfcHl0aG9uJywgJy1waCcsICc3LjAnLCAnLXRuJywgJzgnLCAnLW1hJywgJzIwMCcsICctbWV0YWxfYmluZGluZycsICctaW1hZScsICc8aW5maWxlLm1hZT4nLCAnLW9tYWUnLCAnPG91dGZpbGUubWFlPic=

> <r_lp_tautomer_probability>
0.999537

> <r_epik_Ionization_Penalty>
0.00121888

> <r_epik_Ionization_Penalty_Charging>
0.00121876

> <r_epik_Ionization_Penalty_Neutral>
1.19946e-07

> <r_epik_State_Penalty>
0.000805124

> <r_epik_Charging_Adjusted_Penalty>
0.00202389

> <i_epik_Tot_Q>
0

> <i_epik_Tot_abs_Q>
0

> <r_epik_Metal_State_Penalty>
0.662472

> <b_epik_Metal_Only>
0

> <s_epik_Chemistry_Notes>
This compound contains an acetal/aminal-like group ( X-CH(R)-Y where X, Y are N, S, or O) that may be acid/base labile, releasing an aldehyde.

> <s_lp_Force_Field>
OPLS_2005

> <r_lp_Energy>
25.0544

> <b_lp_Chiralities_Consistent>
1

> <s_lp_Variant>
AV-unprocessed.smi:107-6

> <Gold.Version>
5.8.1

> <Gold.Id.Protein>
6NUR|6NUR_protein|mol2

> <Gold.PLP.Fitness>
37.8793

> <Gold.PLP.PLP>
-27.3684

> <Gold.PLP.part.hbond>
-5.0000

> <Gold.PLP.part.metal>
0.0000

> <Gold.PLP.part.buried>
3.3728

> <Gold.PLP.part.nonpolar>
-27.8681

> <Gold.PLP.part.repulsive>
1.1356

> <Gold.PLP.ligand.clash>
0.0000

> <Gold.PLP.ligand.torsion>
0.3774

> <Gold.PLP.Chemscore.Hbond>
3.7520

> <Gold.PLP.Chemscore.CHOScore>
0.0000

> <Gold.PLP.Chemscore.Metal>
0.0000

> <Gold.Chemscore.Hbonds>
donor molecule, donor type, donor heavy atom, donor atom, acceptor molecule, acceptor atom, score
      L1  H     8    27       P1  7948  0.56
      L1  H    11    31       P1 10175  1.00
      L1  H    15    18       P1  8028  1.00
      P1  H  7954  7966       L1     8  1.00

> <Gold.PLP.Chemscore.Internal.Correction>
0.0098

> <Gold.Rescore>
     Score         DG    S(hbond)    S(metal)    S(lipo)     H(rot)  DE(clash)    DE(int)     intcor
     12.51     -14.41       3.14        0.00      46.18       2.73       1.74       0.16       ----

> <Gold.Chemscore.Fitness>
12.5093

> <Gold.Chemscore.DG>
-14.4072

> <Gold.Chemscore.ZeroCoef>
-5.4800

> <Gold.Chemscore.Hbond>
3.1441

> <Gold.Chemscore.Metal>
0.0000

> <Gold.Chemscore.Lipo>
46.1773

> <Gold.Chemscore.Internal_Hbond>
0.0000

> <Gold.Chemscore.DEClash>
1.7382

> <Gold.Chemscore.DEInternal>
0.1598

> <Gold.Chemscore.Rot>
2.7253

> <Gold.Chemscore.Internal.Correction>
   9.000000E+99

> <Gold.Chemscore.Hbonds>
donor molecule, donor type, donor heavy atom, donor atom, acceptor molecule, acceptor atom, score
      L1  H     8    27       P1  7948  0.56
      L1  H    11    31       P1 10175  1.00
      L1  H    15    18       P1  8028  0.97
      P1  H  7954  7966       L1     8  0.36

> <Gold.Chemscore.Hbond.Weighted>
-10.5013

> <Gold.Chemscore.Metal.Weighted>
-0.0000

> <Gold.Chemscore.Lipo.Weighted>
-5.4027

> <Gold.Chemscore.Internal_Hbond.Weighted>
0.0000

> <Gold.Chemscore.DEClash.Weighted>
1.7382

> <Gold.Chemscore.DEInternal.Weighted>
0.1598

> <Gold.Chemscore.Rot.Weighted>
6.9769

> <Gold.Chemscore.Internal.Correction.Weighted>
   9.000000E+99

> <Gold.Protein.RotatedTorsions>
[ 6907 6896 6895 6894 ] final  -12.80 input  -60.11 | X-H torsion
[ 7974 7965 7964 7962 ] final -143.11 input  175.53 | X-H torsion
[ 8008 7997 7996 7995 ] final -132.23 input   59.86 | X-H torsion
[ 10167 10162 10161 10158 ] final  156.87 input  -65.29 | X-H torsion
[ 10718 10713 10712 10709 ] final   -0.05 input   66.30 | X-H torsion
[ 10763 10752 10751 10750 ] final   93.35 input  -60.55 | X-H torsion
[ 11005 11000 10999 10996 ] final -174.27 input  -57.11 | X-H torsion

> <Gold.Protein.ActiveResidues>
 VAL166  LYS551  ARG553  GLY616  TRP617  ASP618  TYR619  PRO620  LYS621  CYS622 
 ASP623  PHE694  ASN695  SER759  ASP760  ASP761  ALA762  ILE779  LEU786  VAL792 
 PHE793  MET794  SER795  GLU796  ALA797  LYS798  CYS799  TRP800  GLU811  SER814 

> <Gold.Protein.RotatedAtoms>
  151.3649  135.0911  159.9446 H   0  0  0  0  0  0  0  0  0  0  0  0  # atno 6907 bound_to 6896
  152.5152  133.9222  159.7550 H   0  0  0  0  0  0  0  0  0  0  0  0  # atno 6908 bound_to 6896
  150.9624  133.6377  159.2781 H   0  0  0  0  0  0  0  0  0  0  0  0  # atno 6909 bound_to 6896
  144.8394  140.5876  143.5462 H   0  0  0  0  0  0  0  0  0  0  0  0  # atno 7974 bound_to 7965
  155.3255  140.0464  157.3041 H   0  0  0  0  0  0  0  0  0  0  0  0  # atno 8008 bound_to 7997
  154.5357  140.2271  155.8693 H   0  0  0  0  0  0  0  0  0  0  0  0  # atno 8009 bound_to 7997
  156.1832  140.3069  155.9195 H   0  0  0  0  0  0  0  0  0  0  0  0  # atno 8010 bound_to 7997
  139.4822  144.4969  151.8226 H   0  0  0  0  0  0  0  0  0  0  0  0  # atno 10167 bound_to 10162
  156.8262  130.5473  149.5691 H   0  0  0  0  0  0  0  0  0  0  0  0  # atno 10718 bound_to 10713
  153.2293  135.4328  155.0577 H   0  0  0  0  0  0  0  0  0  0  0  0  # atno 10763 bound_to 10752
  154.8289  135.3375  154.6811 H   0  0  0  0  0  0  0  0  0  0  0  0  # atno 10764 bound_to 10752
  153.7239  135.7015  153.5062 H   0  0  0  0  0  0  0  0  0  0  0  0  # atno 10765 bound_to 10752
  140.4764  134.6116  157.4902 H   0  0  0  0  0  0  0  0  0  0  0  0  # atno 11005 bound_to 11000
  145.4726  139.1502  143.3805 LP  0  0  0  0  0  0  0  0  0  0  0  0  # atno 17320 bound_to 7965
  146.2688  140.4860  142.8823 LP  0  0  0  0  0  0  0  0  0  0  0  0  # atno 17321 bound_to 7965
  140.4458  144.1923  150.5894 LP  0  0  0  0  0  0  0  0  0  0  0  0  # atno 17342 bound_to 10162
  140.4636  143.2439  151.9186 LP  0  0  0  0  0  0  0  0  0  0  0  0  # atno 17343 bound_to 10162
  156.0960  130.5932  150.9814 LP  0  0  0  0  0  0  0  0  0  0  0  0  # atno 17370 bound_to 10713
  157.6431  131.0907  150.8211 LP  0  0  0  0  0  0  0  0  0  0  0  0  # atno 17371 bound_to 10713
  139.9853  134.7071  155.9785 LP  0  0  0  0  0  0  0  0  0  0  0  0  # atno 17394 bound_to 11000
  141.1552  133.6543  156.4139 LP  0  0  0  0  0  0  0  0  0  0  0  0  # atno 17395 bound_to 11000

$$$$
