AV-unprocessed.smi:2468|AV-procd|sdf|9731|dock4
  -GOLD-   2272013373D 1   1.00000     0.00000
 Structure written by MMmdl.
 32 33  0  0  0  0  0  0  0  0  1 V2000
  152.4782  143.8150  162.1160 C   0  0  0  0  0  0  0  0  0  0  0  0
  151.8574  143.7196  160.7347 C   0  0  0  0  0  0  0  0  0  0  0  0
  151.0079  144.7172  160.4058 N   0  0  0  0  0  0  0  0  0  0  0  0
  150.4356  144.6864  159.1849 C   0  0  0  0  0  0  0  0  0  0  0  0
  150.6736  143.6676  158.2429 C   0  0  0  0  0  0  0  0  0  0  0  0
  151.5502  142.6113  158.5899 C   0  0  0  0  0  0  0  0  0  0  0  0
  151.8758  141.5391  157.7129 N   0  0  0  0  0  0  0  0  0  0  0  0
  151.2824  141.1731  156.5619 C   0  0  0  0  0  0  0  0  0  0  0  0
  150.3274  141.7570  156.0494 O   0  0  0  0  0  0  0  0  0  0  0  0
  151.8766  139.9297  155.8786 C   0  0  2  0  0  0  0  0  0  0  0  0
  151.2751  139.8202  154.5871 O   0  0  0  0  0  0  0  0  0  0  0  0
  150.5600  138.5936  154.4620 C   0  0  0  0  0  0  0  0  0  0  0  0
  150.3097  138.1230  155.8897 C   0  0  0  0  0  0  0  0  0  0  0  0
  151.5812  138.5820  156.5739 C   0  0  2  0  0  0  0  0  0  0  0  0
  151.5175  138.5777  158.1123 C   0  0  0  0  0  0  0  0  0  0  0  0
  152.1659  142.6485  159.8633 C   0  0  0  0  0  0  0  0  0  0  0  0
  153.2709  141.4060  160.3492 Cl  0  0  0  0  0  0  0  0  0  0  0  0
  152.2682  142.9131  162.6914 H   0  0  0  0  0  0  0  0  0  0  0  0
  152.0878  144.6674  162.6738 H   0  0  0  0  0  0  0  0  0  0  0  0
  153.5595  143.9304  162.0373 H   0  0  0  0  0  0  0  0  0  0  0  0
  149.7714  145.5042  158.9478 H   0  0  0  0  0  0  0  0  0  0  0  0
  150.1924  143.7257  157.2793 H   0  0  0  0  0  0  0  0  0  0  0  0
  152.6057  140.9239  158.0425 H   0  0  0  0  0  0  0  0  0  0  0  0
  152.9541  140.0570  155.7609 H   0  0  0  0  0  0  0  0  0  0  0  0
  149.6380  138.7245  153.8951 H   0  0  0  0  0  0  0  0  0  0  0  0
  151.1865  137.8765  153.9301 H   0  0  0  0  0  0  0  0  0  0  0  0
  149.4376  138.6260  156.3091 H   0  0  0  0  0  0  0  0  0  0  0  0
  150.1503  137.0465  155.9584 H   0  0  0  0  0  0  0  0  0  0  0  0
  152.3770  137.8934  156.2847 H   0  0  0  0  0  0  0  0  0  0  0  0
  150.6872  139.1736  158.4914 H   0  0  0  0  0  0  0  0  0  0  0  0
  152.4387  138.9717  158.5424 H   0  0  0  0  0  0  0  0  0  0  0  0
  151.3853  137.5632  158.4887 H   0  0  0  0  0  0  0  0  0  0  0  0
  1  2  1  0  0  0  0
  1 18  1  0  0  0  0
  1 19  1  0  0  0  0
  1 20  1  0  0  0  0
  2 16  1  0  0  0  0
  2  3  2  0  0  0  0
  3  4  1  0  0  0  0
  4  5  2  0  0  0  0
  4 21  1  0  0  0  0
  5  6  1  0  0  0  0
  5 22  1  0  0  0  0
  6  7  1  0  0  0  0
  6 16  2  0  0  0  0
  7  8  1  0  0  0  0
  7 23  1  0  0  0  0
  8  9  2  0  0  0  0
  8 10  1  0  0  0  0
 10 14  1  0  0  0  0
 10 11  1  0  0  0  0
 10 24  1  0  0  0  0
 11 12  1  0  0  0  0
 12 13  1  0  0  0  0
 12 25  1  0  0  0  0
 12 26  1  0  0  0  0
 13 14  1  0  0  0  0
 13 27  1  0  0  0  0
 13 28  1  0  0  0  0
 14 15  1  0  0  0  0
 14 29  1  0  0  0  0
 15 30  1  0  0  0  0
 15 31  1  0  0  0  0
 15 32  1  0  0  0  0
 16 17  1  0  0  0  0
M  END
> <s_m_source_file>
AV-unprocessed.smi

> <i_m_source_file_index>
2468

> <i_lp_mmshare_version>
43012

> <i_f3d_flags>
0

> <s_epik_input>
W0NIM11jMW5bY0hdW2NIXWMoYzFDbClbTkhdQyg9TylbQ0BASF0yT1tDSDJdW0NIMl1bQ0BIXTJbQ0gzXQ==

> <s_epik_cmdline>
J2VwaWtfcHl0aG9uJywgJy1waCcsICc3LjAnLCAnLXRuJywgJzgnLCAnLW1hJywgJzIwMCcsICctbWV0YWxfYmluZGluZycsICctaW1hZScsICc8aW5maWxlLm1hZT4nLCAnLW9tYWUnLCAnPG91dGZpbGUubWFlPic=

> <r_epik_Ionization_Penalty>
0.000361027

> <r_epik_Ionization_Penalty_Charging>
0

> <r_epik_Ionization_Penalty_Neutral>
0.000361027

> <r_epik_State_Penalty>
0.000217849

> <r_epik_Charging_Adjusted_Penalty>
0.000217849

> <i_epik_Tot_Q>
0

> <i_epik_Tot_abs_Q>
0

> <r_epik_Metal_State_Penalty>
-0

> <b_epik_Metal_Only>
0

> <s_lp_Force_Field>
OPLS_2005

> <r_lp_Energy>
25.639

> <b_lp_Chiralities_Consistent>
1

> <s_lp_Variant>
AV-unprocessed.smi:2468-3

> <Gold.Version>
5.8.1

> <Gold.Id.Protein>
6NUR|6NUR_protein|mol2

> <Gold.PLP.Fitness>
38.6306

> <Gold.PLP.PLP>
-33.1141

> <Gold.PLP.part.hbond>
-1.0000

> <Gold.PLP.part.metal>
0.0000

> <Gold.PLP.part.buried>
-5.2638

> <Gold.PLP.part.nonpolar>
-27.1659

> <Gold.PLP.part.repulsive>
0.4041

> <Gold.PLP.ligand.clash>
0.0000

> <Gold.PLP.ligand.torsion>
0.2472

> <Gold.PLP.Chemscore.Hbond>
1.0000

> <Gold.PLP.Chemscore.CHOScore>
1.0000

> <Gold.PLP.Chemscore.Metal>
0.0000

> <Gold.Chemscore.Hbonds>
donor molecule, donor type, donor heavy atom, donor atom, acceptor molecule, acceptor atom, score
      P1  H  7989  7998       L1    11  1.00
      L1  C     4    21       P1  8029  0.98

> <Gold.PLP.Chemscore.Internal.Correction>
0.0109

> <Gold.Rescore>
     Score         DG    S(hbond)    S(metal)    S(lipo)     H(rot)  DE(clash)    DE(int)     intcor
     16.19     -18.07       0.99        0.00     101.14       1.00       0.18       1.70       ----

> <Gold.Chemscore.Fitness>
16.1858

> <Gold.Chemscore.DG>
-18.0668

> <Gold.Chemscore.ZeroCoef>
-5.4800

> <Gold.Chemscore.Hbond>
0.9919

> <Gold.Chemscore.Metal>
0.0000

> <Gold.Chemscore.Lipo>
101.1439

> <Gold.Chemscore.Internal_Hbond>
0.0000

> <Gold.Chemscore.DEClash>
0.1787

> <Gold.Chemscore.DEInternal>
1.7023

> <Gold.Chemscore.Rot>
1.0000

> <Gold.Chemscore.Internal.Correction>
   9.000000E+99

> <Gold.Chemscore.Hbonds>
donor molecule, donor type, donor heavy atom, donor atom, acceptor molecule, acceptor atom, score
      P1  H  7989  7998       L1    11  0.92

> <Gold.Chemscore.Hbond.Weighted>
-3.3130

> <Gold.Chemscore.Metal.Weighted>
-0.0000

> <Gold.Chemscore.Lipo.Weighted>
-11.8338

> <Gold.Chemscore.Internal_Hbond.Weighted>
0.0000

> <Gold.Chemscore.DEClash.Weighted>
0.1787

> <Gold.Chemscore.DEInternal.Weighted>
1.7023

> <Gold.Chemscore.Rot.Weighted>
2.5600

> <Gold.Chemscore.Internal.Correction.Weighted>
   9.000000E+99

> <Gold.Protein.RotatedTorsions>
[ 6907 6896 6895 6894 ] final   20.41 input  -60.11 | X-H torsion
[ 7974 7965 7964 7962 ] final   49.90 input  175.53 | X-H torsion
[ 8008 7997 7996 7995 ] final -170.76 input   59.86 | X-H torsion
[ 10167 10162 10161 10158 ] final -123.23 input  -65.29 | X-H torsion
[ 10718 10713 10712 10709 ] final  143.62 input   66.30 | X-H torsion
[ 10763 10752 10751 10750 ] final  133.99 input  -60.55 | X-H torsion
[ 11005 11000 10999 10996 ] final -155.41 input  -57.11 | X-H torsion

> <Gold.Protein.ActiveResidues>
 VAL166  LYS551  ARG553  GLY616  TRP617  ASP618  TYR619  PRO620  LYS621  CYS622 
 ASP623  PHE694  ASN695  SER759  ASP760  ASP761  ALA762  ILE779  LEU786  VAL792 
 PHE793  MET794  SER795  GLU796  ALA797  LYS798  CYS799  TRP800  GLU811  SER814 

> <Gold.Protein.RotatedAtoms>
  151.8960  135.0397  160.0501 H   0  0  0  0  0  0  0  0  0  0  0  0  # atno 6907 bound_to 6896
  152.2397  133.5121  159.5271 H   0  0  0  0  0  0  0  0  0  0  0  0  # atno 6908 bound_to 6896
  150.7050  134.1021  159.4012 H   0  0  0  0  0  0  0  0  0  0  0  0  # atno 6909 bound_to 6896
  146.0064  139.4495  142.9983 H   0  0  0  0  0  0  0  0  0  0  0  0  # atno 7974 bound_to 7965
  155.9226  140.1077  157.1195 H   0  0  0  0  0  0  0  0  0  0  0  0  # atno 8008 bound_to 7997
  154.4057  140.1253  156.4764 H   0  0  0  0  0  0  0  0  0  0  0  0  # atno 8009 bound_to 7997
  155.7177  140.3470  155.5004 H   0  0  0  0  0  0  0  0  0  0  0  0  # atno 8010 bound_to 7997
  140.0057  143.5494  152.2284 H   0  0  0  0  0  0  0  0  0  0  0  0  # atno 10167 bound_to 10162
  157.3668  131.0973  151.0865 H   0  0  0  0  0  0  0  0  0  0  0  0  # atno 10718 bound_to 10713
  153.8162  135.3122  155.3406 H   0  0  0  0  0  0  0  0  0  0  0  0  # atno 10763 bound_to 10752
  154.8031  135.4714  154.0329 H   0  0  0  0  0  0  0  0  0  0  0  0  # atno 10764 bound_to 10752
  153.1722  135.6880  153.8681 H   0  0  0  0  0  0  0  0  0  0  0  0  # atno 10765 bound_to 10752
  140.6868  134.4085  157.5222 H   0  0  0  0  0  0  0  0  0  0  0  0  # atno 11005 bound_to 11000
  145.7409  141.0008  143.1301 LP  0  0  0  0  0  0  0  0  0  0  0  0  # atno 17320 bound_to 7965
  144.6937  139.9097  143.7463 LP  0  0  0  0  0  0  0  0  0  0  0  0  # atno 17321 bound_to 7965
  139.6240  144.7634  151.2678 LP  0  0  0  0  0  0  0  0  0  0  0  0  # atno 17342 bound_to 10162
  140.7401  143.6597  150.8175 LP  0  0  0  0  0  0  0  0  0  0  0  0  # atno 17343 bound_to 10162
  157.1984  130.6383  149.5730 LP  0  0  0  0  0  0  0  0  0  0  0  0  # atno 17370 bound_to 10713
  155.9747  130.4699  150.6411 LP  0  0  0  0  0  0  0  0  0  0  0  0  # atno 17371 bound_to 10713
  139.8935  134.8728  156.2219 LP  0  0  0  0  0  0  0  0  0  0  0  0  # atno 17394 bound_to 11000
  141.0274  133.7007  156.1371 LP  0  0  0  0  0  0  0  0  0  0  0  0  # atno 17395 bound_to 11000

$$$$
