AV-unprocessed.smi:1915|AV-procd|sdf|7760|dock1
  -GOLD-   22720 9503D 1   1.00000     0.00000
 Structure written by MMmdl.
 44 45  0  0  0  0  0  0  0  0  1 V2000
  153.0686  142.5554  160.7549 C   0  0  0  0  0  0  0  0  0  0  0  0
  152.5399  142.9989  159.3798 C   0  0  0  0  0  0  0  0  0  0  0  0
  152.4254  144.5292  159.3173 C   0  0  0  0  0  0  0  0  0  0  0  0
  151.1945  142.3409  158.9998 C   0  0  0  0  0  0  0  0  0  0  0  0
  151.3461  140.9658  158.5260 N   0  0  0  0  0  0  0  0  0  0  0  0
  152.6166  140.2755  158.6719 C   0  0  0  0  0  0  0  0  0  0  0  0
  152.3537  138.8243  158.2191 C   0  0  1  0  0  0  0  0  0  0  0  0
  152.3363  137.8427  159.4014 C   0  0  0  0  0  0  0  0  0  0  0  0
  151.3156  137.2058  159.6661 O   0  0  0  0  0  0  0  0  0  0  0  0
  153.4713  137.7354  160.1055 N   0  0  0  0  0  0  0  0  0  0  0  0
  153.6468  136.8736  161.2683 C   0  0  0  0  0  0  0  0  0  0  0  0
  154.6626  135.7493  161.0014 C   0  0  0  0  0  0  0  0  0  0  0  0
  154.3892  134.4830  161.7965 C   0  0  0  0  0  0  0  0  0  0  0  0
  154.4659  134.4934  163.2055 C   0  0  0  0  0  0  0  0  0  0  0  0
  154.2178  133.2941  163.9006 C   0  0  0  0  0  0  0  0  0  0  0  0
  153.9049  132.1355  163.1638 C   0  0  0  0  0  0  0  0  0  0  0  0
  153.8541  132.2283  161.7588 C   0  0  0  0  0  0  0  0  0  0  0  0
  154.0914  133.3730  161.0825 N   0  0  0  0  0  0  0  0  0  0  0  0
  150.9911  138.8726  157.4994 C   0  0  0  0  0  0  0  0  0  0  0  0
  150.4496  140.2527  157.8341 C   0  0  0  0  0  0  0  0  0  0  0  0
  149.3245  140.6242  157.5033 O   0  0  0  0  0  0  0  0  0  0  0  0
  152.3424  142.7585  161.5424 H   0  0  0  0  0  0  0  0  0  0  0  0
  153.9897  143.0808  161.0088 H   0  0  0  0  0  0  0  0  0  0  0  0
  153.2951  141.4894  160.7732 H   0  0  0  0  0  0  0  0  0  0  0  0
  153.2794  142.7014  158.6349 H   0  0  0  0  0  0  0  0  0  0  0  0
  151.6967  144.9012  160.0383 H   0  0  0  0  0  0  0  0  0  0  0  0
  152.1130  144.8604  158.3263 H   0  0  0  0  0  0  0  0  0  0  0  0
  153.3819  145.0059  159.5344 H   0  0  0  0  0  0  0  0  0  0  0  0
  150.5124  142.3675  159.8515 H   0  0  0  0  0  0  0  0  0  0  0  0
  150.7103  142.9218  158.2135 H   0  0  0  0  0  0  0  0  0  0  0  0
  153.3618  140.7502  158.0321 H   0  0  0  0  0  0  0  0  0  0  0  0
  152.9755  140.3439  159.7004 H   0  0  0  0  0  0  0  0  0  0  0  0
  153.1296  138.5173  157.5154 H   0  0  0  0  0  0  0  0  0  0  0  0
  154.2622  138.3004  159.8303 H   0  0  0  0  0  0  0  0  0  0  0  0
  153.9824  137.4705  162.1182 H   0  0  0  0  0  0  0  0  0  0  0  0
  152.6820  136.4446  161.5415 H   0  0  0  0  0  0  0  0  0  0  0  0
  154.6636  135.5052  159.9385 H   0  0  0  0  0  0  0  0  0  0  0  0
  155.6700  136.1013  161.2291 H   0  0  0  0  0  0  0  0  0  0  0  0
  154.7115  135.3979  163.7423 H   0  0  0  0  0  0  0  0  0  0  0  0
  154.2674  133.2635  164.9789 H   0  0  0  0  0  0  0  0  0  0  0  0
  153.7084  131.1984  163.6634 H   0  0  0  0  0  0  0  0  0  0  0  0
  153.6167  131.3601  161.1620 H   0  0  0  0  0  0  0  0  0  0  0  0
  151.1138  138.7829  156.4197 H   0  0  0  0  0  0  0  0  0  0  0  0
  150.2940  138.0983  157.8239 H   0  0  0  0  0  0  0  0  0  0  0  0
  1  2  1  0  0  0  0
  1 22  1  0  0  0  0
  1 23  1  0  0  0  0
  1 24  1  0  0  0  0
  2  3  1  0  0  0  0
  2  4  1  0  0  0  0
  2 25  1  0  0  0  0
  3 26  1  0  0  0  0
  3 27  1  0  0  0  0
  3 28  1  0  0  0  0
  4  5  1  0  0  0  0
  4 29  1  0  0  0  0
  4 30  1  0  0  0  0
  5 20  1  0  0  0  0
  5  6  1  0  0  0  0
  6  7  1  0  0  0  0
  6 31  1  0  0  0  0
  6 32  1  0  0  0  0
  7  8  1  0  0  0  0
  7 19  1  0  0  0  0
  7 33  1  0  0  0  0
  8  9  2  0  0  0  0
  8 10  1  0  0  0  0
 10 11  1  0  0  0  0
 10 34  1  0  0  0  0
 11 12  1  0  0  0  0
 11 35  1  0  0  0  0
 11 36  1  0  0  0  0
 12 13  1  0  0  0  0
 12 37  1  0  0  0  0
 12 38  1  0  0  0  0
 13 18  1  0  0  0  0
 13 14  2  0  0  0  0
 14 15  1  0  0  0  0
 14 39  1  0  0  0  0
 15 16  2  0  0  0  0
 15 40  1  0  0  0  0
 16 17  1  0  0  0  0
 16 41  1  0  0  0  0
 17 18  2  0  0  0  0
 17 42  1  0  0  0  0
 19 20  1  0  0  0  0
 19 43  1  0  0  0  0
 19 44  1  0  0  0  0
 20 21  2  0  0  0  0
M  END
> <s_m_source_file>
AV-unprocessed.smi

> <i_m_source_file_index>
1915

> <i_lp_mmshare_version>
43012

> <i_f3d_flags>
0

> <s_epik_input>
W0NIM11bQ0hdKFtDSDNdKVtDSDJdTjFbQ0gyXVtDQEhdKFtDSDJdQzE9TylDKD1PKVtOSF1bQ0gyXVtDSDJdYzJbY0hdW2NIXVtjSF1bY0hdbjI=

> <s_epik_cmdline>
J2VwaWtfcHl0aG9uJywgJy1waCcsICc3LjAnLCAnLXRuJywgJzgnLCAnLW1hJywgJzIwMCcsICctbWV0YWxfYmluZGluZycsICctaW1hZScsICc8aW5maWxlLm1hZT4nLCAnLW9tYWUnLCAnPG91dGZpbGUubWFlPic=

> <r_epik_Ionization_Penalty>
0.0252359

> <r_epik_Ionization_Penalty_Charging>
0

> <r_epik_Ionization_Penalty_Neutral>
0.0252359

> <r_epik_State_Penalty>
0.020532

> <r_epik_Charging_Adjusted_Penalty>
0.020532

> <i_epik_Tot_Q>
0

> <i_epik_Tot_abs_Q>
0

> <r_epik_Metal_State_Penalty>
0.0196901

> <b_epik_Metal_Only>
0

> <s_lp_Force_Field>
OPLS_2005

> <r_lp_Energy>
14.3845

> <b_lp_Chiralities_Consistent>
1

> <s_lp_Variant>
AV-unprocessed.smi:1915-1

> <Gold.Version>
5.8.1

> <Gold.Id.Protein>
6NUR|6NUR_protein|mol2

> <Gold.PLP.Fitness>
43.7763

> <Gold.PLP.PLP>
-41.7452

> <Gold.PLP.part.hbond>
-1.0000

> <Gold.PLP.part.metal>
0.0000

> <Gold.PLP.part.buried>
-5.3691

> <Gold.PLP.part.nonpolar>
-35.9270

> <Gold.PLP.part.repulsive>
0.0436

> <Gold.PLP.ligand.clash>
0.0000

> <Gold.PLP.ligand.torsion>
0.5884

> <Gold.PLP.Chemscore.Hbond>
1.0000

> <Gold.PLP.Chemscore.CHOScore>
0.0000

> <Gold.PLP.Chemscore.Metal>
0.0000

> <Gold.Chemscore.Hbonds>
donor molecule, donor type, donor heavy atom, donor atom, acceptor molecule, acceptor atom, score
      P1  H  6896  6907       L1     9  0.86
      P1  H  6896  6908       L1    18  0.27

> <Gold.PLP.Chemscore.Internal.Correction>
0.2080

> <Gold.Rescore>
     Score         DG    S(hbond)    S(metal)    S(lipo)     H(rot)  DE(clash)    DE(int)     intcor
     17.00     -18.00       1.00        0.00     116.71       1.75       0.00       1.00       ----

> <Gold.Chemscore.Fitness>
17.0033

> <Gold.Chemscore.DG>
-18.0049

> <Gold.Chemscore.ZeroCoef>
-5.4800

> <Gold.Chemscore.Hbond>
0.9995

> <Gold.Chemscore.Metal>
0.0000

> <Gold.Chemscore.Lipo>
116.7114

> <Gold.Chemscore.Internal_Hbond>
0.0000

> <Gold.Chemscore.DEClash>
0.0048

> <Gold.Chemscore.DEInternal>
0.9968

> <Gold.Chemscore.Rot>
1.7456

> <Gold.Chemscore.Internal.Correction>
   9.000000E+99

> <Gold.Chemscore.Hbonds>
donor molecule, donor type, donor heavy atom, donor atom, acceptor molecule, acceptor atom, score
      P1  H  6896  6907       L1     9  0.76
      P1  H  6896  6908       L1    18  0.15

> <Gold.Chemscore.Hbond.Weighted>
-3.3384

> <Gold.Chemscore.Metal.Weighted>
-0.0000

> <Gold.Chemscore.Lipo.Weighted>
-13.6552

> <Gold.Chemscore.Internal_Hbond.Weighted>
0.0000

> <Gold.Chemscore.DEClash.Weighted>
0.0048

> <Gold.Chemscore.DEInternal.Weighted>
0.9968

> <Gold.Chemscore.Rot.Weighted>
4.4688

> <Gold.Chemscore.Internal.Correction.Weighted>
   9.000000E+99

> <Gold.Protein.RotatedTorsions>
[ 6907 6896 6895 6894 ] final    3.50 input  -60.11 | X-H torsion
[ 7974 7965 7964 7962 ] final  153.37 input  175.53 | X-H torsion
[ 8008 7997 7996 7995 ] final  130.84 input   59.86 | X-H torsion
[ 10167 10162 10161 10158 ] final  126.69 input  -65.29 | X-H torsion
[ 10718 10713 10712 10709 ] final   73.27 input   66.30 | X-H torsion
[ 10763 10752 10751 10750 ] final   50.41 input  -60.55 | X-H torsion
[ 11005 11000 10999 10996 ] final   29.53 input  -57.11 | X-H torsion

> <Gold.Protein.ActiveResidues>
 VAL166  LYS551  ARG553  GLY616  TRP617  ASP618  TYR619  PRO620  LYS621  CYS622 
 ASP623  PHE694  ASN695  SER759  ASP760  ASP761  ALA762  ILE779  LEU786  VAL792 
 PHE793  MET794  SER795  GLU796  ALA797  LYS798  CYS799  TRP800  GLU811  SER814 

> <Gold.Protein.RotatedAtoms>
  151.6260  135.1027  160.0111 H   0  0  0  0  0  0  0  0  0  0  0  0  # atno 6907 bound_to 6896
  152.4132  133.6992  159.6424 H   0  0  0  0  0  0  0  0  0  0  0  0  # atno 6908 bound_to 6896
  150.8021  133.8504  159.3244 H   0  0  0  0  0  0  0  0  0  0  0  0  # atno 6909 bound_to 6896
  144.8159  139.6791  143.6121 H   0  0  0  0  0  0  0  0  0  0  0  0  # atno 7974 bound_to 7965
  156.2961  140.2586  156.2828 H   0  0  0  0  0  0  0  0  0  0  0  0  # atno 8008 bound_to 7997
  154.9586  140.0393  157.2197 H   0  0  0  0  0  0  0  0  0  0  0  0  # atno 8009 bound_to 7997
  154.7968  140.2821  155.5955 H   0  0  0  0  0  0  0  0  0  0  0  0  # atno 8010 bound_to 7997
  139.5618  144.6886  151.4023 H   0  0  0  0  0  0  0  0  0  0  0  0  # atno 10167 bound_to 10162
  157.6540  130.9620  150.1045 H   0  0  0  0  0  0  0  0  0  0  0  0  # atno 10718 bound_to 10713
  152.9785  135.5880  154.4247 H   0  0  0  0  0  0  0  0  0  0  0  0  # atno 10763 bound_to 10752
  154.3868  135.2767  155.2181 H   0  0  0  0  0  0  0  0  0  0  0  0  # atno 10764 bound_to 10752
  154.4070  135.6090  153.5985 H   0  0  0  0  0  0  0  0  0  0  0  0  # atno 10765 bound_to 10752
  140.3040  134.2724  155.7748 H   0  0  0  0  0  0  0  0  0  0  0  0  # atno 11005 bound_to 11000
  146.2462  139.6104  142.9458 LP  0  0  0  0  0  0  0  0  0  0  0  0  # atno 17320 bound_to 7965
  145.5215  141.0431  143.2433 LP  0  0  0  0  0  0  0  0  0  0  0  0  # atno 17321 bound_to 7965
  140.6898  143.7889  150.7238 LP  0  0  0  0  0  0  0  0  0  0  0  0  # atno 17342 bound_to 10162
  140.1367  143.4477  152.2220 LP  0  0  0  0  0  0  0  0  0  0  0  0  # atno 17343 bound_to 10162
  156.1959  130.3657  149.8850 LP  0  0  0  0  0  0  0  0  0  0  0  0  # atno 17370 bound_to 10713
  156.6767  130.8842  151.3570 LP  0  0  0  0  0  0  0  0  0  0  0  0  # atno 17371 bound_to 10713
  141.2122  133.7665  156.9809 LP  0  0  0  0  0  0  0  0  0  0  0  0  # atno 17394 bound_to 11000
  140.1084  134.9492  157.2028 LP  0  0  0  0  0  0  0  0  0  0  0  0  # atno 17395 bound_to 11000

$$$$
