AV-unprocessed.smi:632|AV-procd|sdf|3128|dock7
  -GOLD-   22720 0 53D 1   1.00000     0.00000
 Structure written by MMmdl.
 41 42  0  0  0  0  0  0  0  0  2 V2000
  152.6232  142.5740  160.0537 C   0  0  0  0  0  0  0  0  0  0  0  0
  151.9070  143.7688  159.3944 C   0  0  0  0  0  0  0  0  0  0  0  0
  151.7709  144.8753  160.4634 C   0  0  0  0  0  0  0  0  0  0  0  0
  152.7536  144.3398  158.2404 C   0  0  0  0  0  0  0  0  0  0  0  0
  150.5568  143.3340  158.8736 C   0  0  0  0  0  0  0  0  0  0  0  0
  149.4151  143.8643  159.3293 N   0  0  0  0  0  0  0  0  0  0  0  0
  148.2932  143.3254  158.7184 N   0  0  0  0  0  0  0  0  0  0  0  0
  148.5895  142.3974  157.7994 C   0  0  0  0  0  0  0  0  0  0  0  0
  147.6440  141.7534  157.0951 N   0  5  0  0  0  0  0  0  0  0  0  0
  147.9530  141.1950  155.9026 C   0  0  0  0  0  0  0  0  0  0  0  0
  148.7820  141.6157  155.0925 O   0  0  0  0  0  0  0  0  0  0  0  0
  147.2584  140.0800  155.6331 N   0  0  0  0  0  0  0  0  0  0  0  0
  147.3766  139.2607  154.4297 C   0  0  2  0  0  0  0  0  0  0  0  0
  147.2310  140.1290  153.1623 C   0  0  0  0  0  0  0  0  0  0  0  0
  147.2747  139.2730  151.8863 C   0  0  0  0  0  0  0  0  0  0  0  0
  146.2052  138.1680  151.9227 C   0  0  1  0  0  0  0  0  0  0  0  0
  146.3215  137.3600  150.7704 O   0  0  0  0  0  0  0  0  0  0  0  0
  146.3548  137.2943  153.1800 C   0  0  0  0  0  0  0  0  0  0  0  0
  146.3096  138.1497  154.4565 C   0  0  0  0  0  0  0  0  0  0  0  0
  150.3180  142.1001  157.6357 S   0  0  0  0  0  0  0  0  0  0  0  0
  153.5952  142.8640  160.4543 H   0  0  0  0  0  0  0  0  0  0  0  0
  152.7950  141.7677  159.3399 H   0  0  0  0  0  0  0  0  0  0  0  0
  152.0360  142.1648  160.8765 H   0  0  0  0  0  0  0  0  0  0  0  0
  151.1910  144.5362  161.3225 H   0  0  0  0  0  0  0  0  0  0  0  0
  151.2840  145.7650  160.0625 H   0  0  0  0  0  0  0  0  0  0  0  0
  152.7468  145.1860  160.8380 H   0  0  0  0  0  0  0  0  0  0  0  0
  153.7296  144.6767  158.5911 H   0  0  0  0  0  0  0  0  0  0  0  0
  152.2595  145.1909  157.7705 H   0  0  0  0  0  0  0  0  0  0  0  0
  152.9280  143.5930  157.4652 H   0  0  0  0  0  0  0  0  0  0  0  0
  146.5905  139.7755  156.3262 H   0  0  0  0  0  0  0  0  0  0  0  0
  148.3583  138.7833  154.4201 H   0  0  0  0  0  0  0  0  0  0  0  0
  146.2890  140.6782  153.1976 H   0  0  0  0  0  0  0  0  0  0  0  0
  148.0228  140.8781  153.1248 H   0  0  0  0  0  0  0  0  0  0  0  0
  147.1296  139.9080  151.0115 H   0  0  0  0  0  0  0  0  0  0  0  0
  148.2658  138.8281  151.7859 H   0  0  0  0  0  0  0  0  0  0  0  0
  145.2142  138.6236  151.9145 H   0  0  0  0  0  0  0  0  0  0  0  0
  145.6136  137.5744  150.1823 H   0  0  0  0  0  0  0  0  0  0  0  0
  145.5650  136.5429  153.2114 H   0  0  0  0  0  0  0  0  0  0  0  0
  147.2997  136.7499  153.1446 H   0  0  0  0  0  0  0  0  0  0  0  0
  146.4556  137.5128  155.3298 H   0  0  0  0  0  0  0  0  0  0  0  0
  145.3176  138.5921  154.5591 H   0  0  0  0  0  0  0  0  0  0  0  0
  1  2  1  0  0  0  0
  1 21  1  0  0  0  0
  1 22  1  0  0  0  0
  1 23  1  0  0  0  0
  2  3  1  0  0  0  0
  2  4  1  0  0  0  0
  2  5  1  0  0  0  0
  3 24  1  0  0  0  0
  3 25  1  0  0  0  0
  3 26  1  0  0  0  0
  4 27  1  0  0  0  0
  4 28  1  0  0  0  0
  4 29  1  0  0  0  0
  5 20  1  0  0  0  0
  5  6  2  0  0  0  0
  6  7  1  0  0  0  0
  7  8  2  0  0  0  0
  8  9  1  0  0  0  0
  8 20  1  0  0  0  0
  9 10  1  0  0  0  0
 10 11  2  0  0  0  0
 10 12  1  0  0  0  0
 12 13  1  0  0  0  0
 12 30  1  0  0  0  0
 13 19  1  0  0  0  0
 13 14  1  0  0  0  0
 13 31  1  0  0  0  0
 14 15  1  0  0  0  0
 14 32  1  0  0  0  0
 14 33  1  0  0  0  0
 15 16  1  0  0  0  0
 15 34  1  0  0  0  0
 15 35  1  0  0  0  0
 16 17  1  0  0  0  0
 16 18  1  0  0  0  0
 16 36  1  0  0  0  0
 17 37  1  0  0  0  0
 18 19  1  0  0  0  0
 18 38  1  0  0  0  0
 18 39  1  0  0  0  0
 19 40  1  0  0  0  0
 19 41  1  0  0  0  0
M  CHG  1   9  -1
M  END
> <s_m_source_file>
AV-unprocessed.smi

> <i_m_source_file_index>
632

> <i_lp_mmshare_version>
43012

> <i_f3d_flags>
0

> <s_epik_input>
W0NIM11DKFtDSDNdKShbQ0gzXSljMW5uYyhzMSlbTkhdQyg9TylbTkhdW0NAQEhdMltDSDJdW0NIMl1bQ0BASF0oW09IXSlbQ0gyXVtDSDJdMg==

> <s_epik_cmdline>
J2VwaWtfcHl0aG9uJywgJy1waCcsICc3LjAnLCAnLXRuJywgJzgnLCAnLW1hJywgJzIwMCcsICctbWV0YWxfYmluZGluZycsICctaW1hZScsICc8aW5maWxlLm1hZT4nLCAnLW9tYWUnLCAnPG91dGZpbGUubWFlPic=

> <r_lp_tautomer_probability>
1

> <r_epik_Ionization_Penalty>
4.62389

> <r_epik_Ionization_Penalty_Charging>
4.45204

> <r_epik_Ionization_Penalty_Neutral>
0.171842

> <r_epik_State_Penalty>
4.45172

> <r_epik_Charging_Adjusted_Penalty>
8.90376

> <i_epik_Tot_Q>
-1

> <i_epik_Tot_abs_Q>
1

> <r_epik_Metal_State_Penalty>
0.795834

> <b_epik_Metal_Only>
1

> <s_lp_Force_Field>
OPLS_2005

> <r_lp_Energy>
0.241417

> <b_lp_Chiralities_Consistent>
1

> <s_lp_Variant>
AV-unprocessed.smi:632-3

> <Gold.Version>
5.8.1

> <Gold.Id.Protein>
6NUR|6NUR_protein|mol2

> <Gold.PLP.Fitness>
40.3118

> <Gold.PLP.PLP>
-35.0994

> <Gold.PLP.part.hbond>
-3.4182

> <Gold.PLP.part.metal>
0.0000

> <Gold.PLP.part.buried>
1.4277

> <Gold.PLP.part.nonpolar>
-33.7905

> <Gold.PLP.part.repulsive>
0.8866

> <Gold.PLP.ligand.clash>
0.0000

> <Gold.PLP.ligand.torsion>
0.3811

> <Gold.PLP.Chemscore.Hbond>
1.9833

> <Gold.PLP.Chemscore.CHOScore>
0.0000

> <Gold.PLP.Chemscore.Metal>
0.0000

> <Gold.Chemscore.Hbonds>
donor molecule, donor type, donor heavy atom, donor atom, acceptor molecule, acceptor atom, score
      L1  H    17    37       P1 10171  0.99
      P1  H  7954  7966       L1    17  0.83

> <Gold.PLP.Chemscore.Internal.Correction>
0.0248

> <Gold.Rescore>
     Score         DG    S(hbond)    S(metal)    S(lipo)     H(rot)  DE(clash)    DE(int)     intcor
     14.67     -18.51       1.83        0.00      95.92       1.67       1.84       2.00       ----

> <Gold.Chemscore.Fitness>
14.6722

> <Gold.Chemscore.DG>
-18.5146

> <Gold.Chemscore.ZeroCoef>
-5.4800

> <Gold.Chemscore.Hbond>
1.8253

> <Gold.Chemscore.Metal>
0.0000

> <Gold.Chemscore.Lipo>
95.9220

> <Gold.Chemscore.Internal_Hbond>
0.0000

> <Gold.Chemscore.DEClash>
1.8439

> <Gold.Chemscore.DEInternal>
1.9986

> <Gold.Chemscore.Rot>
1.6737

> <Gold.Chemscore.Internal.Correction>
   9.000000E+99

> <Gold.Chemscore.Hbonds>
donor molecule, donor type, donor heavy atom, donor atom, acceptor molecule, acceptor atom, score
      L1  H    17    37       P1 10171  0.87
      P1  H  7954  7966       L1    17  0.36

> <Gold.Chemscore.Hbond.Weighted>
-6.0965

> <Gold.Chemscore.Metal.Weighted>
-0.0000

> <Gold.Chemscore.Lipo.Weighted>
-11.2229

> <Gold.Chemscore.Internal_Hbond.Weighted>
0.0000

> <Gold.Chemscore.DEClash.Weighted>
1.8439

> <Gold.Chemscore.DEInternal.Weighted>
1.9986

> <Gold.Chemscore.Rot.Weighted>
4.2848

> <Gold.Chemscore.Internal.Correction.Weighted>
   9.000000E+99

> <Gold.Protein.RotatedTorsions>
[ 6907 6896 6895 6894 ] final -115.05 input  -60.11 | X-H torsion
[ 7974 7965 7964 7962 ] final -148.84 input  175.53 | X-H torsion
[ 8008 7997 7996 7995 ] final  117.02 input   59.86 | X-H torsion
[ 10167 10162 10161 10158 ] final  162.90 input  -65.29 | X-H torsion
[ 10718 10713 10712 10709 ] final -129.08 input   66.30 | X-H torsion
[ 10763 10752 10751 10750 ] final  115.76 input  -60.55 | X-H torsion
[ 11005 11000 10999 10996 ] final   75.52 input  -57.11 | X-H torsion

> <Gold.Protein.ActiveResidues>
 VAL166  LYS551  ARG553  GLY616  TRP617  ASP618  TYR619  PRO620  LYS621  CYS622 
 ASP623  PHE694  ASN695  SER759  ASP760  ASP761  ALA762  ILE779  LEU786  VAL792 
 PHE793  MET794  SER795  GLU796  ALA797  LYS798  CYS799  TRP800  GLU811  SER814 

> <Gold.Protein.RotatedAtoms>
  150.7948  133.8713  159.3259 H   0  0  0  0  0  0  0  0  0  0  0  0  # atno 6907 bound_to 6896
  151.6541  135.0996  160.0176 H   0  0  0  0  0  0  0  0  0  0  0  0  # atno 6908 bound_to 6896
  152.4028  133.6805  159.6366 H   0  0  0  0  0  0  0  0  0  0  0  0  # atno 6909 bound_to 6896
  144.8004  140.5143  143.5711 H   0  0  0  0  0  0  0  0  0  0  0  0  # atno 7974 bound_to 7965
  156.2472  140.2905  156.0614 H   0  0  0  0  0  0  0  0  0  0  0  0  # atno 8008 bound_to 7997
  155.1771  140.0403  157.2892 H   0  0  0  0  0  0  0  0  0  0  0  0  # atno 8009 bound_to 7997
  154.6285  140.2493  155.7469 H   0  0  0  0  0  0  0  0  0  0  0  0  # atno 8010 bound_to 7997
  139.4866  144.4391  151.8974 H   0  0  0  0  0  0  0  0  0  0  0  0  # atno 10167 bound_to 10162
  156.2012  130.6858  151.0541 H   0  0  0  0  0  0  0  0  0  0  0  0  # atno 10718 bound_to 10713
  153.5270  135.3586  155.2658 H   0  0  0  0  0  0  0  0  0  0  0  0  # atno 10763 bound_to 10752
  154.8730  135.4059  154.3195 H   0  0  0  0  0  0  0  0  0  0  0  0  # atno 10764 bound_to 10752
  153.3876  135.7070  153.6586 H   0  0  0  0  0  0  0  0  0  0  0  0  # atno 10765 bound_to 10752
  139.9340  134.7524  156.1281 H   0  0  0  0  0  0  0  0  0  0  0  0  # atno 11005 bound_to 11000
  145.5567  139.1478  143.3364 LP  0  0  0  0  0  0  0  0  0  0  0  0  # atno 17320 bound_to 7965
  146.2284  140.5704  142.8986 LP  0  0  0  0  0  0  0  0  0  0  0  0  # atno 17321 bound_to 7965
  140.3842  144.2697  150.5905 LP  0  0  0  0  0  0  0  0  0  0  0  0  # atno 17342 bound_to 10162
  140.5205  143.2267  151.8396 LP  0  0  0  0  0  0  0  0  0  0  0  0  # atno 17343 bound_to 10162
  157.6987  131.0784  150.6889 LP  0  0  0  0  0  0  0  0  0  0  0  0  # atno 17370 bound_to 10713
  156.6947  130.4605  149.5590 LP  0  0  0  0  0  0  0  0  0  0  0  0  # atno 17371 bound_to 10713
  141.0944  133.6701  156.2612 LP  0  0  0  0  0  0  0  0  0  0  0  0  # atno 17394 bound_to 11000
  140.6125  134.5443  157.5536 LP  0  0  0  0  0  0  0  0  0  0  0  0  # atno 17395 bound_to 11000

$$$$
