AV-unprocessed.smi:2592|AV-procd|sdf|10159|dock4
  -GOLD-   2272014173D 1   1.00000     0.00000
 Structure written by MMmdl.
 43 44  0  0  0  0  0  0  0  0  2 V2000
  152.1819  143.9786  160.9315 C   0  0  0  0  0  0  0  0  0  0  0  0
  151.9228  143.0463  159.7880 C   0  0  0  0  0  0  0  0  0  0  0  0
  150.9750  143.3906  158.8199 N   0  0  0  0  0  0  0  0  0  0  0  0
  150.8577  142.4567  157.8708 C   0  0  0  0  0  0  0  0  0  0  0  0
  149.9680  142.5429  156.7678 N   0  0  0  0  0  0  0  0  0  0  0  0
  149.4967  141.5428  156.0025 C   0  0  0  0  0  0  0  0  0  0  0  0
  149.7646  140.3492  156.1449 O   0  0  0  0  0  0  0  0  0  0  0  0
  148.6789  142.0045  155.0451 N   0  0  0  0  0  0  0  0  0  0  0  0
  148.0160  141.1761  154.0438 C   0  0  0  0  0  0  0  0  0  0  0  0
  146.8116  141.8955  153.4132 C   0  0  0  0  0  0  0  0  0  0  0  0
  145.9517  142.6196  154.4628 C   0  0  0  0  0  0  0  0  0  0  0  0
  145.0552  143.6384  153.8608 N   0  3  0  0  0  0  0  0  0  0  0  0
  144.4355  144.5174  154.8816 C   0  0  0  0  0  0  0  0  0  0  0  0
  143.4804  145.5258  154.2205 C   0  0  0  0  0  0  0  0  0  0  0  0
  144.1859  146.2834  153.2459 O   0  0  0  0  0  0  0  0  0  0  0  0
  144.7078  145.4606  152.2103 C   0  0  0  0  0  0  0  0  0  0  0  0
  145.7063  144.4533  152.8047 C   0  0  0  0  0  0  0  0  0  0  0  0
  151.9183  141.0782  158.1052 S   0  0  0  0  0  0  0  0  0  0  0  0
  152.5305  141.8338  159.5555 C   0  0  0  0  0  0  0  0  0  0  0  0
  153.5810  141.1671  160.3803 C   0  0  0  0  0  0  0  0  0  0  0  0
  153.1464  144.4745  160.8215 H   0  0  0  0  0  0  0  0  0  0  0  0
  152.1908  143.4442  161.8817 H   0  0  0  0  0  0  0  0  0  0  0  0
  151.4185  144.7541  161.0002 H   0  0  0  0  0  0  0  0  0  0  0  0
  149.6585  143.4746  156.5335 H   0  0  0  0  0  0  0  0  0  0  0  0
  148.5148  142.9996  154.9961 H   0  0  0  0  0  0  0  0  0  0  0  0
  148.7467  140.9275  153.2739 H   0  0  0  0  0  0  0  0  0  0  0  0
  147.7050  140.2311  154.4927 H   0  0  0  0  0  0  0  0  0  0  0  0
  147.1717  142.6075  152.6710 H   0  0  0  0  0  0  0  0  0  0  0  0
  146.1980  141.1714  152.8756 H   0  0  0  0  0  0  0  0  0  0  0  0
  145.3441  141.8722  154.9754 H   0  0  0  0  0  0  0  0  0  0  0  0
  146.5799  143.0823  155.2257 H   0  0  0  0  0  0  0  0  0  0  0  0
  143.8852  143.9149  155.6052 H   0  0  0  0  0  0  0  0  0  0  0  0
  145.2156  145.0469  155.4311 H   0  0  0  0  0  0  0  0  0  0  0  0
  142.6322  145.0169  153.7597 H   0  0  0  0  0  0  0  0  0  0  0  0
  143.0750  146.2056  154.9700 H   0  0  0  0  0  0  0  0  0  0  0  0
  143.8962  144.9462  151.6928 H   0  0  0  0  0  0  0  0  0  0  0  0
  145.2049  146.0922  151.4738 H   0  0  0  0  0  0  0  0  0  0  0  0
  146.5620  144.9837  153.2258 H   0  0  0  0  0  0  0  0  0  0  0  0
  146.0866  143.8160  152.0072 H   0  0  0  0  0  0  0  0  0  0  0  0
  153.1451  140.7318  161.2796 H   0  0  0  0  0  0  0  0  0  0  0  0
  154.3464  141.8805  160.6862 H   0  0  0  0  0  0  0  0  0  0  0  0
  154.0727  140.3696  159.8230 H   0  0  0  0  0  0  0  0  0  0  0  0
  144.2969  143.1351  153.4228 H   0  0  0  0  0  0  0  0  0  0  0  0
  1  2  1  0  0  0  0
  1 21  1  0  0  0  0
  1 22  1  0  0  0  0
  1 23  1  0  0  0  0
  2 19  2  0  0  0  0
  2  3  1  0  0  0  0
  3  4  2  0  0  0  0
  4  5  1  0  0  0  0
  4 18  1  0  0  0  0
  5  6  1  0  0  0  0
  5 24  1  0  0  0  0
  6  7  2  0  0  0  0
  6  8  1  0  0  0  0
  8  9  1  0  0  0  0
  8 25  1  0  0  0  0
  9 10  1  0  0  0  0
  9 26  1  0  0  0  0
  9 27  1  0  0  0  0
 10 11  1  0  0  0  0
 10 28  1  0  0  0  0
 10 29  1  0  0  0  0
 11 12  1  0  0  0  0
 11 30  1  0  0  0  0
 11 31  1  0  0  0  0
 12 17  1  0  0  0  0
 12 13  1  0  0  0  0
 12 43  1  0  0  0  0
 13 14  1  0  0  0  0
 13 32  1  0  0  0  0
 13 33  1  0  0  0  0
 14 15  1  0  0  0  0
 14 34  1  0  0  0  0
 14 35  1  0  0  0  0
 15 16  1  0  0  0  0
 16 17  1  0  0  0  0
 16 36  1  0  0  0  0
 16 37  1  0  0  0  0
 17 38  1  0  0  0  0
 17 39  1  0  0  0  0
 18 19  1  0  0  0  0
 19 20  1  0  0  0  0
 20 40  1  0  0  0  0
 20 41  1  0  0  0  0
 20 42  1  0  0  0  0
M  CHG  1  12   1
M  END
> <s_m_source_file>
AV-unprocessed.smi

> <i_m_source_file_index>
2592

> <i_lp_mmshare_version>
43012

> <i_f3d_flags>
0

> <s_epik_input>
W0NIM11jMW5jKHNjMVtDSDNdKVtOSF1DKD1PKVtOSF1bQ0gyXVtDSDJdW0NIMl1OMltDSDJdW0NIMl1PW0NIMl1bQ0gyXTI=

> <s_epik_cmdline>
J2VwaWtfcHl0aG9uJywgJy1waCcsICc3LjAnLCAnLXRuJywgJzgnLCAnLW1hJywgJzIwMCcsICctbWV0YWxfYmluZGluZycsICctaW1hZScsICc8aW5maWxlLm1hZT4nLCAnLW9tYWUnLCAnPG91dGZpbGUubWFlPic=

> <r_lp_tautomer_probability>
0.999

> <r_epik_Ionization_Penalty>
0.281876

> <r_epik_Ionization_Penalty_Charging>
0.281705

> <r_epik_Ionization_Penalty_Neutral>
0.000171168

> <r_epik_State_Penalty>
0.274317

> <r_epik_Charging_Adjusted_Penalty>
0.556022

> <i_epik_Tot_Q>
1

> <i_epik_Tot_abs_Q>
1

> <r_epik_Metal_State_Penalty>
0.293174

> <b_epik_Metal_Only>
0

> <s_lp_Force_Field>
OPLS_2005

> <r_lp_Energy>
13.2764

> <b_lp_Chiralities_Consistent>
1

> <s_lp_Variant>
AV-unprocessed.smi:2592-1

> <Gold.Version>
5.8.1

> <Gold.Id.Protein>
6NUR|6NUR_protein|mol2

> <Gold.PLP.Fitness>
48.3516

> <Gold.PLP.PLP>
-41.2194

> <Gold.PLP.part.hbond>
-4.6708

> <Gold.PLP.part.metal>
0.0000

> <Gold.PLP.part.buried>
-3.3524

> <Gold.PLP.part.nonpolar>
-33.8679

> <Gold.PLP.part.repulsive>
0.4666

> <Gold.PLP.ligand.clash>
0.0000

> <Gold.PLP.ligand.torsion>
0.4781

> <Gold.PLP.Chemscore.Hbond>
2.6745

> <Gold.PLP.Chemscore.CHOScore>
0.0000

> <Gold.PLP.Chemscore.Metal>
0.0000

> <Gold.Chemscore.Hbonds>
donor molecule, donor type, donor heavy atom, donor atom, acceptor molecule, acceptor atom, score
      L1  H     5    24       P1  8028  1.00
      L1  H     8    25       P1  8028  0.99
      L1  H    12    43       P1 10174  0.67

> <Gold.PLP.Chemscore.Internal.Correction>
0.0649

> <Gold.Rescore>
     Score         DG    S(hbond)    S(metal)    S(lipo)     H(rot)  DE(clash)    DE(int)     intcor
     16.24     -19.20       1.95        0.00     100.17       1.76       1.45       1.50       ----

> <Gold.Chemscore.Fitness>
16.2439

> <Gold.Chemscore.DG>
-19.1984

> <Gold.Chemscore.ZeroCoef>
-5.4800

> <Gold.Chemscore.Hbond>
1.9467

> <Gold.Chemscore.Metal>
0.0000

> <Gold.Chemscore.Lipo>
100.1749

> <Gold.Chemscore.Internal_Hbond>
0.0000

> <Gold.Chemscore.DEClash>
1.4513

> <Gold.Chemscore.DEInternal>
1.5031

> <Gold.Chemscore.Rot>
1.7593

> <Gold.Chemscore.Internal.Correction>
   9.000000E+99

> <Gold.Chemscore.Hbonds>
donor molecule, donor type, donor heavy atom, donor atom, acceptor molecule, acceptor atom, score
      L1  H     5    24       P1  8028  0.99
      L1  H     8    25       P1  8028  0.94
      L1  H    12    43       P1 10174  0.02

> <Gold.Chemscore.Hbond.Weighted>
-6.5019

> <Gold.Chemscore.Metal.Weighted>
-0.0000

> <Gold.Chemscore.Lipo.Weighted>
-11.7205

> <Gold.Chemscore.Internal_Hbond.Weighted>
0.0000

> <Gold.Chemscore.DEClash.Weighted>
1.4513

> <Gold.Chemscore.DEInternal.Weighted>
1.5031

> <Gold.Chemscore.Rot.Weighted>
4.5039

> <Gold.Chemscore.Internal.Correction.Weighted>
   9.000000E+99

> <Gold.Protein.RotatedTorsions>
[ 6907 6896 6895 6894 ] final  -58.82 input  -60.11 | X-H torsion
[ 7974 7965 7964 7962 ] final -179.16 input  175.53 | X-H torsion
[ 8008 7997 7996 7995 ] final  158.88 input   59.86 | X-H torsion
[ 10167 10162 10161 10158 ] final -120.12 input  -65.29 | X-H torsion
[ 10718 10713 10712 10709 ] final -112.44 input   66.30 | X-H torsion
[ 10763 10752 10751 10750 ] final   81.69 input  -60.55 | X-H torsion
[ 11005 11000 10999 10996 ] final   13.01 input  -57.11 | X-H torsion

> <Gold.Protein.ActiveResidues>
 VAL166  LYS551  ARG553  GLY616  TRP617  ASP618  TYR619  PRO620  LYS621  CYS622 
 ASP623  PHE694  ASN695  SER759  ASP760  ASP761  ALA762  ILE779  LEU786  VAL792 
 PHE793  MET794  SER795  GLU796  ALA797  LYS798  CYS799  TRP800  GLU811  SER814 

> <Gold.Protein.RotatedAtoms>
  150.7977  134.7049  159.6570 H   0  0  0  0  0  0  0  0  0  0  0  0  # atno 6907 bound_to 6896
  152.4091  134.6152  160.0046 H   0  0  0  0  0  0  0  0  0  0  0  0  # atno 6908 bound_to 6896
  151.6400  133.3289  159.3164 H   0  0  0  0  0  0  0  0  0  0  0  0  # atno 6909 bound_to 6896
  144.7135  140.0759  143.6427 H   0  0  0  0  0  0  0  0  0  0  0  0  # atno 7974 bound_to 7965
  156.2275  140.1846  156.7327 H   0  0  0  0  0  0  0  0  0  0  0  0  # atno 8008 bound_to 7997
  154.5965  140.0642  156.9339 H   0  0  0  0  0  0  0  0  0  0  0  0  # atno 8009 bound_to 7997
  155.2246  140.3310  155.4313 H   0  0  0  0  0  0  0  0  0  0  0  0  # atno 8010 bound_to 7997
  140.0393  143.5169  152.2138 H   0  0  0  0  0  0  0  0  0  0  0  0  # atno 10167 bound_to 10162
  156.0706  130.5920  150.8509 H   0  0  0  0  0  0  0  0  0  0  0  0  # atno 10718 bound_to 10713
  153.1139  135.4756  154.9082 H   0  0  0  0  0  0  0  0  0  0  0  0  # atno 10763 bound_to 10752
  154.7508  135.3105  154.8563 H   0  0  0  0  0  0  0  0  0  0  0  0  # atno 10764 bound_to 10752
  153.9145  135.6861  153.4803 H   0  0  0  0  0  0  0  0  0  0  0  0  # atno 10765 bound_to 10752
  140.4855  134.0892  155.7760 H   0  0  0  0  0  0  0  0  0  0  0  0  # atno 11005 bound_to 11000
  145.9743  139.2893  143.1080 LP  0  0  0  0  0  0  0  0  0  0  0  0  # atno 17320 bound_to 7965
  145.9081  140.9198  143.0468 LP  0  0  0  0  0  0  0  0  0  0  0  0  # atno 17321 bound_to 7965
  139.6024  144.7586  151.3140 LP  0  0  0  0  0  0  0  0  0  0  0  0  # atno 17342 bound_to 10162
  140.7267  143.6982  150.7866 LP  0  0  0  0  0  0  0  0  0  0  0  0  # atno 17343 bound_to 10162
  157.5774  131.0946  150.9324 LP  0  0  0  0  0  0  0  0  0  0  0  0  # atno 17370 bound_to 10713
  156.9527  130.5426  149.5283 LP  0  0  0  0  0  0  0  0  0  0  0  0  # atno 17371 bound_to 10713
  141.1510  133.8969  157.2098 LP  0  0  0  0  0  0  0  0  0  0  0  0  # atno 17394 bound_to 11000
  139.9800  135.0101  156.9727 LP  0  0  0  0  0  0  0  0  0  0  0  0  # atno 17395 bound_to 11000

$$$$
