AV-unprocessed.smi:1592|AV-procd|sdf|6402|dock10
  -GOLD-   22720 7 43D 1   1.00000     0.00000
 Structure written by MMmdl.
 27 28  0  0  0  0  0  0  0  0  1 V2000
  153.3004  140.2552  158.5899 O   0  0  0  0  0  0  0  0  0  0  0  0
  152.5715  141.2476  158.5632 C   0  0  0  0  0  0  0  0  0  0  0  0
  151.6333  141.4833  157.6274 N   0  0  0  0  0  0  0  0  0  0  0  0
  151.2652  140.6752  156.5161 C   0  0  0  0  0  0  0  0  0  0  0  0
  152.0205  139.6395  156.0714 N   0  0  0  0  0  0  0  0  0  0  0  0
  151.6009  138.9212  155.0092 C   0  0  0  0  0  0  0  0  0  0  0  0
  150.4024  139.1892  154.3246 C   0  0  0  0  0  0  0  0  0  0  0  0
  149.6084  140.2586  154.7737 C   0  0  0  0  0  0  0  0  0  0  0  0
  150.0418  141.0131  155.8827 C   0  0  0  0  0  0  0  0  0  0  0  0
  149.2738  142.0551  156.3241 O   0  0  0  0  0  0  0  0  0  0  0  0
  152.7173  142.3298  159.6393 C   0  0  1  0  0  0  0  0  0  0  0  0
  153.2630  143.6713  159.1140 C   0  0  0  0  0  0  0  0  0  0  0  0
  152.0784  144.6111  159.2255 C   0  0  0  0  0  0  0  0  0  0  0  0
  151.3096  144.0095  160.3927 C   0  0  0  0  0  0  0  0  0  0  0  0
  151.4207  142.6146  160.1608 O   0  0  0  0  0  0  0  0  0  0  0  0
  151.1173  142.3465  157.7194 H   0  0  0  0  0  0  0  0  0  0  0  0
  152.2403  138.1090  154.6967 H   0  0  0  0  0  0  0  0  0  0  0  0
  150.1013  138.5904  153.4778 H   0  0  0  0  0  0  0  0  0  0  0  0
  148.6809  140.4961  154.2736 H   0  0  0  0  0  0  0  0  0  0  0  0
  149.5040  142.8803  155.9251 H   0  0  0  0  0  0  0  0  0  0  0  0
  153.3533  141.9717  160.4506 H   0  0  0  0  0  0  0  0  0  0  0  0
  154.0729  144.0141  159.7592 H   0  0  0  0  0  0  0  0  0  0  0  0
  153.6555  143.6284  158.0969 H   0  0  0  0  0  0  0  0  0  0  0  0
  152.3678  145.6488  159.3922 H   0  0  0  0  0  0  0  0  0  0  0  0
  151.4757  144.5635  158.3176 H   0  0  0  0  0  0  0  0  0  0  0  0
  151.7809  144.2619  161.3438 H   0  0  0  0  0  0  0  0  0  0  0  0
  150.2684  144.3306  160.4244 H   0  0  0  0  0  0  0  0  0  0  0  0
  1  2  2  0  0  0  0
  2  3  1  0  0  0  0
  2 11  1  0  0  0  0
  3  4  1  0  0  0  0
  3 16  1  0  0  0  0
  4  9  1  0  0  0  0
  4  5  2  0  0  0  0
  5  6  1  0  0  0  0
  6  7  2  0  0  0  0
  6 17  1  0  0  0  0
  7  8  1  0  0  0  0
  7 18  1  0  0  0  0
  8  9  2  0  0  0  0
  8 19  1  0  0  0  0
  9 10  1  0  0  0  0
 10 20  1  0  0  0  0
 11 15  1  0  0  0  0
 11 12  1  0  0  0  0
 11 21  1  0  0  0  0
 12 13  1  0  0  0  0
 12 22  1  0  0  0  0
 12 23  1  0  0  0  0
 13 14  1  0  0  0  0
 13 24  1  0  0  0  0
 13 25  1  0  0  0  0
 14 15  1  0  0  0  0
 14 26  1  0  0  0  0
 14 27  1  0  0  0  0
M  END
> <s_m_source_file>
AV-unprocessed.smi

> <i_m_source_file_index>
1592

> <i_lp_mmshare_version>
43012

> <i_f3d_flags>
0

> <s_epik_input>
TzFbQ0gyXVtDSDJdW0NIMl1bQ0BIXTFDKD1PKVtOSF1jMm5bY0hdW2NIXVtjSF1jMltPSF0=

> <s_epik_cmdline>
J2VwaWtfcHl0aG9uJywgJy1waCcsICc3LjAnLCAnLXRuJywgJzgnLCAnLW1hJywgJzIwMCcsICctbWV0YWxfYmluZGluZycsICctaW1hZScsICc8aW5maWxlLm1hZT4nLCAnLW9tYWUnLCAnPG91dGZpbGUubWFlPic=

> <r_lp_tautomer_probability>
0.43658

> <r_epik_Ionization_Penalty>
0.0209102

> <r_epik_Ionization_Penalty_Charging>
0

> <r_epik_Ionization_Penalty_Neutral>
0.0209102

> <r_epik_State_Penalty>
0.412899

> <r_epik_Charging_Adjusted_Penalty>
0.412899

> <i_epik_Tot_Q>
0

> <i_epik_Tot_abs_Q>
0

> <r_epik_Metal_State_Penalty>
0.372161

> <b_epik_Metal_Only>
0

> <s_lp_Force_Field>
OPLS_2005

> <r_lp_Energy>
20.3979

> <b_lp_Chiralities_Consistent>
1

> <s_lp_Variant>
AV-unprocessed.smi:1592-2

> <Gold.Version>
5.8.1

> <Gold.Id.Protein>
6NUR|6NUR_protein|mol2

> <Gold.PLP.Fitness>
38.0864

> <Gold.PLP.PLP>
-33.0568

> <Gold.PLP.part.hbond>
-3.0000

> <Gold.PLP.part.metal>
0.0000

> <Gold.PLP.part.buried>
-3.7827

> <Gold.PLP.part.nonpolar>
-27.0413

> <Gold.PLP.part.repulsive>
0.0963

> <Gold.PLP.ligand.clash>
0.0000

> <Gold.PLP.ligand.torsion>
0.2009

> <Gold.PLP.Chemscore.Hbond>
1.8080

> <Gold.PLP.Chemscore.CHOScore>
0.0000

> <Gold.PLP.Chemscore.Metal>
0.0000

> <Gold.Chemscore.Hbonds>
donor molecule, donor type, donor heavy atom, donor atom, acceptor molecule, acceptor atom, score
      L1  H    10    20       P1  8028  0.86
      P1  H  7997  8008       L1     1  0.93

> <Gold.PLP.Chemscore.Internal.Correction>
0.0074

> <Gold.Rescore>
     Score         DG    S(hbond)    S(metal)    S(lipo)     H(rot)  DE(clash)    DE(int)     intcor
     15.61     -16.97       1.89        0.00      76.63       1.47       0.03       1.33       ----

> <Gold.Chemscore.Fitness>
15.6146

> <Gold.Chemscore.DG>
-16.9742

> <Gold.Chemscore.ZeroCoef>
-5.4800

> <Gold.Chemscore.Hbond>
1.8871

> <Gold.Chemscore.Metal>
0.0000

> <Gold.Chemscore.Lipo>
76.6261

> <Gold.Chemscore.Internal_Hbond>
0.0000

> <Gold.Chemscore.DEClash>
0.0272

> <Gold.Chemscore.DEInternal>
1.3323

> <Gold.Chemscore.Rot>
1.4742

> <Gold.Chemscore.Internal.Correction>
   9.000000E+99

> <Gold.Chemscore.Hbonds>
donor molecule, donor type, donor heavy atom, donor atom, acceptor molecule, acceptor atom, score
      L1  H    10    20       P1  8028  0.84
      P1  H  7997  8008       L1     1  0.78

> <Gold.Chemscore.Hbond.Weighted>
-6.3028

> <Gold.Chemscore.Metal.Weighted>
-0.0000

> <Gold.Chemscore.Lipo.Weighted>
-8.9652

> <Gold.Chemscore.Internal_Hbond.Weighted>
0.0000

> <Gold.Chemscore.DEClash.Weighted>
0.0272

> <Gold.Chemscore.DEInternal.Weighted>
1.3323

> <Gold.Chemscore.Rot.Weighted>
3.7739

> <Gold.Chemscore.Internal.Correction.Weighted>
   9.000000E+99

> <Gold.Protein.RotatedTorsions>
[ 6907 6896 6895 6894 ] final  162.42 input  -60.11 | X-H torsion
[ 7974 7965 7964 7962 ] final  163.91 input  175.53 | X-H torsion
[ 8008 7997 7996 7995 ] final  -87.70 input   59.86 | X-H torsion
[ 10167 10162 10161 10158 ] final   95.46 input  -65.29 | X-H torsion
[ 10718 10713 10712 10709 ] final  -83.98 input   66.30 | X-H torsion
[ 10763 10752 10751 10750 ] final  -88.36 input  -60.55 | X-H torsion
[ 11005 11000 10999 10996 ] final  -89.24 input  -57.11 | X-H torsion

> <Gold.Protein.ActiveResidues>
 VAL166  LYS551  ARG553  GLY616  TRP617  ASP618  TYR619  PRO620  LYS621  CYS622 
 ASP623  PHE694  ASN695  SER759  ASP760  ASP761  ALA762  ILE779  LEU786  VAL792 
 PHE793  MET794  SER795  GLU796  ALA797  LYS798  CYS799  TRP800  GLU811  SER814 

> <Gold.Protein.RotatedAtoms>
  151.9407  133.3637  159.3963 H   0  0  0  0  0  0  0  0  0  0  0  0  # atno 6907 bound_to 6896
  150.6999  134.4442  159.5315 H   0  0  0  0  0  0  0  0  0  0  0  0  # atno 6908 bound_to 6896
  152.2098  134.8512  160.0549 H   0  0  0  0  0  0  0  0  0  0  0  0  # atno 6909 bound_to 6896
  144.7568  139.8250  143.6347 H   0  0  0  0  0  0  0  0  0  0  0  0  # atno 7974 bound_to 7965
  154.6662  140.0562  157.0116 H   0  0  0  0  0  0  0  0  0  0  0  0  # atno 8008 bound_to 7997
  155.1155  140.3242  155.4492 H   0  0  0  0  0  0  0  0  0  0  0  0  # atno 8009 bound_to 7997
  156.2639  140.2007  156.6278 H   0  0  0  0  0  0  0  0  0  0  0  0  # atno 8010 bound_to 7997
  139.7986  144.6823  150.9795 H   0  0  0  0  0  0  0  0  0  0  0  0  # atno 10167 bound_to 10162
  156.0011  130.4683  150.4340 H   0  0  0  0  0  0  0  0  0  0  0  0  # atno 10718 bound_to 10713
  154.6437  135.5380  153.7819 H   0  0  0  0  0  0  0  0  0  0  0  0  # atno 10763 bound_to 10752
  153.0348  135.6465  154.1121 H   0  0  0  0  0  0  0  0  0  0  0  0  # atno 10764 bound_to 10752
  154.1044  135.2931  155.3224 H   0  0  0  0  0  0  0  0  0  0  0  0  # atno 10765 bound_to 10752
  141.1588  133.7618  156.9567 H   0  0  0  0  0  0  0  0  0  0  0  0  # atno 11005 bound_to 11000
  146.1588  139.4695  143.0001 LP  0  0  0  0  0  0  0  0  0  0  0  0  # atno 17320 bound_to 7965
  145.6751  141.0206  143.1637 LP  0  0  0  0  0  0  0  0  0  0  0  0  # atno 17321 bound_to 7965
  140.7820  143.4305  151.0702 LP  0  0  0  0  0  0  0  0  0  0  0  0  # atno 17342 bound_to 10162
  139.7978  143.8127  152.3159 LP  0  0  0  0  0  0  0  0  0  0  0  0  # atno 17343 bound_to 10162
  157.2387  131.0520  151.2449 LP  0  0  0  0  0  0  0  0  0  0  0  0  # atno 17370 bound_to 10713
  157.3641  130.7147  149.6521 LP  0  0  0  0  0  0  0  0  0  0  0  0  # atno 17371 bound_to 10713
  140.1221  134.9410  157.2218 LP  0  0  0  0  0  0  0  0  0  0  0  0  # atno 17394 bound_to 11000
  140.3059  134.3078  155.7278 LP  0  0  0  0  0  0  0  0  0  0  0  0  # atno 17395 bound_to 11000

$$$$
