AV-unprocessed.smi:1304|AV-procd|sdf|5432|dock7
  -GOLD-   22720 4593D 1   1.00000     0.00000
 Structure written by MMmdl.
 48 49  0  0  0  0  0  0  0  0  2 V2000
  152.3627  137.9945  154.7684 C   0  0  0  0  0  0  0  0  0  0  0  0
  151.3398  136.9027  154.4069 C   0  0  0  0  0  0  0  0  0  0  0  0
  149.9484  137.0220  155.1026 C   0  0  2  0  0  0  0  0  0  0  0  0
  149.3985  138.4386  154.7874 C   0  0  0  0  0  0  0  0  0  0  0  0
  150.1098  136.8787  156.6495 C   0  0  0  0  0  0  0  0  0  0  0  0
  148.8541  137.0294  157.3833 N   0  0  0  0  0  0  0  0  0  0  0  0
  148.5776  136.4910  158.5809 C   0  0  0  0  0  0  0  0  0  0  0  0
  149.3539  135.7521  159.1870 O   0  0  0  0  0  0  0  0  0  0  0  0
  147.2129  136.8462  159.1846 C   0  0  0  0  0  0  0  0  0  0  0  0
  146.9230  136.0746  160.4045 N   0  0  0  0  0  0  0  0  0  0  0  0
  146.1540  134.9026  160.2595 C   0  0  0  0  0  0  0  0  0  0  0  0
  145.8399  134.1256  161.3082 C   0  0  0  0  0  0  0  0  0  0  0  0
  146.3124  134.5181  162.6147 C   0  0  0  0  0  0  0  0  0  0  0  0
  147.0497  135.6365  162.7647 C   0  0  0  0  0  0  0  0  0  0  0  0
  147.3962  136.4886  161.6213 C   0  0  0  0  0  0  0  0  0  0  0  0
  148.0723  137.5104  161.7482 O   0  0  0  0  0  0  0  0  0  0  0  0
  149.0172  135.9636  154.5649 N   0  3  0  0  0  0  0  0  0  0  0  0
  149.3736  134.5548  154.8980 C   0  0  0  0  0  0  0  0  0  0  0  0
  148.4816  133.5752  154.1187 C   0  0  0  0  0  0  0  0  0  0  0  0
  147.1177  133.8289  154.4244 O   0  0  0  0  0  0  0  0  0  0  0  0
  146.7283  135.1408  154.0425 C   0  0  0  0  0  0  0  0  0  0  0  0
  147.5633  136.1792  154.8112 C   0  0  0  0  0  0  0  0  0  0  0  0
  153.3062  137.8152  154.2523 H   0  0  0  0  0  0  0  0  0  0  0  0
  152.5787  138.0115  155.8364 H   0  0  0  0  0  0  0  0  0  0  0  0
  152.0195  138.9870  154.4772 H   0  0  0  0  0  0  0  0  0  0  0  0
  151.2238  136.8721  153.3238 H   0  0  0  0  0  0  0  0  0  0  0  0
  151.7932  135.9438  154.6577 H   0  0  0  0  0  0  0  0  0  0  0  0
  150.1501  139.2104  154.9586 H   0  0  0  0  0  0  0  0  0  0  0  0
  148.5483  138.6974  155.4186 H   0  0  0  0  0  0  0  0  0  0  0  0
  149.0780  138.5292  153.7493 H   0  0  0  0  0  0  0  0  0  0  0  0
  150.4955  135.8913  156.9005 H   0  0  0  0  0  0  0  0  0  0  0  0
  150.8403  137.5889  157.0372 H   0  0  0  0  0  0  0  0  0  0  0  0
  148.1498  137.6164  156.9596 H   0  0  0  0  0  0  0  0  0  0  0  0
  147.1657  137.9151  159.4033 H   0  0  0  0  0  0  0  0  0  0  0  0
  146.4506  136.6748  158.4237 H   0  0  0  0  0  0  0  0  0  0  0  0
  145.8449  134.6746  159.2498 H   0  0  0  0  0  0  0  0  0  0  0  0
  145.2522  133.2288  161.1775 H   0  0  0  0  0  0  0  0  0  0  0  0
  146.0744  133.9115  163.4760 H   0  0  0  0  0  0  0  0  0  0  0  0
  147.3949  135.9140  163.7501 H   0  0  0  0  0  0  0  0  0  0  0  0
  150.4110  134.3354  154.6539 H   0  0  0  0  0  0  0  0  0  0  0  0
  149.2485  134.3729  155.9656 H   0  0  0  0  0  0  0  0  0  0  0  0
  148.6517  133.6606  153.0443 H   0  0  0  0  0  0  0  0  0  0  0  0
  148.7191  132.5488  154.3986 H   0  0  0  0  0  0  0  0  0  0  0  0
  146.8449  135.2691  152.9649 H   0  0  0  0  0  0  0  0  0  0  0  0
  145.6691  135.2719  154.2649 H   0  0  0  0  0  0  0  0  0  0  0  0
  147.3457  136.1066  155.8769 H   0  0  0  0  0  0  0  0  0  0  0  0
  147.2401  137.1654  154.4827 H   0  0  0  0  0  0  0  0  0  0  0  0
  149.1204  136.0305  153.5623 H   0  0  0  0  0  0  0  0  0  0  0  0
  1  2  1  0  0  0  0
  1 23  1  0  0  0  0
  1 24  1  0  0  0  0
  1 25  1  0  0  0  0
  2  3  1  0  0  0  0
  2 26  1  0  0  0  0
  2 27  1  0  0  0  0
  3  4  1  0  0  0  0
  3  5  1  0  0  0  0
  3 17  1  0  0  0  0
  4 28  1  0  0  0  0
  4 29  1  0  0  0  0
  4 30  1  0  0  0  0
  5  6  1  0  0  0  0
  5 31  1  0  0  0  0
  5 32  1  0  0  0  0
  6  7  1  0  0  0  0
  6 33  1  0  0  0  0
  7  8  2  0  0  0  0
  7  9  1  0  0  0  0
  9 10  1  0  0  0  0
  9 34  1  0  0  0  0
  9 35  1  0  0  0  0
 10 15  1  0  0  0  0
 10 11  1  0  0  0  0
 11 12  2  0  0  0  0
 11 36  1  0  0  0  0
 12 13  1  0  0  0  0
 12 37  1  0  0  0  0
 13 14  2  0  0  0  0
 13 38  1  0  0  0  0
 14 15  1  0  0  0  0
 14 39  1  0  0  0  0
 15 16  2  0  0  0  0
 17 22  1  0  0  0  0
 17 18  1  0  0  0  0
 17 48  1  0  0  0  0
 18 19  1  0  0  0  0
 18 40  1  0  0  0  0
 18 41  1  0  0  0  0
 19 20  1  0  0  0  0
 19 42  1  0  0  0  0
 19 43  1  0  0  0  0
 20 21  1  0  0  0  0
 21 22  1  0  0  0  0
 21 44  1  0  0  0  0
 21 45  1  0  0  0  0
 22 46  1  0  0  0  0
 22 47  1  0  0  0  0
M  CHG  1  17   1
M  END
> <s_m_source_file>
AV-unprocessed.smi

> <i_m_source_file_index>
1304

> <i_lp_mmshare_version>
43012

> <i_f3d_flags>
0

> <s_epik_input>
W0NIMl0xW0NIMl1PW0NIMl1bQ0gyXU4xW0NAQF0oW0NIM10pKFtDSDJdW0NIM10pW0NIMl1bTkhdQyg9TylbQ0gyXW4yW2NIXVtjSF1bY0hdW2NIXWMyPU8=

> <s_epik_cmdline>
J2VwaWtfcHl0aG9uJywgJy1waCcsICc3LjAnLCAnLXRuJywgJzgnLCAnLW1hJywgJzIwMCcsICctbWV0YWxfYmluZGluZycsICctaW1hZScsICc8aW5maWxlLm1hZT4nLCAnLW9tYWUnLCAnPG91dGZpbGUubWFlPic=

> <r_lp_tautomer_probability>
1

> <r_epik_Ionization_Penalty>
0.519658

> <r_epik_Ionization_Penalty_Charging>
0.519658

> <r_epik_Ionization_Penalty_Neutral>
8.70177e-08

> <r_epik_State_Penalty>
0.527569

> <r_epik_Charging_Adjusted_Penalty>
1.04723

> <i_epik_Tot_Q>
1

> <i_epik_Tot_abs_Q>
1

> <r_epik_Metal_State_Penalty>
0.527613

> <b_epik_Metal_Only>
0

> <s_lp_Force_Field>
OPLS_2005

> <r_lp_Energy>
37.518

> <b_lp_Chiralities_Consistent>
1

> <s_lp_Variant>
AV-unprocessed.smi:1304-4

> <Gold.Version>
5.8.1

> <Gold.Id.Protein>
6NUR|6NUR_protein|mol2

> <Gold.PLP.Fitness>
48.8079

> <Gold.PLP.PLP>
-36.1819

> <Gold.PLP.part.hbond>
-4.0000

> <Gold.PLP.part.metal>
0.0000

> <Gold.PLP.part.buried>
-3.4542

> <Gold.PLP.part.nonpolar>
-29.4051

> <Gold.PLP.part.repulsive>
0.0788

> <Gold.PLP.ligand.clash>
0.0000

> <Gold.PLP.ligand.torsion>
0.8113

> <Gold.PLP.Chemscore.Hbond>
4.6578

> <Gold.PLP.Chemscore.CHOScore>
0.0000

> <Gold.PLP.Chemscore.Metal>
0.0000

> <Gold.Chemscore.Hbonds>
donor molecule, donor type, donor heavy atom, donor atom, acceptor molecule, acceptor atom, score
      L1  H    17    48       P1  7948  2.00
      P1  H  6896  6909       L1     8  1.00
      P1  H  6931  6943       L1    16  0.23
      P1  H  6934  6947       L1    16  0.46

> <Gold.PLP.Chemscore.Internal.Correction>
0.2751

> <Gold.Rescore>
     Score         DG    S(hbond)    S(metal)    S(lipo)     H(rot)  DE(clash)    DE(int)     intcor
     20.04     -20.91       3.59        0.00      73.74       2.03       0.02       0.85       ----

> <Gold.Chemscore.Fitness>
20.0425

> <Gold.Chemscore.DG>
-20.9070

> <Gold.Chemscore.ZeroCoef>
-5.4800

> <Gold.Chemscore.Hbond>
3.5914

> <Gold.Chemscore.Metal>
0.0000

> <Gold.Chemscore.Lipo>
73.7415

> <Gold.Chemscore.Internal_Hbond>
0.0000

> <Gold.Chemscore.DEClash>
0.0186

> <Gold.Chemscore.DEInternal>
0.8459

> <Gold.Chemscore.Rot>
2.0298

> <Gold.Chemscore.Internal.Correction>
   9.000000E+99

> <Gold.Chemscore.Hbonds>
donor molecule, donor type, donor heavy atom, donor atom, acceptor molecule, acceptor atom, score
      L1  H    17    48       P1  7948  0.91
      P1  H  6896  6909       L1     8  0.98
      P1  H  6931  6943       L1    16  0.22
      P1  H  6934  6947       L1    16  0.38

> <Gold.Chemscore.Hbond.Weighted>
-11.9954

> <Gold.Chemscore.Metal.Weighted>
-0.0000

> <Gold.Chemscore.Lipo.Weighted>
-8.6277

> <Gold.Chemscore.Internal_Hbond.Weighted>
0.0000

> <Gold.Chemscore.DEClash.Weighted>
0.0186

> <Gold.Chemscore.DEInternal.Weighted>
0.8459

> <Gold.Chemscore.Rot.Weighted>
5.1962

> <Gold.Chemscore.Internal.Correction.Weighted>
   9.000000E+99

> <Gold.Protein.RotatedTorsions>
[ 6907 6896 6895 6894 ] final   42.68 input  -60.11 | X-H torsion
[ 7974 7965 7964 7962 ] final   37.69 input  175.53 | X-H torsion
[ 8008 7997 7996 7995 ] final  -72.89 input   59.86 | X-H torsion
[ 10167 10162 10161 10158 ] final  118.75 input  -65.29 | X-H torsion
[ 10718 10713 10712 10709 ] final  169.10 input   66.30 | X-H torsion
[ 10763 10752 10751 10750 ] final -122.85 input  -60.55 | X-H torsion
[ 11005 11000 10999 10996 ] final   -2.71 input  -57.11 | X-H torsion

> <Gold.Protein.ActiveResidues>
 VAL166  LYS551  ARG553  GLY616  TRP617  ASP618  TYR619  PRO620  LYS621  CYS622 
 ASP623  PHE694  ASN695  SER759  ASP760  ASP761  ALA762  ILE779  LEU786  VAL792 
 PHE793  MET794  SER795  GLU796  ALA797  LYS798  CYS799  TRP800  GLU811  SER814 

> <Gold.Protein.RotatedAtoms>
  152.2109  134.8502  160.0497 H   0  0  0  0  0  0  0  0  0  0  0  0  # atno 6907 bound_to 6896
  151.9321  133.3609  159.3942 H   0  0  0  0  0  0  0  0  0  0  0  0  # atno 6908 bound_to 6896
  150.6976  134.4451  159.5354 H   0  0  0  0  0  0  0  0  0  0  0  0  # atno 6909 bound_to 6896
  146.1118  139.5863  142.9347 H   0  0  0  0  0  0  0  0  0  0  0  0  # atno 7974 bound_to 7965
  154.5203  140.0789  156.8158 H   0  0  0  0  0  0  0  0  0  0  0  0  # atno 8008 bound_to 7997
  155.3591  140.3417  155.4222 H   0  0  0  0  0  0  0  0  0  0  0  0  # atno 8009 bound_to 7997
  156.1673  140.1608  156.8496 H   0  0  0  0  0  0  0  0  0  0  0  0  # atno 8010 bound_to 7997
  139.6091  144.7077  151.2886 H   0  0  0  0  0  0  0  0  0  0  0  0  # atno 10167 bound_to 10162
  157.0275  131.0250  151.2755 H   0  0  0  0  0  0  0  0  0  0  0  0  # atno 10718 bound_to 10713
  154.8697  135.4119  154.2848 H   0  0  0  0  0  0  0  0  0  0  0  0  # atno 10763 bound_to 10752
  153.3734  135.7008  153.6626 H   0  0  0  0  0  0  0  0  0  0  0  0  # atno 10764 bound_to 10752
  153.5478  135.3635  155.2718 H   0  0  0  0  0  0  0  0  0  0  0  0  # atno 10765 bound_to 10752
  140.6613  133.9317  155.8438 H   0  0  0  0  0  0  0  0  0  0  0  0  # atno 11005 bound_to 11000
  145.5647  141.0400  143.2207 LP  0  0  0  0  0  0  0  0  0  0  0  0  # atno 17320 bound_to 7965
  144.7518  139.7173  143.7270 LP  0  0  0  0  0  0  0  0  0  0  0  0  # atno 17321 bound_to 7965
  140.7306  143.6875  150.7949 LP  0  0  0  0  0  0  0  0  0  0  0  0  # atno 17342 bound_to 10162
  140.0467  143.5291  152.2693 LP  0  0  0  0  0  0  0  0  0  0  0  0  # atno 17343 bound_to 10162
  157.5203  130.7994  149.7802 LP  0  0  0  0  0  0  0  0  0  0  0  0  # atno 17370 bound_to 10713
  156.0081  130.3846  150.2360 LP  0  0  0  0  0  0  0  0  0  0  0  0  # atno 17371 bound_to 10713
  141.0463  134.0549  157.3840 LP  0  0  0  0  0  0  0  0  0  0  0  0  # atno 17394 bound_to 11000
  139.9012  135.0165  156.7276 LP  0  0  0  0  0  0  0  0  0  0  0  0  # atno 17395 bound_to 11000

$$$$
