AV-unprocessed.smi:2881|AV-procd|sdf|11057|dock7
  -GOLD-   2272015523D 1   1.00000     0.00000
 Structure written by MMmdl.
 40 42  0  0  0  0  0  0  0  0  1 V2000
  146.9070  140.6095  153.2101 C   0  0  0  0  0  0  0  0  0  0  0  0
  148.1617  140.4606  154.0013 C   0  0  0  0  0  0  0  0  0  0  0  0
  148.3690  140.2123  155.3285 C   0  0  0  0  0  0  0  0  0  0  0  0
  149.7885  140.1810  155.4651 C   0  0  0  0  0  0  0  0  0  0  0  0
  150.5931  139.9375  156.7139 C   0  0  0  0  0  0  0  0  0  0  0  0
  150.2850  141.0123  157.7570 C   0  0  0  0  0  0  0  0  0  0  0  0
  149.1279  141.3977  157.9236 O   0  0  0  0  0  0  0  0  0  0  0  0
  151.3302  141.4878  158.4506 N   0  0  0  0  0  0  0  0  0  0  0  0
  151.2475  142.4855  159.5138 C   0  0  2  0  0  0  0  0  0  0  0  0
  150.6804  143.8504  159.0473 C   0  0  2  0  0  0  0  0  0  0  0  0
  151.4219  144.3746  157.7988 C   0  0  0  0  0  0  0  0  0  0  0  0
  152.8089  144.7391  158.3599 C   0  0  0  0  0  0  0  0  0  0  0  0
  152.6710  144.4011  159.8575 C   0  0  1  0  0  0  0  0  0  0  0  0
  151.2197  144.7859  160.1218 C   0  0  0  0  0  0  0  0  0  0  0  0
  152.6573  142.8652  160.0392 C   0  0  1  0  0  0  0  0  0  0  0  0
  152.9047  142.4308  161.4966 C   0  0  0  0  0  0  0  0  0  0  0  0
  151.7925  142.7670  162.2995 O   0  0  0  0  0  0  0  0  0  0  0  0
  150.4107  140.4010  154.3147 N   0  0  0  0  0  0  0  0  0  0  0  0
  149.4092  140.5681  153.4311 N   0  0  0  0  0  0  0  0  0  0  0  0
  149.5894  140.7524  152.4545 H   0  0  0  0  0  0  0  0  0  0  0  0
  146.0401  140.2957  153.7920 H   0  0  0  0  0  0  0  0  0  0  0  0
  146.9429  140.0013  152.3061 H   0  0  0  0  0  0  0  0  0  0  0  0
  146.7569  141.6480  152.9153 H   0  0  0  0  0  0  0  0  0  0  0  0
  147.6186  140.0681  156.0918 H   0  0  0  0  0  0  0  0  0  0  0  0
  150.3798  138.9537  157.1348 H   0  0  0  0  0  0  0  0  0  0  0  0
  151.6592  139.9512  156.4839 H   0  0  0  0  0  0  0  0  0  0  0  0
  152.2445  141.1086  158.2502 H   0  0  0  0  0  0  0  0  0  0  0  0
  150.6328  142.0950  160.3274 H   0  0  0  0  0  0  0  0  0  0  0  0
  149.5950  143.8574  158.9421 H   0  0  0  0  0  0  0  0  0  0  0  0
  151.4736  143.6500  156.9863 H   0  0  0  0  0  0  0  0  0  0  0  0
  150.9267  145.2644  157.4080 H   0  0  0  0  0  0  0  0  0  0  0  0
  153.6130  144.1813  157.8788 H   0  0  0  0  0  0  0  0  0  0  0  0
  153.0104  145.8017  158.2181 H   0  0  0  0  0  0  0  0  0  0  0  0
  153.4040  144.9132  160.4817 H   0  0  0  0  0  0  0  0  0  0  0  0
  151.0083  145.8387  159.9265 H   0  0  0  0  0  0  0  0  0  0  0  0
  150.8749  144.5362  161.1262 H   0  0  0  0  0  0  0  0  0  0  0  0
  153.4435  142.4282  159.4202 H   0  0  0  0  0  0  0  0  0  0  0  0
  153.0513  141.3516  161.5503 H   0  0  0  0  0  0  0  0  0  0  0  0
  153.7996  142.8982  161.9077 H   0  0  0  0  0  0  0  0  0  0  0  0
  152.0738  143.3784  162.9630 H   0  0  0  0  0  0  0  0  0  0  0  0
  1  2  1  0  0  0  0
  1 21  1  0  0  0  0
  1 22  1  0  0  0  0
  1 23  1  0  0  0  0
  2 19  1  0  0  0  0
  2  3  2  0  0  0  0
  3  4  1  0  0  0  0
  3 24  1  0  0  0  0
  4  5  1  0  0  0  0
  4 18  2  0  0  0  0
  5  6  1  0  0  0  0
  5 25  1  0  0  0  0
  5 26  1  0  0  0  0
  6  7  2  0  0  0  0
  6  8  1  0  0  0  0
  8  9  1  0  0  0  0
  8 27  1  0  0  0  0
  9 15  1  0  0  0  0
  9 10  1  0  0  0  0
  9 28  1  0  0  0  0
 10 14  1  0  0  0  0
 10 11  1  0  0  0  0
 10 29  1  0  0  0  0
 11 12  1  0  0  0  0
 11 30  1  0  0  0  0
 11 31  1  0  0  0  0
 12 13  1  0  0  0  0
 12 32  1  0  0  0  0
 12 33  1  0  0  0  0
 13 14  1  0  0  0  0
 13 15  1  0  0  0  0
 13 34  1  0  0  0  0
 14 35  1  0  0  0  0
 14 36  1  0  0  0  0
 15 16  1  0  0  0  0
 15 37  1  0  0  0  0
 16 17  1  0  0  0  0
 16 38  1  0  0  0  0
 16 39  1  0  0  0  0
 17 40  1  0  0  0  0
 18 19  1  0  0  0  0
 19 20  1  0  0  0  0
M  END
> <s_m_source_file>
AV-unprocessed.smi

> <i_m_source_file_index>
2881

> <i_lp_mmshare_version>
43012

> <i_f3d_flags>
0

> <s_epik_input>
W0NIM11jMVtjSF1jKG5bbkhdMSlbQ0gyXUMoPU8pW05IXVtDQEhdKFtDQEBIXTIzKVtDQEhdKFtDSDJdW09IXSlbQ0BASF0oW0NIMl0zKVtDSDJdW0NIMl0y

> <s_epik_cmdline>
J2VwaWtfcHl0aG9uJywgJy1waCcsICc3LjAnLCAnLXRuJywgJzgnLCAnLW1hJywgJzIwMCcsICctbWV0YWxfYmluZGluZycsICctaW1hZScsICc8aW5maWxlLm1hZT4nLCAnLW9tYWUnLCAnPG91dGZpbGUubWFlPic=

> <r_lp_tautomer_probability>
0.5

> <r_epik_Ionization_Penalty>
9.4349e-05

> <r_epik_Ionization_Penalty_Charging>
0

> <r_epik_Ionization_Penalty_Neutral>
9.4349e-05

> <r_epik_State_Penalty>
0.41068

> <r_epik_Charging_Adjusted_Penalty>
0.41068

> <i_epik_Tot_Q>
0

> <i_epik_Tot_abs_Q>
0

> <r_epik_Metal_State_Penalty>
0.4107

> <b_epik_Metal_Only>
0

> <s_lp_Force_Field>
OPLS_2005

> <r_lp_Energy>
47.2373

> <b_lp_Chiralities_Consistent>
1

> <s_lp_Variant>
AV-unprocessed.smi:2881-3

> <Gold.Version>
5.8.1

> <Gold.Id.Protein>
6NUR|6NUR_protein|mol2

> <Gold.PLP.Fitness>
45.6961

> <Gold.PLP.PLP>
-37.9949

> <Gold.PLP.part.hbond>
-3.5053

> <Gold.PLP.part.metal>
0.0000

> <Gold.PLP.part.buried>
-7.0695

> <Gold.PLP.part.nonpolar>
-30.6593

> <Gold.PLP.part.repulsive>
1.5454

> <Gold.PLP.ligand.clash>
0.0000

> <Gold.PLP.ligand.torsion>
0.3464

> <Gold.PLP.Chemscore.Hbond>
2.7893

> <Gold.PLP.Chemscore.CHOScore>
0.0000

> <Gold.PLP.Chemscore.Metal>
0.0000

> <Gold.Chemscore.Hbonds>
donor molecule, donor type, donor heavy atom, donor atom, acceptor molecule, acceptor atom, score
      L1  H    19    20       P1  7957  0.69
      P1  H  6933  6945       L1    17  0.99
      P1  H  7989  7998       L1    18  1.00

> <Gold.PLP.Chemscore.Internal.Correction>
0.0260

> <Gold.Rescore>
     Score         DG    S(hbond)    S(metal)    S(lipo)     H(rot)  DE(clash)    DE(int)     intcor
     17.74     -20.77       2.40        0.00     111.87       2.28       0.77       2.27       ----

> <Gold.Chemscore.Fitness>
17.7366

> <Gold.Chemscore.DG>
-20.7677

> <Gold.Chemscore.ZeroCoef>
-5.4800

> <Gold.Chemscore.Hbond>
2.4023

> <Gold.Chemscore.Metal>
0.0000

> <Gold.Chemscore.Lipo>
111.8738

> <Gold.Chemscore.Internal_Hbond>
0.0000

> <Gold.Chemscore.DEClash>
0.7658

> <Gold.Chemscore.DEInternal>
2.2653

> <Gold.Chemscore.Rot>
2.2755

> <Gold.Chemscore.Internal.Correction>
   9.000000E+99

> <Gold.Chemscore.Hbonds>
donor molecule, donor type, donor heavy atom, donor atom, acceptor molecule, acceptor atom, score
      L1  H    19    20       P1  7957  0.67
      P1  H  6933  6945       L1    17  0.89
      P1  H  7989  7998       L1    18  0.26

> <Gold.Chemscore.Hbond.Weighted>
-8.0237

> <Gold.Chemscore.Metal.Weighted>
-0.0000

> <Gold.Chemscore.Lipo.Weighted>
-13.0892

> <Gold.Chemscore.Internal_Hbond.Weighted>
0.0000

> <Gold.Chemscore.DEClash.Weighted>
0.7658

> <Gold.Chemscore.DEInternal.Weighted>
2.2653

> <Gold.Chemscore.Rot.Weighted>
5.8252

> <Gold.Chemscore.Internal.Correction.Weighted>
   9.000000E+99

> <Gold.Protein.RotatedTorsions>
[ 6907 6896 6895 6894 ] final   34.07 input  -60.11 | X-H torsion
[ 7974 7965 7964 7962 ] final -138.56 input  175.53 | X-H torsion
[ 8008 7997 7996 7995 ] final  148.98 input   59.86 | X-H torsion
[ 10167 10162 10161 10158 ] final  -43.83 input  -65.29 | X-H torsion
[ 10718 10713 10712 10709 ] final -110.42 input   66.30 | X-H torsion
[ 10763 10752 10751 10750 ] final   15.23 input  -60.55 | X-H torsion
[ 11005 11000 10999 10996 ] final -153.07 input  -57.11 | X-H torsion

> <Gold.Protein.ActiveResidues>
 VAL166  LYS551  ARG553  GLY616  TRP617  ASP618  TYR619  PRO620  LYS621  CYS622 
 ASP623  PHE694  ASN695  SER759  ASP760  ASP761  ALA762  ILE779  LEU786  VAL792 
 PHE793  MET794  SER795  GLU796  ALA797  LYS798  CYS799  TRP800  GLU811  SER814 

> <Gold.Protein.RotatedAtoms>
  152.0972  134.9366  160.0570 H   0  0  0  0  0  0  0  0  0  0  0  0  # atno 6907 bound_to 6896
  152.0595  133.4050  159.4420 H   0  0  0  0  0  0  0  0  0  0  0  0  # atno 6908 bound_to 6896
  150.6838  134.3137  159.4801 H   0  0  0  0  0  0  0  0  0  0  0  0  # atno 6909 bound_to 6896
  144.8749  140.6421  143.5243 H   0  0  0  0  0  0  0  0  0  0  0  0  # atno 7974 bound_to 7965
  156.2772  140.2114  156.5785 H   0  0  0  0  0  0  0  0  0  0  0  0  # atno 8008 bound_to 7997
  154.7078  140.0515  157.0544 H   0  0  0  0  0  0  0  0  0  0  0  0  # atno 8009 bound_to 7997
  155.0647  140.3170  155.4652 H   0  0  0  0  0  0  0  0  0  0  0  0  # atno 8010 bound_to 7997
  140.6919  143.2962  151.3408 H   0  0  0  0  0  0  0  0  0  0  0  0  # atno 10167 bound_to 10162
  156.0590  130.5814  150.8235 H   0  0  0  0  0  0  0  0  0  0  0  0  # atno 10718 bound_to 10713
  153.1545  135.6784  153.8832 H   0  0  0  0  0  0  0  0  0  0  0  0  # atno 10763 bound_to 10752
  153.8248  135.3125  155.3415 H   0  0  0  0  0  0  0  0  0  0  0  0  # atno 10764 bound_to 10752
  154.7887  135.4847  154.0091 H   0  0  0  0  0  0  0  0  0  0  0  0  # atno 10765 bound_to 10752
  140.7121  134.3821  157.5196 H   0  0  0  0  0  0  0  0  0  0  0  0  # atno 11005 bound_to 11000
  145.4062  139.1588  143.4150 LP  0  0  0  0  0  0  0  0  0  0  0  0  # atno 17320 bound_to 7965
  146.2955  140.4162  142.8723 LP  0  0  0  0  0  0  0  0  0  0  0  0  # atno 17321 bound_to 7965
  139.6332  144.0681  152.2493 LP  0  0  0  0  0  0  0  0  0  0  0  0  # atno 17342 bound_to 10162
  140.0162  144.6187  150.7605 LP  0  0  0  0  0  0  0  0  0  0  0  0  # atno 17343 bound_to 10162
  157.5583  131.0945  150.9596 LP  0  0  0  0  0  0  0  0  0  0  0  0  # atno 17370 bound_to 10713
  156.9839  130.5537  149.5298 LP  0  0  0  0  0  0  0  0  0  0  0  0  # atno 17371 bound_to 10713
  139.8869  134.8897  156.2558 LP  0  0  0  0  0  0  0  0  0  0  0  0  # atno 17394 bound_to 11000
  141.0076  133.7114  156.1059 LP  0  0  0  0  0  0  0  0  0  0  0  0  # atno 17395 bound_to 11000

$$$$
