AV-unprocessed.smi:1715|AV-procd|sdf|6910|dock9
  -GOLD-   22720 8113D 1   1.00000     0.00000
 Structure written by MMmdl.
 40 41  0  0  0  0  0  0  0  0  1 V2000
  151.7230  145.5978  159.5747 C   0  0  0  0  0  0  0  0  0  0  0  0
  152.2354  144.2962  158.9492 C   0  0  2  0  0  0  0  0  0  0  0  0
  151.1268  143.5340  158.1989 C   0  0  0  0  0  0  0  0  0  0  0  0
  151.6001  142.2606  157.6679 N   0  0  0  0  0  0  0  0  0  0  0  0
  150.5313  141.5637  156.9546 C   0  0  0  0  0  0  0  0  0  0  0  0
  150.9952  140.3829  156.0812 C   0  0  0  0  0  0  0  0  0  0  0  0
  150.1737  140.2546  154.8838 N   0  0  0  0  0  0  0  0  0  0  0  0
  149.0268  139.5650  154.8081 C   0  0  0  0  0  0  0  0  0  0  0  0
  148.5352  138.9543  155.7574 O   0  0  0  0  0  0  0  0  0  0  0  0
  148.4990  139.6297  153.5747 N   0  0  0  0  0  0  0  0  0  0  0  0
  147.2971  139.0306  153.1201 C   0  0  0  0  0  0  0  0  0  0  0  0
  146.3559  138.3703  153.9557 C   0  0  0  0  0  0  0  0  0  0  0  0
  145.3294  137.9073  153.2568 N   0  0  0  0  0  0  0  0  0  0  0  0
  145.6067  138.2655  151.9827 N   0  0  0  0  0  0  0  0  0  0  0  0
  146.7939  138.9518  151.8517 C   0  0  0  0  0  0  0  0  0  0  0  0
  152.1548  141.4689  158.7634 C   0  0  0  0  0  0  0  0  0  0  0  0
  153.2629  142.2268  159.5200 C   0  0  2  0  0  0  0  0  0  0  0  0
  153.7875  141.4368  160.7237 C   0  0  0  0  0  0  0  0  0  0  0  0
  152.7439  143.4675  159.9909 O   0  0  0  0  0  0  0  0  0  0  0  0
  144.9828  138.0368  151.2217 H   0  0  0  0  0  0  0  0  0  0  0  0
  151.3319  146.2719  158.8122 H   0  0  0  0  0  0  0  0  0  0  0  0
  152.5236  146.1190  160.1001 H   0  0  0  0  0  0  0  0  0  0  0  0
  150.9247  145.4038  160.2916 H   0  0  0  0  0  0  0  0  0  0  0  0
  153.0463  144.5349  158.2589 H   0  0  0  0  0  0  0  0  0  0  0  0
  150.2852  143.3622  158.8724 H   0  0  0  0  0  0  0  0  0  0  0  0
  150.7516  144.1553  157.3848 H   0  0  0  0  0  0  0  0  0  0  0  0
  149.7781  141.2194  157.6650 H   0  0  0  0  0  0  0  0  0  0  0  0
  150.0246  142.2797  156.3058 H   0  0  0  0  0  0  0  0  0  0  0  0
  152.0449  140.4995  155.8058 H   0  0  0  0  0  0  0  0  0  0  0  0
  150.9178  139.4432  156.6266 H   0  0  0  0  0  0  0  0  0  0  0  0
  150.5027  140.7257  154.0539 H   0  0  0  0  0  0  0  0  0  0  0  0
  149.0101  140.1646  152.8881 H   0  0  0  0  0  0  0  0  0  0  0  0
  146.3828  138.2148  155.0241 H   0  0  0  0  0  0  0  0  0  0  0  0
  147.1548  139.3065  150.8978 H   0  0  0  0  0  0  0  0  0  0  0  0
  151.3602  141.1959  159.4597 H   0  0  0  0  0  0  0  0  0  0  0  0
  152.5707  140.5368  158.3824 H   0  0  0  0  0  0  0  0  0  0  0  0
  154.0952  142.4269  158.8431 H   0  0  0  0  0  0  0  0  0  0  0  0
  154.2083  140.4801  160.4128 H   0  0  0  0  0  0  0  0  0  0  0  0
  152.9916  141.2359  161.4413 H   0  0  0  0  0  0  0  0  0  0  0  0
  154.5705  141.9913  161.2413 H   0  0  0  0  0  0  0  0  0  0  0  0
  1  2  1  0  0  0  0
  1 21  1  0  0  0  0
  1 22  1  0  0  0  0
  1 23  1  0  0  0  0
  2 19  1  0  0  0  0
  2  3  1  0  0  0  0
  2 24  1  0  0  0  0
  3  4  1  0  0  0  0
  3 25  1  0  0  0  0
  3 26  1  0  0  0  0
  4  5  1  0  0  0  0
  4 16  1  0  0  0  0
  5  6  1  0  0  0  0
  5 27  1  0  0  0  0
  5 28  1  0  0  0  0
  6  7  1  0  0  0  0
  6 29  1  0  0  0  0
  6 30  1  0  0  0  0
  7  8  1  0  0  0  0
  7 31  1  0  0  0  0
  8  9  2  0  0  0  0
  8 10  1  0  0  0  0
 10 11  1  0  0  0  0
 10 32  1  0  0  0  0
 11 15  2  0  0  0  0
 11 12  1  0  0  0  0
 12 13  2  0  0  0  0
 12 33  1  0  0  0  0
 13 14  1  0  0  0  0
 14 20  1  0  0  0  0
 14 15  1  0  0  0  0
 15 34  1  0  0  0  0
 16 17  1  0  0  0  0
 16 35  1  0  0  0  0
 16 36  1  0  0  0  0
 17 18  1  0  0  0  0
 17 19  1  0  0  0  0
 17 37  1  0  0  0  0
 18 38  1  0  0  0  0
 18 39  1  0  0  0  0
 18 40  1  0  0  0  0
M  END
> <s_m_source_file>
AV-unprocessed.smi

> <i_m_source_file_index>
1715

> <i_lp_mmshare_version>
43012

> <i_f3d_flags>
0

> <s_epik_input>
W0NIM11bQ0BASF0xW0NIMl1OKFtDSDJdW0NASF0oTzEpW0NIM10pW0NIMl1bQ0gyXVtOSF1DKD1PKVtOSF1jMltjSF1uW25IXVtjSF0y

> <s_epik_cmdline>
J2VwaWtfcHl0aG9uJywgJy1waCcsICc3LjAnLCAnLXRuJywgJzgnLCAnLW1hJywgJzIwMCcsICctbWV0YWxfYmluZGluZycsICctaW1hZScsICc8aW5maWxlLm1hZT4nLCAnLW9tYWUnLCAnPG91dGZpbGUubWFlPic=

> <r_lp_tautomer_probability>
0.5

> <r_epik_Ionization_Penalty>
0.242771

> <r_epik_Ionization_Penalty_Charging>
0

> <r_epik_Ionization_Penalty_Neutral>
0.242771

> <r_epik_State_Penalty>
0.233765

> <r_epik_Charging_Adjusted_Penalty>
0.233765

> <i_epik_Tot_Q>
0

> <i_epik_Tot_abs_Q>
0

> <r_epik_Metal_State_Penalty>
0.233764

> <b_epik_Metal_Only>
0

> <s_lp_Force_Field>
OPLS_2005

> <r_lp_Energy>
21.5882

> <b_lp_Chiralities_Consistent>
1

> <s_lp_Variant>
AV-unprocessed.smi:1715-2

> <Gold.Version>
5.8.1

> <Gold.Id.Protein>
6NUR|6NUR_protein|mol2

> <Gold.PLP.Fitness>
44.9661

> <Gold.PLP.PLP>
-38.7138

> <Gold.PLP.part.hbond>
-3.0000

> <Gold.PLP.part.metal>
0.0000

> <Gold.PLP.part.buried>
-3.8832

> <Gold.PLP.part.nonpolar>
-32.6300

> <Gold.PLP.part.repulsive>
1.1036

> <Gold.PLP.ligand.clash>
0.0000

> <Gold.PLP.ligand.torsion>
0.4993

> <Gold.PLP.Chemscore.Hbond>
1.8080

> <Gold.PLP.Chemscore.CHOScore>
0.6054

> <Gold.PLP.Chemscore.Metal>
0.0000

> <Gold.Chemscore.Hbonds>
donor molecule, donor type, donor heavy atom, donor atom, acceptor molecule, acceptor atom, score
      L1  H    10    32       P1  7957  0.82
      L1  H    14    20       P1 10171  0.99
      L1  C    15    34       P1  7957  0.61

> <Gold.PLP.Chemscore.Internal.Correction>
0.0106

> <Gold.Rescore>
     Score         DG    S(hbond)    S(metal)    S(lipo)     H(rot)  DE(clash)    DE(int)     intcor
     16.86     -18.87       1.79        0.00      98.99       1.63       0.22       1.79       ----

> <Gold.Chemscore.Fitness>
16.8646

> <Gold.Chemscore.DG>
-18.8709

> <Gold.Chemscore.ZeroCoef>
-5.4800

> <Gold.Chemscore.Hbond>
1.7899

> <Gold.Chemscore.Metal>
0.0000

> <Gold.Chemscore.Lipo>
98.9921

> <Gold.Chemscore.Internal_Hbond>
0.0000

> <Gold.Chemscore.DEClash>
0.2191

> <Gold.Chemscore.DEInternal>
1.7872

> <Gold.Chemscore.Rot>
1.6287

> <Gold.Chemscore.Internal.Correction>
   9.000000E+99

> <Gold.Chemscore.Hbonds>
donor molecule, donor type, donor heavy atom, donor atom, acceptor molecule, acceptor atom, score
      L1  H    10    32       P1  7957  0.80
      L1  H    14    20       P1 10171  0.93

> <Gold.Chemscore.Hbond.Weighted>
-5.9784

> <Gold.Chemscore.Metal.Weighted>
-0.0000

> <Gold.Chemscore.Lipo.Weighted>
-11.5821

> <Gold.Chemscore.Internal_Hbond.Weighted>
0.0000

> <Gold.Chemscore.DEClash.Weighted>
0.2191

> <Gold.Chemscore.DEInternal.Weighted>
1.7872

> <Gold.Chemscore.Rot.Weighted>
4.1695

> <Gold.Chemscore.Internal.Correction.Weighted>
   9.000000E+99

> <Gold.Protein.RotatedTorsions>
[ 6907 6896 6895 6894 ] final  130.94 input  -60.11 | X-H torsion
[ 7974 7965 7964 7962 ] final  174.72 input  175.53 | X-H torsion
[ 8008 7997 7996 7995 ] final -137.83 input   59.86 | X-H torsion
[ 10167 10162 10161 10158 ] final  117.60 input  -65.29 | X-H torsion
[ 10718 10713 10712 10709 ] final  -51.16 input   66.30 | X-H torsion
[ 10763 10752 10751 10750 ] final   72.11 input  -60.55 | X-H torsion
[ 11005 11000 10999 10996 ] final -177.52 input  -57.11 | X-H torsion

> <Gold.Protein.ActiveResidues>
 VAL166  LYS551  ARG553  GLY616  TRP617  ASP618  TYR619  PRO620  LYS621  CYS622 
 ASP623  PHE694  ASN695  SER759  ASP760  ASP761  ALA762  ILE779  LEU786  VAL792 
 PHE793  MET794  SER795  GLU796  ALA797  LYS798  CYS799  TRP800  GLU811  SER814 

> <Gold.Protein.RotatedAtoms>
  152.3476  133.6140  159.5920 H   0  0  0  0  0  0  0  0  0  0  0  0  # atno 6907 bound_to 6896
  150.7517  133.9625  159.3529 H   0  0  0  0  0  0  0  0  0  0  0  0  # atno 6908 bound_to 6896
  151.7481  135.0840  160.0377 H   0  0  0  0  0  0  0  0  0  0  0  0  # atno 6909 bound_to 6896
  144.7216  139.9839  143.6439 H   0  0  0  0  0  0  0  0  0  0  0  0  # atno 7974 bound_to 7965
  155.4182  140.0517  157.3027 H   0  0  0  0  0  0  0  0  0  0  0  0  # atno 8008 bound_to 7997
  154.4915  140.2122  155.9498 H   0  0  0  0  0  0  0  0  0  0  0  0  # atno 8009 bound_to 7997
  156.1348  140.3165  155.8409 H   0  0  0  0  0  0  0  0  0  0  0  0  # atno 8010 bound_to 7997
  139.6168  144.7093  151.2722 H   0  0  0  0  0  0  0  0  0  0  0  0  # atno 10167 bound_to 10162
  156.1735  130.4149  149.9612 H   0  0  0  0  0  0  0  0  0  0  0  0  # atno 10718 bound_to 10713
  153.0439  135.5112  154.7694 H   0  0  0  0  0  0  0  0  0  0  0  0  # atno 10763 bound_to 10752
  154.6610  135.2938  154.9869 H   0  0  0  0  0  0  0  0  0  0  0  0  # atno 10764 bound_to 10752
  154.0720  135.6676  153.4878 H   0  0  0  0  0  0  0  0  0  0  0  0  # atno 10765 bound_to 10752
  140.4400  134.6440  157.4753 H   0  0  0  0  0  0  0  0  0  0  0  0  # atno 11005 bound_to 11000
  146.0466  139.3471  143.0665 LP  0  0  0  0  0  0  0  0  0  0  0  0  # atno 17320 bound_to 7965
  145.8268  140.9651  143.0870 LP  0  0  0  0  0  0  0  0  0  0  0  0  # atno 17321 bound_to 7965
  140.7356  143.6732  150.8063 LP  0  0  0  0  0  0  0  0  0  0  0  0  # atno 17342 bound_to 10162
  140.0336  143.5418  152.2749 LP  0  0  0  0  0  0  0  0  0  0  0  0  # atno 17343 bound_to 10162
  156.7405  130.9077  151.3632 LP  0  0  0  0  0  0  0  0  0  0  0  0  # atno 17370 bound_to 10713
  157.6819  130.9148  150.0289 LP  0  0  0  0  0  0  0  0  0  0  0  0  # atno 17371 bound_to 10713
  140.0076  134.6739  155.9430 LP  0  0  0  0  0  0  0  0  0  0  0  0  # atno 17394 bound_to 11000
  141.1710  133.6537  156.4650 LP  0  0  0  0  0  0  0  0  0  0  0  0  # atno 17395 bound_to 11000

$$$$
