AV-unprocessed.smi:2655|AV-procd|sdf|10303|dock3
  -GOLD-   2272014313D 1   1.00000     0.00000
 Structure written by MMmdl.
 33 34  0  0  0  0  0  0  0  0  2 V2000
  151.7955  142.7685  159.2393 C   0  0  0  0  0  0  0  0  0  0  0  0
  151.3065  142.3955  157.8565 C   0  0  0  0  0  0  0  0  0  0  0  0
  150.5621  143.2592  157.1063 N   0  0  0  0  0  0  0  0  0  0  0  0
  150.2117  142.6305  155.9383 N   0  0  0  0  0  0  0  0  0  0  0  0
  150.7397  141.3960  155.9090 C   0  0  0  0  0  0  0  0  0  0  0  0
  150.6205  140.5835  154.9945 O   0  0  0  0  0  0  0  0  0  0  0  0
  151.4567  141.2538  157.1717 C   0  0  0  0  0  0  0  0  0  0  0  0
  152.1700  139.9866  157.6037 C   0  0  0  0  0  0  0  0  0  0  0  0
  151.1854  138.8602  157.9579 C   0  0  0  0  0  0  0  0  0  0  0  0
  151.8666  137.7286  158.5765 N   0  0  0  0  0  0  0  0  0  0  0  0
  152.7061  137.7932  159.6201 C   0  0  0  0  0  0  0  0  0  0  0  0
  152.9558  138.8824  160.1419 O   0  0  0  0  0  0  0  0  0  0  0  0
  153.2064  136.5921  159.9923 N   0  5  0  0  0  0  0  0  0  0  0  0
  153.7463  136.4343  161.2106 C   0  0  0  0  0  0  0  0  0  0  0  0
  153.5040  137.2556  162.3457 C   0  0  0  0  0  0  0  0  0  0  0  0
  154.2873  136.6915  163.3123 C   0  0  0  0  0  0  0  0  0  0  0  0
  154.5241  137.0258  164.7454 C   0  0  0  0  0  0  0  0  0  0  0  0
  154.9615  135.6225  162.8091 O   0  0  0  0  0  0  0  0  0  0  0  0
  154.6142  135.4683  161.4616 N   0  0  0  0  0  0  0  0  0  0  0  0
  152.8822  142.6956  159.2860 H   0  0  0  0  0  0  0  0  0  0  0  0
  151.3724  142.0942  159.9840 H   0  0  0  0  0  0  0  0  0  0  0  0
  151.5078  143.7885  159.4957 H   0  0  0  0  0  0  0  0  0  0  0  0
  149.6504  143.1147  155.2527 H   0  0  0  0  0  0  0  0  0  0  0  0
  152.8112  140.2186  158.4551 H   0  0  0  0  0  0  0  0  0  0  0  0
  152.8304  139.6577  156.8008 H   0  0  0  0  0  0  0  0  0  0  0  0
  150.3962  139.2278  158.6162 H   0  0  0  0  0  0  0  0  0  0  0  0
  150.6926  138.5021  157.0536 H   0  0  0  0  0  0  0  0  0  0  0  0
  151.6886  136.8169  158.1814 H   0  0  0  0  0  0  0  0  0  0  0  0
  152.8567  138.1149  162.4355 H   0  0  0  0  0  0  0  0  0  0  0  0
  155.0079  137.9980  164.8389 H   0  0  0  0  0  0  0  0  0  0  0  0
  155.1634  136.2829  165.2227 H   0  0  0  0  0  0  0  0  0  0  0  0
  153.5822  137.0618  165.2929 H   0  0  0  0  0  0  0  0  0  0  0  0
  150.1510  144.1336  157.4005 H   0  0  0  0  0  0  0  0  0  0  0  0
  1 20  1  0  0  0  0
  1 21  1  0  0  0  0
  1 22  1  0  0  0  0
  1  2  1  0  0  0  0
  2  7  2  0  0  0  0
  2  3  1  0  0  0  0
  3  4  1  0  0  0  0
  3 33  1  0  0  0  0
  4 23  1  0  0  0  0
  4  5  1  0  0  0  0
  5  7  1  0  0  0  0
  5  6  2  0  0  0  0
  7  8  1  0  0  0  0
  8  9  1  0  0  0  0
  8 24  1  0  0  0  0
  8 25  1  0  0  0  0
  9 10  1  0  0  0  0
  9 26  1  0  0  0  0
  9 27  1  0  0  0  0
 10 11  1  0  0  0  0
 10 28  1  0  0  0  0
 11 12  2  0  0  0  0
 11 13  1  0  0  0  0
 13 14  1  0  0  0  0
 14 19  2  0  0  0  0
 14 15  1  0  0  0  0
 15 16  2  0  0  0  0
 15 29  1  0  0  0  0
 16 17  1  0  0  0  0
 16 18  1  0  0  0  0
 17 30  1  0  0  0  0
 17 31  1  0  0  0  0
 17 32  1  0  0  0  0
 18 19  1  0  0  0  0
M  CHG  1  13  -1
M  END
> <s_m_source_file>
AV-unprocessed.smi

> <i_m_source_file_index>
2655

> <i_lp_mmshare_version>
43012

> <i_f3d_flags>
0

> <s_epik_input>
W0NIM11DMT1OW05IXUMoPU8pW0NASF0xW0NIMl1bQ0gyXVtOSF1DKD1PKVtOSF1jMltjSF1jKFtDSDNdKW9uMg==

> <s_epik_cmdline>
J2VwaWtfcHl0aG9uJywgJy1waCcsICc3LjAnLCAnLXRuJywgJzgnLCAnLW1hJywgJzIwMCcsICctbWV0YWxfYmluZGluZycsICctaW1hZScsICc8aW5maWxlLm1hZT4nLCAnLW9tYWUnLCAnPG91dGZpbGUubWFlPic=

> <r_lp_tautomer_probability>
0.00220696

> <r_epik_Ionization_Penalty>
6.47655

> <r_epik_Ionization_Penalty_Charging>
6.44485

> <r_epik_Ionization_Penalty_Neutral>
0.0316949

> <r_epik_State_Penalty>
7.07162

> <r_epik_Charging_Adjusted_Penalty>
13.5165

> <i_epik_Tot_Q>
-1

> <i_epik_Tot_abs_Q>
1

> <r_epik_Metal_State_Penalty>
4.39363

> <b_epik_Metal_Only>
1

> <s_lp_Force_Field>
OPLS_2005

> <r_lp_Energy>
11.561

> <b_lp_Chiralities_Consistent>
1

> <s_lp_Variant>
AV-unprocessed.smi:2655-6

> <Gold.Version>
5.8.1

> <Gold.Id.Protein>
6NUR|6NUR_protein|mol2

> <Gold.PLP.Fitness>
40.5262

> <Gold.PLP.PLP>
-30.7181

> <Gold.PLP.part.hbond>
-3.8941

> <Gold.PLP.part.metal>
0.0000

> <Gold.PLP.part.buried>
-5.6833

> <Gold.PLP.part.nonpolar>
-21.4326

> <Gold.PLP.part.repulsive>
0.3351

> <Gold.PLP.ligand.clash>
0.0000

> <Gold.PLP.ligand.torsion>
0.3722

> <Gold.PLP.Chemscore.Hbond>
3.4815

> <Gold.PLP.Chemscore.CHOScore>
0.0000

> <Gold.PLP.Chemscore.Metal>
0.0000

> <Gold.Chemscore.Hbonds>
donor molecule, donor type, donor heavy atom, donor atom, acceptor molecule, acceptor atom, score
      L1  H     3    33       P1  8028  0.05
      L1  H     4    23       P1  8028  0.42
      P1  H  6896  6909       L1    13  1.80
      P1  H  7989  7998       L1     6  0.98

> <Gold.PLP.Chemscore.Internal.Correction>
0.1080

> <Gold.Rescore>
     Score         DG    S(hbond)    S(metal)    S(lipo)     H(rot)  DE(clash)    DE(int)     intcor
     12.00     -15.19       2.27        0.00      59.03       1.86       0.02       3.16       ----

> <Gold.Chemscore.Fitness>
12.0039

> <Gold.Chemscore.DG>
-15.1852

> <Gold.Chemscore.ZeroCoef>
-5.4800

> <Gold.Chemscore.Hbond>
2.2665

> <Gold.Chemscore.Metal>
0.0000

> <Gold.Chemscore.Lipo>
59.0349

> <Gold.Chemscore.Internal_Hbond>
0.0000

> <Gold.Chemscore.DEClash>
0.0239

> <Gold.Chemscore.DEInternal>
3.1574

> <Gold.Chemscore.Rot>
1.8640

> <Gold.Chemscore.Internal.Correction>
   9.000000E+99

> <Gold.Chemscore.Hbonds>
donor molecule, donor type, donor heavy atom, donor atom, acceptor molecule, acceptor atom, score
      L1  H     3    33       P1  8028  0.05
      L1  H     4    23       P1  8028  0.42
      P1  H  6896  6909       L1    13  0.17
      P1  H  7989  7998       L1     6  0.87

> <Gold.Chemscore.Hbond.Weighted>
-7.5700

> <Gold.Chemscore.Metal.Weighted>
-0.0000

> <Gold.Chemscore.Lipo.Weighted>
-6.9071

> <Gold.Chemscore.Internal_Hbond.Weighted>
0.0000

> <Gold.Chemscore.DEClash.Weighted>
0.0239

> <Gold.Chemscore.DEInternal.Weighted>
3.1574

> <Gold.Chemscore.Rot.Weighted>
4.7719

> <Gold.Chemscore.Internal.Correction.Weighted>
   9.000000E+99

> <Gold.Protein.RotatedTorsions>
[ 6907 6896 6895 6894 ] final  141.90 input  -60.11 | X-H torsion
[ 7974 7965 7964 7962 ] final  145.38 input  175.53 | X-H torsion
[ 8008 7997 7996 7995 ] final  -11.75 input   59.86 | X-H torsion
[ 10167 10162 10161 10158 ] final  -16.03 input  -65.29 | X-H torsion
[ 10718 10713 10712 10709 ] final  -10.90 input   66.30 | X-H torsion
[ 10763 10752 10751 10750 ] final  105.75 input  -60.55 | X-H torsion
[ 11005 11000 10999 10996 ] final  163.02 input  -57.11 | X-H torsion

> <Gold.Protein.ActiveResidues>
 VAL166  LYS551  ARG553  GLY616  TRP617  ASP618  TYR619  PRO620  LYS621  CYS622 
 ASP623  PHE694  ASN695  SER759  ASP760  ASP761  ALA762  ILE779  LEU786  VAL792 
 PHE793  MET794  SER795  GLU796  ALA797  LYS798  CYS799  TRP800  GLU811  SER814 

> <Gold.Protein.RotatedAtoms>
  152.2253  133.5015  159.5185 H   0  0  0  0  0  0  0  0  0  0  0  0  # atno 6907 bound_to 6896
  150.7023  134.1288  159.4071 H   0  0  0  0  0  0  0  0  0  0  0  0  # atno 6908 bound_to 6896
  151.9209  135.0298  160.0572 H   0  0  0  0  0  0  0  0  0  0  0  0  # atno 6909 bound_to 6896
  144.8758  139.5775  143.5866 H   0  0  0  0  0  0  0  0  0  0  0  0  # atno 7974 bound_to 7965
  154.5438  140.2294  155.8598 H   0  0  0  0  0  0  0  0  0  0  0  0  # atno 8008 bound_to 7997
  156.1883  140.3083  155.9244 H   0  0  0  0  0  0  0  0  0  0  0  0  # atno 8009 bound_to 7997
  155.3206  140.0440  157.3029 H   0  0  0  0  0  0  0  0  0  0  0  0  # atno 8010 bound_to 7997
  140.7227  143.5157  150.9694 H   0  0  0  0  0  0  0  0  0  0  0  0  # atno 10167 bound_to 10162
  156.6667  130.4997  149.6013 H   0  0  0  0  0  0  0  0  0  0  0  0  # atno 10718 bound_to 10713
  153.3836  135.3899  155.1874 H   0  0  0  0  0  0  0  0  0  0  0  0  # atno 10763 bound_to 10752
  154.8711  135.3731  154.4826 H   0  0  0  0  0  0  0  0  0  0  0  0  # atno 10764 bound_to 10752
  153.5306  135.7086  153.5746 H   0  0  0  0  0  0  0  0  0  0  0  0  # atno 10765 bound_to 10752
  140.2315  134.8120  157.3322 H   0  0  0  0  0  0  0  0  0  0  0  0  # atno 11005 bound_to 11000
  146.2961  139.7283  142.9125 LP  0  0  0  0  0  0  0  0  0  0  0  0  # atno 17320 bound_to 7965
  145.4046  141.0389  143.3051 LP  0  0  0  0  0  0  0  0  0  0  0  0  # atno 17321 bound_to 7965
  139.8873  143.6997  152.3150 LP  0  0  0  0  0  0  0  0  0  0  0  0  # atno 17342 bound_to 10162
  139.7300  144.7584  151.0816 LP  0  0  0  0  0  0  0  0  0  0  0  0  # atno 17343 bound_to 10162
  156.1969  130.6595  151.1124 LP  0  0  0  0  0  0  0  0  0  0  0  0  # atno 17370 bound_to 10713
  157.7091  131.0743  150.6564 LP  0  0  0  0  0  0  0  0  0  0  0  0  # atno 17371 bound_to 10713
  140.1745  134.4567  155.7810 LP  0  0  0  0  0  0  0  0  0  0  0  0  # atno 17394 bound_to 11000
  141.2217  133.6956  156.7764 LP  0  0  0  0  0  0  0  0  0  0  0  0  # atno 17395 bound_to 11000

$$$$
