AV-unprocessed.smi:2272|AV-procd|sdf|9162|dock4
  -GOLD-   2272012373D 1   1.00000     0.00000
 Structure written by MMmdl.
 41 42  0  0  0  0  0  0  0  0  1 V2000
  149.2905  134.5795  157.3638 C   0  0  0  0  0  0  0  0  0  0  0  0
  149.7942  135.6981  156.4689 C   0  0  0  0  0  0  0  0  0  0  0  0
  148.8725  136.7114  156.1921 N   0  0  0  0  0  0  0  0  0  0  0  0
  149.2190  137.7124  155.4512 C   0  0  0  0  0  0  0  0  0  0  0  0
  150.5110  137.8204  154.9094 N   0  0  0  0  0  0  0  0  0  0  0  0
  150.7743  139.0264  154.1035 C   0  0  0  0  0  0  0  0  0  0  0  0
  150.1668  140.3025  154.7297 C   0  0  2  0  0  0  0  0  0  0  0  0
  149.6896  141.1638  153.7179 O   0  0  0  0  0  0  0  0  0  0  0  0
  151.1012  141.0913  155.6632 C   0  0  0  0  0  0  0  0  0  0  0  0
  150.3950  142.1595  156.2796 O   0  0  0  0  0  0  0  0  0  0  0  0
  150.1464  141.9645  157.6654 C   0  0  0  0  0  0  0  0  0  0  0  0
  151.3763  142.1846  158.5311 C   0  0  0  0  0  0  0  0  0  0  0  0
  151.9406  141.1060  159.2450 C   0  0  0  0  0  0  0  0  0  0  0  0
  153.0823  141.3039  160.0453 C   0  0  0  0  0  0  0  0  0  0  0  0
  153.6613  142.5835  160.1416 C   0  0  0  0  0  0  0  0  0  0  0  0
  153.0983  143.6644  159.4362 C   0  0  0  0  0  0  0  0  0  0  0  0
  151.9585  143.4674  158.6326 C   0  0  0  0  0  0  0  0  0  0  0  0
  151.4293  144.5155  157.9567 F   0  0  0  0  0  0  0  0  0  0  0  0
  151.4625  136.8625  155.1095 C   0  0  0  0  0  0  0  0  0  0  0  0
  152.5842  136.9477  154.6089 O   0  0  0  0  0  0  0  0  0  0  0  0
  151.0559  135.7320  155.9603 C   0  0  0  0  0  0  0  0  0  0  0  0
  152.1019  134.6588  156.2335 C   0  0  0  0  0  0  0  0  0  0  0  0
  149.9161  134.4884  158.2523 H   0  0  0  0  0  0  0  0  0  0  0  0
  149.3022  133.6291  156.8294 H   0  0  0  0  0  0  0  0  0  0  0  0
  148.2674  134.7647  157.6936 H   0  0  0  0  0  0  0  0  0  0  0  0
  148.5390  138.5304  155.2055 H   0  0  0  0  0  0  0  0  0  0  0  0
  151.8415  139.1700  153.9269 H   0  0  0  0  0  0  0  0  0  0  0  0
  150.3549  138.8811  153.1057 H   0  0  0  0  0  0  0  0  0  0  0  0
  149.2839  140.0233  155.3055 H   0  0  0  0  0  0  0  0  0  0  0  0
  149.6002  140.6643  152.9203 H   0  0  0  0  0  0  0  0  0  0  0  0
  151.5293  140.4274  156.4161 H   0  0  0  0  0  0  0  0  0  0  0  0
  151.9323  141.4903  155.0814 H   0  0  0  0  0  0  0  0  0  0  0  0
  149.3779  142.6760  157.9680 H   0  0  0  0  0  0  0  0  0  0  0  0
  149.7229  140.9756  157.8490 H   0  0  0  0  0  0  0  0  0  0  0  0
  151.5013  140.1215  159.1753 H   0  0  0  0  0  0  0  0  0  0  0  0
  153.5137  140.4739  160.5854 H   0  0  0  0  0  0  0  0  0  0  0  0
  154.5373  142.7364  160.7544 H   0  0  0  0  0  0  0  0  0  0  0  0
  153.5436  144.6457  159.5080 H   0  0  0  0  0  0  0  0  0  0  0  0
  152.9199  135.0776  156.8188 H   0  0  0  0  0  0  0  0  0  0  0  0
  152.5131  134.2803  155.2970 H   0  0  0  0  0  0  0  0  0  0  0  0
  151.7078  133.8050  156.7820 H   0  0  0  0  0  0  0  0  0  0  0  0
  1  2  1  0  0  0  0
  1 23  1  0  0  0  0
  1 24  1  0  0  0  0
  1 25  1  0  0  0  0
  2 21  2  0  0  0  0
  2  3  1  0  0  0  0
  3  4  2  0  0  0  0
  4  5  1  0  0  0  0
  4 26  1  0  0  0  0
  5  6  1  0  0  0  0
  5 19  1  0  0  0  0
  6  7  1  0  0  0  0
  6 27  1  0  0  0  0
  6 28  1  0  0  0  0
  7  8  1  0  0  0  0
  7  9  1  0  0  0  0
  7 29  1  0  0  0  0
  8 30  1  0  0  0  0
  9 10  1  0  0  0  0
  9 31  1  0  0  0  0
  9 32  1  0  0  0  0
 10 11  1  0  0  0  0
 11 12  1  0  0  0  0
 11 33  1  0  0  0  0
 11 34  1  0  0  0  0
 12 17  1  0  0  0  0
 12 13  2  0  0  0  0
 13 14  1  0  0  0  0
 13 35  1  0  0  0  0
 14 15  2  0  0  0  0
 14 36  1  0  0  0  0
 15 16  1  0  0  0  0
 15 37  1  0  0  0  0
 16 17  2  0  0  0  0
 16 38  1  0  0  0  0
 17 18  1  0  0  0  0
 19 20  2  0  0  0  0
 19 21  1  0  0  0  0
 21 22  1  0  0  0  0
 22 39  1  0  0  0  0
 22 40  1  0  0  0  0
 22 41  1  0  0  0  0
M  END
> <s_m_source_file>
AV-unprocessed.smi

> <i_m_source_file_index>
2272

> <i_lp_mmshare_version>
43012

> <i_f3d_flags>
0

> <s_epik_input>
W0NIM11jMW5bY0hdbihjKD1PKWMxW0NIM10pW0NIMl1bQ0BIXShbT0hdKVtDSDJdT1tDSDJdYzJbY0hdW2NIXVtjSF1bY0hdYzJG

> <s_epik_cmdline>
J2VwaWtfcHl0aG9uJywgJy1waCcsICc3LjAnLCAnLXRuJywgJzgnLCAnLW1hJywgJzIwMCcsICctbWV0YWxfYmluZGluZycsICctaW1hZScsICc8aW5maWxlLm1hZT4nLCAnLW9tYWUnLCAnPG91dGZpbGUubWFlPic=

> <r_lp_tautomer_probability>
1

> <r_epik_Ionization_Penalty>
5.35985e-05

> <r_epik_Ionization_Penalty_Charging>
1.17753e-07

> <r_epik_Ionization_Penalty_Neutral>
5.34808e-05

> <r_epik_State_Penalty>
-0

> <r_epik_Charging_Adjusted_Penalty>
1.17753e-07

> <i_epik_Tot_Q>
0

> <i_epik_Tot_abs_Q>
0

> <r_epik_Metal_State_Penalty>
-0

> <b_epik_Metal_Only>
0

> <s_lp_Force_Field>
OPLS_2005

> <r_lp_Energy>
20.6286

> <b_lp_Chiralities_Consistent>
1

> <s_lp_Variant>
AV-unprocessed.smi:2272-1

> <Gold.Version>
5.8.1

> <Gold.Id.Protein>
6NUR|6NUR_protein|mol2

> <Gold.PLP.Fitness>
46.3405

> <Gold.PLP.PLP>
-42.5107

> <Gold.PLP.part.hbond>
-3.7593

> <Gold.PLP.part.metal>
0.0000

> <Gold.PLP.part.buried>
-4.3489

> <Gold.PLP.part.nonpolar>
-34.5960

> <Gold.PLP.part.repulsive>
0.6949

> <Gold.PLP.ligand.clash>
0.0000

> <Gold.PLP.ligand.torsion>
1.1588

> <Gold.PLP.Chemscore.Hbond>
2.0000

> <Gold.PLP.Chemscore.CHOScore>
0.0000

> <Gold.PLP.Chemscore.Metal>
0.0000

> <Gold.Chemscore.Hbonds>
donor molecule, donor type, donor heavy atom, donor atom, acceptor molecule, acceptor atom, score
      L1  H     8    30       P1  7957  1.00
      P1  H 10752 10764       L1    20  0.36

> <Gold.PLP.Chemscore.Internal.Correction>
0.1474

> <Gold.Rescore>
     Score         DG    S(hbond)    S(metal)    S(lipo)     H(rot)  DE(clash)    DE(int)     intcor
     15.60     -17.17       1.93        0.00     103.52       2.69       0.13       1.44       ----

> <Gold.Chemscore.Fitness>
15.6014

> <Gold.Chemscore.DG>
-17.1707

> <Gold.Chemscore.ZeroCoef>
-5.4800

> <Gold.Chemscore.Hbond>
1.9325

> <Gold.Chemscore.Metal>
0.0000

> <Gold.Chemscore.Lipo>
103.5179

> <Gold.Chemscore.Internal_Hbond>
0.0000

> <Gold.Chemscore.DEClash>
0.1307

> <Gold.Chemscore.DEInternal>
1.4385

> <Gold.Chemscore.Rot>
2.6857

> <Gold.Chemscore.Internal.Correction>
   9.000000E+99

> <Gold.Chemscore.Hbonds>
donor molecule, donor type, donor heavy atom, donor atom, acceptor molecule, acceptor atom, score
      L1  H     8    30       P1  7957  1.00
      P1  H 10752 10764       L1    20  0.23

> <Gold.Chemscore.Hbond.Weighted>
-6.4545

> <Gold.Chemscore.Metal.Weighted>
-0.0000

> <Gold.Chemscore.Lipo.Weighted>
-12.1116

> <Gold.Chemscore.Internal_Hbond.Weighted>
0.0000

> <Gold.Chemscore.DEClash.Weighted>
0.1307

> <Gold.Chemscore.DEInternal.Weighted>
1.4385

> <Gold.Chemscore.Rot.Weighted>
6.8755

> <Gold.Chemscore.Internal.Correction.Weighted>
   9.000000E+99

> <Gold.Protein.RotatedTorsions>
[ 6907 6896 6895 6894 ] final -112.65 input  -60.11 | X-H torsion
[ 7974 7965 7964 7962 ] final   88.41 input  175.53 | X-H torsion
[ 8008 7997 7996 7995 ] final   87.16 input   59.86 | X-H torsion
[ 10167 10162 10161 10158 ] final  -80.60 input  -65.29 | X-H torsion
[ 10718 10713 10712 10709 ] final    3.31 input   66.30 | X-H torsion
[ 10763 10752 10751 10750 ] final  -80.77 input  -60.55 | X-H torsion
[ 11005 11000 10999 10996 ] final -133.49 input  -57.11 | X-H torsion

> <Gold.Protein.ActiveResidues>
 VAL166  LYS551  ARG553  GLY616  TRP617  ASP618  TYR619  PRO620  LYS621  CYS622 
 ASP623  PHE694  ASN695  SER759  ASP760  ASP761  ALA762  ILE779  LEU786  VAL792 
 PHE793  MET794  SER795  GLU796  ALA797  LYS798  CYS799  TRP800  GLU811  SER814 

> <Gold.Protein.RotatedAtoms>
  150.7773  133.9058  159.3354 H   0  0  0  0  0  0  0  0  0  0  0  0  # atno 6907 bound_to 6896
  151.6930  135.0941  160.0246 H   0  0  0  0  0  0  0  0  0  0  0  0  # atno 6908 bound_to 6896
  152.3814  133.6512  159.6199 H   0  0  0  0  0  0  0  0  0  0  0  0  # atno 6909 bound_to 6896
  145.5461  139.2292  143.2539 H   0  0  0  0  0  0  0  0  0  0  0  0  # atno 7974 bound_to 7965
  155.9719  140.3385  155.6583 H   0  0  0  0  0  0  0  0  0  0  0  0  # atno 8008 bound_to 7997
  155.6663  140.0722  157.2554 H   0  0  0  0  0  0  0  0  0  0  0  0  # atno 8009 bound_to 7997
  154.4169  140.1699  156.1818 H   0  0  0  0  0  0  0  0  0  0  0  0  # atno 8010 bound_to 7997
  140.4488  143.2490  151.8519 H   0  0  0  0  0  0  0  0  0  0  0  0  # atno 10167 bound_to 10162
  156.8760  130.5636  149.5655 H   0  0  0  0  0  0  0  0  0  0  0  0  # atno 10718 bound_to 10713
  154.5553  135.5649  153.6958 H   0  0  0  0  0  0  0  0  0  0  0  0  # atno 10763 bound_to 10752
  153.0001  135.6261  154.2318 H   0  0  0  0  0  0  0  0  0  0  0  0  # atno 10764 bound_to 10752
  154.2255  135.2868  155.2889 H   0  0  0  0  0  0  0  0  0  0  0  0  # atno 10765 bound_to 10752
  140.9075  134.1610  157.4414 H   0  0  0  0  0  0  0  0  0  0  0  0  # atno 11005 bound_to 11000
  146.1948  140.6282  142.9129 LP  0  0  0  0  0  0  0  0  0  0  0  0  # atno 17320 bound_to 7965
  144.7553  140.5291  143.6773 LP  0  0  0  0  0  0  0  0  0  0  0  0  # atno 17321 bound_to 7965
  139.4795  144.5144  151.8889 LP  0  0  0  0  0  0  0  0  0  0  0  0  # atno 17342 bound_to 10162
  140.4231  144.2216  150.5887 LP  0  0  0  0  0  0  0  0  0  0  0  0  # atno 17343 bound_to 10162
  156.0702  130.5736  150.9368 LP  0  0  0  0  0  0  0  0  0  0  0  0  # atno 17370 bound_to 10713
  157.6168  131.0932  150.8695 LP  0  0  0  0  0  0  0  0  0  0  0  0  # atno 17371 bound_to 10713
  139.8752  134.9923  156.5589 LP  0  0  0  0  0  0  0  0  0  0  0  0  # atno 17394 bound_to 11000
  140.8152  133.8397  155.8845 LP  0  0  0  0  0  0  0  0  0  0  0  0  # atno 17395 bound_to 11000

$$$$
