AV-unprocessed.smi:508|AV-procd|sdf|2759|dock1
  -GOLD-   2262023223D 1   1.00000     0.00000
 Structure written by MMmdl.
 48 50  0  0  0  0  0  0  0  0  2 V2000
  147.9002  141.6942  153.8529 C   0  0  0  0  0  0  0  0  0  0  0  0
  148.5313  140.4576  154.4969 C   0  0  0  0  0  0  0  0  0  0  0  0
  149.9423  140.5744  154.4311 O   0  0  0  0  0  0  0  0  0  0  0  0
  150.6106  139.5690  155.1745 C   0  0  0  0  0  0  0  0  0  0  0  0
  150.4251  139.8641  156.6698 C   0  0  0  0  0  0  0  0  0  0  0  0
  151.6349  139.6255  157.4509 N   0  0  0  0  0  0  0  0  0  0  0  0
  152.2961  140.4914  158.2668 C   0  0  0  0  0  0  0  0  0  0  0  0
  151.8278  141.7833  158.5178 N   0  0  0  0  0  0  0  0  0  0  0  0
  151.2034  142.6372  157.5100 C   0  0  0  0  0  0  0  0  0  0  0  0
  151.8100  144.0491  157.3864 C   0  0  0  0  0  0  0  0  0  0  0  0
  151.4133  144.9770  158.5441 C   0  0  0  0  0  0  0  0  0  0  0  0
  152.2649  144.8285  159.8177 C   0  0  0  0  0  0  0  0  0  0  0  0
  152.6715  143.3946  160.2053 C   0  0  0  0  0  0  0  0  0  0  0  0
  151.6405  142.3056  159.8688 C   0  0  0  0  0  0  0  0  0  0  0  0
  153.4302  140.0128  158.7839 N   0  0  0  0  0  0  0  0  0  0  0  0
  153.4798  138.7230  158.2786 C   0  0  0  0  0  0  0  0  0  0  0  0
  152.4139  138.4647  157.4759 C   0  0  0  0  0  0  0  0  0  0  0  0
  152.2038  137.1779  156.7787 C   0  0  0  0  0  0  0  0  0  0  0  0
  151.2292  137.0017  156.0506 O   0  0  0  0  0  0  0  0  0  0  0  0
  153.1970  136.2739  157.0541 N   0  5  0  0  0  0  0  0  0  0  0  0
  154.2917  136.4916  157.8641 C   0  0  0  0  0  0  0  0  0  0  0  0
  155.1346  135.6151  158.0562 O   0  0  0  0  0  0  0  0  0  0  0  0
  154.4541  137.7092  158.4753 N   0  0  0  0  0  0  0  0  0  0  0  0
  155.5942  138.0238  159.3419 C   0  0  0  0  0  0  0  0  0  0  0  0
  146.8120  141.6385  153.8861 H   0  0  0  0  0  0  0  0  0  0  0  0
  148.1993  141.7866  152.8086 H   0  0  0  0  0  0  0  0  0  0  0  0
  148.2049  142.6033  154.3713 H   0  0  0  0  0  0  0  0  0  0  0  0
  148.2090  140.3749  155.5358 H   0  0  0  0  0  0  0  0  0  0  0  0
  148.2033  139.5574  153.9750 H   0  0  0  0  0  0  0  0  0  0  0  0
  150.2024  138.5926  154.9184 H   0  0  0  0  0  0  0  0  0  0  0  0
  151.6693  139.5529  154.9143 H   0  0  0  0  0  0  0  0  0  0  0  0
  150.1155  140.8989  156.8138 H   0  0  0  0  0  0  0  0  0  0  0  0
  149.6114  139.2697  157.0788 H   0  0  0  0  0  0  0  0  0  0  0  0
  151.2663  142.1334  156.5477 H   0  0  0  0  0  0  0  0  0  0  0  0
  150.1359  142.7091  157.7213 H   0  0  0  0  0  0  0  0  0  0  0  0
  152.8918  144.0213  157.2645 H   0  0  0  0  0  0  0  0  0  0  0  0
  151.4235  144.4861  156.4653 H   0  0  0  0  0  0  0  0  0  0  0  0
  151.4809  146.0131  158.2107 H   0  0  0  0  0  0  0  0  0  0  0  0
  150.3612  144.8197  158.7851 H   0  0  0  0  0  0  0  0  0  0  0  0
  153.1735  145.4226  159.7138 H   0  0  0  0  0  0  0  0  0  0  0  0
  151.7151  145.2795  160.6444 H   0  0  0  0  0  0  0  0  0  0  0  0
  153.6275  143.1429  159.7426 H   0  0  0  0  0  0  0  0  0  0  0  0
  152.8616  143.3806  161.2789 H   0  0  0  0  0  0  0  0  0  0  0  0
  150.6214  142.6655  160.0156 H   0  0  0  0  0  0  0  0  0  0  0  0
  151.7682  141.4810  160.5710 H   0  0  0  0  0  0  0  0  0  0  0  0
  156.3446  137.2354  159.4032 H   0  0  0  0  0  0  0  0  0  0  0  0
  155.2448  138.2225  160.3553 H   0  0  0  0  0  0  0  0  0  0  0  0
  156.0994  138.9199  158.9801 H   0  0  0  0  0  0  0  0  0  0  0  0
  1  2  1  0  0  0  0
  1 25  1  0  0  0  0
  1 26  1  0  0  0  0
  1 27  1  0  0  0  0
  2  3  1  0  0  0  0
  2 28  1  0  0  0  0
  2 29  1  0  0  0  0
  3  4  1  0  0  0  0
  4  5  1  0  0  0  0
  4 30  1  0  0  0  0
  4 31  1  0  0  0  0
  5  6  1  0  0  0  0
  5 32  1  0  0  0  0
  5 33  1  0  0  0  0
  6 17  1  0  0  0  0
  6  7  1  0  0  0  0
  7  8  1  0  0  0  0
  7 15  2  0  0  0  0
  8 14  1  0  0  0  0
  8  9  1  0  0  0  0
  9 10  1  0  0  0  0
  9 34  1  0  0  0  0
  9 35  1  0  0  0  0
 10 11  1  0  0  0  0
 10 36  1  0  0  0  0
 10 37  1  0  0  0  0
 11 12  1  0  0  0  0
 11 38  1  0  0  0  0
 11 39  1  0  0  0  0
 12 13  1  0  0  0  0
 12 40  1  0  0  0  0
 12 41  1  0  0  0  0
 13 14  1  0  0  0  0
 13 42  1  0  0  0  0
 13 43  1  0  0  0  0
 14 44  1  0  0  0  0
 14 45  1  0  0  0  0
 15 16  1  0  0  0  0
 16 23  1  0  0  0  0
 16 17  2  0  0  0  0
 17 18  1  0  0  0  0
 18 19  2  0  0  0  0
 18 20  1  0  0  0  0
 20 21  1  0  0  0  0
 21 22  2  0  0  0  0
 21 23  1  0  0  0  0
 23 24  1  0  0  0  0
 24 46  1  0  0  0  0
 24 47  1  0  0  0  0
 24 48  1  0  0  0  0
M  CHG  1  20  -1
M  END
> <s_m_source_file>
AV-unprocessed.smi

> <i_m_source_file_index>
508

> <i_lp_mmshare_version>
43012

> <i_f3d_flags>
0

> <s_epik_input>
W0NIM11uMWMoPU8pW25IXWMoPU8pYyhjMTIpbihbQ0gyXVtDSDJdT1tDSDJdW0NIM10pYyhuMilOM1tDSDJdW0NIMl1bQ0gyXVtDSDJdW0NIMl1bQ0gyXTM=

> <s_epik_cmdline>
J2VwaWtfcHl0aG9uJywgJy1waCcsICc3LjAnLCAnLXRuJywgJzgnLCAnLW1hJywgJzIwMCcsICctbWV0YWxfYmluZGluZycsICctaW1hZScsICc8aW5maWxlLm1hZT4nLCAnLW9tYWUnLCAnPG91dGZpbGUubWFlPic=

> <r_lp_tautomer_probability>
1

> <r_epik_Ionization_Penalty>
6.1764

> <r_epik_Ionization_Penalty_Charging>
0.0751667

> <r_epik_Ionization_Penalty_Neutral>
6.10123

> <r_epik_State_Penalty>
6.09793

> <r_epik_Charging_Adjusted_Penalty>
6.17309

> <i_epik_Tot_Q>
-1

> <i_epik_Tot_abs_Q>
1

> <r_epik_Metal_State_Penalty>
2.04406

> <b_epik_Metal_Only>
1

> <s_lp_Force_Field>
OPLS_2005

> <r_lp_Energy>
49.0985

> <b_lp_Chiralities_Consistent>
1

> <s_lp_Variant>
AV-unprocessed.smi:508-2

> <Gold.Version>
5.8.1

> <Gold.Id.Protein>
6NUR|6NUR_protein|mol2

> <Gold.PLP.Fitness>
44.6371

> <Gold.PLP.PLP>
-39.0935

> <Gold.PLP.part.hbond>
-3.0000

> <Gold.PLP.part.metal>
0.0000

> <Gold.PLP.part.buried>
-4.2849

> <Gold.PLP.part.nonpolar>
-31.8787

> <Gold.PLP.part.repulsive>
0.1464

> <Gold.PLP.ligand.clash>
0.0000

> <Gold.PLP.ligand.torsion>
1.1587

> <Gold.PLP.Chemscore.Hbond>
2.3600

> <Gold.PLP.Chemscore.CHOScore>
0.0000

> <Gold.PLP.Chemscore.Metal>
0.0000

> <Gold.Chemscore.Hbonds>
donor molecule, donor type, donor heavy atom, donor atom, acceptor molecule, acceptor atom, score
      P1  H  7989  7998       L1     3  0.32
      P1  H 10752 10764       L1    20  2.00

> <Gold.PLP.Chemscore.Internal.Correction>
0.7809

> <Gold.Rescore>
     Score         DG    S(hbond)    S(metal)    S(lipo)     H(rot)  DE(clash)    DE(int)     intcor
     12.86     -15.48       0.64        0.00     101.16       1.55       0.32       2.30       ----

> <Gold.Chemscore.Fitness>
12.8564

> <Gold.Chemscore.DG>
-15.4752

> <Gold.Chemscore.ZeroCoef>
-5.4800

> <Gold.Chemscore.Hbond>
0.6397

> <Gold.Chemscore.Metal>
0.0000

> <Gold.Chemscore.Lipo>
101.1586

> <Gold.Chemscore.Internal_Hbond>
0.0000

> <Gold.Chemscore.DEClash>
0.3221

> <Gold.Chemscore.DEInternal>
2.2967

> <Gold.Chemscore.Rot>
1.5534

> <Gold.Chemscore.Internal.Correction>
   9.000000E+99

> <Gold.Chemscore.Hbonds>
donor molecule, donor type, donor heavy atom, donor atom, acceptor molecule, acceptor atom, score
      P1  H  7989  7998       L1     3  0.01
      P1  H 10752 10764       L1    20  0.50

> <Gold.Chemscore.Hbond.Weighted>
-2.1365

> <Gold.Chemscore.Metal.Weighted>
-0.0000

> <Gold.Chemscore.Lipo.Weighted>
-11.8356

> <Gold.Chemscore.Internal_Hbond.Weighted>
0.0000

> <Gold.Chemscore.DEClash.Weighted>
0.3221

> <Gold.Chemscore.DEInternal.Weighted>
2.2967

> <Gold.Chemscore.Rot.Weighted>
3.9768

> <Gold.Chemscore.Internal.Correction.Weighted>
   9.000000E+99

> <Gold.Protein.RotatedTorsions>
[ 6907 6896 6895 6894 ] final   78.83 input  -60.11 | X-H torsion
[ 7974 7965 7964 7962 ] final -114.15 input  175.53 | X-H torsion
[ 8008 7997 7996 7995 ] final   12.09 input   59.86 | X-H torsion
[ 10167 10162 10161 10158 ] final -169.39 input  -65.29 | X-H torsion
[ 10718 10713 10712 10709 ] final   -1.92 input   66.30 | X-H torsion
[ 10763 10752 10751 10750 ] final   17.14 input  -60.55 | X-H torsion
[ 11005 11000 10999 10996 ] final   99.09 input  -57.11 | X-H torsion

> <Gold.Protein.ActiveResidues>
 VAL166  LYS551  ARG553  GLY616  TRP617  ASP618  TYR619  PRO620  LYS621  CYS622 
 ASP623  PHE694  ASN695  SER759  ASP760  ASP761  ALA762  ILE779  LEU786  VAL792 
 PHE793  MET794  SER795  GLU796  ALA797  LYS798  CYS799  TRP800  GLU811  SER814 

> <Gold.Protein.RotatedAtoms>
  152.5175  134.3604  159.9282 H   0  0  0  0  0  0  0  0  0  0  0  0  # atno 6907 bound_to 6896
  151.3556  133.3902  159.2692 H   0  0  0  0  0  0  0  0  0  0  0  0  # atno 6908 bound_to 6896
  150.9692  134.9087  159.7836 H   0  0  0  0  0  0  0  0  0  0  0  0  # atno 6909 bound_to 6896
  145.1236  140.8684  143.3799 H   0  0  0  0  0  0  0  0  0  0  0  0  # atno 7974 bound_to 7965
  154.8158  140.2875  155.5821 H   0  0  0  0  0  0  0  0  0  0  0  0  # atno 8008 bound_to 7997
  156.2993  140.2559  156.2985 H   0  0  0  0  0  0  0  0  0  0  0  0  # atno 8009 bound_to 7997
  154.9395  140.0381  157.2079 H   0  0  0  0  0  0  0  0  0  0  0  0  # atno 8010 bound_to 7997
  139.5926  144.1181  152.1652 H   0  0  0  0  0  0  0  0  0  0  0  0  # atno 10167 bound_to 10162
  156.7985  130.5385  149.5725 H   0  0  0  0  0  0  0  0  0  0  0  0  # atno 10718 bound_to 10713
  153.1366  135.6751  153.9094 H   0  0  0  0  0  0  0  0  0  0  0  0  # atno 10763 bound_to 10752
  153.8564  135.3087  155.3436 H   0  0  0  0  0  0  0  0  0  0  0  0  # atno 10764 bound_to 10752
  154.7752  135.4918  153.9813 H   0  0  0  0  0  0  0  0  0  0  0  0  # atno 10765 bound_to 10752
  139.8771  134.9080  156.4554 H   0  0  0  0  0  0  0  0  0  0  0  0  # atno 11005 bound_to 11000
  145.0713  139.3030  143.5831 LP  0  0  0  0  0  0  0  0  0  0  0  0  # atno 17320 bound_to 7965
  146.3519  140.0188  142.8660 LP  0  0  0  0  0  0  0  0  0  0  0  0  # atno 17321 bound_to 7965
  140.0758  144.5741  150.7158 LP  0  0  0  0  0  0  0  0  0  0  0  0  # atno 17342 bound_to 10162
  140.7185  143.2567  151.4354 LP  0  0  0  0  0  0  0  0  0  0  0  0  # atno 17343 bound_to 10162
  156.1116  130.6044  151.0055 LP  0  0  0  0  0  0  0  0  0  0  0  0  # atno 17370 bound_to 10713
  157.6565  131.0888  150.7934 LP  0  0  0  0  0  0  0  0  0  0  0  0  # atno 17371 bound_to 10713
  140.8902  133.7854  155.9563 LP  0  0  0  0  0  0  0  0  0  0  0  0  # atno 17394 bound_to 11000
  140.8762  134.2667  157.5167 LP  0  0  0  0  0  0  0  0  0  0  0  0  # atno 17395 bound_to 11000

$$$$
