AV-unprocessed.smi:2886|AV-procd|sdf|11089|dock5
  -GOLD-   2272015563D 1   1.00000     0.00000
 Structure written by MMmdl.
 28 30  0  0  0  0  0  0  0  0  1 V2000
  152.1032  136.7074  156.2097 O   0  0  0  0  0  0  0  0  0  0  0  0
  151.7199  137.8725  156.1243 C   0  0  0  0  0  0  0  0  0  0  0  0
  151.3543  138.4110  154.9373 N   0  0  0  0  0  0  0  0  0  0  0  0
  150.9035  139.6907  154.7233 N   0  0  0  0  0  0  0  0  0  0  0  0
  150.8163  140.4874  155.7331 C   0  0  0  0  0  0  0  0  0  0  0  0
  151.1812  140.0895  157.0888 C   0  0  0  0  0  0  0  0  0  0  0  0
  151.0862  140.9486  158.1760 N   0  0  0  0  0  0  0  0  0  0  0  0
  150.6356  142.3336  158.2053 C   0  0  2  0  0  0  0  0  0  0  0  0
  151.2487  143.1874  157.0947 C   0  0  0  0  0  0  0  0  0  0  0  0
  151.8433  144.3551  157.8955 C   0  0  2  0  0  0  0  0  0  0  0  0
  153.1248  143.9388  158.6291 C   0  0  0  0  0  0  0  0  0  0  0  0
  152.5708  143.0555  159.7456 C   0  0  0  0  0  0  0  0  0  0  0  0
  151.0586  143.1027  159.4684 C   0  0  1  0  0  0  0  0  0  0  0  0
  150.9371  144.4299  158.9844 O   0  0  0  0  0  0  0  0  0  0  0  0
  151.6099  138.8071  157.2530 C   0  0  0  0  0  0  0  0  0  0  0  0
  152.0543  138.2230  158.8218 Cl  0  0  0  0  0  0  0  0  0  0  0  0
  151.3987  137.8428  154.1036 H   0  0  0  0  0  0  0  0  0  0  0  0
  150.4546  141.5078  155.6124 H   0  0  0  0  0  0  0  0  0  0  0  0
  151.5042  140.6273  159.0380 H   0  0  0  0  0  0  0  0  0  0  0  0
  149.5515  142.3772  158.1012 H   0  0  0  0  0  0  0  0  0  0  0  0
  152.0068  142.6667  156.5077 H   0  0  0  0  0  0  0  0  0  0  0  0
  150.4730  143.5358  156.4123 H   0  0  0  0  0  0  0  0  0  0  0  0
  151.9408  145.2793  157.3252 H   0  0  0  0  0  0  0  0  0  0  0  0
  153.8245  143.4125  157.9790 H   0  0  0  0  0  0  0  0  0  0  0  0
  153.6336  144.8082  159.0470 H   0  0  0  0  0  0  0  0  0  0  0  0
  152.9777  142.0442  159.7308 H   0  0  0  0  0  0  0  0  0  0  0  0
  152.7949  143.4926  160.7191 H   0  0  0  0  0  0  0  0  0  0  0  0
  150.4429  142.8856  160.3419 H   0  0  0  0  0  0  0  0  0  0  0  0
  1  2  2  0  0  0  0
  2 15  1  0  0  0  0
  2  3  1  0  0  0  0
  3 17  1  0  0  0  0
  3  4  1  0  0  0  0
  4  5  2  0  0  0  0
  5  6  1  0  0  0  0
  5 18  1  0  0  0  0
  6  7  1  0  0  0  0
  6 15  2  0  0  0  0
  7  8  1  0  0  0  0
  7 19  1  0  0  0  0
  8 13  1  0  0  0  0
  8  9  1  0  0  0  0
  8 20  1  0  0  0  0
  9 10  1  0  0  0  0
  9 21  1  0  0  0  0
  9 22  1  0  0  0  0
 10 14  1  0  0  0  0
 10 11  1  0  0  0  0
 10 23  1  0  0  0  0
 11 12  1  0  0  0  0
 11 24  1  0  0  0  0
 11 25  1  0  0  0  0
 12 13  1  0  0  0  0
 12 26  1  0  0  0  0
 12 27  1  0  0  0  0
 13 14  1  0  0  0  0
 13 28  1  0  0  0  0
 15 16  1  0  0  0  0
M  END
> <s_m_source_file>
AV-unprocessed.smi

> <i_m_source_file_index>
2886

> <i_lp_mmshare_version>
43012

> <i_f3d_flags>
0

> <s_epik_input>
Tz1jMVtuSF1uW2NIXWMoYzFDbClbTkhdW0NASF0oW0NIMl1bQ0BASF0yMylbQ0BASF0oTzMpW0NIMl1bQ0gyXTI=

> <s_epik_cmdline>
J2VwaWtfcHl0aG9uJywgJy1waCcsICc3LjAnLCAnLXRuJywgJzgnLCAnLW1hJywgJzIwMCcsICctbWV0YWxfYmluZGluZycsICctaW1hZScsICc8aW5maWxlLm1hZT4nLCAnLW9tYWUnLCAnPG91dGZpbGUubWFlPic=

> <r_lp_tautomer_probability>
0.986175

> <r_epik_Ionization_Penalty>
0.000975594

> <r_epik_Ionization_Penalty_Charging>
0.000940184

> <r_epik_Ionization_Penalty_Neutral>
3.54099e-05

> <r_epik_State_Penalty>
0.00620319

> <r_epik_Charging_Adjusted_Penalty>
0.00714337

> <i_epik_Tot_Q>
0

> <i_epik_Tot_abs_Q>
0

> <r_epik_Metal_State_Penalty>
0.287699

> <b_epik_Metal_Only>
0

> <s_lp_Force_Field>
OPLS_2005

> <r_lp_Energy>
55.2825

> <b_lp_Chiralities_Consistent>
1

> <s_lp_Variant>
AV-unprocessed.smi:2886-3

> <Gold.Version>
5.8.1

> <Gold.Id.Protein>
6NUR|6NUR_protein|mol2

> <Gold.PLP.Fitness>
33.9561

> <Gold.PLP.PLP>
-28.3507

> <Gold.PLP.part.hbond>
-2.0000

> <Gold.PLP.part.metal>
0.0000

> <Gold.PLP.part.buried>
-4.1528

> <Gold.PLP.part.nonpolar>
-22.9865

> <Gold.PLP.part.repulsive>
0.4605

> <Gold.PLP.ligand.clash>
0.0000

> <Gold.PLP.ligand.torsion>
0.2018

> <Gold.PLP.Chemscore.Hbond>
2.0000

> <Gold.PLP.Chemscore.CHOScore>
0.0000

> <Gold.PLP.Chemscore.Metal>
0.0000

> <Gold.Chemscore.Hbonds>
donor molecule, donor type, donor heavy atom, donor atom, acceptor molecule, acceptor atom, score
      P1  H  7989  7998       L1     4  0.95
      P1  H 10752 10765       L1     1  1.00

> <Gold.PLP.Chemscore.Internal.Correction>
0.0090

> <Gold.Rescore>
     Score         DG    S(hbond)    S(metal)    S(lipo)     H(rot)  DE(clash)    DE(int)     intcor
     18.38     -18.59       1.60        0.00      88.13       1.00       0.09       0.12       ----

> <Gold.Chemscore.Fitness>
18.3772

> <Gold.Chemscore.DG>
-18.5877

> <Gold.Chemscore.ZeroCoef>
-5.4800

> <Gold.Chemscore.Hbond>
1.6038

> <Gold.Chemscore.Metal>
0.0000

> <Gold.Chemscore.Lipo>
88.1283

> <Gold.Chemscore.Internal_Hbond>
0.0000

> <Gold.Chemscore.DEClash>
0.0859

> <Gold.Chemscore.DEInternal>
0.1245

> <Gold.Chemscore.Rot>
1.0000

> <Gold.Chemscore.Internal.Correction>
   9.000000E+99

> <Gold.Chemscore.Hbonds>
donor molecule, donor type, donor heavy atom, donor atom, acceptor molecule, acceptor atom, score
      P1  H  7989  7998       L1     4  0.21
      P1  H 10752 10765       L1     1  0.97

> <Gold.Chemscore.Hbond.Weighted>
-5.3566

> <Gold.Chemscore.Metal.Weighted>
-0.0000

> <Gold.Chemscore.Lipo.Weighted>
-10.3110

> <Gold.Chemscore.Internal_Hbond.Weighted>
0.0000

> <Gold.Chemscore.DEClash.Weighted>
0.0859

> <Gold.Chemscore.DEInternal.Weighted>
0.1245

> <Gold.Chemscore.Rot.Weighted>
2.5600

> <Gold.Chemscore.Internal.Correction.Weighted>
   9.000000E+99

> <Gold.Protein.RotatedTorsions>
[ 6907 6896 6895 6894 ] final   62.74 input  -60.11 | X-H torsion
[ 7974 7965 7964 7962 ] final   22.86 input  175.53 | X-H torsion
[ 8008 7997 7996 7995 ] final  -19.74 input   59.86 | X-H torsion
[ 10167 10162 10161 10158 ] final   66.61 input  -65.29 | X-H torsion
[ 10718 10713 10712 10709 ] final -158.06 input   66.30 | X-H torsion
[ 10763 10752 10751 10750 ] final -149.92 input  -60.55 | X-H torsion
[ 11005 11000 10999 10996 ] final  156.57 input  -57.11 | X-H torsion

> <Gold.Protein.ActiveResidues>
 VAL166  LYS551  ARG553  GLY616  TRP617  ASP618  TYR619  PRO620  LYS621  CYS622 
 ASP623  PHE694  ASN695  SER759  ASP760  ASP761  ALA762  ILE779  LEU786  VAL792 
 PHE793  MET794  SER795  GLU796  ALA797  LYS798  CYS799  TRP800  GLU811  SER814 

> <Gold.Protein.RotatedAtoms>
  152.4197  134.5978  159.9991 H   0  0  0  0  0  0  0  0  0  0  0  0  # atno 6907 bound_to 6896
  151.6132  133.3340  159.3080 H   0  0  0  0  0  0  0  0  0  0  0  0  # atno 6908 bound_to 6896
  150.8085  134.7263  159.6732 H   0  0  0  0  0  0  0  0  0  0  0  0  # atno 6909 bound_to 6896
  146.2010  139.7825  142.8761 H   0  0  0  0  0  0  0  0  0  0  0  0  # atno 7974 bound_to 7965
  154.4816  140.2080  155.9751 H   0  0  0  0  0  0  0  0  0  0  0  0  # atno 8008 bound_to 7997
  156.1173  140.3219  155.8127 H   0  0  0  0  0  0  0  0  0  0  0  0  # atno 8009 bound_to 7997
  155.4529  140.0518  157.2990 H   0  0  0  0  0  0  0  0  0  0  0  0  # atno 8010 bound_to 7997
  140.0986  144.4924  150.7052 H   0  0  0  0  0  0  0  0  0  0  0  0  # atno 10167 bound_to 10162
  156.5489  130.8596  151.2773 H   0  0  0  0  0  0  0  0  0  0  0  0  # atno 10718 bound_to 10713
  154.8149  135.3297  154.7203 H   0  0  0  0  0  0  0  0  0  0  0  0  # atno 10763 bound_to 10752
  153.7845  135.6916  153.4887 H   0  0  0  0  0  0  0  0  0  0  0  0  # atno 10764 bound_to 10752
  153.1958  135.4534  155.0153 H   0  0  0  0  0  0  0  0  0  0  0  0  # atno 10765 bound_to 10752
  140.1687  134.8558  157.2664 H   0  0  0  0  0  0  0  0  0  0  0  0  # atno 11005 bound_to 11000
  145.3484  141.0302  143.3353 LP  0  0  0  0  0  0  0  0  0  0  0  0  # atno 17320 bound_to 7965
  144.8683  139.5075  143.6779 LP  0  0  0  0  0  0  0  0  0  0  0  0  # atno 17321 bound_to 7965
  140.6990  143.2422  151.4918 LP  0  0  0  0  0  0  0  0  0  0  0  0  # atno 17342 bound_to 10162
  139.5684  144.1987  152.1800 LP  0  0  0  0  0  0  0  0  0  0  0  0  # atno 17343 bound_to 10162
  157.7391  130.9826  150.2294 LP  0  0  0  0  0  0  0  0  0  0  0  0  # atno 17370 bound_to 10713
  156.2903  130.3745  149.7848 LP  0  0  0  0  0  0  0  0  0  0  0  0  # atno 17371 bound_to 10713
  140.2402  134.3804  155.7484 LP  0  0  0  0  0  0  0  0  0  0  0  0  # atno 17394 bound_to 11000
  141.2216  133.7261  156.8778 LP  0  0  0  0  0  0  0  0  0  0  0  0  # atno 17395 bound_to 11000

$$$$
