AV-unprocessed.smi:1914|AV-procd|sdf|7759|dock1
  -GOLD-   22720 9503D 1   1.00000     0.00000
 Structure written by MMmdl.
 44 45  0  0  0  0  0  0  0  0  2 V2000
  145.9789  132.3009  149.6846 C   0  0  0  0  0  0  0  0  0  0  0  0
  146.4123  133.3937  150.6719 C   0  0  1  0  0  0  0  0  0  0  0  0
  145.1999  134.0341  151.3683 C   0  0  0  0  0  0  0  0  0  0  0  0
  145.6625  135.0986  152.3708 C   0  0  0  0  0  0  0  0  0  0  0  0
  146.6686  134.5108  153.3727 C   0  0  0  0  0  0  0  0  0  0  0  0
  147.8309  133.9064  152.6719 N   0  3  1  0  0  0  0  0  0  0  0  0
  148.8823  133.4532  153.6175 C   0  0  0  0  0  0  0  0  0  0  0  0
  149.0399  134.4033  154.8156 C   0  0  0  0  0  0  0  0  0  0  0  0
  149.4789  135.7190  154.3721 N   0  0  0  0  0  0  0  0  0  0  0  0
  149.7043  136.7551  155.1926 C   0  0  0  0  0  0  0  0  0  0  0  0
  149.5809  136.6816  156.4158 O   0  0  0  0  0  0  0  0  0  0  0  0
  150.1549  138.0616  154.5234 C   0  0  0  0  0  0  0  0  0  0  0  0
  149.0815  139.0651  154.4256 N   0  0  0  0  0  0  0  0  0  0  0  0
  147.8375  138.6305  153.9260 C   0  0  0  0  0  0  0  0  0  0  0  0
  146.7936  139.4647  153.7974 C   0  0  0  0  0  0  0  0  0  0  0  0
  146.9692  140.8438  154.1874 C   0  0  0  0  0  0  0  0  0  0  0  0
  148.1554  141.2704  154.6644 C   0  0  0  0  0  0  0  0  0  0  0  0
  149.2996  140.3623  154.8057 C   0  0  0  0  0  0  0  0  0  0  0  0
  150.3876  140.7435  155.2389 O   0  0  0  0  0  0  0  0  0  0  0  0
  147.4030  132.8462  151.7192 C   0  0  0  0  0  0  0  0  0  0  0  0
  145.4574  131.4898  150.1941 H   0  0  0  0  0  0  0  0  0  0  0  0
  146.8392  131.8719  149.1704 H   0  0  0  0  0  0  0  0  0  0  0  0
  145.3076  132.7017  148.9244 H   0  0  0  0  0  0  0  0  0  0  0  0
  146.9224  134.1697  150.0989 H   0  0  0  0  0  0  0  0  0  0  0  0
  144.5330  134.4835  150.6317 H   0  0  0  0  0  0  0  0  0  0  0  0
  144.6206  133.2693  151.8882 H   0  0  0  0  0  0  0  0  0  0  0  0
  146.1208  135.9321  151.8367 H   0  0  0  0  0  0  0  0  0  0  0  0
  144.8027  135.5075  152.9027 H   0  0  0  0  0  0  0  0  0  0  0  0
  147.0095  135.3037  154.0396 H   0  0  0  0  0  0  0  0  0  0  0  0
  146.1848  133.7572  153.9964 H   0  0  0  0  0  0  0  0  0  0  0  0
  148.6173  132.4681  154.0048 H   0  0  0  0  0  0  0  0  0  0  0  0
  149.8287  133.3310  153.0880 H   0  0  0  0  0  0  0  0  0  0  0  0
  148.0983  134.5184  155.3529 H   0  0  0  0  0  0  0  0  0  0  0  0
  149.7668  133.9964  155.5207 H   0  0  0  0  0  0  0  0  0  0  0  0
  149.6085  135.8572  153.3801 H   0  0  0  0  0  0  0  0  0  0  0  0
  151.0010  138.4560  155.0877 H   0  0  0  0  0  0  0  0  0  0  0  0
  150.5508  137.8454  153.5291 H   0  0  0  0  0  0  0  0  0  0  0  0
  147.7891  137.5867  153.6514 H   0  0  0  0  0  0  0  0  0  0  0  0
  145.8482  139.1145  153.4098 H   0  0  0  0  0  0  0  0  0  0  0  0
  146.1457  141.5366  154.0949 H   0  0  0  0  0  0  0  0  0  0  0  0
  148.2686  142.3060  154.9503 H   0  0  0  0  0  0  0  0  0  0  0  0
  146.9491  132.0228  152.2732 H   0  0  0  0  0  0  0  0  0  0  0  0
  148.2699  132.4353  151.2030 H   0  0  0  0  0  0  0  0  0  0  0  0
  148.2416  134.6481  152.1227 H   0  0  0  0  0  0  0  0  0  0  0  0
  1  2  1  0  0  0  0
  1 21  1  0  0  0  0
  1 22  1  0  0  0  0
  1 23  1  0  0  0  0
  2 20  1  0  0  0  0
  2  3  1  0  0  0  0
  2 24  1  0  0  0  0
  3  4  1  0  0  0  0
  3 25  1  0  0  0  0
  3 26  1  0  0  0  0
  4  5  1  0  0  0  0
  4 27  1  0  0  0  0
  4 28  1  0  0  0  0
  5  6  1  0  0  0  0
  5 29  1  0  0  0  0
  5 30  1  0  0  0  0
  6  7  1  0  0  0  0
  6 20  1  0  0  0  0
  6 44  1  0  0  0  0
  7  8  1  0  0  0  0
  7 31  1  0  0  0  0
  7 32  1  0  0  0  0
  8  9  1  0  0  0  0
  8 33  1  0  0  0  0
  8 34  1  0  0  0  0
  9 10  1  0  0  0  0
  9 35  1  0  0  0  0
 10 11  2  0  0  0  0
 10 12  1  0  0  0  0
 12 13  1  0  0  0  0
 12 36  1  0  0  0  0
 12 37  1  0  0  0  0
 13 18  1  0  0  0  0
 13 14  1  0  0  0  0
 14 15  2  0  0  0  0
 14 38  1  0  0  0  0
 15 16  1  0  0  0  0
 15 39  1  0  0  0  0
 16 17  2  0  0  0  0
 16 40  1  0  0  0  0
 17 18  1  0  0  0  0
 17 41  1  0  0  0  0
 18 19  2  0  0  0  0
 20 42  1  0  0  0  0
 20 43  1  0  0  0  0
M  CHG  1   6   1
M  END
> <s_m_source_file>
AV-unprocessed.smi

> <i_m_source_file_index>
1914

> <i_lp_mmshare_version>
43012

> <i_f3d_flags>
0

> <s_epik_input>
W0NIM11bQ0BASF0xW0NIMl1bQ0gyXVtDSDJdTihbQ0gyXTEpW0NIMl1bQ0gyXVtOSF1DKD1PKVtDSDJdbjJbY0hdW2NIXVtjSF1bY0hdYzI9Tw==

> <s_epik_cmdline>
J2VwaWtfcHl0aG9uJywgJy1waCcsICc3LjAnLCAnLXRuJywgJzgnLCAnLW1hJywgJzIwMCcsICctbWV0YWxfYmluZGluZycsICctaW1hZScsICc8aW5maWxlLm1hZT4nLCAnLW9tYWUnLCAnPG91dGZpbGUubWFlPic=

> <r_lp_tautomer_probability>
1

> <r_epik_Ionization_Penalty>
0.00192477

> <r_epik_Ionization_Penalty_Charging>
0.00192469

> <r_epik_Ionization_Penalty_Neutral>
8.16761e-08

> <r_epik_State_Penalty>
0.00131115

> <r_epik_Charging_Adjusted_Penalty>
0.00323584

> <i_epik_Tot_Q>
1

> <i_epik_Tot_abs_Q>
1

> <r_epik_Metal_State_Penalty>
-0

> <b_epik_Metal_Only>
0

> <s_lp_Force_Field>
OPLS_2005

> <r_lp_Energy>
25.5857

> <b_lp_Chiralities_Consistent>
1

> <s_lp_Variant>
AV-unprocessed.smi:1914-4

> <Gold.Version>
5.8.1

> <Gold.Id.Protein>
6NUR|6NUR_protein|mol2

> <Gold.PLP.Fitness>
49.7463

> <Gold.PLP.PLP>
-36.2176

> <Gold.PLP.part.hbond>
-3.0000

> <Gold.PLP.part.metal>
0.0000

> <Gold.PLP.part.buried>
-1.3953

> <Gold.PLP.part.nonpolar>
-31.8410

> <Gold.PLP.part.repulsive>
0.1162

> <Gold.PLP.ligand.clash>
0.0000

> <Gold.PLP.ligand.torsion>
0.5407

> <Gold.PLP.Chemscore.Hbond>
3.8400

> <Gold.PLP.Chemscore.CHOScore>
1.0000

> <Gold.PLP.Chemscore.Metal>
0.0000

> <Gold.Chemscore.Hbonds>
donor molecule, donor type, donor heavy atom, donor atom, acceptor molecule, acceptor atom, score
      L1  H     6    44       P1  7948  1.60
      L1  H     9    35       P1  7948  0.85
      P1  H  7989  7998       L1    19  0.63
      L1  C    14    38       P1  7948  1.00

> <Gold.PLP.Chemscore.Internal.Correction>
0.0900

> <Gold.Rescore>
     Score         DG    S(hbond)    S(metal)    S(lipo)     H(rot)  DE(clash)    DE(int)     intcor
     16.66     -17.24       2.30        0.00      75.57       1.86       0.09       0.50       ----

> <Gold.Chemscore.Fitness>
16.6577

> <Gold.Chemscore.DG>
-17.2422

> <Gold.Chemscore.ZeroCoef>
-5.4800

> <Gold.Chemscore.Hbond>
2.2989

> <Gold.Chemscore.Metal>
0.0000

> <Gold.Chemscore.Lipo>
75.5716

> <Gold.Chemscore.Internal_Hbond>
0.0000

> <Gold.Chemscore.DEClash>
0.0874

> <Gold.Chemscore.DEInternal>
0.4970

> <Gold.Chemscore.Rot>
1.8586

> <Gold.Chemscore.Internal.Correction>
   9.000000E+99

> <Gold.Chemscore.Hbonds>
donor molecule, donor type, donor heavy atom, donor atom, acceptor molecule, acceptor atom, score
      L1  H     6    44       P1  7948  0.12
      L1  H     9    35       P1  7948  0.14
      P1  H  7989  7998       L1    19  0.28

> <Gold.Chemscore.Hbond.Weighted>
-7.6785

> <Gold.Chemscore.Metal.Weighted>
-0.0000

> <Gold.Chemscore.Lipo.Weighted>
-8.8419

> <Gold.Chemscore.Internal_Hbond.Weighted>
0.0000

> <Gold.Chemscore.DEClash.Weighted>
0.0874

> <Gold.Chemscore.DEInternal.Weighted>
0.4970

> <Gold.Chemscore.Rot.Weighted>
4.7581

> <Gold.Chemscore.Internal.Correction.Weighted>
   9.000000E+99

> <Gold.Protein.RotatedTorsions>
[ 6907 6896 6895 6894 ] final   52.46 input  -60.11 | X-H torsion
[ 7974 7965 7964 7962 ] final -156.31 input  175.53 | X-H torsion
[ 8008 7997 7996 7995 ] final   84.07 input   59.86 | X-H torsion
[ 10167 10162 10161 10158 ] final   85.71 input  -65.29 | X-H torsion
[ 10718 10713 10712 10709 ] final   80.95 input   66.30 | X-H torsion
[ 10763 10752 10751 10750 ] final  -78.28 input  -60.55 | X-H torsion
[ 11005 11000 10999 10996 ] final   23.23 input  -57.11 | X-H torsion

> <Gold.Protein.ActiveResidues>
 VAL166  LYS551  ARG553  GLY616  TRP617  ASP618  TYR619  PRO620  LYS621  CYS622 
 ASP623  PHE694  ASN695  SER759  ASP760  ASP761  ALA762  ILE779  LEU786  VAL792 
 PHE793  MET794  SER795  GLU796  ALA797  LYS798  CYS799  TRP800  GLU811  SER814 

> <Gold.Protein.RotatedAtoms>
  152.3235  134.7350  160.0307 H   0  0  0  0  0  0  0  0  0  0  0  0  # atno 6907 bound_to 6896
  151.7790  133.3342  159.3474 H   0  0  0  0  0  0  0  0  0  0  0  0  # atno 6908 bound_to 6896
  150.7383  134.5879  159.6017 H   0  0  0  0  0  0  0  0  0  0  0  0  # atno 6909 bound_to 6896
  144.7599  140.4128  143.5984 H   0  0  0  0  0  0  0  0  0  0  0  0  # atno 7974 bound_to 7965
  155.9323  140.3414  155.6259 H   0  0  0  0  0  0  0  0  0  0  0  0  # atno 8008 bound_to 7997
  155.7142  140.0775  157.2377 H   0  0  0  0  0  0  0  0  0  0  0  0  # atno 8009 bound_to 7997
  154.4087  140.1617  156.2318 H   0  0  0  0  0  0  0  0  0  0  0  0  # atno 8010 bound_to 7997
  139.8950  144.6363  150.8698 H   0  0  0  0  0  0  0  0  0  0  0  0  # atno 10167 bound_to 10162
  157.6820  130.9982  150.2154 H   0  0  0  0  0  0  0  0  0  0  0  0  # atno 10718 bound_to 10713
  154.5239  135.5735  153.6703 H   0  0  0  0  0  0  0  0  0  0  0  0  # atno 10763 bound_to 10752
  152.9923  135.6188  154.2718 H   0  0  0  0  0  0  0  0  0  0  0  0  # atno 10764 bound_to 10752
  154.2640  135.2855  155.2745 H   0  0  0  0  0  0  0  0  0  0  0  0  # atno 10765 bound_to 10752
  140.3719  134.2014  155.7666 H   0  0  0  0  0  0  0  0  0  0  0  0  # atno 11005 bound_to 11000
  145.6654  139.1589  143.2785 LP  0  0  0  0  0  0  0  0  0  0  0  0  # atno 17320 bound_to 7965
  146.1651  140.6730  142.9259 LP  0  0  0  0  0  0  0  0  0  0  0  0  # atno 17321 bound_to 7965
  140.7719  143.3480  151.2071 LP  0  0  0  0  0  0  0  0  0  0  0  0  # atno 17342 bound_to 10162
  139.7076  143.9430  152.2933 LP  0  0  0  0  0  0  0  0  0  0  0  0  # atno 17343 bound_to 10162
  156.2817  130.3734  149.7929 LP  0  0  0  0  0  0  0  0  0  0  0  0  # atno 17370 bound_to 10713
  156.5616  130.8386  151.3330 LP  0  0  0  0  0  0  0  0  0  0  0  0  # atno 17371 bound_to 10713
  141.1952  133.8111  157.0726 LP  0  0  0  0  0  0  0  0  0  0  0  0  # atno 17394 bound_to 11000
  140.0545  134.9788  157.1196 LP  0  0  0  0  0  0  0  0  0  0  0  0  # atno 17395 bound_to 11000

$$$$
