AV-unprocessed.smi:109|AV-procd|sdf|1042|dock9
  -GOLD-   2262018 73D 1   1.00000     0.00000
 Structure written by MMmdl.
 58 61  0  0  0  0  0  0  0  0  1 V2000
  146.2619  137.9603  159.8817 O   0  0  0  0  0  0  0  0  0  0  0  0
  145.5966  138.0906  158.6439 C   0  0  0  0  0  0  0  0  0  0  0  0
  146.3774  139.0503  157.7322 C   0  0  0  0  0  0  0  0  0  0  0  0
  146.1141  138.8056  156.2295 C   0  0  1  0  0  0  0  0  0  0  0  0
  144.7356  139.1703  155.9033 N   0  0  0  0  0  0  0  0  0  0  0  0
  143.9957  138.4392  155.0403 C   0  0  0  0  0  0  0  0  0  0  0  0
  142.6392  138.5118  155.0344 N   0  0  0  0  0  0  0  0  0  0  0  0
  141.9351  137.7759  154.1700 C   0  0  0  0  0  0  0  0  0  0  0  0
  142.3807  136.9220  153.2464 N   0  0  0  0  0  0  0  0  0  0  0  0
  143.7429  136.8441  153.2454 C   0  0  0  0  0  0  0  0  0  0  0  0
  144.6143  137.5701  154.1052 C   0  0  0  0  0  0  0  0  0  0  0  0
  145.9343  137.2465  153.8218 N   0  0  0  0  0  0  0  0  0  0  0  0
  145.8438  136.3775  152.8516 C   0  0  0  0  0  0  0  0  0  0  0  0
  144.5641  136.0768  152.4404 N   0  0  0  0  0  0  0  0  0  0  0  0
  144.1684  135.1203  151.3542 C   0  0  1  0  0  0  0  0  0  0  0  0
  145.3089  134.5150  150.8208 O   0  0  0  0  0  0  0  0  0  0  0  0
  145.2625  133.1013  151.0092 C   0  0  2  0  0  0  0  0  0  0  0  0
  146.0228  132.3682  149.8902 C   0  0  0  0  0  0  0  0  0  0  0  0
  146.2801  131.0335  150.2709 O   0  0  0  0  0  0  0  0  0  0  0  0
  143.7624  132.7894  151.1066 C   0  0  2  0  0  0  0  0  0  0  0  0
  143.1730  132.6800  149.8229 O   0  0  0  0  0  0  0  0  0  0  0  0
  143.2185  134.0061  151.8382 C   0  0  1  0  0  0  0  0  0  0  0  0
  143.2426  133.7975  153.2396 O   0  0  0  0  0  0  0  0  0  0  0  0
  147.1147  139.5305  155.2863 C   0  0  0  0  0  0  0  0  0  0  0  0
  148.5791  139.0992  155.5190 C   0  0  0  0  0  0  0  0  0  0  0  0
  149.5247  139.7525  154.4976 C   0  0  0  0  0  0  0  0  0  0  0  0
  149.4002  141.2840  154.5243 C   0  0  0  0  0  0  0  0  0  0  0  0
  147.9459  141.7266  154.2997 C   0  0  0  0  0  0  0  0  0  0  0  0
  146.9992  141.0715  155.3189 C   0  0  0  0  0  0  0  0  0  0  0  0
  143.7185  135.7501  150.5856 H   0  0  0  0  0  0  0  0  0  0  0  0
  145.7096  132.8613  151.9748 H   0  0  0  0  0  0  0  0  0  0  0  0
  143.5738  131.8588  151.6440 H   0  0  0  0  0  0  0  0  0  0  0  0
  142.1939  134.2458  151.5499 H   0  0  0  0  0  0  0  0  0  0  0  0
  145.6388  137.6674  160.5290 H   0  0  0  0  0  0  0  0  0  0  0  0
  145.5100  137.1065  158.1821 H   0  0  0  0  0  0  0  0  0  0  0  0
  144.5858  138.4565  158.8256 H   0  0  0  0  0  0  0  0  0  0  0  0
  146.1300  140.0800  157.9935 H   0  0  0  0  0  0  0  0  0  0  0  0
  147.4379  138.9283  157.9488 H   0  0  0  0  0  0  0  0  0  0  0  0
  146.2296  137.7332  156.0675 H   0  0  0  0  0  0  0  0  0  0  0  0
  144.4278  140.0641  156.2589 H   0  0  0  0  0  0  0  0  0  0  0  0
  140.8623  137.8858  154.2265 H   0  0  0  0  0  0  0  0  0  0  0  0
  146.7182  135.9279  152.4035 H   0  0  0  0  0  0  0  0  0  0  0  0
  145.4173  132.3356  148.9839 H   0  0  0  0  0  0  0  0  0  0  0  0
  146.9549  132.8768  149.6428 H   0  0  0  0  0  0  0  0  0  0  0  0
  147.2097  130.9325  150.4060 H   0  0  0  0  0  0  0  0  0  0  0  0
  142.5162  133.3538  149.7359 H   0  0  0  0  0  0  0  0  0  0  0  0
  142.9764  132.9076  153.4135 H   0  0  0  0  0  0  0  0  0  0  0  0
  146.8744  139.2196  154.2685 H   0  0  0  0  0  0  0  0  0  0  0  0
  148.9048  139.3715  156.5226 H   0  0  0  0  0  0  0  0  0  0  0  0
  148.6635  138.0143  155.4498 H   0  0  0  0  0  0  0  0  0  0  0  0
  150.5544  139.4598  154.7048 H   0  0  0  0  0  0  0  0  0  0  0  0
  149.2937  139.3838  153.4974 H   0  0  0  0  0  0  0  0  0  0  0  0
  149.7529  141.6625  155.4844 H   0  0  0  0  0  0  0  0  0  0  0  0
  150.0445  141.7232  153.7626 H   0  0  0  0  0  0  0  0  0  0  0  0
  147.8730  142.8122  154.3695 H   0  0  0  0  0  0  0  0  0  0  0  0
  147.6346  141.4604  153.2888 H   0  0  0  0  0  0  0  0  0  0  0  0
  145.9746  141.3792  155.1074 H   0  0  0  0  0  0  0  0  0  0  0  0
  147.2366  141.4471  156.3146 H   0  0  0  0  0  0  0  0  0  0  0  0
  1  2  1  0  0  0  0
  1 34  1  0  0  0  0
  2  3  1  0  0  0  0
  2 35  1  0  0  0  0
  2 36  1  0  0  0  0
  3  4  1  0  0  0  0
  3 37  1  0  0  0  0
  3 38  1  0  0  0  0
  4  5  1  0  0  0  0
  4 24  1  0  0  0  0
  4 39  1  0  0  0  0
  5  6  1  0  0  0  0
  5 40  1  0  0  0  0
  6 11  1  0  0  0  0
  6  7  2  0  0  0  0
  7  8  1  0  0  0  0
  8  9  2  0  0  0  0
  8 41  1  0  0  0  0
  9 10  1  0  0  0  0
 10 14  1  0  0  0  0
 10 11  2  0  0  0  0
 11 12  1  0  0  0  0
 12 13  2  0  0  0  0
 13 14  1  0  0  0  0
 13 42  1  0  0  0  0
 14 15  1  0  0  0  0
 15 30  1  0  0  0  0
 15 22  1  0  0  0  0
 15 16  1  0  0  0  0
 16 17  1  0  0  0  0
 17 31  1  0  0  0  0
 17 18  1  0  0  0  0
 17 20  1  0  0  0  0
 18 19  1  0  0  0  0
 18 43  1  0  0  0  0
 18 44  1  0  0  0  0
 19 45  1  0  0  0  0
 20 32  1  0  0  0  0
 20 21  1  0  0  0  0
 20 22  1  0  0  0  0
 21 46  1  0  0  0  0
 22 33  1  0  0  0  0
 22 23  1  0  0  0  0
 23 47  1  0  0  0  0
 24 29  1  0  0  0  0
 24 25  1  0  0  0  0
 24 48  1  0  0  0  0
 25 26  1  0  0  0  0
 25 49  1  0  0  0  0
 25 50  1  0  0  0  0
 26 27  1  0  0  0  0
 26 51  1  0  0  0  0
 26 52  1  0  0  0  0
 27 28  1  0  0  0  0
 27 53  1  0  0  0  0
 27 54  1  0  0  0  0
 28 29  1  0  0  0  0
 28 55  1  0  0  0  0
 28 56  1  0  0  0  0
 29 57  1  0  0  0  0
 29 58  1  0  0  0  0
M  END
> <s_m_source_file>
AV-unprocessed.smi

> <i_m_source_file_index>
109

> <i_lp_mmshare_version>
43012

> <i_f3d_flags>
0

> <s_epik_input>
W0NIMl0xW0NIMl1bQ0gyXVtDSDJdW0NIMl1bQ0hdMVtDQEhdKFtDSDJdW0NIMl1bT0hdKVtOSF1jKG5bY0hdbjIpYyhjMjMpbltjSF1uM1tDQEBIXTRPW0NASF0oW0NIMl1bT0hdKVtDQEBIXShbT0hdKVtDQEhdNFtPSF0=

> <s_epik_cmdline>
J2VwaWtfcHl0aG9uJywgJy1waCcsICc3LjAnLCAnLXRuJywgJzgnLCAnLW1hJywgJzIwMCcsICctbWV0YWxfYmluZGluZycsICctaW1hZScsICc8aW5maWxlLm1hZT4nLCAnLW9tYWUnLCAnPG91dGZpbGUubWFlPic=

> <r_lp_tautomer_probability>
1

> <r_epik_Ionization_Penalty>
0.000793976

> <r_epik_Ionization_Penalty_Charging>
0

> <r_epik_Ionization_Penalty_Neutral>
0.000793976

> <r_epik_State_Penalty>
-0

> <r_epik_Charging_Adjusted_Penalty>
0

> <i_epik_Tot_Q>
0

> <i_epik_Tot_abs_Q>
0

> <r_epik_Metal_State_Penalty>
-0

> <b_epik_Metal_Only>
0

> <s_epik_Chemistry_Notes>
This compound contains an acetal/aminal-like group ( X-CH(R)-Y where X, Y are N, S, or O) that may be acid/base labile, releasing an aldehyde.

> <s_lp_Force_Field>
OPLS_2005

> <r_lp_Energy>
56.1563

> <b_lp_Chiralities_Consistent>
1

> <s_lp_Variant>
AV-unprocessed.smi:109-12

> <Gold.Version>
5.8.1

> <Gold.Id.Protein>
6NUR|6NUR_protein|mol2

> <Gold.PLP.Fitness>
48.2355

> <Gold.PLP.PLP>
-35.5603

> <Gold.PLP.part.hbond>
-4.0000

> <Gold.PLP.part.metal>
0.0000

> <Gold.PLP.part.buried>
-4.8795

> <Gold.PLP.part.nonpolar>
-26.9595

> <Gold.PLP.part.repulsive>
0.6174

> <Gold.PLP.ligand.clash>
0.0000

> <Gold.PLP.ligand.torsion>
0.7853

> <Gold.PLP.Chemscore.Hbond>
3.6800

> <Gold.PLP.Chemscore.CHOScore>
1.0000

> <Gold.PLP.Chemscore.Metal>
0.0000

> <Gold.Chemscore.Hbonds>
donor molecule, donor type, donor heavy atom, donor atom, acceptor molecule, acceptor atom, score
      L1  H    19    45       P1 10747  1.00
      L1  H    21    46       P1 10186  1.00
      L1  H    23    47       P1 10957  0.85
      P1  H  6934  6947       L1     1  0.84
      L1  C    13    42       P1  7948  1.00

> <Gold.PLP.Chemscore.Internal.Correction>
0.2058

> <Gold.Rescore>
     Score         DG    S(hbond)    S(metal)    S(lipo)     H(rot)  DE(clash)    DE(int)     intcor
      7.44     -10.62       3.83        0.00      54.13       5.47       0.02       3.17       ----

> <Gold.Chemscore.Fitness>
7.4392

> <Gold.Chemscore.DG>
-10.6241

> <Gold.Chemscore.ZeroCoef>
-5.4800

> <Gold.Chemscore.Hbond>
3.8337

> <Gold.Chemscore.Metal>
0.0000

> <Gold.Chemscore.Lipo>
54.1296

> <Gold.Chemscore.Internal_Hbond>
0.0000

> <Gold.Chemscore.DEClash>
0.0153

> <Gold.Chemscore.DEInternal>
3.1696

> <Gold.Chemscore.Rot>
5.4662

> <Gold.Chemscore.Internal.Correction>
   9.000000E+99

> <Gold.Chemscore.Hbonds>
donor molecule, donor type, donor heavy atom, donor atom, acceptor molecule, acceptor atom, score
      L1  H    19    45       P1 10747  1.00
      L1  H    21    46       P1 10186  1.00
      L1  H    23    47       P1 10957  0.67
      P1  H  6934  6947       L1     1  0.16

> <Gold.Chemscore.Hbond.Weighted>
-12.8045

> <Gold.Chemscore.Metal.Weighted>
-0.0000

> <Gold.Chemscore.Lipo.Weighted>
-6.3332

> <Gold.Chemscore.Internal_Hbond.Weighted>
0.0000

> <Gold.Chemscore.DEClash.Weighted>
0.0153

> <Gold.Chemscore.DEInternal.Weighted>
3.1696

> <Gold.Chemscore.Rot.Weighted>
13.9935

> <Gold.Chemscore.Internal.Correction.Weighted>
   9.000000E+99

> <Gold.Protein.RotatedTorsions>
[ 6907 6896 6895 6894 ] final -144.19 input  -60.11 | X-H torsion
[ 7974 7965 7964 7962 ] final   87.29 input  175.53 | X-H torsion
[ 8008 7997 7996 7995 ] final  -56.70 input   59.86 | X-H torsion
[ 10167 10162 10161 10158 ] final -139.60 input  -65.29 | X-H torsion
[ 10718 10713 10712 10709 ] final  132.89 input   66.30 | X-H torsion
[ 10763 10752 10751 10750 ] final  -98.85 input  -60.55 | X-H torsion
[ 11005 11000 10999 10996 ] final -155.59 input  -57.11 | X-H torsion

> <Gold.Protein.ActiveResidues>
 VAL166  LYS551  ARG553  GLY616  TRP617  ASP618  TYR619  PRO620  LYS621  CYS622 
 ASP623  PHE694  ASN695  SER759  ASP760  ASP761  ALA762  ILE779  LEU786  VAL792 
 PHE793  MET794  SER795  GLU796  ALA797  LYS798  CYS799  TRP800  GLU811  SER814 

> <Gold.Protein.RotatedAtoms>
  151.1106  133.5176  159.2605 H   0  0  0  0  0  0  0  0  0  0  0  0  # atno 6907 bound_to 6896
  151.1971  135.0426  159.8867 H   0  0  0  0  0  0  0  0  0  0  0  0  # atno 6908 bound_to 6896
  152.5450  134.0939  159.8342 H   0  0  0  0  0  0  0  0  0  0  0  0  # atno 6909 bound_to 6896
  145.5609  139.2304  143.2460 H   0  0  0  0  0  0  0  0  0  0  0  0  # atno 7974 bound_to 7965
  154.4240  140.1124  156.5679 H   0  0  0  0  0  0  0  0  0  0  0  0  # atno 8008 bound_to 7997
  155.6243  140.3495  155.4643 H   0  0  0  0  0  0  0  0  0  0  0  0  # atno 8009 bound_to 7997
  155.9999  140.1197  157.0547 H   0  0  0  0  0  0  0  0  0  0  0  0  # atno 8010 bound_to 7997
  139.8363  143.7380  152.2664 H   0  0  0  0  0  0  0  0  0  0  0  0  # atno 10167 bound_to 10162
  157.4826  131.1086  150.9661 H   0  0  0  0  0  0  0  0  0  0  0  0  # atno 10718 bound_to 10713
  154.7449  135.4994  153.9186 H   0  0  0  0  0  0  0  0  0  0  0  0  # atno 10763 bound_to 10752
  153.1081  135.6702  153.9557 H   0  0  0  0  0  0  0  0  0  0  0  0  # atno 10764 bound_to 10752
  153.9324  135.3076  155.3424 H   0  0  0  0  0  0  0  0  0  0  0  0  # atno 10765 bound_to 10752
  140.6848  134.4105  157.5224 H   0  0  0  0  0  0  0  0  0  0  0  0  # atno 11005 bound_to 11000
  146.1852  140.6434  142.9171 LP  0  0  0  0  0  0  0  0  0  0  0  0  # atno 17320 bound_to 7965
  144.7483  140.5126  143.6820 LP  0  0  0  0  0  0  0  0  0  0  0  0  # atno 17321 bound_to 7965
  139.7603  144.7508  151.0374 LP  0  0  0  0  0  0  0  0  0  0  0  0  # atno 17342 bound_to 10162
  140.7802  143.4758  151.0084 LP  0  0  0  0  0  0  0  0  0  0  0  0  # atno 17343 bound_to 10162
  157.0389  130.5741  149.5353 LP  0  0  0  0  0  0  0  0  0  0  0  0  # atno 17370 bound_to 10713
  156.0130  130.5222  150.8047 LP  0  0  0  0  0  0  0  0  0  0  0  0  # atno 17371 bound_to 10713
  139.8941  134.8715  156.2194 LP  0  0  0  0  0  0  0  0  0  0  0  0  # atno 17394 bound_to 11000
  141.0288  133.7000  156.1395 LP  0  0  0  0  0  0  0  0  0  0  0  0  # atno 17395 bound_to 11000

$$$$
