AV-unprocessed.smi:101|AV-procd|sdf|927|dock2
  -GOLD-   2262017443D 1   1.00000     0.00000
 Structure written by MMmdl.
 44 46  0  0  0  0  0  0  0  0  1 V2000
  147.2889  143.4362  159.5199 C   0  0  0  0  0  0  0  0  0  0  0  0
  146.5456  142.5765  158.5111 C   0  0  0  0  0  0  0  0  0  0  0  0
  147.1764  141.9464  157.4876 C   0  0  0  0  0  0  0  0  0  0  0  0
  146.5252  141.1598  156.5481 N   0  0  0  0  0  0  0  0  0  0  0  0
  147.2971  140.4892  155.4321 C   0  0  2  0  0  0  0  0  0  0  0  0
  148.4322  139.8938  155.9813 O   0  0  0  0  0  0  0  0  0  0  0  0
  149.5202  140.0454  155.0790 C   0  0  2  0  0  0  0  0  0  0  0  0
  150.8628  139.8582  155.7992 C   0  0  0  0  0  0  0  0  0  0  0  0
  150.9927  140.8551  156.7992 O   0  0  0  0  0  0  0  0  0  0  0  0
  151.9124  140.7175  157.7733 C   0  0  0  0  0  0  0  0  0  0  0  0
  152.6544  139.7384  157.8770 O   0  0  0  0  0  0  0  0  0  0  0  0
  151.9382  141.8740  158.7147 C   0  0  0  0  0  0  0  0  0  0  0  0
  152.4680  141.6979  160.0142 C   0  0  0  0  0  0  0  0  0  0  0  0
  152.5061  142.7714  160.9250 C   0  0  0  0  0  0  0  0  0  0  0  0
  152.0153  144.0348  160.5472 C   0  0  0  0  0  0  0  0  0  0  0  0
  151.4871  144.2236  159.2568 C   0  0  0  0  0  0  0  0  0  0  0  0
  151.4478  143.1511  158.3447 C   0  0  0  0  0  0  0  0  0  0  0  0
  149.2835  141.4270  154.4545 C   0  0  2  0  0  0  0  0  0  0  0  0
  149.8003  142.4559  155.2828 O   0  0  0  0  0  0  0  0  0  0  0  0
  147.7612  141.4709  154.3328 C   0  0  2  0  0  0  0  0  0  0  0  0
  147.2236  142.7813  154.4059 O   0  0  0  0  0  0  0  0  0  0  0  0
  145.1265  140.9972  156.6317 C   0  0  0  0  0  0  0  0  0  0  0  0
  144.4765  140.3342  155.8243 O   0  0  0  0  0  0  0  0  0  0  0  0
  144.4790  141.6392  157.6860 N   0  0  0  0  0  0  0  0  0  0  0  0
  145.0945  142.4331  158.6570 C   0  0  0  0  0  0  0  0  0  0  0  0
  144.4130  142.9472  159.5425 O   0  0  0  0  0  0  0  0  0  0  0  0
  143.4781  141.5250  157.7508 H   0  0  0  0  0  0  0  0  0  0  0  0
  148.3576  143.4765  159.3069 H   0  0  0  0  0  0  0  0  0  0  0  0
  147.1629  143.0376  160.5271 H   0  0  0  0  0  0  0  0  0  0  0  0
  146.9068  144.4576  159.5045 H   0  0  0  0  0  0  0  0  0  0  0  0
  148.2456  142.0686  157.3981 H   0  0  0  0  0  0  0  0  0  0  0  0
  146.6698  139.6895  155.0354 H   0  0  0  0  0  0  0  0  0  0  0  0
  149.4162  139.2925  154.2953 H   0  0  0  0  0  0  0  0  0  0  0  0
  150.8965  138.8757  156.2720 H   0  0  0  0  0  0  0  0  0  0  0  0
  151.6916  139.9158  155.0918 H   0  0  0  0  0  0  0  0  0  0  0  0
  152.8512  140.7373  160.3273 H   0  0  0  0  0  0  0  0  0  0  0  0
  152.9126  142.6245  161.9147 H   0  0  0  0  0  0  0  0  0  0  0  0
  152.0444  144.8578  161.2460 H   0  0  0  0  0  0  0  0  0  0  0  0
  151.1111  145.1932  158.9651 H   0  0  0  0  0  0  0  0  0  0  0  0
  151.0367  143.3308  157.3621 H   0  0  0  0  0  0  0  0  0  0  0  0
  149.7641  141.5116  153.4792 H   0  0  0  0  0  0  0  0  0  0  0  0
  149.1507  143.1378  155.3602 H   0  0  0  0  0  0  0  0  0  0  0  0
  147.4706  141.0375  153.3747 H   0  0  0  0  0  0  0  0  0  0  0  0
  147.9114  143.3740  154.6664 H   0  0  0  0  0  0  0  0  0  0  0  0
  1  2  1  0  0  0  0
  1 28  1  0  0  0  0
  1 29  1  0  0  0  0
  1 30  1  0  0  0  0
  2 25  1  0  0  0  0
  2  3  2  0  0  0  0
  3  4  1  0  0  0  0
  3 31  1  0  0  0  0
  4  5  1  0  0  0  0
  4 22  1  0  0  0  0
  5 20  1  0  0  0  0
  5  6  1  0  0  0  0
  5 32  1  0  0  0  0
  6  7  1  0  0  0  0
  7  8  1  0  0  0  0
  7 18  1  0  0  0  0
  7 33  1  0  0  0  0
  8  9  1  0  0  0  0
  8 34  1  0  0  0  0
  8 35  1  0  0  0  0
  9 10  1  0  0  0  0
 10 11  2  0  0  0  0
 10 12  1  0  0  0  0
 12 17  1  0  0  0  0
 12 13  2  0  0  0  0
 13 14  1  0  0  0  0
 13 36  1  0  0  0  0
 14 15  2  0  0  0  0
 14 37  1  0  0  0  0
 15 16  1  0  0  0  0
 15 38  1  0  0  0  0
 16 17  2  0  0  0  0
 16 39  1  0  0  0  0
 17 40  1  0  0  0  0
 18 19  1  0  0  0  0
 18 20  1  0  0  0  0
 18 41  1  0  0  0  0
 19 42  1  0  0  0  0
 20 21  1  0  0  0  0
 20 43  1  0  0  0  0
 21 44  1  0  0  0  0
 22 23  2  0  0  0  0
 22 24  1  0  0  0  0
 24 27  1  0  0  0  0
 24 25  1  0  0  0  0
 25 26  2  0  0  0  0
M  END
> <s_m_source_file>
AV-unprocessed.smi

> <i_m_source_file_index>
101

> <i_lp_mmshare_version>
43012

> <i_f3d_flags>
0

> <s_epik_input>
Tz1jMVtuSF1jKD1PKW4oW2NIXWMxW0NIM10pW0NAQEhdMk9bQ0BIXShbQ0BASF0oW09IXSlbQ0BIXTJbT0hdKVtDSDJdT0MoPU8pYzNbY0hdW2NIXVtjSF1bY0hdW2NIXTM=

> <s_epik_cmdline>
J2VwaWtfcHl0aG9uJywgJy1waCcsICc3LjAnLCAnLXRuJywgJzgnLCAnLW1hJywgJzIwMCcsICctbWV0YWxfYmluZGluZycsICctaW1hZScsICc8aW5maWxlLm1hZT4nLCAnLW9tYWUnLCAnPG91dGZpbGUubWFlPic=

> <r_lp_tautomer_probability>
0.999537

> <r_epik_Ionization_Penalty>
0.00263537

> <r_epik_Ionization_Penalty_Charging>
0.00263428

> <r_epik_Ionization_Penalty_Neutral>
1.09111e-06

> <r_epik_State_Penalty>
0.00183335

> <r_epik_Charging_Adjusted_Penalty>
0.00446763

> <i_epik_Tot_Q>
0

> <i_epik_Tot_abs_Q>
0

> <r_epik_Metal_State_Penalty>
1.00528

> <b_epik_Metal_Only>
0

> <s_epik_Chemistry_Notes>
This compound has an ester and may undergo hydrolysis at high or low pH. This compound contains an acetal/aminal-like group ( X-CH(R)-Y where X, Y are N, S, or O) that may be acid/base labile, releasing an aldehyde.

> <s_lp_Force_Field>
OPLS_2005

> <r_lp_Energy>
42.5315

> <b_lp_Chiralities_Consistent>
1

> <s_lp_Variant>
AV-unprocessed.smi:101-15

> <Gold.Version>
5.8.1

> <Gold.Id.Protein>
6NUR|6NUR_protein|mol2

> <Gold.PLP.Fitness>
47.7902

> <Gold.PLP.PLP>
-40.1592

> <Gold.PLP.part.hbond>
-3.1982

> <Gold.PLP.part.metal>
0.0000

> <Gold.PLP.part.buried>
-3.4554

> <Gold.PLP.part.nonpolar>
-33.0995

> <Gold.PLP.part.repulsive>
0.1368

> <Gold.PLP.ligand.clash>
0.0000

> <Gold.PLP.ligand.torsion>
0.6302

> <Gold.PLP.Chemscore.Hbond>
2.8960

> <Gold.PLP.Chemscore.CHOScore>
0.0000

> <Gold.PLP.Chemscore.Metal>
0.0000

> <Gold.Chemscore.Hbonds>
donor molecule, donor type, donor heavy atom, donor atom, acceptor molecule, acceptor atom, score
      L1  H    19    42       P1  8028  0.93
      L1  H    21    44       P1  8028  1.00
      P1  H  7997  8009       L1    11  0.81

> <Gold.PLP.Chemscore.Internal.Correction>
0.2034

> <Gold.Rescore>
     Score         DG    S(hbond)    S(metal)    S(lipo)     H(rot)  DE(clash)    DE(int)     intcor
     14.65     -17.44       2.64        0.00      99.47       3.32       0.72       2.07       ----

> <Gold.Chemscore.Fitness>
14.6473

> <Gold.Chemscore.DG>
-17.4363

> <Gold.Chemscore.ZeroCoef>
-5.4800

> <Gold.Chemscore.Hbond>
2.6377

> <Gold.Chemscore.Metal>
0.0000

> <Gold.Chemscore.Lipo>
99.4733

> <Gold.Chemscore.Internal_Hbond>
0.0000

> <Gold.Chemscore.DEClash>
0.7227

> <Gold.Chemscore.DEInternal>
2.0663

> <Gold.Chemscore.Rot>
3.3172

> <Gold.Chemscore.Internal.Correction>
   9.000000E+99

> <Gold.Chemscore.Hbonds>
donor molecule, donor type, donor heavy atom, donor atom, acceptor molecule, acceptor atom, score
      L1  H    19    42       P1  8028  0.89
      L1  H    21    44       P1  8028  0.74
      P1  H  7997  8009       L1    11  0.63

> <Gold.Chemscore.Hbond.Weighted>
-8.8100

> <Gold.Chemscore.Metal.Weighted>
-0.0000

> <Gold.Chemscore.Lipo.Weighted>
-11.6384

> <Gold.Chemscore.Internal_Hbond.Weighted>
0.0000

> <Gold.Chemscore.DEClash.Weighted>
0.7227

> <Gold.Chemscore.DEInternal.Weighted>
2.0663

> <Gold.Chemscore.Rot.Weighted>
8.4920

> <Gold.Chemscore.Internal.Correction.Weighted>
   9.000000E+99

> <Gold.Protein.RotatedTorsions>
[ 6907 6896 6895 6894 ] final   -5.22 input  -60.11 | X-H torsion
[ 7974 7965 7964 7962 ] final   12.91 input  175.53 | X-H torsion
[ 8008 7997 7996 7995 ] final  164.84 input   59.86 | X-H torsion
[ 10167 10162 10161 10158 ] final  -51.37 input  -65.29 | X-H torsion
[ 10718 10713 10712 10709 ] final  176.03 input   66.30 | X-H torsion
[ 10763 10752 10751 10750 ] final  -57.28 input  -60.55 | X-H torsion
[ 11005 11000 10999 10996 ] final -101.48 input  -57.11 | X-H torsion

> <Gold.Protein.ActiveResidues>
 VAL166  LYS551  ARG553  GLY616  TRP617  ASP618  TYR619  PRO620  LYS621  CYS622 
 ASP623  PHE694  ASN695  SER759  ASP760  ASP761  ALA762  ILE779  LEU786  VAL792 
 PHE793  MET794  SER795  GLU796  ALA797  LYS798  CYS799  TRP800  GLU811  SER814 

> <Gold.Protein.RotatedAtoms>
  151.4851  135.1054  159.9788 H   0  0  0  0  0  0  0  0  0  0  0  0  # atno 6907 bound_to 6896
  152.4764  133.8144  159.7031 H   0  0  0  0  0  0  0  0  0  0  0  0  # atno 6908 bound_to 6896
  150.8804  133.7318  159.2960 H   0  0  0  0  0  0  0  0  0  0  0  0  # atno 6909 bound_to 6896
  146.2341  139.9267  142.8502 H   0  0  0  0  0  0  0  0  0  0  0  0  # atno 7974 bound_to 7965
  156.1848  140.1686  156.8205 H   0  0  0  0  0  0  0  0  0  0  0  0  # atno 8008 bound_to 7997
  154.5402  140.0738  156.8529 H   0  0  0  0  0  0  0  0  0  0  0  0  # atno 8009 bound_to 7997
  155.3231  140.3374  155.4243 H   0  0  0  0  0  0  0  0  0  0  0  0  # atno 8010 bound_to 7997
  140.6592  143.2622  151.4493 H   0  0  0  0  0  0  0  0  0  0  0  0  # atno 10167 bound_to 10162
  156.9261  130.9956  151.2996 H   0  0  0  0  0  0  0  0  0  0  0  0  # atno 10718 bound_to 10713
  154.2199  135.6379  153.5141 H   0  0  0  0  0  0  0  0  0  0  0  0  # atno 10763 bound_to 10752
  152.9971  135.5494  154.6125 H   0  0  0  0  0  0  0  0  0  0  0  0  # atno 10764 bound_to 10752
  154.5582  135.2907  155.0918 H   0  0  0  0  0  0  0  0  0  0  0  0  # atno 10765 bound_to 10752
  141.1229  133.8482  157.1237 H   0  0  0  0  0  0  0  0  0  0  0  0  # atno 11005 bound_to 11000
  145.2084  140.9885  143.4115 LP  0  0  0  0  0  0  0  0  0  0  0  0  # atno 17320 bound_to 7965
  144.9712  139.3878  143.6308 LP  0  0  0  0  0  0  0  0  0  0  0  0  # atno 17321 bound_to 7965
  139.5821  144.1686  152.1982 LP  0  0  0  0  0  0  0  0  0  0  0  0  # atno 17342 bound_to 10162
  140.1014  144.5536  150.6986 LP  0  0  0  0  0  0  0  0  0  0  0  0  # atno 17343 bound_to 10162
  157.5877  130.8421  149.8613 LP  0  0  0  0  0  0  0  0  0  0  0  0  # atno 17370 bound_to 10713
  156.0468  130.3726  150.1297 LP  0  0  0  0  0  0  0  0  0  0  0  0  # atno 17371 bound_to 10713
  140.0201  134.9949  157.0574 LP  0  0  0  0  0  0  0  0  0  0  0  0  # atno 17394 bound_to 11000
  140.4454  134.1638  155.7177 LP  0  0  0  0  0  0  0  0  0  0  0  0  # atno 17395 bound_to 11000

$$$$
