AV-unprocessed.smi:3255|AV-procd|sdf|12463|dock5
  -GOLD-   2272018363D 1   1.00000     0.00000
 Structure written by MMmdl.
 38 39  0  0  0  0  0  0  0  0  1 V2000
  151.6917  145.0913  158.7271 C   0  0  0  0  0  0  0  0  0  0  0  0
  152.0524  143.7613  158.0495 C   0  0  2  0  0  0  0  0  0  0  0  0
  151.0276  143.4440  157.0558 N   0  0  0  0  0  0  0  0  0  0  0  0
  150.9883  142.3366  156.3012 C   0  0  0  0  0  0  0  0  0  0  0  0
  151.8388  141.4470  156.3326 O   0  0  0  0  0  0  0  0  0  0  0  0
  149.8947  142.3014  155.5268 N   0  0  0  0  0  0  0  0  0  0  0  0
  149.5245  141.1952  154.6482 C   0  0  0  0  0  0  0  0  0  0  0  0
  148.5519  141.6394  153.5392 C   0  0  0  0  0  0  0  0  0  0  0  0
  147.3269  142.2160  154.0629 N   0  0  0  0  0  0  0  0  0  0  0  0
  146.3660  142.9266  153.3552 C   0  0  0  0  0  0  0  0  0  0  0  0
  145.3933  143.2830  154.2617 C   0  0  0  0  0  0  0  0  0  0  0  0
  145.7274  142.7965  155.5232 N   0  0  0  0  0  0  0  0  0  0  0  0
  146.8825  142.1738  155.3267 C   0  0  0  0  0  0  0  0  0  0  0  0
  152.1893  142.6133  159.0721 C   0  0  1  0  0  0  0  0  0  0  0  0
  153.6094  142.3724  159.5932 C   0  0  0  0  0  0  0  0  0  0  0  0
  153.3452  141.7441  160.9408 C   0  0  0  0  0  0  0  0  0  0  0  0
  152.1407  142.5482  161.4155 C   0  0  0  0  0  0  0  0  0  0  0  0
  151.4131  142.8872  160.2380 O   0  0  0  0  0  0  0  0  0  0  0  0
  152.4520  145.3832  159.4520 H   0  0  0  0  0  0  0  0  0  0  0  0
  150.7390  145.0245  159.2537 H   0  0  0  0  0  0  0  0  0  0  0  0
  151.6130  145.8954  157.9949 H   0  0  0  0  0  0  0  0  0  0  0  0
  153.0163  143.8963  157.5555 H   0  0  0  0  0  0  0  0  0  0  0  0
  150.2772  144.1118  156.9543 H   0  0  0  0  0  0  0  0  0  0  0  0
  149.2558  143.0818  155.5704 H   0  0  0  0  0  0  0  0  0  0  0  0
  150.4401  140.8189  154.1922 H   0  0  0  0  0  0  0  0  0  0  0  0
  149.1072  140.3621  155.2166 H   0  0  0  0  0  0  0  0  0  0  0  0
  149.0305  142.3648  152.8802 H   0  0  0  0  0  0  0  0  0  0  0  0
  148.2828  140.7836  152.9191 H   0  0  0  0  0  0  0  0  0  0  0  0
  146.4550  143.1227  152.2969 H   0  0  0  0  0  0  0  0  0  0  0  0
  144.4862  143.8476  154.1037 H   0  0  0  0  0  0  0  0  0  0  0  0
  147.4225  141.6816  156.1222 H   0  0  0  0  0  0  0  0  0  0  0  0
  151.8142  141.6834  158.6416 H   0  0  0  0  0  0  0  0  0  0  0  0
  154.2004  141.7357  158.9348 H   0  0  0  0  0  0  0  0  0  0  0  0
  154.1403  143.3167  159.7240 H   0  0  0  0  0  0  0  0  0  0  0  0
  153.0763  140.6939  160.8199 H   0  0  0  0  0  0  0  0  0  0  0  0
  154.1963  141.8065  161.6194 H   0  0  0  0  0  0  0  0  0  0  0  0
  151.5222  141.9964  162.1237 H   0  0  0  0  0  0  0  0  0  0  0  0
  152.4667  143.4709  161.8970 H   0  0  0  0  0  0  0  0  0  0  0  0
  1  2  1  0  0  0  0
  1 19  1  0  0  0  0
  1 20  1  0  0  0  0
  1 21  1  0  0  0  0
  2  3  1  0  0  0  0
  2 14  1  0  0  0  0
  2 22  1  0  0  0  0
  3  4  1  0  0  0  0
  3 23  1  0  0  0  0
  4  5  2  0  0  0  0
  4  6  1  0  0  0  0
  6  7  1  0  0  0  0
  6 24  1  0  0  0  0
  7  8  1  0  0  0  0
  7 25  1  0  0  0  0
  7 26  1  0  0  0  0
  8  9  1  0  0  0  0
  8 27  1  0  0  0  0
  8 28  1  0  0  0  0
  9 13  1  0  0  0  0
  9 10  1  0  0  0  0
 10 11  2  0  0  0  0
 10 29  1  0  0  0  0
 11 12  1  0  0  0  0
 11 30  1  0  0  0  0
 12 13  2  0  0  0  0
 13 31  1  0  0  0  0
 14 18  1  0  0  0  0
 14 15  1  0  0  0  0
 14 32  1  0  0  0  0
 15 16  1  0  0  0  0
 15 33  1  0  0  0  0
 15 34  1  0  0  0  0
 16 17  1  0  0  0  0
 16 35  1  0  0  0  0
 16 36  1  0  0  0  0
 17 18  1  0  0  0  0
 17 37  1  0  0  0  0
 17 38  1  0  0  0  0
M  END
> <s_m_source_file>
AV-unprocessed.smi

> <i_m_source_file_index>
3255

> <i_lp_mmshare_version>
43012

> <i_f3d_flags>
0

> <s_epik_input>
TzFbQ0gyXVtDSDJdW0NIMl1bQ0BIXTFbQ0BIXShbQ0gzXSlbTkhdQyg9TylbTkhdW0NIMl1bQ0gyXW4yW2NIXVtjSF1uW2NIXTI=

> <s_epik_cmdline>
J2VwaWtfcHl0aG9uJywgJy1waCcsICc3LjAnLCAnLXRuJywgJzgnLCAnLW1hJywgJzIwMCcsICctbWV0YWxfYmluZGluZycsICctaW1hZScsICc8aW5maWxlLm1hZT4nLCAnLW9tYWUnLCAnPG91dGZpbGUubWFlPic=

> <r_lp_tautomer_probability>
1

> <r_epik_Ionization_Penalty>
0.620274

> <r_epik_Ionization_Penalty_Charging>
0.620225

> <r_epik_Ionization_Penalty_Neutral>
4.91362e-05

> <r_epik_State_Penalty>
0.636186

> <r_epik_Charging_Adjusted_Penalty>
1.25641

> <i_epik_Tot_Q>
0

> <i_epik_Tot_abs_Q>
0

> <r_epik_Metal_State_Penalty>
0.306491

> <b_epik_Metal_Only>
0

> <s_lp_Force_Field>
OPLS_2005

> <r_lp_Energy>
16.3443

> <b_lp_Chiralities_Consistent>
1

> <s_lp_Variant>
AV-unprocessed.smi:3255-7

> <Gold.Version>
5.8.1

> <Gold.Id.Protein>
6NUR|6NUR_protein|mol2

> <Gold.PLP.Fitness>
48.6217

> <Gold.PLP.PLP>
-45.4000

> <Gold.PLP.part.hbond>
-2.4286

> <Gold.PLP.part.metal>
0.0000

> <Gold.PLP.part.buried>
-4.9901

> <Gold.PLP.part.nonpolar>
-38.0536

> <Gold.PLP.part.repulsive>
0.3832

> <Gold.PLP.ligand.clash>
0.0000

> <Gold.PLP.ligand.torsion>
1.2429

> <Gold.PLP.Chemscore.Hbond>
1.8800

> <Gold.PLP.Chemscore.CHOScore>
0.0000

> <Gold.PLP.Chemscore.Metal>
0.0000

> <Gold.Chemscore.Hbonds>
donor molecule, donor type, donor heavy atom, donor atom, acceptor molecule, acceptor atom, score
      L1  H     3    23       P1  8028  0.86
      L1  H     6    24       P1  8028  1.00

> <Gold.PLP.Chemscore.Internal.Correction>
0.0676

> <Gold.Rescore>
     Score         DG    S(hbond)    S(metal)    S(lipo)     H(rot)  DE(clash)    DE(int)     intcor
     14.75     -17.21       1.84        0.00      95.41       2.18       0.08       2.38       ----

> <Gold.Chemscore.Fitness>
14.7498

> <Gold.Chemscore.DG>
-17.2141

> <Gold.Chemscore.ZeroCoef>
-5.4800

> <Gold.Chemscore.Hbond>
1.8442

> <Gold.Chemscore.Metal>
0.0000

> <Gold.Chemscore.Lipo>
95.4063

> <Gold.Chemscore.Internal_Hbond>
0.0000

> <Gold.Chemscore.DEClash>
0.0844

> <Gold.Chemscore.DEInternal>
2.3799

> <Gold.Chemscore.Rot>
2.1828

> <Gold.Chemscore.Internal.Correction>
   9.000000E+99

> <Gold.Chemscore.Hbonds>
donor molecule, donor type, donor heavy atom, donor atom, acceptor molecule, acceptor atom, score
      L1  H     3    23       P1  8028  0.80
      L1  H     6    24       P1  8028  0.97

> <Gold.Chemscore.Hbond.Weighted>
-6.1597

> <Gold.Chemscore.Metal.Weighted>
-0.0000

> <Gold.Chemscore.Lipo.Weighted>
-11.1625

> <Gold.Chemscore.Internal_Hbond.Weighted>
0.0000

> <Gold.Chemscore.DEClash.Weighted>
0.0844

> <Gold.Chemscore.DEInternal.Weighted>
2.3799

> <Gold.Chemscore.Rot.Weighted>
5.5881

> <Gold.Chemscore.Internal.Correction.Weighted>
   9.000000E+99

> <Gold.Protein.RotatedTorsions>
[ 6907 6896 6895 6894 ] final  158.49 input  -60.11 | X-H torsion
[ 7974 7965 7964 7962 ] final -127.95 input  175.53 | X-H torsion
[ 8008 7997 7996 7995 ] final   27.65 input   59.86 | X-H torsion
[ 10167 10162 10161 10158 ] final -164.53 input  -65.29 | X-H torsion
[ 10718 10713 10712 10709 ] final   26.40 input   66.30 | X-H torsion
[ 10763 10752 10751 10750 ] final   51.60 input  -60.55 | X-H torsion
[ 11005 11000 10999 10996 ] final   35.41 input  -57.11 | X-H torsion

> <Gold.Protein.ActiveResidues>
 VAL166  LYS551  ARG553  GLY616  TRP617  ASP618  TYR619  PRO620  LYS621  CYS622 
 ASP623  PHE694  ASN695  SER759  ASP760  ASP761  ALA762  ILE779  LEU786  VAL792 
 PHE793  MET794  SER795  GLU796  ALA797  LYS798  CYS799  TRP800  GLU811  SER814 

> <Gold.Protein.RotatedAtoms>
  151.9996  133.3820  159.4176 H   0  0  0  0  0  0  0  0  0  0  0  0  # atno 6907 bound_to 6896
  150.6911  134.3848  159.5059 H   0  0  0  0  0  0  0  0  0  0  0  0  # atno 6908 bound_to 6896
  152.1594  134.8924  160.0593 H   0  0  0  0  0  0  0  0  0  0  0  0  # atno 6909 bound_to 6896
  144.9719  140.7554  143.4665 H   0  0  0  0  0  0  0  0  0  0  0  0  # atno 7974 bound_to 7965
  155.0463  140.3175  155.4707 H   0  0  0  0  0  0  0  0  0  0  0  0  # atno 8008 bound_to 7997
  156.2844  140.2154  156.5531 H   0  0  0  0  0  0  0  0  0  0  0  0  # atno 8009 bound_to 7997
  154.7248  140.0486  157.0660 H   0  0  0  0  0  0  0  0  0  0  0  0  # atno 8010 bound_to 7997
  139.6244  144.0561  152.1961 H   0  0  0  0  0  0  0  0  0  0  0  0  # atno 10167 bound_to 10162
  157.2063  130.6913  149.6209 H   0  0  0  0  0  0  0  0  0  0  0  0  # atno 10718 bound_to 10713
  152.9786  135.5840  154.4442 H   0  0  0  0  0  0  0  0  0  0  0  0  # atno 10763 bound_to 10752
  154.4039  135.2769  155.2081 H   0  0  0  0  0  0  0  0  0  0  0  0  # atno 10764 bound_to 10752
  154.3900  135.6127  153.5892 H   0  0  0  0  0  0  0  0  0  0  0  0  # atno 10765 bound_to 10752
  140.2429  134.3393  155.7919 H   0  0  0  0  0  0  0  0  0  0  0  0  # atno 11005 bound_to 11000
  145.2546  139.2017  143.4924 LP  0  0  0  0  0  0  0  0  0  0  0  0  # atno 17320 bound_to 7965
  146.3384  140.2466  142.8597 LP  0  0  0  0  0  0  0  0  0  0  0  0  # atno 17321 bound_to 7965
  140.0211  144.6152  150.7566 LP  0  0  0  0  0  0  0  0  0  0  0  0  # atno 17342 bound_to 10162
  140.7402  143.2801  151.3624 LP  0  0  0  0  0  0  0  0  0  0  0  0  # atno 17343 bound_to 10162
  155.9695  130.4566  150.5931 LP  0  0  0  0  0  0  0  0  0  0  0  0  # atno 17370 bound_to 10713
  157.3717  131.0766  151.1552 LP  0  0  0  0  0  0  0  0  0  0  0  0  # atno 17371 bound_to 10713
  141.2209  133.7309  156.8915 LP  0  0  0  0  0  0  0  0  0  0  0  0  # atno 17394 bound_to 11000
  140.1635  134.9149  157.2744 LP  0  0  0  0  0  0  0  0  0  0  0  0  # atno 17395 bound_to 11000

$$$$
