AV-unprocessed.smi:2129|AV-procd|sdf|8683|dock9
  -GOLD-   2272011433D 1   1.00000     0.00000
 Structure written by MMmdl.
 34 34  0  0  0  0  0  0  0  0  1 V2000
  153.5519  142.0383  159.7882 C   0  0  0  0  0  0  0  0  0  0  0  0
  152.2126  142.7209  160.1186 C   0  0  0  0  0  0  0  0  0  0  0  0
  151.6830  143.7175  159.0514 C   0  0  0  0  0  0  0  0  0  0  0  0
  150.2943  144.2469  159.4594 C   0  0  0  0  0  0  0  0  0  0  0  0
  152.6409  144.9235  158.9374 C   0  0  0  0  0  0  0  0  0  0  0  0
  151.5227  143.0703  157.7443 N   0  0  0  0  0  0  0  0  0  0  0  0
  150.7008  142.0619  157.3940 C   0  0  0  0  0  0  0  0  0  0  0  0
  149.9418  141.5022  158.1835 O   0  0  0  0  0  0  0  0  0  0  0  0
  150.7143  141.6039  155.9252 C   0  0  0  0  0  0  0  0  0  0  0  0
  150.7419  140.1436  155.7373 N   0  0  0  0  0  0  0  0  0  0  0  0
  149.9194  139.5450  154.7935 C   0  0  0  0  0  0  0  0  0  0  0  0
  149.8815  138.2086  154.5783 C   0  0  0  0  0  0  0  0  0  0  0  0
  150.7303  137.3109  155.3544 C   0  0  0  0  0  0  0  0  0  0  0  0
  150.7668  136.0885  155.2335 O   0  0  0  0  0  0  0  0  0  0  0  0
  151.5427  137.9508  156.2944 N   0  0  0  0  0  0  0  0  0  0  0  0
  151.5862  139.3271  156.5219 C   0  0  0  0  0  0  0  0  0  0  0  0
  152.3331  139.7876  157.3842 O   0  0  0  0  0  0  0  0  0  0  0  0
  152.1470  137.3692  156.8567 H   0  0  0  0  0  0  0  0  0  0  0  0
  153.8495  141.3735  160.5990 H   0  0  0  0  0  0  0  0  0  0  0  0
  154.3542  142.7638  159.6532 H   0  0  0  0  0  0  0  0  0  0  0  0
  153.4868  141.4350  158.8833 H   0  0  0  0  0  0  0  0  0  0  0  0
  151.4621  141.9485  160.2905 H   0  0  0  0  0  0  0  0  0  0  0  0
  152.3205  143.2320  161.0758 H   0  0  0  0  0  0  0  0  0  0  0  0
  150.3195  144.7108  160.4460 H   0  0  0  0  0  0  0  0  0  0  0  0
  149.5474  143.4530  159.4880 H   0  0  0  0  0  0  0  0  0  0  0  0
  149.9349  144.9976  158.7542 H   0  0  0  0  0  0  0  0  0  0  0  0
  152.6859  145.4777  159.8755 H   0  0  0  0  0  0  0  0  0  0  0  0
  152.3163  145.6187  158.1621 H   0  0  0  0  0  0  0  0  0  0  0  0
  153.6602  144.6193  158.6996 H   0  0  0  0  0  0  0  0  0  0  0  0
  152.0951  143.4505  157.0046 H   0  0  0  0  0  0  0  0  0  0  0  0
  149.8350  142.0246  155.4355 H   0  0  0  0  0  0  0  0  0  0  0  0
  151.5657  142.0659  155.4217 H   0  0  0  0  0  0  0  0  0  0  0  0
  149.2696  140.1715  154.1990 H   0  0  0  0  0  0  0  0  0  0  0  0
  149.2180  137.8016  153.8289 H   0  0  0  0  0  0  0  0  0  0  0  0
  1  2  1  0  0  0  0
  1 19  1  0  0  0  0
  1 20  1  0  0  0  0
  1 21  1  0  0  0  0
  2  3  1  0  0  0  0
  2 22  1  0  0  0  0
  2 23  1  0  0  0  0
  3  4  1  0  0  0  0
  3  5  1  0  0  0  0
  3  6  1  0  0  0  0
  4 24  1  0  0  0  0
  4 25  1  0  0  0  0
  4 26  1  0  0  0  0
  5 27  1  0  0  0  0
  5 28  1  0  0  0  0
  5 29  1  0  0  0  0
  6  7  1  0  0  0  0
  6 30  1  0  0  0  0
  7  8  2  0  0  0  0
  7  9  1  0  0  0  0
  9 10  1  0  0  0  0
  9 31  1  0  0  0  0
  9 32  1  0  0  0  0
 10 16  1  0  0  0  0
 10 11  1  0  0  0  0
 11 12  2  0  0  0  0
 11 33  1  0  0  0  0
 12 13  1  0  0  0  0
 12 34  1  0  0  0  0
 13 14  2  0  0  0  0
 13 15  1  0  0  0  0
 15 18  1  0  0  0  0
 15 16  1  0  0  0  0
 16 17  2  0  0  0  0
M  END
> <s_m_source_file>
AV-unprocessed.smi

> <i_m_source_file_index>
2129

> <i_lp_mmshare_version>
43012

> <i_f3d_flags>
0

> <s_epik_input>
W0NIM11bQ0gyXUMoW0NIM10pKFtDSDNdKVtOSF1DKD1PKVtDSDJdbjFbY0hdW2NIXWMoPU8pW25IXWMxPU8=

> <s_epik_cmdline>
J2VwaWtfcHl0aG9uJywgJy1waCcsICc3LjAnLCAnLXRuJywgJzgnLCAnLW1hJywgJzIwMCcsICctbWV0YWxfYmluZGluZycsICctaW1hZScsICc8aW5maWxlLm1hZT4nLCAnLW9tYWUnLCAnPG91dGZpbGUubWFlPic=

> <r_lp_tautomer_probability>
0.999537

> <r_epik_Ionization_Penalty>
0.00293907

> <r_epik_Ionization_Penalty_Charging>
0.00293905

> <r_epik_Ionization_Penalty_Neutral>
1.95902e-08

> <r_epik_State_Penalty>
0.0020607

> <r_epik_Charging_Adjusted_Penalty>
0.00499975

> <i_epik_Tot_Q>
0

> <i_epik_Tot_abs_Q>
0

> <r_epik_Metal_State_Penalty>
0.360223

> <b_epik_Metal_Only>
0

> <s_lp_Force_Field>
OPLS_2005

> <r_lp_Energy>
5.65175

> <b_lp_Chiralities_Consistent>
1

> <s_lp_Variant>
AV-unprocessed.smi:2129-1

> <Gold.Version>
5.8.1

> <Gold.Id.Protein>
6NUR|6NUR_protein|mol2

> <Gold.PLP.Fitness>
41.5848

> <Gold.PLP.PLP>
-36.1304

> <Gold.PLP.part.hbond>
-2.0000

> <Gold.PLP.part.metal>
0.0000

> <Gold.PLP.part.buried>
-3.5972

> <Gold.PLP.part.nonpolar>
-29.7103

> <Gold.PLP.part.repulsive>
0.3106

> <Gold.PLP.ligand.clash>
0.0000

> <Gold.PLP.ligand.torsion>
0.4343

> <Gold.PLP.Chemscore.Hbond>
2.0000

> <Gold.PLP.Chemscore.CHOScore>
0.1020

> <Gold.PLP.Chemscore.Metal>
0.0000

> <Gold.Chemscore.Hbonds>
donor molecule, donor type, donor heavy atom, donor atom, acceptor molecule, acceptor atom, score
      P1  H  7997  8008       L1    17  0.57
      P1  H 10752 10765       L1    14  0.23

> <Gold.PLP.Chemscore.Internal.Correction>
0.0170

> <Gold.Rescore>
     Score         DG    S(hbond)    S(metal)    S(lipo)     H(rot)  DE(clash)    DE(int)     intcor
     13.74     -14.77       1.82        0.00      69.99       1.95       0.00       1.02       ----

> <Gold.Chemscore.Fitness>
13.7437

> <Gold.Chemscore.DG>
-14.7676

> <Gold.Chemscore.ZeroCoef>
-5.4800

> <Gold.Chemscore.Hbond>
1.8222

> <Gold.Chemscore.Metal>
0.0000

> <Gold.Chemscore.Lipo>
69.9914

> <Gold.Chemscore.Internal_Hbond>
0.0000

> <Gold.Chemscore.DEClash>
0.0000

> <Gold.Chemscore.DEInternal>
1.0239

> <Gold.Chemscore.Rot>
1.9483

> <Gold.Chemscore.Internal.Correction>
   9.000000E+99

> <Gold.Chemscore.Hbonds>
donor molecule, donor type, donor heavy atom, donor atom, acceptor molecule, acceptor atom, score
      P1  H  7997  8008       L1    17  0.53
      P1  H 10752 10765       L1    14  0.14

> <Gold.Chemscore.Hbond.Weighted>
-6.0862

> <Gold.Chemscore.Metal.Weighted>
-0.0000

> <Gold.Chemscore.Lipo.Weighted>
-8.1890

> <Gold.Chemscore.Internal_Hbond.Weighted>
0.0000

> <Gold.Chemscore.DEClash.Weighted>
0.0000

> <Gold.Chemscore.DEInternal.Weighted>
1.0239

> <Gold.Chemscore.Rot.Weighted>
4.9876

> <Gold.Chemscore.Internal.Correction.Weighted>
   9.000000E+99

> <Gold.Protein.RotatedTorsions>
[ 6907 6896 6895 6894 ] final  -81.52 input  -60.11 | X-H torsion
[ 7974 7965 7964 7962 ] final  109.65 input  175.53 | X-H torsion
[ 8008 7997 7996 7995 ] final  -71.66 input   59.86 | X-H torsion
[ 10167 10162 10161 10158 ] final   75.20 input  -65.29 | X-H torsion
[ 10718 10713 10712 10709 ] final  -73.51 input   66.30 | X-H torsion
[ 10763 10752 10751 10750 ] final -164.92 input  -60.55 | X-H torsion
[ 11005 11000 10999 10996 ] final   54.67 input  -57.11 | X-H torsion

> <Gold.Protein.ActiveResidues>
 VAL166  LYS551  ARG553  GLY616  TRP617  ASP618  TYR619  PRO620  LYS621  CYS622 
 ASP623  PHE694  ASN695  SER759  ASP760  ASP761  ALA762  ILE779  LEU786  VAL792 
 PHE793  MET794  SER795  GLU796  ALA797  LYS798  CYS799  TRP800  GLU811  SER814 

> <Gold.Protein.RotatedAtoms>
  150.6911  134.3806  159.5031 H   0  0  0  0  0  0  0  0  0  0  0  0  # atno 6907 bound_to 6896
  152.1608  134.8910  160.0551 H   0  0  0  0  0  0  0  0  0  0  0  0  # atno 6908 bound_to 6896
  151.9973  133.3778  159.4205 H   0  0  0  0  0  0  0  0  0  0  0  0  # atno 6909 bound_to 6896
  145.2651  139.2687  143.3996 H   0  0  0  0  0  0  0  0  0  0  0  0  # atno 7974 bound_to 7965
  154.5105  140.0811  156.7981 H   0  0  0  0  0  0  0  0  0  0  0  0  # atno 8008 bound_to 7997
  155.3795  140.3427  155.4228 H   0  0  0  0  0  0  0  0  0  0  0  0  # atno 8009 bound_to 7997
  156.1568  140.1575  156.8667 H   0  0  0  0  0  0  0  0  0  0  0  0  # atno 8010 bound_to 7997
  140.0055  144.5653  150.7701 H   0  0  0  0  0  0  0  0  0  0  0  0  # atno 10167 bound_to 10162
  156.0277  130.4396  150.2754 H   0  0  0  0  0  0  0  0  0  0  0  0  # atno 10718 bound_to 10713
  154.6982  135.2983  154.9380 H   0  0  0  0  0  0  0  0  0  0  0  0  # atno 10763 bound_to 10752
  154.0321  135.6669  153.4786 H   0  0  0  0  0  0  0  0  0  0  0  0  # atno 10764 bound_to 10752
  153.0661  135.5087  154.8112 H   0  0  0  0  0  0  0  0  0  0  0  0  # atno 10765 bound_to 10752
  140.0668  134.5526  155.9091 H   0  0  0  0  0  0  0  0  0  0  0  0  # atno 11005 bound_to 11000
  146.3263  140.3078  142.8625 LP  0  0  0  0  0  0  0  0  0  0  0  0  # atno 17320 bound_to 7965
  144.9384  140.8052  143.5646 LP  0  0  0  0  0  0  0  0  0  0  0  0  # atno 17321 bound_to 7965
  140.7402  143.2801  151.3624 LP  0  0  0  0  0  0  0  0  0  0  0  0  # atno 17342 bound_to 10162
  139.6241  144.0848  152.2418 LP  0  0  0  0  0  0  0  0  0  0  0  0  # atno 17343 bound_to 10162
  157.0857  131.0156  151.3140 LP  0  0  0  0  0  0  0  0  0  0  0  0  # atno 17370 bound_to 10713
  157.4893  130.7812  149.7491 LP  0  0  0  0  0  0  0  0  0  0  0  0  # atno 17371 bound_to 10713
  141.1996  133.6607  156.5851 LP  0  0  0  0  0  0  0  0  0  0  0  0  # atno 17394 bound_to 11000
  140.3687  134.7624  157.4584 LP  0  0  0  0  0  0  0  0  0  0  0  0  # atno 17395 bound_to 11000

$$$$
