AV-unprocessed.smi:838|AV-procd|sdf|3908|dock9
  -GOLD-   22720 1373D 1   1.00000     0.00000
 Structure written by MMmdl.
 45 46  0  0  0  0  0  0  0  0  1 V2000
  151.8728  140.3236  157.7730 C   0  0  0  0  0  0  0  0  0  0  0  0
  151.7152  139.9542  156.2965 C   0  0  0  0  0  0  0  0  0  0  0  0
  151.2381  140.7975  155.5368 O   0  0  0  0  0  0  0  0  0  0  0  0
  152.0982  138.7248  155.8771 N   0  0  0  0  0  0  0  0  0  0  0  0
  152.6337  137.6986  156.7759 C   0  0  0  0  0  0  0  0  0  0  0  0
  151.6661  136.4996  156.8008 C   0  0  0  0  0  0  0  0  0  0  0  0
  151.4978  135.9562  155.4503 N   0  0  0  0  0  0  0  0  0  0  0  0
  150.6073  134.7966  155.5025 C   0  0  0  0  0  0  0  0  0  0  0  0
  149.1122  135.1739  155.4580 C   0  0  0  0  0  0  0  0  0  0  0  0
  148.5299  134.9232  154.1428 N   0  0  0  0  0  0  0  0  0  0  0  0
  147.4697  134.1381  153.9004 C   0  0  0  0  0  0  0  0  0  0  0  0
  146.8733  133.5104  154.7761 O   0  0  0  0  0  0  0  0  0  0  0  0
  147.1555  134.1397  152.5930 N   0  0  0  0  0  0  0  0  0  0  0  0
  146.1065  133.4398  151.9328 C   0  0  0  0  0  0  0  0  0  0  0  0
  145.1497  134.0701  151.2060 N   0  0  0  0  0  0  0  0  0  0  0  0
  144.1823  133.3452  150.6085 C   0  0  0  0  0  0  0  0  0  0  0  0
  144.1070  131.9447  150.6978 C   0  0  0  0  0  0  0  0  0  0  0  0
  145.0905  131.2758  151.4462 C   0  0  0  0  0  0  0  0  0  0  0  0
  146.1069  132.0261  152.0747 C   0  0  0  0  0  0  0  0  0  0  0  0
  147.1736  131.3043  152.8822 C   0  0  0  0  0  0  0  0  0  0  0  0
  150.9782  136.9974  154.5551 C   0  0  0  0  0  0  0  0  0  0  0  0
  151.9486  138.1934  154.5187 C   0  0  0  0  0  0  0  0  0  0  0  0
  152.9205  140.2832  158.0723 H   0  0  0  0  0  0  0  0  0  0  0  0
  151.2966  139.6467  158.4041 H   0  0  0  0  0  0  0  0  0  0  0  0
  151.5127  141.3363  157.9562 H   0  0  0  0  0  0  0  0  0  0  0  0
  153.6172  137.3855  156.4224 H   0  0  0  0  0  0  0  0  0  0  0  0
  152.7833  138.0651  157.7920 H   0  0  0  0  0  0  0  0  0  0  0  0
  152.0649  135.7272  157.4593 H   0  0  0  0  0  0  0  0  0  0  0  0
  150.6996  136.8021  157.2074 H   0  0  0  0  0  0  0  0  0  0  0  0
  150.8159  134.1490  154.6495 H   0  0  0  0  0  0  0  0  0  0  0  0
  150.8212  134.2073  156.3955 H   0  0  0  0  0  0  0  0  0  0  0  0
  148.5736  134.5498  156.1711 H   0  0  0  0  0  0  0  0  0  0  0  0
  148.9404  136.1997  155.7841 H   0  0  0  0  0  0  0  0  0  0  0  0
  148.9550  135.4009  153.3619 H   0  0  0  0  0  0  0  0  0  0  0  0
  147.7328  134.7127  151.9960 H   0  0  0  0  0  0  0  0  0  0  0  0
  143.4475  133.8987  150.0430 H   0  0  0  0  0  0  0  0  0  0  0  0
  143.3164  131.3988  150.2045 H   0  0  0  0  0  0  0  0  0  0  0  0
  145.0623  130.1997  151.5347 H   0  0  0  0  0  0  0  0  0  0  0  0
  147.0109  130.2263  152.8819 H   0  0  0  0  0  0  0  0  0  0  0  0
  147.1643  131.6440  153.9183 H   0  0  0  0  0  0  0  0  0  0  0  0
  148.1622  131.4944  152.4631 H   0  0  0  0  0  0  0  0  0  0  0  0
  150.8644  136.6093  153.5441 H   0  0  0  0  0  0  0  0  0  0  0  0
  149.9905  137.3215  154.8871 H   0  0  0  0  0  0  0  0  0  0  0  0
  151.5877  138.9275  153.8005 H   0  0  0  0  0  0  0  0  0  0  0  0
  152.9240  137.8743  154.1478 H   0  0  0  0  0  0  0  0  0  0  0  0
  1  2  1  0  0  0  0
  1 23  1  0  0  0  0
  1 24  1  0  0  0  0
  1 25  1  0  0  0  0
  2  3  2  0  0  0  0
  2  4  1  0  0  0  0
  4 22  1  0  0  0  0
  4  5  1  0  0  0  0
  5  6  1  0  0  0  0
  5 26  1  0  0  0  0
  5 27  1  0  0  0  0
  6  7  1  0  0  0  0
  6 28  1  0  0  0  0
  6 29  1  0  0  0  0
  7  8  1  0  0  0  0
  7 21  1  0  0  0  0
  8  9  1  0  0  0  0
  8 30  1  0  0  0  0
  8 31  1  0  0  0  0
  9 10  1  0  0  0  0
  9 32  1  0  0  0  0
  9 33  1  0  0  0  0
 10 11  1  0  0  0  0
 10 34  1  0  0  0  0
 11 12  2  0  0  0  0
 11 13  1  0  0  0  0
 13 14  1  0  0  0  0
 13 35  1  0  0  0  0
 14 19  1  0  0  0  0
 14 15  2  0  0  0  0
 15 16  1  0  0  0  0
 16 17  2  0  0  0  0
 16 36  1  0  0  0  0
 17 18  1  0  0  0  0
 17 37  1  0  0  0  0
 18 19  2  0  0  0  0
 18 38  1  0  0  0  0
 19 20  1  0  0  0  0
 20 39  1  0  0  0  0
 20 40  1  0  0  0  0
 20 41  1  0  0  0  0
 21 22  1  0  0  0  0
 21 42  1  0  0  0  0
 21 43  1  0  0  0  0
 22 44  1  0  0  0  0
 22 45  1  0  0  0  0
M  END
> <s_m_source_file>
AV-unprocessed.smi

> <i_m_source_file_index>
838

> <i_lp_mmshare_version>
43012

> <i_f3d_flags>
0

> <s_epik_input>
W0NIM11DKD1PKU4xW0NIMl1bQ0gyXU4oW0NIMl1bQ0gyXTEpW0NIMl1bQ0gyXVtOSF1DKD1PKVtOSF1jMm5bY0hdW2NIXVtjSF1jMltDSDNd

> <s_epik_cmdline>
J2VwaWtfcHl0aG9uJywgJy1waCcsICc3LjAnLCAnLXRuJywgJzgnLCAnLW1hJywgJzIwMCcsICctbWV0YWxfYmluZGluZycsICctaW1hZScsICc8aW5maWxlLm1hZT4nLCAnLW9tYWUnLCAnPG91dGZpbGUubWFlPic=

> <r_epik_Ionization_Penalty>
0.25102

> <r_epik_Ionization_Penalty_Charging>
0

> <r_epik_Ionization_Penalty_Neutral>
0.25102

> <r_epik_State_Penalty>
0.242297

> <r_epik_Charging_Adjusted_Penalty>
0.242297

> <i_epik_Tot_Q>
0

> <i_epik_Tot_abs_Q>
0

> <r_epik_Metal_State_Penalty>
0.242294

> <b_epik_Metal_Only>
0

> <s_lp_Force_Field>
OPLS_2005

> <r_lp_Energy>
40.132

> <b_lp_Chiralities_Consistent>
1

> <s_lp_Variant>
AV-unprocessed.smi:838-1

> <Gold.Version>
5.8.1

> <Gold.Id.Protein>
6NUR|6NUR_protein|mol2

> <Gold.PLP.Fitness>
47.7261

> <Gold.PLP.PLP>
-35.7892

> <Gold.PLP.part.hbond>
-4.0000

> <Gold.PLP.part.metal>
0.0000

> <Gold.PLP.part.buried>
-4.6792

> <Gold.PLP.part.nonpolar>
-27.4866

> <Gold.PLP.part.repulsive>
0.3071

> <Gold.PLP.ligand.clash>
0.0000

> <Gold.PLP.ligand.torsion>
1.1088

> <Gold.PLP.Chemscore.Hbond>
3.7120

> <Gold.PLP.Chemscore.CHOScore>
1.0000

> <Gold.PLP.Chemscore.Metal>
0.0000

> <Gold.Chemscore.Hbonds>
donor molecule, donor type, donor heavy atom, donor atom, acceptor molecule, acceptor atom, score
      L1  H    10    34       P1  7948  1.00
      L1  H    13    35       P1  7948  0.98
      P1  H  7989  7998       L1     3  0.67
      P1  H 10752 10764       L1     7  1.00
      L1  C    16    36       P1 10186  0.97

> <Gold.PLP.Chemscore.Internal.Correction>
0.0185

> <Gold.Rescore>
     Score         DG    S(hbond)    S(metal)    S(lipo)     H(rot)  DE(clash)    DE(int)     intcor
     18.08     -19.92       2.89        0.00      74.64       1.54       0.20       1.63       ----

> <Gold.Chemscore.Fitness>
18.0850

> <Gold.Chemscore.DG>
-19.9168

> <Gold.Chemscore.ZeroCoef>
-5.4800

> <Gold.Chemscore.Hbond>
2.8915

> <Gold.Chemscore.Metal>
0.0000

> <Gold.Chemscore.Lipo>
74.6352

> <Gold.Chemscore.Internal_Hbond>
0.0000

> <Gold.Chemscore.DEClash>
0.2041

> <Gold.Chemscore.DEInternal>
1.6277

> <Gold.Chemscore.Rot>
1.5441

> <Gold.Chemscore.Internal.Correction>
   9.000000E+99

> <Gold.Chemscore.Hbonds>
donor molecule, donor type, donor heavy atom, donor atom, acceptor molecule, acceptor atom, score
      L1  H    10    34       P1  7948  0.64
      L1  H    13    35       P1  7948  0.47
      P1  H  7989  7998       L1     3  0.64
      P1  H 10752 10764       L1     7  0.30

> <Gold.Chemscore.Hbond.Weighted>
-9.6575

> <Gold.Chemscore.Metal.Weighted>
-0.0000

> <Gold.Chemscore.Lipo.Weighted>
-8.7323

> <Gold.Chemscore.Internal_Hbond.Weighted>
0.0000

> <Gold.Chemscore.DEClash.Weighted>
0.2041

> <Gold.Chemscore.DEInternal.Weighted>
1.6277

> <Gold.Chemscore.Rot.Weighted>
3.9530

> <Gold.Chemscore.Internal.Correction.Weighted>
   9.000000E+99

> <Gold.Protein.RotatedTorsions>
[ 6907 6896 6895 6894 ] final  -50.86 input  -60.11 | X-H torsion
[ 7974 7965 7964 7962 ] final    7.65 input  175.53 | X-H torsion
[ 8008 7997 7996 7995 ] final   25.63 input   59.86 | X-H torsion
[ 10167 10162 10161 10158 ] final  163.26 input  -65.29 | X-H torsion
[ 10718 10713 10712 10709 ] final  -69.78 input   66.30 | X-H torsion
[ 10763 10752 10751 10750 ] final  -37.75 input  -60.55 | X-H torsion
[ 11005 11000 10999 10996 ] final -104.54 input  -57.11 | X-H torsion

> <Gold.Protein.ActiveResidues>
 VAL166  LYS551  ARG553  GLY616  TRP617  ASP618  TYR619  PRO620  LYS621  CYS622 
 ASP623  PHE694  ASN695  SER759  ASP760  ASP761  ALA762  ILE779  LEU786  VAL792 
 PHE793  MET794  SER795  GLU796  ALA797  LYS798  CYS799  TRP800  GLU811  SER814 

> <Gold.Protein.RotatedAtoms>
  150.8667  134.8032  159.7123 H   0  0  0  0  0  0  0  0  0  0  0  0  # atno 6907 bound_to 6896
  152.4686  134.5013  159.9735 H   0  0  0  0  0  0  0  0  0  0  0  0  # atno 6908 bound_to 6896
  151.5108  133.3447  159.2920 H   0  0  0  0  0  0  0  0  0  0  0  0  # atno 6909 bound_to 6896
  146.2424  140.0051  142.8412 H   0  0  0  0  0  0  0  0  0  0  0  0  # atno 7974 bound_to 7965
  155.0147  140.3140  155.4816 H   0  0  0  0  0  0  0  0  0  0  0  0  # atno 8008 bound_to 7997
  156.2903  140.2208  156.5204 H   0  0  0  0  0  0  0  0  0  0  0  0  # atno 8009 bound_to 7997
  154.7504  140.0466  157.0876 H   0  0  0  0  0  0  0  0  0  0  0  0  # atno 8010 bound_to 7997
  139.4871  144.4355  151.9018 H   0  0  0  0  0  0  0  0  0  0  0  0  # atno 10167 bound_to 10162
  156.0439  130.4319  150.2199 H   0  0  0  0  0  0  0  0  0  0  0  0  # atno 10718 bound_to 10713
  153.9014  135.6802  153.4755 H   0  0  0  0  0  0  0  0  0  0  0  0  # atno 10763 bound_to 10752
  153.1127  135.4775  154.9061 H   0  0  0  0  0  0  0  0  0  0  0  0  # atno 10764 bound_to 10752
  154.7573  135.3201  154.8399 H   0  0  0  0  0  0  0  0  0  0  0  0  # atno 10765 bound_to 10752
  141.1096  133.8732  157.1624 H   0  0  0  0  0  0  0  0  0  0  0  0  # atno 11005 bound_to 11000
  145.1379  140.9555  143.4506 LP  0  0  0  0  0  0  0  0  0  0  0  0  # atno 17320 bound_to 7965
  145.0324  139.3329  143.6018 LP  0  0  0  0  0  0  0  0  0  0  0  0  # atno 17321 bound_to 7965
  140.3804  144.2743  150.5909 LP  0  0  0  0  0  0  0  0  0  0  0  0  # atno 17342 bound_to 10162
  140.5238  143.2259  151.8347 LP  0  0  0  0  0  0  0  0  0  0  0  0  # atno 17343 bound_to 10162
  157.0291  131.0002  151.3317 LP  0  0  0  0  0  0  0  0  0  0  0  0  # atno 17370 bound_to 10713
  157.5290  130.8046  149.7895 LP  0  0  0  0  0  0  0  0  0  0  0  0  # atno 17371 bound_to 10713
  139.9982  135.0038  157.0131 LP  0  0  0  0  0  0  0  0  0  0  0  0  # atno 17394 bound_to 11000
  140.4812  134.1288  155.7217 LP  0  0  0  0  0  0  0  0  0  0  0  0  # atno 17395 bound_to 11000

$$$$
