AV-unprocessed.smi:1703|AV-procd|sdf|6876|dock3
  -GOLD-   22720 8 73D 1   1.00000     0.00000
 Structure written by MMmdl.
 50 52  0  0  0  0  0  0  0  0  3 V2000
  142.6339  136.1433  156.1564 C   0  0  0  0  0  0  0  0  0  0  0  0
  143.3377  137.4993  156.2752 C   0  0  1  0  0  0  0  0  0  0  0  0
  143.2624  138.3038  154.9597 C   0  0  0  0  0  0  0  0  0  0  0  0
  143.8412  139.6643  155.1122 N   0  3  2  0  0  0  0  0  0  0  0  0
  145.3284  139.7151  155.1189 C   0  0  0  0  0  0  0  0  0  0  0  0
  145.8849  141.1453  155.3033 C   0  0  1  0  0  0  0  0  0  0  0  0
  146.3616  141.2923  156.6252 O   0  0  0  0  0  0  0  0  0  0  0  0
  147.0495  141.4811  154.3503 C   0  0  0  0  0  0  0  0  0  0  0  0
  147.9761  140.3516  154.1547 N   0  0  0  0  0  0  0  0  0  0  0  0
  147.9007  139.2985  153.2890 C   0  0  0  0  0  0  0  0  0  0  0  0
  146.8123  139.0131  152.3075 C   0  0  0  0  0  0  0  0  0  0  0  0
  147.2356  138.1439  151.2794 O   0  0  0  0  0  0  0  0  0  0  0  0
  149.0022  138.5241  153.4963 N   0  3  0  0  0  0  0  0  0  0  0  0
  149.7915  139.0829  154.5011 C   0  0  0  0  0  0  0  0  0  0  0  0
  150.9955  138.6555  155.0524 C   0  0  0  0  0  0  0  0  0  0  0  0
  151.5428  139.4563  156.0756 C   0  0  0  0  0  0  0  0  0  0  0  0
  150.8946  140.6284  156.5148 C   0  0  0  0  0  0  0  0  0  0  0  0
  149.6739  141.0515  155.9485 C   0  0  0  0  0  0  0  0  0  0  0  0
  149.1394  140.2573  154.9323 C   0  0  0  0  0  0  0  0  0  0  0  0
  143.2230  140.3557  156.2696 C   0  0  0  0  0  0  0  0  0  0  0  0
  143.3208  139.5014  157.5509 C   0  0  1  0  0  0  0  0  0  0  0  0
  142.6124  140.1609  158.7389 C   0  0  0  0  0  0  0  0  0  0  0  0
  142.7045  138.2400  157.3131 O   0  0  0  0  0  0  0  0  0  0  0  0
  143.0923  135.5310  155.3792 H   0  0  0  0  0  0  0  0  0  0  0  0
  141.5790  136.2650  155.9086 H   0  0  0  0  0  0  0  0  0  0  0  0
  142.6939  135.5893  157.0934 H   0  0  0  0  0  0  0  0  0  0  0  0
  144.3770  137.3144  156.5501 H   0  0  0  0  0  0  0  0  0  0  0  0
  143.7402  137.7558  154.1493 H   0  0  0  0  0  0  0  0  0  0  0  0
  142.2174  138.4173  154.6681 H   0  0  0  0  0  0  0  0  0  0  0  0
  145.7166  139.0894  155.9242 H   0  0  0  0  0  0  0  0  0  0  0  0
  145.6992  139.2705  154.1972 H   0  0  0  0  0  0  0  0  0  0  0  0
  145.1030  141.8867  155.1503 H   0  0  0  0  0  0  0  0  0  0  0  0
  147.2401  141.6395  156.6002 H   0  0  0  0  0  0  0  0  0  0  0  0
  146.6621  141.7547  153.3681 H   0  0  0  0  0  0  0  0  0  0  0  0
  147.5998  142.3518  154.7039 H   0  0  0  0  0  0  0  0  0  0  0  0
  145.9563  138.5732  152.8195 H   0  0  0  0  0  0  0  0  0  0  0  0
  146.4725  139.9495  151.8641 H   0  0  0  0  0  0  0  0  0  0  0  0
  147.4775  137.3162  151.6674 H   0  0  0  0  0  0  0  0  0  0  0  0
  151.4933  137.7564  154.7190 H   0  0  0  0  0  0  0  0  0  0  0  0
  152.4776  139.1651  156.5331 H   0  0  0  0  0  0  0  0  0  0  0  0
  151.3441  141.2164  157.3022 H   0  0  0  0  0  0  0  0  0  0  0  0
  149.1931  141.9516  156.3005 H   0  0  0  0  0  0  0  0  0  0  0  0
  143.6787  141.3357  156.4170 H   0  0  0  0  0  0  0  0  0  0  0  0
  142.1739  140.5408  156.0347 H   0  0  0  0  0  0  0  0  0  0  0  0
  144.3667  139.3461  157.8203 H   0  0  0  0  0  0  0  0  0  0  0  0
  143.0532  141.1310  158.9700 H   0  0  0  0  0  0  0  0  0  0  0  0
  142.6895  139.5405  159.6321 H   0  0  0  0  0  0  0  0  0  0  0  0
  141.5531  140.3152  158.5319 H   0  0  0  0  0  0  0  0  0  0  0  0
  143.5627  140.1916  154.2970 H   0  0  0  0  0  0  0  0  0  0  0  0
  149.1963  137.6719  152.9859 H   0  0  0  0  0  0  0  0  0  0  0  0
  1  2  1  0  0  0  0
  1 24  1  0  0  0  0
  1 25  1  0  0  0  0
  1 26  1  0  0  0  0
  2 23  1  0  0  0  0
  2  3  1  0  0  0  0
  2 27  1  0  0  0  0
  3  4  1  0  0  0  0
  3 28  1  0  0  0  0
  3 29  1  0  0  0  0
  4  5  1  0  0  0  0
  4 20  1  0  0  0  0
  4 49  1  0  0  0  0
  5  6  1  0  0  0  0
  5 30  1  0  0  0  0
  5 31  1  0  0  0  0
  6  7  1  0  0  0  0
  6  8  1  0  0  0  0
  6 32  1  0  0  0  0
  7 33  1  0  0  0  0
  8  9  1  0  0  0  0
  8 34  1  0  0  0  0
  8 35  1  0  0  0  0
  9 19  1  0  0  0  0
  9 10  1  0  0  0  0
 10 11  1  0  0  0  0
 10 13  2  0  0  0  0
 11 12  1  0  0  0  0
 11 36  1  0  0  0  0
 11 37  1  0  0  0  0
 12 38  1  0  0  0  0
 13 14  1  0  0  0  0
 13 50  1  0  0  0  0
 14 19  2  0  0  0  0
 14 15  1  0  0  0  0
 15 16  2  0  0  0  0
 15 39  1  0  0  0  0
 16 17  1  0  0  0  0
 16 40  1  0  0  0  0
 17 18  2  0  0  0  0
 17 41  1  0  0  0  0
 18 19  1  0  0  0  0
 18 42  1  0  0  0  0
 20 21  1  0  0  0  0
 20 43  1  0  0  0  0
 20 44  1  0  0  0  0
 21 22  1  0  0  0  0
 21 23  1  0  0  0  0
 21 45  1  0  0  0  0
 22 46  1  0  0  0  0
 22 47  1  0  0  0  0
 22 48  1  0  0  0  0
M  CHG  1   4   1
M  CHG  1  13   1
M  END
> <s_m_source_file>
AV-unprocessed.smi

> <i_m_source_file_index>
1703

> <i_lp_mmshare_version>
43012

> <i_f3d_flags>
0

> <s_epik_input>
W0NIM11bQ0BASF0xW0NIMl1OKFtDSDJdW0NASF0oTzEpW0NIM10pW0NIMl1bQ0BIXShbT0hdKVtDSDJdbihjKG4yKVtDSDJdW09IXSljKGMyMylbY0hdW2NIXVtjSF1bY0hdMw==

> <s_epik_cmdline>
J2VwaWtfcHl0aG9uJywgJy1waCcsICc3LjAnLCAnLXRuJywgJzgnLCAnLW1hJywgJzIwMCcsICctbWV0YWxfYmluZGluZycsICctaW1hZScsICc8aW5maWxlLm1hZT4nLCAnLW9tYWUnLCAnPG91dGZpbGUubWFlPic=

> <r_epik_Ionization_Penalty>
2.22579

> <r_epik_Ionization_Penalty_Charging>
2.22492

> <r_epik_Ionization_Penalty_Neutral>
0.000870007

> <r_epik_State_Penalty>
2.3141

> <r_epik_Charging_Adjusted_Penalty>
4.53902

> <i_epik_Tot_Q>
2

> <i_epik_Tot_abs_Q>
2

> <r_epik_Metal_State_Penalty>
6.36517

> <b_epik_Metal_Only>
0

> <s_lp_Force_Field>
OPLS_2005

> <r_lp_Energy>
31.3011

> <b_lp_Chiralities_Consistent>
1

> <s_lp_Variant>
AV-unprocessed.smi:1703-24

> <Gold.Version>
5.8.1

> <Gold.Id.Protein>
6NUR|6NUR_protein|mol2

> <Gold.PLP.Fitness>
49.8089

> <Gold.PLP.PLP>
-35.7299

> <Gold.PLP.part.hbond>
-5.6418

> <Gold.PLP.part.metal>
0.0000

> <Gold.PLP.part.buried>
1.6723

> <Gold.PLP.part.nonpolar>
-30.9879

> <Gold.PLP.part.repulsive>
0.0771

> <Gold.PLP.ligand.clash>
0.0000

> <Gold.PLP.ligand.torsion>
1.5045

> <Gold.PLP.Chemscore.Hbond>
5.6720

> <Gold.PLP.Chemscore.CHOScore>
0.0000

> <Gold.PLP.Chemscore.Metal>
0.0000

> <Gold.Chemscore.Hbonds>
donor molecule, donor type, donor heavy atom, donor atom, acceptor molecule, acceptor atom, score
      L1  H     4    49       P1 10175  2.00
      L1  H    12    38       P1  7948  0.77
      L1  H    13    50       P1  7948  2.00
      P1  H  7954  7966       L1    12  0.65

> <Gold.PLP.Chemscore.Internal.Correction>
0.0719

> <Gold.Rescore>
     Score         DG    S(hbond)    S(metal)    S(lipo)     H(rot)  DE(clash)    DE(int)     intcor
     13.08     -15.94       3.10        0.00      67.31       3.04       1.33       1.53       ----

> <Gold.Chemscore.Fitness>
13.0821

> <Gold.Chemscore.DG>
-15.9377

> <Gold.Chemscore.ZeroCoef>
-5.4800

> <Gold.Chemscore.Hbond>
3.1016

> <Gold.Chemscore.Metal>
0.0000

> <Gold.Chemscore.Lipo>
67.3078

> <Gold.Chemscore.Internal_Hbond>
0.0000

> <Gold.Chemscore.DEClash>
1.3267

> <Gold.Chemscore.DEInternal>
1.5290

> <Gold.Chemscore.Rot>
3.0378

> <Gold.Chemscore.Internal.Correction>
   9.000000E+99

> <Gold.Chemscore.Hbonds>
donor molecule, donor type, donor heavy atom, donor atom, acceptor molecule, acceptor atom, score
      L1  H     4    49       P1 10175  0.95
      L1  H    12    38       P1  7948  0.78
      L1  H    13    50       P1  7948  0.99
      P1  H  7954  7966       L1    12  0.06

> <Gold.Chemscore.Hbond.Weighted>
-10.3594

> <Gold.Chemscore.Metal.Weighted>
-0.0000

> <Gold.Chemscore.Lipo.Weighted>
-7.8750

> <Gold.Chemscore.Internal_Hbond.Weighted>
0.0000

> <Gold.Chemscore.DEClash.Weighted>
1.3267

> <Gold.Chemscore.DEInternal.Weighted>
1.5290

> <Gold.Chemscore.Rot.Weighted>
7.7767

> <Gold.Chemscore.Internal.Correction.Weighted>
   9.000000E+99

> <Gold.Protein.RotatedTorsions>
[ 6907 6896 6895 6894 ] final  112.00 input  -60.11 | X-H torsion
[ 7974 7965 7964 7962 ] final  -60.06 input  175.53 | X-H torsion
[ 8008 7997 7996 7995 ] final  -35.86 input   59.86 | X-H torsion
[ 10167 10162 10161 10158 ] final -140.87 input  -65.29 | X-H torsion
[ 10718 10713 10712 10709 ] final  -54.60 input   66.30 | X-H torsion
[ 10763 10752 10751 10750 ] final -123.97 input  -60.55 | X-H torsion
[ 11005 11000 10999 10996 ] final  165.96 input  -57.11 | X-H torsion

> <Gold.Protein.ActiveResidues>
 VAL166  LYS551  ARG553  GLY616  TRP617  ASP618  TYR619  PRO620  LYS621  CYS622 
 ASP623  PHE694  ASN695  SER759  ASP760  ASP761  ALA762  ILE779  LEU786  VAL792 
 PHE793  MET794  SER795  GLU796  ALA797  LYS798  CYS799  TRP800  GLU811  SER814 

> <Gold.Protein.RotatedAtoms>
  152.4940  133.8578  159.7234 H   0  0  0  0  0  0  0  0  0  0  0  0  # atno 6907 bound_to 6896
  150.9098  133.7003  159.2864 H   0  0  0  0  0  0  0  0  0  0  0  0  # atno 6908 bound_to 6896
  151.4416  135.1025  159.9724 H   0  0  0  0  0  0  0  0  0  0  0  0  # atno 6909 bound_to 6896
  145.8201  140.8545  143.0137 H   0  0  0  0  0  0  0  0  0  0  0  0  # atno 7974 bound_to 7965
  154.4086  140.1646  156.2280 H   0  0  0  0  0  0  0  0  0  0  0  0  # atno 8008 bound_to 7997
  155.9307  140.3415  155.6223 H   0  0  0  0  0  0  0  0  0  0  0  0  # atno 8009 bound_to 7997
  155.7110  140.0756  157.2361 H   0  0  0  0  0  0  0  0  0  0  0  0  # atno 8010 bound_to 7997
  139.8240  143.7536  152.2666 H   0  0  0  0  0  0  0  0  0  0  0  0  # atno 10167 bound_to 10162
  156.1437  130.4153  150.0059 H   0  0  0  0  0  0  0  0  0  0  0  0  # atno 10718 bound_to 10713
  154.8716  135.4080  154.3030 H   0  0  0  0  0  0  0  0  0  0  0  0  # atno 10763 bound_to 10752
  153.3886  135.7014  153.6517 H   0  0  0  0  0  0  0  0  0  0  0  0  # atno 10764 bound_to 10752
  153.5309  135.3668  155.2646 H   0  0  0  0  0  0  0  0  0  0  0  0  # atno 10765 bound_to 10752
  140.2615  134.7898  157.3594 H   0  0  0  0  0  0  0  0  0  0  0  0  # atno 11005 bound_to 11000
  144.6748  140.0520  143.7478 LP  0  0  0  0  0  0  0  0  0  0  0  0  # atno 17320 bound_to 7965
  145.9684  139.2852  143.1113 LP  0  0  0  0  0  0  0  0  0  0  0  0  # atno 17321 bound_to 7965
  139.7723  144.7472  151.0207 LP  0  0  0  0  0  0  0  0  0  0  0  0  # atno 17342 bound_to 10162
  140.7811  143.4631  151.0249 LP  0  0  0  0  0  0  0  0  0  0  0  0  # atno 17343 bound_to 10162
  156.7937  130.9265  151.3646 LP  0  0  0  0  0  0  0  0  0  0  0  0  # atno 17370 bound_to 10713
  157.6598  130.8956  149.9806 LP  0  0  0  0  0  0  0  0  0  0  0  0  # atno 17371 bound_to 10713
  140.1460  134.4911  155.7996 LP  0  0  0  0  0  0  0  0  0  0  0  0  # atno 17394 bound_to 11000
  141.2189  133.6843  156.7294 LP  0  0  0  0  0  0  0  0  0  0  0  0  # atno 17395 bound_to 11000

$$$$
