AV-unprocessed.smi:1511|AV-procd|sdf|6098|dock2
  -GOLD-   22720 6223D 1   1.00000     0.00000
 Structure written by MMmdl.
 32 33  0  0  0  0  0  0  0  0  1 V2000
  149.5903  142.1265  158.6952 O   0  0  0  0  0  0  0  0  0  0  0  0
  150.4321  142.6035  157.9349 C   0  0  0  0  0  0  0  0  0  0  0  0
  151.4258  143.6475  158.4493 C   0  0  0  0  0  0  0  0  0  0  0  0
  152.3330  143.0744  159.4299 N   0  0  0  0  0  0  0  0  0  0  0  0
  153.3707  142.1892  159.2231 C   0  0  0  0  0  0  0  0  0  0  0  0
  153.9244  141.9192  160.4417 C   0  0  0  0  0  0  0  0  0  0  0  0
  153.1493  142.6984  161.3453 C   0  0  0  0  0  0  0  0  0  0  0  0
  152.1988  143.3893  160.7372 N   0  0  0  0  0  0  0  0  0  0  0  0
  150.5503  142.2464  156.6464 N   0  0  0  0  0  0  0  0  0  0  0  0
  149.7938  141.1822  155.9978 C   0  0  0  0  0  0  0  0  0  0  0  0
  150.6986  140.2687  155.1457 C   0  0  2  0  0  0  0  0  0  0  0  0
  149.9502  139.0759  154.5124 C   0  0  0  0  0  0  0  0  0  0  0  0
  150.9835  138.1006  153.9426 C   0  0  0  0  0  0  0  0  0  0  0  0
  152.4129  138.1785  155.0836 S   0  0  0  0  0  0  0  0  0  0  0  0
  152.3444  137.0552  156.0303 O   0  0  0  0  0  0  0  0  0  0  0  0
  153.6339  138.4408  154.3068 O   0  0  0  0  0  0  0  0  0  0  0  0
  151.8879  139.7107  155.9435 C   0  0  0  0  0  0  0  0  0  0  0  0
  152.0061  144.0451  157.6158 H   0  0  0  0  0  0  0  0  0  0  0  0
  150.8939  144.4858  158.9021 H   0  0  0  0  0  0  0  0  0  0  0  0
  153.6229  141.8257  158.2378 H   0  0  0  0  0  0  0  0  0  0  0  0
  154.7562  141.2646  160.6552 H   0  0  0  0  0  0  0  0  0  0  0  0
  153.2476  142.7810  162.4175 H   0  0  0  0  0  0  0  0  0  0  0  0
  151.2617  142.7013  156.0929 H   0  0  0  0  0  0  0  0  0  0  0  0
  149.2591  140.5962  156.7471 H   0  0  0  0  0  0  0  0  0  0  0  0
  149.0338  141.6471  155.3691 H   0  0  0  0  0  0  0  0  0  0  0  0
  151.1135  140.8569  154.3258 H   0  0  0  0  0  0  0  0  0  0  0  0
  149.3692  138.5670  155.2824 H   0  0  0  0  0  0  0  0  0  0  0  0
  149.2475  139.3963  153.7421 H   0  0  0  0  0  0  0  0  0  0  0  0
  150.6138  137.0781  153.8656 H   0  0  0  0  0  0  0  0  0  0  0  0
  151.3194  138.4276  152.9583 H   0  0  0  0  0  0  0  0  0  0  0  0
  152.7211  140.4109  156.0045 H   0  0  0  0  0  0  0  0  0  0  0  0
  151.5915  139.4371  156.9563 H   0  0  0  0  0  0  0  0  0  0  0  0
  1  2  2  0  0  0  0
  2  3  1  0  0  0  0
  2  9  1  0  0  0  0
  3  4  1  0  0  0  0
  3 18  1  0  0  0  0
  3 19  1  0  0  0  0
  4  8  1  0  0  0  0
  4  5  1  0  0  0  0
  5  6  2  0  0  0  0
  5 20  1  0  0  0  0
  6  7  1  0  0  0  0
  6 21  1  0  0  0  0
  7  8  2  0  0  0  0
  7 22  1  0  0  0  0
  9 10  1  0  0  0  0
  9 23  1  0  0  0  0
 10 11  1  0  0  0  0
 10 24  1  0  0  0  0
 10 25  1  0  0  0  0
 11 17  1  0  0  0  0
 11 12  1  0  0  0  0
 11 26  1  0  0  0  0
 12 13  1  0  0  0  0
 12 27  1  0  0  0  0
 12 28  1  0  0  0  0
 13 14  1  0  0  0  0
 13 29  1  0  0  0  0
 13 30  1  0  0  0  0
 14 15  2  0  0  0  0
 14 16  2  0  0  0  0
 14 17  1  0  0  0  0
 17 31  1  0  0  0  0
 17 32  1  0  0  0  0
M  END
> <s_m_source_file>
AV-unprocessed.smi

> <i_m_source_file_index>
1511

> <i_lp_mmshare_version>
43012

> <i_f3d_flags>
0

> <s_epik_input>
bjFbY0hdW2NIXVtjSF1uMVtDSDJdQyg9TylbTkhdW0NIMl1bQ0BASF0oW0NIMl0yKVtDSDJdW0NIMl1TMig9Tyk9Tw==

> <s_epik_cmdline>
J2VwaWtfcHl0aG9uJywgJy1waCcsICc3LjAnLCAnLXRuJywgJzgnLCAnLW1hJywgJzIwMCcsICctbWV0YWxfYmluZGluZycsICctaW1hZScsICc8aW5maWxlLm1hZT4nLCAnLW9tYWUnLCAnPG91dGZpbGUubWFlPic=

> <r_lp_tautomer_probability>
1

> <r_epik_Ionization_Penalty>
1.34373e-05

> <r_epik_Ionization_Penalty_Charging>
0

> <r_epik_Ionization_Penalty_Neutral>
1.34373e-05

> <r_epik_State_Penalty>
-0

> <r_epik_Charging_Adjusted_Penalty>
0

> <i_epik_Tot_Q>
0

> <i_epik_Tot_abs_Q>
0

> <r_epik_Metal_State_Penalty>
-0

> <b_epik_Metal_Only>
0

> <s_lp_Force_Field>
OPLS_2005

> <r_lp_Energy>
3.80917

> <b_lp_Chiralities_Consistent>
1

> <s_lp_Variant>
AV-unprocessed.smi:1511-1

> <Gold.Version>
5.8.1

> <Gold.Id.Protein>
6NUR|6NUR_protein|mol2

> <Gold.PLP.Fitness>
43.9568

> <Gold.PLP.PLP>
-40.1022

> <Gold.PLP.part.hbond>
-3.3456

> <Gold.PLP.part.metal>
0.0000

> <Gold.PLP.part.buried>
-4.0942

> <Gold.PLP.part.nonpolar>
-33.2096

> <Gold.PLP.part.repulsive>
0.2477

> <Gold.PLP.ligand.clash>
0.0000

> <Gold.PLP.ligand.torsion>
0.2751

> <Gold.PLP.Chemscore.Hbond>
1.4638

> <Gold.PLP.Chemscore.CHOScore>
0.0000

> <Gold.PLP.Chemscore.Metal>
0.0000

> <Gold.Chemscore.Hbonds>
donor molecule, donor type, donor heavy atom, donor atom, acceptor molecule, acceptor atom, score
      P1  H 10752 10765       L1    15  0.93

> <Gold.PLP.Chemscore.Internal.Correction>
0.0135

> <Gold.Rescore>
     Score         DG    S(hbond)    S(metal)    S(lipo)     H(rot)  DE(clash)    DE(int)     intcor
     13.01     -13.65       1.20        0.00      75.43       1.82       0.31       0.33       ----

> <Gold.Chemscore.Fitness>
13.0069

> <Gold.Chemscore.DG>
-13.6474

> <Gold.Chemscore.ZeroCoef>
-5.4800

> <Gold.Chemscore.Hbond>
1.1963

> <Gold.Chemscore.Metal>
0.0000

> <Gold.Chemscore.Lipo>
75.4305

> <Gold.Chemscore.Internal_Hbond>
0.0000

> <Gold.Chemscore.DEClash>
0.3134

> <Gold.Chemscore.DEInternal>
0.3271

> <Gold.Chemscore.Rot>
1.8178

> <Gold.Chemscore.Internal.Correction>
   9.000000E+99

> <Gold.Chemscore.Hbonds>
donor molecule, donor type, donor heavy atom, donor atom, acceptor molecule, acceptor atom, score
      P1  H  7997  8008       L1    16  0.01
      P1  H 10752 10765       L1    15  0.38

> <Gold.Chemscore.Hbond.Weighted>
-3.9957

> <Gold.Chemscore.Metal.Weighted>
-0.0000

> <Gold.Chemscore.Lipo.Weighted>
-8.8254

> <Gold.Chemscore.Internal_Hbond.Weighted>
0.0000

> <Gold.Chemscore.DEClash.Weighted>
0.3134

> <Gold.Chemscore.DEInternal.Weighted>
0.3271

> <Gold.Chemscore.Rot.Weighted>
4.6537

> <Gold.Chemscore.Internal.Correction.Weighted>
   9.000000E+99

> <Gold.Protein.RotatedTorsions>
[ 6907 6896 6895 6894 ] final   -5.86 input  -60.11 | X-H torsion
[ 7974 7965 7964 7962 ] final  -57.31 input  175.53 | X-H torsion
[ 8008 7997 7996 7995 ] final   -4.97 input   59.86 | X-H torsion
[ 10167 10162 10161 10158 ] final -112.82 input  -65.29 | X-H torsion
[ 10718 10713 10712 10709 ] final  166.04 input   66.30 | X-H torsion
[ 10763 10752 10751 10750 ] final -150.94 input  -60.55 | X-H torsion
[ 11005 11000 10999 10996 ] final  115.07 input  -57.11 | X-H torsion

> <Gold.Protein.ActiveResidues>
 VAL166  LYS551  ARG553  GLY616  TRP617  ASP618  TYR619  PRO620  LYS621  CYS622 
 ASP623  PHE694  ASN695  SER759  ASP760  ASP761  ALA762  ILE779  LEU786  VAL792 
 PHE793  MET794  SER795  GLU796  ALA797  LYS798  CYS799  TRP800  GLU811  SER814 

> <Gold.Protein.RotatedAtoms>
  151.4748  135.1048  159.9761 H   0  0  0  0  0  0  0  0  0  0  0  0  # atno 6907 bound_to 6896
  152.4802  133.8232  159.7075 H   0  0  0  0  0  0  0  0  0  0  0  0  # atno 6908 bound_to 6896
  150.8869  133.7235  159.2942 H   0  0  0  0  0  0  0  0  0  0  0  0  # atno 6909 bound_to 6896
  145.8526  140.8342  142.9978 H   0  0  0  0  0  0  0  0  0  0  0  0  # atno 7974 bound_to 7965
  154.6087  140.2470  155.7696 H   0  0  0  0  0  0  0  0  0  0  0  0  # atno 8008 bound_to 7997
  156.2357  140.2951  156.0258 H   0  0  0  0  0  0  0  0  0  0  0  0  # atno 8009 bound_to 7997
  155.2088  140.0396  157.2920 H   0  0  0  0  0  0  0  0  0  0  0  0  # atno 8010 bound_to 7997
  140.1186  143.4463  152.1706 H   0  0  0  0  0  0  0  0  0  0  0  0  # atno 10167 bound_to 10162
  157.0716  131.0368  151.2609 H   0  0  0  0  0  0  0  0  0  0  0  0  # atno 10718 bound_to 10713
  154.8088  135.3272  154.7360 H   0  0  0  0  0  0  0  0  0  0  0  0  # atno 10763 bound_to 10752
  153.8013  135.6903  153.4859 H   0  0  0  0  0  0  0  0  0  0  0  0  # atno 10764 bound_to 10752
  153.1852  135.4571  155.0025 H   0  0  0  0  0  0  0  0  0  0  0  0  # atno 10765 bound_to 10752
  139.8999  134.9578  156.6989 H   0  0  0  0  0  0  0  0  0  0  0  0  # atno 11005 bound_to 11000
  144.6728  140.0975  143.7462 LP  0  0  0  0  0  0  0  0  0  0  0  0  # atno 17320 bound_to 7965
  145.9340  139.2625  143.1308 LP  0  0  0  0  0  0  0  0  0  0  0  0  # atno 17321 bound_to 7965
  139.5581  144.7387  151.4236 LP  0  0  0  0  0  0  0  0  0  0  0  0  # atno 17342 bound_to 10162
  140.6885  143.7917  150.7221 LP  0  0  0  0  0  0  0  0  0  0  0  0  # atno 17343 bound_to 10162
  157.4873  130.7801  149.7473 LP  0  0  0  0  0  0  0  0  0  0  0  0  # atno 17370 bound_to 10713
  155.9949  130.3915  150.2841 LP  0  0  0  0  0  0  0  0  0  0  0  0  # atno 17371 bound_to 10713
  140.7166  133.9177  155.8119 LP  0  0  0  0  0  0  0  0  0  0  0  0  # atno 17394 bound_to 11000
  141.0259  134.0823  157.4068 LP  0  0  0  0  0  0  0  0  0  0  0  0  # atno 17395 bound_to 11000

$$$$
