AV-unprocessed.smi:2477|AV-procd|sdf|9761|dock4
  -GOLD-   2272013403D 1   1.00000     0.00000
 Structure written by MMmdl.
 51 53  0  0  0  0  0  0  0  0  1 V2000
  146.0928  130.7828  151.8699 C   0  0  0  0  0  0  0  0  0  0  0  0
  145.6398  132.1098  151.4446 N   0  0  0  0  0  0  0  0  0  0  0  0
  144.5512  132.1717  150.5588 C   0  0  0  0  0  0  0  0  0  0  0  0
  144.0706  133.3420  150.1168 C   0  0  0  0  0  0  0  0  0  0  0  0
  144.6990  134.5588  150.5722 C   0  0  0  0  0  0  0  0  0  0  0  0
  145.7526  134.5228  151.4274 C   0  0  0  0  0  0  0  0  0  0  0  0
  146.4298  135.6508  151.9255 N   0  0  0  0  0  0  0  0  0  0  0  0
  145.9588  136.7208  152.5919 C   0  0  0  0  0  0  0  0  0  0  0  0
  144.7862  136.9254  152.9031 O   0  0  0  0  0  0  0  0  0  0  0  0
  146.9556  137.5619  152.8997 N   0  0  0  0  0  0  0  0  0  0  0  0
  146.8112  138.8070  153.6490 C   0  0  2  0  0  0  0  0  0  0  0  0
  147.0910  140.0083  152.7260 C   0  0  0  0  0  0  0  0  0  0  0  0
  146.9635  141.3387  153.4840 C   0  0  0  0  0  0  0  0  0  0  0  0
  147.8846  141.3685  154.7129 C   0  0  0  0  0  0  0  0  0  0  0  0
  147.6174  140.1715  155.6407 C   0  0  0  0  0  0  0  0  0  0  0  0
  147.7277  138.8277  154.8965 C   0  0  2  0  0  0  0  0  0  0  0  0
  149.0856  138.6569  154.4996 O   0  0  0  0  0  0  0  0  0  0  0  0
  149.9575  138.1666  155.5115 C   0  0  0  0  0  0  0  0  0  0  0  0
  150.4027  139.3006  156.4405 C   0  0  0  0  0  0  0  0  0  0  0  0
  151.4973  140.0407  155.6649 C   0  0  0  0  0  0  0  0  0  0  0  0
  152.0725  139.0275  154.6628 C   0  0  0  0  0  0  0  0  0  0  0  0
  151.2612  137.7378  154.8389 C   0  0  0  0  0  0  0  0  0  0  0  0
  146.2745  133.2277  151.9074 C   0  0  0  0  0  0  0  0  0  0  0  0
  147.2298  133.1421  152.6833 O   0  0  0  0  0  0  0  0  0  0  0  0
  145.4856  129.9770  151.4562 H   0  0  0  0  0  0  0  0  0  0  0  0
  146.0530  130.6930  152.9566 H   0  0  0  0  0  0  0  0  0  0  0  0
  147.1220  130.6107  151.5517 H   0  0  0  0  0  0  0  0  0  0  0  0
  144.1358  131.2190  150.2638 H   0  0  0  0  0  0  0  0  0  0  0  0
  143.2333  133.3743  149.4356 H   0  0  0  0  0  0  0  0  0  0  0  0
  144.2912  135.4828  150.1989 H   0  0  0  0  0  0  0  0  0  0  0  0
  147.4255  135.6402  151.7579 H   0  0  0  0  0  0  0  0  0  0  0  0
  147.8909  137.3154  152.6109 H   0  0  0  0  0  0  0  0  0  0  0  0
  145.7748  138.8851  153.9838 H   0  0  0  0  0  0  0  0  0  0  0  0
  148.0930  139.9271  152.3023 H   0  0  0  0  0  0  0  0  0  0  0  0
  146.3988  140.0007  151.8833 H   0  0  0  0  0  0  0  0  0  0  0  0
  147.2030  142.1694  152.8197 H   0  0  0  0  0  0  0  0  0  0  0  0
  145.9290  141.4825  153.7987 H   0  0  0  0  0  0  0  0  0  0  0  0
  148.9263  141.3567  154.3895 H   0  0  0  0  0  0  0  0  0  0  0  0
  147.7435  142.3008  155.2604 H   0  0  0  0  0  0  0  0  0  0  0  0
  148.3114  140.1911  156.4815 H   0  0  0  0  0  0  0  0  0  0  0  0
  146.6179  140.2644  156.0673 H   0  0  0  0  0  0  0  0  0  0  0  0
  147.4197  138.0377  155.5841 H   0  0  0  0  0  0  0  0  0  0  0  0
  149.5027  137.3349  156.0514 H   0  0  0  0  0  0  0  0  0  0  0  0
  149.5892  139.9574  156.7481 H   0  0  0  0  0  0  0  0  0  0  0  0
  150.8319  138.8717  157.3469 H   0  0  0  0  0  0  0  0  0  0  0  0
  151.0630  140.8831  155.1249 H   0  0  0  0  0  0  0  0  0  0  0  0
  152.2623  140.4396  156.3318 H   0  0  0  0  0  0  0  0  0  0  0  0
  151.9592  139.4090  153.6473 H   0  0  0  0  0  0  0  0  0  0  0  0
  153.1356  138.8502  154.8283 H   0  0  0  0  0  0  0  0  0  0  0  0
  151.8018  137.0614  155.5024 H   0  0  0  0  0  0  0  0  0  0  0  0
  151.0972  137.2102  153.8986 H   0  0  0  0  0  0  0  0  0  0  0  0
  1  2  1  0  0  0  0
  1 25  1  0  0  0  0
  1 26  1  0  0  0  0
  1 27  1  0  0  0  0
  2 23  1  0  0  0  0
  2  3  1  0  0  0  0
  3  4  2  0  0  0  0
  3 28  1  0  0  0  0
  4  5  1  0  0  0  0
  4 29  1  0  0  0  0
  5  6  2  0  0  0  0
  5 30  1  0  0  0  0
  6  7  1  0  0  0  0
  6 23  1  0  0  0  0
  7  8  1  0  0  0  0
  7 31  1  0  0  0  0
  8  9  2  0  0  0  0
  8 10  1  0  0  0  0
 10 11  1  0  0  0  0
 10 32  1  0  0  0  0
 11 16  1  0  0  0  0
 11 12  1  0  0  0  0
 11 33  1  0  0  0  0
 12 13  1  0  0  0  0
 12 34  1  0  0  0  0
 12 35  1  0  0  0  0
 13 14  1  0  0  0  0
 13 36  1  0  0  0  0
 13 37  1  0  0  0  0
 14 15  1  0  0  0  0
 14 38  1  0  0  0  0
 14 39  1  0  0  0  0
 15 16  1  0  0  0  0
 15 40  1  0  0  0  0
 15 41  1  0  0  0  0
 16 17  1  0  0  0  0
 16 42  1  0  0  0  0
 17 18  1  0  0  0  0
 18 22  1  0  0  0  0
 18 19  1  0  0  0  0
 18 43  1  0  0  0  0
 19 20  1  0  0  0  0
 19 44  1  0  0  0  0
 19 45  1  0  0  0  0
 20 21  1  0  0  0  0
 20 46  1  0  0  0  0
 20 47  1  0  0  0  0
 21 22  1  0  0  0  0
 21 48  1  0  0  0  0
 21 49  1  0  0  0  0
 22 50  1  0  0  0  0
 22 51  1  0  0  0  0
 23 24  2  0  0  0  0
M  END
> <s_m_source_file>
AV-unprocessed.smi

> <i_m_source_file_index>
2477

> <i_lp_mmshare_version>
43012

> <i_f3d_flags>
0

> <s_epik_input>
W0NIM11uMVtjSF1bY0hdW2NIXWMoYzE9TylbTkhdQyg9TylbTkhdW0NAQEhdMltDSDJdW0NIMl1bQ0gyXVtDSDJdW0NASF0yT1tDSF0zW0NIMl1bQ0gyXVtDSDJdW0NIMl0z

> <s_epik_cmdline>
J2VwaWtfcHl0aG9uJywgJy1waCcsICc3LjAnLCAnLXRuJywgJzgnLCAnLW1hJywgJzIwMCcsICctbWV0YWxfYmluZGluZycsICctaW1hZScsICc8aW5maWxlLm1hZT4nLCAnLW9tYWUnLCAnPG91dGZpbGUubWFlPic=

> <r_lp_tautomer_probability>
1

> <r_epik_Ionization_Penalty>
2.40753e-05

> <r_epik_Ionization_Penalty_Charging>
4.84018e-06

> <r_epik_Ionization_Penalty_Neutral>
1.92352e-05

> <r_epik_State_Penalty>
-0

> <r_epik_Charging_Adjusted_Penalty>
4.84018e-06

> <i_epik_Tot_Q>
0

> <i_epik_Tot_abs_Q>
0

> <r_epik_Metal_State_Penalty>
-0

> <b_epik_Metal_Only>
0

> <s_lp_Force_Field>
OPLS_2005

> <r_lp_Energy>
42.349

> <b_lp_Chiralities_Consistent>
1

> <s_lp_Variant>
AV-unprocessed.smi:2477-3

> <Gold.Version>
5.8.1

> <Gold.Id.Protein>
6NUR|6NUR_protein|mol2

> <Gold.PLP.Fitness>
43.3176

> <Gold.PLP.PLP>
-39.1124

> <Gold.PLP.part.hbond>
-2.0000

> <Gold.PLP.part.metal>
0.0000

> <Gold.PLP.part.buried>
-3.4956

> <Gold.PLP.part.nonpolar>
-33.1776

> <Gold.PLP.part.repulsive>
0.5800

> <Gold.PLP.ligand.clash>
0.0000

> <Gold.PLP.ligand.torsion>
0.9143

> <Gold.PLP.Chemscore.Hbond>
2.0000

> <Gold.PLP.Chemscore.CHOScore>
0.0000

> <Gold.PLP.Chemscore.Metal>
0.0000

> <Gold.Chemscore.Hbonds>
donor molecule, donor type, donor heavy atom, donor atom, acceptor molecule, acceptor atom, score
      L1  H     7    31       P1  7948  1.00
      L1  H    10    32       P1  7948  1.00

> <Gold.PLP.Chemscore.Internal.Correction>
0.0337

> <Gold.Rescore>
     Score         DG    S(hbond)    S(metal)    S(lipo)     H(rot)  DE(clash)    DE(int)     intcor
     18.38     -19.40       1.95        0.00      92.92       1.36       0.04       0.98       ----

> <Gold.Chemscore.Fitness>
18.3803

> <Gold.Chemscore.DG>
-19.4009

> <Gold.Chemscore.ZeroCoef>
-5.4800

> <Gold.Chemscore.Hbond>
1.9525

> <Gold.Chemscore.Metal>
0.0000

> <Gold.Chemscore.Lipo>
92.9227

> <Gold.Chemscore.Internal_Hbond>
0.0000

> <Gold.Chemscore.DEClash>
0.0444

> <Gold.Chemscore.DEInternal>
0.9762

> <Gold.Chemscore.Rot>
1.3564

> <Gold.Chemscore.Internal.Correction>
   9.000000E+99

> <Gold.Chemscore.Hbonds>
donor molecule, donor type, donor heavy atom, donor atom, acceptor molecule, acceptor atom, score
      L1  H     7    31       P1  7948  0.97
      L1  H    10    32       P1  7948  0.94

> <Gold.Chemscore.Hbond.Weighted>
-6.5213

> <Gold.Chemscore.Metal.Weighted>
-0.0000

> <Gold.Chemscore.Lipo.Weighted>
-10.8720

> <Gold.Chemscore.Internal_Hbond.Weighted>
0.0000

> <Gold.Chemscore.DEClash.Weighted>
0.0444

> <Gold.Chemscore.DEInternal.Weighted>
0.9762

> <Gold.Chemscore.Rot.Weighted>
3.4724

> <Gold.Chemscore.Internal.Correction.Weighted>
   9.000000E+99

> <Gold.Protein.RotatedTorsions>
[ 6907 6896 6895 6894 ] final  120.23 input  -60.11 | X-H torsion
[ 7974 7965 7964 7962 ] final  162.85 input  175.53 | X-H torsion
[ 8008 7997 7996 7995 ] final -159.78 input   59.86 | X-H torsion
[ 10167 10162 10161 10158 ] final -118.35 input  -65.29 | X-H torsion
[ 10718 10713 10712 10709 ] final  113.97 input   66.30 | X-H torsion
[ 10763 10752 10751 10750 ] final   86.65 input  -60.55 | X-H torsion
[ 11005 11000 10999 10996 ] final -151.62 input  -57.11 | X-H torsion

> <Gold.Protein.ActiveResidues>
 VAL166  LYS551  ARG553  GLY616  TRP617  ASP618  TYR619  PRO620  LYS621  CYS622 
 ASP623  PHE694  ASN695  SER759  ASP760  ASP761  ALA762  ILE779  LEU786  VAL792 
 PHE793  MET794  SER795  GLU796  ALA797  LYS798  CYS799  TRP800  GLU811  SER814 

> <Gold.Protein.RotatedAtoms>
  152.4413  133.7454  159.6663 H   0  0  0  0  0  0  0  0  0  0  0  0  # atno 6907 bound_to 6896
  150.8305  133.8089  159.3107 H   0  0  0  0  0  0  0  0  0  0  0  0  # atno 6908 bound_to 6896
  151.5745  135.1063  160.0054 H   0  0  0  0  0  0  0  0  0  0  0  0  # atno 6909 bound_to 6896
  144.7617  139.8098  143.6330 H   0  0  0  0  0  0  0  0  0  0  0  0  # atno 7974 bound_to 7965
  155.7676  140.0847  157.2124 H   0  0  0  0  0  0  0  0  0  0  0  0  # atno 8008 bound_to 7997
  154.3998  140.1531  156.2961 H   0  0  0  0  0  0  0  0  0  0  0  0  # atno 8009 bound_to 7997
  155.8778  140.3422  155.5869 H   0  0  0  0  0  0  0  0  0  0  0  0  # atno 8010 bound_to 7997
  140.0584  143.4992  152.2045 H   0  0  0  0  0  0  0  0  0  0  0  0  # atno 10167 bound_to 10162
  157.6308  131.0992  150.7119 H   0  0  0  0  0  0  0  0  0  0  0  0  # atno 10718 bound_to 10713
  153.1591  135.4572  154.9747 H   0  0  0  0  0  0  0  0  0  0  0  0  # atno 10763 bound_to 10752
  154.7884  135.3212  154.7836 H   0  0  0  0  0  0  0  0  0  0  0  0  # atno 10764 bound_to 10752
  153.8329  135.6937  153.4867 H   0  0  0  0  0  0  0  0  0  0  0  0  # atno 10765 bound_to 10752
  140.7277  134.3657  157.5172 H   0  0  0  0  0  0  0  0  0  0  0  0  # atno 11005 bound_to 11000
  146.1687  139.4828  142.9942 LP  0  0  0  0  0  0  0  0  0  0  0  0  # atno 17320 bound_to 7965
  145.6598  141.0243  143.1715 LP  0  0  0  0  0  0  0  0  0  0  0  0  # atno 17321 bound_to 7965
  139.5909  144.7549  151.3403 LP  0  0  0  0  0  0  0  0  0  0  0  0  # atno 17342 bound_to 10162
  140.7184  143.7204  150.7700 LP  0  0  0  0  0  0  0  0  0  0  0  0  # atno 17343 bound_to 10162
  156.7458  130.4753  149.5467 LP  0  0  0  0  0  0  0  0  0  0  0  0  # atno 17370 bound_to 10713
  156.1510  130.6310  151.0595 LP  0  0  0  0  0  0  0  0  0  0  0  0  # atno 17371 bound_to 10713
  139.8833  134.8997  156.2773 LP  0  0  0  0  0  0  0  0  0  0  0  0  # atno 17394 bound_to 11000
  140.9949  133.7186  156.0870 LP  0  0  0  0  0  0  0  0  0  0  0  0  # atno 17395 bound_to 11000

$$$$
