AV-unprocessed.smi:925|AV-procd|sdf|4182|dock3
  -GOLD-   22720 2 83D 1   1.00000     0.00000
 Structure written by MMmdl.
 28 29  0  0  0  0  0  0  0  0  2 V2000
  150.6735  140.1184  158.1498 O   0  0  0  0  0  0  0  0  0  0  0  0
  151.8736  140.2813  157.9174 C   0  0  0  0  0  0  0  0  0  0  0  0
  152.6865  139.4204  157.2633 N   0  5  0  0  0  0  0  0  0  0  0  0
  152.2330  138.7538  156.1888 C   0  0  0  0  0  0  0  0  0  0  0  0
  152.6562  137.5177  155.8790 N   0  0  0  0  0  0  0  0  0  0  0  0
  152.0614  137.0082  154.7326 N   0  0  0  0  0  0  0  0  0  0  0  0
  151.1940  137.8745  154.2095 C   0  0  0  0  0  0  0  0  0  0  0  0
  151.0221  139.3889  155.0715 S   0  0  0  0  0  0  0  0  0  0  0  0
  152.4900  141.3997  158.3271 N   0  0  0  0  0  0  0  0  0  0  0  0
  151.8744  142.5050  159.0573 C   0  0  0  0  0  0  0  0  0  0  0  0
  151.8809  143.7918  158.2056 C   0  0  0  0  0  0  0  0  0  0  0  0
  151.3102  144.9868  158.9864 C   0  0  0  0  0  0  0  0  0  0  0  0
  152.0605  145.1985  160.3108 C   0  0  0  0  0  0  0  0  0  0  0  0
  152.0498  143.9204  161.1641 C   0  0  0  0  0  0  0  0  0  0  0  0
  152.6237  142.7257  160.3851 C   0  0  0  0  0  0  0  0  0  0  0  0
  150.6497  137.6189  153.3129 H   0  0  0  0  0  0  0  0  0  0  0  0
  153.4725  141.4884  158.1129 H   0  0  0  0  0  0  0  0  0  0  0  0
  150.8413  142.2426  159.2939 H   0  0  0  0  0  0  0  0  0  0  0  0
  152.8999  144.0197  157.8896 H   0  0  0  0  0  0  0  0  0  0  0  0
  151.3018  143.6436  157.2933 H   0  0  0  0  0  0  0  0  0  0  0  0
  151.3674  145.8895  158.3776 H   0  0  0  0  0  0  0  0  0  0  0  0
  150.2520  144.8170  159.1890 H   0  0  0  0  0  0  0  0  0  0  0  0
  153.0906  145.4918  160.1045 H   0  0  0  0  0  0  0  0  0  0  0  0
  151.6096  146.0211  160.8667 H   0  0  0  0  0  0  0  0  0  0  0  0
  152.6236  144.0784  162.0776 H   0  0  0  0  0  0  0  0  0  0  0  0
  151.0286  143.6968  161.4748 H   0  0  0  0  0  0  0  0  0  0  0  0
  152.5672  141.8262  160.9996 H   0  0  0  0  0  0  0  0  0  0  0  0
  153.6828  142.8991  160.1880 H   0  0  0  0  0  0  0  0  0  0  0  0
  1  2  2  0  0  0  0
  2  3  1  0  0  0  0
  2  9  1  0  0  0  0
  3  4  1  0  0  0  0
  4  8  1  0  0  0  0
  4  5  2  0  0  0  0
  5  6  1  0  0  0  0
  6  7  2  0  0  0  0
  7  8  1  0  0  0  0
  7 16  1  0  0  0  0
  9 10  1  0  0  0  0
  9 17  1  0  0  0  0
 10 15  1  0  0  0  0
 10 11  1  0  0  0  0
 10 18  1  0  0  0  0
 11 12  1  0  0  0  0
 11 19  1  0  0  0  0
 11 20  1  0  0  0  0
 12 13  1  0  0  0  0
 12 21  1  0  0  0  0
 12 22  1  0  0  0  0
 13 14  1  0  0  0  0
 13 23  1  0  0  0  0
 13 24  1  0  0  0  0
 14 15  1  0  0  0  0
 14 25  1  0  0  0  0
 14 26  1  0  0  0  0
 15 27  1  0  0  0  0
 15 28  1  0  0  0  0
M  CHG  1   3  -1
M  END
> <s_m_source_file>
AV-unprocessed.smi

> <i_m_source_file_index>
925

> <i_lp_mmshare_version>
43012

> <i_f3d_flags>
0

> <s_epik_input>
czFbY0hdbm5jMVtOSF1DKD1PKVtOSF1bQ0hdMltDSDJdW0NIMl1bQ0gyXVtDSDJdW0NIMl0y

> <s_epik_cmdline>
J2VwaWtfcHl0aG9uJywgJy1waCcsICc3LjAnLCAnLXRuJywgJzgnLCAnLW1hJywgJzIwMCcsICctbWV0YWxfYmluZGluZycsICctaW1hZScsICc8aW5maWxlLm1hZT4nLCAnLW9tYWUnLCAnPG91dGZpbGUubWFlPic=

> <r_lp_tautomer_probability>
1

> <r_epik_Ionization_Penalty>
4.54636

> <r_epik_Ionization_Penalty_Charging>
4.4996

> <r_epik_Ionization_Penalty_Neutral>
0.0467566

> <r_epik_State_Penalty>
4.4993

> <r_epik_Charging_Adjusted_Penalty>
8.99891

> <i_epik_Tot_Q>
-1

> <i_epik_Tot_abs_Q>
1

> <r_epik_Metal_State_Penalty>
0.819079

> <b_epik_Metal_Only>
1

> <s_lp_Force_Field>
OPLS_2005

> <r_lp_Energy>
6.60766

> <b_lp_Chiralities_Consistent>
1

> <s_lp_Variant>
AV-unprocessed.smi:925-2

> <Gold.Version>
5.8.1

> <Gold.Id.Protein>
6NUR|6NUR_protein|mol2

> <Gold.PLP.Fitness>
46.4812

> <Gold.PLP.PLP>
-35.1053

> <Gold.PLP.part.hbond>
-3.0000

> <Gold.PLP.part.metal>
0.0000

> <Gold.PLP.part.buried>
-3.5486

> <Gold.PLP.part.nonpolar>
-29.1079

> <Gold.PLP.part.repulsive>
0.2208

> <Gold.PLP.ligand.clash>
0.0000

> <Gold.PLP.ligand.torsion>
0.5239

> <Gold.PLP.Chemscore.Hbond>
2.9920

> <Gold.PLP.Chemscore.CHOScore>
1.1456

> <Gold.PLP.Chemscore.Metal>
0.0000

> <Gold.Chemscore.Hbonds>
donor molecule, donor type, donor heavy atom, donor atom, acceptor molecule, acceptor atom, score
      P1  H  7997  8010       L1     3  2.00
      P1  H 10752 10765       L1     6  0.96
      L1  C     7    16       P1  7948  0.46
      L1  C     7    16       P1  7949  0.68

> <Gold.PLP.Chemscore.Internal.Correction>
0.0109

> <Gold.Rescore>
     Score         DG    S(hbond)    S(metal)    S(lipo)     H(rot)  DE(clash)    DE(int)     intcor
     17.28     -17.83       1.51        0.00      84.38       1.00       0.01       0.54       ----

> <Gold.Chemscore.Fitness>
17.2842

> <Gold.Chemscore.DG>
-17.8302

> <Gold.Chemscore.ZeroCoef>
-5.4800

> <Gold.Chemscore.Hbond>
1.5082

> <Gold.Chemscore.Metal>
0.0000

> <Gold.Chemscore.Lipo>
84.3825

> <Gold.Chemscore.Internal_Hbond>
0.0000

> <Gold.Chemscore.DEClash>
0.0089

> <Gold.Chemscore.DEInternal>
0.5372

> <Gold.Chemscore.Rot>
1.0000

> <Gold.Chemscore.Internal.Correction>
   9.000000E+99

> <Gold.Chemscore.Hbonds>
donor molecule, donor type, donor heavy atom, donor atom, acceptor molecule, acceptor atom, score
      P1  H  7997  8010       L1     3  0.52
      P1  H 10752 10765       L1     6  0.41

> <Gold.Chemscore.Hbond.Weighted>
-5.0375

> <Gold.Chemscore.Metal.Weighted>
-0.0000

> <Gold.Chemscore.Lipo.Weighted>
-9.8728

> <Gold.Chemscore.Internal_Hbond.Weighted>
0.0000

> <Gold.Chemscore.DEClash.Weighted>
0.0089

> <Gold.Chemscore.DEInternal.Weighted>
0.5372

> <Gold.Chemscore.Rot.Weighted>
2.5600

> <Gold.Chemscore.Internal.Correction.Weighted>
   9.000000E+99

> <Gold.Protein.RotatedTorsions>
[ 6907 6896 6895 6894 ] final  -43.47 input  -60.11 | X-H torsion
[ 7974 7965 7964 7962 ] final -126.69 input  175.53 | X-H torsion
[ 8008 7997 7996 7995 ] final   50.87 input   59.86 | X-H torsion
[ 10167 10162 10161 10158 ] final   -7.92 input  -65.29 | X-H torsion
[ 10718 10713 10712 10709 ] final   33.20 input   66.30 | X-H torsion
[ 10763 10752 10751 10750 ] final  168.38 input  -60.55 | X-H torsion
[ 11005 11000 10999 10996 ] final  -66.08 input  -57.11 | X-H torsion

> <Gold.Protein.ActiveResidues>
 VAL166  LYS551  ARG553  GLY616  TRP617  ASP618  TYR619  PRO620  LYS621  CYS622 
 ASP623  PHE694  ASN695  SER759  ASP760  ASP761  ALA762  ILE779  LEU786  VAL792 
 PHE793  MET794  SER795  GLU796  ALA797  LYS798  CYS799  TRP800  GLU811  SER814 

> <Gold.Protein.RotatedAtoms>
  150.9436  134.8843  159.7627 H   0  0  0  0  0  0  0  0  0  0  0  0  # atno 6907 bound_to 6896
  152.5090  134.3907  159.9393 H   0  0  0  0  0  0  0  0  0  0  0  0  # atno 6908 bound_to 6896
  151.3927  133.3743  159.2757 H   0  0  0  0  0  0  0  0  0  0  0  0  # atno 6909 bound_to 6896
  144.9847  140.7675  143.4590 H   0  0  0  0  0  0  0  0  0  0  0  0  # atno 7974 bound_to 7965
  155.4260  140.3448  155.4275 H   0  0  0  0  0  0  0  0  0  0  0  0  # atno 8008 bound_to 7997
  156.1365  140.1529  156.9018 H   0  0  0  0  0  0  0  0  0  0  0  0  # atno 8009 bound_to 7997
  154.4936  140.0834  156.7628 H   0  0  0  0  0  0  0  0  0  0  0  0  # atno 8010 bound_to 7997
  140.7043  143.6027  150.8782 H   0  0  0  0  0  0  0  0  0  0  0  0  # atno 10167 bound_to 10162
  157.2948  130.7321  149.6632 H   0  0  0  0  0  0  0  0  0  0  0  0  # atno 10718 bound_to 10713
  154.3677  135.2753  155.2284 H   0  0  0  0  0  0  0  0  0  0  0  0  # atno 10763 bound_to 10752
  154.4445  135.5946  153.6154 H   0  0  0  0  0  0  0  0  0  0  0  0  # atno 10764 bound_to 10752
  152.9840  135.6027  154.3905 H   0  0  0  0  0  0  0  0  0  0  0  0  # atno 10765 bound_to 10752
  141.1472  133.6693  156.6085 H   0  0  0  0  0  0  0  0  0  0  0  0  # atno 11005 bound_to 11000
  145.2370  139.2089  143.5012 LP  0  0  0  0  0  0  0  0  0  0  0  0  # atno 17320 bound_to 7965
  146.3417  140.2258  142.8592 LP  0  0  0  0  0  0  0  0  0  0  0  0  # atno 17321 bound_to 7965
  139.9751  143.6013  152.2961 LP  0  0  0  0  0  0  0  0  0  0  0  0  # atno 17342 bound_to 10162
  139.6614  144.7662  151.1955 LP  0  0  0  0  0  0  0  0  0  0  0  0  # atno 17343 bound_to 10162
  155.9668  130.4298  150.4847 LP  0  0  0  0  0  0  0  0  0  0  0  0  # atno 17370 bound_to 10713
  157.2817  131.0608  151.2193 LP  0  0  0  0  0  0  0  0  0  0  0  0  # atno 17371 bound_to 10713
  140.3633  134.7669  157.4549 LP  0  0  0  0  0  0  0  0  0  0  0  0  # atno 17394 bound_to 11000
  140.0768  134.5786  155.8583 LP  0  0  0  0  0  0  0  0  0  0  0  0  # atno 17395 bound_to 11000

$$$$
