AV-unprocessed.smi:249|AV-procd|sdf|1929|dock6
  -GOLD-   2262021 43D 1   1.00000     0.00000
 Structure written by MMmdl.
 64 67  0  0  0  0  0  0  0  0  2 V2000
  152.2888  143.2772  161.4306 C   0  0  0  0  0  0  0  0  0  0  0  0
  153.2408  142.3774  160.6252 C   0  0  0  0  0  0  0  0  0  0  0  0
  152.7037  141.9946  159.2870 N   0  3  1  0  0  0  0  0  0  0  0  0
  152.1346  140.6152  159.2985 C   0  0  0  0  0  0  0  0  0  0  0  0
  151.6869  140.1595  157.9033 C   0  0  0  0  0  0  0  0  0  0  0  0
  150.6549  141.1378  157.3284 C   0  0  2  0  0  0  0  0  0  0  0  0
  150.1520  140.7186  156.0151 N   0  0  0  0  0  0  0  0  0  0  0  0
  149.8449  141.7204  154.9949 C   0  0  0  0  0  0  0  0  0  0  0  0
  150.6171  139.5226  155.5712 C   0  0  0  0  0  0  0  0  0  0  0  0
  151.7816  139.4721  154.8713 N   0  0  0  0  0  0  0  0  0  0  0  0
  152.2640  138.2998  154.4498 C   0  0  0  0  0  0  0  0  0  0  0  0
  151.7490  137.0801  154.6114 N   0  0  0  0  0  0  0  0  0  0  0  0
  150.5706  137.1229  155.2968 C   0  0  0  0  0  0  0  0  0  0  0  0
  149.9445  138.2919  155.8154 C   0  0  0  0  0  0  0  0  0  0  0  0
  148.7668  137.9485  156.4678 N   0  0  0  0  0  0  0  0  0  0  0  0
  148.7078  136.6501  156.3536 C   0  0  0  0  0  0  0  0  0  0  0  0
  149.7334  136.0725  155.6384 N   0  0  0  0  0  0  0  0  0  0  0  0
  149.9133  134.6502  155.3800 C   0  0  0  0  0  0  0  0  0  0  0  0
  149.8651  133.7461  156.6457 C   0  0  1  0  0  0  0  0  0  0  0  0
  148.4418  133.7998  157.2506 C   0  0  0  0  0  0  0  0  0  0  0  0
  148.4773  133.6045  158.6496 O   0  0  0  0  0  0  0  0  0  0  0  0
  150.2807  132.2635  156.3940 C   0  0  1  0  0  0  0  0  0  0  0  0
  151.6976  132.0246  155.8920 C   0  0  0  0  0  0  0  0  0  0  0  0
  152.5356  132.1222  157.1618 C   0  0  0  0  0  0  0  0  0  0  0  0
  151.6818  131.6667  158.2058 O   0  0  0  0  0  0  0  0  0  0  0  0
  150.3694  131.4499  157.6950 C   0  0  0  0  0  0  0  0  0  0  0  0
  151.2659  142.5456  157.3078 C   0  0  0  0  0  0  0  0  0  0  0  0
  151.7355  142.9869  158.7119 C   0  0  2  0  0  0  0  0  0  0  0  0
  152.3131  144.4144  158.6082 C   0  0  0  0  0  0  0  0  0  0  0  0
  152.6542  143.3987  162.4505 H   0  0  0  0  0  0  0  0  0  0  0  0
  151.2905  142.8427  161.4901 H   0  0  0  0  0  0  0  0  0  0  0  0
  152.2019  144.2775  161.0082 H   0  0  0  0  0  0  0  0  0  0  0  0
  154.2150  142.8559  160.5127 H   0  0  0  0  0  0  0  0  0  0  0  0
  153.3995  141.4949  161.2402 H   0  0  0  0  0  0  0  0  0  0  0  0
  152.8699  139.8977  159.6581 H   0  0  0  0  0  0  0  0  0  0  0  0
  151.2923  140.5758  159.9914 H   0  0  0  0  0  0  0  0  0  0  0  0
  152.5561  140.0896  157.2482 H   0  0  0  0  0  0  0  0  0  0  0  0
  151.2613  139.1571  157.9655 H   0  0  0  0  0  0  0  0  0  0  0  0
  149.8205  141.1683  158.0286 H   0  0  0  0  0  0  0  0  0  0  0  0
  149.3232  141.2649  154.1521 H   0  0  0  0  0  0  0  0  0  0  0  0
  150.7553  142.1885  154.6189 H   0  0  0  0  0  0  0  0  0  0  0  0
  149.1964  142.5015  155.3890 H   0  0  0  0  0  0  0  0  0  0  0  0
  153.1961  138.3452  153.9061 H   0  0  0  0  0  0  0  0  0  0  0  0
  147.8986  136.0746  156.7793 H   0  0  0  0  0  0  0  0  0  0  0  0
  149.1257  134.3732  154.6789 H   0  0  0  0  0  0  0  0  0  0  0  0
  150.8511  134.4976  154.8440 H   0  0  0  0  0  0  0  0  0  0  0  0
  150.5421  134.1502  157.3975 H   0  0  0  0  0  0  0  0  0  0  0  0
  147.9660  134.7562  157.0314 H   0  0  0  0  0  0  0  0  0  0  0  0
  147.7940  133.0286  156.8377 H   0  0  0  0  0  0  0  0  0  0  0  0
  148.2749  132.6997  158.8330 H   0  0  0  0  0  0  0  0  0  0  0  0
  149.5659  131.8128  155.7043 H   0  0  0  0  0  0  0  0  0  0  0  0
  151.7682  131.0095  155.4983 H   0  0  0  0  0  0  0  0  0  0  0  0
  152.0284  132.6813  155.0940 H   0  0  0  0  0  0  0  0  0  0  0  0
  153.4477  131.5282  157.1033 H   0  0  0  0  0  0  0  0  0  0  0  0
  152.8153  133.1572  157.3616 H   0  0  0  0  0  0  0  0  0  0  0  0
  149.6187  131.7039  158.4418 H   0  0  0  0  0  0  0  0  0  0  0  0
  150.2614  130.3861  157.4772 H   0  0  0  0  0  0  0  0  0  0  0  0
  152.1137  142.5837  156.6231 H   0  0  0  0  0  0  0  0  0  0  0  0
  150.5263  143.2507  156.9257 H   0  0  0  0  0  0  0  0  0  0  0  0
  150.8632  143.0230  159.3668 H   0  0  0  0  0  0  0  0  0  0  0  0
  151.6482  145.0621  158.0356 H   0  0  0  0  0  0  0  0  0  0  0  0
  153.2824  144.4180  158.1088 H   0  0  0  0  0  0  0  0  0  0  0  0
  152.4261  144.8901  159.5817 H   0  0  0  0  0  0  0  0  0  0  0  0
  153.4935  141.9770  158.6575 H   0  0  0  0  0  0  0  0  0  0  0  0
  1  2  1  0  0  0  0
  1 30  1  0  0  0  0
  1 31  1  0  0  0  0
  1 32  1  0  0  0  0
  2  3  1  0  0  0  0
  2 33  1  0  0  0  0
  2 34  1  0  0  0  0
  3 28  1  0  0  0  0
  3  4  1  0  0  0  0
  3 64  1  0  0  0  0
  4  5  1  0  0  0  0
  4 35  1  0  0  0  0
  4 36  1  0  0  0  0
  5  6  1  0  0  0  0
  5 37  1  0  0  0  0
  5 38  1  0  0  0  0
  6  7  1  0  0  0  0
  6 27  1  0  0  0  0
  6 39  1  0  0  0  0
  7  8  1  0  0  0  0
  7  9  1  0  0  0  0
  8 40  1  0  0  0  0
  8 41  1  0  0  0  0
  8 42  1  0  0  0  0
  9 14  1  0  0  0  0
  9 10  2  0  0  0  0
 10 11  1  0  0  0  0
 11 12  2  0  0  0  0
 11 43  1  0  0  0  0
 12 13  1  0  0  0  0
 13 17  1  0  0  0  0
 13 14  2  0  0  0  0
 14 15  1  0  0  0  0
 15 16  2  0  0  0  0
 16 17  1  0  0  0  0
 16 44  1  0  0  0  0
 17 18  1  0  0  0  0
 18 19  1  0  0  0  0
 18 45  1  0  0  0  0
 18 46  1  0  0  0  0
 19 20  1  0  0  0  0
 19 22  1  0  0  0  0
 19 47  1  0  0  0  0
 20 21  1  0  0  0  0
 20 48  1  0  0  0  0
 20 49  1  0  0  0  0
 21 50  1  0  0  0  0
 22 26  1  0  0  0  0
 22 23  1  0  0  0  0
 22 51  1  0  0  0  0
 23 24  1  0  0  0  0
 23 52  1  0  0  0  0
 23 53  1  0  0  0  0
 24 25  1  0  0  0  0
 24 54  1  0  0  0  0
 24 55  1  0  0  0  0
 25 26  1  0  0  0  0
 26 56  1  0  0  0  0
 26 57  1  0  0  0  0
 27 28  1  0  0  0  0
 27 58  1  0  0  0  0
 27 59  1  0  0  0  0
 28 29  1  0  0  0  0
 28 60  1  0  0  0  0
 29 61  1  0  0  0  0
 29 62  1  0  0  0  0
 29 63  1  0  0  0  0
M  CHG  1   3   1
M  END
> <s_m_source_file>
AV-unprocessed.smi

> <i_m_source_file_index>
249

> <i_lp_mmshare_version>
43012

> <i_f3d_flags>
0

> <s_epik_input>
W0NIM11bQ0gyXU4xW0NIMl1bQ0gyXVtDQEhdKFtDSDJdW0NASF0xW0NIM10pTihbQ0gzXSljKG5bY0hdbjIpYyhjMjMpbltjSF1uM1tDSDJdW0NASF0oW0NIMl1bT0hdKVtDQEBIXTRbQ0gyXVtDSDJdT1tDSDJdNA==

> <s_epik_cmdline>
J2VwaWtfcHl0aG9uJywgJy1waCcsICc3LjAnLCAnLXRuJywgJzgnLCAnLW1hJywgJzIwMCcsICctbWV0YWxfYmluZGluZycsICctaW1hZScsICc8aW5maWxlLm1hZT4nLCAnLW9tYWUnLCAnPG91dGZpbGUubWFlPic=

> <r_lp_tautomer_probability>
1

> <r_epik_Ionization_Penalty>
0.00294688

> <r_epik_Ionization_Penalty_Charging>
0.00169971

> <r_epik_Ionization_Penalty_Neutral>
0.00124717

> <r_epik_State_Penalty>
-0

> <r_epik_Charging_Adjusted_Penalty>
0.00169971

> <i_epik_Tot_Q>
1

> <i_epik_Tot_abs_Q>
1

> <r_epik_Metal_State_Penalty>
-0

> <b_epik_Metal_Only>
0

> <s_lp_Force_Field>
OPLS_2005

> <r_lp_Energy>
57.6505

> <b_lp_Chiralities_Consistent>
1

> <s_lp_Variant>
AV-unprocessed.smi:249-32

> <Gold.Version>
5.8.1

> <Gold.Id.Protein>
6NUR|6NUR_protein|mol2

> <Gold.PLP.Fitness>
52.6006

> <Gold.PLP.PLP>
-48.6639

> <Gold.PLP.part.hbond>
-4.0000

> <Gold.PLP.part.metal>
0.0000

> <Gold.PLP.part.buried>
-7.3934

> <Gold.PLP.part.nonpolar>
-36.1705

> <Gold.PLP.part.repulsive>
0.2765

> <Gold.PLP.ligand.clash>
3.7946

> <Gold.PLP.ligand.torsion>
2.5601

> <Gold.PLP.Chemscore.Hbond>
3.9200

> <Gold.PLP.Chemscore.CHOScore>
0.0000

> <Gold.PLP.Chemscore.Metal>
0.0000

> <Gold.Chemscore.Hbonds>
donor molecule, donor type, donor heavy atom, donor atom, acceptor molecule, acceptor atom, score
      P1  H  6896  6908       L1    25  0.40
      P1  H  6896  6909       L1    21  0.11
      P1  H  7989  7998       L1    10  1.00
      P1  H 10752 10764       L1    12  1.00

> <Gold.PLP.Chemscore.Internal.Correction>
1.0915

> <Gold.Rescore>
     Score         DG    S(hbond)    S(metal)    S(lipo)     H(rot)  DE(clash)    DE(int)     intcor
     15.46     -19.41       2.24        0.00     113.15       2.65       0.29       3.66       ----

> <Gold.Chemscore.Fitness>
15.4572

> <Gold.Chemscore.DG>
-19.4135

> <Gold.Chemscore.ZeroCoef>
-5.4800

> <Gold.Chemscore.Hbond>
2.2405

> <Gold.Chemscore.Metal>
0.0000

> <Gold.Chemscore.Lipo>
113.1474

> <Gold.Chemscore.Internal_Hbond>
0.0000

> <Gold.Chemscore.DEClash>
0.2929

> <Gold.Chemscore.DEInternal>
3.6634

> <Gold.Chemscore.Rot>
2.6515

> <Gold.Chemscore.Internal.Correction>
   9.000000E+99

> <Gold.Chemscore.Hbonds>
donor molecule, donor type, donor heavy atom, donor atom, acceptor molecule, acceptor atom, score
      P1  H  6896  6908       L1    25  0.03
      P1  H  6896  6909       L1    21  0.08
      P1  H  7989  7998       L1    10  0.52
      P1  H 10752 10764       L1    12  0.88

> <Gold.Chemscore.Hbond.Weighted>
-7.4832

> <Gold.Chemscore.Metal.Weighted>
-0.0000

> <Gold.Chemscore.Lipo.Weighted>
-13.2382

> <Gold.Chemscore.Internal_Hbond.Weighted>
0.0000

> <Gold.Chemscore.DEClash.Weighted>
0.2929

> <Gold.Chemscore.DEInternal.Weighted>
3.6634

> <Gold.Chemscore.Rot.Weighted>
6.7880

> <Gold.Chemscore.Internal.Correction.Weighted>
   9.000000E+99

> <Gold.Protein.RotatedTorsions>
[ 6907 6896 6895 6894 ] final   33.00 input  -60.11 | X-H torsion
[ 7974 7965 7964 7962 ] final   10.43 input  175.53 | X-H torsion
[ 8008 7997 7996 7995 ] final    2.98 input   59.86 | X-H torsion
[ 10167 10162 10161 10158 ] final -105.11 input  -65.29 | X-H torsion
[ 10718 10713 10712 10709 ] final -119.18 input   66.30 | X-H torsion
[ 10763 10752 10751 10750 ] final  -74.76 input  -60.55 | X-H torsion
[ 11005 11000 10999 10996 ] final  -62.57 input  -57.11 | X-H torsion

> <Gold.Protein.ActiveResidues>
 VAL166  LYS551  ARG553  GLY616  TRP617  ASP618  TYR619  PRO620  LYS621  CYS622 
 ASP623  PHE694  ASN695  SER759  ASP760  ASP761  ALA762  ILE779  LEU786  VAL792 
 PHE793  MET794  SER795  GLU796  ALA797  LYS798  CYS799  TRP800  GLU811  SER814 

> <Gold.Protein.RotatedAtoms>
  152.0823  134.9463  160.0573 H   0  0  0  0  0  0  0  0  0  0  0  0  # atno 6907 bound_to 6896
  152.0746  133.4118  159.4482 H   0  0  0  0  0  0  0  0  0  0  0  0  # atno 6908 bound_to 6896
  150.6836  134.2972  159.4734 H   0  0  0  0  0  0  0  0  0  0  0  0  # atno 6909 bound_to 6896
  146.2388  139.9636  142.8455 H   0  0  0  0  0  0  0  0  0  0  0  0  # atno 7974 bound_to 7965
  154.6982  140.2667  155.6746 H   0  0  0  0  0  0  0  0  0  0  0  0  # atno 8008 bound_to 7997
  156.2756  140.2777  156.1507 H   0  0  0  0  0  0  0  0  0  0  0  0  # atno 8009 bound_to 7997
  155.0802  140.0372  157.2626 H   0  0  0  0  0  0  0  0  0  0  0  0  # atno 8010 bound_to 7997
  140.2020  143.3811  152.1121 H   0  0  0  0  0  0  0  0  0  0  0  0  # atno 10167 bound_to 10162
  156.1161  130.6287  150.9384 H   0  0  0  0  0  0  0  0  0  0  0  0  # atno 10718 bound_to 10713
  154.4775  135.5853  153.6365 H   0  0  0  0  0  0  0  0  0  0  0  0  # atno 10763 bound_to 10752
  152.9843  135.6081  154.3289 H   0  0  0  0  0  0  0  0  0  0  0  0  # atno 10764 bound_to 10752
  154.3176  135.2844  155.2514 H   0  0  0  0  0  0  0  0  0  0  0  0  # atno 10765 bound_to 10752
  141.1364  133.6641  156.5547 H   0  0  0  0  0  0  0  0  0  0  0  0  # atno 11005 bound_to 11000
  145.1748  140.9738  143.4301 LP  0  0  0  0  0  0  0  0  0  0  0  0  # atno 17320 bound_to 7965
  144.9996  139.3611  143.6174 LP  0  0  0  0  0  0  0  0  0  0  0  0  # atno 17321 bound_to 7965
  139.5213  144.7044  151.5397 LP  0  0  0  0  0  0  0  0  0  0  0  0  # atno 17342 bound_to 10162
  140.6383  143.8939  150.6668 LP  0  0  0  0  0  0  0  0  0  0  0  0  # atno 17343 bound_to 10162
  157.6345  131.0917  150.8376 LP  0  0  0  0  0  0  0  0  0  0  0  0  # atno 17370 bound_to 10713
  156.8479  130.5070  149.5314 LP  0  0  0  0  0  0  0  0  0  0  0  0  # atno 17371 bound_to 10713
  140.4035  134.7335  157.4794 LP  0  0  0  0  0  0  0  0  0  0  0  0  # atno 17394 bound_to 11000
  140.0478  134.6173  155.8899 LP  0  0  0  0  0  0  0  0  0  0  0  0  # atno 17395 bound_to 11000

$$$$
