AV-unprocessed.smi:3350|AV-procd|sdf|12941|dock6
  -GOLD-   2272019373D 1   1.00000     0.00000
 Structure written by MMmdl.
 41 42  0  0  0  0  0  0  0  0  1 V2000
  147.2324  140.3773  153.4082 C   0  0  0  0  0  0  0  0  0  0  0  0
  147.8412  139.0959  153.9933 C   0  0  2  0  0  0  0  0  0  0  0  0
  149.3809  139.1840  154.0620 C   0  0  0  0  0  0  0  0  0  0  0  0
  149.8433  140.2229  154.9669 N   0  0  0  0  0  0  0  0  0  0  0  0
  149.0924  141.0911  155.7309 C   0  0  0  0  0  0  0  0  0  0  0  0
  149.9643  141.8713  156.4349 C   0  0  0  0  0  0  0  0  0  0  0  0
  151.2435  141.4029  156.0244 C   0  0  0  0  0  0  0  0  0  0  0  0
  151.1684  140.4179  155.1445 N   0  0  0  0  0  0  0  0  0  0  0  0
  147.4248  137.9532  153.1809 N   0  0  0  0  0  0  0  0  0  0  0  0
  146.2176  137.3706  153.2217 C   0  0  0  0  0  0  0  0  0  0  0  0
  145.2743  137.7804  153.8987 O   0  0  0  0  0  0  0  0  0  0  0  0
  146.1753  136.2668  152.4628 N   0  0  0  0  0  0  0  0  0  0  0  0
  145.0409  135.3518  152.3640 C   0  0  1  0  0  0  0  0  0  0  0  0
  143.7615  136.1819  152.1771 C   0  0  0  0  0  0  0  0  0  0  0  0
  145.2651  134.3550  151.2055 C   0  0  2  0  0  0  0  0  0  0  0  0
  144.1150  133.3706  150.9749 C   0  0  0  0  0  0  0  0  0  0  0  0
  144.7885  132.1398  150.3835 C   0  0  0  0  0  0  0  0  0  0  0  0
  146.2830  132.4193  150.5424 C   0  0  0  0  0  0  0  0  0  0  0  0
  146.3481  133.4793  151.4824 O   0  0  0  0  0  0  0  0  0  0  0  0
  147.5023  141.2474  154.0073 H   0  0  0  0  0  0  0  0  0  0  0  0
  146.1436  140.3204  153.3844 H   0  0  0  0  0  0  0  0  0  0  0  0
  147.5802  140.5537  152.3895 H   0  0  0  0  0  0  0  0  0  0  0  0
  147.4547  138.9910  155.0085 H   0  0  0  0  0  0  0  0  0  0  0  0
  149.8053  138.2262  154.3688 H   0  0  0  0  0  0  0  0  0  0  0  0
  149.7871  139.4004  153.0731 H   0  0  0  0  0  0  0  0  0  0  0  0
  148.0126  141.0749  155.7164 H   0  0  0  0  0  0  0  0  0  0  0  0
  149.7253  142.6550  157.1380 H   0  0  0  0  0  0  0  0  0  0  0  0
  152.2180  141.7456  156.3394 H   0  0  0  0  0  0  0  0  0  0  0  0
  148.1301  137.5369  152.5911 H   0  0  0  0  0  0  0  0  0  0  0  0
  147.0071  136.0132  151.9503 H   0  0  0  0  0  0  0  0  0  0  0  0
  144.9417  134.7951  153.2978 H   0  0  0  0  0  0  0  0  0  0  0  0
  142.8749  135.5480  152.1573 H   0  0  0  0  0  0  0  0  0  0  0  0
  143.7871  136.7472  151.2449 H   0  0  0  0  0  0  0  0  0  0  0  0
  143.6329  136.8924  152.9940 H   0  0  0  0  0  0  0  0  0  0  0  0
  145.4809  134.8927  150.2797 H   0  0  0  0  0  0  0  0  0  0  0  0
  143.6458  133.1056  151.9235 H   0  0  0  0  0  0  0  0  0  0  0  0
  143.3429  133.7805  150.3231 H   0  0  0  0  0  0  0  0  0  0  0  0
  144.4943  131.2446  150.9323 H   0  0  0  0  0  0  0  0  0  0  0  0
  144.5271  131.9925  149.3353 H   0  0  0  0  0  0  0  0  0  0  0  0
  146.8422  131.5486  150.8849 H   0  0  0  0  0  0  0  0  0  0  0  0
  146.7146  132.7525  149.5976 H   0  0  0  0  0  0  0  0  0  0  0  0
  1  2  1  0  0  0  0
  1 20  1  0  0  0  0
  1 21  1  0  0  0  0
  1 22  1  0  0  0  0
  2  3  1  0  0  0  0
  2  9  1  0  0  0  0
  2 23  1  0  0  0  0
  3  4  1  0  0  0  0
  3 24  1  0  0  0  0
  3 25  1  0  0  0  0
  4  8  1  0  0  0  0
  4  5  1  0  0  0  0
  5  6  2  0  0  0  0
  5 26  1  0  0  0  0
  6  7  1  0  0  0  0
  6 27  1  0  0  0  0
  7  8  2  0  0  0  0
  7 28  1  0  0  0  0
  9 10  1  0  0  0  0
  9 29  1  0  0  0  0
 10 11  2  0  0  0  0
 10 12  1  0  0  0  0
 12 13  1  0  0  0  0
 12 30  1  0  0  0  0
 13 14  1  0  0  0  0
 13 15  1  0  0  0  0
 13 31  1  0  0  0  0
 14 32  1  0  0  0  0
 14 33  1  0  0  0  0
 14 34  1  0  0  0  0
 15 19  1  0  0  0  0
 15 16  1  0  0  0  0
 15 35  1  0  0  0  0
 16 17  1  0  0  0  0
 16 36  1  0  0  0  0
 16 37  1  0  0  0  0
 17 18  1  0  0  0  0
 17 38  1  0  0  0  0
 17 39  1  0  0  0  0
 18 19  1  0  0  0  0
 18 40  1  0  0  0  0
 18 41  1  0  0  0  0
M  END
> <s_m_source_file>
AV-unprocessed.smi

> <i_m_source_file_index>
3350

> <i_lp_mmshare_version>
43012

> <i_f3d_flags>
0

> <s_epik_input>
bjFbY0hdW2NIXVtjSF1uMVtDSDJdW0NAQEhdKFtDSDNdKVtOSF1DKD1PKVtOSF1bQ0BIXShbQ0gzXSlbQ0BASF0yW0NIMl1bQ0gyXVtDSDJdTzI=

> <s_epik_cmdline>
J2VwaWtfcHl0aG9uJywgJy1waCcsICc3LjAnLCAnLXRuJywgJzgnLCAnLW1hJywgJzIwMCcsICctbWV0YWxfYmluZGluZycsICctaW1hZScsICc8aW5maWxlLm1hZT4nLCAnLW9tYWUnLCAnPG91dGZpbGUubWFlPic=

> <r_lp_tautomer_probability>
1

> <r_epik_Ionization_Penalty>
6.42349e-05

> <r_epik_Ionization_Penalty_Charging>
0

> <r_epik_Ionization_Penalty_Neutral>
6.42349e-05

> <r_epik_State_Penalty>
-0

> <r_epik_Charging_Adjusted_Penalty>
0

> <i_epik_Tot_Q>
0

> <i_epik_Tot_abs_Q>
0

> <r_epik_Metal_State_Penalty>
-0

> <b_epik_Metal_Only>
0

> <s_lp_Force_Field>
OPLS_2005

> <r_lp_Energy>
14.9436

> <b_lp_Chiralities_Consistent>
1

> <s_lp_Variant>
AV-unprocessed.smi:3350-3

> <Gold.Version>
5.8.1

> <Gold.Id.Protein>
6NUR|6NUR_protein|mol2

> <Gold.PLP.Fitness>
40.2857

> <Gold.PLP.PLP>
-32.4457

> <Gold.PLP.part.hbond>
-3.0000

> <Gold.PLP.part.metal>
0.0000

> <Gold.PLP.part.buried>
-5.0525

> <Gold.PLP.part.nonpolar>
-25.0527

> <Gold.PLP.part.repulsive>
0.4176

> <Gold.PLP.ligand.clash>
0.0000

> <Gold.PLP.ligand.torsion>
0.4283

> <Gold.PLP.Chemscore.Hbond>
2.8800

> <Gold.PLP.Chemscore.CHOScore>
0.0000

> <Gold.PLP.Chemscore.Metal>
0.0000

> <Gold.Chemscore.Hbonds>
donor molecule, donor type, donor heavy atom, donor atom, acceptor molecule, acceptor atom, score
      L1  H     9    29       P1  7948  1.00
      L1  H    12    30       P1  7948  0.91
      P1  H  7989  7998       L1     8  1.00

> <Gold.PLP.Chemscore.Internal.Correction>
0.0566

> <Gold.Rescore>
     Score         DG    S(hbond)    S(metal)    S(lipo)     H(rot)  DE(clash)    DE(int)     intcor
     16.34     -18.05       2.60        0.00      73.11       1.82       0.06       1.65       ----

> <Gold.Chemscore.Fitness>
16.3413

> <Gold.Chemscore.DG>
-18.0458

> <Gold.Chemscore.ZeroCoef>
-5.4800

> <Gold.Chemscore.Hbond>
2.5959

> <Gold.Chemscore.Metal>
0.0000

> <Gold.Chemscore.Lipo>
73.1084

> <Gold.Chemscore.Internal_Hbond>
0.0000

> <Gold.Chemscore.DEClash>
0.0592

> <Gold.Chemscore.DEInternal>
1.6452

> <Gold.Chemscore.Rot>
1.8197

> <Gold.Chemscore.Internal.Correction>
   9.000000E+99

> <Gold.Chemscore.Hbonds>
donor molecule, donor type, donor heavy atom, donor atom, acceptor molecule, acceptor atom, score
      L1  H     9    29       P1  7948  0.98
      L1  H    12    30       P1  7948  0.89
      P1  H  7989  7998       L1     8  0.21

> <Gold.Chemscore.Hbond.Weighted>
-8.6704

> <Gold.Chemscore.Metal.Weighted>
-0.0000

> <Gold.Chemscore.Lipo.Weighted>
-8.5537

> <Gold.Chemscore.Internal_Hbond.Weighted>
0.0000

> <Gold.Chemscore.DEClash.Weighted>
0.0592

> <Gold.Chemscore.DEInternal.Weighted>
1.6452

> <Gold.Chemscore.Rot.Weighted>
4.6583

> <Gold.Chemscore.Internal.Correction.Weighted>
   9.000000E+99

> <Gold.Protein.RotatedTorsions>
[ 6907 6896 6895 6894 ] final   18.43 input  -60.11 | X-H torsion
[ 7974 7965 7964 7962 ] final  143.80 input  175.53 | X-H torsion
[ 8008 7997 7996 7995 ] final  -70.99 input   59.86 | X-H torsion
[ 10167 10162 10161 10158 ] final  -52.87 input  -65.29 | X-H torsion
[ 10718 10713 10712 10709 ] final   49.99 input   66.30 | X-H torsion
[ 10763 10752 10751 10750 ] final  135.82 input  -60.55 | X-H torsion
[ 11005 11000 10999 10996 ] final -113.71 input  -57.11 | X-H torsion

> <Gold.Protein.ActiveResidues>
 VAL166  LYS551  ARG553  GLY616  TRP617  ASP618  TYR619  PRO620  LYS621  CYS622 
 ASP623  PHE694  ASN695  SER759  ASP760  ASP761  ALA762  ILE779  LEU786  VAL792 
 PHE793  MET794  SER795  GLU796  ALA797  LYS798  CYS799  TRP800  GLU811  SER814 

> <Gold.Protein.RotatedAtoms>
  151.8651  135.0510  160.0473 H   0  0  0  0  0  0  0  0  0  0  0  0  # atno 6907 bound_to 6896
  152.2632  133.5311  159.5403 H   0  0  0  0  0  0  0  0  0  0  0  0  # atno 6908 bound_to 6896
  150.7124  134.0717  159.3909 H   0  0  0  0  0  0  0  0  0  0  0  0  # atno 6909 bound_to 6896
  144.8890  139.5586  143.5807 H   0  0  0  0  0  0  0  0  0  0  0  0  # atno 7974 bound_to 7965
  154.5054  140.0824  156.7883 H   0  0  0  0  0  0  0  0  0  0  0  0  # atno 8008 bound_to 7997
  155.3906  140.3432  155.4233 H   0  0  0  0  0  0  0  0  0  0  0  0  # atno 8009 bound_to 7997
  156.1508  140.1558  156.8759 H   0  0  0  0  0  0  0  0  0  0  0  0  # atno 8010 bound_to 7997
  140.6514  143.2569  151.4711 H   0  0  0  0  0  0  0  0  0  0  0  0  # atno 10167 bound_to 10162
  157.4841  130.8334  149.8126 H   0  0  0  0  0  0  0  0  0  0  0  0  # atno 10718 bound_to 10713
  153.8463  135.3085  155.3429 H   0  0  0  0  0  0  0  0  0  0  0  0  # atno 10763 bound_to 10752
  154.7911  135.4782  154.0057 H   0  0  0  0  0  0  0  0  0  0  0  0  # atno 10764 bound_to 10752
  153.1545  135.6849  153.8925 H   0  0  0  0  0  0  0  0  0  0  0  0  # atno 10765 bound_to 10752
  141.0597  133.9555  157.2689 H   0  0  0  0  0  0  0  0  0  0  0  0  # atno 11005 bound_to 11000
  146.3042  139.7525  142.9068 LP  0  0  0  0  0  0  0  0  0  0  0  0  # atno 17320 bound_to 7965
  145.3817  141.0359  143.3174 LP  0  0  0  0  0  0  0  0  0  0  0  0  # atno 17321 bound_to 7965
  139.5730  144.1884  152.1864 LP  0  0  0  0  0  0  0  0  0  0  0  0  # atno 17342 bound_to 10162
  140.1186  144.5394  150.6878 LP  0  0  0  0  0  0  0  0  0  0  0  0  # atno 17343 bound_to 10162
  156.0137  130.3822  150.2180 LP  0  0  0  0  0  0  0  0  0  0  0  0  # atno 17370 bound_to 10713
  157.0367  131.0023  151.3296 LP  0  0  0  0  0  0  0  0  0  0  0  0  # atno 17371 bound_to 10713
  139.9421  135.0189  156.8742 LP  0  0  0  0  0  0  0  0  0  0  0  0  # atno 17394 bound_to 11000
  140.5893  134.0277  155.7493 LP  0  0  0  0  0  0  0  0  0  0  0  0  # atno 17395 bound_to 11000

$$$$
