AV-unprocessed.smi:1967|AV-procd|sdf|7955|dock5
  -GOLD-   2272010123D 1   1.00000     0.00000
 Structure written by MMmdl.
 36 37  0  0  0  0  0  0  0  0  2 V2000
  151.8189  139.5797  154.7163 O   0  0  0  0  0  0  0  0  0  0  0  0
  150.6571  138.9067  155.3202 S   0  0  0  0  0  0  0  0  0  0  0  0
  150.4648  137.4767  155.0285 O   0  0  0  0  0  0  0  0  0  0  0  0
  150.4432  139.2774  156.8840 N   0  5  0  0  0  0  0  0  0  0  0  0
  151.2145  140.3657  157.4583 C   0  0  0  0  0  0  0  0  0  0  0  0
  150.2637  141.4227  158.0600 C   0  0  0  0  0  0  0  0  0  0  0  0
  150.9608  142.6996  158.5190 C   0  0  0  0  0  0  0  0  0  0  0  0
  151.6209  143.5329  157.5870 C   0  0  0  0  0  0  0  0  0  0  0  0
  152.2462  144.7050  158.0533 C   0  0  0  0  0  0  0  0  0  0  0  0
  152.1856  145.0059  159.4274 C   0  0  0  0  0  0  0  0  0  0  0  0
  151.4978  144.1175  160.2775 C   0  0  0  0  0  0  0  0  0  0  0  0
  150.8944  142.9912  159.8412 N   0  0  0  0  0  0  0  0  0  0  0  0
  149.2476  139.7243  154.7157 N   0  0  0  0  0  0  0  0  0  0  0  0
  149.3408  141.1746  154.4466 C   0  0  0  0  0  0  0  0  0  0  0  0
  147.9492  141.8269  154.4034 C   0  0  0  0  0  0  0  0  0  0  0  0
  147.0340  141.1174  153.4006 C   0  0  0  0  0  0  0  0  0  0  0  0
  146.9514  139.6296  153.7552 C   0  0  0  0  0  0  0  0  0  0  0  0
  148.3484  138.9888  153.8022 C   0  0  0  0  0  0  0  0  0  0  0  0
  151.8912  140.0089  158.2354 H   0  0  0  0  0  0  0  0  0  0  0  0
  151.8453  140.8448  156.7087 H   0  0  0  0  0  0  0  0  0  0  0  0
  149.5005  141.6915  157.3281 H   0  0  0  0  0  0  0  0  0  0  0  0
  149.7277  140.9954  158.9092 H   0  0  0  0  0  0  0  0  0  0  0  0
  151.6520  143.2747  156.5384 H   0  0  0  0  0  0  0  0  0  0  0  0
  152.7631  145.3614  157.3691 H   0  0  0  0  0  0  0  0  0  0  0  0
  152.6539  145.8961  159.8207 H   0  0  0  0  0  0  0  0  0  0  0  0
  151.4291  144.3177  161.3364 H   0  0  0  0  0  0  0  0  0  0  0  0
  149.9426  141.6570  155.2164 H   0  0  0  0  0  0  0  0  0  0  0  0
  149.8601  141.3258  153.4994 H   0  0  0  0  0  0  0  0  0  0  0  0
  147.5005  141.7933  155.3969 H   0  0  0  0  0  0  0  0  0  0  0  0
  148.0426  142.8811  154.1421 H   0  0  0  0  0  0  0  0  0  0  0  0
  146.0398  141.5650  153.4137 H   0  0  0  0  0  0  0  0  0  0  0  0
  147.4241  141.2387  152.3892 H   0  0  0  0  0  0  0  0  0  0  0  0
  146.4634  139.5098  154.7234 H   0  0  0  0  0  0  0  0  0  0  0  0
  146.3286  139.1069  153.0289 H   0  0  0  0  0  0  0  0  0  0  0  0
  148.7918  138.9732  152.8057 H   0  0  0  0  0  0  0  0  0  0  0  0
  148.2596  137.9515  154.1238 H   0  0  0  0  0  0  0  0  0  0  0  0
  1  2  2  0  0  0  0
  2  3  2  0  0  0  0
  2  4  1  0  0  0  0
  2 13  1  0  0  0  0
  4  5  1  0  0  0  0
  5  6  1  0  0  0  0
  5 19  1  0  0  0  0
  5 20  1  0  0  0  0
  6  7  1  0  0  0  0
  6 21  1  0  0  0  0
  6 22  1  0  0  0  0
  7 12  1  0  0  0  0
  7  8  2  0  0  0  0
  8  9  1  0  0  0  0
  8 23  1  0  0  0  0
  9 10  2  0  0  0  0
  9 24  1  0  0  0  0
 10 11  1  0  0  0  0
 10 25  1  0  0  0  0
 11 12  2  0  0  0  0
 11 26  1  0  0  0  0
 13 18  1  0  0  0  0
 13 14  1  0  0  0  0
 14 15  1  0  0  0  0
 14 27  1  0  0  0  0
 14 28  1  0  0  0  0
 15 16  1  0  0  0  0
 15 29  1  0  0  0  0
 15 30  1  0  0  0  0
 16 17  1  0  0  0  0
 16 31  1  0  0  0  0
 16 32  1  0  0  0  0
 17 18  1  0  0  0  0
 17 33  1  0  0  0  0
 17 34  1  0  0  0  0
 18 35  1  0  0  0  0
 18 36  1  0  0  0  0
M  CHG  1   4  -1
M  END
> <s_m_source_file>
AV-unprocessed.smi

> <i_m_source_file_index>
1967

> <i_lp_mmshare_version>
43012

> <i_f3d_flags>
0

> <s_epik_input>
W0NIMl0xW0NIMl1bQ0gyXVtDSDJdW0NIMl1OMVMoPU8pKD1PKVtOSF1bQ0gyXVtDSDJdYzJbY0hdW2NIXVtjSF1bY0hdbjI=

> <s_epik_cmdline>
J2VwaWtfcHl0aG9uJywgJy1waCcsICc3LjAnLCAnLXRuJywgJzgnLCAnLW1hJywgJzIwMCcsICctbWV0YWxfYmluZGluZycsICctaW1hZScsICc8aW5maWxlLm1hZT4nLCAnLW9tYWUnLCAnPG91dGZpbGUubWFlPic=

> <r_epik_Ionization_Penalty>
2.02944

> <r_epik_Ionization_Penalty_Charging>
1.95606

> <r_epik_Ionization_Penalty_Neutral>
0.0733798

> <r_epik_State_Penalty>
2.47711

> <r_epik_Charging_Adjusted_Penalty>
4.43317

> <i_epik_Tot_Q>
-1

> <i_epik_Tot_abs_Q>
1

> <r_epik_Metal_State_Penalty>
0.729901

> <b_epik_Metal_Only>
0

> <s_lp_Force_Field>
OPLS_2005

> <r_lp_Energy>
6.94762

> <b_lp_Chiralities_Consistent>
1

> <s_lp_Variant>
AV-unprocessed.smi:1967-2

> <Gold.Version>
5.8.1

> <Gold.Id.Protein>
6NUR|6NUR_protein|mol2

> <Gold.PLP.Fitness>
41.9513

> <Gold.PLP.PLP>
-39.0466

> <Gold.PLP.part.hbond>
-2.0000

> <Gold.PLP.part.metal>
0.0000

> <Gold.PLP.part.buried>
-3.9187

> <Gold.PLP.part.nonpolar>
-32.9235

> <Gold.PLP.part.repulsive>
0.2216

> <Gold.PLP.ligand.clash>
0.0000

> <Gold.PLP.ligand.torsion>
1.5957

> <Gold.PLP.Chemscore.Hbond>
1.0000

> <Gold.PLP.Chemscore.CHOScore>
0.0000

> <Gold.PLP.Chemscore.Metal>
0.0000

> <Gold.Chemscore.Hbonds>
donor molecule, donor type, donor heavy atom, donor atom, acceptor molecule, acceptor atom, score
      P1  H  7989  7998       L1     1  1.00

> <Gold.PLP.Chemscore.Internal.Correction>
3.0960

> <Gold.Rescore>
     Score         DG    S(hbond)    S(metal)    S(lipo)     H(rot)  DE(clash)    DE(int)     intcor
     15.96     -17.67       0.98        0.00     104.55       1.30       0.08       1.63       ----

> <Gold.Chemscore.Fitness>
15.9603

> <Gold.Chemscore.DG>
-17.6696

> <Gold.Chemscore.ZeroCoef>
-5.4800

> <Gold.Chemscore.Hbond>
0.9835

> <Gold.Chemscore.Metal>
0.0000

> <Gold.Chemscore.Lipo>
104.5462

> <Gold.Chemscore.Internal_Hbond>
0.0000

> <Gold.Chemscore.DEClash>
0.0763

> <Gold.Chemscore.DEInternal>
1.6329

> <Gold.Chemscore.Rot>
1.2997

> <Gold.Chemscore.Internal.Correction>
   9.000000E+99

> <Gold.Chemscore.Hbonds>
donor molecule, donor type, donor heavy atom, donor atom, acceptor molecule, acceptor atom, score
      P1  H  7989  7998       L1     1  0.95

> <Gold.Chemscore.Hbond.Weighted>
-3.2849

> <Gold.Chemscore.Metal.Weighted>
-0.0000

> <Gold.Chemscore.Lipo.Weighted>
-12.2319

> <Gold.Chemscore.Internal_Hbond.Weighted>
0.0000

> <Gold.Chemscore.DEClash.Weighted>
0.0763

> <Gold.Chemscore.DEInternal.Weighted>
1.6329

> <Gold.Chemscore.Rot.Weighted>
3.3273

> <Gold.Chemscore.Internal.Correction.Weighted>
   9.000000E+99

> <Gold.Protein.RotatedTorsions>
[ 6907 6896 6895 6894 ] final  148.07 input  -60.11 | X-H torsion
[ 7974 7965 7964 7962 ] final  -59.49 input  175.53 | X-H torsion
[ 8008 7997 7996 7995 ] final  108.06 input   59.86 | X-H torsion
[ 10167 10162 10161 10158 ] final   49.71 input  -65.29 | X-H torsion
[ 10718 10713 10712 10709 ] final  -99.15 input   66.30 | X-H torsion
[ 10763 10752 10751 10750 ] final   98.38 input  -60.55 | X-H torsion
[ 11005 11000 10999 10996 ] final   80.90 input  -57.11 | X-H torsion

> <Gold.Protein.ActiveResidues>
 VAL166  LYS551  ARG553  GLY616  TRP617  ASP618  TYR619  PRO620  LYS621  CYS622 
 ASP623  PHE694  ASN695  SER759  ASP760  ASP761  ALA762  ILE779  LEU786  VAL792 
 PHE793  MET794  SER795  GLU796  ALA797  LYS798  CYS799  TRP800  GLU811  SER814 

> <Gold.Protein.RotatedAtoms>
  152.1464  133.4495  159.4791 H   0  0  0  0  0  0  0  0  0  0  0  0  # atno 6907 bound_to 6896
  150.6891  134.2242  159.4418 H   0  0  0  0  0  0  0  0  0  0  0  0  # atno 6908 bound_to 6896
  152.0136  134.9862  160.0619 H   0  0  0  0  0  0  0  0  0  0  0  0  # atno 6909 bound_to 6896
  145.8268  140.8505  143.0104 H   0  0  0  0  0  0  0  0  0  0  0  0  # atno 7974 bound_to 7965
  156.1873  140.3083  155.9264 H   0  0  0  0  0  0  0  0  0  0  0  0  # atno 8008 bound_to 7997
  155.3252  140.0458  157.3058 H   0  0  0  0  0  0  0  0  0  0  0  0  # atno 8009 bound_to 7997
  154.5411  140.2262  155.8649 H   0  0  0  0  0  0  0  0  0  0  0  0  # atno 8010 bound_to 7997
  140.2801  144.3166  150.6266 H   0  0  0  0  0  0  0  0  0  0  0  0  # atno 10167 bound_to 10162
  156.0126  130.5269  150.6627 H   0  0  0  0  0  0  0  0  0  0  0  0  # atno 10718 bound_to 10713
  153.2883  135.4150  155.1143 H   0  0  0  0  0  0  0  0  0  0  0  0  # atno 10763 bound_to 10752
  154.8512  135.3512  154.6016 H   0  0  0  0  0  0  0  0  0  0  0  0  # atno 10764 bound_to 10752
  153.6438  135.7055  153.5290 H   0  0  0  0  0  0  0  0  0  0  0  0  # atno 10765 bound_to 10752
  139.9117  134.7956  156.1970 H   0  0  0  0  0  0  0  0  0  0  0  0  # atno 11005 bound_to 11000
  144.6743  140.0614  143.7476 LP  0  0  0  0  0  0  0  0  0  0  0  0  # atno 17320 bound_to 7965
  145.9614  139.2803  143.1153 LP  0  0  0  0  0  0  0  0  0  0  0  0  # atno 17321 bound_to 7965
  140.5819  143.2172  151.7413 LP  0  0  0  0  0  0  0  0  0  0  0  0  # atno 17342 bound_to 10162
  139.4965  144.4068  152.0123 LP  0  0  0  0  0  0  0  0  0  0  0  0  # atno 17343 bound_to 10162
  157.4366  131.0856  151.0985 LP  0  0  0  0  0  0  0  0  0  0  0  0  # atno 17370 bound_to 10713
  157.1542  130.6197  149.5591 LP  0  0  0  0  0  0  0  0  0  0  0  0  # atno 17371 bound_to 10713
  141.0548  133.6870  156.1840 LP  0  0  0  0  0  0  0  0  0  0  0  0  # atno 17394 bound_to 11000
  140.6753  134.4824  157.5588 LP  0  0  0  0  0  0  0  0  0  0  0  0  # atno 17395 bound_to 11000

$$$$
