AV-unprocessed.smi:139|AV-procd|sdf|1184|dock3
  -GOLD-   2262018333D 1   1.00000     0.00000
 Structure written by MMmdl.
 50 53  0  0  0  0  0  0  0  0  1 V2000
  154.6872  139.8300  158.6528 O   0  0  0  0  0  0  0  0  0  0  0  0
  153.4783  139.6145  158.7501 C   0  0  0  0  0  0  0  0  0  0  0  0
  152.9163  138.1901  158.6322 C   0  0  0  0  0  0  0  0  0  0  0  0
  151.5511  138.1371  158.0649 N   0  0  0  0  0  0  0  0  0  0  0  0
  150.5412  137.4488  158.7820 C   0  0  0  0  0  0  0  0  0  0  0  0
  150.7822  136.9024  159.8595 O   0  0  0  0  0  0  0  0  0  0  0  0
  149.2218  137.4410  158.1606 C   0  0  0  0  0  0  0  0  0  0  0  0
  148.2061  136.7991  158.7626 F   0  0  0  0  0  0  0  0  0  0  0  0
  149.0039  138.0643  156.9843 C   0  0  0  0  0  0  0  0  0  0  0  0
  149.9961  138.7449  156.3016 N   0  0  0  0  0  0  0  0  0  0  0  0
  149.7240  139.4377  154.9822 C   0  0  1  0  0  0  0  0  0  0  0  0
  148.3091  139.1119  154.4925 C   0  0  0  0  0  0  0  0  0  0  0  0
  147.5027  140.2181  155.1361 C   0  0  0  0  0  0  0  0  0  0  0  0
  148.4757  141.3912  155.0688 C   0  0  0  0  0  0  0  0  0  0  0  0
  149.7820  140.8235  155.1641 O   0  0  0  0  0  0  0  0  0  0  0  0
  151.3015  138.7956  156.8374 C   0  0  0  0  0  0  0  0  0  0  0  0
  152.2003  139.3985  156.2465 O   0  0  0  0  0  0  0  0  0  0  0  0
  152.5677  140.5824  158.9480 N   0  0  0  0  0  0  0  0  0  0  0  0
  152.8270  142.0186  159.0800 C   0  0  1  0  0  0  0  0  0  0  0  0
  151.7397  142.8548  158.3729 C   0  0  0  0  0  0  0  0  0  0  0  0
  151.9136  144.3492  158.6485 C   0  0  0  0  0  0  0  0  0  0  0  0
  151.8126  144.6440  160.1490 C   0  0  0  0  0  0  0  0  0  0  0  0
  152.6677  143.7208  161.0037 C   0  0  0  0  0  0  0  0  0  0  0  0
  152.9827  144.1189  162.3200 C   0  0  0  0  0  0  0  0  0  0  0  0
  153.7657  143.2937  163.1476 C   0  0  0  0  0  0  0  0  0  0  0  0
  154.2414  142.0633  162.6611 C   0  0  0  0  0  0  0  0  0  0  0  0
  153.9299  141.6582  161.3501 C   0  0  0  0  0  0  0  0  0  0  0  0
  153.1338  142.4731  160.5121 C   0  0  0  0  0  0  0  0  0  0  0  0
  153.6056  137.5889  158.0369 H   0  0  0  0  0  0  0  0  0  0  0  0
  152.9504  137.7278  159.6199 H   0  0  0  0  0  0  0  0  0  0  0  0
  148.0072  138.0168  156.5727 H   0  0  0  0  0  0  0  0  0  0  0  0
  150.5182  139.1145  154.3072 H   0  0  0  0  0  0  0  0  0  0  0  0
  148.2863  139.2037  153.4060 H   0  0  0  0  0  0  0  0  0  0  0  0
  147.9888  138.1072  154.7699 H   0  0  0  0  0  0  0  0  0  0  0  0
  146.5599  140.4153  154.6257 H   0  0  0  0  0  0  0  0  0  0  0  0
  147.2828  139.9674  156.1745 H   0  0  0  0  0  0  0  0  0  0  0  0
  148.3888  141.9008  154.1085 H   0  0  0  0  0  0  0  0  0  0  0  0
  148.3006  142.1228  155.8575 H   0  0  0  0  0  0  0  0  0  0  0  0
  151.6005  140.2996  159.0080 H   0  0  0  0  0  0  0  0  0  0  0  0
  153.7562  142.1904  158.5354 H   0  0  0  0  0  0  0  0  0  0  0  0
  151.7554  142.6599  157.3001 H   0  0  0  0  0  0  0  0  0  0  0  0
  150.7480  142.5645  158.7210 H   0  0  0  0  0  0  0  0  0  0  0  0
  152.8882  144.6693  158.2781 H   0  0  0  0  0  0  0  0  0  0  0  0
  151.1681  144.9283  158.1031 H   0  0  0  0  0  0  0  0  0  0  0  0
  152.0912  145.6812  160.3391 H   0  0  0  0  0  0  0  0  0  0  0  0
  150.7774  144.5339  160.4736 H   0  0  0  0  0  0  0  0  0  0  0  0
  152.6222  145.0636  162.7002 H   0  0  0  0  0  0  0  0  0  0  0  0
  154.0027  143.6056  164.1540 H   0  0  0  0  0  0  0  0  0  0  0  0
  154.8470  141.4302  163.2925 H   0  0  0  0  0  0  0  0  0  0  0  0
  154.3103  140.7137  160.9902 H   0  0  0  0  0  0  0  0  0  0  0  0
  1  2  2  0  0  0  0
  2  3  1  0  0  0  0
  2 18  1  0  0  0  0
  3  4  1  0  0  0  0
  3 29  1  0  0  0  0
  3 30  1  0  0  0  0
  4 16  1  0  0  0  0
  4  5  1  0  0  0  0
  5  6  2  0  0  0  0
  5  7  1  0  0  0  0
  7  8  1  0  0  0  0
  7  9  2  0  0  0  0
  9 10  1  0  0  0  0
  9 31  1  0  0  0  0
 10 11  1  0  0  0  0
 10 16  1  0  0  0  0
 11 15  1  0  0  0  0
 11 12  1  0  0  0  0
 11 32  1  0  0  0  0
 12 13  1  0  0  0  0
 12 33  1  0  0  0  0
 12 34  1  0  0  0  0
 13 14  1  0  0  0  0
 13 35  1  0  0  0  0
 13 36  1  0  0  0  0
 14 15  1  0  0  0  0
 14 37  1  0  0  0  0
 14 38  1  0  0  0  0
 16 17  2  0  0  0  0
 18 19  1  0  0  0  0
 18 39  1  0  0  0  0
 19 28  1  0  0  0  0
 19 20  1  0  0  0  0
 19 40  1  0  0  0  0
 20 21  1  0  0  0  0
 20 41  1  0  0  0  0
 20 42  1  0  0  0  0
 21 22  1  0  0  0  0
 21 43  1  0  0  0  0
 21 44  1  0  0  0  0
 22 23  1  0  0  0  0
 22 45  1  0  0  0  0
 22 46  1  0  0  0  0
 23 28  2  0  0  0  0
 23 24  1  0  0  0  0
 24 25  2  0  0  0  0
 24 47  1  0  0  0  0
 25 26  1  0  0  0  0
 25 48  1  0  0  0  0
 26 27  2  0  0  0  0
 26 49  1  0  0  0  0
 27 28  1  0  0  0  0
 27 50  1  0  0  0  0
M  END
> <s_m_source_file>
AV-unprocessed.smi

> <i_m_source_file_index>
139

> <i_lp_mmshare_version>
43012

> <i_f3d_flags>
0

> <s_epik_input>
W2NIXTFbY0hdW2NIXVtjSF1jKGMxMilbQ0BASF0oW0NIMl1bQ0gyXVtDSDJdMilbTkhdQyg9TylbQ0gyXW4zYyg9TyljKEYpW2NIXW4oYzM9TylbQ0BASF00W0NIMl1bQ0gyXVtDSDJdTzQ=

> <s_epik_cmdline>
J2VwaWtfcHl0aG9uJywgJy1waCcsICc3LjAnLCAnLXRuJywgJzgnLCAnLW1hJywgJzIwMCcsICctbWV0YWxfYmluZGluZycsICctaW1hZScsICc8aW5maWxlLm1hZT4nLCAnLW9tYWUnLCAnPG91dGZpbGUubWFlPic=

> <r_lp_tautomer_probability>
1

> <r_epik_Ionization_Penalty>
3.261e-08

> <r_epik_Ionization_Penalty_Charging>
3.6725e-09

> <r_epik_Ionization_Penalty_Neutral>
2.89375e-08

> <r_epik_State_Penalty>
-0

> <r_epik_Charging_Adjusted_Penalty>
3.6725e-09

> <i_epik_Tot_Q>
0

> <i_epik_Tot_abs_Q>
0

> <r_epik_Metal_State_Penalty>
-0

> <b_epik_Metal_Only>
0

> <s_epik_Chemistry_Notes>
This compound contains an acetal/aminal-like group ( X-CH(R)-Y where X, Y are N, S, or O) that may be acid/base labile, releasing an aldehyde.

> <s_lp_Force_Field>
OPLS_2005

> <r_lp_Energy>
31.2563

> <b_lp_Chiralities_Consistent>
1

> <s_lp_Variant>
AV-unprocessed.smi:139-4

> <Gold.Version>
5.8.1

> <Gold.Id.Protein>
6NUR|6NUR_protein|mol2

> <Gold.PLP.Fitness>
61.8703

> <Gold.PLP.PLP>
-54.4998

> <Gold.PLP.part.hbond>
-4.1705

> <Gold.PLP.part.metal>
0.0000

> <Gold.PLP.part.buried>
-4.9979

> <Gold.PLP.part.nonpolar>
-45.2917

> <Gold.PLP.part.repulsive>
0.2094

> <Gold.PLP.ligand.clash>
0.0000

> <Gold.PLP.ligand.torsion>
0.9054

> <Gold.PLP.Chemscore.Hbond>
3.0302

> <Gold.PLP.Chemscore.CHOScore>
0.0000

> <Gold.PLP.Chemscore.Metal>
0.0000

> <Gold.Chemscore.Hbonds>
donor molecule, donor type, donor heavy atom, donor atom, acceptor molecule, acceptor atom, score
      P1  H  6896  6909       L1     6  0.83
      P1  H  7997  8008       L1     1  0.67

> <Gold.PLP.Chemscore.Internal.Correction>
0.0908

> <Gold.Rescore>
     Score         DG    S(hbond)    S(metal)    S(lipo)     H(rot)  DE(clash)    DE(int)     intcor
     17.59     -23.45       1.95        0.00     137.79       1.82       1.26       4.59       ----

> <Gold.Chemscore.Fitness>
17.5939

> <Gold.Chemscore.DG>
-23.4468

> <Gold.Chemscore.ZeroCoef>
-5.4800

> <Gold.Chemscore.Hbond>
1.9455

> <Gold.Chemscore.Metal>
0.0000

> <Gold.Chemscore.Lipo>
137.7877

> <Gold.Chemscore.Internal_Hbond>
0.0000

> <Gold.Chemscore.DEClash>
1.2606

> <Gold.Chemscore.DEInternal>
4.5924

> <Gold.Chemscore.Rot>
1.8174

> <Gold.Chemscore.Internal.Correction>
   9.000000E+99

> <Gold.Chemscore.Hbonds>
donor molecule, donor type, donor heavy atom, donor atom, acceptor molecule, acceptor atom, score
      P1  H  6896  6909       L1     6  0.72
      P1  H  7997  8008       L1     1  0.60

> <Gold.Chemscore.Hbond.Weighted>
-6.4981

> <Gold.Chemscore.Metal.Weighted>
-0.0000

> <Gold.Chemscore.Lipo.Weighted>
-16.1212

> <Gold.Chemscore.Internal_Hbond.Weighted>
0.0000

> <Gold.Chemscore.DEClash.Weighted>
1.2606

> <Gold.Chemscore.DEInternal.Weighted>
4.5924

> <Gold.Chemscore.Rot.Weighted>
4.6524

> <Gold.Chemscore.Internal.Correction.Weighted>
   9.000000E+99

> <Gold.Protein.RotatedTorsions>
[ 6907 6896 6895 6894 ] final   74.26 input  -60.11 | X-H torsion
[ 7974 7965 7964 7962 ] final   25.35 input  175.53 | X-H torsion
[ 8008 7997 7996 7995 ] final -122.76 input   59.86 | X-H torsion
[ 10167 10162 10161 10158 ] final   42.44 input  -65.29 | X-H torsion
[ 10718 10713 10712 10709 ] final   28.63 input   66.30 | X-H torsion
[ 10763 10752 10751 10750 ] final  -38.49 input  -60.55 | X-H torsion
[ 11005 11000 10999 10996 ] final  149.32 input  -57.11 | X-H torsion

> <Gold.Protein.ActiveResidues>
 VAL166  LYS551  ARG553  GLY616  TRP617  ASP618  TYR619  PRO620  LYS621  CYS622 
 ASP623  PHE694  ASN695  SER759  ASP760  ASP761  ALA762  ILE779  LEU786  VAL792 
 PHE793  MET794  SER795  GLU796  ALA797  LYS798  CYS799  TRP800  GLU811  SER814 

> <Gold.Protein.RotatedAtoms>
  152.4966  134.4298  159.9508 H   0  0  0  0  0  0  0  0  0  0  0  0  # atno 6907 bound_to 6896
  151.4276  133.3673  159.2772 H   0  0  0  0  0  0  0  0  0  0  0  0  # atno 6908 bound_to 6896
  150.9178  134.8618  159.7528 H   0  0  0  0  0  0  0  0  0  0  0  0  # atno 6909 bound_to 6896
  146.1893  139.7478  142.8844 H   0  0  0  0  0  0  0  0  0  0  0  0  # atno 7974 bound_to 7965
  155.1694  140.0408  157.2860 H   0  0  0  0  0  0  0  0  0  0  0  0  # atno 8008 bound_to 7997
  154.6280  140.2517  155.7441 H   0  0  0  0  0  0  0  0  0  0  0  0  # atno 8009 bound_to 7997
  156.2469  140.2881  156.0618 H   0  0  0  0  0  0  0  0  0  0  0  0  # atno 8010 bound_to 7997
  140.3544  144.2309  150.6143 H   0  0  0  0  0  0  0  0  0  0  0  0  # atno 10167 bound_to 10162
  157.2359  130.7046  149.6335 H   0  0  0  0  0  0  0  0  0  0  0  0  # atno 10718 bound_to 10713
  153.9136  135.6790  153.4750 H   0  0  0  0  0  0  0  0  0  0  0  0  # atno 10763 bound_to 10752
  153.1065  135.4803  154.8958 H   0  0  0  0  0  0  0  0  0  0  0  0  # atno 10764 bound_to 10752
  154.7514  135.3186  154.8506 H   0  0  0  0  0  0  0  0  0  0  0  0  # atno 10765 bound_to 10752
  140.1035  134.8968  157.1831 H   0  0  0  0  0  0  0  0  0  0  0  0  # atno 11005 bound_to 11000
  145.3843  141.0363  143.3160 LP  0  0  0  0  0  0  0  0  0  0  0  0  # atno 17320 bound_to 7965
  144.8455  139.5403  143.6880 LP  0  0  0  0  0  0  0  0  0  0  0  0  # atno 17321 bound_to 7965
  140.5188  143.2271  151.8421 LP  0  0  0  0  0  0  0  0  0  0  0  0  # atno 17342 bound_to 10162
  139.4822  144.4862  151.9244 LP  0  0  0  0  0  0  0  0  0  0  0  0  # atno 17343 bound_to 10162
  155.9672  130.4473  150.5577 LP  0  0  0  0  0  0  0  0  0  0  0  0  # atno 17370 bound_to 10713
  157.3429  131.0720  151.1774 LP  0  0  0  0  0  0  0  0  0  0  0  0  # atno 17371 bound_to 10713
  140.3187  134.2941  155.7251 LP  0  0  0  0  0  0  0  0  0  0  0  0  # atno 17394 bound_to 11000
  141.2112  133.7696  156.9880 LP  0  0  0  0  0  0  0  0  0  0  0  0  # atno 17395 bound_to 11000

$$$$
