AV-unprocessed.smi:1877|AV-procd|sdf|7623|dock2
  -GOLD-   22720 9353D 1   1.00000     0.00000
 Structure written by MMmdl.
 32 34  0  0  0  0  0  0  0  0  1 V2000
  153.6672  139.9948  158.9524 O   0  0  0  0  0  0  0  0  0  0  0  0
  152.7109  140.9679  158.5834 C   0  0  1  0  0  0  0  0  0  0  0  0
  151.3572  140.2587  158.3786 C   0  0  0  0  0  0  0  0  0  0  0  0
  150.9430  140.2538  156.9867 N   0  0  0  0  0  0  0  0  0  0  0  0
  151.6446  139.7866  155.9362 C   0  0  0  0  0  0  0  0  0  0  0  0
  151.0844  139.8883  154.7345 N   0  0  0  0  0  0  0  0  0  0  0  0
  149.8777  140.4941  155.0394 C   0  0  0  0  0  0  0  0  0  0  0  0
  148.8118  140.8887  154.1993 C   0  0  0  0  0  0  0  0  0  0  0  0
  147.6644  141.5038  154.7420 C   0  0  0  0  0  0  0  0  0  0  0  0
  147.5636  141.7310  156.1300 C   0  0  0  0  0  0  0  0  0  0  0  0
  148.6108  141.3432  156.9871 C   0  0  0  0  0  0  0  0  0  0  0  0
  149.7559  140.7328  156.4417 C   0  0  0  0  0  0  0  0  0  0  0  0
  152.6198  142.1022  159.5980 C   0  0  0  0  0  0  0  0  0  0  0  0
  153.1127  141.9239  160.9102 C   0  0  0  0  0  0  0  0  0  0  0  0
  152.9998  142.9568  161.8602 C   0  0  0  0  0  0  0  0  0  0  0  0
  153.4704  142.7752  163.1166 F   0  0  0  0  0  0  0  0  0  0  0  0
  152.3935  144.1764  161.5053 C   0  0  0  0  0  0  0  0  0  0  0  0
  151.8995  144.3615  160.2003 C   0  0  0  0  0  0  0  0  0  0  0  0
  152.0105  143.3293  159.2485 C   0  0  0  0  0  0  0  0  0  0  0  0
  151.5159  143.5202  158.0018 F   0  0  0  0  0  0  0  0  0  0  0  0
  153.2348  139.1563  159.0082 H   0  0  0  0  0  0  0  0  0  0  0  0
  153.0465  141.3693  157.6267 H   0  0  0  0  0  0  0  0  0  0  0  0
  151.4244  139.2208  158.7082 H   0  0  0  0  0  0  0  0  0  0  0  0
  150.5763  140.7254  158.9803 H   0  0  0  0  0  0  0  0  0  0  0  0
  152.6250  139.3501  156.0613 H   0  0  0  0  0  0  0  0  0  0  0  0
  148.8782  140.7200  153.1347 H   0  0  0  0  0  0  0  0  0  0  0  0
  146.8572  141.8029  154.0896 H   0  0  0  0  0  0  0  0  0  0  0  0
  146.6816  142.2034  156.5369 H   0  0  0  0  0  0  0  0  0  0  0  0
  148.5369  141.5182  158.0500 H   0  0  0  0  0  0  0  0  0  0  0  0
  153.5699  140.9880  161.1965 H   0  0  0  0  0  0  0  0  0  0  0  0
  152.3042  144.9683  162.2342 H   0  0  0  0  0  0  0  0  0  0  0  0
  151.4298  145.2956  159.9298 H   0  0  0  0  0  0  0  0  0  0  0  0
  1  2  1  0  0  0  0
  1 21  1  0  0  0  0
  2  3  1  0  0  0  0
  2 13  1  0  0  0  0
  2 22  1  0  0  0  0
  3  4  1  0  0  0  0
  3 23  1  0  0  0  0
  3 24  1  0  0  0  0
  4 12  1  0  0  0  0
  4  5  1  0  0  0  0
  5  6  2  0  0  0  0
  5 25  1  0  0  0  0
  6  7  1  0  0  0  0
  7 12  2  0  0  0  0
  7  8  1  0  0  0  0
  8  9  2  0  0  0  0
  8 26  1  0  0  0  0
  9 10  1  0  0  0  0
  9 27  1  0  0  0  0
 10 11  2  0  0  0  0
 10 28  1  0  0  0  0
 11 12  1  0  0  0  0
 11 29  1  0  0  0  0
 13 19  1  0  0  0  0
 13 14  2  0  0  0  0
 14 15  1  0  0  0  0
 14 30  1  0  0  0  0
 15 16  1  0  0  0  0
 15 17  2  0  0  0  0
 17 18  1  0  0  0  0
 17 31  1  0  0  0  0
 18 19  2  0  0  0  0
 18 32  1  0  0  0  0
 19 20  1  0  0  0  0
M  END
> <s_m_source_file>
AV-unprocessed.smi

> <i_m_source_file_index>
1877

> <i_lp_mmshare_version>
43012

> <i_f3d_flags>
0

> <s_epik_input>
RmMxW2NIXVtjSF1jKEYpW2NIXWMxW0NASF0oW09IXSlbQ0gyXW4oW2NIXW4yKWMoYzIzKVtjSF1bY0hdW2NIXVtjSF0z

> <s_epik_cmdline>
J2VwaWtfcHl0aG9uJywgJy1waCcsICc3LjAnLCAnLXRuJywgJzgnLCAnLW1hJywgJzIwMCcsICctbWV0YWxfYmluZGluZycsICctaW1hZScsICc8aW5maWxlLm1hZT4nLCAnLW9tYWUnLCAnPG91dGZpbGUubWFlPic=

> <r_epik_Ionization_Penalty>
0.0696522

> <r_epik_Ionization_Penalty_Charging>
0

> <r_epik_Ionization_Penalty_Neutral>
0.0696522

> <r_epik_State_Penalty>
0.0610247

> <r_epik_Charging_Adjusted_Penalty>
0.0610247

> <i_epik_Tot_Q>
0

> <i_epik_Tot_abs_Q>
0

> <r_epik_Metal_State_Penalty>
6.42746e-05

> <b_epik_Metal_Only>
0

> <s_lp_Force_Field>
OPLS_2005

> <r_lp_Energy>
11.5038

> <b_lp_Chiralities_Consistent>
1

> <s_lp_Variant>
AV-unprocessed.smi:1877-2

> <Gold.Version>
5.8.1

> <Gold.Id.Protein>
6NUR|6NUR_protein|mol2

> <Gold.PLP.Fitness>
53.8009

> <Gold.PLP.PLP>
-50.5239

> <Gold.PLP.part.hbond>
-1.9941

> <Gold.PLP.part.metal>
0.0000

> <Gold.PLP.part.buried>
-4.6390

> <Gold.PLP.part.nonpolar>
-43.1307

> <Gold.PLP.part.repulsive>
0.0776

> <Gold.PLP.ligand.clash>
0.0000

> <Gold.PLP.ligand.torsion>
1.2044

> <Gold.PLP.Chemscore.Hbond>
1.8892

> <Gold.PLP.Chemscore.CHOScore>
0.0000

> <Gold.PLP.Chemscore.Metal>
0.0000

> <Gold.Chemscore.Hbonds>
donor molecule, donor type, donor heavy atom, donor atom, acceptor molecule, acceptor atom, score
      P1  H  7989  7998       L1     6  1.00
      P1  H  7997  8008       L1     1  0.68

> <Gold.PLP.Chemscore.Internal.Correction>
0.0183

> <Gold.Rescore>
     Score         DG    S(hbond)    S(metal)    S(lipo)     H(rot)  DE(clash)    DE(int)     intcor
     17.01     -18.14       1.45        0.00     110.58       2.00       0.02       1.11       ----

> <Gold.Chemscore.Fitness>
17.0105

> <Gold.Chemscore.DG>
-18.1443

> <Gold.Chemscore.ZeroCoef>
-5.4800

> <Gold.Chemscore.Hbond>
1.4543

> <Gold.Chemscore.Metal>
0.0000

> <Gold.Chemscore.Lipo>
110.5761

> <Gold.Chemscore.Internal_Hbond>
0.0000

> <Gold.Chemscore.DEClash>
0.0211

> <Gold.Chemscore.DEInternal>
1.1127

> <Gold.Chemscore.Rot>
2.0040

> <Gold.Chemscore.Internal.Correction>
   9.000000E+99

> <Gold.Chemscore.Hbonds>
donor molecule, donor type, donor heavy atom, donor atom, acceptor molecule, acceptor atom, score
      P1  H  7989  7998       L1     6  0.30
      P1  H  7997  8008       L1     1  0.18

> <Gold.Chemscore.Hbond.Weighted>
-4.8572

> <Gold.Chemscore.Metal.Weighted>
-0.0000

> <Gold.Chemscore.Lipo.Weighted>
-12.9374

> <Gold.Chemscore.Internal_Hbond.Weighted>
0.0000

> <Gold.Chemscore.DEClash.Weighted>
0.0211

> <Gold.Chemscore.DEInternal.Weighted>
1.1127

> <Gold.Chemscore.Rot.Weighted>
5.1303

> <Gold.Chemscore.Internal.Correction.Weighted>
   9.000000E+99

> <Gold.Protein.RotatedTorsions>
[ 6907 6896 6895 6894 ] final  -72.86 input  -60.11 | X-H torsion
[ 7974 7965 7964 7962 ] final -141.34 input  175.53 | X-H torsion
[ 8008 7997 7996 7995 ] final -116.42 input   59.86 | X-H torsion
[ 10167 10162 10161 10158 ] final -115.86 input  -65.29 | X-H torsion
[ 10718 10713 10712 10709 ] final   81.97 input   66.30 | X-H torsion
[ 10763 10752 10751 10750 ] final  -88.31 input  -60.55 | X-H torsion
[ 11005 11000 10999 10996 ] final  163.92 input  -57.11 | X-H torsion

> <Gold.Protein.ActiveResidues>
 VAL166  LYS551  ARG553  GLY616  TRP617  ASP618  TYR619  PRO620  LYS621  CYS622 
 ASP623  PHE694  ASN695  SER759  ASP760  ASP761  ALA762  ILE779  LEU786  VAL792 
 PHE793  MET794  SER795  GLU796  ALA797  LYS798  CYS799  TRP800  GLU811  SER814 

> <Gold.Protein.RotatedAtoms>
  150.7153  134.5102  159.5603 H   0  0  0  0  0  0  0  0  0  0  0  0  # atno 6907 bound_to 6896
  152.2680  134.7960  160.0428 H   0  0  0  0  0  0  0  0  0  0  0  0  # atno 6908 bound_to 6896
  151.8650  133.3429  159.3753 H   0  0  0  0  0  0  0  0  0  0  0  0  # atno 6909 bound_to 6896
  144.8527  140.6092  143.5379 H   0  0  0  0  0  0  0  0  0  0  0  0  # atno 7974 bound_to 7965
  155.0675  140.0393  157.2597 H   0  0  0  0  0  0  0  0  0  0  0  0  # atno 8008 bound_to 7997
  154.7009  140.2673  155.6696 H   0  0  0  0  0  0  0  0  0  0  0  0  # atno 8009 bound_to 7997
  156.2760  140.2741  156.1619 H   0  0  0  0  0  0  0  0  0  0  0  0  # atno 8010 bound_to 7997
  140.0855  143.4748  152.1900 H   0  0  0  0  0  0  0  0  0  0  0  0  # atno 10167 bound_to 10162
  157.6846  131.0027  150.2306 H   0  0  0  0  0  0  0  0  0  0  0  0  # atno 10718 bound_to 10713
  154.6431  135.5382  153.7813 H   0  0  0  0  0  0  0  0  0  0  0  0  # atno 10763 bound_to 10752
  153.0344  135.6464  154.1130 H   0  0  0  0  0  0  0  0  0  0  0  0  # atno 10764 bound_to 10752
  154.1053  135.2930  155.3222 H   0  0  0  0  0  0  0  0  0  0  0  0  # atno 10765 bound_to 10752
  140.2407  134.8053  157.3408 H   0  0  0  0  0  0  0  0  0  0  0  0  # atno 11005 bound_to 11000
  145.4467  139.1528  143.3940 LP  0  0  0  0  0  0  0  0  0  0  0  0  # atno 17320 bound_to 7965
  146.2798  140.4591  142.8781 LP  0  0  0  0  0  0  0  0  0  0  0  0  # atno 17321 bound_to 7965
  139.5754  144.7485  151.3778 LP  0  0  0  0  0  0  0  0  0  0  0  0  # atno 17342 bound_to 10162
  140.7055  143.7523  150.7475 LP  0  0  0  0  0  0  0  0  0  0  0  0  # atno 17343 bound_to 10162
  156.2939  130.3749  149.7814 LP  0  0  0  0  0  0  0  0  0  0  0  0  # atno 17370 bound_to 10713
  156.5465  130.8323  151.3286 LP  0  0  0  0  0  0  0  0  0  0  0  0  # atno 17371 bound_to 10713
  140.1656  134.4673  155.7865 LP  0  0  0  0  0  0  0  0  0  0  0  0  # atno 17394 bound_to 11000
  141.2211  133.6920  156.7620 LP  0  0  0  0  0  0  0  0  0  0  0  0  # atno 17395 bound_to 11000

$$$$
