AV-unprocessed.smi:1809|AV-procd|sdf|7328|dock4
  -GOLD-   22720 8583D 1   1.00000     0.00000
 Structure written by MMmdl.
 39 41  0  0  0  0  0  0  0  0  3 V2000
  147.2526  136.6030  162.6443 C   0  0  0  0  0  0  0  0  0  0  0  0
  147.7133  136.0430  161.3424 C   0  0  0  0  0  0  0  0  0  0  0  0
  148.7449  136.5500  160.6629 N   0  0  0  0  0  0  0  0  0  0  0  0
  148.9845  135.8588  159.4838 N   0  0  0  0  0  0  0  0  0  0  0  0
  148.1410  134.8341  159.2944 C   0  0  0  0  0  0  0  0  0  0  0  0
  148.2048  134.0377  158.2141 N   0  5  0  0  0  0  0  0  0  0  0  0
  149.1179  134.2842  157.2479 C   0  0  0  0  0  0  0  0  0  0  0  0
  150.1400  134.9647  157.3617 O   0  0  0  0  0  0  0  0  0  0  0  0
  148.8315  133.7046  156.0756 N   0  0  0  0  0  0  0  0  0  0  0  0
  149.6467  133.8046  154.8727 C   0  0  0  0  0  0  0  0  0  0  0  0
  148.9505  133.1252  153.6860 C   0  0  1  0  0  0  0  0  0  0  0  0
  148.5813  131.6569  154.0039 C   0  0  0  0  0  0  0  0  0  0  0  0
  147.8106  131.1165  152.8694 N   0  3  1  0  0  0  0  0  0  0  0  0
  147.3597  129.7157  152.9337 C   0  0  0  0  0  0  0  0  0  0  0  0
  146.1333  129.6519  152.0006 C   0  0  0  0  0  0  0  0  0  0  0  0
  145.8695  131.1027  151.5575 C   0  0  0  0  0  0  0  0  0  0  0  0
  146.6141  131.9198  152.6080 C   0  0  2  0  0  0  0  0  0  0  0  0
  147.0406  133.3494  152.2521 C   0  0  0  0  0  0  0  0  0  0  0  0
  147.7673  133.8682  153.3670 O   0  0  0  0  0  0  0  0  0  0  0  0
  146.9465  134.6600  160.5798 S   0  0  0  0  0  0  0  0  0  0  0  0
  147.9506  136.3292  163.4354 H   0  0  0  0  0  0  0  0  0  0  0  0
  146.2663  136.2133  162.8967 H   0  0  0  0  0  0  0  0  0  0  0  0
  147.1934  137.6901  162.5871 H   0  0  0  0  0  0  0  0  0  0  0  0
  147.9886  133.1521  156.0206 H   0  0  0  0  0  0  0  0  0  0  0  0
  149.8163  134.8595  154.6524 H   0  0  0  0  0  0  0  0  0  0  0  0
  150.6233  133.3497  155.0465 H   0  0  0  0  0  0  0  0  0  0  0  0
  149.6196  133.1453  152.8236 H   0  0  0  0  0  0  0  0  0  0  0  0
  149.4804  131.0585  154.1557 H   0  0  0  0  0  0  0  0  0  0  0  0
  147.9894  131.5963  154.9187 H   0  0  0  0  0  0  0  0  0  0  0  0
  148.1552  129.0361  152.6269 H   0  0  0  0  0  0  0  0  0  0  0  0
  147.0691  129.4620  153.9545 H   0  0  0  0  0  0  0  0  0  0  0  0
  146.3116  129.0065  151.1398 H   0  0  0  0  0  0  0  0  0  0  0  0
  145.2743  129.2502  152.5397 H   0  0  0  0  0  0  0  0  0  0  0  0
  146.3020  131.2736  150.5707 H   0  0  0  0  0  0  0  0  0  0  0  0
  144.8075  131.3449  151.5074 H   0  0  0  0  0  0  0  0  0  0  0  0
  146.0056  131.9472  153.5151 H   0  0  0  0  0  0  0  0  0  0  0  0
  147.6561  133.3734  151.3515 H   0  0  0  0  0  0  0  0  0  0  0  0
  146.1676  133.9762  152.0691 H   0  0  0  0  0  0  0  0  0  0  0  0
  148.3915  131.1937  152.0466 H   0  0  0  0  0  0  0  0  0  0  0  0
  1  2  1  0  0  0  0
  1 21  1  0  0  0  0
  1 22  1  0  0  0  0
  1 23  1  0  0  0  0
  2 20  1  0  0  0  0
  2  3  2  0  0  0  0
  3  4  1  0  0  0  0
  4  5  2  0  0  0  0
  5  6  1  0  0  0  0
  5 20  1  0  0  0  0
  6  7  1  0  0  0  0
  7  8  2  0  0  0  0
  7  9  1  0  0  0  0
  9 10  1  0  0  0  0
  9 24  1  0  0  0  0
 10 11  1  0  0  0  0
 10 25  1  0  0  0  0
 10 26  1  0  0  0  0
 11 19  1  0  0  0  0
 11 12  1  0  0  0  0
 11 27  1  0  0  0  0
 12 13  1  0  0  0  0
 12 28  1  0  0  0  0
 12 29  1  0  0  0  0
 13 17  1  0  0  0  0
 13 14  1  0  0  0  0
 13 39  1  0  0  0  0
 14 15  1  0  0  0  0
 14 30  1  0  0  0  0
 14 31  1  0  0  0  0
 15 16  1  0  0  0  0
 15 32  1  0  0  0  0
 15 33  1  0  0  0  0
 16 17  1  0  0  0  0
 16 34  1  0  0  0  0
 16 35  1  0  0  0  0
 17 18  1  0  0  0  0
 17 36  1  0  0  0  0
 18 19  1  0  0  0  0
 18 37  1  0  0  0  0
 18 38  1  0  0  0  0
M  CHG  1   6  -1
M  CHG  1  13   1
M  END
> <s_m_source_file>
AV-unprocessed.smi

> <i_m_source_file_index>
1809

> <i_lp_mmshare_version>
43012

> <i_f3d_flags>
0

> <s_epik_input>
W0NIM11jMW5uYyhzMSlbTkhdQyg9TylbTkhdW0NIMl1bQ0BIXShbQ0gyXTIpT1tDSDJdW0NAQEhdKE4yMylbQ0gyXVtDSDJdW0NIMl0z

> <s_epik_cmdline>
J2VwaWtfcHl0aG9uJywgJy1waCcsICc3LjAnLCAnLXRuJywgJzgnLCAnLW1hJywgJzIwMCcsICctbWV0YWxfYmluZGluZycsICctaW1hZScsICc8aW5maWxlLm1hZT4nLCAnLW9tYWUnLCAnPG91dGZpbGUubWFlPic=

> <r_lp_tautomer_probability>
1

> <r_epik_Ionization_Penalty>
3.2601

> <r_epik_Ionization_Penalty_Charging>
3.1406

> <r_epik_Ionization_Penalty_Neutral>
0.119497

> <r_epik_State_Penalty>
3.08894

> <r_epik_Charging_Adjusted_Penalty>
6.22954

> <i_epik_Tot_Q>
0

> <i_epik_Tot_abs_Q>
2

> <r_epik_Metal_State_Penalty>
0.510807

> <b_epik_Metal_Only>
1

> <s_lp_Force_Field>
OPLS_2005

> <r_lp_Energy>
29.8237

> <b_lp_Chiralities_Consistent>
1

> <s_lp_Variant>
AV-unprocessed.smi:1809-20

> <Gold.Version>
5.8.1

> <Gold.Id.Protein>
6NUR|6NUR_protein|mol2

> <Gold.PLP.Fitness>
40.7130

> <Gold.PLP.PLP>
-32.7879

> <Gold.PLP.part.hbond>
-4.0000

> <Gold.PLP.part.metal>
0.0000

> <Gold.PLP.part.buried>
-4.7513

> <Gold.PLP.part.nonpolar>
-25.6382

> <Gold.PLP.part.repulsive>
1.0594

> <Gold.PLP.ligand.clash>
0.0000

> <Gold.PLP.ligand.torsion>
0.1144

> <Gold.PLP.Chemscore.Hbond>
2.7073

> <Gold.PLP.Chemscore.CHOScore>
0.0000

> <Gold.PLP.Chemscore.Metal>
0.0000

> <Gold.Chemscore.Hbonds>
donor molecule, donor type, donor heavy atom, donor atom, acceptor molecule, acceptor atom, score
      L1  H    13    39       P1 10747  1.00
      P1  H  6896  6908       L1     4  0.83
      P1  H  6931  6943       L1     3  0.65

> <Gold.PLP.Chemscore.Internal.Correction>
0.0321

> <Gold.Rescore>
     Score         DG    S(hbond)    S(metal)    S(lipo)     H(rot)  DE(clash)    DE(int)     intcor
     15.20     -17.04       1.89        0.00      73.70       1.32       0.00       1.83       ----

> <Gold.Chemscore.Fitness>
15.2013

> <Gold.Chemscore.DG>
-17.0362

> <Gold.Chemscore.ZeroCoef>
-5.4800

> <Gold.Chemscore.Hbond>
1.8934

> <Gold.Chemscore.Metal>
0.0000

> <Gold.Chemscore.Lipo>
73.7033

> <Gold.Chemscore.Internal_Hbond>
0.0000

> <Gold.Chemscore.DEClash>
0.0015

> <Gold.Chemscore.DEInternal>
1.8334

> <Gold.Chemscore.Rot>
1.3246

> <Gold.Chemscore.Internal.Correction>
   9.000000E+99

> <Gold.Chemscore.Hbonds>
donor molecule, donor type, donor heavy atom, donor atom, acceptor molecule, acceptor atom, score
      L1  H    13    39       P1 10747  0.99
      P1  H  6896  6908       L1     4  0.16
      P1  H  6931  6943       L1     3  0.11

> <Gold.Chemscore.Hbond.Weighted>
-6.3239

> <Gold.Chemscore.Metal.Weighted>
-0.0000

> <Gold.Chemscore.Lipo.Weighted>
-8.6233

> <Gold.Chemscore.Internal_Hbond.Weighted>
0.0000

> <Gold.Chemscore.DEClash.Weighted>
0.0015

> <Gold.Chemscore.DEInternal.Weighted>
1.8334

> <Gold.Chemscore.Rot.Weighted>
3.3910

> <Gold.Chemscore.Internal.Correction.Weighted>
   9.000000E+99

> <Gold.Protein.RotatedTorsions>
[ 6907 6896 6895 6894 ] final -171.69 input  -60.11 | X-H torsion
[ 7974 7965 7964 7962 ] final  -86.65 input  175.53 | X-H torsion
[ 8008 7997 7996 7995 ] final  169.97 input   59.86 | X-H torsion
[ 10167 10162 10161 10158 ] final  -22.81 input  -65.29 | X-H torsion
[ 10718 10713 10712 10709 ] final  103.00 input   66.30 | X-H torsion
[ 10763 10752 10751 10750 ] final  140.65 input  -60.55 | X-H torsion
[ 11005 11000 10999 10996 ] final -131.02 input  -57.11 | X-H torsion

> <Gold.Protein.ActiveResidues>
 VAL166  LYS551  ARG553  GLY616  TRP617  ASP618  TYR619  PRO620  LYS621  CYS622 
 ASP623  PHE694  ASN695  SER759  ASP760  ASP761  ALA762  ILE779  LEU786  VAL792 
 PHE793  MET794  SER795  GLU796  ALA797  LYS798  CYS799  TRP800  GLU811  SER814 

> <Gold.Protein.RotatedAtoms>
  151.5280  133.3454  159.2912 H   0  0  0  0  0  0  0  0  0  0  0  0  # atno 6907 bound_to 6896
  150.8611  134.7966  159.7094 H   0  0  0  0  0  0  0  0  0  0  0  0  # atno 6908 bound_to 6896
  152.4630  134.5149  159.9817 H   0  0  0  0  0  0  0  0  0  0  0  0  # atno 6909 bound_to 6896
  145.4771  140.9558  143.1885 H   0  0  0  0  0  0  0  0  0  0  0  0  # atno 7974 bound_to 7965
  156.1409  140.1550  156.8922 H   0  0  0  0  0  0  0  0  0  0  0  0  # atno 8008 bound_to 7997
  154.4986  140.0831  156.7789 H   0  0  0  0  0  0  0  0  0  0  0  0  # atno 8009 bound_to 7997
  155.4081  140.3417  155.4264 H   0  0  0  0  0  0  0  0  0  0  0  0  # atno 8010 bound_to 7997
  140.7287  143.4500  151.0530 H   0  0  0  0  0  0  0  0  0  0  0  0  # atno 10167 bound_to 10162
  157.6785  131.0767  150.5489 H   0  0  0  0  0  0  0  0  0  0  0  0  # atno 10718 bound_to 10713
  153.9262  135.2995  155.3447 H   0  0  0  0  0  0  0  0  0  0  0  0  # atno 10763 bound_to 10752
  154.7550  135.4962  153.9361 H   0  0  0  0  0  0  0  0  0  0  0  0  # atno 10764 bound_to 10752
  153.1115  135.6760  153.9595 H   0  0  0  0  0  0  0  0  0  0  0  0  # atno 10765 bound_to 10752
  140.9295  134.1338  157.4246 H   0  0  0  0  0  0  0  0  0  0  0  0  # atno 11005 bound_to 11000
  144.7911  139.6327  143.7113 LP  0  0  0  0  0  0  0  0  0  0  0  0  # atno 17320 bound_to 7965
  146.2363  139.5911  142.9521 LP  0  0  0  0  0  0  0  0  0  0  0  0  # atno 17321 bound_to 7965
  139.8176  143.7865  152.3175 LP  0  0  0  0  0  0  0  0  0  0  0  0  # atno 17342 bound_to 10162
  139.7936  144.7401  150.9921 LP  0  0  0  0  0  0  0  0  0  0  0  0  # atno 17343 bound_to 10162
  156.5794  130.4300  149.5984 LP  0  0  0  0  0  0  0  0  0  0  0  0  # atno 17370 bound_to 10713
  156.2674  130.6997  151.1784 LP  0  0  0  0  0  0  0  0  0  0  0  0  # atno 17371 bound_to 10713
  139.8793  135.0000  156.5986 LP  0  0  0  0  0  0  0  0  0  0  0  0  # atno 17394 bound_to 11000
  140.7881  133.8605  155.8623 LP  0  0  0  0  0  0  0  0  0  0  0  0  # atno 17395 bound_to 11000

$$$$
