AV-unprocessed.smi:2404|AV-procd|sdf|9511|dock7
  -GOLD-   2272013143D 1   1.00000     0.00000
 Structure written by MMmdl.
 42 42  0  0  0  0  0  0  0  0  2 V2000
  150.3520  138.8863  154.3696 C   0  0  0  0  0  0  0  0  0  0  0  0
  149.4886  139.5406  155.4645 C   0  0  0  0  0  0  0  0  0  0  0  0
  150.0625  139.5018  156.9131 C   0  0  0  0  0  0  0  0  0  0  0  0
  149.1826  140.3422  157.8972 C   0  0  0  0  0  0  0  0  0  0  0  0
  148.6886  141.7031  157.3769 C   0  0  0  0  0  0  0  0  0  0  0  0
  150.1291  138.0102  157.3678 C   0  0  0  0  0  0  0  0  0  0  0  0
  148.9892  137.6093  158.1905 N   0  0  0  0  0  0  0  0  0  0  0  0
  148.7369  136.3726  158.6455 C   0  0  0  0  0  0  0  0  0  0  0  0
  149.5281  135.4342  158.5555 O   0  0  0  0  0  0  0  0  0  0  0  0
  147.3577  136.1526  159.2705 C   0  0  0  0  0  0  0  0  0  0  0  0
  147.4680  135.9315  160.7054 N   0  0  0  0  0  0  0  0  0  0  0  0
  147.8313  136.9596  161.5030 N   0  0  0  0  0  0  0  0  0  0  0  0
  147.7868  136.4695  162.7305 C   0  0  0  0  0  0  0  0  0  0  0  0
  148.1073  137.3621  163.8923 C   0  0  0  0  0  0  0  0  0  0  0  0
  147.4126  135.0968  162.7497 C   0  0  0  0  0  0  0  0  0  0  0  0
  147.2116  134.7836  161.4351 C   0  0  0  0  0  0  0  0  0  0  0  0
  146.7830  133.4988  160.8056 C   0  0  0  0  0  0  0  0  0  0  0  0
  151.5133  140.0698  156.8975 C   0  0  0  0  0  0  0  0  0  0  0  0
  151.7775  141.0772  157.5924 O   0  0  0  0  0  0  0  0  0  0  0  0
  152.3537  139.4668  156.1928 O   0  5  0  0  0  0  0  0  0  0  0  0
  149.8498  138.9466  153.4040 H   0  0  0  0  0  0  0  0  0  0  0  0
  150.5377  137.8313  154.5719 H   0  0  0  0  0  0  0  0  0  0  0  0
  151.3151  139.3844  154.2634 H   0  0  0  0  0  0  0  0  0  0  0  0
  149.2932  140.5738  155.1775 H   0  0  0  0  0  0  0  0  0  0  0  0
  148.5072  139.0640  155.4480 H   0  0  0  0  0  0  0  0  0  0  0  0
  148.3068  139.7652  158.1954 H   0  0  0  0  0  0  0  0  0  0  0  0
  149.7288  140.5207  158.8242 H   0  0  0  0  0  0  0  0  0  0  0  0
  148.0734  142.1935  158.1314 H   0  0  0  0  0  0  0  0  0  0  0  0
  148.0764  141.6014  156.4819 H   0  0  0  0  0  0  0  0  0  0  0  0
  149.5150  142.3753  157.1494 H   0  0  0  0  0  0  0  0  0  0  0  0
  150.2478  137.3487  156.5094 H   0  0  0  0  0  0  0  0  0  0  0  0
  151.0231  137.8465  157.9712 H   0  0  0  0  0  0  0  0  0  0  0  0
  148.2698  138.3071  158.3211 H   0  0  0  0  0  0  0  0  0  0  0  0
  146.7183  137.0182  159.0934 H   0  0  0  0  0  0  0  0  0  0  0  0
  146.8746  135.2941  158.8015 H   0  0  0  0  0  0  0  0  0  0  0  0
  148.0555  136.8161  164.8344 H   0  0  0  0  0  0  0  0  0  0  0  0
  147.4030  138.1925  163.9518 H   0  0  0  0  0  0  0  0  0  0  0  0
  149.1108  137.7786  163.8039 H   0  0  0  0  0  0  0  0  0  0  0  0
  147.2944  134.4448  163.6021 H   0  0  0  0  0  0  0  0  0  0  0  0
  146.7152  132.7050  161.5497 H   0  0  0  0  0  0  0  0  0  0  0  0
  147.4930  133.1823  160.0415 H   0  0  0  0  0  0  0  0  0  0  0  0
  145.8038  133.6031  160.3378 H   0  0  0  0  0  0  0  0  0  0  0  0
  1  2  1  0  0  0  0
  1 21  1  0  0  0  0
  1 22  1  0  0  0  0
  1 23  1  0  0  0  0
  2  3  1  0  0  0  0
  2 24  1  0  0  0  0
  2 25  1  0  0  0  0
  3  4  1  0  0  0  0
  3  6  1  0  0  0  0
  3 18  1  0  0  0  0
  4  5  1  0  0  0  0
  4 26  1  0  0  0  0
  4 27  1  0  0  0  0
  5 28  1  0  0  0  0
  5 29  1  0  0  0  0
  5 30  1  0  0  0  0
  6  7  1  0  0  0  0
  6 31  1  0  0  0  0
  6 32  1  0  0  0  0
  7  8  1  0  0  0  0
  7 33  1  0  0  0  0
  8  9  2  0  0  0  0
  8 10  1  0  0  0  0
 10 11  1  0  0  0  0
 10 34  1  0  0  0  0
 10 35  1  0  0  0  0
 11 16  1  0  0  0  0
 11 12  1  0  0  0  0
 12 13  2  0  0  0  0
 13 14  1  0  0  0  0
 13 15  1  0  0  0  0
 14 36  1  0  0  0  0
 14 37  1  0  0  0  0
 14 38  1  0  0  0  0
 15 16  2  0  0  0  0
 15 39  1  0  0  0  0
 16 17  1  0  0  0  0
 17 40  1  0  0  0  0
 17 41  1  0  0  0  0
 17 42  1  0  0  0  0
 18 19  2  0  0  0  0
 18 20  1  0  0  0  0
M  CHG  1  20  -1
M  END
> <s_m_source_file>
AV-unprocessed.smi

> <i_m_source_file_index>
2404

> <i_lp_mmshare_version>
43012

> <i_f3d_flags>
0

> <s_epik_input>
W0NIM11bQ0gyXUMoW0NIMl1bQ0gzXSkoQyg9TylbT0hdKVtDSDJdW05IXUMoPU8pW0NIMl1uMW5jKFtDSDNdKVtjSF1jMVtDSDNd

> <s_epik_cmdline>
J2VwaWtfcHl0aG9uJywgJy1waCcsICc3LjAnLCAnLXRuJywgJzgnLCAnLW1hJywgJzIwMCcsICctbWV0YWxfYmluZGluZycsICctaW1hZScsICc8aW5maWxlLm1hZT4nLCAnLW9tYWUnLCAnPG91dGZpbGUubWFlPic=

> <r_lp_tautomer_probability>
1

> <r_epik_Ionization_Penalty>
0.00271888

> <r_epik_Ionization_Penalty_Charging>
0.00235221

> <r_epik_Ionization_Penalty_Neutral>
0.000366676

> <r_epik_State_Penalty>
-0

> <r_epik_Charging_Adjusted_Penalty>
0.00235221

> <i_epik_Tot_Q>
-1

> <i_epik_Tot_abs_Q>
1

> <r_epik_Metal_State_Penalty>
-0

> <b_epik_Metal_Only>
0

> <s_lp_Force_Field>
OPLS_2005

> <r_lp_Energy>
2.14996

> <b_lp_Chiralities_Consistent>
1

> <s_lp_Variant>
AV-unprocessed.smi:2404-1

> <Gold.Version>
5.8.1

> <Gold.Id.Protein>
6NUR|6NUR_protein|mol2

> <Gold.PLP.Fitness>
44.3175

> <Gold.PLP.PLP>
-33.2897

> <Gold.PLP.part.hbond>
-4.0000

> <Gold.PLP.part.metal>
0.0000

> <Gold.PLP.part.buried>
-2.0782

> <Gold.PLP.part.nonpolar>
-27.2720

> <Gold.PLP.part.repulsive>
0.1352

> <Gold.PLP.ligand.clash>
0.0000

> <Gold.PLP.ligand.torsion>
1.1866

> <Gold.PLP.Chemscore.Hbond>
4.4219

> <Gold.PLP.Chemscore.CHOScore>
0.0000

> <Gold.PLP.Chemscore.Metal>
0.0000

> <Gold.Chemscore.Hbonds>
donor molecule, donor type, donor heavy atom, donor atom, acceptor molecule, acceptor atom, score
      P1  H  6896  6909       L1     9  1.00
      P1  H  6931  6943       L1    12  0.70
      P1  H  6934  6947       L1    12  0.39
      P1  H  7997  8010       L1    20  1.69

> <Gold.PLP.Chemscore.Internal.Correction>
0.1351

> <Gold.Rescore>
     Score         DG    S(hbond)    S(metal)    S(lipo)     H(rot)  DE(clash)    DE(int)     intcor
     13.97     -17.26       2.95        0.00      69.32       2.42       0.69       2.60       ----

> <Gold.Chemscore.Fitness>
13.9695

> <Gold.Chemscore.DG>
-17.2564

> <Gold.Chemscore.ZeroCoef>
-5.4800

> <Gold.Chemscore.Hbond>
2.9493

> <Gold.Chemscore.Metal>
0.0000

> <Gold.Chemscore.Lipo>
69.3209

> <Gold.Chemscore.Internal_Hbond>
0.0000

> <Gold.Chemscore.DEClash>
0.6878

> <Gold.Chemscore.DEInternal>
2.5990

> <Gold.Chemscore.Rot>
2.4159

> <Gold.Chemscore.Internal.Correction>
   9.000000E+99

> <Gold.Chemscore.Hbonds>
donor molecule, donor type, donor heavy atom, donor atom, acceptor molecule, acceptor atom, score
      P1  H  6896  6909       L1     9  1.00
      P1  H  6931  6943       L1    12  0.07
      P1  H  6934  6947       L1    12  0.36
      P1  H  7997  8010       L1    20  0.76

> <Gold.Chemscore.Hbond.Weighted>
-9.8507

> <Gold.Chemscore.Metal.Weighted>
-0.0000

> <Gold.Chemscore.Lipo.Weighted>
-8.1105

> <Gold.Chemscore.Internal_Hbond.Weighted>
0.0000

> <Gold.Chemscore.DEClash.Weighted>
0.6878

> <Gold.Chemscore.DEInternal.Weighted>
2.5990

> <Gold.Chemscore.Rot.Weighted>
6.1848

> <Gold.Chemscore.Internal.Correction.Weighted>
   9.000000E+99

> <Gold.Protein.RotatedTorsions>
[ 6907 6896 6895 6894 ] final   42.05 input  -60.11 | X-H torsion
[ 7974 7965 7964 7962 ] final   85.93 input  175.53 | X-H torsion
[ 8008 7997 7996 7995 ] final   76.47 input   59.86 | X-H torsion
[ 10167 10162 10161 10158 ] final -162.42 input  -65.29 | X-H torsion
[ 10718 10713 10712 10709 ] final -148.50 input   66.30 | X-H torsion
[ 10763 10752 10751 10750 ] final   89.69 input  -60.55 | X-H torsion
[ 11005 11000 10999 10996 ] final -168.79 input  -57.11 | X-H torsion

> <Gold.Protein.ActiveResidues>
 VAL166  LYS551  ARG553  GLY616  TRP617  ASP618  TYR619  PRO620  LYS621  CYS622 
 ASP623  PHE694  ASN695  SER759  ASP760  ASP761  ALA762  ILE779  LEU786  VAL792 
 PHE793  MET794  SER795  GLU796  ALA797  LYS798  CYS799  TRP800  GLU811  SER814 

> <Gold.Protein.RotatedAtoms>
  152.2030  134.8570  160.0505 H   0  0  0  0  0  0  0  0  0  0  0  0  # atno 6907 bound_to 6896
  151.9417  133.3635  159.3975 H   0  0  0  0  0  0  0  0  0  0  0  0  # atno 6908 bound_to 6896
  150.6959  134.4357  159.5313 H   0  0  0  0  0  0  0  0  0  0  0  0  # atno 6909 bound_to 6896
  145.5790  139.2323  143.2363 H   0  0  0  0  0  0  0  0  0  0  0  0  # atno 7974 bound_to 7965
  155.8278  140.3467  155.5554 H   0  0  0  0  0  0  0  0  0  0  0  0  # atno 8008 bound_to 7997
  155.8274  140.0922  157.1833 H   0  0  0  0  0  0  0  0  0  0  0  0  # atno 8009 bound_to 7997
  154.4004  140.1419  156.3560 H   0  0  0  0  0  0  0  0  0  0  0  0  # atno 8010 bound_to 7997
  139.6393  144.0290  152.2079 H   0  0  0  0  0  0  0  0  0  0  0  0  # atno 10167 bound_to 10162
  156.4211  130.8029  151.2252 H   0  0  0  0  0  0  0  0  0  0  0  0  # atno 10718 bound_to 10713
  153.1897  135.4461  155.0134 H   0  0  0  0  0  0  0  0  0  0  0  0  # atno 10763 bound_to 10752
  154.8083  135.3283  154.7376 H   0  0  0  0  0  0  0  0  0  0  0  0  # atno 10764 bound_to 10752
  153.7832  135.6976  153.4940 H   0  0  0  0  0  0  0  0  0  0  0  0  # atno 10765 bound_to 10752
  140.5381  134.5550  157.5092 H   0  0  0  0  0  0  0  0  0  0  0  0  # atno 11005 bound_to 11000
  146.1730  140.6617  142.9224 LP  0  0  0  0  0  0  0  0  0  0  0  0  # atno 17320 bound_to 7965
  144.7402  140.4922  143.6874 LP  0  0  0  0  0  0  0  0  0  0  0  0  # atno 17321 bound_to 7965
  139.9975  144.6317  150.7759 LP  0  0  0  0  0  0  0  0  0  0  0  0  # atno 17342 bound_to 10162
  140.7482  143.2919  151.3308 LP  0  0  0  0  0  0  0  0  0  0  0  0  # atno 17343 bound_to 10162
  157.7508  131.0228  150.3806 LP  0  0  0  0  0  0  0  0  0  0  0  0  # atno 17370 bound_to 10713
  156.4124  130.3936  149.6882 LP  0  0  0  0  0  0  0  0  0  0  0  0  # atno 17371 bound_to 10713
  139.9518  134.7603  156.0430 LP  0  0  0  0  0  0  0  0  0  0  0  0  # atno 17394 bound_to 11000
  141.1243  133.6604  156.3296 LP  0  0  0  0  0  0  0  0  0  0  0  0  # atno 17395 bound_to 11000

$$$$
