AV-unprocessed.smi:2438|AV-procd|sdf|9600|dock5
  -GOLD-   2272013233D 1   1.00000     0.00000
 Structure written by MMmdl.
 44 45  0  0  0  0  0  0  0  0  2 V2000
  145.0034  141.7311  155.3496 C   0  0  0  0  0  0  0  0  0  0  0  0
  146.1625  142.1344  154.5654 N   0  0  0  0  0  0  0  0  0  0  0  0
  145.9441  143.2018  153.5968 C   0  0  0  0  0  0  0  0  0  0  0  0
  146.9579  141.0517  154.1398 C   0  0  0  0  0  0  0  0  0  0  0  0
  146.3819  140.1101  153.3573 N   0  0  0  0  0  0  0  0  0  0  0  0
  147.0973  139.0589  152.9458 C   0  0  0  0  0  0  0  0  0  0  0  0
  148.3844  138.8841  153.2709 N   0  3  0  0  0  0  0  0  0  0  0  0
  149.0097  139.7990  154.0495 C   0  0  0  0  0  0  0  0  0  0  0  0
  148.3147  140.9356  154.5290 C   0  0  0  0  0  0  0  0  0  0  0  0
  148.9140  141.9594  155.3196 N   0  0  0  0  0  0  0  0  0  0  0  0
  150.0631  141.9315  156.0154 C   0  0  0  0  0  0  0  0  0  0  0  0
  150.8214  140.9662  156.0962 O   0  0  0  0  0  0  0  0  0  0  0  0
  150.2800  143.1032  156.6299 N   0  0  0  0  0  0  0  0  0  0  0  0
  151.4328  143.4335  157.4641 C   0  0  1  0  0  0  0  0  0  0  0  0
  151.1444  144.7161  158.2649 C   0  0  0  0  0  0  0  0  0  0  0  0
  152.3026  145.0500  159.2166 C   0  0  0  0  0  0  0  0  0  0  0  0
  152.6132  143.8712  160.1522 C   0  0  0  0  0  0  0  0  0  0  0  0
  152.9175  142.5807  159.3619 C   0  0  1  0  0  0  0  0  0  0  0  0
  153.2484  141.3967  160.2937 C   0  0  0  0  0  0  0  0  0  0  0  0
  152.3835  141.3332  161.3065 F   0  0  0  0  0  0  0  0  0  0  0  0
  153.1992  140.2517  159.6128 F   0  0  0  0  0  0  0  0  0  0  0  0
  154.4793  141.5337  160.7867 F   0  0  0  0  0  0  0  0  0  0  0  0
  151.7489  142.2562  158.4060 C   0  0  0  0  0  0  0  0  0  0  0  0
  145.2753  141.0502  156.1562 H   0  0  0  0  0  0  0  0  0  0  0  0
  144.2698  141.2321  154.7153 H   0  0  0  0  0  0  0  0  0  0  0  0
  144.5270  142.6036  155.7975 H   0  0  0  0  0  0  0  0  0  0  0  0
  146.8776  143.4789  153.1051 H   0  0  0  0  0  0  0  0  0  0  0  0
  145.5537  144.0891  154.0956 H   0  0  0  0  0  0  0  0  0  0  0  0
  145.2260  142.8973  152.8342 H   0  0  0  0  0  0  0  0  0  0  0  0
  146.6458  138.3035  152.3196 H   0  0  0  0  0  0  0  0  0  0  0  0
  150.0489  139.5792  154.2368 H   0  0  0  0  0  0  0  0  0  0  0  0
  148.3761  142.8113  155.3921 H   0  0  0  0  0  0  0  0  0  0  0  0
  149.5941  143.8336  156.5058 H   0  0  0  0  0  0  0  0  0  0  0  0
  152.3123  143.6121  156.8427 H   0  0  0  0  0  0  0  0  0  0  0  0
  150.9744  145.5522  157.5854 H   0  0  0  0  0  0  0  0  0  0  0  0
  150.2265  144.5950  158.8421 H   0  0  0  0  0  0  0  0  0  0  0  0
  153.1916  145.3015  158.6368 H   0  0  0  0  0  0  0  0  0  0  0  0
  152.0565  145.9352  159.8039 H   0  0  0  0  0  0  0  0  0  0  0  0
  153.4597  144.1302  160.7887 H   0  0  0  0  0  0  0  0  0  0  0  0
  151.7665  143.7055  160.8195 H   0  0  0  0  0  0  0  0  0  0  0  0
  153.8016  142.7685  158.7504 H   0  0  0  0  0  0  0  0  0  0  0  0
  150.8614  142.0025  158.9878 H   0  0  0  0  0  0  0  0  0  0  0  0
  151.9904  141.3732  157.8132 H   0  0  0  0  0  0  0  0  0  0  0  0
  148.9018  138.0720  152.9332 H   0  0  0  0  0  0  0  0  0  0  0  0
  1  2  1  0  0  0  0
  1 24  1  0  0  0  0
  1 25  1  0  0  0  0
  1 26  1  0  0  0  0
  2  3  1  0  0  0  0
  2  4  1  0  0  0  0
  3 27  1  0  0  0  0
  3 28  1  0  0  0  0
  3 29  1  0  0  0  0
  4  9  1  0  0  0  0
  4  5  2  0  0  0  0
  5  6  1  0  0  0  0
  6  7  2  0  0  0  0
  6 30  1  0  0  0  0
  7  8  1  0  0  0  0
  7 44  1  0  0  0  0
  8  9  2  0  0  0  0
  8 31  1  0  0  0  0
  9 10  1  0  0  0  0
 10 11  1  0  0  0  0
 10 32  1  0  0  0  0
 11 12  2  0  0  0  0
 11 13  1  0  0  0  0
 13 14  1  0  0  0  0
 13 33  1  0  0  0  0
 14 23  1  0  0  0  0
 14 15  1  0  0  0  0
 14 34  1  0  0  0  0
 15 16  1  0  0  0  0
 15 35  1  0  0  0  0
 15 36  1  0  0  0  0
 16 17  1  0  0  0  0
 16 37  1  0  0  0  0
 16 38  1  0  0  0  0
 17 18  1  0  0  0  0
 17 39  1  0  0  0  0
 17 40  1  0  0  0  0
 18 19  1  0  0  0  0
 18 23  1  0  0  0  0
 18 41  1  0  0  0  0
 19 20  1  0  0  0  0
 19 21  1  0  0  0  0
 19 22  1  0  0  0  0
 23 42  1  0  0  0  0
 23 43  1  0  0  0  0
M  CHG  1   7   1
M  END
> <s_m_source_file>
AV-unprocessed.smi

> <i_m_source_file_index>
2438

> <i_lp_mmshare_version>
43012

> <i_f3d_flags>
0

> <s_epik_input>
W0NIM11OKFtDSDNdKWMxbltjSF1uW2NIXWMxW05IXUMoPU8pW05IXVtDQEBIXTJbQ0gyXVtDSDJdW0NIMl1bQ0BASF0oQyhGKShGKUYpW0NIMl0y

> <s_epik_cmdline>
J2VwaWtfcHl0aG9uJywgJy1waCcsICc3LjAnLCAnLXRuJywgJzgnLCAnLW1hJywgJzIwMCcsICctbWV0YWxfYmluZGluZycsICctaW1hZScsICc8aW5maWxlLm1hZT4nLCAnLW9tYWUnLCAnPG91dGZpbGUubWFlPic=

> <r_lp_tautomer_probability>
0.999336

> <r_epik_Ionization_Penalty>
2.11643

> <r_epik_Ionization_Penalty_Charging>
2.11639

> <r_epik_Ionization_Penalty_Neutral>
4.47523e-05

> <r_epik_State_Penalty>
2.25369

> <r_epik_Charging_Adjusted_Penalty>
4.37008

> <i_epik_Tot_Q>
1

> <i_epik_Tot_abs_Q>
1

> <r_epik_Metal_State_Penalty>
2.27019

> <b_epik_Metal_Only>
0

> <s_lp_Force_Field>
OPLS_2005

> <r_lp_Energy>
18.5988

> <b_lp_Chiralities_Consistent>
1

> <s_lp_Variant>
AV-unprocessed.smi:2438-6

> <Gold.Version>
5.8.1

> <Gold.Id.Protein>
6NUR|6NUR_protein|mol2

> <Gold.PLP.Fitness>
53.3607

> <Gold.PLP.PLP>
-43.5359

> <Gold.PLP.part.hbond>
-3.8541

> <Gold.PLP.part.metal>
0.0000

> <Gold.PLP.part.buried>
-4.8458

> <Gold.PLP.part.nonpolar>
-36.7292

> <Gold.PLP.part.repulsive>
2.2342

> <Gold.PLP.ligand.clash>
0.0000

> <Gold.PLP.ligand.torsion>
0.9354

> <Gold.PLP.Chemscore.Hbond>
3.7771

> <Gold.PLP.Chemscore.CHOScore>
0.0000

> <Gold.PLP.Chemscore.Metal>
0.0000

> <Gold.Chemscore.Hbonds>
donor molecule, donor type, donor heavy atom, donor atom, acceptor molecule, acceptor atom, score
      L1  H     7    44       P1  7948  1.62
      L1  H    10    32       P1  8028  0.69
      L1  H    13    33       P1  8028  0.70

> <Gold.PLP.Chemscore.Internal.Correction>
0.3643

> <Gold.Rescore>
     Score         DG    S(hbond)    S(metal)    S(lipo)     H(rot)  DE(clash)    DE(int)     intcor
     17.84     -22.63       2.47        0.00     104.79       1.31       1.96       2.82       ----

> <Gold.Chemscore.Fitness>
17.8434

> <Gold.Chemscore.DG>
-22.6266

> <Gold.Chemscore.ZeroCoef>
-5.4800

> <Gold.Chemscore.Hbond>
2.4652

> <Gold.Chemscore.Metal>
0.0000

> <Gold.Chemscore.Lipo>
104.7926

> <Gold.Chemscore.Internal_Hbond>
0.0000

> <Gold.Chemscore.DEClash>
1.9582

> <Gold.Chemscore.DEInternal>
2.8250

> <Gold.Chemscore.Rot>
1.3078

> <Gold.Chemscore.Internal.Correction>
   9.000000E+99

> <Gold.Chemscore.Hbonds>
donor molecule, donor type, donor heavy atom, donor atom, acceptor molecule, acceptor atom, score
      L1  H     7    44       P1  7948  0.77
      L1  H    10    32       P1  8028  0.66
      L1  H    13    33       P1  8028  0.65

> <Gold.Chemscore.Hbond.Weighted>
-8.2339

> <Gold.Chemscore.Metal.Weighted>
-0.0000

> <Gold.Chemscore.Lipo.Weighted>
-12.2607

> <Gold.Chemscore.Internal_Hbond.Weighted>
0.0000

> <Gold.Chemscore.DEClash.Weighted>
1.9582

> <Gold.Chemscore.DEInternal.Weighted>
2.8250

> <Gold.Chemscore.Rot.Weighted>
3.3481

> <Gold.Chemscore.Internal.Correction.Weighted>
   9.000000E+99

> <Gold.Protein.RotatedTorsions>
[ 6907 6896 6895 6894 ] final   39.48 input  -60.11 | X-H torsion
[ 7974 7965 7964 7962 ] final    8.08 input  175.53 | X-H torsion
[ 8008 7997 7996 7995 ] final  121.53 input   59.86 | X-H torsion
[ 10167 10162 10161 10158 ] final  -30.05 input  -65.29 | X-H torsion
[ 10718 10713 10712 10709 ] final  -49.43 input   66.30 | X-H torsion
[ 10763 10752 10751 10750 ] final  121.12 input  -60.55 | X-H torsion
[ 11005 11000 10999 10996 ] final  163.41 input  -57.11 | X-H torsion

> <Gold.Protein.ActiveResidues>
 VAL166  LYS551  ARG553  GLY616  TRP617  ASP618  TYR619  PRO620  LYS621  CYS622 
 ASP623  PHE694  ASN695  SER759  ASP760  ASP761  ALA762  ILE779  LEU786  VAL792 
 PHE793  MET794  SER795  GLU796  ALA797  LYS798  CYS799  TRP800  GLU811  SER814 

> <Gold.Protein.RotatedAtoms>
  152.1701  134.8841  160.0534 H   0  0  0  0  0  0  0  0  0  0  0  0  # atno 6907 bound_to 6896
  151.9804  133.3751  159.4113 H   0  0  0  0  0  0  0  0  0  0  0  0  # atno 6908 bound_to 6896
  150.6900  134.3968  159.5145 H   0  0  0  0  0  0  0  0  0  0  0  0  # atno 6909 bound_to 6896
  146.2420  139.9987  142.8418 H   0  0  0  0  0  0  0  0  0  0  0  0  # atno 7974 bound_to 7965
  156.2690  140.2806  156.1323 H   0  0  0  0  0  0  0  0  0  0  0  0  # atno 8008 bound_to 7997
  155.1041  140.0390  157.2723 H   0  0  0  0  0  0  0  0  0  0  0  0  # atno 8009 bound_to 7997
  154.6793  140.2605  155.6931 H   0  0  0  0  0  0  0  0  0  0  0  0  # atno 8010 bound_to 7997
  140.7254  143.3880  151.1481 H   0  0  0  0  0  0  0  0  0  0  0  0  # atno 10167 bound_to 10162
  156.1894  130.4152  149.9393 H   0  0  0  0  0  0  0  0  0  0  0  0  # atno 10718 bound_to 10713
  153.6091  135.3434  155.2972 H   0  0  0  0  0  0  0  0  0  0  0  0  # atno 10763 bound_to 10752
  154.8622  135.4246  154.2329 H   0  0  0  0  0  0  0  0  0  0  0  0  # atno 10764 bound_to 10752
  153.3176  135.7036  153.7131 H   0  0  0  0  0  0  0  0  0  0  0  0  # atno 10765 bound_to 10752
  140.2355  134.8091  157.3359 H   0  0  0  0  0  0  0  0  0  0  0  0  # atno 11005 bound_to 11000
  145.1435  140.9584  143.4474 LP  0  0  0  0  0  0  0  0  0  0  0  0  # atno 17320 bound_to 7965
  145.0273  139.3372  143.6042 LP  0  0  0  0  0  0  0  0  0  0  0  0  # atno 17321 bound_to 7965
  139.7480  143.8822  152.3069 LP  0  0  0  0  0  0  0  0  0  0  0  0  # atno 17342 bound_to 10162
  139.8666  144.7090  150.9036 LP  0  0  0  0  0  0  0  0  0  0  0  0  # atno 17343 bound_to 10162
  156.7138  130.8980  151.3612 LP  0  0  0  0  0  0  0  0  0  0  0  0  # atno 17370 bound_to 10713
  157.6919  130.9243  150.0538 LP  0  0  0  0  0  0  0  0  0  0  0  0  # atno 17371 bound_to 10713
  140.1706  134.4613  155.7834 LP  0  0  0  0  0  0  0  0  0  0  0  0  # atno 17394 bound_to 11000
  141.2214  133.6940  156.7701 LP  0  0  0  0  0  0  0  0  0  0  0  0  # atno 17395 bound_to 11000

$$$$
