AV-unprocessed.smi:383|AV-procd|sdf|2464|dock7
  -GOLD-   2262022403D 1   1.00000     0.00000
 Structure written by MMmdl.
 40 41  0  0  0  0  0  0  0  0  1 V2000
  152.1120  145.2903  158.9011 C   0  0  0  0  0  0  0  0  0  0  0  0
  150.8338  144.5024  158.5700 C   0  0  0  0  0  0  0  0  0  0  0  0
  149.8593  144.4937  159.7593 C   0  0  0  0  0  0  0  0  0  0  0  0
  151.1726  143.0689  158.1418 C   0  0  0  0  0  0  0  0  0  0  0  0
  151.7394  142.3064  158.9254 O   0  0  0  0  0  0  0  0  0  0  0  0
  150.8169  142.7158  156.8967 N   0  0  0  0  0  0  0  0  0  0  0  0
  151.0178  141.3959  156.3117 C   0  0  0  0  0  0  0  0  0  0  0  0
  149.7537  140.8508  155.6546 C   0  0  0  0  0  0  0  0  0  0  0  0
  149.1736  141.5734  154.5903 C   0  0  0  0  0  0  0  0  0  0  0  0
  147.9907  141.0977  153.9968 C   0  0  0  0  0  0  0  0  0  0  0  0
  147.4272  139.9102  154.4965 C   0  0  0  0  0  0  0  0  0  0  0  0
  147.9663  139.2087  155.5147 N   0  0  0  0  0  0  0  0  0  0  0  0
  149.1063  139.6632  156.0909 C   0  0  0  0  0  0  0  0  0  0  0  0
  149.6394  138.9031  157.1459 N   0  0  0  0  0  0  0  0  0  0  0  0
  151.0036  138.4515  156.9092 C   0  0  0  0  0  0  0  0  0  0  0  0
  151.5878  137.8619  158.2047 C   0  0  0  0  0  0  0  0  0  0  0  0
  150.7393  136.8225  158.6853 O   0  0  0  0  0  0  0  0  0  0  0  0
  149.4266  137.2933  158.9805 C   0  0  0  0  0  0  0  0  0  0  0  0
  148.7845  137.8616  157.7038 C   0  0  0  0  0  0  0  0  0  0  0  0
  152.8031  145.2981  158.0573 H   0  0  0  0  0  0  0  0  0  0  0  0
  152.6365  144.8652  159.7580 H   0  0  0  0  0  0  0  0  0  0  0  0
  151.8780  146.3279  159.1405 H   0  0  0  0  0  0  0  0  0  0  0  0
  150.3398  145.0027  157.7354 H   0  0  0  0  0  0  0  0  0  0  0  0
  148.9553  143.9290  159.5266 H   0  0  0  0  0  0  0  0  0  0  0  0
  149.5530  145.5072  160.0193 H   0  0  0  0  0  0  0  0  0  0  0  0
  150.3115  144.0476  160.6463 H   0  0  0  0  0  0  0  0  0  0  0  0
  150.3610  143.4070  156.3191 H   0  0  0  0  0  0  0  0  0  0  0  0
  151.7889  141.4838  155.5461 H   0  0  0  0  0  0  0  0  0  0  0  0
  151.4262  140.7167  157.0599 H   0  0  0  0  0  0  0  0  0  0  0  0
  149.6279  142.4867  154.2349 H   0  0  0  0  0  0  0  0  0  0  0  0
  147.5255  141.6313  153.1814 H   0  0  0  0  0  0  0  0  0  0  0  0
  146.5186  139.5130  154.0690 H   0  0  0  0  0  0  0  0  0  0  0  0
  151.0002  137.6968  156.1216 H   0  0  0  0  0  0  0  0  0  0  0  0
  151.6255  139.2763  156.5597 H   0  0  0  0  0  0  0  0  0  0  0  0
  152.5808  137.4529  158.0180 H   0  0  0  0  0  0  0  0  0  0  0  0
  151.6989  138.6352  158.9666 H   0  0  0  0  0  0  0  0  0  0  0  0
  148.8300  136.4665  159.3657 H   0  0  0  0  0  0  0  0  0  0  0  0
  149.4675  138.0510  159.7648 H   0  0  0  0  0  0  0  0  0  0  0  0
  147.7991  138.2718  157.9287 H   0  0  0  0  0  0  0  0  0  0  0  0
  148.6480  137.0626  156.9736 H   0  0  0  0  0  0  0  0  0  0  0  0
  1  2  1  0  0  0  0
  1 20  1  0  0  0  0
  1 21  1  0  0  0  0
  1 22  1  0  0  0  0
  2  3  1  0  0  0  0
  2  4  1  0  0  0  0
  2 23  1  0  0  0  0
  3 24  1  0  0  0  0
  3 25  1  0  0  0  0
  3 26  1  0  0  0  0
  4  5  2  0  0  0  0
  4  6  1  0  0  0  0
  6  7  1  0  0  0  0
  6 27  1  0  0  0  0
  7  8  1  0  0  0  0
  7 28  1  0  0  0  0
  7 29  1  0  0  0  0
  8 13  1  0  0  0  0
  8  9  2  0  0  0  0
  9 10  1  0  0  0  0
  9 30  1  0  0  0  0
 10 11  2  0  0  0  0
 10 31  1  0  0  0  0
 11 12  1  0  0  0  0
 11 32  1  0  0  0  0
 12 13  2  0  0  0  0
 13 14  1  0  0  0  0
 14 19  1  0  0  0  0
 14 15  1  0  0  0  0
 15 16  1  0  0  0  0
 15 33  1  0  0  0  0
 15 34  1  0  0  0  0
 16 17  1  0  0  0  0
 16 35  1  0  0  0  0
 16 36  1  0  0  0  0
 17 18  1  0  0  0  0
 18 19  1  0  0  0  0
 18 37  1  0  0  0  0
 18 38  1  0  0  0  0
 19 39  1  0  0  0  0
 19 40  1  0  0  0  0
M  END
> <s_m_source_file>
AV-unprocessed.smi

> <i_m_source_file_index>
383

> <i_lp_mmshare_version>
43012

> <i_f3d_flags>
0

> <s_epik_input>
W0NIM11bQ0hdKFtDSDNdKUMoPU8pW05IXVtDSDJdYzFbY0hdW2NIXVtjSF1uYzFOMltDSDJdW0NIMl1PW0NIMl1bQ0gyXTI=

> <s_epik_cmdline>
J2VwaWtfcHl0aG9uJywgJy1waCcsICc3LjAnLCAnLXRuJywgJzgnLCAnLW1hJywgJzIwMCcsICctbWV0YWxfYmluZGluZycsICctaW1hZScsICc8aW5maWxlLm1hZT4nLCAnLW9tYWUnLCAnPG91dGZpbGUubWFlPic=

> <r_lp_tautomer_probability>
1

> <r_epik_Ionization_Penalty>
0.00505534

> <r_epik_Ionization_Penalty_Charging>
0

> <r_epik_Ionization_Penalty_Neutral>
0.00505534

> <r_epik_State_Penalty>
0.00367784

> <r_epik_Charging_Adjusted_Penalty>
0.00367784

> <i_epik_Tot_Q>
0

> <i_epik_Tot_abs_Q>
0

> <r_epik_Metal_State_Penalty>
-0

> <b_epik_Metal_Only>
0

> <s_lp_Force_Field>
OPLS_2005

> <r_lp_Energy>
19.0793

> <b_lp_Chiralities_Consistent>
1

> <s_lp_Variant>
AV-unprocessed.smi:383-1

> <Gold.Version>
5.8.1

> <Gold.Id.Protein>
6NUR|6NUR_protein|mol2

> <Gold.PLP.Fitness>
35.2579

> <Gold.PLP.PLP>
-30.3630

> <Gold.PLP.part.hbond>
-1.9380

> <Gold.PLP.part.metal>
0.0000

> <Gold.PLP.part.buried>
-5.9180

> <Gold.PLP.part.nonpolar>
-23.7831

> <Gold.PLP.part.repulsive>
0.0522

> <Gold.PLP.ligand.clash>
0.0000

> <Gold.PLP.ligand.torsion>
0.2013

> <Gold.PLP.Chemscore.Hbond>
1.6900

> <Gold.PLP.Chemscore.CHOScore>
0.0000

> <Gold.PLP.Chemscore.Metal>
0.0000

> <Gold.Chemscore.Hbonds>
donor molecule, donor type, donor heavy atom, donor atom, acceptor molecule, acceptor atom, score
      L1  H     6    27       P1  8028  0.89
      P1  H  6896  6907       L1    17  0.75

> <Gold.PLP.Chemscore.Internal.Correction>
0.2275

> <Gold.Rescore>
     Score         DG    S(hbond)    S(metal)    S(lipo)     H(rot)  DE(clash)    DE(int)     intcor
     15.91     -16.37       1.81        0.00      75.40       1.56       0.01       0.45       ----

> <Gold.Chemscore.Fitness>
15.9077

> <Gold.Chemscore.DG>
-16.3718

> <Gold.Chemscore.ZeroCoef>
-5.4800

> <Gold.Chemscore.Hbond>
1.8142

> <Gold.Chemscore.Metal>
0.0000

> <Gold.Chemscore.Lipo>
75.4010

> <Gold.Chemscore.Internal_Hbond>
0.0000

> <Gold.Chemscore.DEClash>
0.0149

> <Gold.Chemscore.DEInternal>
0.4493

> <Gold.Chemscore.Rot>
1.5584

> <Gold.Chemscore.Internal.Correction>
   9.000000E+99

> <Gold.Chemscore.Hbonds>
donor molecule, donor type, donor heavy atom, donor atom, acceptor molecule, acceptor atom, score
      L1  H     6    27       P1  8028  0.85
      P1  H  6896  6907       L1    17  0.43

> <Gold.Chemscore.Hbond.Weighted>
-6.0594

> <Gold.Chemscore.Metal.Weighted>
-0.0000

> <Gold.Chemscore.Lipo.Weighted>
-8.8219

> <Gold.Chemscore.Internal_Hbond.Weighted>
0.0000

> <Gold.Chemscore.DEClash.Weighted>
0.0149

> <Gold.Chemscore.DEInternal.Weighted>
0.4493

> <Gold.Chemscore.Rot.Weighted>
3.9895

> <Gold.Chemscore.Internal.Correction.Weighted>
   9.000000E+99

> <Gold.Protein.RotatedTorsions>
[ 6907 6896 6895 6894 ] final  -35.47 input  -60.11 | X-H torsion
[ 7974 7965 7964 7962 ] final -102.17 input  175.53 | X-H torsion
[ 8008 7997 7996 7995 ] final -164.95 input   59.86 | X-H torsion
[ 10167 10162 10161 10158 ] final  -94.87 input  -65.29 | X-H torsion
[ 10718 10713 10712 10709 ] final  100.08 input   66.30 | X-H torsion
[ 10763 10752 10751 10750 ] final   77.15 input  -60.55 | X-H torsion
[ 11005 11000 10999 10996 ] final  -28.10 input  -57.11 | X-H torsion

> <Gold.Protein.ActiveResidues>
 VAL166  LYS551  ARG553  GLY616  TRP617  ASP618  TYR619  PRO620  LYS621  CYS622 
 ASP623  PHE694  ASN695  SER759  ASP760  ASP761  ALA762  ILE779  LEU786  VAL792 
 PHE793  MET794  SER795  GLU796  ALA797  LYS798  CYS799  TRP800  GLU811  SER814 

> <Gold.Protein.RotatedAtoms>
  151.0394  134.9596  159.8153 H   0  0  0  0  0  0  0  0  0  0  0  0  # atno 6907 bound_to 6896
  152.5361  134.2678  159.8970 H   0  0  0  0  0  0  0  0  0  0  0  0  # atno 6908 bound_to 6896
  151.2690  133.4222  159.2654 H   0  0  0  0  0  0  0  0  0  0  0  0  # atno 6909 bound_to 6896
  145.2722  140.9302  143.2980 H   0  0  0  0  0  0  0  0  0  0  0  0  # atno 7974 bound_to 7965
  155.8429  140.0951  157.1723 H   0  0  0  0  0  0  0  0  0  0  0  0  # atno 8008 bound_to 7997
  154.3982  140.1397  156.3812 H   0  0  0  0  0  0  0  0  0  0  0  0  # atno 8009 bound_to 7997
  155.8045  140.3452  155.5424 H   0  0  0  0  0  0  0  0  0  0  0  0  # atno 8010 bound_to 7997
  140.3100  143.3111  152.0158 H   0  0  0  0  0  0  0  0  0  0  0  0  # atno 10167 bound_to 10162
  157.6862  131.0688  150.5047 H   0  0  0  0  0  0  0  0  0  0  0  0  # atno 10718 bound_to 10713
  153.0777  135.4925  154.8439 H   0  0  0  0  0  0  0  0  0  0  0  0  # atno 10763 bound_to 10752
  154.7110  135.3020  154.9199 H   0  0  0  0  0  0  0  0  0  0  0  0  # atno 10764 bound_to 10752
  153.9893  135.6780  153.4806 H   0  0  0  0  0  0  0  0  0  0  0  0  # atno 10765 bound_to 10752
  140.9178  133.7418  156.0759 H   0  0  0  0  0  0  0  0  0  0  0  0  # atno 11005 bound_to 11000
  144.9325  139.4282  143.6488 LP  0  0  0  0  0  0  0  0  0  0  0  0  # atno 17320 bound_to 7965
  146.3243  139.8244  142.8920 LP  0  0  0  0  0  0  0  0  0  0  0  0  # atno 17321 bound_to 7965
  139.4896  144.6392  151.6913 LP  0  0  0  0  0  0  0  0  0  0  0  0  # atno 17342 bound_to 10162
  140.5576  144.0321  150.6155 LP  0  0  0  0  0  0  0  0  0  0  0  0  # atno 17343 bound_to 10162
  156.5367  130.4198  149.6174 LP  0  0  0  0  0  0  0  0  0  0  0  0  # atno 17370 bound_to 10713
  156.3022  130.7183  151.2057 LP  0  0  0  0  0  0  0  0  0  0  0  0  # atno 17371 bound_to 10713
  140.8027  134.3490  157.5435 LP  0  0  0  0  0  0  0  0  0  0  0  0  # atno 17394 bound_to 11000
  139.8769  134.9207  156.3258 LP  0  0  0  0  0  0  0  0  0  0  0  0  # atno 17395 bound_to 11000

$$$$
