AV-unprocessed.smi:2029|AV-procd|sdf|8222|dock1
  -GOLD-   2272010493D 1   1.00000     0.00000
 Structure written by MMmdl.
 28 29  0  0  0  0  0  0  0  0  1 V2000
  150.1714  140.2772  154.3049 O   0  0  0  0  0  0  0  0  0  0  0  0
  149.4913  141.2666  154.5811 C   0  0  0  0  0  0  0  0  0  0  0  0
  149.7904  142.1001  155.5887 N   0  0  0  0  0  0  0  0  0  0  0  0
  150.9225  141.9477  156.4980 C   0  0  0  0  0  0  0  0  0  0  0  0
  150.4929  141.8114  157.9724 C   0  0  0  0  0  0  0  0  0  0  0  0
  151.0779  142.8833  158.8764 C   0  0  0  0  0  0  0  0  0  0  0  0
  150.8766  144.2522  158.5967 C   0  0  0  0  0  0  0  0  0  0  0  0
  151.4493  145.2054  159.4604 C   0  0  0  0  0  0  0  0  0  0  0  0
  152.1974  144.7556  160.5654 C   0  0  0  0  0  0  0  0  0  0  0  0
  152.3393  143.3670  160.7582 C   0  0  0  0  0  0  0  0  0  0  0  0
  151.7948  142.4444  159.9357 N   0  0  0  0  0  0  0  0  0  0  0  0
  148.2538  141.6406  153.8331 C   0  0  0  0  0  0  0  0  0  0  0  0
  146.9959  141.8887  154.6403 C   0  0  0  0  0  0  0  0  0  0  0  0
  147.1177  140.6386  153.8054 C   0  0  0  0  0  0  0  0  0  0  0  0
  149.1798  142.8884  155.7496 H   0  0  0  0  0  0  0  0  0  0  0  0
  151.5326  141.0937  156.2000 H   0  0  0  0  0  0  0  0  0  0  0  0
  151.5529  142.8299  156.3845 H   0  0  0  0  0  0  0  0  0  0  0  0
  149.4049  141.8434  158.0436 H   0  0  0  0  0  0  0  0  0  0  0  0
  150.7865  140.8311  158.3497 H   0  0  0  0  0  0  0  0  0  0  0  0
  150.3021  144.5653  157.7371 H   0  0  0  0  0  0  0  0  0  0  0  0
  151.3188  146.2618  159.2777 H   0  0  0  0  0  0  0  0  0  0  0  0
  152.6516  145.4576  161.2488 H   0  0  0  0  0  0  0  0  0  0  0  0
  152.9063  142.9866  161.5949 H   0  0  0  0  0  0  0  0  0  0  0  0
  148.3898  142.2516  152.9419 H   0  0  0  0  0  0  0  0  0  0  0  0
  147.0405  141.7745  155.7222 H   0  0  0  0  0  0  0  0  0  0  0  0
  146.3312  142.6755  154.2890 H   0  0  0  0  0  0  0  0  0  0  0  0
  146.5366  140.5779  152.8876 H   0  0  0  0  0  0  0  0  0  0  0  0
  147.2424  139.6945  154.3331 H   0  0  0  0  0  0  0  0  0  0  0  0
  1  2  2  0  0  0  0
  2  3  1  0  0  0  0
  2 12  1  0  0  0  0
  3  4  1  0  0  0  0
  3 15  1  0  0  0  0
  4  5  1  0  0  0  0
  4 16  1  0  0  0  0
  4 17  1  0  0  0  0
  5  6  1  0  0  0  0
  5 18  1  0  0  0  0
  5 19  1  0  0  0  0
  6 11  1  0  0  0  0
  6  7  2  0  0  0  0
  7  8  1  0  0  0  0
  7 20  1  0  0  0  0
  8  9  2  0  0  0  0
  8 21  1  0  0  0  0
  9 10  1  0  0  0  0
  9 22  1  0  0  0  0
 10 11  2  0  0  0  0
 10 23  1  0  0  0  0
 12 14  1  0  0  0  0
 12 13  1  0  0  0  0
 12 24  1  0  0  0  0
 13 14  1  0  0  0  0
 13 25  1  0  0  0  0
 13 26  1  0  0  0  0
 14 27  1  0  0  0  0
 14 28  1  0  0  0  0
M  END
> <s_m_source_file>
AV-unprocessed.smi

> <i_m_source_file_index>
2029

> <i_lp_mmshare_version>
43012

> <i_f3d_flags>
0

> <s_epik_input>
W0NIMl0xW0NIMl1bQ0hdMUMoPU8pW05IXVtDSDJdW0NIMl1jMltjSF1bY0hdW2NIXVtjSF1uMg==

> <s_epik_cmdline>
J2VwaWtfcHl0aG9uJywgJy1waCcsICc3LjAnLCAnLXRuJywgJzgnLCAnLW1hJywgJzIwMCcsICctbWV0YWxfYmluZGluZycsICctaW1hZScsICc8aW5maWxlLm1hZT4nLCAnLW9tYWUnLCAnPG91dGZpbGUubWFlPic=

> <r_epik_Ionization_Penalty>
0.0277532

> <r_epik_Ionization_Penalty_Charging>
0

> <r_epik_Ionization_Penalty_Neutral>
0.0277532

> <r_epik_State_Penalty>
0.022734

> <r_epik_Charging_Adjusted_Penalty>
0.022734

> <i_epik_Tot_Q>
0

> <i_epik_Tot_abs_Q>
0

> <r_epik_Metal_State_Penalty>
0.0217134

> <b_epik_Metal_Only>
0

> <s_lp_Force_Field>
OPLS_2005

> <r_lp_Energy>
5.17532

> <b_lp_Chiralities_Consistent>
1

> <s_lp_Variant>
AV-unprocessed.smi:2029-1

> <Gold.Version>
5.8.1

> <Gold.Id.Protein>
6NUR|6NUR_protein|mol2

> <Gold.PLP.Fitness>
40.5487

> <Gold.PLP.PLP>
-35.3652

> <Gold.PLP.part.hbond>
-2.3282

> <Gold.PLP.part.metal>
0.0000

> <Gold.PLP.part.buried>
-4.6223

> <Gold.PLP.part.nonpolar>
-27.8726

> <Gold.PLP.part.repulsive>
0.2791

> <Gold.PLP.ligand.clash>
0.0000

> <Gold.PLP.ligand.torsion>
0.4537

> <Gold.PLP.Chemscore.Hbond>
2.0000

> <Gold.PLP.Chemscore.CHOScore>
0.0000

> <Gold.PLP.Chemscore.Metal>
0.0000

> <Gold.Chemscore.Hbonds>
donor molecule, donor type, donor heavy atom, donor atom, acceptor molecule, acceptor atom, score
      L1  H     3    15       P1  8028  0.99
      P1  H  7989  7998       L1     1  0.98

> <Gold.PLP.Chemscore.Internal.Correction>
0.0909

> <Gold.Rescore>
     Score         DG    S(hbond)    S(metal)    S(lipo)     H(rot)  DE(clash)    DE(int)     intcor
     16.58     -17.07       1.60        0.00      85.88       1.49       0.06       0.43       ----

> <Gold.Chemscore.Fitness>
16.5791

> <Gold.Chemscore.DG>
-17.0661

> <Gold.Chemscore.ZeroCoef>
-5.4800

> <Gold.Chemscore.Hbond>
1.6041

> <Gold.Chemscore.Metal>
0.0000

> <Gold.Chemscore.Lipo>
85.8779

> <Gold.Chemscore.Internal_Hbond>
0.0000

> <Gold.Chemscore.DEClash>
0.0617

> <Gold.Chemscore.DEInternal>
0.4252

> <Gold.Chemscore.Rot>
1.4919

> <Gold.Chemscore.Internal.Correction>
   9.000000E+99

> <Gold.Chemscore.Hbonds>
donor molecule, donor type, donor heavy atom, donor atom, acceptor molecule, acceptor atom, score
      L1  H     3    15       P1  8028  0.93
      P1  H  7989  7998       L1     1  0.52

> <Gold.Chemscore.Hbond.Weighted>
-5.3575

> <Gold.Chemscore.Metal.Weighted>
-0.0000

> <Gold.Chemscore.Lipo.Weighted>
-10.0477

> <Gold.Chemscore.Internal_Hbond.Weighted>
0.0000

> <Gold.Chemscore.DEClash.Weighted>
0.0617

> <Gold.Chemscore.DEInternal.Weighted>
0.4252

> <Gold.Chemscore.Rot.Weighted>
3.8192

> <Gold.Chemscore.Internal.Correction.Weighted>
   9.000000E+99

> <Gold.Protein.RotatedTorsions>
[ 6907 6896 6895 6894 ] final  -36.50 input  -60.11 | X-H torsion
[ 7974 7965 7964 7962 ] final  154.94 input  175.53 | X-H torsion
[ 8008 7997 7996 7995 ] final   47.35 input   59.86 | X-H torsion
[ 10167 10162 10161 10158 ] final   -5.28 input  -65.29 | X-H torsion
[ 10718 10713 10712 10709 ] final  -34.11 input   66.30 | X-H torsion
[ 10763 10752 10751 10750 ] final    9.85 input  -60.55 | X-H torsion
[ 11005 11000 10999 10996 ] final  -42.24 input  -57.11 | X-H torsion

> <Gold.Protein.ActiveResidues>
 VAL166  LYS551  ARG553  GLY616  TRP617  ASP618  TYR619  PRO620  LYS621  CYS622 
 ASP623  PHE694  ASN695  SER759  ASP760  ASP761  ALA762  ILE779  LEU786  VAL792 
 PHE793  MET794  SER795  GLU796  ALA797  LYS798  CYS799  TRP800  GLU811  SER814 

> <Gold.Protein.RotatedAtoms>
  151.0263  134.9507  159.8086 H   0  0  0  0  0  0  0  0  0  0  0  0  # atno 6907 bound_to 6896
  152.5336  134.2837  159.9027 H   0  0  0  0  0  0  0  0  0  0  0  0  # atno 6908 bound_to 6896
  151.2846  133.4151  159.2663 H   0  0  0  0  0  0  0  0  0  0  0  0  # atno 6909 bound_to 6896
  144.8057  139.7001  143.6163 H   0  0  0  0  0  0  0  0  0  0  0  0  # atno 7974 bound_to 7965
  155.3677  140.3422  155.4242 H   0  0  0  0  0  0  0  0  0  0  0  0  # atno 8008 bound_to 7997
  156.1680  140.1622  156.8532 H   0  0  0  0  0  0  0  0  0  0  0  0  # atno 8009 bound_to 7997
  154.5204  140.0768  156.8143 H   0  0  0  0  0  0  0  0  0  0  0  0  # atno 8010 bound_to 7997
  140.6957  143.6327  150.8508 H   0  0  0  0  0  0  0  0  0  0  0  0  # atno 10167 bound_to 10162
  156.3545  130.4314  149.7676 H   0  0  0  0  0  0  0  0  0  0  0  0  # atno 10718 bound_to 10713
  153.2095  135.6867  153.8131 H   0  0  0  0  0  0  0  0  0  0  0  0  # atno 10763 bound_to 10752
  153.7368  135.3244  155.3297 H   0  0  0  0  0  0  0  0  0  0  0  0  # atno 10764 bound_to 10752
  154.8215  135.4649  154.0897 H   0  0  0  0  0  0  0  0  0  0  0  0  # atno 10765 bound_to 10752
  141.0302  133.6823  156.2567 H   0  0  0  0  0  0  0  0  0  0  0  0  # atno 11005 bound_to 11000
  146.2347  139.5882  142.9531 LP  0  0  0  0  0  0  0  0  0  0  0  0  # atno 17320 bound_to 7965
  145.5445  141.0418  143.2312 LP  0  0  0  0  0  0  0  0  0  0  0  0  # atno 17321 bound_to 7965
  140.0044  143.5709  152.2863 LP  0  0  0  0  0  0  0  0  0  0  0  0  # atno 17342 bound_to 10162
  139.6410  144.7654  151.2338 LP  0  0  0  0  0  0  0  0  0  0  0  0  # atno 17343 bound_to 10162
  156.4863  130.8064  151.3076 LP  0  0  0  0  0  0  0  0  0  0  0  0  # atno 17370 bound_to 10713
  157.7465  130.9989  150.2871 LP  0  0  0  0  0  0  0  0  0  0  0  0  # atno 17371 bound_to 10713
  140.6420  134.5155  157.5570 LP  0  0  0  0  0  0  0  0  0  0  0  0  # atno 17394 bound_to 11000
  139.9202  134.8163  156.1234 LP  0  0  0  0  0  0  0  0  0  0  0  0  # atno 17395 bound_to 11000

$$$$
