AV-unprocessed.smi:766|AV-procd|sdf|3652|dock1
  -GOLD-   22720 1 53D 1   1.00000     0.00000
 Structure written by MMmdl.
 47 49  0  0  0  0  0  0  0  0  2 V2000
  153.2240  143.3402  160.4589 C   0  0  0  0  0  0  0  0  0  0  0  0
  152.6851  142.4359  159.3644 C   0  0  0  0  0  0  0  0  0  0  0  0
  151.8469  142.9869  158.3689 C   0  0  0  0  0  0  0  0  0  0  0  0
  151.3256  142.1806  157.3334 C   0  0  0  0  0  0  0  0  0  0  0  0
  150.5000  142.5047  156.2705 N   0  0  0  0  0  0  0  0  0  0  0  0
  150.3721  141.3291  155.6621 C   0  0  0  0  0  0  0  0  0  0  0  0
  151.0169  140.2792  156.2072 N   0  0  0  0  0  0  0  0  0  0  0  0
  151.0292  138.9089  155.7276 C   0  0  0  0  0  0  0  0  0  0  0  0
  149.8798  138.6190  154.7435 C   0  0  1  0  0  0  0  0  0  0  0  0
  150.4146  138.3565  153.4598 O   0  0  0  0  0  0  0  0  0  0  0  0
  149.0321  137.4153  155.1860 C   0  0  0  0  0  0  0  0  0  0  0  0
  149.5231  136.1632  154.5770 N   0  3  0  0  0  0  0  0  0  0  0  0
  148.9931  134.9357  155.2043 C   0  0  0  0  0  0  0  0  0  0  0  0
  149.3311  133.6834  154.3788 C   0  0  0  0  0  0  0  0  0  0  0  0
  148.1891  132.8006  154.2190 N   0  0  0  0  0  0  0  0  0  0  0  0
  148.0826  131.6727  153.4325 C   0  0  0  0  0  0  0  0  0  0  0  0
  146.8238  131.1733  153.6065 C   0  0  0  0  0  0  0  0  0  0  0  0
  146.2267  132.0750  154.5310 C   0  0  0  0  0  0  0  0  0  0  0  0
  147.0460  133.0488  154.8946 N   0  0  0  0  0  0  0  0  0  0  0  0
  151.6673  140.7967  157.3220 C   0  0  0  0  0  0  0  0  0  0  0  0
  152.4996  140.2363  158.3070 C   0  0  0  0  0  0  0  0  0  0  0  0
  153.0138  141.0567  159.3331 C   0  0  0  0  0  0  0  0  0  0  0  0
  153.9156  140.4438  160.3899 C   0  0  0  0  0  0  0  0  0  0  0  0
  152.8639  144.3628  160.3442 H   0  0  0  0  0  0  0  0  0  0  0  0
  154.3136  143.3650  160.4319 H   0  0  0  0  0  0  0  0  0  0  0  0
  152.9093  142.9829  161.4396 H   0  0  0  0  0  0  0  0  0  0  0  0
  151.5968  144.0375  158.3916 H   0  0  0  0  0  0  0  0  0  0  0  0
  149.7728  141.2244  154.7695 H   0  0  0  0  0  0  0  0  0  0  0  0
  151.9955  138.7086  155.2620 H   0  0  0  0  0  0  0  0  0  0  0  0
  150.9589  138.2486  156.5930 H   0  0  0  0  0  0  0  0  0  0  0  0
  149.2414  139.5011  154.6738 H   0  0  0  0  0  0  0  0  0  0  0  0
  149.9973  138.9277  152.8329 H   0  0  0  0  0  0  0  0  0  0  0  0
  149.0316  137.3247  156.2733 H   0  0  0  0  0  0  0  0  0  0  0  0
  147.9963  137.5626  154.8769 H   0  0  0  0  0  0  0  0  0  0  0  0
  149.2747  136.1592  153.5980 H   0  0  0  0  0  0  0  0  0  0  0  0
  149.3899  134.8356  156.2155 H   0  0  0  0  0  0  0  0  0  0  0  0
  147.9104  135.0310  155.2948 H   0  0  0  0  0  0  0  0  0  0  0  0
  149.6688  133.9805  153.3852 H   0  0  0  0  0  0  0  0  0  0  0  0
  150.1531  133.1271  154.8325 H   0  0  0  0  0  0  0  0  0  0  0  0
  148.9014  131.3224  152.8214 H   0  0  0  0  0  0  0  0  0  0  0  0
  146.3952  130.2960  153.1447 H   0  0  0  0  0  0  0  0  0  0  0  0
  145.2293  132.0511  154.9446 H   0  0  0  0  0  0  0  0  0  0  0  0
  152.7416  139.1846  158.2722 H   0  0  0  0  0  0  0  0  0  0  0  0
  154.0977  139.3869  160.1933 H   0  0  0  0  0  0  0  0  0  0  0  0
  153.4593  140.5283  161.3764 H   0  0  0  0  0  0  0  0  0  0  0  0
  154.8810  140.9498  160.4095 H   0  0  0  0  0  0  0  0  0  0  0  0
  150.5312  136.1484  154.6491 H   0  0  0  0  0  0  0  0  0  0  0  0
  1  2  1  0  0  0  0
  1 24  1  0  0  0  0
  1 25  1  0  0  0  0
  1 26  1  0  0  0  0
  2 22  1  0  0  0  0
  2  3  2  0  0  0  0
  3  4  1  0  0  0  0
  3 27  1  0  0  0  0
  4 20  2  0  0  0  0
  4  5  1  0  0  0  0
  5  6  2  0  0  0  0
  6  7  1  0  0  0  0
  6 28  1  0  0  0  0
  7  8  1  0  0  0  0
  7 20  1  0  0  0  0
  8  9  1  0  0  0  0
  8 29  1  0  0  0  0
  8 30  1  0  0  0  0
  9 10  1  0  0  0  0
  9 11  1  0  0  0  0
  9 31  1  0  0  0  0
 10 32  1  0  0  0  0
 11 12  1  0  0  0  0
 11 33  1  0  0  0  0
 11 34  1  0  0  0  0
 12 13  1  0  0  0  0
 12 35  1  0  0  0  0
 12 47  1  0  0  0  0
 13 14  1  0  0  0  0
 13 36  1  0  0  0  0
 13 37  1  0  0  0  0
 14 15  1  0  0  0  0
 14 38  1  0  0  0  0
 14 39  1  0  0  0  0
 15 19  1  0  0  0  0
 15 16  1  0  0  0  0
 16 17  2  0  0  0  0
 16 40  1  0  0  0  0
 17 18  1  0  0  0  0
 17 41  1  0  0  0  0
 18 19  2  0  0  0  0
 18 42  1  0  0  0  0
 20 21  1  0  0  0  0
 21 22  2  0  0  0  0
 21 43  1  0  0  0  0
 22 23  1  0  0  0  0
 23 44  1  0  0  0  0
 23 45  1  0  0  0  0
 23 46  1  0  0  0  0
M  CHG  1  12   1
M  END
> <s_m_source_file>
AV-unprocessed.smi

> <i_m_source_file_index>
766

> <i_lp_mmshare_version>
43012

> <i_f3d_flags>
0

> <s_epik_input>
W0NIM11jKFtjSF0xKWMoW0NIM10pW2NIXWMoYzEyKW4oW2NIXW4yKVtDSDJdW0NASF0oW09IXSlbQ0gyXVtOSF1bQ0gyXVtDSDJdbjNbY0hdW2NIXVtjSF1uMw==

> <s_epik_cmdline>
J2VwaWtfcHl0aG9uJywgJy1waCcsICc3LjAnLCAnLXRuJywgJzgnLCAnLW1hJywgJzIwMCcsICctbWV0YWxfYmluZGluZycsICctaW1hZScsICc8aW5maWxlLm1hZT4nLCAnLW9tYWUnLCAnPG91dGZpbGUubWFlPic=

> <r_lp_tautomer_probability>
1

> <r_epik_Ionization_Penalty>
0.127222

> <r_epik_Ionization_Penalty_Charging>
0.043815

> <r_epik_Ionization_Penalty_Neutral>
0.0834074

> <r_epik_State_Penalty>
0.115563

> <r_epik_Charging_Adjusted_Penalty>
0.159378

> <i_epik_Tot_Q>
1

> <i_epik_Tot_abs_Q>
1

> <r_epik_Metal_State_Penalty>
0.102594

> <b_epik_Metal_Only>
0

> <s_lp_Force_Field>
OPLS_2005

> <r_lp_Energy>
11.1584

> <b_lp_Chiralities_Consistent>
1

> <s_lp_Variant>
AV-unprocessed.smi:766-2

> <Gold.Version>
5.8.1

> <Gold.Id.Protein>
6NUR|6NUR_protein|mol2

> <Gold.PLP.Fitness>
51.9591

> <Gold.PLP.PLP>
-39.9940

> <Gold.PLP.part.hbond>
-3.4489

> <Gold.PLP.part.metal>
0.0000

> <Gold.PLP.part.buried>
-3.6449

> <Gold.PLP.part.nonpolar>
-34.7272

> <Gold.PLP.part.repulsive>
2.1652

> <Gold.PLP.ligand.clash>
0.0000

> <Gold.PLP.ligand.torsion>
1.8453

> <Gold.PLP.Chemscore.Hbond>
3.0000

> <Gold.PLP.Chemscore.CHOScore>
1.9948

> <Gold.PLP.Chemscore.Metal>
0.0000

> <Gold.Chemscore.Hbonds>
donor molecule, donor type, donor heavy atom, donor atom, acceptor molecule, acceptor atom, score
      L1  H    10    32       P1  7957  1.00
      L1  H    12    35       P1  7948  2.00
      L1  C    16    40       P1 10747  0.92
      L1  C    18    42       P1 10957  0.95

> <Gold.PLP.Chemscore.Internal.Correction>
0.6713

> <Gold.Rescore>
     Score         DG    S(hbond)    S(metal)    S(lipo)     H(rot)  DE(clash)    DE(int)     intcor
     14.57     -16.59       1.89        0.00     105.24       2.93       0.13       1.89       ----

> <Gold.Chemscore.Fitness>
14.5653

> <Gold.Chemscore.DG>
-16.5885

> <Gold.Chemscore.ZeroCoef>
-5.4800

> <Gold.Chemscore.Hbond>
1.8879

> <Gold.Chemscore.Metal>
0.0000

> <Gold.Chemscore.Lipo>
105.2354

> <Gold.Chemscore.Internal_Hbond>
0.0000

> <Gold.Chemscore.DEClash>
0.1331

> <Gold.Chemscore.DEInternal>
1.8901

> <Gold.Chemscore.Rot>
2.9335

> <Gold.Chemscore.Internal.Correction>
   9.000000E+99

> <Gold.Chemscore.Hbonds>
donor molecule, donor type, donor heavy atom, donor atom, acceptor molecule, acceptor atom, score
      L1  H    10    32       P1  7957  0.69
      L1  H    12    35       P1  7948  0.82

> <Gold.Chemscore.Hbond.Weighted>
-6.3057

> <Gold.Chemscore.Metal.Weighted>
-0.0000

> <Gold.Chemscore.Lipo.Weighted>
-12.3125

> <Gold.Chemscore.Internal_Hbond.Weighted>
0.0000

> <Gold.Chemscore.DEClash.Weighted>
0.1331

> <Gold.Chemscore.DEInternal.Weighted>
1.8901

> <Gold.Chemscore.Rot.Weighted>
7.5097

> <Gold.Chemscore.Internal.Correction.Weighted>
   9.000000E+99

> <Gold.Protein.RotatedTorsions>
[ 6907 6896 6895 6894 ] final -137.25 input  -60.11 | X-H torsion
[ 7974 7965 7964 7962 ] final    1.57 input  175.53 | X-H torsion
[ 8008 7997 7996 7995 ] final   31.80 input   59.86 | X-H torsion
[ 10167 10162 10161 10158 ] final  -26.89 input  -65.29 | X-H torsion
[ 10718 10713 10712 10709 ] final -166.98 input   66.30 | X-H torsion
[ 10763 10752 10751 10750 ] final  136.63 input  -60.55 | X-H torsion
[ 11005 11000 10999 10996 ] final  138.51 input  -57.11 | X-H torsion

> <Gold.Protein.ActiveResidues>
 VAL166  LYS551  ARG553  GLY616  TRP617  ASP618  TYR619  PRO620  LYS621  CYS622 
 ASP623  PHE694  ASN695  SER759  ASP760  ASP761  ALA762  ILE779  LEU786  VAL792 
 PHE793  MET794  SER795  GLU796  ALA797  LYS798  CYS799  TRP800  GLU811  SER814 

> <Gold.Protein.RotatedAtoms>
  151.0202  133.5884  159.2672 H   0  0  0  0  0  0  0  0  0  0  0  0  # atno 6907 bound_to 6896
  151.3004  135.0766  159.9246 H   0  0  0  0  0  0  0  0  0  0  0  0  # atno 6908 bound_to 6896
  152.5321  133.9884  159.7893 H   0  0  0  0  0  0  0  0  0  0  0  0  # atno 6909 bound_to 6896
  146.2441  140.0967  142.8349 H   0  0  0  0  0  0  0  0  0  0  0  0  # atno 7974 bound_to 7965
  155.1123  140.3240  155.4518 H   0  0  0  0  0  0  0  0  0  0  0  0  # atno 8008 bound_to 7997
  156.2687  140.2042  156.6194 H   0  0  0  0  0  0  0  0  0  0  0  0  # atno 8009 bound_to 7997
  154.6747  140.0532  157.0189 H   0  0  0  0  0  0  0  0  0  0  0  0  # atno 8010 bound_to 7997
  140.7280  143.4140  151.1059 H   0  0  0  0  0  0  0  0  0  0  0  0  # atno 10167 bound_to 10162
  156.6757  130.9102  151.3050 H   0  0  0  0  0  0  0  0  0  0  0  0  # atno 10718 bound_to 10713
  153.8598  135.3069  155.3437 H   0  0  0  0  0  0  0  0  0  0  0  0  # atno 10763 bound_to 10752
  154.7854  135.4812  153.9938 H   0  0  0  0  0  0  0  0  0  0  0  0  # atno 10764 bound_to 10752
  153.1469  135.6835  153.9036 H   0  0  0  0  0  0  0  0  0  0  0  0  # atno 10765 bound_to 10752
  140.0189  134.9406  157.0433 H   0  0  0  0  0  0  0  0  0  0  0  0  # atno 11005 bound_to 11000
  145.0604  140.9083  143.4942 LP  0  0  0  0  0  0  0  0  0  0  0  0  # atno 17320 bound_to 7965
  145.1081  139.2776  143.5651 LP  0  0  0  0  0  0  0  0  0  0  0  0  # atno 17321 bound_to 7965
  139.7777  143.8401  152.3132 LP  0  0  0  0  0  0  0  0  0  0  0  0  # atno 17342 bound_to 10162
  139.8341  144.7240  150.9413 LP  0  0  0  0  0  0  0  0  0  0  0  0  # atno 17343 bound_to 10162
  157.7061  130.9387  150.0937 LP  0  0  0  0  0  0  0  0  0  0  0  0  # atno 17370 bound_to 10713
  156.1905  130.3654  149.8916 LP  0  0  0  0  0  0  0  0  0  0  0  0  # atno 17371 bound_to 10713
  140.4422  134.1669  155.7174 LP  0  0  0  0  0  0  0  0  0  0  0  0  # atno 17394 bound_to 11000
  141.1761  133.8511  157.1417 LP  0  0  0  0  0  0  0  0  0  0  0  0  # atno 17395 bound_to 11000

$$$$
