AV-unprocessed.smi:2858|AV-procd|sdf|11003|dock3
  -GOLD-   2272015463D 1   1.00000     0.00000
 Structure written by MMmdl.
 39 40  0  0  0  0  0  0  0  0  3 V2000
  149.8817  135.2172  156.4790 O   0  0  0  0  0  0  0  0  0  0  0  0
  150.1378  136.1819  155.7620 C   0  0  0  0  0  0  0  0  0  0  0  0
  148.9467  137.0955  155.3637 C   0  0  0  0  0  0  0  0  0  0  0  0
  149.2470  137.9265  154.1616 N   0  3  1  0  0  0  0  0  0  0  0  0
  148.1510  138.8622  153.8028 C   0  0  0  0  0  0  0  0  0  0  0  0
  148.0961  140.0960  154.7197 C   0  0  0  0  0  0  0  0  0  0  0  0
  148.8280  141.3054  154.1142 C   0  0  0  0  0  0  0  0  0  0  0  0
  149.4277  142.1462  155.1442 N   0  0  0  0  0  0  0  0  0  0  0  0
  150.2281  141.7058  156.1259 C   0  0  0  0  0  0  0  0  0  0  0  0
  150.5496  140.5244  156.2578 O   0  0  0  0  0  0  0  0  0  0  0  0
  150.6170  142.7134  156.9274 N   0  0  0  0  0  0  0  0  0  0  0  0
  151.4818  142.6560  158.0530 C   0  0  0  0  0  0  0  0  0  0  0  0
  151.7760  143.9047  158.6460 C   0  0  0  0  0  0  0  0  0  0  0  0
  152.6280  143.9559  159.7665 C   0  0  0  0  0  0  0  0  0  0  0  0
  153.1643  142.7556  160.2659 C   0  0  0  0  0  0  0  0  0  0  0  0
  152.8217  141.5556  159.6161 C   0  0  0  0  0  0  0  0  0  0  0  0
  152.0061  141.5042  158.5416 N   0  0  0  0  0  0  0  0  0  0  0  0
  150.5594  138.6133  154.2794 C   0  0  0  0  0  0  0  0  0  0  0  0
  151.7025  137.5830  154.3478 C   0  0  0  0  0  0  0  0  0  0  0  0
  151.3867  136.5379  155.3275 N   0  5  0  0  0  0  0  0  0  0  0  0
  148.0793  136.4631  155.1781 H   0  0  0  0  0  0  0  0  0  0  0  0
  148.7056  137.7399  156.2104 H   0  0  0  0  0  0  0  0  0  0  0  0
  148.2470  139.1619  152.7583 H   0  0  0  0  0  0  0  0  0  0  0  0
  147.1991  138.3362  153.8883 H   0  0  0  0  0  0  0  0  0  0  0  0
  147.0531  140.3545  154.9076 H   0  0  0  0  0  0  0  0  0  0  0  0
  148.5401  139.8679  155.6886 H   0  0  0  0  0  0  0  0  0  0  0  0
  149.6243  140.9645  153.4521 H   0  0  0  0  0  0  0  0  0  0  0  0
  148.1473  141.8987  153.5014 H   0  0  0  0  0  0  0  0  0  0  0  0
  149.2130  143.1322  155.1103 H   0  0  0  0  0  0  0  0  0  0  0  0
  150.2554  143.6291  156.7057 H   0  0  0  0  0  0  0  0  0  0  0  0
  151.3542  144.8176  158.2506 H   0  0  0  0  0  0  0  0  0  0  0  0
  152.8646  144.8999  160.2346 H   0  0  0  0  0  0  0  0  0  0  0  0
  153.8203  142.7541  161.1236 H   0  0  0  0  0  0  0  0  0  0  0  0
  153.2127  140.6121  159.9672 H   0  0  0  0  0  0  0  0  0  0  0  0
  150.7261  139.2695  153.4244 H   0  0  0  0  0  0  0  0  0  0  0  0
  150.5599  139.2459  155.1688 H   0  0  0  0  0  0  0  0  0  0  0  0
  151.8422  137.1525  153.3559 H   0  0  0  0  0  0  0  0  0  0  0  0
  152.6354  138.0944  154.5839 H   0  0  0  0  0  0  0  0  0  0  0  0
  149.3504  137.2846  153.3888 H   0  0  0  0  0  0  0  0  0  0  0  0
  1  2  2  0  0  0  0
  2 20  1  0  0  0  0
  2  3  1  0  0  0  0
  3  4  1  0  0  0  0
  3 21  1  0  0  0  0
  3 22  1  0  0  0  0
  4  5  1  0  0  0  0
  4 18  1  0  0  0  0
  4 39  1  0  0  0  0
  5  6  1  0  0  0  0
  5 23  1  0  0  0  0
  5 24  1  0  0  0  0
  6  7  1  0  0  0  0
  6 25  1  0  0  0  0
  6 26  1  0  0  0  0
  7  8  1  0  0  0  0
  7 27  1  0  0  0  0
  7 28  1  0  0  0  0
  8  9  1  0  0  0  0
  8 29  1  0  0  0  0
  9 10  2  0  0  0  0
  9 11  1  0  0  0  0
 11 12  1  0  0  0  0
 11 30  1  0  0  0  0
 12 17  1  0  0  0  0
 12 13  2  0  0  0  0
 13 14  1  0  0  0  0
 13 31  1  0  0  0  0
 14 15  2  0  0  0  0
 14 32  1  0  0  0  0
 15 16  1  0  0  0  0
 15 33  1  0  0  0  0
 16 17  2  0  0  0  0
 16 34  1  0  0  0  0
 18 19  1  0  0  0  0
 18 35  1  0  0  0  0
 18 36  1  0  0  0  0
 19 20  1  0  0  0  0
 19 37  1  0  0  0  0
 19 38  1  0  0  0  0
M  CHG  1   4   1
M  CHG  1  20  -1
M  END
> <s_m_source_file>
AV-unprocessed.smi

> <i_m_source_file_index>
2858

> <i_lp_mmshare_version>
43012

> <i_f3d_flags>
0

> <s_epik_input>
Tz1DMVtDSDJdTihbQ0gyXVtDSDJdW05IXTEpW0NIMl1bQ0gyXVtDSDJdW05IXUMoPU8pW05IXWMyW2NIXVtjSF1bY0hdW2NIXW4y

> <s_epik_cmdline>
J2VwaWtfcHl0aG9uJywgJy1waCcsICc3LjAnLCAnLXRuJywgJzgnLCAnLW1hJywgJzIwMCcsICctbWV0YWxfYmluZGluZycsICctaW1hZScsICc8aW5maWxlLm1hZT4nLCAnLW9tYWUnLCAnPG91dGZpbGUubWFlPic=

> <r_epik_Ionization_Penalty>
5.09835

> <r_epik_Ionization_Penalty_Charging>
5.09831

> <r_epik_Ionization_Penalty_Neutral>
4.20822e-05

> <r_epik_State_Penalty>
5.19693

> <r_epik_Charging_Adjusted_Penalty>
10.2952

> <i_epik_Tot_Q>
0

> <i_epik_Tot_abs_Q>
2

> <r_epik_Metal_State_Penalty>
1.27693

> <b_epik_Metal_Only>
1

> <s_lp_Force_Field>
OPLS_2005

> <r_lp_Energy>
14.6847

> <b_lp_Chiralities_Consistent>
1

> <s_lp_Variant>
AV-unprocessed.smi:2858-5

> <Gold.Version>
5.8.1

> <Gold.Id.Protein>
6NUR|6NUR_protein|mol2

> <Gold.PLP.Fitness>
55.5334

> <Gold.PLP.PLP>
-38.6702

> <Gold.PLP.part.hbond>
-4.0000

> <Gold.PLP.part.metal>
0.0000

> <Gold.PLP.part.buried>
-5.1852

> <Gold.PLP.part.nonpolar>
-30.7822

> <Gold.PLP.part.repulsive>
0.3867

> <Gold.PLP.ligand.clash>
0.0000

> <Gold.PLP.ligand.torsion>
0.5829

> <Gold.PLP.Chemscore.Hbond>
5.9920

> <Gold.PLP.Chemscore.CHOScore>
0.0000

> <Gold.PLP.Chemscore.Metal>
0.0000

> <Gold.Chemscore.Hbonds>
donor molecule, donor type, donor heavy atom, donor atom, acceptor molecule, acceptor atom, score
      L1  H     4    39       P1  7948  2.00
      L1  H     8    29       P1  8028  1.00
      L1  H    11    30       P1  8028  0.96
      P1  H 10752 10764       L1    20  1.20

> <Gold.PLP.Chemscore.Internal.Correction>
0.0529

> <Gold.Rescore>
     Score         DG    S(hbond)    S(metal)    S(lipo)     H(rot)  DE(clash)    DE(int)     intcor
     18.83     -22.06       3.63        0.00      82.32       2.02       0.15       3.07       ----

> <Gold.Chemscore.Fitness>
18.8350

> <Gold.Chemscore.DG>
-22.0565

> <Gold.Chemscore.ZeroCoef>
-5.4800

> <Gold.Chemscore.Hbond>
3.6287

> <Gold.Chemscore.Metal>
0.0000

> <Gold.Chemscore.Lipo>
82.3180

> <Gold.Chemscore.Internal_Hbond>
0.0000

> <Gold.Chemscore.DEClash>
0.1548

> <Gold.Chemscore.DEInternal>
3.0667

> <Gold.Chemscore.Rot>
2.0213

> <Gold.Chemscore.Internal.Correction>
   9.000000E+99

> <Gold.Chemscore.Hbonds>
donor molecule, donor type, donor heavy atom, donor atom, acceptor molecule, acceptor atom, score
      L1  H     4    39       P1  7948  0.97
      L1  H     8    29       P1  8028  1.00
      L1  H    11    30       P1  8028  0.86
      P1  H 10752 10764       L1    20  0.04

> <Gold.Chemscore.Hbond.Weighted>
-12.1197

> <Gold.Chemscore.Metal.Weighted>
-0.0000

> <Gold.Chemscore.Lipo.Weighted>
-9.6312

> <Gold.Chemscore.Internal_Hbond.Weighted>
0.0000

> <Gold.Chemscore.DEClash.Weighted>
0.1548

> <Gold.Chemscore.DEInternal.Weighted>
3.0667

> <Gold.Chemscore.Rot.Weighted>
5.1744

> <Gold.Chemscore.Internal.Correction.Weighted>
   9.000000E+99

> <Gold.Protein.RotatedTorsions>
[ 6907 6896 6895 6894 ] final    4.40 input  -60.11 | X-H torsion
[ 7974 7965 7964 7962 ] final -145.22 input  175.53 | X-H torsion
[ 8008 7997 7996 7995 ] final -130.36 input   59.86 | X-H torsion
[ 10167 10162 10161 10158 ] final   86.50 input  -65.29 | X-H torsion
[ 10718 10713 10712 10709 ] final -109.97 input   66.30 | X-H torsion
[ 10763 10752 10751 10750 ] final  -39.72 input  -60.55 | X-H torsion
[ 11005 11000 10999 10996 ] final  -19.75 input  -57.11 | X-H torsion

> <Gold.Protein.ActiveResidues>
 VAL166  LYS551  ARG553  GLY616  TRP617  ASP618  TYR619  PRO620  LYS621  CYS622 
 ASP623  PHE694  ASN695  SER759  ASP760  ASP761  ALA762  ILE779  LEU786  VAL792 
 PHE793  MET794  SER795  GLU796  ALA797  LYS798  CYS799  TRP800  GLU811  SER814 

> <Gold.Protein.RotatedAtoms>
  151.6406  135.1013  160.0140 H   0  0  0  0  0  0  0  0  0  0  0  0  # atno 6907 bound_to 6896
  152.4056  133.6879  159.6362 H   0  0  0  0  0  0  0  0  0  0  0  0  # atno 6908 bound_to 6896
  150.7951  133.8632  159.3278 H   0  0  0  0  0  0  0  0  0  0  0  0  # atno 6909 bound_to 6896
  144.8242  140.5611  143.5558 H   0  0  0  0  0  0  0  0  0  0  0  0  # atno 7974 bound_to 7965
  155.2945  140.0450  157.3025 H   0  0  0  0  0  0  0  0  0  0  0  0  # atno 8008 bound_to 7997
  154.5522  140.2321  155.8435 H   0  0  0  0  0  0  0  0  0  0  0  0  # atno 8009 bound_to 7997
  156.1976  140.3034  155.9467 H   0  0  0  0  0  0  0  0  0  0  0  0  # atno 8010 bound_to 7997
  139.8869  144.6408  150.8781 H   0  0  0  0  0  0  0  0  0  0  0  0  # atno 10167 bound_to 10162
  156.0565  130.5791  150.8172 H   0  0  0  0  0  0  0  0  0  0  0  0  # atno 10718 bound_to 10713
  153.9341  135.6768  153.4745 H   0  0  0  0  0  0  0  0  0  0  0  0  # atno 10763 bound_to 10752
  153.0964  135.4849  154.8784 H   0  0  0  0  0  0  0  0  0  0  0  0  # atno 10764 bound_to 10752
  154.7412  135.3161  154.8682 H   0  0  0  0  0  0  0  0  0  0  0  0  # atno 10765 bound_to 10752
  140.8398  133.7935  155.9848 H   0  0  0  0  0  0  0  0  0  0  0  0  # atno 11005 bound_to 11000
  145.5037  139.1482  143.3643 LP  0  0  0  0  0  0  0  0  0  0  0  0  # atno 17320 bound_to 7965
  146.2548  140.5176  142.8878 LP  0  0  0  0  0  0  0  0  0  0  0  0  # atno 17321 bound_to 7965
  140.7734  143.3541  151.1956 LP  0  0  0  0  0  0  0  0  0  0  0  0  # atno 17342 bound_to 10162
  139.7145  143.9323  152.2961 LP  0  0  0  0  0  0  0  0  0  0  0  0  # atno 17343 bound_to 10162
  157.5539  131.0944  150.9656 LP  0  0  0  0  0  0  0  0  0  0  0  0  # atno 17370 bound_to 10713
  156.9909  130.5563  149.5303 LP  0  0  0  0  0  0  0  0  0  0  0  0  # atno 17371 bound_to 10713
  140.8908  134.2498  157.5095 LP  0  0  0  0  0  0  0  0  0  0  0  0  # atno 17394 bound_to 11000
  139.8703  134.9660  156.4549 LP  0  0  0  0  0  0  0  0  0  0  0  0  # atno 17395 bound_to 11000

$$$$
