AV-unprocessed.smi:2025|AV-procd|sdf|8198|dock10
  -GOLD-   2272010453D 1   1.00000     0.00000
 Structure written by MMmdl.
 39 40  0  0  0  0  0  0  0  0  1 V2000
  148.6041  141.3479  156.3130 C   0  0  0  0  0  0  0  0  0  0  0  0
  150.0034  141.3616  155.6809 C   0  0  1  0  0  0  0  0  0  0  0  0
  150.8378  142.3171  156.4078 N   0  0  0  0  0  0  0  0  0  0  0  0
  151.1752  142.2439  157.7046 C   0  0  0  0  0  0  0  0  0  0  0  0
  150.7913  141.3474  158.4567 O   0  0  0  0  0  0  0  0  0  0  0  0
  152.0615  143.3799  158.2323 C   0  0  0  0  0  0  0  0  0  0  0  0
  152.4913  143.1723  159.6211 N   0  0  0  0  0  0  0  0  0  0  0  0
  152.1410  144.0924  160.5923 C   0  0  0  0  0  0  0  0  0  0  0  0
  152.4793  143.9662  161.8939 C   0  0  0  0  0  0  0  0  0  0  0  0
  153.2572  142.8240  162.3583 C   0  0  0  0  0  0  0  0  0  0  0  0
  153.5691  142.6597  163.5382 O   0  0  0  0  0  0  0  0  0  0  0  0
  153.6162  141.9067  161.3418 N   0  0  0  0  0  0  0  0  0  0  0  0
  154.3755  140.7296  161.7104 C   0  0  0  0  0  0  0  0  0  0  0  0
  153.2432  142.0347  159.9852 C   0  0  0  0  0  0  0  0  0  0  0  0
  153.5501  141.1889  159.1414 O   0  0  0  0  0  0  0  0  0  0  0  0
  150.6536  139.9631  155.6905 C   0  0  2  0  0  0  0  0  0  0  0  0
  152.1393  139.9394  155.3258 C   0  0  0  0  0  0  0  0  0  0  0  0
  152.3175  138.5114  154.8654 C   0  0  0  0  0  0  0  0  0  0  0  0
  151.0071  138.2539  154.1269 C   0  0  0  0  0  0  0  0  0  0  0  0
  150.0402  139.1178  154.7200 O   0  0  0  0  0  0  0  0  0  0  0  0
  147.9348  140.6766  155.7742 H   0  0  0  0  0  0  0  0  0  0  0  0
  148.1553  142.3415  156.2924 H   0  0  0  0  0  0  0  0  0  0  0  0
  148.6389  141.0191  157.3521 H   0  0  0  0  0  0  0  0  0  0  0  0
  149.8907  141.6800  154.6433 H   0  0  0  0  0  0  0  0  0  0  0  0
  151.1957  143.0966  155.8750 H   0  0  0  0  0  0  0  0  0  0  0  0
  152.9320  143.5048  157.5860 H   0  0  0  0  0  0  0  0  0  0  0  0
  151.5003  144.3117  158.1523 H   0  0  0  0  0  0  0  0  0  0  0  0
  151.5598  144.9545  160.2992 H   0  0  0  0  0  0  0  0  0  0  0  0
  152.1673  144.7192  162.6027 H   0  0  0  0  0  0  0  0  0  0  0  0
  155.1128  140.5309  160.9309 H   0  0  0  0  0  0  0  0  0  0  0  0
  153.6622  139.9098  161.8051 H   0  0  0  0  0  0  0  0  0  0  0  0
  154.9097  140.8988  162.6456 H   0  0  0  0  0  0  0  0  0  0  0  0
  150.5222  139.4950  156.6676 H   0  0  0  0  0  0  0  0  0  0  0  0
  152.3447  140.6253  154.5025 H   0  0  0  0  0  0  0  0  0  0  0  0
  152.7888  140.2023  156.1613 H   0  0  0  0  0  0  0  0  0  0  0  0
  153.1969  138.3678  154.2372 H   0  0  0  0  0  0  0  0  0  0  0  0
  152.4005  137.8490  155.7280 H   0  0  0  0  0  0  0  0  0  0  0  0
  151.1037  138.5168  153.0730 H   0  0  0  0  0  0  0  0  0  0  0  0
  150.6978  137.2106  154.1885 H   0  0  0  0  0  0  0  0  0  0  0  0
  1  2  1  0  0  0  0
  1 21  1  0  0  0  0
  1 22  1  0  0  0  0
  1 23  1  0  0  0  0
  2  3  1  0  0  0  0
  2 16  1  0  0  0  0
  2 24  1  0  0  0  0
  3  4  1  0  0  0  0
  3 25  1  0  0  0  0
  4  5  2  0  0  0  0
  4  6  1  0  0  0  0
  6  7  1  0  0  0  0
  6 26  1  0  0  0  0
  6 27  1  0  0  0  0
  7 14  1  0  0  0  0
  7  8  1  0  0  0  0
  8  9  2  0  0  0  0
  8 28  1  0  0  0  0
  9 10  1  0  0  0  0
  9 29  1  0  0  0  0
 10 11  2  0  0  0  0
 10 12  1  0  0  0  0
 12 13  1  0  0  0  0
 12 14  1  0  0  0  0
 13 30  1  0  0  0  0
 13 31  1  0  0  0  0
 13 32  1  0  0  0  0
 14 15  2  0  0  0  0
 16 20  1  0  0  0  0
 16 17  1  0  0  0  0
 16 33  1  0  0  0  0
 17 18  1  0  0  0  0
 17 34  1  0  0  0  0
 17 35  1  0  0  0  0
 18 19  1  0  0  0  0
 18 36  1  0  0  0  0
 18 37  1  0  0  0  0
 19 20  1  0  0  0  0
 19 38  1  0  0  0  0
 19 39  1  0  0  0  0
M  END
> <s_m_source_file>
AV-unprocessed.smi

> <i_m_source_file_index>
2025

> <i_lp_mmshare_version>
43012

> <i_f3d_flags>
0

> <s_epik_input>
TzFbQ0gyXVtDSDJdW0NIMl1bQ0BIXTFbQ0BIXShbQ0gzXSlbTkhdQyg9TylbQ0gyXW4yW2NIXVtjSF1jKD1PKW4oW0NIM10pYzI9Tw==

> <s_epik_cmdline>
J2VwaWtfcHl0aG9uJywgJy1waCcsICc3LjAnLCAnLXRuJywgJzgnLCAnLW1hJywgJzIwMCcsICctbWV0YWxfYmluZGluZycsICctaW1hZScsICc8aW5maWxlLm1hZT4nLCAnLW9tYWUnLCAnPG91dGZpbGUubWFlPic=

> <r_lp_tautomer_probability>
1

> <r_epik_Ionization_Penalty>
3.54787e-08

> <r_epik_Ionization_Penalty_Charging>
1.24654e-08

> <r_epik_Ionization_Penalty_Neutral>
2.30132e-08

> <r_epik_State_Penalty>
-0

> <r_epik_Charging_Adjusted_Penalty>
1.24654e-08

> <i_epik_Tot_Q>
0

> <i_epik_Tot_abs_Q>
0

> <r_epik_Metal_State_Penalty>
-0

> <b_epik_Metal_Only>
0

> <s_lp_Force_Field>
OPLS_2005

> <r_lp_Energy>
25.7305

> <b_lp_Chiralities_Consistent>
1

> <s_lp_Variant>
AV-unprocessed.smi:2025-2

> <Gold.Version>
5.8.1

> <Gold.Id.Protein>
6NUR|6NUR_protein|mol2

> <Gold.PLP.Fitness>
48.0459

> <Gold.PLP.PLP>
-48.4321

> <Gold.PLP.part.hbond>
-0.4717

> <Gold.PLP.part.metal>
0.0000

> <Gold.PLP.part.buried>
-5.3341

> <Gold.PLP.part.nonpolar>
-42.4109

> <Gold.PLP.part.repulsive>
0.3295

> <Gold.PLP.ligand.clash>
0.0000

> <Gold.PLP.ligand.torsion>
0.2023

> <Gold.PLP.Chemscore.Hbond>
0.0000

> <Gold.PLP.Chemscore.CHOScore>
0.0000

> <Gold.PLP.Chemscore.Metal>
0.0000

> <Gold.PLP.Chemscore.Internal.Correction>
0.0185

> <Gold.Rescore>
     Score         DG    S(hbond)    S(metal)    S(lipo)     H(rot)  DE(clash)    DE(int)     intcor
      9.71     -10.71       0.00        0.00      84.63       1.82       0.02       0.99       ----

> <Gold.Chemscore.Fitness>
9.7081

> <Gold.Chemscore.DG>
-10.7149

> <Gold.Chemscore.ZeroCoef>
-5.4800

> <Gold.Chemscore.Hbond>
0.0000

> <Gold.Chemscore.Metal>
0.0000

> <Gold.Chemscore.Lipo>
84.6270

> <Gold.Chemscore.Internal_Hbond>
0.0000

> <Gold.Chemscore.DEClash>
0.0212

> <Gold.Chemscore.DEInternal>
0.9856

> <Gold.Chemscore.Rot>
1.8228

> <Gold.Chemscore.Internal.Correction>
   9.000000E+99

> <Gold.Chemscore.Hbond.Weighted>
-0.0000

> <Gold.Chemscore.Metal.Weighted>
-0.0000

> <Gold.Chemscore.Lipo.Weighted>
-9.9014

> <Gold.Chemscore.Internal_Hbond.Weighted>
0.0000

> <Gold.Chemscore.DEClash.Weighted>
0.0212

> <Gold.Chemscore.DEInternal.Weighted>
0.9856

> <Gold.Chemscore.Rot.Weighted>
4.6665

> <Gold.Chemscore.Internal.Correction.Weighted>
   9.000000E+99

> <Gold.Protein.RotatedTorsions>
[ 6907 6896 6895 6894 ] final  -31.05 input  -60.11 | X-H torsion
[ 7974 7965 7964 7962 ] final   15.60 input  175.53 | X-H torsion
[ 8008 7997 7996 7995 ] final   85.47 input   59.86 | X-H torsion
[ 10167 10162 10161 10158 ] final   78.86 input  -65.29 | X-H torsion
[ 10718 10713 10712 10709 ] final -109.72 input   66.30 | X-H torsion
[ 10763 10752 10751 10750 ] final -100.31 input  -60.55 | X-H torsion
[ 11005 11000 10999 10996 ] final -126.10 input  -57.11 | X-H torsion

> <Gold.Protein.ActiveResidues>
 VAL166  LYS551  ARG553  GLY616  TRP617  ASP618  TYR619  PRO620  LYS621  CYS622 
 ASP623  PHE694  ASN695  SER759  ASP760  ASP761  ALA762  ILE779  LEU786  VAL792 
 PHE793  MET794  SER795  GLU796  ALA797  LYS798  CYS799  TRP800  GLU811  SER814 

> <Gold.Protein.RotatedAtoms>
  151.0973  134.9952  159.8431 H   0  0  0  0  0  0  0  0  0  0  0  0  # atno 6907 bound_to 6896
  152.5434  134.1992  159.8715 H   0  0  0  0  0  0  0  0  0  0  0  0  # atno 6908 bound_to 6896
  151.2033  133.4554  159.2630 H   0  0  0  0  0  0  0  0  0  0  0  0  # atno 6909 bound_to 6896
  146.2274  139.8871  142.8561 H   0  0  0  0  0  0  0  0  0  0  0  0  # atno 7974 bound_to 7965
  155.9504  140.3401  155.6403 H   0  0  0  0  0  0  0  0  0  0  0  0  # atno 8008 bound_to 7997
  155.6927  140.0751  157.2460 H   0  0  0  0  0  0  0  0  0  0  0  0  # atno 8009 bound_to 7997
  154.4121  140.1654  156.2091 H   0  0  0  0  0  0  0  0  0  0  0  0  # atno 8010 bound_to 7997
  139.9665  144.5925  150.8024 H   0  0  0  0  0  0  0  0  0  0  0  0  # atno 10167 bound_to 10162
  156.0552  130.5778  150.8139 H   0  0  0  0  0  0  0  0  0  0  0  0  # atno 10718 bound_to 10713
  154.7569  135.4939  153.9391 H   0  0  0  0  0  0  0  0  0  0  0  0  # atno 10763 bound_to 10752
  153.1206  135.6731  153.9350 H   0  0  0  0  0  0  0  0  0  0  0  0  # atno 10764 bound_to 10752
  153.9083  135.3102  155.3427 H   0  0  0  0  0  0  0  0  0  0  0  0  # atno 10765 bound_to 10752
  140.9709  134.0807  157.3870 H   0  0  0  0  0  0  0  0  0  0  0  0  # atno 11005 bound_to 11000
  145.2455  141.0025  143.3911 LP  0  0  0  0  0  0  0  0  0  0  0  0  # atno 17320 bound_to 7965
  144.9417  139.4181  143.6445 LP  0  0  0  0  0  0  0  0  0  0  0  0  # atno 17321 bound_to 7965
  140.7536  143.3012  151.3077 LP  0  0  0  0  0  0  0  0  0  0  0  0  # atno 17342 bound_to 10162
  139.6514  144.0355  152.2629 LP  0  0  0  0  0  0  0  0  0  0  0  0  # atno 17343 bound_to 10162
  157.5516  131.0944  150.9688 LP  0  0  0  0  0  0  0  0  0  0  0  0  # atno 17370 bound_to 10713
  156.9947  130.5576  149.5306 LP  0  0  0  0  0  0  0  0  0  0  0  0  # atno 17371 bound_to 10713
  139.8912  135.0117  156.6777 LP  0  0  0  0  0  0  0  0  0  0  0  0  # atno 17394 bound_to 11000
  140.7330  133.9042  155.8225 LP  0  0  0  0  0  0  0  0  0  0  0  0  # atno 17395 bound_to 11000

$$$$
