AV-unprocessed.smi:113|AV-procd|sdf|1104|dock3
  -GOLD-   2262018213D 1   1.00000     0.00000
 Structure written by MMmdl.
 53 56  0  0  0  0  0  0  0  0  2 V2000
  155.3317  138.2074  161.1169 C   0  0  0  0  0  0  0  0  0  0  0  0
  154.3489  139.1042  160.3946 C   0  0  0  0  0  0  0  0  0  0  0  0
  153.6617  138.6867  159.2388 C   0  0  0  0  0  0  0  0  0  0  0  0
  152.7507  139.5647  158.6007 C   0  0  0  0  0  0  0  0  0  0  0  0
  151.9876  139.1339  157.3432 C   0  0  0  0  0  0  0  0  0  0  0  0
  151.3819  137.8097  157.3634 N   0  0  0  0  0  0  0  0  0  0  0  0
  150.4749  137.5172  158.4113 C   0  0  0  0  0  0  0  0  0  0  0  0
  150.1923  138.3551  159.2704 O   0  0  0  0  0  0  0  0  0  0  0  0
  149.8998  136.1703  158.3796 C   0  0  0  0  0  0  0  0  0  0  0  0
  148.9535  135.7676  159.4998 C   0  0  0  0  0  0  0  0  0  0  0  0
  150.2248  135.3247  157.3726 C   0  0  0  0  0  0  0  0  0  0  0  0
  151.0813  135.6532  156.3356 N   0  0  0  0  0  0  0  0  0  0  0  0
  151.3864  134.6631  155.2339 C   0  0  1  0  0  0  0  0  0  0  0  0
  151.7912  133.3084  155.8178 C   0  0  0  0  0  0  0  0  0  0  0  0
  151.1306  132.3523  154.8466 C   0  0  1  0  0  0  0  0  0  0  0  0
  150.8908  131.1009  155.4577 O   0  0  0  0  0  0  0  0  0  0  0  0
  149.8395  133.1000  154.5008 C   0  0  2  0  0  0  0  0  0  0  0  0
  149.2066  132.7104  153.1561 C   0  0  0  0  0  0  0  0  0  0  0  0
  148.0548  133.4879  152.9082 O   0  0  0  0  0  0  0  0  0  0  0  0
  150.2384  134.4690  154.4593 O   0  0  0  0  0  0  0  0  0  0  0  0
  151.7024  136.9186  156.3142 C   0  0  0  0  0  0  0  0  0  0  0  0
  152.4820  137.2309  155.4112 O   0  0  0  0  0  0  0  0  0  0  0  0
  152.5562  140.8574  159.1607 C   0  0  0  0  0  0  0  0  0  0  0  0
  151.6601  141.7978  158.5976 C   0  0  0  0  0  0  0  0  0  0  0  0
  151.4994  143.0708  159.1793 C   0  0  0  0  0  0  0  0  0  0  0  0
  152.2289  143.4226  160.3300 C   0  0  0  0  0  0  0  0  0  0  0  0
  153.1215  142.4991  160.9050 C   0  0  0  0  0  0  0  0  0  0  0  0
  153.2830  141.2248  160.3255 C   0  0  0  0  0  0  0  0  0  0  0  0
  154.1378  140.3426  160.8849 N   0  3  0  0  0  0  0  0  0  0  0  0
  155.1900  137.1644  160.8321 H   0  0  0  0  0  0  0  0  0  0  0  0
  155.2012  138.2834  162.1969 H   0  0  0  0  0  0  0  0  0  0  0  0
  156.3545  138.4938  160.8718 H   0  0  0  0  0  0  0  0  0  0  0  0
  153.8427  137.6934  158.8563 H   0  0  0  0  0  0  0  0  0  0  0  0
  151.2002  139.8550  157.1190 H   0  0  0  0  0  0  0  0  0  0  0  0
  152.6417  139.1711  156.4706 H   0  0  0  0  0  0  0  0  0  0  0  0
  148.5684  134.7567  159.3628 H   0  0  0  0  0  0  0  0  0  0  0  0
  148.1000  136.4452  159.5429 H   0  0  0  0  0  0  0  0  0  0  0  0
  149.4666  135.8011  160.4617 H   0  0  0  0  0  0  0  0  0  0  0  0
  149.7901  134.3368  157.3871 H   0  0  0  0  0  0  0  0  0  0  0  0
  152.1471  135.1051  154.5893 H   0  0  0  0  0  0  0  0  0  0  0  0
  152.8755  133.2076  155.8726 H   0  0  0  0  0  0  0  0  0  0  0  0
  151.3704  133.1995  156.8192 H   0  0  0  0  0  0  0  0  0  0  0  0
  151.7554  132.2276  153.9609 H   0  0  0  0  0  0  0  0  0  0  0  0
  150.6444  130.4805  154.7885 H   0  0  0  0  0  0  0  0  0  0  0  0
  149.1129  132.9915  155.3079 H   0  0  0  0  0  0  0  0  0  0  0  0
  149.9141  132.8880  152.3458 H   0  0  0  0  0  0  0  0  0  0  0  0
  148.9495  131.6509  153.1335 H   0  0  0  0  0  0  0  0  0  0  0  0
  148.2308  134.0620  152.1780 H   0  0  0  0  0  0  0  0  0  0  0  0
  151.0821  141.5643  157.7165 H   0  0  0  0  0  0  0  0  0  0  0  0
  150.8133  143.7803  158.7398 H   0  0  0  0  0  0  0  0  0  0  0  0
  152.1026  144.4002  160.7723 H   0  0  0  0  0  0  0  0  0  0  0  0
  153.6781  142.7743  161.7893 H   0  0  0  0  0  0  0  0  0  0  0  0
  154.6479  140.6254  161.7213 H   0  0  0  0  0  0  0  0  0  0  0  0
  1  2  1  0  0  0  0
  1 30  1  0  0  0  0
  1 31  1  0  0  0  0
  1 32  1  0  0  0  0
  2 29  1  0  0  0  0
  2  3  2  0  0  0  0
  3  4  1  0  0  0  0
  3 33  1  0  0  0  0
  4  5  1  0  0  0  0
  4 23  2  0  0  0  0
  5  6  1  0  0  0  0
  5 34  1  0  0  0  0
  5 35  1  0  0  0  0
  6 21  1  0  0  0  0
  6  7  1  0  0  0  0
  7  8  2  0  0  0  0
  7  9  1  0  0  0  0
  9 10  1  0  0  0  0
  9 11  2  0  0  0  0
 10 36  1  0  0  0  0
 10 37  1  0  0  0  0
 10 38  1  0  0  0  0
 11 12  1  0  0  0  0
 11 39  1  0  0  0  0
 12 13  1  0  0  0  0
 12 21  1  0  0  0  0
 13 20  1  0  0  0  0
 13 14  1  0  0  0  0
 13 40  1  0  0  0  0
 14 15  1  0  0  0  0
 14 41  1  0  0  0  0
 14 42  1  0  0  0  0
 15 16  1  0  0  0  0
 15 17  1  0  0  0  0
 15 43  1  0  0  0  0
 16 44  1  0  0  0  0
 17 18  1  0  0  0  0
 17 20  1  0  0  0  0
 17 45  1  0  0  0  0
 18 19  1  0  0  0  0
 18 46  1  0  0  0  0
 18 47  1  0  0  0  0
 19 48  1  0  0  0  0
 21 22  2  0  0  0  0
 23 28  1  0  0  0  0
 23 24  1  0  0  0  0
 24 25  2  0  0  0  0
 24 49  1  0  0  0  0
 25 26  1  0  0  0  0
 25 50  1  0  0  0  0
 26 27  2  0  0  0  0
 26 51  1  0  0  0  0
 27 28  1  0  0  0  0
 27 52  1  0  0  0  0
 28 29  2  0  0  0  0
 29 53  1  0  0  0  0
M  CHG  1  29   1
M  END
> <s_m_source_file>
AV-unprocessed.smi

> <i_m_source_file_index>
113

> <i_lp_mmshare_version>
43012

> <i_f3d_flags>
0

> <s_epik_input>
W2NIXTFbY0hdW2NIXVtjSF1jKGMxMiluYyhbQ0gzXSlbY0hdYzJbQ0gyXW4zYyg9TyljKFtDSDNdKVtjSF1uKGMzPU8pW0NAQEhdNFtDSDJdW0NAQEhdKFtPSF0pW0NASF0oTzQpW0NIMl1bT0hd

> <s_epik_cmdline>
J2VwaWtfcHl0aG9uJywgJy1waCcsICc3LjAnLCAnLXRuJywgJzgnLCAnLW1hJywgJzIwMCcsICctbWV0YWxfYmluZGluZycsICctaW1hZScsICc8aW5maWxlLm1hZT4nLCAnLW9tYWUnLCAnPG91dGZpbGUubWFlPic=

> <r_lp_tautomer_probability>
1

> <r_epik_Ionization_Penalty>
0.705471

> <r_epik_Ionization_Penalty_Charging>
0.70547

> <r_epik_Ionization_Penalty_Neutral>
1.19947e-07

> <r_epik_State_Penalty>
0.728574

> <r_epik_Charging_Adjusted_Penalty>
1.43404

> <i_epik_Tot_Q>
1

> <i_epik_Tot_abs_Q>
1

> <r_epik_Metal_State_Penalty>
4.61665

> <b_epik_Metal_Only>
0

> <s_epik_Chemistry_Notes>
This compound contains an acetal/aminal-like group ( X-CH(R)-Y where X, Y are N, S, or O) that may be acid/base labile, releasing an aldehyde.

> <s_lp_Force_Field>
OPLS_2005

> <r_lp_Energy>
41.2196

> <b_lp_Chiralities_Consistent>
1

> <s_lp_Variant>
AV-unprocessed.smi:113-14

> <Gold.Version>
5.8.1

> <Gold.Id.Protein>
6NUR|6NUR_protein|mol2

> <Gold.PLP.Fitness>
49.2501

> <Gold.PLP.PLP>
-45.2652

> <Gold.PLP.part.hbond>
-3.8128

> <Gold.PLP.part.metal>
0.0000

> <Gold.PLP.part.buried>
-5.4716

> <Gold.PLP.part.nonpolar>
-37.2465

> <Gold.PLP.part.repulsive>
0.2303

> <Gold.PLP.ligand.clash>
0.0000

> <Gold.PLP.ligand.torsion>
0.3403

> <Gold.PLP.Chemscore.Hbond>
1.5464

> <Gold.PLP.Chemscore.CHOScore>
0.0000

> <Gold.PLP.Chemscore.Metal>
0.0000

> <Gold.Chemscore.Hbonds>
donor molecule, donor type, donor heavy atom, donor atom, acceptor molecule, acceptor atom, score
      L1  H    19    48       P1  7948  0.17
      P1  H 10752 10765       L1    22  0.69

> <Gold.PLP.Chemscore.Internal.Correction>
0.0264

> <Gold.Rescore>
     Score         DG    S(hbond)    S(metal)    S(lipo)     H(rot)  DE(clash)    DE(int)     intcor
     13.74     -14.92       0.85        0.00     122.42       3.01       0.05       1.13       ----

> <Gold.Chemscore.Fitness>
13.7359

> <Gold.Chemscore.DG>
-14.9186

> <Gold.Chemscore.ZeroCoef>
-5.4800

> <Gold.Chemscore.Hbond>
0.8462

> <Gold.Chemscore.Metal>
0.0000

> <Gold.Chemscore.Lipo>
122.4185

> <Gold.Chemscore.Internal_Hbond>
0.0000

> <Gold.Chemscore.DEClash>
0.0491

> <Gold.Chemscore.DEInternal>
1.1336

> <Gold.Chemscore.Rot>
3.0120

> <Gold.Chemscore.Internal.Correction>
   9.000000E+99

> <Gold.Chemscore.Hbonds>
donor molecule, donor type, donor heavy atom, donor atom, acceptor molecule, acceptor atom, score
      L1  H    19    48       P1  7948  0.01
      P1  H 10752 10765       L1    22  0.17

> <Gold.Chemscore.Hbond.Weighted>
-2.8264

> <Gold.Chemscore.Metal.Weighted>
-0.0000

> <Gold.Chemscore.Lipo.Weighted>
-14.3230

> <Gold.Chemscore.Internal_Hbond.Weighted>
0.0000

> <Gold.Chemscore.DEClash.Weighted>
0.0491

> <Gold.Chemscore.DEInternal.Weighted>
1.1336

> <Gold.Chemscore.Rot.Weighted>
7.7108

> <Gold.Chemscore.Internal.Correction.Weighted>
   9.000000E+99

> <Gold.Protein.RotatedTorsions>
[ 6907 6896 6895 6894 ] final -141.83 input  -60.11 | X-H torsion
[ 7974 7965 7964 7962 ] final  101.86 input  175.53 | X-H torsion
[ 8008 7997 7996 7995 ] final -145.34 input   59.86 | X-H torsion
[ 10167 10162 10161 10158 ] final  -35.73 input  -65.29 | X-H torsion
[ 10718 10713 10712 10709 ] final  -71.65 input   66.30 | X-H torsion
[ 10763 10752 10751 10750 ] final -161.56 input  -60.55 | X-H torsion
[ 11005 11000 10999 10996 ] final  -79.24 input  -57.11 | X-H torsion

> <Gold.Protein.ActiveResidues>
 VAL166  LYS551  ARG553  GLY616  TRP617  ASP618  TYR619  PRO620  LYS621  CYS622 
 ASP623  PHE694  ASN695  SER759  ASP760  ASP761  ALA762  ILE779  LEU786  VAL792 
 PHE793  MET794  SER795  GLU796  ALA797  LYS798  CYS799  TRP800  GLU811  SER814 

> <Gold.Protein.RotatedAtoms>
  151.0790  133.5405  159.2621 H   0  0  0  0  0  0  0  0  0  0  0  0  # atno 6907 bound_to 6896
  151.2315  135.0555  159.8999 H   0  0  0  0  0  0  0  0  0  0  0  0  # atno 6908 bound_to 6896
  152.5421  134.0578  159.8192 H   0  0  0  0  0  0  0  0  0  0  0  0  # atno 6909 bound_to 6896
  145.3667  139.2406  143.3477 H   0  0  0  0  0  0  0  0  0  0  0  0  # atno 7974 bound_to 7965
  155.5416  140.0608  157.2869 H   0  0  0  0  0  0  0  0  0  0  0  0  # atno 8008 bound_to 7997
  154.4450  140.1918  156.0641 H   0  0  0  0  0  0  0  0  0  0  0  0  # atno 8009 bound_to 7997
  156.0580  140.3276  155.7432 H   0  0  0  0  0  0  0  0  0  0  0  0  # atno 8010 bound_to 7997
  140.7158  143.3457  151.2261 H   0  0  0  0  0  0  0  0  0  0  0  0  # atno 10167 bound_to 10162
  156.0354  130.4355  150.2475 H   0  0  0  0  0  0  0  0  0  0  0  0  # atno 10718 bound_to 10713
  154.7292  135.3043  154.8919 H   0  0  0  0  0  0  0  0  0  0  0  0  # atno 10763 bound_to 10752
  153.9767  135.6735  153.4753 H   0  0  0  0  0  0  0  0  0  0  0  0  # atno 10764 bound_to 10752
  153.0903  135.4963  154.8597 H   0  0  0  0  0  0  0  0  0  0  0  0  # atno 10765 bound_to 10752
  141.1667  133.7097  156.8093 H   0  0  0  0  0  0  0  0  0  0  0  0  # atno 11005 bound_to 11000
  146.2903  140.4311  142.8742 LP  0  0  0  0  0  0  0  0  0  0  0  0  # atno 17320 bound_to 7965
  144.8606  140.7134  143.6109 LP  0  0  0  0  0  0  0  0  0  0  0  0  # atno 17321 bound_to 7965
  139.6976  143.9587  152.2890 LP  0  0  0  0  0  0  0  0  0  0  0  0  # atno 17342 bound_to 10162
  139.9269  144.6765  150.8403 LP  0  0  0  0  0  0  0  0  0  0  0  0  # atno 17343 bound_to 10162
  157.0574  131.0080  151.3234 LP  0  0  0  0  0  0  0  0  0  0  0  0  # atno 17370 bound_to 10713
  157.5095  130.7930  149.7690 LP  0  0  0  0  0  0  0  0  0  0  0  0  # atno 17371 bound_to 10713
  140.2199  134.8765  157.3366 LP  0  0  0  0  0  0  0  0  0  0  0  0  # atno 17394 bound_to 11000
  140.1998  134.4268  155.7669 LP  0  0  0  0  0  0  0  0  0  0  0  0  # atno 17395 bound_to 11000

$$$$
