AV-unprocessed.smi:1978|AV-procd|sdf|8002|dock5
  -GOLD-   2272010183D 1   1.00000     0.00000
 Structure written by MMmdl.
 44 45  0  0  0  0  0  0  0  0  3 V2000
  153.6501  140.0772  160.1768 C   0  0  0  0  0  0  0  0  0  0  0  0
  152.9696  139.0494  159.3390 C   0  0  0  0  0  0  0  0  0  0  0  0
  152.0206  138.1068  159.6163 C   0  0  0  0  0  0  0  0  0  0  0  0
  151.8277  137.4620  158.3640 C   0  0  0  0  0  0  0  0  0  0  0  0
  150.9729  136.4573  158.1171 N   0  5  0  0  0  0  0  0  0  0  0  0
  150.8740  135.9392  156.8722 C   0  0  0  0  0  0  0  0  0  0  0  0
  151.7974  135.4872  156.1912 O   0  0  0  0  0  0  0  0  0  0  0  0
  149.6265  135.9497  156.3812 N   0  0  0  0  0  0  0  0  0  0  0  0
  149.2321  135.4766  155.0587 C   0  0  0  0  0  0  0  0  0  0  0  0
  147.6925  135.3902  154.9027 C   0  0  2  0  0  0  0  0  0  0  0  0
  147.0395  134.4946  155.9757 C   0  0  0  0  0  0  0  0  0  0  0  0
  147.2654  134.9967  153.5215 N   0  3  2  0  0  0  0  0  0  0  0  0
  145.9410  135.5542  153.1182 C   0  0  0  0  0  0  0  0  0  0  0  0
  145.6820  135.3553  151.6178 C   0  0  0  0  0  0  0  0  0  0  0  0
  145.7590  133.8720  151.2492 C   0  0  0  0  0  0  0  0  0  0  0  0
  147.1081  133.2996  151.6959 C   0  0  0  0  0  0  0  0  0  0  0  0
  147.3620  133.5327  153.2013 C   0  0  1  0  0  0  0  0  0  0  0  0
  148.7143  132.8994  153.5869 C   0  0  0  0  0  0  0  0  0  0  0  0
  152.5803  137.9793  157.4075 N   0  0  0  0  0  0  0  0  0  0  0  0
  153.3203  138.9940  158.0260 O   0  0  0  0  0  0  0  0  0  0  0  0
  152.9827  140.9159  160.3745 H   0  0  0  0  0  0  0  0  0  0  0  0
  154.5407  140.4626  159.6799 H   0  0  0  0  0  0  0  0  0  0  0  0
  153.9550  139.6541  161.1340 H   0  0  0  0  0  0  0  0  0  0  0  0
  151.5426  137.9072  160.5636 H   0  0  0  0  0  0  0  0  0  0  0  0
  148.8988  136.3258  156.9714 H   0  0  0  0  0  0  0  0  0  0  0  0
  149.6722  136.1293  154.3039 H   0  0  0  0  0  0  0  0  0  0  0  0
  149.6867  134.4960  154.9202 H   0  0  0  0  0  0  0  0  0  0  0  0
  147.2749  136.3743  155.1040 H   0  0  0  0  0  0  0  0  0  0  0  0
  147.1463  134.9341  156.9680 H   0  0  0  0  0  0  0  0  0  0  0  0
  147.4907  133.5038  156.0194 H   0  0  0  0  0  0  0  0  0  0  0  0
  145.9714  134.3741  155.7931 H   0  0  0  0  0  0  0  0  0  0  0  0
  145.1458  135.0763  153.6917 H   0  0  0  0  0  0  0  0  0  0  0  0
  145.8835  136.6204  153.3295 H   0  0  0  0  0  0  0  0  0  0  0  0
  144.7023  135.7540  151.3522 H   0  0  0  0  0  0  0  0  0  0  0  0
  146.4144  135.9197  151.0391 H   0  0  0  0  0  0  0  0  0  0  0  0
  144.9468  133.3264  151.7314 H   0  0  0  0  0  0  0  0  0  0  0  0
  145.6304  133.7422  150.1743 H   0  0  0  0  0  0  0  0  0  0  0  0
  147.1364  132.2327  151.4711 H   0  0  0  0  0  0  0  0  0  0  0  0
  147.9081  133.7572  151.1118 H   0  0  0  0  0  0  0  0  0  0  0  0
  146.5807  133.0092  153.7538 H   0  0  0  0  0  0  0  0  0  0  0  0
  148.7889  131.8796  153.2083 H   0  0  0  0  0  0  0  0  0  0  0  0
  148.8423  132.8306  154.6670 H   0  0  0  0  0  0  0  0  0  0  0  0
  149.5522  133.4641  153.1768 H   0  0  0  0  0  0  0  0  0  0  0  0
  147.9404  135.4395  152.9149 H   0  0  0  0  0  0  0  0  0  0  0  0
  1  2  1  0  0  0  0
  1 21  1  0  0  0  0
  1 22  1  0  0  0  0
  1 23  1  0  0  0  0
  2 20  1  0  0  0  0
  2  3  2  0  0  0  0
  3  4  1  0  0  0  0
  3 24  1  0  0  0  0
  4  5  1  0  0  0  0
  4 19  2  0  0  0  0
  5  6  1  0  0  0  0
  6  7  2  0  0  0  0
  6  8  1  0  0  0  0
  8  9  1  0  0  0  0
  8 25  1  0  0  0  0
  9 10  1  0  0  0  0
  9 26  1  0  0  0  0
  9 27  1  0  0  0  0
 10 11  1  0  0  0  0
 10 12  1  0  0  0  0
 10 28  1  0  0  0  0
 11 29  1  0  0  0  0
 11 30  1  0  0  0  0
 11 31  1  0  0  0  0
 12 17  1  0  0  0  0
 12 13  1  0  0  0  0
 12 44  1  0  0  0  0
 13 14  1  0  0  0  0
 13 32  1  0  0  0  0
 13 33  1  0  0  0  0
 14 15  1  0  0  0  0
 14 34  1  0  0  0  0
 14 35  1  0  0  0  0
 15 16  1  0  0  0  0
 15 36  1  0  0  0  0
 15 37  1  0  0  0  0
 16 17  1  0  0  0  0
 16 38  1  0  0  0  0
 16 39  1  0  0  0  0
 17 18  1  0  0  0  0
 17 40  1  0  0  0  0
 18 41  1  0  0  0  0
 18 42  1  0  0  0  0
 18 43  1  0  0  0  0
 19 20  1  0  0  0  0
M  CHG  1   5  -1
M  CHG  1  12   1
M  END
> <s_m_source_file>
AV-unprocessed.smi

> <i_m_source_file_index>
1978

> <i_lp_mmshare_version>
43012

> <i_f3d_flags>
0

> <s_epik_input>
W0NIM11jMVtjSF1jKG5vMSlbTkhdQyg9TylbTkhdW0NIMl1bQ0BIXShbQ0gzXSlOMltDSDJdW0NIMl1bQ0gyXVtDSDJdW0NASF0yW0NIM10=

> <s_epik_cmdline>
J2VwaWtfcHl0aG9uJywgJy1waCcsICc3LjAnLCAnLXRuJywgJzgnLCAnLW1hJywgJzIwMCcsICctbWV0YWxfYmluZGluZycsICctaW1hZScsICc8aW5maWxlLm1hZT4nLCAnLW9tYWUnLCAnPG91dGZpbGUubWFlPic=

> <r_epik_Ionization_Penalty>
6.22372

> <r_epik_Ionization_Penalty_Charging>
6.22362

> <r_epik_Ionization_Penalty_Neutral>
9.65074e-05

> <r_epik_State_Penalty>
6.22363

> <r_epik_Charging_Adjusted_Penalty>
12.4472

> <i_epik_Tot_Q>
0

> <i_epik_Tot_abs_Q>
2

> <r_epik_Metal_State_Penalty>
2.16675

> <b_epik_Metal_Only>
1

> <s_lp_Force_Field>
OPLS_2005

> <r_lp_Energy>
9.77909

> <b_lp_Chiralities_Consistent>
1

> <s_lp_Variant>
AV-unprocessed.smi:1978-11

> <Gold.Version>
5.8.1

> <Gold.Id.Protein>
6NUR|6NUR_protein|mol2

> <Gold.PLP.Fitness>
38.4119

> <Gold.PLP.PLP>
-25.3145

> <Gold.PLP.part.hbond>
-4.0000

> <Gold.PLP.part.metal>
0.0000

> <Gold.PLP.part.buried>
-3.7808

> <Gold.PLP.part.nonpolar>
-18.8793

> <Gold.PLP.part.repulsive>
0.0536

> <Gold.PLP.ligand.clash>
0.0000

> <Gold.PLP.ligand.torsion>
0.9716

> <Gold.PLP.Chemscore.Hbond>
4.9594

> <Gold.PLP.Chemscore.CHOScore>
0.0000

> <Gold.PLP.Chemscore.Metal>
0.0000

> <Gold.Chemscore.Hbonds>
donor molecule, donor type, donor heavy atom, donor atom, acceptor molecule, acceptor atom, score
      L1  H    12    44       P1  7948  2.00
      P1  H  6896  6908       L1     5  0.79
      P1  H  7997  8010       L1    20  1.00
      P1  H 10752 10764       L1     7  1.00

> <Gold.PLP.Chemscore.Internal.Correction>
0.1624

> <Gold.Rescore>
     Score         DG    S(hbond)    S(metal)    S(lipo)     H(rot)  DE(clash)    DE(int)     intcor
     16.29     -19.50       3.36        0.00      57.16       1.52       0.18       3.03       ----

> <Gold.Chemscore.Fitness>
16.2912

> <Gold.Chemscore.DG>
-19.4988

> <Gold.Chemscore.ZeroCoef>
-5.4800

> <Gold.Chemscore.Hbond>
3.3590

> <Gold.Chemscore.Metal>
0.0000

> <Gold.Chemscore.Lipo>
57.1641

> <Gold.Chemscore.Internal_Hbond>
0.0000

> <Gold.Chemscore.DEClash>
0.1819

> <Gold.Chemscore.DEInternal>
3.0257

> <Gold.Chemscore.Rot>
1.5190

> <Gold.Chemscore.Internal.Correction>
   9.000000E+99

> <Gold.Chemscore.Hbonds>
donor molecule, donor type, donor heavy atom, donor atom, acceptor molecule, acceptor atom, score
      L1  H    12    44       P1  7948  1.00
      P1  H  6896  6908       L1     5  0.26
      P1  H  7997  8010       L1    20  0.95
      P1  H 10752 10764       L1     7  0.95

> <Gold.Chemscore.Hbond.Weighted>
-11.2192

> <Gold.Chemscore.Metal.Weighted>
-0.0000

> <Gold.Chemscore.Lipo.Weighted>
-6.6882

> <Gold.Chemscore.Internal_Hbond.Weighted>
0.0000

> <Gold.Chemscore.DEClash.Weighted>
0.1819

> <Gold.Chemscore.DEInternal.Weighted>
3.0257

> <Gold.Chemscore.Rot.Weighted>
3.8886

> <Gold.Chemscore.Internal.Correction.Weighted>
   9.000000E+99

> <Gold.Protein.RotatedTorsions>
[ 6907 6896 6895 6894 ] final -154.98 input  -60.11 | X-H torsion
[ 7974 7965 7964 7962 ] final  177.84 input  175.53 | X-H torsion
[ 8008 7997 7996 7995 ] final   17.05 input   59.86 | X-H torsion
[ 10167 10162 10161 10158 ] final   45.74 input  -65.29 | X-H torsion
[ 10718 10713 10712 10709 ] final -158.89 input   66.30 | X-H torsion
[ 10763 10752 10751 10750 ] final  -12.96 input  -60.55 | X-H torsion
[ 11005 11000 10999 10996 ] final   58.87 input  -57.11 | X-H torsion

> <Gold.Protein.ActiveResidues>
 VAL166  LYS551  ARG553  GLY616  TRP617  ASP618  TYR619  PRO620  LYS621  CYS622 
 ASP623  PHE694  ASN695  SER759  ASP760  ASP761  ALA762  ILE779  LEU786  VAL792 
 PHE793  MET794  SER795  GLU796  ALA797  LYS798  CYS799  TRP800  GLU811  SER814 

> <Gold.Protein.RotatedAtoms>
  151.2656  133.4280  159.2618 H   0  0  0  0  0  0  0  0  0  0  0  0  # atno 6907 bound_to 6896
  151.0491  134.9661  159.8212 H   0  0  0  0  0  0  0  0  0  0  0  0  # atno 6908 bound_to 6896
  152.5379  134.2611  159.8988 H   0  0  0  0  0  0  0  0  0  0  0  0  # atno 6909 bound_to 6896
  144.7164  140.0307  143.6439 H   0  0  0  0  0  0  0  0  0  0  0  0  # atno 7974 bound_to 7965
  154.8858  140.2979  155.5399 H   0  0  0  0  0  0  0  0  0  0  0  0  # atno 8008 bound_to 7997
  156.3021  140.2434  156.3801 H   0  0  0  0  0  0  0  0  0  0  0  0  # atno 8009 bound_to 7997
  154.8669  140.0403  157.1689 H   0  0  0  0  0  0  0  0  0  0  0  0  # atno 8010 bound_to 7997
  140.3210  144.2705  150.6183 H   0  0  0  0  0  0  0  0  0  0  0  0  # atno 10167 bound_to 10162
  156.5605  130.8645  151.2808 H   0  0  0  0  0  0  0  0  0  0  0  0  # atno 10718 bound_to 10713
  153.5062  135.7017  153.5805 H   0  0  0  0  0  0  0  0  0  0  0  0  # atno 10763 bound_to 10752
  153.3915  135.3894  155.1926 H   0  0  0  0  0  0  0  0  0  0  0  0  # atno 10764 bound_to 10752
  154.8707  135.3859  154.4537 H   0  0  0  0  0  0  0  0  0  0  0  0  # atno 10765 bound_to 10752
  140.0345  134.5963  155.9462 H   0  0  0  0  0  0  0  0  0  0  0  0  # atno 11005 bound_to 11000
  146.0105  139.3166  143.0873 LP  0  0  0  0  0  0  0  0  0  0  0  0  # atno 17320 bound_to 7965
  145.8687  140.9432  143.0662 LP  0  0  0  0  0  0  0  0  0  0  0  0  # atno 17321 bound_to 7965
  140.5483  143.2211  151.7969 LP  0  0  0  0  0  0  0  0  0  0  0  0  # atno 17342 bound_to 10162
  139.4874  144.4510  151.9654 LP  0  0  0  0  0  0  0  0  0  0  0  0  # atno 17343 bound_to 10162
  157.7369  130.9787  150.2165 LP  0  0  0  0  0  0  0  0  0  0  0  0  # atno 17370 bound_to 10713
  156.2804  130.3732  149.7941 LP  0  0  0  0  0  0  0  0  0  0  0  0  # atno 17371 bound_to 10713
  141.1850  133.6554  156.5178 LP  0  0  0  0  0  0  0  0  0  0  0  0  # atno 17394 bound_to 11000
  140.4170  134.7221  157.4868 LP  0  0  0  0  0  0  0  0  0  0  0  0  # atno 17395 bound_to 11000

$$$$
