AV-unprocessed.smi:43|AV-procd|sdf|394|dock6
  -GOLD-   2262016253D 1   1.00000     0.00000
 Structure written by MMmdl.
 25 26  0  0  0  0  0  0  0  0  2 V2000
  152.5601  142.6700  160.5196 C   0  0  0  0  0  0  0  0  0  0  0  0
  153.1480  141.5245  159.8490 N   0  0  0  0  0  0  0  0  0  0  0  0
  154.2673  140.9567  160.3650 N   0  0  0  0  0  0  0  0  0  0  0  0
  154.5855  139.9652  159.5862 N   0  0  0  0  0  0  0  0  0  0  0  0
  153.6951  139.8461  158.5396 N   0  0  0  0  0  0  0  0  0  0  0  0
  152.8224  140.8268  158.7437 C   0  0  0  0  0  0  0  0  0  0  0  0
  151.7220  141.1103  157.9217 N   0  0  0  0  0  0  0  0  0  0  0  0
  150.3418  141.4230  158.3019 C   0  0  0  0  0  0  0  0  0  0  0  0
  149.4963  141.5059  157.0307 C   0  0  1  0  0  0  0  0  0  0  0  0
  148.4194  142.4115  157.1545 O   0  0  0  0  0  0  0  0  0  0  0  0
  150.5134  141.9425  155.9956 C   0  0  0  0  0  0  0  0  0  0  0  0
  151.7786  141.2116  156.4577 C   0  0  2  0  0  0  0  0  0  0  0  0
  151.9326  139.8318  155.7929 C   0  0  0  0  0  0  0  0  0  0  0  0
  152.8715  139.1140  156.2002 O   0  0  0  0  0  0  0  0  0  0  0  0
  151.1217  139.5179  154.8926 O   0  5  0  0  0  0  0  0  0  0  0  0
  149.1068  140.5196  156.7750 H   0  0  0  0  0  0  0  0  0  0  0  0
  152.6483  141.8103  156.1830 H   0  0  0  0  0  0  0  0  0  0  0  0
  151.5757  142.4070  160.9060 H   0  0  0  0  0  0  0  0  0  0  0  0
  152.4749  143.5060  159.8264 H   0  0  0  0  0  0  0  0  0  0  0  0
  153.1850  142.9829  161.3572 H   0  0  0  0  0  0  0  0  0  0  0  0
  149.9294  140.6700  158.9719 H   0  0  0  0  0  0  0  0  0  0  0  0
  150.3441  142.3805  158.8240 H   0  0  0  0  0  0  0  0  0  0  0  0
  148.5332  143.0990  156.5166 H   0  0  0  0  0  0  0  0  0  0  0  0
  150.2109  141.7011  154.9756 H   0  0  0  0  0  0  0  0  0  0  0  0
  150.6759  143.0200  156.0494 H   0  0  0  0  0  0  0  0  0  0  0  0
  1  2  1  0  0  0  0
  1 18  1  0  0  0  0
  1 19  1  0  0  0  0
  1 20  1  0  0  0  0
  2  6  1  0  0  0  0
  2  3  1  0  0  0  0
  3  4  2  0  0  0  0
  4  5  1  0  0  0  0
  5  6  2  0  0  0  0
  6  7  1  0  0  0  0
  7 12  1  0  0  0  0
  7  8  1  0  0  0  0
  8  9  1  0  0  0  0
  8 21  1  0  0  0  0
  8 22  1  0  0  0  0
  9 16  1  0  0  0  0
  9 10  1  0  0  0  0
  9 11  1  0  0  0  0
 10 23  1  0  0  0  0
 11 12  1  0  0  0  0
 11 24  1  0  0  0  0
 11 25  1  0  0  0  0
 12 17  1  0  0  0  0
 12 13  1  0  0  0  0
 13 14  2  0  0  0  0
 13 15  1  0  0  0  0
M  CHG  1  15  -1
M  END
> <s_m_source_file>
AV-unprocessed.smi

> <i_m_source_file_index>
43

> <i_lp_mmshare_version>
43012

> <i_f3d_flags>
0

> <s_epik_input>
W0NIM11uMW5ubmMxTjJbQ0gyXVtDQEhdKFtPSF0pW0NIMl1bQ0BIXTJDKD1PKVtPSF0=

> <s_epik_cmdline>
J2VwaWtfcHl0aG9uJywgJy1waCcsICc3LjAnLCAnLXRuJywgJzgnLCAnLW1hJywgJzIwMCcsICctbWV0YWxfYmluZGluZycsICctaW1hZScsICc8aW5maWxlLm1hZT4nLCAnLW9tYWUnLCAnPG91dGZpbGUubWFlPic=

> <r_lp_tautomer_probability>
1

> <r_epik_Ionization_Penalty>
0.000193127

> <r_epik_Ionization_Penalty_Charging>
0.000192933

> <r_epik_Ionization_Penalty_Neutral>
1.93728e-07

> <r_epik_State_Penalty>
-0

> <r_epik_Charging_Adjusted_Penalty>
0.000192933

> <i_epik_Tot_Q>
-1

> <i_epik_Tot_abs_Q>
1

> <r_epik_Metal_State_Penalty>
-0

> <b_epik_Metal_Only>
0

> <s_lp_Force_Field>
OPLS_2005

> <r_lp_Energy>
20.0951

> <b_lp_Chiralities_Consistent>
1

> <s_lp_Variant>
AV-unprocessed.smi:43-4

> <Gold.Version>
5.8.1

> <Gold.Id.Protein>
6NUR|6NUR_protein|mol2

> <Gold.PLP.Fitness>
35.9427

> <Gold.PLP.PLP>
-25.6918

> <Gold.PLP.part.hbond>
-4.1043

> <Gold.PLP.part.metal>
0.0000

> <Gold.PLP.part.buried>
-4.5069

> <Gold.PLP.part.nonpolar>
-16.5598

> <Gold.PLP.part.repulsive>
0.0487

> <Gold.PLP.ligand.clash>
0.0000

> <Gold.PLP.ligand.torsion>
0.8766

> <Gold.PLP.Chemscore.Hbond>
4.0000

> <Gold.PLP.Chemscore.CHOScore>
0.0000

> <Gold.PLP.Chemscore.Metal>
0.0000

> <Gold.Chemscore.Hbonds>
donor molecule, donor type, donor heavy atom, donor atom, acceptor molecule, acceptor atom, score
      L1  H    10    23       P1  8028  1.00
      P1  H  7989  7998       L1    15  0.95
      P1  H  7997  8008       L1    14  2.00

> <Gold.PLP.Chemscore.Internal.Correction>
0.0041

> <Gold.Rescore>
     Score         DG    S(hbond)    S(metal)    S(lipo)     H(rot)  DE(clash)    DE(int)     intcor
      9.52     -14.00       2.61        0.00      35.13       1.69       1.38       3.09       ----

> <Gold.Chemscore.Fitness>
9.5228

> <Gold.Chemscore.DG>
-13.9972

> <Gold.Chemscore.ZeroCoef>
-5.4800

> <Gold.Chemscore.Hbond>
2.6138

> <Gold.Chemscore.Metal>
0.0000

> <Gold.Chemscore.Lipo>
35.1317

> <Gold.Chemscore.Internal_Hbond>
0.0000

> <Gold.Chemscore.DEClash>
1.3802

> <Gold.Chemscore.DEInternal>
3.0942

> <Gold.Chemscore.Rot>
1.6887

> <Gold.Chemscore.Internal.Correction>
   9.000000E+99

> <Gold.Chemscore.Hbonds>
donor molecule, donor type, donor heavy atom, donor atom, acceptor molecule, acceptor atom, score
      L1  H    10    23       P1  8028  0.78
      P1  H  7989  7998       L1    15  0.21
      P1  H  7997  8008       L1    14  0.74

> <Gold.Chemscore.Hbond.Weighted>
-8.7300

> <Gold.Chemscore.Metal.Weighted>
-0.0000

> <Gold.Chemscore.Lipo.Weighted>
-4.1104

> <Gold.Chemscore.Internal_Hbond.Weighted>
0.0000

> <Gold.Chemscore.DEClash.Weighted>
1.3802

> <Gold.Chemscore.DEInternal.Weighted>
3.0942

> <Gold.Chemscore.Rot.Weighted>
4.3232

> <Gold.Chemscore.Internal.Correction.Weighted>
   9.000000E+99

> <Gold.Protein.RotatedTorsions>
[ 6907 6896 6895 6894 ] final  -34.11 input  -60.11 | X-H torsion
[ 7974 7965 7964 7962 ] final  155.59 input  175.53 | X-H torsion
[ 8008 7997 7996 7995 ] final  -45.75 input   59.86 | X-H torsion
[ 10167 10162 10161 10158 ] final -105.84 input  -65.29 | X-H torsion
[ 10718 10713 10712 10709 ] final  -68.78 input   66.30 | X-H torsion
[ 10763 10752 10751 10750 ] final   97.54 input  -60.55 | X-H torsion
[ 11005 11000 10999 10996 ] final -133.82 input  -57.11 | X-H torsion

> <Gold.Protein.ActiveResidues>
 VAL166  LYS551  ARG553  GLY616  TRP617  ASP618  TYR619  PRO620  LYS621  CYS622 
 ASP623  PHE694  ASN695  SER759  ASP760  ASP761  ALA762  ILE779  LEU786  VAL792 
 PHE793  MET794  SER795  GLU796  ALA797  LYS798  CYS799  TRP800  GLU811  SER814 

> <Gold.Protein.RotatedAtoms>
  151.0569  134.9710  159.8239 H   0  0  0  0  0  0  0  0  0  0  0  0  # atno 6907 bound_to 6896
  152.5389  134.2467  159.8893 H   0  0  0  0  0  0  0  0  0  0  0  0  # atno 6908 bound_to 6896
  151.2485  133.4319  159.2644 H   0  0  0  0  0  0  0  0  0  0  0  0  # atno 6909 bound_to 6896
  144.8015  139.7089  143.6180 H   0  0  0  0  0  0  0  0  0  0  0  0  # atno 7974 bound_to 7965
  154.4003  140.1389  156.3898 H   0  0  0  0  0  0  0  0  0  0  0  0  # atno 8008 bound_to 7997
  155.7925  140.3478  155.5337 H   0  0  0  0  0  0  0  0  0  0  0  0  # atno 8009 bound_to 7997
  155.8565  140.0949  157.1631 H   0  0  0  0  0  0  0  0  0  0  0  0  # atno 8010 bound_to 7997
  140.1942  143.3868  152.1182 H   0  0  0  0  0  0  0  0  0  0  0  0  # atno 10167 bound_to 10162
  156.0488  130.4301  150.2051 H   0  0  0  0  0  0  0  0  0  0  0  0  # atno 10718 bound_to 10713
  153.2781  135.4180  155.1052 H   0  0  0  0  0  0  0  0  0  0  0  0  # atno 10763 bound_to 10752
  154.8480  135.3488  154.6150 H   0  0  0  0  0  0  0  0  0  0  0  0  # atno 10764 bound_to 10752
  153.6570  135.7050  153.5247 H   0  0  0  0  0  0  0  0  0  0  0  0  # atno 10765 bound_to 10752
  140.9046  134.1647  157.4435 H   0  0  0  0  0  0  0  0  0  0  0  0  # atno 11005 bound_to 11000
  146.2297  139.5791  142.9563 LP  0  0  0  0  0  0  0  0  0  0  0  0  # atno 17320 bound_to 7965
  145.5541  141.0410  143.2262 LP  0  0  0  0  0  0  0  0  0  0  0  0  # atno 17321 bound_to 7965
  139.5243  144.7082  151.5288 LP  0  0  0  0  0  0  0  0  0  0  0  0  # atno 17342 bound_to 10162
  140.6435  143.8842  150.6714 LP  0  0  0  0  0  0  0  0  0  0  0  0  # atno 17343 bound_to 10162
  157.0138  130.9959  151.3358 LP  0  0  0  0  0  0  0  0  0  0  0  0  # atno 17370 bound_to 10713
  157.5392  130.8109  149.8008 LP  0  0  0  0  0  0  0  0  0  0  0  0  # atno 17371 bound_to 10713
  139.8747  134.9911  156.5536 LP  0  0  0  0  0  0  0  0  0  0  0  0  # atno 17394 bound_to 11000
  140.8187  133.8371  155.8876 LP  0  0  0  0  0  0  0  0  0  0  0  0  # atno 17395 bound_to 11000

$$$$
