AV-unprocessed.smi:3234|AV-procd|sdf|12358|dock5
  -GOLD-   2272018223D 1   1.00000     0.00000
 Structure written by MMmdl.
 37 39  0  0  0  0  0  0  0  0  4 V2000
  145.2219  138.2173  154.2487 O   0  0  0  0  0  0  0  0  0  0  0  0
  146.1537  137.6221  153.6950 C   0  0  0  0  0  0  0  0  0  0  0  0
  147.3459  138.2247  153.5393 N   0  0  0  0  0  0  0  0  0  0  0  0
  147.7267  139.5468  153.8927 C   0  0  0  0  0  0  0  0  0  0  0  0
  146.7522  140.5638  153.7917 C   0  0  0  0  0  0  0  0  0  0  0  0
  147.0871  141.8841  154.1547 C   0  0  0  0  0  0  0  0  0  0  0  0
  148.3283  142.1629  154.6079 N   0  3  0  0  0  0  0  0  0  0  0  0
  149.2866  141.2204  154.7396 C   0  0  0  0  0  0  0  0  0  0  0  0
  149.0104  139.8828  154.3916 C   0  0  0  0  0  0  0  0  0  0  0  0
  146.1497  136.3536  153.2029 N   0  5  0  0  0  0  0  0  0  0  0  0
  145.7783  135.9916  151.8336 C   0  0  2  0  0  0  0  0  0  0  0  0
  144.2605  135.9658  151.6473 C   0  0  0  0  0  0  0  0  0  0  0  0
  144.0336  134.9656  150.5034 C   0  0  0  0  0  0  0  0  0  0  0  0
  145.2934  134.2006  150.3507 N   0  3  2  0  0  0  0  0  0  0  0  0
  145.1081  132.7465  150.1571 C   0  0  0  0  0  0  0  0  0  0  0  0
  143.8087  132.3900  149.4753 C   0  0  0  0  0  0  0  0  0  0  0  0
  143.9692  132.1718  150.9644 C   0  0  0  0  0  0  0  0  0  0  0  0
  146.1662  134.5536  151.4869 C   0  0  0  0  0  0  0  0  0  0  0  0
  148.0850  137.6359  153.1837 H   0  0  0  0  0  0  0  0  0  0  0  0
  145.7587  140.3379  153.4317 H   0  0  0  0  0  0  0  0  0  0  0  0
  146.4034  142.7185  154.0991 H   0  0  0  0  0  0  0  0  0  0  0  0
  150.2374  141.5596  155.1236 H   0  0  0  0  0  0  0  0  0  0  0  0
  149.7786  139.1357  154.5230 H   0  0  0  0  0  0  0  0  0  0  0  0
  146.2091  136.6640  151.0896 H   0  0  0  0  0  0  0  0  0  0  0  0
  143.7693  135.5948  152.5488 H   0  0  0  0  0  0  0  0  0  0  0  0
  143.8494  136.9520  151.4297 H   0  0  0  0  0  0  0  0  0  0  0  0
  143.1877  134.3137  150.7284 H   0  0  0  0  0  0  0  0  0  0  0  0
  143.8131  135.4746  149.5638 H   0  0  0  0  0  0  0  0  0  0  0  0
  146.0077  132.1621  149.9716 H   0  0  0  0  0  0  0  0  0  0  0  0
  143.1572  133.2005  149.1528 H   0  0  0  0  0  0  0  0  0  0  0  0
  143.8016  131.5073  148.8394 H   0  0  0  0  0  0  0  0  0  0  0  0
  144.0673  131.1446  151.3099 H   0  0  0  0  0  0  0  0  0  0  0  0
  143.4237  132.8368  151.6314 H   0  0  0  0  0  0  0  0  0  0  0  0
  147.2205  134.4530  151.2269 H   0  0  0  0  0  0  0  0  0  0  0  0
  145.9583  133.8871  152.3264 H   0  0  0  0  0  0  0  0  0  0  0  0
  145.7471  134.5665  149.5261 H   0  0  0  0  0  0  0  0  0  0  0  0
  148.5497  143.1245  154.8669 H   0  0  0  0  0  0  0  0  0  0  0  0
  1  2  2  0  0  0  0
  2  3  1  0  0  0  0
  2 10  1  0  0  0  0
  3  4  1  0  0  0  0
  3 19  1  0  0  0  0
  4  9  1  0  0  0  0
  4  5  2  0  0  0  0
  5  6  1  0  0  0  0
  5 20  1  0  0  0  0
  6  7  2  0  0  0  0
  6 21  1  0  0  0  0
  7  8  1  0  0  0  0
  7 37  1  0  0  0  0
  8  9  2  0  0  0  0
  8 22  1  0  0  0  0
  9 23  1  0  0  0  0
 10 11  1  0  0  0  0
 11 18  1  0  0  0  0
 11 12  1  0  0  0  0
 11 24  1  0  0  0  0
 12 13  1  0  0  0  0
 12 25  1  0  0  0  0
 12 26  1  0  0  0  0
 13 14  1  0  0  0  0
 13 27  1  0  0  0  0
 13 28  1  0  0  0  0
 14 15  1  0  0  0  0
 14 18  1  0  0  0  0
 14 36  1  0  0  0  0
 15 17  1  0  0  0  0
 15 16  1  0  0  0  0
 15 29  1  0  0  0  0
 16 17  1  0  0  0  0
 16 30  1  0  0  0  0
 16 31  1  0  0  0  0
 17 32  1  0  0  0  0
 17 33  1  0  0  0  0
 18 34  1  0  0  0  0
 18 35  1  0  0  0  0
M  CHG  1   7   1
M  CHG  1  10  -1
M  CHG  1  14   1
M  END
> <s_m_source_file>
AV-unprocessed.smi

> <i_m_source_file_index>
3234

> <i_lp_mmshare_version>
43012

> <i_f3d_flags>
0

> <s_epik_input>
W2NIXTFbY0hdbltjSF1bY0hdYzFbTkhdQyg9TylbTkhdW0NAQEhdMltDSDJdW0NIMl1OKFtDSDJdMilbQ0hdM1tDSDJdW0NIMl0z

> <s_epik_cmdline>
J2VwaWtfcHl0aG9uJywgJy1waCcsICc3LjAnLCAnLXRuJywgJzgnLCAnLW1hJywgJzIwMCcsICctbWV0YWxfYmluZGluZycsICctaW1hZScsICc8aW5maWxlLm1hZT4nLCAnLW9tYWUnLCAnPG91dGZpbGUubWFlPic=

> <r_epik_Ionization_Penalty>
8.3234

> <r_epik_Ionization_Penalty_Charging>
8.3234

> <r_epik_Ionization_Penalty_Neutral>
3.58513e-06

> <r_epik_State_Penalty>
7.99376

> <r_epik_Charging_Adjusted_Penalty>
16.3172

> <i_epik_Tot_Q>
1

> <i_epik_Tot_abs_Q>
3

> <r_epik_Metal_State_Penalty>
3.98956

> <b_epik_Metal_Only>
1

> <s_lp_Force_Field>
OPLS_2005

> <r_lp_Energy>
39.7431

> <b_lp_Chiralities_Consistent>
1

> <s_lp_Variant>
AV-unprocessed.smi:3234-11

> <Gold.Version>
5.8.1

> <Gold.Id.Protein>
6NUR|6NUR_protein|mol2

> <Gold.PLP.Fitness>
43.4479

> <Gold.PLP.PLP>
-33.8288

> <Gold.PLP.part.hbond>
-3.0000

> <Gold.PLP.part.metal>
0.0000

> <Gold.PLP.part.buried>
-2.7036

> <Gold.PLP.part.nonpolar>
-28.8115

> <Gold.PLP.part.repulsive>
1.1726

> <Gold.PLP.ligand.clash>
0.0000

> <Gold.PLP.ligand.torsion>
1.8299

> <Gold.PLP.Chemscore.Hbond>
4.0000

> <Gold.PLP.Chemscore.CHOScore>
0.0000

> <Gold.PLP.Chemscore.Metal>
0.0000

> <Gold.Chemscore.Hbonds>
donor molecule, donor type, donor heavy atom, donor atom, acceptor molecule, acceptor atom, score
      L1  H     3    19       P1  7948  0.81
      L1  H     7    37       P1  8028  2.00
      L1  H    14    36       P1  7921  1.00

> <Gold.PLP.Chemscore.Internal.Correction>
1.2789

> <Gold.Rescore>
     Score         DG    S(hbond)    S(metal)    S(lipo)     H(rot)  DE(clash)    DE(int)     intcor
     18.31     -21.93       2.85        0.00      85.90       1.21       0.50       3.13       ----

> <Gold.Chemscore.Fitness>
18.3070

> <Gold.Chemscore.DG>
-21.9340

> <Gold.Chemscore.ZeroCoef>
-5.4800

> <Gold.Chemscore.Hbond>
2.8454

> <Gold.Chemscore.Metal>
0.0000

> <Gold.Chemscore.Lipo>
85.8959

> <Gold.Chemscore.Internal_Hbond>
0.0000

> <Gold.Chemscore.DEClash>
0.4963

> <Gold.Chemscore.DEInternal>
3.1307

> <Gold.Chemscore.Rot>
1.2108

> <Gold.Chemscore.Internal.Correction>
   9.000000E+99

> <Gold.Chemscore.Hbonds>
donor molecule, donor type, donor heavy atom, donor atom, acceptor molecule, acceptor atom, score
      L1  H     3    19       P1  7948  0.79
      L1  H     7    37       P1  8028  1.00
      L1  H    14    36       P1  7921  0.81

> <Gold.Chemscore.Hbond.Weighted>
-9.5038

> <Gold.Chemscore.Metal.Weighted>
-0.0000

> <Gold.Chemscore.Lipo.Weighted>
-10.0498

> <Gold.Chemscore.Internal_Hbond.Weighted>
0.0000

> <Gold.Chemscore.DEClash.Weighted>
0.4963

> <Gold.Chemscore.DEInternal.Weighted>
3.1307

> <Gold.Chemscore.Rot.Weighted>
3.0996

> <Gold.Chemscore.Internal.Correction.Weighted>
   9.000000E+99

> <Gold.Protein.RotatedTorsions>
[ 6907 6896 6895 6894 ] final -125.51 input  -60.11 | X-H torsion
[ 7974 7965 7964 7962 ] final -132.40 input  175.53 | X-H torsion
[ 8008 7997 7996 7995 ] final  140.73 input   59.86 | X-H torsion
[ 10167 10162 10161 10158 ] final   86.63 input  -65.29 | X-H torsion
[ 10718 10713 10712 10709 ] final  147.00 input   66.30 | X-H torsion
[ 10763 10752 10751 10750 ] final  -69.60 input  -60.55 | X-H torsion
[ 11005 11000 10999 10996 ] final  179.52 input  -57.11 | X-H torsion

> <Gold.Protein.ActiveResidues>
 VAL166  LYS551  ARG553  GLY616  TRP617  ASP618  TYR619  PRO620  LYS621  CYS622 
 ASP623  PHE694  ASN695  SER759  ASP760  ASP761  ALA762  ILE779  LEU786  VAL792 
 PHE793  MET794  SER795  GLU796  ALA797  LYS798  CYS799  TRP800  GLU811  SER814 

> <Gold.Protein.RotatedAtoms>
  150.8875  133.7288  159.2913 H   0  0  0  0  0  0  0  0  0  0  0  0  # atno 6907 bound_to 6896
  151.4849  135.1053  159.9797 H   0  0  0  0  0  0  0  0  0  0  0  0  # atno 6908 bound_to 6896
  152.4799  133.8182  159.7095 H   0  0  0  0  0  0  0  0  0  0  0  0  # atno 6909 bound_to 6896
  144.9289  140.7105  143.4918 H   0  0  0  0  0  0  0  0  0  0  0  0  # atno 7974 bound_to 7965
  156.2975  140.2333  156.4449 H   0  0  0  0  0  0  0  0  0  0  0  0  # atno 8008 bound_to 7997
  154.8152  140.0441  157.1392 H   0  0  0  0  0  0  0  0  0  0  0  0  # atno 8009 bound_to 7997
  154.9377  140.3025  155.5139 H   0  0  0  0  0  0  0  0  0  0  0  0  # atno 8010 bound_to 7997
  139.8856  144.6415  150.8795 H   0  0  0  0  0  0  0  0  0  0  0  0  # atno 10167 bound_to 10162
  157.3264  131.0913  151.1199 H   0  0  0  0  0  0  0  0  0  0  0  0  # atno 10718 bound_to 10713
  154.4057  135.6020  153.5923 H   0  0  0  0  0  0  0  0  0  0  0  0  # atno 10763 bound_to 10752
  152.9789  135.5917  154.4131 H   0  0  0  0  0  0  0  0  0  0  0  0  # atno 10764 bound_to 10752
  154.3936  135.2842  155.2118 H   0  0  0  0  0  0  0  0  0  0  0  0  # atno 10765 bound_to 10752
  140.4071  134.6725  157.4594 H   0  0  0  0  0  0  0  0  0  0  0  0  # atno 11005 bound_to 11000
  145.3174  139.1799  143.4606 LP  0  0  0  0  0  0  0  0  0  0  0  0  # atno 17320 bound_to 7965
  146.3238  140.3187  142.8631 LP  0  0  0  0  0  0  0  0  0  0  0  0  # atno 17321 bound_to 7965
  140.7736  143.3551  151.1938 LP  0  0  0  0  0  0  0  0  0  0  0  0  # atno 17342 bound_to 10162
  139.7156  143.9306  152.2965 LP  0  0  0  0  0  0  0  0  0  0  0  0  # atno 17343 bound_to 10162
  157.2464  130.6593  149.5912 LP  0  0  0  0  0  0  0  0  0  0  0  0  # atno 17370 bound_to 10713
  155.9691  130.4552  150.5879 LP  0  0  0  0  0  0  0  0  0  0  0  0  # atno 17371 bound_to 10713
  140.0294  134.6429  155.9127 LP  0  0  0  0  0  0  0  0  0  0  0  0  # atno 17394 bound_to 11000
  141.1835  133.6551  156.5119 LP  0  0  0  0  0  0  0  0  0  0  0  0  # atno 17395 bound_to 11000

$$$$
