AV-unprocessed.smi:1207|AV-procd|sdf|5059|dock4
  -GOLD-   22720 4 93D 1   1.00000     0.00000
 Structure written by MMmdl.
 53 55  0  0  0  0  0  0  0  0  3 V2000
  152.3280  143.0531  160.8193 C   0  0  0  0  0  0  0  0  0  0  0  0
  152.1174  142.3151  159.5081 C   0  0  0  0  0  0  0  0  0  0  0  0
  151.1893  142.8403  158.5807 C   0  0  0  0  0  0  0  0  0  0  0  0
  151.0186  142.1434  157.3906 C   0  0  0  0  0  0  0  0  0  0  0  0
  150.1985  142.3993  156.2894 N   0  3  0  0  0  0  0  0  0  0  0  0
  150.3785  141.4275  155.3526 C   0  0  0  0  0  0  0  0  0  0  0  0
  151.2924  140.5470  155.8455 N   0  0  0  0  0  0  0  0  0  0  0  0
  151.8491  139.3274  155.2465 C   0  0  0  0  0  0  0  0  0  0  0  0
  150.7776  138.2780  154.8851 C   0  0  2  0  0  0  0  0  0  0  0  0
  151.4326  137.1897  154.2669 O   0  0  0  0  0  0  0  0  0  0  0  0
  149.6794  138.8045  153.9350 C   0  0  0  0  0  0  0  0  0  0  0  0
  148.5492  137.8487  153.8166 N   0  3  2  0  0  0  0  0  0  0  0  0
  147.3581  138.4627  153.1851 C   0  0  0  0  0  0  0  0  0  0  0  0
  148.2295  137.1615  155.0949 C   0  0  0  0  0  0  0  0  0  0  0  0
  147.6312  135.8023  154.8445 C   0  0  0  0  0  0  0  0  0  0  0  0
  148.2910  134.5821  154.5148 C   0  0  0  0  0  0  0  0  0  0  0  0
  149.7576  134.3177  154.3272 C   0  0  0  0  0  0  0  0  0  0  0  0
  147.4357  133.5851  154.3667 N   0  0  0  0  0  0  0  0  0  0  0  0
  146.1674  134.1284  154.5915 O   0  0  0  0  0  0  0  0  0  0  0  0
  146.3104  135.4480  154.8711 C   0  0  0  0  0  0  0  0  0  0  0  0
  145.0613  136.2178  155.1402 C   0  0  0  0  0  0  0  0  0  0  0  0
  151.7308  140.9618  157.1079 C   0  0  0  0  0  0  0  0  0  0  0  0
  152.6540  140.4343  158.0073 C   0  0  0  0  0  0  0  0  0  0  0  0
  152.8410  141.1279  159.2245 C   0  0  0  0  0  0  0  0  0  0  0  0
  153.8377  140.5737  160.2282 C   0  0  0  0  0  0  0  0  0  0  0  0
  151.7033  143.9446  160.8806 H   0  0  0  0  0  0  0  0  0  0  0  0
  153.3671  143.3681  160.9181 H   0  0  0  0  0  0  0  0  0  0  0  0
  152.0777  142.4120  161.6651 H   0  0  0  0  0  0  0  0  0  0  0  0
  150.6383  143.7460  158.7884 H   0  0  0  0  0  0  0  0  0  0  0  0
  149.8840  141.3668  154.3936 H   0  0  0  0  0  0  0  0  0  0  0  0
  152.3993  139.6280  154.3536 H   0  0  0  0  0  0  0  0  0  0  0  0
  152.5832  138.9144  155.9404 H   0  0  0  0  0  0  0  0  0  0  0  0
  150.3287  137.9039  155.8039 H   0  0  0  0  0  0  0  0  0  0  0  0
  151.2195  137.1878  153.3457 H   0  0  0  0  0  0  0  0  0  0  0  0
  149.2888  139.7657  154.2713 H   0  0  0  0  0  0  0  0  0  0  0  0
  150.1267  138.9872  152.9564 H   0  0  0  0  0  0  0  0  0  0  0  0
  146.9478  139.2556  153.8119 H   0  0  0  0  0  0  0  0  0  0  0  0
  146.5772  137.7216  153.0156 H   0  0  0  0  0  0  0  0  0  0  0  0
  147.6119  138.8903  152.2147 H   0  0  0  0  0  0  0  0  0  0  0  0
  149.1338  137.0500  155.6927 H   0  0  0  0  0  0  0  0  0  0  0  0
  147.5715  137.7928  155.6933 H   0  0  0  0  0  0  0  0  0  0  0  0
  150.3648  135.1565  154.6662 H   0  0  0  0  0  0  0  0  0  0  0  0
  149.9912  134.1436  153.2768 H   0  0  0  0  0  0  0  0  0  0  0  0
  150.0736  133.4378  154.8884 H   0  0  0  0  0  0  0  0  0  0  0  0
  145.1523  136.7926  156.0618 H   0  0  0  0  0  0  0  0  0  0  0  0
  144.2029  135.5531  155.2423 H   0  0  0  0  0  0  0  0  0  0  0  0
  144.8547  136.9133  154.3270 H   0  0  0  0  0  0  0  0  0  0  0  0
  153.2094  139.5340  157.7899 H   0  0  0  0  0  0  0  0  0  0  0  0
  154.3220  139.6714  159.8539 H   0  0  0  0  0  0  0  0  0  0  0  0
  153.3377  140.3201  161.1634 H   0  0  0  0  0  0  0  0  0  0  0  0
  154.6174  141.3058  160.4393 H   0  0  0  0  0  0  0  0  0  0  0  0
  148.8679  137.1353  153.1760 H   0  0  0  0  0  0  0  0  0  0  0  0
  149.5688  143.1841  156.1789 H   0  0  0  0  0  0  0  0  0  0  0  0
  1  2  1  0  0  0  0
  1 26  1  0  0  0  0
  1 27  1  0  0  0  0
  1 28  1  0  0  0  0
  2 24  1  0  0  0  0
  2  3  2  0  0  0  0
  3  4  1  0  0  0  0
  3 29  1  0  0  0  0
  4 22  2  0  0  0  0
  4  5  1  0  0  0  0
  5  6  2  0  0  0  0
  5 53  1  0  0  0  0
  6  7  1  0  0  0  0
  6 30  1  0  0  0  0
  7  8  1  0  0  0  0
  7 22  1  0  0  0  0
  8  9  1  0  0  0  0
  8 31  1  0  0  0  0
  8 32  1  0  0  0  0
  9 10  1  0  0  0  0
  9 11  1  0  0  0  0
  9 33  1  0  0  0  0
 10 34  1  0  0  0  0
 11 12  1  0  0  0  0
 11 35  1  0  0  0  0
 11 36  1  0  0  0  0
 12 13  1  0  0  0  0
 12 14  1  0  0  0  0
 12 52  1  0  0  0  0
 13 37  1  0  0  0  0
 13 38  1  0  0  0  0
 13 39  1  0  0  0  0
 14 15  1  0  0  0  0
 14 40  1  0  0  0  0
 14 41  1  0  0  0  0
 15 20  2  0  0  0  0
 15 16  1  0  0  0  0
 16 17  1  0  0  0  0
 16 18  2  0  0  0  0
 17 42  1  0  0  0  0
 17 43  1  0  0  0  0
 17 44  1  0  0  0  0
 18 19  1  0  0  0  0
 19 20  1  0  0  0  0
 20 21  1  0  0  0  0
 21 45  1  0  0  0  0
 21 46  1  0  0  0  0
 21 47  1  0  0  0  0
 22 23  1  0  0  0  0
 23 24  2  0  0  0  0
 23 48  1  0  0  0  0
 24 25  1  0  0  0  0
 25 49  1  0  0  0  0
 25 50  1  0  0  0  0
 25 51  1  0  0  0  0
M  CHG  1   5   1
M  CHG  1  12   1
M  END
> <s_m_source_file>
AV-unprocessed.smi

> <i_m_source_file_index>
1207

> <i_lp_mmshare_version>
43012

> <i_f3d_flags>
0

> <s_epik_input>
W0NIM11jKFtjSF0xKWMoW0NIM10pW2NIXWMoYzEyKW4oW2NIXW4yKVtDSDJdW0NASF0oW09IXSlbQ0gyXU4oW0NIM10pW0NIMl1jM2MoW0NIM10pbm9jM1tDSDNd

> <s_epik_cmdline>
J2VwaWtfcHl0aG9uJywgJy1waCcsICc3LjAnLCAnLXRuJywgJzgnLCAnLW1hJywgJzIwMCcsICctbWV0YWxfYmluZGluZycsICctaW1hZScsICc8aW5maWxlLm1hZT4nLCAnLW9tYWUnLCAnPG91dGZpbGUubWFlPic=

> <r_epik_Ionization_Penalty>
1.77463

> <r_epik_Ionization_Penalty_Charging>
1.77463

> <r_epik_Ionization_Penalty_Neutral>
3.70885e-06

> <r_epik_State_Penalty>
1.85225

> <r_epik_Charging_Adjusted_Penalty>
3.62688

> <i_epik_Tot_Q>
2

> <i_epik_Tot_abs_Q>
2

> <r_epik_Metal_State_Penalty>
1.92674

> <b_epik_Metal_Only>
0

> <s_lp_Force_Field>
OPLS_2005

> <r_lp_Energy>
20.2471

> <b_lp_Chiralities_Consistent>
1

> <s_lp_Variant>
AV-unprocessed.smi:1207-11

> <Gold.Version>
5.8.1

> <Gold.Id.Protein>
6NUR|6NUR_protein|mol2

> <Gold.PLP.Fitness>
55.3071

> <Gold.PLP.PLP>
-40.3922

> <Gold.PLP.part.hbond>
-3.7953

> <Gold.PLP.part.metal>
0.0000

> <Gold.PLP.part.buried>
-2.0464

> <Gold.PLP.part.nonpolar>
-33.6762

> <Gold.PLP.part.repulsive>
0.1789

> <Gold.PLP.ligand.clash>
0.0000

> <Gold.PLP.ligand.torsion>
0.7723

> <Gold.PLP.Chemscore.Hbond>
5.3729

> <Gold.PLP.Chemscore.CHOScore>
0.0000

> <Gold.PLP.Chemscore.Metal>
0.0000

> <Gold.Chemscore.Hbonds>
donor molecule, donor type, donor heavy atom, donor atom, acceptor molecule, acceptor atom, score
      L1  H     5    53       P1  8028  2.00
      L1  H    10    34       P1  7949  0.50
      L1  H    12    52       P1  7948  2.00
      P1  H 10752 10764       L1    10  0.70

> <Gold.PLP.Chemscore.Internal.Correction>
0.3407

> <Gold.Rescore>
     Score         DG    S(hbond)    S(metal)    S(lipo)     H(rot)  DE(clash)    DE(int)     intcor
     17.92     -19.74       2.38        0.00     109.53       2.54       0.12       1.70       ----

> <Gold.Chemscore.Fitness>
17.9220

> <Gold.Chemscore.DG>
-19.7424

> <Gold.Chemscore.ZeroCoef>
-5.4800

> <Gold.Chemscore.Hbond>
2.3764

> <Gold.Chemscore.Metal>
0.0000

> <Gold.Chemscore.Lipo>
109.5312

> <Gold.Chemscore.Internal_Hbond>
0.0000

> <Gold.Chemscore.DEClash>
0.1226

> <Gold.Chemscore.DEInternal>
1.6978

> <Gold.Chemscore.Rot>
2.5351

> <Gold.Chemscore.Internal.Correction>
   9.000000E+99

> <Gold.Chemscore.Hbonds>
donor molecule, donor type, donor heavy atom, donor atom, acceptor molecule, acceptor atom, score
      L1  H     5    53       P1  8028  1.00
      L1  H    10    34       P1  7949  0.30
      L1  H    12    52       P1  7948  0.97
      P1  H 10752 10764       L1    10  0.21

> <Gold.Chemscore.Hbond.Weighted>
-7.9372

> <Gold.Chemscore.Metal.Weighted>
-0.0000

> <Gold.Chemscore.Lipo.Weighted>
-12.8151

> <Gold.Chemscore.Internal_Hbond.Weighted>
0.0000

> <Gold.Chemscore.DEClash.Weighted>
0.1226

> <Gold.Chemscore.DEInternal.Weighted>
1.6978

> <Gold.Chemscore.Rot.Weighted>
6.4900

> <Gold.Chemscore.Internal.Correction.Weighted>
   9.000000E+99

> <Gold.Protein.RotatedTorsions>
[ 6907 6896 6895 6894 ] final   55.53 input  -60.11 | X-H torsion
[ 7974 7965 7964 7962 ] final    0.50 input  175.53 | X-H torsion
[ 8008 7997 7996 7995 ] final -128.60 input   59.86 | X-H torsion
[ 10167 10162 10161 10158 ] final  -55.72 input  -65.29 | X-H torsion
[ 10718 10713 10712 10709 ] final  103.24 input   66.30 | X-H torsion
[ 10763 10752 10751 10750 ] final  -73.75 input  -60.55 | X-H torsion
[ 11005 11000 10999 10996 ] final  -49.41 input  -57.11 | X-H torsion

> <Gold.Protein.ActiveResidues>
 VAL166  LYS551  ARG553  GLY616  TRP617  ASP618  TYR619  PRO620  LYS621  CYS622 
 ASP623  PHE694  ASN695  SER759  ASP760  ASP761  ALA762  ILE779  LEU786  VAL792 
 PHE793  MET794  SER795  GLU796  ALA797  LYS798  CYS799  TRP800  GLU811  SER814 

> <Gold.Protein.RotatedAtoms>
  152.3548  134.6955  160.0225 H   0  0  0  0  0  0  0  0  0  0  0  0  # atno 6907 bound_to 6896
  151.7298  133.3312  159.3345 H   0  0  0  0  0  0  0  0  0  0  0  0  # atno 6908 bound_to 6896
  150.7564  134.6307  159.6229 H   0  0  0  0  0  0  0  0  0  0  0  0  # atno 6909 bound_to 6896
  146.2435  140.1129  142.8343 H   0  0  0  0  0  0  0  0  0  0  0  0  # atno 7974 bound_to 7965
  155.2654  140.0438  157.3001 H   0  0  0  0  0  0  0  0  0  0  0  0  # atno 8008 bound_to 7997
  154.5685  140.2367  155.8196 H   0  0  0  0  0  0  0  0  0  0  0  0  # atno 8009 bound_to 7997
  156.2104  140.3000  155.9728 H   0  0  0  0  0  0  0  0  0  0  0  0  # atno 8010 bound_to 7997
  140.6358  143.2481  151.5121 H   0  0  0  0  0  0  0  0  0  0  0  0  # atno 10167 bound_to 10162
  157.6778  131.0774  150.5525 H   0  0  0  0  0  0  0  0  0  0  0  0  # atno 10718 bound_to 10713
  154.4637  135.5887  153.6273 H   0  0  0  0  0  0  0  0  0  0  0  0  # atno 10763 bound_to 10752
  152.9826  135.6050  154.3454 H   0  0  0  0  0  0  0  0  0  0  0  0  # atno 10764 bound_to 10752
  154.3329  135.2842  155.2442 H   0  0  0  0  0  0  0  0  0  0  0  0  # atno 10765 bound_to 10752
  141.0758  133.6666  156.3582 H   0  0  0  0  0  0  0  0  0  0  0  0  # atno 11005 bound_to 11000
  145.0472  140.8990  143.5017 LP  0  0  0  0  0  0  0  0  0  0  0  0  # atno 17320 bound_to 7965
  145.1220  139.2687  143.5583 LP  0  0  0  0  0  0  0  0  0  0  0  0  # atno 17321 bound_to 7965
  139.5569  144.2254  152.1627 LP  0  0  0  0  0  0  0  0  0  0  0  0  # atno 17342 bound_to 10162
  140.1510  144.5114  150.6687 LP  0  0  0  0  0  0  0  0  0  0  0  0  # atno 17343 bound_to 10162
  156.5830  130.4309  149.5969 LP  0  0  0  0  0  0  0  0  0  0  0  0  # atno 17370 bound_to 10713
  156.2646  130.6982  151.1761 LP  0  0  0  0  0  0  0  0  0  0  0  0  # atno 17371 bound_to 10713
  140.5577  134.5965  157.5425 LP  0  0  0  0  0  0  0  0  0  0  0  0  # atno 17394 bound_to 11000
  139.9570  134.7518  156.0320 LP  0  0  0  0  0  0  0  0  0  0  0  0  # atno 17395 bound_to 11000

$$$$
