AV-unprocessed.smi:50|AV-procd|sdf|498|dock2
  -GOLD-   2262016373D 1   1.00000     0.00000
 Structure written by MMmdl.
 42 43  0  0  0  0  0  0  0  0  2 V2000
  146.0741  132.1582  149.7376 C   0  0  0  0  0  0  0  0  0  0  0  0
  144.6435  132.5676  150.1451 C   0  0  0  0  0  0  0  0  0  0  0  0
  143.7868  132.7032  148.8727 C   0  0  0  0  0  0  0  0  0  0  0  0
  144.5571  133.8595  151.0128 C   0  0  1  0  0  0  0  0  0  0  0  0
  143.2054  134.0160  151.5521 N   0  0  0  0  0  0  0  0  0  0  0  0
  145.6048  133.9087  152.1404 C   0  0  0  0  0  0  0  0  0  0  0  0
  146.8205  133.8027  151.9663 O   0  0  0  0  0  0  0  0  0  0  0  0
  144.9993  134.0956  153.3268 O   0  0  0  0  0  0  0  0  0  0  0  0
  145.7532  134.3316  154.5072 C   0  0  0  0  0  0  0  0  0  0  0  0
  144.7745  134.4422  155.6786 C   0  0  0  0  0  0  0  0  0  0  0  0
  145.4772  134.9143  156.8202 O   0  0  0  0  0  0  0  0  0  0  0  0
  144.6862  135.6024  157.7352 C   0  0  0  0  0  0  0  0  0  0  0  0
  145.5460  136.1743  158.7580 N   0  0  0  0  0  0  0  0  0  0  0  0
  145.8326  137.4792  158.9318 C   0  0  0  0  0  0  0  0  0  0  0  0
  146.6592  137.7541  159.9397 N   0  0  0  0  0  0  0  0  0  0  0  0
  146.9188  136.4891  160.4549 C   0  0  0  0  0  0  0  0  0  0  0  0
  147.7798  136.0385  161.5748 C   0  0  0  0  0  0  0  0  0  0  0  0
  148.4026  136.8757  162.2253 O   0  0  0  0  0  0  0  0  0  0  0  0
  147.8087  134.6876  161.7871 N   0  5  0  0  0  0  0  0  0  0  0  0
  147.0545  133.8251  160.9791 C   0  0  0  0  0  0  0  0  0  0  0  0
  147.1933  132.5015  161.3356 N   0  0  0  0  0  0  0  0  0  0  0  0
  146.2754  134.1518  159.9772 N   0  0  0  0  0  0  0  0  0  0  0  0
  146.2525  135.5168  159.7586 C   0  0  0  0  0  0  0  0  0  0  0  0
  144.7438  134.7116  150.3580 H   0  0  0  0  0  0  0  0  0  0  0  0
  146.5855  132.9787  149.2350 H   0  0  0  0  0  0  0  0  0  0  0  0
  146.0642  131.3083  149.0545 H   0  0  0  0  0  0  0  0  0  0  0  0
  146.6779  131.8604  150.5947 H   0  0  0  0  0  0  0  0  0  0  0  0
  144.2347  131.7405  150.7277 H   0  0  0  0  0  0  0  0  0  0  0  0
  144.1474  133.5148  148.2396 H   0  0  0  0  0  0  0  0  0  0  0  0
  142.7416  132.9041  149.1078 H   0  0  0  0  0  0  0  0  0  0  0  0
  143.8120  131.7874  148.2814 H   0  0  0  0  0  0  0  0  0  0  0  0
  142.5225  134.1125  150.8144 H   0  0  0  0  0  0  0  0  0  0  0  0
  142.9297  133.2152  152.1021 H   0  0  0  0  0  0  0  0  0  0  0  0
  146.4695  133.5252  154.6663 H   0  0  0  0  0  0  0  0  0  0  0  0
  146.3191  135.2613  154.4348 H   0  0  0  0  0  0  0  0  0  0  0  0
  143.9802  135.1500  155.4391 H   0  0  0  0  0  0  0  0  0  0  0  0
  144.3030  133.4745  155.8531 H   0  0  0  0  0  0  0  0  0  0  0  0
  144.1871  136.4220  157.2174 H   0  0  0  0  0  0  0  0  0  0  0  0
  143.9279  134.9615  158.1883 H   0  0  0  0  0  0  0  0  0  0  0  0
  145.4265  138.2502  158.2940 H   0  0  0  0  0  0  0  0  0  0  0  0
  147.7758  132.1862  162.0970 H   0  0  0  0  0  0  0  0  0  0  0  0
  146.7235  131.7497  160.8529 H   0  0  0  0  0  0  0  0  0  0  0  0
  1  2  1  0  0  0  0
  1 25  1  0  0  0  0
  1 26  1  0  0  0  0
  1 27  1  0  0  0  0
  2  3  1  0  0  0  0
  2  4  1  0  0  0  0
  2 28  1  0  0  0  0
  3 29  1  0  0  0  0
  3 30  1  0  0  0  0
  3 31  1  0  0  0  0
  4 24  1  0  0  0  0
  4  5  1  0  0  0  0
  4  6  1  0  0  0  0
  5 32  1  0  0  0  0
  5 33  1  0  0  0  0
  6  7  2  0  0  0  0
  6  8  1  0  0  0  0
  8  9  1  0  0  0  0
  9 10  1  0  0  0  0
  9 34  1  0  0  0  0
  9 35  1  0  0  0  0
 10 11  1  0  0  0  0
 10 36  1  0  0  0  0
 10 37  1  0  0  0  0
 11 12  1  0  0  0  0
 12 13  1  0  0  0  0
 12 38  1  0  0  0  0
 12 39  1  0  0  0  0
 13 23  1  0  0  0  0
 13 14  1  0  0  0  0
 14 15  2  0  0  0  0
 14 40  1  0  0  0  0
 15 16  1  0  0  0  0
 16 23  2  0  0  0  0
 16 17  1  0  0  0  0
 17 18  2  0  0  0  0
 17 19  1  0  0  0  0
 19 20  1  0  0  0  0
 20 21  1  0  0  0  0
 20 22  2  0  0  0  0
 21 41  1  0  0  0  0
 21 42  1  0  0  0  0
 22 23  1  0  0  0  0
M  CHG  1  19  -1
M  END
> <s_m_source_file>
AV-unprocessed.smi

> <i_m_source_file_index>
50

> <i_lp_mmshare_version>
43012

> <i_f3d_flags>
0

> <s_epik_input>
W0NIM11bQ0hdKFtDSDNdKVtDQEhdKFtOSDJdKUMoPU8pT1tDSDJdW0NIMl1PW0NIMl1uKFtjSF1uMSljKGMxMiluYyhbTkgyXSlbbkhdYzI9Tw==

> <s_epik_cmdline>
J2VwaWtfcHl0aG9uJywgJy1waCcsICc3LjAnLCAnLXRuJywgJzgnLCAnLW1hJywgJzIwMCcsICctbWV0YWxfYmluZGluZycsICctaW1hZScsICc8aW5maWxlLm1hZT4nLCAnLW9tYWUnLCAnPG91dGZpbGUubWFlPic=

> <r_lp_tautomer_probability>
0.99994

> <r_epik_Ionization_Penalty>
4.26118

> <r_epik_Ionization_Penalty_Charging>
1.23364e-10

> <r_epik_Ionization_Penalty_Neutral>
4.26118

> <r_epik_State_Penalty>
4.27372

> <r_epik_Charging_Adjusted_Penalty>
4.27372

> <i_epik_Tot_Q>
-1

> <i_epik_Tot_abs_Q>
1

> <r_epik_Metal_State_Penalty>
1.24306

> <b_epik_Metal_Only>
1

> <s_epik_Chemistry_Notes>
This compound has an ester and may undergo hydrolysis at high or low pH. This compound contains an acetal/aminal-like group ( X-CH(R)-Y where X, Y are N, S, or O) that may be acid/base labile, releasing an aldehyde.

> <s_lp_Force_Field>
OPLS_2005

> <r_lp_Energy>
20.1027

> <b_lp_Chiralities_Consistent>
1

> <s_lp_Variant>
AV-unprocessed.smi:50-8

> <Gold.Version>
5.8.1

> <Gold.Id.Protein>
6NUR|6NUR_protein|mol2

> <Gold.PLP.Fitness>
35.7435

> <Gold.PLP.PLP>
-27.4175

> <Gold.PLP.part.hbond>
-3.0000

> <Gold.PLP.part.metal>
0.0000

> <Gold.PLP.part.buried>
-6.3725

> <Gold.PLP.part.nonpolar>
-18.6743

> <Gold.PLP.part.repulsive>
0.2829

> <Gold.PLP.ligand.clash>
0.0000

> <Gold.PLP.ligand.torsion>
0.5119

> <Gold.PLP.Chemscore.Hbond>
3.0000

> <Gold.PLP.Chemscore.CHOScore>
0.0000

> <Gold.PLP.Chemscore.Metal>
0.0000

> <Gold.Chemscore.Hbonds>
donor molecule, donor type, donor heavy atom, donor atom, acceptor molecule, acceptor atom, score
      L1  H     5    32       P1 10186  1.00
      P1  H  6931  6943       L1    18  1.00
      P1  H  6934  6947       L1    15  1.00

> <Gold.PLP.Chemscore.Internal.Correction>
0.3498

> <Gold.Rescore>
     Score         DG    S(hbond)    S(metal)    S(lipo)     H(rot)  DE(clash)    DE(int)     intcor
      6.98      -8.74       2.86        0.00      49.64       4.72       0.01       1.76       ----

> <Gold.Chemscore.Fitness>
6.9835

> <Gold.Chemscore.DG>
-8.7448

> <Gold.Chemscore.ZeroCoef>
-5.4800

> <Gold.Chemscore.Hbond>
2.8595

> <Gold.Chemscore.Metal>
0.0000

> <Gold.Chemscore.Lipo>
49.6370

> <Gold.Chemscore.Internal_Hbond>
0.0000

> <Gold.Chemscore.DEClash>
0.0060

> <Gold.Chemscore.DEInternal>
1.7554

> <Gold.Chemscore.Rot>
4.7239

> <Gold.Chemscore.Internal.Correction>
   9.000000E+99

> <Gold.Chemscore.Hbonds>
donor molecule, donor type, donor heavy atom, donor atom, acceptor molecule, acceptor atom, score
      L1  H     5    32       P1 10186  0.49
      P1  H  6931  6943       L1    18  0.93
      P1  H  6934  6947       L1    15  0.88

> <Gold.Chemscore.Hbond.Weighted>
-9.5506

> <Gold.Chemscore.Metal.Weighted>
-0.0000

> <Gold.Chemscore.Lipo.Weighted>
-5.8075

> <Gold.Chemscore.Internal_Hbond.Weighted>
0.0000

> <Gold.Chemscore.DEClash.Weighted>
0.0060

> <Gold.Chemscore.DEInternal.Weighted>
1.7554

> <Gold.Chemscore.Rot.Weighted>
12.0933

> <Gold.Chemscore.Internal.Correction.Weighted>
   9.000000E+99

> <Gold.Protein.RotatedTorsions>
[ 6907 6896 6895 6894 ] final -167.62 input  -60.11 | X-H torsion
[ 7974 7965 7964 7962 ] final -109.44 input  175.53 | X-H torsion
[ 8008 7997 7996 7995 ] final  -64.67 input   59.86 | X-H torsion
[ 10167 10162 10161 10158 ] final  -77.78 input  -65.29 | X-H torsion
[ 10718 10713 10712 10709 ] final  -12.80 input   66.30 | X-H torsion
[ 10763 10752 10751 10750 ] final   29.11 input  -60.55 | X-H torsion
[ 11005 11000 10999 10996 ] final   11.68 input  -57.11 | X-H torsion

> <Gold.Protein.ActiveResidues>
 VAL166  LYS551  ARG553  GLY616  TRP617  ASP618  TYR619  PRO620  LYS621  CYS622 
 ASP623  PHE694  ASN695  SER759  ASP760  ASP761  ALA762  ILE779  LEU786  VAL792 
 PHE793  MET794  SER795  GLU796  ALA797  LYS798  CYS799  TRP800  GLU811  SER814 

> <Gold.Protein.RotatedAtoms>
  151.4625  133.3589  159.2811 H   0  0  0  0  0  0  0  0  0  0  0  0  # atno 6907 bound_to 6896
  150.9016  134.8430  159.7374 H   0  0  0  0  0  0  0  0  0  0  0  0  # atno 6908 bound_to 6896
  152.4882  134.4546  159.9637 H   0  0  0  0  0  0  0  0  0  0  0  0  # atno 6909 bound_to 6896
  145.1805  140.8969  143.3482 H   0  0  0  0  0  0  0  0  0  0  0  0  # atno 7974 bound_to 7965
  154.4626  140.0949  156.6933 H   0  0  0  0  0  0  0  0  0  0  0  0  # atno 8008 bound_to 7997
  155.4951  140.3472  155.4343 H   0  0  0  0  0  0  0  0  0  0  0  0  # atno 8009 bound_to 7997
  156.0897  140.1394  156.9596 H   0  0  0  0  0  0  0  0  0  0  0  0  # atno 8010 bound_to 7997
  140.4740  143.2419  151.8161 H   0  0  0  0  0  0  0  0  0  0  0  0  # atno 10167 bound_to 10162
  156.6394  130.4924  149.6100 H   0  0  0  0  0  0  0  0  0  0  0  0  # atno 10718 bound_to 10713
  153.0450  135.6497  154.0840 H   0  0  0  0  0  0  0  0  0  0  0  0  # atno 10763 bound_to 10752
  154.0539  135.2893  155.3337 H   0  0  0  0  0  0  0  0  0  0  0  0  # atno 10764 bound_to 10752
  154.6702  135.5359  153.8193 H   0  0  0  0  0  0  0  0  0  0  0  0  # atno 10765 bound_to 10752
  140.5005  134.0751  155.7792 H   0  0  0  0  0  0  0  0  0  0  0  0  # atno 11005 bound_to 11000
  145.0141  139.3483  143.6105 LP  0  0  0  0  0  0  0  0  0  0  0  0  # atno 17320 bound_to 7965
  146.3454  139.9415  142.8740 LP  0  0  0  0  0  0  0  0  0  0  0  0  # atno 17321 bound_to 7965
  139.4823  144.4856  151.9251 LP  0  0  0  0  0  0  0  0  0  0  0  0  # atno 17342 bound_to 10162
  140.3941  144.2577  150.5897 LP  0  0  0  0  0  0  0  0  0  0  0  0  # atno 17343 bound_to 10162
  156.2171  130.6714  151.1329 LP  0  0  0  0  0  0  0  0  0  0  0  0  # atno 17370 bound_to 10713
  157.7175  131.0701  150.6268 LP  0  0  0  0  0  0  0  0  0  0  0  0  # atno 17371 bound_to 10713
  141.1438  133.9091  157.2264 LP  0  0  0  0  0  0  0  0  0  0  0  0  # atno 17394 bound_to 11000
  139.9716  135.0126  156.9527 LP  0  0  0  0  0  0  0  0  0  0  0  0  # atno 17395 bound_to 11000

$$$$
