AV-unprocessed.smi:2923|AV-procd|sdf|11208|dock8
  -GOLD-   2272016103D 1   1.00000     0.00000
 Structure written by MMmdl.
 47 49  0  0  0  0  0  0  0  0  2 V2000
  147.6818  133.2533  152.3956 C   0  0  0  0  0  0  0  0  0  0  0  0
  146.5048  133.4100  151.5481 N   0  0  0  0  0  0  0  0  0  0  0  0
  146.2609  132.4854  150.4489 C   0  0  0  0  0  0  0  0  0  0  0  0
  145.6088  134.4755  151.7817 C   0  0  0  0  0  0  0  0  0  0  0  0
  144.2008  134.3202  151.7791 C   0  0  0  0  0  0  0  0  0  0  0  0
  143.3718  135.4357  152.0160 C   0  0  0  0  0  0  0  0  0  0  0  0
  143.9467  136.6997  152.2631 C   0  0  0  0  0  0  0  0  0  0  0  0
  143.0661  137.7948  152.4776 N   0  0  0  0  0  0  0  0  0  0  0  0
  141.7978  137.7814  152.9228 C   0  0  0  0  0  0  0  0  0  0  0  0
  141.1398  136.7723  153.1737 O   0  0  0  0  0  0  0  0  0  0  0  0
  141.3188  139.0252  153.0531 N   0  0  0  0  0  0  0  0  0  0  0  0
  139.9827  139.3483  153.5390 C   0  0  2  0  0  0  0  0  0  0  0  0
  139.9168  140.7324  154.1852 C   0  0  1  0  0  0  0  0  0  0  0  0
  139.2411  142.0133  153.8476 C   0  0  0  0  0  0  0  0  0  0  0  0
  138.6683  142.3271  155.2559 C   0  0  0  0  0  0  0  0  0  0  0  0
  138.8558  141.1226  156.0389 O   0  0  0  0  0  0  0  0  0  0  0  0
  138.8683  140.0917  155.0731 C   0  0  2  0  0  0  0  0  0  0  0  0
  139.6814  138.7849  154.9795 C   0  0  0  0  0  0  0  0  0  0  0  0
  138.8535  137.5004  155.0208 C   0  0  0  0  0  0  0  0  0  0  0  0
  140.8381  138.5865  155.9802 C   0  0  0  0  0  0  0  0  0  0  0  0
  145.3580  136.8054  152.2496 C   0  0  0  0  0  0  0  0  0  0  0  0
  146.1144  135.7112  152.0161 N   0  3  0  0  0  0  0  0  0  0  0  0
  148.3097  134.1437  152.3500 H   0  0  0  0  0  0  0  0  0  0  0  0
  148.2871  132.4028  152.0815 H   0  0  0  0  0  0  0  0  0  0  0  0
  147.3877  133.0884  153.4327 H   0  0  0  0  0  0  0  0  0  0  0  0
  146.2273  133.0183  149.4983 H   0  0  0  0  0  0  0  0  0  0  0  0
  145.3137  131.9643  150.5911 H   0  0  0  0  0  0  0  0  0  0  0  0
  147.0475  131.7337  150.3806 H   0  0  0  0  0  0  0  0  0  0  0  0
  143.7394  133.3613  151.5965 H   0  0  0  0  0  0  0  0  0  0  0  0
  142.2981  135.3155  152.0091 H   0  0  0  0  0  0  0  0  0  0  0  0
  143.4422  138.7030  152.2481 H   0  0  0  0  0  0  0  0  0  0  0  0
  141.9203  139.8014  152.8188 H   0  0  0  0  0  0  0  0  0  0  0  0
  139.1846  139.1757  152.8108 H   0  0  0  0  0  0  0  0  0  0  0  0
  140.8490  140.9492  154.7126 H   0  0  0  0  0  0  0  0  0  0  0  0
  139.9329  142.7790  153.4958 H   0  0  0  0  0  0  0  0  0  0  0  0
  138.4527  141.8765  153.1061 H   0  0  0  0  0  0  0  0  0  0  0  0
  139.1916  143.1561  155.7331 H   0  0  0  0  0  0  0  0  0  0  0  0
  137.6097  142.5828  155.1970 H   0  0  0  0  0  0  0  0  0  0  0  0
  137.8849  139.9965  154.5982 H   0  0  0  0  0  0  0  0  0  0  0  0
  138.4403  137.3224  156.0141 H   0  0  0  0  0  0  0  0  0  0  0  0
  139.4501  136.6289  154.7498 H   0  0  0  0  0  0  0  0  0  0  0  0
  138.0148  137.5418  154.3255 H   0  0  0  0  0  0  0  0  0  0  0  0
  140.4602  138.4676  156.9961 H   0  0  0  0  0  0  0  0  0  0  0  0
  141.5445  139.4143  156.0057 H   0  0  0  0  0  0  0  0  0  0  0  0
  141.4163  137.6924  155.7448 H   0  0  0  0  0  0  0  0  0  0  0  0
  145.9183  137.7152  152.4014 H   0  0  0  0  0  0  0  0  0  0  0  0
  147.1283  135.8241  152.0125 H   0  0  0  0  0  0  0  0  0  0  0  0
  1  2  1  0  0  0  0
  1 23  1  0  0  0  0
  1 24  1  0  0  0  0
  1 25  1  0  0  0  0
  2  3  1  0  0  0  0
  2  4  1  0  0  0  0
  3 26  1  0  0  0  0
  3 27  1  0  0  0  0
  3 28  1  0  0  0  0
  4 22  1  0  0  0  0
  4  5  2  0  0  0  0
  5  6  1  0  0  0  0
  5 29  1  0  0  0  0
  6  7  2  0  0  0  0
  6 30  1  0  0  0  0
  7  8  1  0  0  0  0
  7 21  1  0  0  0  0
  8  9  1  0  0  0  0
  8 31  1  0  0  0  0
  9 10  2  0  0  0  0
  9 11  1  0  0  0  0
 11 12  1  0  0  0  0
 11 32  1  0  0  0  0
 12 18  1  0  0  0  0
 12 13  1  0  0  0  0
 12 33  1  0  0  0  0
 13 17  1  0  0  0  0
 13 14  1  0  0  0  0
 13 34  1  0  0  0  0
 14 15  1  0  0  0  0
 14 35  1  0  0  0  0
 14 36  1  0  0  0  0
 15 16  1  0  0  0  0
 15 37  1  0  0  0  0
 15 38  1  0  0  0  0
 16 17  1  0  0  0  0
 17 18  1  0  0  0  0
 17 39  1  0  0  0  0
 18 19  1  0  0  0  0
 18 20  1  0  0  0  0
 19 40  1  0  0  0  0
 19 41  1  0  0  0  0
 19 42  1  0  0  0  0
 20 43  1  0  0  0  0
 20 44  1  0  0  0  0
 20 45  1  0  0  0  0
 21 22  2  0  0  0  0
 21 46  1  0  0  0  0
 22 47  1  0  0  0  0
M  CHG  1  22   1
M  END
> <s_m_source_file>
AV-unprocessed.smi

> <i_m_source_file_index>
2923

> <i_lp_mmshare_version>
43012

> <i_f3d_flags>
0

> <s_epik_input>
W0NIM11OKFtDSDNdKWMxW2NIXVtjSF1jKFtjSF1uMSlbTkhdQyg9TylbTkhdW0NASF0yQyhbQ0gzXSkoW0NIM10pW0NAQEhdKFtDQEhdMjMpT1tDSDJdW0NIMl0z

> <s_epik_cmdline>
J2VwaWtfcHl0aG9uJywgJy1waCcsICc3LjAnLCAnLXRuJywgJzgnLCAnLW1hJywgJzIwMCcsICctbWV0YWxfYmluZGluZycsICctaW1hZScsICc8aW5maWxlLm1hZT4nLCAnLW9tYWUnLCAnPG91dGZpbGUubWFlPic=

> <r_lp_tautomer_probability>
0.999994

> <r_epik_Ionization_Penalty>
0.252205

> <r_epik_Ionization_Penalty_Charging>
0.252185

> <r_epik_Ionization_Penalty_Neutral>
1.99479e-05

> <r_epik_State_Penalty>
0.243573

> <r_epik_Charging_Adjusted_Penalty>
0.495758

> <i_epik_Tot_Q>
1

> <i_epik_Tot_abs_Q>
1

> <r_epik_Metal_State_Penalty>
0.534372

> <b_epik_Metal_Only>
0

> <s_lp_Force_Field>
OPLS_2005

> <r_lp_Energy>
68.0101

> <b_lp_Chiralities_Consistent>
1

> <s_lp_Variant>
AV-unprocessed.smi:2923-7

> <Gold.Version>
5.8.1

> <Gold.Id.Protein>
6NUR|6NUR_protein|mol2

> <Gold.PLP.Fitness>
42.1410

> <Gold.PLP.PLP>
-31.9878

> <Gold.PLP.part.hbond>
-5.0000

> <Gold.PLP.part.metal>
0.0000

> <Gold.PLP.part.buried>
-3.6105

> <Gold.PLP.part.nonpolar>
-22.8676

> <Gold.PLP.part.repulsive>
0.2440

> <Gold.PLP.ligand.clash>
0.0000

> <Gold.PLP.ligand.torsion>
1.0577

> <Gold.PLP.Chemscore.Hbond>
4.0000

> <Gold.PLP.Chemscore.CHOScore>
0.0000

> <Gold.PLP.Chemscore.Metal>
0.0000

> <Gold.Chemscore.Hbonds>
donor molecule, donor type, donor heavy atom, donor atom, acceptor molecule, acceptor atom, score
      L1  H     8    31       P1 10175  1.00
      L1  H    11    32       P1 10175  1.00
      L1  H    22    47       P1  7948  2.00

> <Gold.PLP.Chemscore.Internal.Correction>
0.2685

> <Gold.Rescore>
     Score         DG    S(hbond)    S(metal)    S(lipo)     H(rot)  DE(clash)    DE(int)     intcor
     16.63     -19.17       2.80        0.00      58.83       1.00       0.07       2.46       ----

> <Gold.Chemscore.Fitness>
16.6337

> <Gold.Chemscore.DG>
-19.1673

> <Gold.Chemscore.ZeroCoef>
-5.4800

> <Gold.Chemscore.Hbond>
2.8036

> <Gold.Chemscore.Metal>
0.0000

> <Gold.Chemscore.Lipo>
58.8324

> <Gold.Chemscore.Internal_Hbond>
0.0000

> <Gold.Chemscore.DEClash>
0.0694

> <Gold.Chemscore.DEInternal>
2.4642

> <Gold.Chemscore.Rot>
1.0000

> <Gold.Chemscore.Internal.Correction>
   9.000000E+99

> <Gold.Chemscore.Hbonds>
donor molecule, donor type, donor heavy atom, donor atom, acceptor molecule, acceptor atom, score
      L1  H     8    31       P1 10175  0.98
      L1  H    11    32       P1 10175  0.29
      L1  H    22    47       P1  7948  1.00

> <Gold.Chemscore.Hbond.Weighted>
-9.3640

> <Gold.Chemscore.Metal.Weighted>
-0.0000

> <Gold.Chemscore.Lipo.Weighted>
-6.8834

> <Gold.Chemscore.Internal_Hbond.Weighted>
0.0000

> <Gold.Chemscore.DEClash.Weighted>
0.0694

> <Gold.Chemscore.DEInternal.Weighted>
2.4642

> <Gold.Chemscore.Rot.Weighted>
2.5600

> <Gold.Chemscore.Internal.Correction.Weighted>
   9.000000E+99

> <Gold.Protein.RotatedTorsions>
[ 6907 6896 6895 6894 ] final   47.77 input  -60.11 | X-H torsion
[ 7974 7965 7964 7962 ] final  145.49 input  175.53 | X-H torsion
[ 8008 7997 7996 7995 ] final -128.19 input   59.86 | X-H torsion
[ 10167 10162 10161 10158 ] final  151.49 input  -65.29 | X-H torsion
[ 10718 10713 10712 10709 ] final  -59.38 input   66.30 | X-H torsion
[ 10763 10752 10751 10750 ] final  -70.03 input  -60.55 | X-H torsion
[ 11005 11000 10999 10996 ] final  160.26 input  -57.11 | X-H torsion

> <Gold.Protein.ActiveResidues>
 VAL166  LYS551  ARG553  GLY616  TRP617  ASP618  TYR619  PRO620  LYS621  CYS622 
 ASP623  PHE694  ASN695  SER759  ASP760  ASP761  ALA762  ILE779  LEU786  VAL792 
 PHE793  MET794  SER795  GLU796  ALA797  LYS798  CYS799  TRP800  GLU811  SER814 

> <Gold.Protein.RotatedAtoms>
  152.2719  134.7923  160.0412 H   0  0  0  0  0  0  0  0  0  0  0  0  # atno 6907 bound_to 6896
  151.8533  133.3438  159.3688 H   0  0  0  0  0  0  0  0  0  0  0  0  # atno 6908 bound_to 6896
  150.7155  134.5206  159.5696 H   0  0  0  0  0  0  0  0  0  0  0  0  # atno 6909 bound_to 6896
  144.8748  139.5789  143.5870 H   0  0  0  0  0  0  0  0  0  0  0  0  # atno 7974 bound_to 7965
  155.2586  140.0435  157.2995 H   0  0  0  0  0  0  0  0  0  0  0  0  # atno 8008 bound_to 7997
  154.5725  140.2378  155.8140 H   0  0  0  0  0  0  0  0  0  0  0  0  # atno 8009 bound_to 7997
  156.2133  140.2992  155.9790 H   0  0  0  0  0  0  0  0  0  0  0  0  # atno 8010 bound_to 7997
  139.4840  144.5437  151.7521 H   0  0  0  0  0  0  0  0  0  0  0  0  # atno 10167 bound_to 10162
  156.1066  130.4179  150.0707 H   0  0  0  0  0  0  0  0  0  0  0  0  # atno 10718 bound_to 10713
  154.4119  135.6007  153.5958 H   0  0  0  0  0  0  0  0  0  0  0  0  # atno 10763 bound_to 10752
  152.9790  135.5931  154.4059 H   0  0  0  0  0  0  0  0  0  0  0  0  # atno 10764 bound_to 10752
  154.3873  135.2841  155.2154 H   0  0  0  0  0  0  0  0  0  0  0  0  # atno 10765 bound_to 10752
  140.2042  134.8315  157.3051 H   0  0  0  0  0  0  0  0  0  0  0  0  # atno 11005 bound_to 11000
  146.2955  139.7266  142.9129 LP  0  0  0  0  0  0  0  0  0  0  0  0  # atno 17320 bound_to 7965
  145.4062  141.0391  143.3042 LP  0  0  0  0  0  0  0  0  0  0  0  0  # atno 17321 bound_to 7965
  140.4980  144.1212  150.5964 LP  0  0  0  0  0  0  0  0  0  0  0  0  # atno 17342 bound_to 10162
  140.4095  143.2664  151.9850 LP  0  0  0  0  0  0  0  0  0  0  0  0  # atno 17343 bound_to 10162
  156.8681  130.9514  151.3612 LP  0  0  0  0  0  0  0  0  0  0  0  0  # atno 17370 bound_to 10713
  157.6243  130.8679  149.9163 LP  0  0  0  0  0  0  0  0  0  0  0  0  # atno 17371 bound_to 10713
  140.2021  134.4242  155.7657 LP  0  0  0  0  0  0  0  0  0  0  0  0  # atno 17394 bound_to 11000
  141.2227  133.7077  156.8200 LP  0  0  0  0  0  0  0  0  0  0  0  0  # atno 17395 bound_to 11000

$$$$
