AV-unprocessed.smi:2413|AV-procd|sdf|9534|dock8
  -GOLD-   2272013163D 1   1.00000     0.00000
 Structure written by MMmdl.
 45 46  0  0  0  0  0  0  0  0  1 V2000
  150.7335  140.2012  155.5065 C   0  0  0  0  0  0  0  0  0  0  0  0
  152.1454  139.6684  155.7317 C   0  0  0  0  0  0  0  0  0  0  0  0
  153.0184  139.8773  154.8903 O   0  0  0  0  0  0  0  0  0  0  0  0
  152.3552  138.9824  156.8658 N   0  0  0  0  0  0  0  0  0  0  0  0
  153.6223  138.3774  157.2642 C   0  0  0  0  0  0  0  0  0  0  0  0
  154.0046  138.7567  158.7048 C   0  0  2  0  0  0  0  0  0  0  0  0
  153.4635  140.1472  159.0926 C   0  0  0  0  0  0  0  0  0  0  0  0
  153.9069  140.5002  160.4354 N   0  0  0  0  0  0  0  0  0  0  0  0
  153.3682  141.6984  160.9211 C   0  0  0  0  0  0  0  0  0  0  0  0
  153.5881  142.1443  162.2433 C   0  0  0  0  0  0  0  0  0  0  0  0
  152.9858  143.3665  162.5970 C   0  0  0  0  0  0  0  0  0  0  0  0
  152.2364  144.0689  161.7214 N   0  0  0  0  0  0  0  0  0  0  0  0
  152.0520  143.5449  160.5021 C   0  0  0  0  0  0  0  0  0  0  0  0
  151.3267  144.4174  159.4632 C   0  0  0  0  0  0  0  0  0  0  0  0
  149.8245  144.5571  159.8055 C   0  0  0  0  0  0  0  0  0  0  0  0
  151.4807  143.7858  158.0675 C   0  0  0  0  0  0  0  0  0  0  0  0
  151.8976  145.8550  159.4476 C   0  0  0  0  0  0  0  0  0  0  0  0
  152.6126  142.4113  160.0591 N   0  0  0  0  0  0  0  0  0  0  0  0
  155.3538  140.4317  160.5855 C   0  0  0  0  0  0  0  0  0  0  0  0
  155.8617  139.0482  160.1487 C   0  0  0  0  0  0  0  0  0  0  0  0
  155.4270  138.7809  158.8189 O   0  0  0  0  0  0  0  0  0  0  0  0
  150.0787  139.9760  156.3492 H   0  0  0  0  0  0  0  0  0  0  0  0
  150.3024  139.7543  154.6104 H   0  0  0  0  0  0  0  0  0  0  0  0
  150.7564  141.2829  155.3726 H   0  0  0  0  0  0  0  0  0  0  0  0
  151.5755  138.8618  157.4958 H   0  0  0  0  0  0  0  0  0  0  0  0
  153.5950  137.2930  157.1450 H   0  0  0  0  0  0  0  0  0  0  0  0
  154.3861  138.7420  156.5768 H   0  0  0  0  0  0  0  0  0  0  0  0
  153.5993  138.0070  159.3874 H   0  0  0  0  0  0  0  0  0  0  0  0
  153.8122  140.8926  158.3768 H   0  0  0  0  0  0  0  0  0  0  0  0
  152.3732  140.1496  159.0566 H   0  0  0  0  0  0  0  0  0  0  0  0
  154.1845  141.5864  162.9498 H   0  0  0  0  0  0  0  0  0  0  0  0
  153.1093  143.7848  163.5850 H   0  0  0  0  0  0  0  0  0  0  0  0
  149.3161  145.2162  159.1010 H   0  0  0  0  0  0  0  0  0  0  0  0
  149.6816  144.9721  160.8041 H   0  0  0  0  0  0  0  0  0  0  0  0
  149.3060  143.5983  159.7684 H   0  0  0  0  0  0  0  0  0  0  0  0
  151.0580  142.7808  158.0392 H   0  0  0  0  0  0  0  0  0  0  0  0
  152.5305  143.7084  157.7819 H   0  0  0  0  0  0  0  0  0  0  0  0
  150.9746  144.3774  157.3041 H   0  0  0  0  0  0  0  0  0  0  0  0
  151.3544  146.4902  158.7469 H   0  0  0  0  0  0  0  0  0  0  0  0
  152.9445  145.8759  159.1430 H   0  0  0  0  0  0  0  0  0  0  0  0
  151.8297  146.3201  160.4317 H   0  0  0  0  0  0  0  0  0  0  0  0
  155.8234  141.2078  159.9795 H   0  0  0  0  0  0  0  0  0  0  0  0
  155.6284  140.6209  161.6240 H   0  0  0  0  0  0  0  0  0  0  0  0
  156.9509  139.0198  160.1795 H   0  0  0  0  0  0  0  0  0  0  0  0
  155.5029  138.2697  160.8241 H   0  0  0  0  0  0  0  0  0  0  0  0
  1  2  1  0  0  0  0
  1 22  1  0  0  0  0
  1 23  1  0  0  0  0
  1 24  1  0  0  0  0
  2  3  2  0  0  0  0
  2  4  1  0  0  0  0
  4  5  1  0  0  0  0
  4 25  1  0  0  0  0
  5  6  1  0  0  0  0
  5 26  1  0  0  0  0
  5 27  1  0  0  0  0
  6 21  1  0  0  0  0
  6  7  1  0  0  0  0
  6 28  1  0  0  0  0
  7  8  1  0  0  0  0
  7 29  1  0  0  0  0
  7 30  1  0  0  0  0
  8  9  1  0  0  0  0
  8 19  1  0  0  0  0
  9 18  1  0  0  0  0
  9 10  2  0  0  0  0
 10 11  1  0  0  0  0
 10 31  1  0  0  0  0
 11 12  2  0  0  0  0
 11 32  1  0  0  0  0
 12 13  1  0  0  0  0
 13 14  1  0  0  0  0
 13 18  2  0  0  0  0
 14 15  1  0  0  0  0
 14 16  1  0  0  0  0
 14 17  1  0  0  0  0
 15 33  1  0  0  0  0
 15 34  1  0  0  0  0
 15 35  1  0  0  0  0
 16 36  1  0  0  0  0
 16 37  1  0  0  0  0
 16 38  1  0  0  0  0
 17 39  1  0  0  0  0
 17 40  1  0  0  0  0
 17 41  1  0  0  0  0
 19 20  1  0  0  0  0
 19 42  1  0  0  0  0
 19 43  1  0  0  0  0
 20 21  1  0  0  0  0
 20 44  1  0  0  0  0
 20 45  1  0  0  0  0
M  END
> <s_m_source_file>
AV-unprocessed.smi

> <i_m_source_file_index>
2413

> <i_lp_mmshare_version>
43012

> <i_f3d_flags>
0

> <s_epik_input>
W0NIM11DKD1PKVtOSF1bQ0gyXVtDQEBIXTFbQ0gyXU4oW0NIMl1bQ0gyXU8xKWMyW2NIXVtjSF1uYyhuMilDKFtDSDNdKShbQ0gzXSlbQ0gzXQ==

> <s_epik_cmdline>
J2VwaWtfcHl0aG9uJywgJy1waCcsICc3LjAnLCAnLXRuJywgJzgnLCAnLW1hJywgJzIwMCcsICctbWV0YWxfYmluZGluZycsICctaW1hZScsICc8aW5maWxlLm1hZT4nLCAnLW9tYWUnLCAnPG91dGZpbGUubWFlPic=

> <r_lp_tautomer_probability>
1

> <r_epik_Ionization_Penalty>
0.0132021

> <r_epik_Ionization_Penalty_Charging>
0

> <r_epik_Ionization_Penalty_Neutral>
0.0132021

> <r_epik_State_Penalty>
0.0102452

> <r_epik_Charging_Adjusted_Penalty>
0.0102452

> <i_epik_Tot_Q>
0

> <i_epik_Tot_abs_Q>
0

> <r_epik_Metal_State_Penalty>
0.0100219

> <b_epik_Metal_Only>
0

> <s_lp_Force_Field>
OPLS_2005

> <r_lp_Energy>
13.0347

> <b_lp_Chiralities_Consistent>
1

> <s_lp_Variant>
AV-unprocessed.smi:2413-1

> <Gold.Version>
5.8.1

> <Gold.Id.Protein>
6NUR|6NUR_protein|mol2

> <Gold.PLP.Fitness>
48.0184

> <Gold.PLP.PLP>
-42.5760

> <Gold.PLP.part.hbond>
-2.8548

> <Gold.PLP.part.metal>
0.0000

> <Gold.PLP.part.buried>
-3.5050

> <Gold.PLP.part.nonpolar>
-36.7696

> <Gold.PLP.part.repulsive>
0.2948

> <Gold.PLP.ligand.clash>
0.1252

> <Gold.PLP.ligand.torsion>
0.6984

> <Gold.PLP.Chemscore.Hbond>
2.2398

> <Gold.PLP.Chemscore.CHOScore>
0.0000

> <Gold.PLP.Chemscore.Metal>
0.0000

> <Gold.Chemscore.Hbonds>
donor molecule, donor type, donor heavy atom, donor atom, acceptor molecule, acceptor atom, score
      P1  H  7989  7998       L1     3  0.18
      P1  H  7997  8008       L1    21  0.40
      P1  H  7997  8009       L1     3  1.00

> <Gold.PLP.Chemscore.Internal.Correction>
0.2451

> <Gold.Rescore>
     Score         DG    S(hbond)    S(metal)    S(lipo)     H(rot)  DE(clash)    DE(int)     intcor
     15.62     -15.95       0.99        0.00      99.15       1.73       0.02       0.31       ----

> <Gold.Chemscore.Fitness>
15.6205

> <Gold.Chemscore.DG>
-15.9525

> <Gold.Chemscore.ZeroCoef>
-5.4800

> <Gold.Chemscore.Hbond>
0.9907

> <Gold.Chemscore.Metal>
0.0000

> <Gold.Chemscore.Lipo>
99.1501

> <Gold.Chemscore.Internal_Hbond>
0.0000

> <Gold.Chemscore.DEClash>
0.0175

> <Gold.Chemscore.DEInternal>
0.3145

> <Gold.Chemscore.Rot>
1.7332

> <Gold.Chemscore.Internal.Correction>
   9.000000E+99

> <Gold.Chemscore.Hbonds>
donor molecule, donor type, donor heavy atom, donor atom, acceptor molecule, acceptor atom, score
      P1  H  7989  7998       L1     3  0.02
      P1  H  7997  8008       L1    21  0.01
      P1  H  7997  8009       L1     3  0.30

> <Gold.Chemscore.Hbond.Weighted>
-3.3090

> <Gold.Chemscore.Metal.Weighted>
-0.0000

> <Gold.Chemscore.Lipo.Weighted>
-11.6006

> <Gold.Chemscore.Internal_Hbond.Weighted>
0.0000

> <Gold.Chemscore.DEClash.Weighted>
0.0175

> <Gold.Chemscore.DEInternal.Weighted>
0.3145

> <Gold.Chemscore.Rot.Weighted>
4.4370

> <Gold.Chemscore.Internal.Correction.Weighted>
   9.000000E+99

> <Gold.Protein.RotatedTorsions>
[ 6907 6896 6895 6894 ] final  -53.48 input  -60.11 | X-H torsion
[ 7974 7965 7964 7962 ] final  -72.74 input  175.53 | X-H torsion
[ 8008 7997 7996 7995 ] final -139.53 input   59.86 | X-H torsion
[ 10167 10162 10161 10158 ] final  -78.23 input  -65.29 | X-H torsion
[ 10718 10713 10712 10709 ] final -104.35 input   66.30 | X-H torsion
[ 10763 10752 10751 10750 ] final -166.21 input  -60.55 | X-H torsion
[ 11005 11000 10999 10996 ] final   60.22 input  -57.11 | X-H torsion

> <Gold.Protein.ActiveResidues>
 VAL166  LYS551  ARG553  GLY616  TRP617  ASP618  TYR619  PRO620  LYS621  CYS622 
 ASP623  PHE694  ASN695  SER759  ASP760  ASP761  ALA762  ILE779  LEU786  VAL792 
 PHE793  MET794  SER795  GLU796  ALA797  LYS798  CYS799  TRP800  GLU811  SER814 

> <Gold.Protein.RotatedAtoms>
  150.8423  134.7720  159.6942 H   0  0  0  0  0  0  0  0  0  0  0  0  # atno 6907 bound_to 6896
  152.4508  134.5394  159.9844 H   0  0  0  0  0  0  0  0  0  0  0  0  # atno 6908 bound_to 6896
  151.5532  133.3376  159.2993 H   0  0  0  0  0  0  0  0  0  0  0  0  # atno 6909 bound_to 6896
  145.6613  140.9252  143.0932 H   0  0  0  0  0  0  0  0  0  0  0  0  # atno 7974 bound_to 7965
  155.4464  140.0535  157.3005 H   0  0  0  0  0  0  0  0  0  0  0  0  # atno 8008 bound_to 7997
  154.4796  140.2076  155.9752 H   0  0  0  0  0  0  0  0  0  0  0  0  # atno 8009 bound_to 7997
  156.1185  140.3192  155.8179 H   0  0  0  0  0  0  0  0  0  0  0  0  # atno 8010 bound_to 7997
  140.4701  143.2429  151.8218 H   0  0  0  0  0  0  0  0  0  0  0  0  # atno 10167 bound_to 10162
  156.0301  130.5511  150.7384 H   0  0  0  0  0  0  0  0  0  0  0  0  # atno 10718 bound_to 10713
  154.6855  135.2962  154.9553 H   0  0  0  0  0  0  0  0  0  0  0  0  # atno 10763 bound_to 10752
  154.0533  135.6641  153.4807 H   0  0  0  0  0  0  0  0  0  0  0  0  # atno 10764 bound_to 10752
  153.0576  135.5135  154.7921 H   0  0  0  0  0  0  0  0  0  0  0  0  # atno 10765 bound_to 10752
  140.0247  134.6100  155.9590 H   0  0  0  0  0  0  0  0  0  0  0  0  # atno 11005 bound_to 11000
  144.7088  139.8452  143.7421 LP  0  0  0  0  0  0  0  0  0  0  0  0  # atno 17320 bound_to 7965
  146.1123  139.4129  143.0280 LP  0  0  0  0  0  0  0  0  0  0  0  0  # atno 17321 bound_to 7965
  139.4817  144.4903  151.9194 LP  0  0  0  0  0  0  0  0  0  0  0  0  # atno 17342 bound_to 10162
  140.3988  144.2520  150.5894 LP  0  0  0  0  0  0  0  0  0  0  0  0  # atno 17343 bound_to 10162
  157.4959  131.0915  151.0372 LP  0  0  0  0  0  0  0  0  0  0  0  0  # atno 17370 bound_to 10713
  157.0766  130.5886  149.5412 LP  0  0  0  0  0  0  0  0  0  0  0  0  # atno 17371 bound_to 10713
  141.1795  133.6544  156.4964 LP  0  0  0  0  0  0  0  0  0  0  0  0  # atno 17394 bound_to 11000
  140.4327  134.7087  157.4950 LP  0  0  0  0  0  0  0  0  0  0  0  0  # atno 17395 bound_to 11000

$$$$
