AV-unprocessed.smi:2502|AV-procd|sdf|9846|dock5
  -GOLD-   2272013473D 1   1.00000     0.00000
 Structure written by MMmdl.
 39 41  0  0  0  0  0  0  0  0  1 V2000
  152.9843  136.7777  161.1880 O   0  0  0  0  0  0  0  0  0  0  0  0
  154.2590  137.2348  161.5984 C   0  0  1  0  0  0  0  0  0  0  0  0
  155.0491  136.0410  162.1571 C   0  0  0  0  0  0  0  0  0  0  0  0
  154.2964  135.4413  163.2018 O   0  0  0  0  0  0  0  0  0  0  0  0
  154.1368  134.0334  163.0842 C   0  0  0  0  0  0  0  0  0  0  0  0
  153.5791  133.6398  161.7053 C   0  0  0  0  0  0  0  0  0  0  0  0
  153.2282  132.1431  161.6747 C   0  0  0  0  0  0  0  0  0  0  0  0
  152.3047  131.8349  162.7139 O   0  0  0  0  0  0  0  0  0  0  0  0
  152.8268  132.0856  164.0148 C   0  0  0  0  0  0  0  0  0  0  0  0
  153.1515  133.5800  164.1693 C   0  0  0  0  0  0  0  0  0  0  0  0
  154.9702  137.8814  160.3933 C   0  0  0  0  0  0  0  0  0  0  0  0
  154.2471  139.0257  159.8659 N   0  0  0  0  0  0  0  0  0  0  0  0
  153.7196  138.9612  158.6106 N   0  0  0  0  0  0  0  0  0  0  0  0
  153.1254  140.0872  158.3505 N   0  0  0  0  0  0  0  0  0  0  0  0
  153.2643  140.9104  159.4556 C   0  0  0  0  0  0  0  0  0  0  0  0
  152.8187  142.2261  159.7120 C   0  0  0  0  0  0  0  0  0  0  0  0
  153.1034  142.8485  160.9472 C   0  0  0  0  0  0  0  0  0  0  0  0
  152.5420  144.4592  161.2225 Cl  0  0  0  0  0  0  0  0  0  0  0  0
  153.8392  142.1595  161.9416 C   0  0  0  0  0  0  0  0  0  0  0  0
  154.1979  142.9072  163.4573 Cl  0  0  0  0  0  0  0  0  0  0  0  0
  154.2890  140.8461  161.7000 C   0  0  0  0  0  0  0  0  0  0  0  0
  153.9941  140.2448  160.4644 C   0  0  0  0  0  0  0  0  0  0  0  0
  152.8345  137.0612  160.2990 H   0  0  0  0  0  0  0  0  0  0  0  0
  154.1321  137.9842  162.3809 H   0  0  0  0  0  0  0  0  0  0  0  0
  155.2941  135.3317  161.3659 H   0  0  0  0  0  0  0  0  0  0  0  0
  155.9925  136.3932  162.5771 H   0  0  0  0  0  0  0  0  0  0  0  0
  155.0918  133.5330  163.2553 H   0  0  0  0  0  0  0  0  0  0  0  0
  152.6854  134.2261  161.4886 H   0  0  0  0  0  0  0  0  0  0  0  0
  154.2976  133.8606  160.9164 H   0  0  0  0  0  0  0  0  0  0  0  0
  152.7780  131.8837  160.7165 H   0  0  0  0  0  0  0  0  0  0  0  0
  154.1258  131.5317  161.7795 H   0  0  0  0  0  0  0  0  0  0  0  0
  152.0855  131.7849  164.7554 H   0  0  0  0  0  0  0  0  0  0  0  0
  153.7141  131.4744  164.1862 H   0  0  0  0  0  0  0  0  0  0  0  0
  153.5657  133.7746  165.1590 H   0  0  0  0  0  0  0  0  0  0  0  0
  152.2301  134.1593  164.0963 H   0  0  0  0  0  0  0  0  0  0  0  0
  155.9704  138.2114  160.6779 H   0  0  0  0  0  0  0  0  0  0  0  0
  155.1017  137.1528  159.5919 H   0  0  0  0  0  0  0  0  0  0  0  0
  152.2579  142.7575  158.9570 H   0  0  0  0  0  0  0  0  0  0  0  0
  154.8523  140.3103  162.4497 H   0  0  0  0  0  0  0  0  0  0  0  0
  1  2  1  0  0  0  0
  1 23  1  0  0  0  0
  2  3  1  0  0  0  0
  2 11  1  0  0  0  0
  2 24  1  0  0  0  0
  3  4  1  0  0  0  0
  3 25  1  0  0  0  0
  3 26  1  0  0  0  0
  4  5  1  0  0  0  0
  5 10  1  0  0  0  0
  5  6  1  0  0  0  0
  5 27  1  0  0  0  0
  6  7  1  0  0  0  0
  6 28  1  0  0  0  0
  6 29  1  0  0  0  0
  7  8  1  0  0  0  0
  7 30  1  0  0  0  0
  7 31  1  0  0  0  0
  8  9  1  0  0  0  0
  9 10  1  0  0  0  0
  9 32  1  0  0  0  0
  9 33  1  0  0  0  0
 10 34  1  0  0  0  0
 10 35  1  0  0  0  0
 11 12  1  0  0  0  0
 11 36  1  0  0  0  0
 11 37  1  0  0  0  0
 12 22  1  0  0  0  0
 12 13  1  0  0  0  0
 13 14  2  0  0  0  0
 14 15  1  0  0  0  0
 15 22  2  0  0  0  0
 15 16  1  0  0  0  0
 16 17  2  0  0  0  0
 16 38  1  0  0  0  0
 17 18  1  0  0  0  0
 17 19  1  0  0  0  0
 19 20  1  0  0  0  0
 19 21  2  0  0  0  0
 21 22  1  0  0  0  0
 21 39  1  0  0  0  0
M  END
> <s_m_source_file>
AV-unprocessed.smi

> <i_m_source_file_index>
2502

> <i_lp_mmshare_version>
43012

> <i_f3d_flags>
0

> <s_epik_input>
W2NIXTFjKENsKWMoQ2wpW2NIXWMoYzEyKW4obm4yKVtDSDJdW0NASF0oW09IXSlbQ0gyXU9bQ0hdM1tDSDJdW0NIMl1PW0NIMl1bQ0gyXTM=

> <s_epik_cmdline>
J2VwaWtfcHl0aG9uJywgJy1waCcsICc3LjAnLCAnLXRuJywgJzgnLCAnLW1hJywgJzIwMCcsICctbWV0YWxfYmluZGluZycsICctaW1hZScsICc8aW5maWxlLm1hZT4nLCAnLW9tYWUnLCAnPG91dGZpbGUubWFlPic=

> <r_lp_tautomer_probability>
1

> <r_epik_Ionization_Penalty>
2.65748e-06

> <r_epik_Ionization_Penalty_Charging>
0

> <r_epik_Ionization_Penalty_Neutral>
2.65748e-06

> <r_epik_State_Penalty>
-0

> <r_epik_Charging_Adjusted_Penalty>
0

> <i_epik_Tot_Q>
0

> <i_epik_Tot_abs_Q>
0

> <r_epik_Metal_State_Penalty>
-0

> <b_epik_Metal_Only>
0

> <s_lp_Force_Field>
OPLS_2005

> <r_lp_Energy>
14.648

> <b_lp_Chiralities_Consistent>
1

> <s_lp_Variant>
AV-unprocessed.smi:2502-2

> <Gold.Version>
5.8.1

> <Gold.Id.Protein>
6NUR|6NUR_protein|mol2

> <Gold.PLP.Fitness>
45.9507

> <Gold.PLP.PLP>
-43.7735

> <Gold.PLP.part.hbond>
-1.6352

> <Gold.PLP.part.metal>
0.0000

> <Gold.PLP.part.buried>
-3.8134

> <Gold.PLP.part.nonpolar>
-37.5441

> <Gold.PLP.part.repulsive>
0.0702

> <Gold.PLP.ligand.clash>
0.0000

> <Gold.PLP.ligand.torsion>
0.4201

> <Gold.PLP.Chemscore.Hbond>
1.0000

> <Gold.PLP.Chemscore.CHOScore>
0.0000

> <Gold.PLP.Chemscore.Metal>
0.0000

> <Gold.PLP.Chemscore.Internal.Correction>
0.0175

> <Gold.Rescore>
     Score         DG    S(hbond)    S(metal)    S(lipo)     H(rot)  DE(clash)    DE(int)     intcor
     18.57     -19.13       0.97        0.00     137.16       2.21       0.12       0.43       ----

> <Gold.Chemscore.Fitness>
18.5729

> <Gold.Chemscore.DG>
-19.1265

> <Gold.Chemscore.ZeroCoef>
-5.4800

> <Gold.Chemscore.Hbond>
0.9721

> <Gold.Chemscore.Metal>
0.0000

> <Gold.Chemscore.Lipo>
137.1634

> <Gold.Chemscore.Internal_Hbond>
0.0000

> <Gold.Chemscore.DEClash>
0.1203

> <Gold.Chemscore.DEInternal>
0.4333

> <Gold.Chemscore.Rot>
2.2065

> <Gold.Chemscore.Internal.Correction>
   9.000000E+99

> <Gold.Chemscore.Hbond.Weighted>
-3.2469

> <Gold.Chemscore.Metal.Weighted>
-0.0000

> <Gold.Chemscore.Lipo.Weighted>
-16.0481

> <Gold.Chemscore.Internal_Hbond.Weighted>
0.0000

> <Gold.Chemscore.DEClash.Weighted>
0.1203

> <Gold.Chemscore.DEInternal.Weighted>
0.4333

> <Gold.Chemscore.Rot.Weighted>
5.6485

> <Gold.Chemscore.Internal.Correction.Weighted>
   9.000000E+99

> <Gold.Protein.RotatedTorsions>
[ 6907 6896 6895 6894 ] final  -53.00 input  -60.11 | X-H torsion
[ 7974 7965 7964 7962 ] final -159.89 input  175.53 | X-H torsion
[ 8008 7997 7996 7995 ] final  -90.84 input   59.86 | X-H torsion
[ 10167 10162 10161 10158 ] final -161.95 input  -65.29 | X-H torsion
[ 10718 10713 10712 10709 ] final   -9.77 input   66.30 | X-H torsion
[ 10763 10752 10751 10750 ] final  -45.29 input  -60.55 | X-H torsion
[ 11005 11000 10999 10996 ] final  140.49 input  -57.11 | X-H torsion

> <Gold.Protein.ActiveResidues>
 VAL166  LYS551  ARG553  GLY616  TRP617  ASP618  TYR619  PRO620  LYS621  CYS622 
 ASP623  PHE694  ASN695  SER759  ASP760  ASP761  ALA762  ILE779  LEU786  VAL792 
 PHE793  MET794  SER795  GLU796  ALA797  LYS798  CYS799  TRP800  GLU811  SER814 

> <Gold.Protein.RotatedAtoms>
  150.8466  134.7777  159.6974 H   0  0  0  0  0  0  0  0  0  0  0  0  # atno 6907 bound_to 6896
  152.4541  134.5326  159.9825 H   0  0  0  0  0  0  0  0  0  0  0  0  # atno 6908 bound_to 6896
  151.5455  133.3388  159.2979 H   0  0  0  0  0  0  0  0  0  0  0  0  # atno 6909 bound_to 6896
  144.7447  140.3619  143.6094 H   0  0  0  0  0  0  0  0  0  0  0  0  # atno 7974 bound_to 7965
  154.7035  140.0526  157.0481 H   0  0  0  0  0  0  0  0  0  0  0  0  # atno 8008 bound_to 7997
  155.0652  140.3194  155.4629 H   0  0  0  0  0  0  0  0  0  0  0  0  # atno 8009 bound_to 7997
  156.2767  140.2091  156.5780 H   0  0  0  0  0  0  0  0  0  0  0  0  # atno 8010 bound_to 7997
  139.6427  144.0229  152.2104 H   0  0  0  0  0  0  0  0  0  0  0  0  # atno 10167 bound_to 10162
  156.6832  130.5043  149.5965 H   0  0  0  0  0  0  0  0  0  0  0  0  # atno 10718 bound_to 10713
  154.0261  135.6663  153.4776 H   0  0  0  0  0  0  0  0  0  0  0  0  # atno 10763 bound_to 10752
  153.0560  135.5056  154.7977 H   0  0  0  0  0  0  0  0  0  0  0  0  # atno 10764 bound_to 10752
  154.6907  135.3061  154.9448 H   0  0  0  0  0  0  0  0  0  0  0  0  # atno 10765 bound_to 10752
  140.0331  134.9342  157.0701 H   0  0  0  0  0  0  0  0  0  0  0  0  # atno 11005 bound_to 11000
  145.7168  139.1699  143.2507 LP  0  0  0  0  0  0  0  0  0  0  0  0  # atno 17320 bound_to 7965
  146.1307  140.7190  142.9414 LP  0  0  0  0  0  0  0  0  0  0  0  0  # atno 17321 bound_to 7965
  139.9923  144.6353  150.7803 LP  0  0  0  0  0  0  0  0  0  0  0  0  # atno 17342 bound_to 10162
  140.7499  143.2946  151.3238 LP  0  0  0  0  0  0  0  0  0  0  0  0  # atno 17343 bound_to 10162
  156.1852  130.6524  151.0998 LP  0  0  0  0  0  0  0  0  0  0  0  0  # atno 17370 bound_to 10713
  157.7036  131.0766  150.6741 LP  0  0  0  0  0  0  0  0  0  0  0  0  # atno 17371 bound_to 10713
  140.4192  134.1898  155.7164 LP  0  0  0  0  0  0  0  0  0  0  0  0  # atno 17394 bound_to 11000
  141.1842  133.8348  157.1147 LP  0  0  0  0  0  0  0  0  0  0  0  0  # atno 17395 bound_to 11000

$$$$
