AV-unprocessed.smi:1817|AV-procd|sdf|7372|dock6
  -GOLD-   22720 9 33D 1   1.00000     0.00000
 Structure written by MMmdl.
 42 43  0  0  0  0  0  0  0  0  1 V2000
  153.4925  142.6786  163.0138 C   0  0  0  0  0  0  0  0  0  0  0  0
  152.7043  143.2470  161.8250 C   0  0  0  0  0  0  0  0  0  0  0  0
  152.2523  142.2533  160.8530 N   0  0  0  0  0  0  0  0  0  0  0  0
  153.3432  141.3568  160.4789 C   0  0  0  0  0  0  0  0  0  0  0  0
  152.8850  140.2897  159.4681 C   0  0  0  0  0  0  0  0  0  0  0  0
  152.3579  140.8871  158.2336 N   0  0  0  0  0  0  0  0  0  0  0  0
  151.9263  139.8706  157.2494 C   0  0  2  0  0  0  0  0  0  0  0  0
  151.4237  140.4763  155.9195 C   0  0  0  0  0  0  0  0  0  0  0  0
  150.8461  138.8945  157.7850 C   0  0  0  0  0  0  0  0  0  0  0  0
  150.6133  137.7698  156.8808 N   0  0  0  0  0  0  0  0  0  0  0  0
  150.6867  136.4724  157.2100 C   0  0  0  0  0  0  0  0  0  0  0  0
  150.9479  136.0717  158.3441 O   0  0  0  0  0  0  0  0  0  0  0  0
  150.4450  135.6891  156.1465 N   0  0  0  0  0  0  0  0  0  0  0  0
  150.4323  134.2728  156.0917 C   0  0  0  0  0  0  0  0  0  0  0  0
  150.8172  133.5980  157.1814 N   0  0  0  0  0  0  0  0  0  0  0  0
  150.7578  132.2229  156.9903 N   0  0  0  0  0  0  0  0  0  0  0  0
  150.3300  131.9142  155.7624 C   0  0  0  0  0  0  0  0  0  0  0  0
  149.9569  133.2722  154.7159 S   0  0  0  0  0  0  0  0  0  0  0  0
  151.2705  141.7984  158.6168 C   0  0  0  0  0  0  0  0  0  0  0  0
  151.7319  142.8629  159.6292 C   0  0  0  0  0  0  0  0  0  0  0  0
  153.8824  143.4856  163.6342 H   0  0  0  0  0  0  0  0  0  0  0  0
  154.3411  142.0837  162.6746 H   0  0  0  0  0  0  0  0  0  0  0  0
  152.8722  142.0510  163.6530 H   0  0  0  0  0  0  0  0  0  0  0  0
  151.8527  143.8207  162.1939 H   0  0  0  0  0  0  0  0  0  0  0  0
  153.3515  143.9641  161.3185 H   0  0  0  0  0  0  0  0  0  0  0  0
  154.1703  141.9293  160.0555 H   0  0  0  0  0  0  0  0  0  0  0  0
  153.7325  140.8603  161.3684 H   0  0  0  0  0  0  0  0  0  0  0  0
  153.7463  139.6605  159.2492 H   0  0  0  0  0  0  0  0  0  0  0  0
  152.1316  139.6463  159.9254 H   0  0  0  0  0  0  0  0  0  0  0  0
  152.7937  139.2581  156.9982 H   0  0  0  0  0  0  0  0  0  0  0  0
  150.9992  139.7097  155.2707 H   0  0  0  0  0  0  0  0  0  0  0  0
  152.2290  140.9412  155.3516 H   0  0  0  0  0  0  0  0  0  0  0  0
  150.6526  141.2287  156.0875 H   0  0  0  0  0  0  0  0  0  0  0  0
  151.1190  138.5412  158.7808 H   0  0  0  0  0  0  0  0  0  0  0  0
  149.8984  139.4107  157.9337 H   0  0  0  0  0  0  0  0  0  0  0  0
  150.4019  138.0029  155.9216 H   0  0  0  0  0  0  0  0  0  0  0  0
  150.2488  136.1585  155.2746 H   0  0  0  0  0  0  0  0  0  0  0  0
  150.2336  130.8789  155.4708 H   0  0  0  0  0  0  0  0  0  0  0  0
  150.8882  142.3255  157.7443 H   0  0  0  0  0  0  0  0  0  0  0  0
  150.4360  141.2314  159.0326 H   0  0  0  0  0  0  0  0  0  0  0  0
  150.8855  143.5085  159.8610 H   0  0  0  0  0  0  0  0  0  0  0  0
  152.4934  143.4973  159.1728 H   0  0  0  0  0  0  0  0  0  0  0  0
  1  2  1  0  0  0  0
  1 21  1  0  0  0  0
  1 22  1  0  0  0  0
  1 23  1  0  0  0  0
  2  3  1  0  0  0  0
  2 24  1  0  0  0  0
  2 25  1  0  0  0  0
  3 20  1  0  0  0  0
  3  4  1  0  0  0  0
  4  5  1  0  0  0  0
  4 26  1  0  0  0  0
  4 27  1  0  0  0  0
  5  6  1  0  0  0  0
  5 28  1  0  0  0  0
  5 29  1  0  0  0  0
  6  7  1  0  0  0  0
  6 19  1  0  0  0  0
  7  8  1  0  0  0  0
  7  9  1  0  0  0  0
  7 30  1  0  0  0  0
  8 31  1  0  0  0  0
  8 32  1  0  0  0  0
  8 33  1  0  0  0  0
  9 10  1  0  0  0  0
  9 34  1  0  0  0  0
  9 35  1  0  0  0  0
 10 11  1  0  0  0  0
 10 36  1  0  0  0  0
 11 12  2  0  0  0  0
 11 13  1  0  0  0  0
 13 14  1  0  0  0  0
 13 37  1  0  0  0  0
 14 18  1  0  0  0  0
 14 15  2  0  0  0  0
 15 16  1  0  0  0  0
 16 17  2  0  0  0  0
 17 18  1  0  0  0  0
 17 38  1  0  0  0  0
 19 20  1  0  0  0  0
 19 39  1  0  0  0  0
 19 40  1  0  0  0  0
 20 41  1  0  0  0  0
 20 42  1  0  0  0  0
M  END
> <s_m_source_file>
AV-unprocessed.smi

> <i_m_source_file_index>
1817

> <i_lp_mmshare_version>
43012

> <i_f3d_flags>
0

> <s_epik_input>
W0NIM11bQ0gyXU4xW0NIMl1bQ0gyXU4oW0NIMl1bQ0gyXTEpW0NASF0oW0NIM10pW0NIMl1bTkhdQyg9TylbTkhdYzJubltjSF1zMg==

> <s_epik_cmdline>
J2VwaWtfcHl0aG9uJywgJy1waCcsICc3LjAnLCAnLXRuJywgJzgnLCAnLW1hJywgJzIwMCcsICctbWV0YWxfYmluZGluZycsICctaW1hZScsICc8aW5maWxlLm1hZT4nLCAnLW9tYWUnLCAnPG91dGZpbGUubWFlPic=

> <r_lp_tautomer_probability>
1

> <r_epik_Ionization_Penalty>
2.44129

> <r_epik_Ionization_Penalty_Charging>
0

> <r_epik_Ionization_Penalty_Neutral>
2.44129

> <r_epik_State_Penalty>
1.7682

> <r_epik_Charging_Adjusted_Penalty>
1.7682

> <i_epik_Tot_Q>
0

> <i_epik_Tot_abs_Q>
0

> <r_epik_Metal_State_Penalty>
2.10306

> <b_epik_Metal_Only>
0

> <s_lp_Force_Field>
OPLS_2005

> <r_lp_Energy>
42.0041

> <b_lp_Chiralities_Consistent>
1

> <s_lp_Variant>
AV-unprocessed.smi:1817-5

> <Gold.Version>
5.8.1

> <Gold.Id.Protein>
6NUR|6NUR_protein|mol2

> <Gold.PLP.Fitness>
38.3420

> <Gold.PLP.PLP>
-34.8998

> <Gold.PLP.part.hbond>
-2.2268

> <Gold.PLP.part.metal>
0.0000

> <Gold.PLP.part.buried>
-5.5372

> <Gold.PLP.part.nonpolar>
-27.0616

> <Gold.PLP.part.repulsive>
0.1335

> <Gold.PLP.ligand.clash>
0.0000

> <Gold.PLP.ligand.torsion>
0.1199

> <Gold.PLP.Chemscore.Hbond>
1.2160

> <Gold.PLP.Chemscore.CHOScore>
0.0000

> <Gold.PLP.Chemscore.Metal>
0.0000

> <Gold.Chemscore.Hbonds>
donor molecule, donor type, donor heavy atom, donor atom, acceptor molecule, acceptor atom, score
      P1  H  6896  6907       L1    12  0.58
      P1  H  6896  6909       L1    15  0.58

> <Gold.PLP.Chemscore.Internal.Correction>
0.0339

> <Gold.Rescore>
     Score         DG    S(hbond)    S(metal)    S(lipo)     H(rot)  DE(clash)    DE(int)     intcor
     12.38     -14.02       0.97        0.00      86.40       1.87       0.06       1.57       ----

> <Gold.Chemscore.Fitness>
12.3819

> <Gold.Chemscore.DG>
-14.0168

> <Gold.Chemscore.ZeroCoef>
-5.4800

> <Gold.Chemscore.Hbond>
0.9653

> <Gold.Chemscore.Metal>
0.0000

> <Gold.Chemscore.Lipo>
86.3962

> <Gold.Chemscore.Internal_Hbond>
0.0000

> <Gold.Chemscore.DEClash>
0.0607

> <Gold.Chemscore.DEInternal>
1.5742

> <Gold.Chemscore.Rot>
1.8733

> <Gold.Chemscore.Internal.Correction>
   9.000000E+99

> <Gold.Chemscore.Hbonds>
donor molecule, donor type, donor heavy atom, donor atom, acceptor molecule, acceptor atom, score
      P1  H  6896  6907       L1    12  0.58
      P1  H  6896  6909       L1    15  0.08

> <Gold.Chemscore.Hbond.Weighted>
-3.2241

> <Gold.Chemscore.Metal.Weighted>
-0.0000

> <Gold.Chemscore.Lipo.Weighted>
-10.1084

> <Gold.Chemscore.Internal_Hbond.Weighted>
0.0000

> <Gold.Chemscore.DEClash.Weighted>
0.0607

> <Gold.Chemscore.DEInternal.Weighted>
1.5742

> <Gold.Chemscore.Rot.Weighted>
4.7957

> <Gold.Chemscore.Internal.Correction.Weighted>
   9.000000E+99

> <Gold.Protein.RotatedTorsions>
[ 6907 6896 6895 6894 ] final  -23.78 input  -60.11 | X-H torsion
[ 7974 7965 7964 7962 ] final  111.26 input  175.53 | X-H torsion
[ 8008 7997 7996 7995 ] final   71.04 input   59.86 | X-H torsion
[ 10167 10162 10161 10158 ] final  100.21 input  -65.29 | X-H torsion
[ 10718 10713 10712 10709 ] final   88.24 input   66.30 | X-H torsion
[ 10763 10752 10751 10750 ] final  -37.81 input  -60.55 | X-H torsion
[ 11005 11000 10999 10996 ] final -177.37 input  -57.11 | X-H torsion

> <Gold.Protein.ActiveResidues>
 VAL166  LYS551  ARG553  GLY616  TRP617  ASP618  TYR619  PRO620  LYS621  CYS622 
 ASP623  PHE694  ASN695  SER759  ASP760  ASP761  ALA762  ILE779  LEU786  VAL792 
 PHE793  MET794  SER795  GLU796  ALA797  LYS798  CYS799  TRP800  GLU811  SER814 

> <Gold.Protein.RotatedAtoms>
  151.1990  135.0435  159.8864 H   0  0  0  0  0  0  0  0  0  0  0  0  # atno 6907 bound_to 6896
  152.5434  134.0871  159.8271 H   0  0  0  0  0  0  0  0  0  0  0  0  # atno 6908 bound_to 6896
  151.1009  133.5197  159.2642 H   0  0  0  0  0  0  0  0  0  0  0  0  # atno 6909 bound_to 6896
  145.2445  139.2765  143.4100 H   0  0  0  0  0  0  0  0  0  0  0  0  # atno 7974 bound_to 7965
  155.7478  140.3489  155.5136 H   0  0  0  0  0  0  0  0  0  0  0  0  # atno 8008 bound_to 7997
  155.9033  140.1038  157.1355 H   0  0  0  0  0  0  0  0  0  0  0  0  # atno 8009 bound_to 7997
  154.4046  140.1282  156.4450 H   0  0  0  0  0  0  0  0  0  0  0  0  # atno 8010 bound_to 7997
  139.7548  144.6973  151.0379 H   0  0  0  0  0  0  0  0  0  0  0  0  # atno 10167 bound_to 10162
  157.6947  131.0287  150.3244 H   0  0  0  0  0  0  0  0  0  0  0  0  # atno 10718 bound_to 10713
  153.9025  135.6801  153.4754 H   0  0  0  0  0  0  0  0  0  0  0  0  # atno 10763 bound_to 10752
  153.1121  135.4778  154.9051 H   0  0  0  0  0  0  0  0  0  0  0  0  # atno 10764 bound_to 10752
  154.7568  135.3199  154.8409 H   0  0  0  0  0  0  0  0  0  0  0  0  # atno 10765 bound_to 10752
  140.4417  134.6425  157.4761 H   0  0  0  0  0  0  0  0  0  0  0  0  # atno 11005 bound_to 11000
  146.3319  140.2818  142.8610 LP  0  0  0  0  0  0  0  0  0  0  0  0  # atno 17320 bound_to 7965
  144.9559  140.8226  143.5543 LP  0  0  0  0  0  0  0  0  0  0  0  0  # atno 17321 bound_to 7965
  140.7801  143.4767  151.0073 LP  0  0  0  0  0  0  0  0  0  0  0  0  # atno 17342 bound_to 10162
  139.8454  143.7509  152.3179 LP  0  0  0  0  0  0  0  0  0  0  0  0  # atno 17343 bound_to 10162
  156.3727  130.3866  149.7163 LP  0  0  0  0  0  0  0  0  0  0  0  0  # atno 17370 bound_to 10713
  156.4572  130.7935  151.2955 LP  0  0  0  0  0  0  0  0  0  0  0  0  # atno 17371 bound_to 10713
  140.0065  134.6756  155.9447 LP  0  0  0  0  0  0  0  0  0  0  0  0  # atno 17394 bound_to 11000
  141.1702  133.6537  156.4625 LP  0  0  0  0  0  0  0  0  0  0  0  0  # atno 17395 bound_to 11000

$$$$
