AV-unprocessed.smi:490|AV-procd|sdf|2705|dock3
  -GOLD-   2262023143D 1   1.00000     0.00000
 Structure written by MMmdl.
 50 52  0  0  0  0  0  0  0  0  2 V2000
  151.8856  130.7869  155.6594 C   0  0  0  0  0  0  0  0  0  0  0  0
  150.6612  130.3833  154.8559 C   0  0  0  0  0  0  0  0  0  0  0  0
  150.5034  129.0322  154.4852 C   0  0  0  0  0  0  0  0  0  0  0  0
  149.3839  128.6246  153.7390 C   0  0  0  0  0  0  0  0  0  0  0  0
  148.4031  129.5627  153.3643 C   0  0  0  0  0  0  0  0  0  0  0  0
  147.2010  129.1090  152.5572 C   0  0  0  0  0  0  0  0  0  0  0  0
  148.5423  130.9167  153.7465 C   0  0  0  0  0  0  0  0  0  0  0  0
  147.5697  131.8152  153.3885 O   0  0  0  0  0  0  0  0  0  0  0  0
  146.8730  132.3661  154.4970 C   0  0  0  0  0  0  0  0  0  0  0  0
  146.1164  133.6239  154.0439 C   0  0  2  0  0  0  0  0  0  0  0  0
  144.7876  133.2609  153.7243 O   0  0  0  0  0  0  0  0  0  0  0  0
  146.7770  134.2746  152.8120 C   0  0  0  0  0  0  0  0  0  0  0  0
  145.7994  134.7614  151.8247 N   0  0  0  0  0  0  0  0  0  0  0  0
  145.2442  135.9997  151.6822 C   0  0  0  0  0  0  0  0  0  0  0  0
  145.5042  137.2024  152.5282 C   0  0  0  0  0  0  0  0  0  0  0  0
  144.3190  137.7524  153.0587 O   0  0  0  0  0  0  0  0  0  0  0  0
  144.4065  135.9462  150.6088 N   0  3  0  0  0  0  0  0  0  0  0  0
  144.4210  134.6631  150.0615 C   0  0  0  0  0  0  0  0  0  0  0  0
  143.7376  134.1314  148.9723 C   0  0  0  0  0  0  0  0  0  0  0  0
  143.9768  132.7735  148.6767 C   0  0  0  0  0  0  0  0  0  0  0  0
  144.8655  131.9996  149.4506 C   0  0  0  0  0  0  0  0  0  0  0  0
  145.5544  132.5504  150.5514 C   0  0  0  0  0  0  0  0  0  0  0  0
  145.3131  133.8945  150.8378 C   0  0  0  0  0  0  0  0  0  0  0  0
  149.6832  131.3368  154.4764 C   0  0  0  0  0  0  0  0  0  0  0  0
  149.8572  132.8027  154.8506 C   0  0  0  0  0  0  0  0  0  0  0  0
  152.4562  129.9143  155.9785 H   0  0  0  0  0  0  0  0  0  0  0  0
  151.5953  131.3385  156.5538 H   0  0  0  0  0  0  0  0  0  0  0  0
  152.5436  131.4166  155.0604 H   0  0  0  0  0  0  0  0  0  0  0  0
  151.2451  128.2995  154.7682 H   0  0  0  0  0  0  0  0  0  0  0  0
  149.2808  127.5869  153.4575 H   0  0  0  0  0  0  0  0  0  0  0  0
  147.0035  129.8010  151.7379 H   0  0  0  0  0  0  0  0  0  0  0  0
  146.3153  129.0628  153.1907 H   0  0  0  0  0  0  0  0  0  0  0  0
  147.3639  128.1203  152.1269 H   0  0  0  0  0  0  0  0  0  0  0  0
  146.1596  131.6221  154.8555 H   0  0  0  0  0  0  0  0  0  0  0  0
  147.5431  132.5866  155.3296 H   0  0  0  0  0  0  0  0  0  0  0  0
  146.0956  134.3485  154.8587 H   0  0  0  0  0  0  0  0  0  0  0  0
  144.4688  132.6725  154.3912 H   0  0  0  0  0  0  0  0  0  0  0  0
  147.3697  135.1358  153.1225 H   0  0  0  0  0  0  0  0  0  0  0  0
  147.4743  133.5910  152.3275 H   0  0  0  0  0  0  0  0  0  0  0  0
  146.1677  136.9322  153.3502 H   0  0  0  0  0  0  0  0  0  0  0  0
  146.0180  137.9604  151.9372 H   0  0  0  0  0  0  0  0  0  0  0  0
  144.0619  138.4874  152.5229 H   0  0  0  0  0  0  0  0  0  0  0  0
  143.0562  134.7227  148.3783 H   0  0  0  0  0  0  0  0  0  0  0  0
  143.4680  132.3167  147.8400 H   0  0  0  0  0  0  0  0  0  0  0  0
  145.0224  130.9615  149.1949 H   0  0  0  0  0  0  0  0  0  0  0  0
  146.2299  131.9455  151.1373 H   0  0  0  0  0  0  0  0  0  0  0  0
  149.2005  133.4549  154.2753 H   0  0  0  0  0  0  0  0  0  0  0  0
  150.8778  133.1354  154.6619 H   0  0  0  0  0  0  0  0  0  0  0  0
  149.6374  132.9488  155.9082 H   0  0  0  0  0  0  0  0  0  0  0  0
  143.8669  136.7346  150.2753 H   0  0  0  0  0  0  0  0  0  0  0  0
  1  2  1  0  0  0  0
  1 26  1  0  0  0  0
  1 27  1  0  0  0  0
  1 28  1  0  0  0  0
  2 24  1  0  0  0  0
  2  3  2  0  0  0  0
  3  4  1  0  0  0  0
  3 29  1  0  0  0  0
  4  5  2  0  0  0  0
  4 30  1  0  0  0  0
  5  6  1  0  0  0  0
  5  7  1  0  0  0  0
  6 31  1  0  0  0  0
  6 32  1  0  0  0  0
  6 33  1  0  0  0  0
  7  8  1  0  0  0  0
  7 24  2  0  0  0  0
  8  9  1  0  0  0  0
  9 10  1  0  0  0  0
  9 34  1  0  0  0  0
  9 35  1  0  0  0  0
 10 11  1  0  0  0  0
 10 12  1  0  0  0  0
 10 36  1  0  0  0  0
 11 37  1  0  0  0  0
 12 13  1  0  0  0  0
 12 38  1  0  0  0  0
 12 39  1  0  0  0  0
 13 23  1  0  0  0  0
 13 14  1  0  0  0  0
 14 15  1  0  0  0  0
 14 17  2  0  0  0  0
 15 16  1  0  0  0  0
 15 40  1  0  0  0  0
 15 41  1  0  0  0  0
 16 42  1  0  0  0  0
 17 18  1  0  0  0  0
 17 50  1  0  0  0  0
 18 23  2  0  0  0  0
 18 19  1  0  0  0  0
 19 20  2  0  0  0  0
 19 43  1  0  0  0  0
 20 21  1  0  0  0  0
 20 44  1  0  0  0  0
 21 22  2  0  0  0  0
 21 45  1  0  0  0  0
 22 23  1  0  0  0  0
 22 46  1  0  0  0  0
 24 25  1  0  0  0  0
 25 47  1  0  0  0  0
 25 48  1  0  0  0  0
 25 49  1  0  0  0  0
M  CHG  1  17   1
M  END
> <s_m_source_file>
AV-unprocessed.smi

> <i_m_source_file_index>
490

> <i_lp_mmshare_version>
43012

> <i_f3d_flags>
0

> <s_epik_input>
W0NIM11jMVtjSF1bY0hdYyhbQ0gzXSljKGMxW0NIM10pT1tDSDJdW0NASF0oW09IXSlbQ0gyXW4oYyhuMilbQ0gyXVtPSF0pYyhjMjMpW2NIXVtjSF1bY0hdW2NIXTM=

> <s_epik_cmdline>
J2VwaWtfcHl0aG9uJywgJy1waCcsICc3LjAnLCAnLXRuJywgJzgnLCAnLW1hJywgJzIwMCcsICctbWV0YWxfYmluZGluZycsICctaW1hZScsICc8aW5maWxlLm1hZT4nLCAnLW9tYWUnLCAnPG91dGZpbGUubWFlPic=

> <r_lp_tautomer_probability>
1

> <r_epik_Ionization_Penalty>
1.43125

> <r_epik_Ionization_Penalty_Charging>
1.43039

> <r_epik_Ionization_Penalty_Neutral>
0.000858184

> <r_epik_State_Penalty>
1.51493

> <r_epik_Charging_Adjusted_Penalty>
2.94531

> <i_epik_Tot_Q>
1

> <i_epik_Tot_abs_Q>
1

> <r_epik_Metal_State_Penalty>
5.5599

> <b_epik_Metal_Only>
0

> <s_lp_Force_Field>
OPLS_2005

> <r_lp_Energy>
24.6054

> <b_lp_Chiralities_Consistent>
1

> <s_lp_Variant>
AV-unprocessed.smi:490-3

> <Gold.Version>
5.8.1

> <Gold.Id.Protein>
6NUR|6NUR_protein|mol2

> <Gold.PLP.Fitness>
47.2358

> <Gold.PLP.PLP>
-41.8983

> <Gold.PLP.part.hbond>
-3.0000

> <Gold.PLP.part.metal>
0.0000

> <Gold.PLP.part.buried>
2.4645

> <Gold.PLP.part.nonpolar>
-41.7073

> <Gold.PLP.part.repulsive>
0.1298

> <Gold.PLP.ligand.clash>
0.0000

> <Gold.PLP.ligand.torsion>
1.5237

> <Gold.PLP.Chemscore.Hbond>
2.7520

> <Gold.PLP.Chemscore.CHOScore>
0.0000

> <Gold.PLP.Chemscore.Metal>
0.0000

> <Gold.Chemscore.Hbonds>
donor molecule, donor type, donor heavy atom, donor atom, acceptor molecule, acceptor atom, score
      L1  H    11    37       P1 10957  0.69
      L1  H    16    42       P1 10175  0.94
      L1  H    17    50       P1 10171  0.96

> <Gold.PLP.Chemscore.Internal.Correction>
0.1290

> <Gold.Rescore>
     Score         DG    S(hbond)    S(metal)    S(lipo)     H(rot)  DE(clash)    DE(int)     intcor
     15.67     -20.22       2.51        0.00     120.43       3.02       1.87       2.68       ----

> <Gold.Chemscore.Fitness>
15.6673

> <Gold.Chemscore.DG>
-20.2179

> <Gold.Chemscore.ZeroCoef>
-5.4800

> <Gold.Chemscore.Hbond>
2.5070

> <Gold.Chemscore.Metal>
0.0000

> <Gold.Chemscore.Lipo>
120.4305

> <Gold.Chemscore.Internal_Hbond>
0.0000

> <Gold.Chemscore.DEClash>
1.8724

> <Gold.Chemscore.DEInternal>
2.6782

> <Gold.Chemscore.Rot>
3.0180

> <Gold.Chemscore.Internal.Correction>
   9.000000E+99

> <Gold.Chemscore.Hbonds>
donor molecule, donor type, donor heavy atom, donor atom, acceptor molecule, acceptor atom, score
      L1  H    11    37       P1 10957  0.59
      L1  H    16    42       P1 10175  0.88
      L1  H    17    50       P1 10171  0.92

> <Gold.Chemscore.Hbond.Weighted>
-8.3735

> <Gold.Chemscore.Metal.Weighted>
-0.0000

> <Gold.Chemscore.Lipo.Weighted>
-14.0904

> <Gold.Chemscore.Internal_Hbond.Weighted>
0.0000

> <Gold.Chemscore.DEClash.Weighted>
1.8724

> <Gold.Chemscore.DEInternal.Weighted>
2.6782

> <Gold.Chemscore.Rot.Weighted>
7.7260

> <Gold.Chemscore.Internal.Correction.Weighted>
   9.000000E+99

> <Gold.Protein.RotatedTorsions>
[ 6907 6896 6895 6894 ] final   37.62 input  -60.11 | X-H torsion
[ 7974 7965 7964 7962 ] final -118.29 input  175.53 | X-H torsion
[ 8008 7997 7996 7995 ] final -137.75 input   59.86 | X-H torsion
[ 10167 10162 10161 10158 ] final -173.95 input  -65.29 | X-H torsion
[ 10718 10713 10712 10709 ] final  -79.03 input   66.30 | X-H torsion
[ 10763 10752 10751 10750 ] final  126.03 input  -60.55 | X-H torsion
[ 11005 11000 10999 10996 ] final -117.84 input  -57.11 | X-H torsion

> <Gold.Protein.ActiveResidues>
 VAL166  LYS551  ARG553  GLY616  TRP617  ASP618  TYR619  PRO620  LYS621  CYS622 
 ASP623  PHE694  ASN695  SER759  ASP760  ASP761  ALA762  ILE779  LEU786  VAL792 
 PHE793  MET794  SER795  GLU796  ALA797  LYS798  CYS799  TRP800  GLU811  SER814 

> <Gold.Protein.RotatedAtoms>
  152.1456  134.9028  160.0550 H   0  0  0  0  0  0  0  0  0  0  0  0  # atno 6907 bound_to 6896
  152.0079  133.3845  159.4216 H   0  0  0  0  0  0  0  0  0  0  0  0  # atno 6908 bound_to 6896
  150.6870  134.3684  159.5025 H   0  0  0  0  0  0  0  0  0  0  0  0  # atno 6909 bound_to 6896
  145.0755  140.8389  143.4070 H   0  0  0  0  0  0  0  0  0  0  0  0  # atno 7974 bound_to 7965
  155.4169  140.0516  157.3028 H   0  0  0  0  0  0  0  0  0  0  0  0  # atno 8008 bound_to 7997
  154.4920  140.2124  155.9487 H   0  0  0  0  0  0  0  0  0  0  0  0  # atno 8009 bound_to 7997
  156.1355  140.3164  155.8419 H   0  0  0  0  0  0  0  0  0  0  0  0  # atno 8010 bound_to 7997
  139.5660  144.1754  152.1313 H   0  0  0  0  0  0  0  0  0  0  0  0  # atno 10167 bound_to 10162
  156.0102  130.4534  150.3586 H   0  0  0  0  0  0  0  0  0  0  0  0  # atno 10718 bound_to 10713
  153.6868  135.3305  155.3192 H   0  0  0  0  0  0  0  0  0  0  0  0  # atno 10763 bound_to 10752
  154.8451  135.4422  154.1549 H   0  0  0  0  0  0  0  0  0  0  0  0  # atno 10764 bound_to 10752
  153.2580  135.6988  153.7685 H   0  0  0  0  0  0  0  0  0  0  0  0  # atno 10765 bound_to 10752
  141.0327  133.9956  157.3118 H   0  0  0  0  0  0  0  0  0  0  0  0  # atno 11005 bound_to 11000
  145.1240  139.2674  143.5573 LP  0  0  0  0  0  0  0  0  0  0  0  0  # atno 17320 bound_to 7965
  146.3530  140.0873  142.8614 LP  0  0  0  0  0  0  0  0  0  0  0  0  # atno 17321 bound_to 7965
  140.1277  144.5316  150.6822 LP  0  0  0  0  0  0  0  0  0  0  0  0  # atno 17342 bound_to 10162
  140.6943  143.2394  151.5043 LP  0  0  0  0  0  0  0  0  0  0  0  0  # atno 17343 bound_to 10162
  157.1675  131.0360  151.2811 LP  0  0  0  0  0  0  0  0  0  0  0  0  # atno 17370 bound_to 10713
  157.4258  130.7463  149.6949 LP  0  0  0  0  0  0  0  0  0  0  0  0  # atno 17371 bound_to 10713
  139.9219  135.0200  156.8095 LP  0  0  0  0  0  0  0  0  0  0  0  0  # atno 17394 bound_to 11000
  140.6377  133.9847  155.7692 LP  0  0  0  0  0  0  0  0  0  0  0  0  # atno 17395 bound_to 11000

$$$$
