AV-unprocessed.smi:326|AV-procd|sdf|2344|dock10
  -GOLD-   2262022253D 1   1.00000     0.00000
 Structure written by MMmdl.
 44 45  0  0  0  0  0  0  0  0  1 V2000
  147.3398  136.1018  161.2126 C   0  0  0  0  0  0  0  0  0  0  0  0
  148.4736  136.8230  160.7651 O   0  0  0  0  0  0  0  0  0  0  0  0
  148.3779  137.1973  159.4011 C   0  0  0  0  0  0  0  0  0  0  0  0
  148.7527  136.0055  158.5052 C   0  0  0  0  0  0  0  0  0  0  0  0
  149.3993  136.4424  157.2626 N   0  0  0  0  0  0  0  0  0  0  0  0
  149.9479  137.7125  157.3332 N   0  0  0  0  0  0  0  0  0  0  0  0
  150.5631  138.2137  156.3111 C   0  0  0  0  0  0  0  0  0  0  0  0
  151.1675  139.5741  156.3479 C   0  0  0  0  0  0  0  0  0  0  0  0
  151.4738  140.1778  155.3183 O   0  0  0  0  0  0  0  0  0  0  0  0
  151.3531  140.0882  157.5772 N   0  0  0  0  0  0  0  0  0  0  0  0
  151.9201  141.4008  157.8694 C   0  0  2  0  0  0  0  0  0  0  0  0
  152.0156  141.6302  159.3913 C   0  0  0  0  0  0  0  0  0  0  0  0
  152.5443  143.0371  159.7144 C   0  0  0  0  0  0  0  0  0  0  0  0
  151.6872  144.1337  159.0535 C   0  0  1  0  0  0  0  0  0  0  0  0
  152.2257  145.5357  159.3718 C   0  0  0  0  0  0  0  0  0  0  0  0
  151.5932  143.8982  157.5335 C   0  0  0  0  0  0  0  0  0  0  0  0
  151.0589  142.4936  157.2110 C   0  0  0  0  0  0  0  0  0  0  0  0
  150.6890  137.4598  155.0753 C   0  0  0  0  0  0  0  0  0  0  0  0
  150.1501  136.2222  155.0214 C   0  0  0  0  0  0  0  0  0  0  0  0
  149.4514  135.6303  156.1634 C   0  0  0  0  0  0  0  0  0  0  0  0
  148.9578  134.5034  156.1374 O   0  0  0  0  0  0  0  0  0  0  0  0
  147.4678  135.8331  162.2610 H   0  0  0  0  0  0  0  0  0  0  0  0
  147.2066  135.1814  160.6427 H   0  0  0  0  0  0  0  0  0  0  0  0
  146.4329  136.7019  161.1272 H   0  0  0  0  0  0  0  0  0  0  0  0
  147.3549  137.5072  159.1840 H   0  0  0  0  0  0  0  0  0  0  0  0
  149.0257  138.0501  159.1912 H   0  0  0  0  0  0  0  0  0  0  0  0
  149.3747  135.2988  159.0573 H   0  0  0  0  0  0  0  0  0  0  0  0
  147.8465  135.4516  158.2549 H   0  0  0  0  0  0  0  0  0  0  0  0
  151.0748  139.5262  158.3690 H   0  0  0  0  0  0  0  0  0  0  0  0
  152.9224  141.4551  157.4394 H   0  0  0  0  0  0  0  0  0  0  0  0
  151.0335  141.4984  159.8478 H   0  0  0  0  0  0  0  0  0  0  0  0
  152.6687  140.8844  159.8459 H   0  0  0  0  0  0  0  0  0  0  0  0
  152.5634  143.1789  160.7956 H   0  0  0  0  0  0  0  0  0  0  0  0
  153.5776  143.1216  159.3748 H   0  0  0  0  0  0  0  0  0  0  0  0
  150.6797  144.0673  159.4671 H   0  0  0  0  0  0  0  0  0  0  0  0
  153.2318  145.6742  158.9745 H   0  0  0  0  0  0  0  0  0  0  0  0
  152.2663  145.7062  160.4480 H   0  0  0  0  0  0  0  0  0  0  0  0
  151.5884  146.3084  158.9405 H   0  0  0  0  0  0  0  0  0  0  0  0
  150.9449  144.6480  157.0785 H   0  0  0  0  0  0  0  0  0  0  0  0
  152.5768  144.0244  157.0786 H   0  0  0  0  0  0  0  0  0  0  0  0
  151.0347  142.3505  156.1299 H   0  0  0  0  0  0  0  0  0  0  0  0
  150.0271  142.4121  157.5567 H   0  0  0  0  0  0  0  0  0  0  0  0
  151.1999  137.8711  154.2168 H   0  0  0  0  0  0  0  0  0  0  0  0
  150.2369  135.6504  154.1095 H   0  0  0  0  0  0  0  0  0  0  0  0
  1  2  1  0  0  0  0
  1 22  1  0  0  0  0
  1 23  1  0  0  0  0
  1 24  1  0  0  0  0
  2  3  1  0  0  0  0
  3  4  1  0  0  0  0
  3 25  1  0  0  0  0
  3 26  1  0  0  0  0
  4  5  1  0  0  0  0
  4 27  1  0  0  0  0
  4 28  1  0  0  0  0
  5 20  1  0  0  0  0
  5  6  1  0  0  0  0
  6  7  2  0  0  0  0
  7  8  1  0  0  0  0
  7 18  1  0  0  0  0
  8  9  2  0  0  0  0
  8 10  1  0  0  0  0
 10 11  1  0  0  0  0
 10 29  1  0  0  0  0
 11 17  1  0  0  0  0
 11 12  1  0  0  0  0
 11 30  1  0  0  0  0
 12 13  1  0  0  0  0
 12 31  1  0  0  0  0
 12 32  1  0  0  0  0
 13 14  1  0  0  0  0
 13 33  1  0  0  0  0
 13 34  1  0  0  0  0
 14 15  1  0  0  0  0
 14 16  1  0  0  0  0
 14 35  1  0  0  0  0
 15 36  1  0  0  0  0
 15 37  1  0  0  0  0
 15 38  1  0  0  0  0
 16 17  1  0  0  0  0
 16 39  1  0  0  0  0
 16 40  1  0  0  0  0
 17 41  1  0  0  0  0
 17 42  1  0  0  0  0
 18 19  2  0  0  0  0
 18 43  1  0  0  0  0
 19 20  1  0  0  0  0
 19 44  1  0  0  0  0
 20 21  2  0  0  0  0
M  END
> <s_m_source_file>
AV-unprocessed.smi

> <i_m_source_file_index>
326

> <i_lp_mmshare_version>
43012

> <i_f3d_flags>
0

> <s_epik_input>
W0NIM11PW0NIMl1bQ0gyXW4xbmMoW2NIXVtjSF1jMT1PKUMoPU8pW05IXVtDQEBIXTJbQ0gyXVtDSDJdW0NAQEhdKFtDSDNdKVtDSDJdW0NIMl0y

> <s_epik_cmdline>
J2VwaWtfcHl0aG9uJywgJy1waCcsICc3LjAnLCAnLXRuJywgJzgnLCAnLW1hJywgJzIwMCcsICctbWV0YWxfYmluZGluZycsICctaW1hZScsICc8aW5maWxlLm1hZT4nLCAnLW9tYWUnLCAnPG91dGZpbGUubWFlPic=

> <r_lp_tautomer_probability>
1

> <r_epik_Ionization_Penalty>
6.47102e-07

> <r_epik_Ionization_Penalty_Charging>
6.8576e-09

> <r_epik_Ionization_Penalty_Neutral>
6.40245e-07

> <r_epik_State_Penalty>
-0

> <r_epik_Charging_Adjusted_Penalty>
6.8576e-09

> <i_epik_Tot_Q>
0

> <i_epik_Tot_abs_Q>
0

> <r_epik_Metal_State_Penalty>
-0

> <b_epik_Metal_Only>
0

> <s_lp_Force_Field>
OPLS_2005

> <r_lp_Energy>
29.5472

> <b_lp_Chiralities_Consistent>
1

> <s_lp_Variant>
AV-unprocessed.smi:326-1

> <Gold.Version>
5.8.1

> <Gold.Id.Protein>
6NUR|6NUR_protein|mol2

> <Gold.PLP.Fitness>
41.2114

> <Gold.PLP.PLP>
-36.6756

> <Gold.PLP.part.hbond>
-2.0000

> <Gold.PLP.part.metal>
0.0000

> <Gold.PLP.part.buried>
-6.1114

> <Gold.PLP.part.nonpolar>
-29.3245

> <Gold.PLP.part.repulsive>
0.0926

> <Gold.PLP.ligand.clash>
0.0000

> <Gold.PLP.ligand.torsion>
0.7290

> <Gold.PLP.Chemscore.Hbond>
1.9920

> <Gold.PLP.Chemscore.CHOScore>
0.0000

> <Gold.PLP.Chemscore.Metal>
0.0000

> <Gold.Chemscore.Hbonds>
donor molecule, donor type, donor heavy atom, donor atom, acceptor molecule, acceptor atom, score
      P1  H  6931  6943       L1     2  0.99
      P1  H  7989  7998       L1     9  0.99

> <Gold.PLP.Chemscore.Internal.Correction>
0.0178

> <Gold.Rescore>
     Score         DG    S(hbond)    S(metal)    S(lipo)     H(rot)  DE(clash)    DE(int)     intcor
     19.06     -19.99       1.90        0.00     103.59       1.55       0.09       0.83       ----

> <Gold.Chemscore.Fitness>
19.0606

> <Gold.Chemscore.DG>
-19.9884

> <Gold.Chemscore.ZeroCoef>
-5.4800

> <Gold.Chemscore.Hbond>
1.9012

> <Gold.Chemscore.Metal>
0.0000

> <Gold.Chemscore.Lipo>
103.5945

> <Gold.Chemscore.Internal_Hbond>
0.0000

> <Gold.Chemscore.DEClash>
0.0940

> <Gold.Chemscore.DEInternal>
0.8338

> <Gold.Chemscore.Rot>
1.5478

> <Gold.Chemscore.Internal.Correction>
   9.000000E+99

> <Gold.Chemscore.Hbonds>
donor molecule, donor type, donor heavy atom, donor atom, acceptor molecule, acceptor atom, score
      P1  H  6931  6943       L1     2  0.74
      P1  H  7989  7998       L1     9  0.93

> <Gold.Chemscore.Hbond.Weighted>
-6.3501

> <Gold.Chemscore.Metal.Weighted>
-0.0000

> <Gold.Chemscore.Lipo.Weighted>
-12.1206

> <Gold.Chemscore.Internal_Hbond.Weighted>
0.0000

> <Gold.Chemscore.DEClash.Weighted>
0.0940

> <Gold.Chemscore.DEInternal.Weighted>
0.8338

> <Gold.Chemscore.Rot.Weighted>
3.9623

> <Gold.Chemscore.Internal.Correction.Weighted>
   9.000000E+99

> <Gold.Protein.RotatedTorsions>
[ 6907 6896 6895 6894 ] final  129.32 input  -60.11 | X-H torsion
[ 7974 7965 7964 7962 ] final -162.57 input  175.53 | X-H torsion
[ 8008 7997 7996 7995 ] final  -42.49 input   59.86 | X-H torsion
[ 10167 10162 10161 10158 ] final -132.10 input  -65.29 | X-H torsion
[ 10718 10713 10712 10709 ] final  175.71 input   66.30 | X-H torsion
[ 10763 10752 10751 10750 ] final   -2.06 input  -60.55 | X-H torsion
[ 11005 11000 10999 10996 ] final  174.24 input  -57.11 | X-H torsion

> <Gold.Protein.ActiveResidues>
 VAL166  LYS551  ARG553  GLY616  TRP617  ASP618  TYR619  PRO620  LYS621  CYS622 
 ASP623  PHE694  ASN695  SER759  ASP760  ASP761  ALA762  ILE779  LEU786  VAL792 
 PHE793  MET794  SER795  GLU796  ALA797  LYS798  CYS799  TRP800  GLU811  SER814 

> <Gold.Protein.RotatedAtoms>
  152.3635  133.6327  159.6032 H   0  0  0  0  0  0  0  0  0  0  0  0  # atno 6907 bound_to 6896
  150.7618  133.9385  159.3457 H   0  0  0  0  0  0  0  0  0  0  0  0  # atno 6908 bound_to 6896
  151.7219  135.0893  160.0337 H   0  0  0  0  0  0  0  0  0  0  0  0  # atno 6909 bound_to 6896
  144.7353  140.3234  143.6166 H   0  0  0  0  0  0  0  0  0  0  0  0  # atno 7974 bound_to 7965
  154.3999  140.1472  156.3364 H   0  0  0  0  0  0  0  0  0  0  0  0  # atno 8008 bound_to 7997
  155.8396  140.3462  155.5602 H   0  0  0  0  0  0  0  0  0  0  0  0  # atno 8009 bound_to 7997
  155.8101  140.0882  157.1899 H   0  0  0  0  0  0  0  0  0  0  0  0  # atno 8010 bound_to 7997
  139.9120  143.6483  152.2573 H   0  0  0  0  0  0  0  0  0  0  0  0  # atno 10167 bound_to 10162
  156.9308  130.9970  151.2987 H   0  0  0  0  0  0  0  0  0  0  0  0  # atno 10718 bound_to 10713
  153.3530  135.6986  153.6773 H   0  0  0  0  0  0  0  0  0  0  0  0  # atno 10763 bound_to 10752
  153.5492  135.3557  155.2752 H   0  0  0  0  0  0  0  0  0  0  0  0  # atno 10764 bound_to 10752
  154.8656  135.4222  154.2770 H   0  0  0  0  0  0  0  0  0  0  0  0  # atno 10765 bound_to 10752
  140.3492  134.7209  157.4256 H   0  0  0  0  0  0  0  0  0  0  0  0  # atno 11005 bound_to 11000
  145.7546  139.1804  143.2302 LP  0  0  0  0  0  0  0  0  0  0  0  0  # atno 17320 bound_to 7965
  146.1034  140.7516  142.9538 LP  0  0  0  0  0  0  0  0  0  0  0  0  # atno 17321 bound_to 7965
  139.6934  144.7644  151.1398 LP  0  0  0  0  0  0  0  0  0  0  0  0  # atno 17342 bound_to 10162
  140.7683  143.5557  150.9155 LP  0  0  0  0  0  0  0  0  0  0  0  0  # atno 17343 bound_to 10162
  157.5848  130.8402  149.8574 LP  0  0  0  0  0  0  0  0  0  0  0  0  # atno 17370 bound_to 10713
  156.0448  130.3730  150.1345 LP  0  0  0  0  0  0  0  0  0  0  0  0  # atno 17371 bound_to 10713
  140.0717  134.5854  155.8635 LP  0  0  0  0  0  0  0  0  0  0  0  0  # atno 17394 bound_to 11000
  141.2017  133.6620  156.5964 LP  0  0  0  0  0  0  0  0  0  0  0  0  # atno 17395 bound_to 11000

$$$$
