AV-unprocessed.smi:1999|AV-procd|sdf|8098|dock3
  -GOLD-   2272010313D 1   1.00000     0.00000
 Structure written by MMmdl.
 38 39  0  0  0  0  0  0  0  0  3 V2000
  153.8566  140.0688  160.3022 C   0  0  0  0  0  0  0  0  0  0  0  0
  153.0571  140.2059  159.0518 C   0  0  0  0  0  0  0  0  0  0  0  0
  153.3291  139.5223  157.9374 N   0  0  0  0  0  0  0  0  0  0  0  0
  152.4449  139.8218  156.9116 N   0  0  0  0  0  0  0  0  0  0  0  0
  151.5262  140.7341  157.2596 C   0  0  0  0  0  0  0  0  0  0  0  0
  150.5812  141.1633  156.4070 N   0  5  0  0  0  0  0  0  0  0  0  0
  150.2707  140.4230  155.3207 C   0  0  0  0  0  0  0  0  0  0  0  0
  151.0712  139.8923  154.5478 O   0  0  0  0  0  0  0  0  0  0  0  0
  148.9513  140.2589  155.1401 N   0  0  0  0  0  0  0  0  0  0  0  0
  148.3040  139.4243  154.1262 C   0  0  2  0  0  0  0  0  0  0  0  0
  147.4059  140.3027  153.2450 C   0  0  0  0  0  0  0  0  0  0  0  0
  147.5027  138.2807  154.7896 C   0  0  0  0  0  0  0  0  0  0  0  0
  147.0507  137.2580  153.8128 N   0  3  0  0  0  0  0  0  0  0  0  0
  146.7629  135.9405  154.4239 C   0  0  0  0  0  0  0  0  0  0  0  0
  146.4117  134.9198  153.3278 C   0  0  0  0  0  0  0  0  0  0  0  0
  145.3078  135.3948  152.5653 O   0  0  0  0  0  0  0  0  0  0  0  0
  145.5980  136.6273  151.9156 C   0  0  0  0  0  0  0  0  0  0  0  0
  145.9135  137.6995  152.9711 C   0  0  0  0  0  0  0  0  0  0  0  0
  151.6805  141.2880  158.9260 S   0  0  0  0  0  0  0  0  0  0  0  0
  154.5374  140.9141  160.4021 H   0  0  0  0  0  0  0  0  0  0  0  0
  154.4401  139.1478  160.2851 H   0  0  0  0  0  0  0  0  0  0  0  0
  153.1954  140.0459  161.1686 H   0  0  0  0  0  0  0  0  0  0  0  0
  148.3411  140.7258  155.7955 H   0  0  0  0  0  0  0  0  0  0  0  0
  149.0627  138.9931  153.4717 H   0  0  0  0  0  0  0  0  0  0  0  0
  146.9277  139.7132  152.4624 H   0  0  0  0  0  0  0  0  0  0  0  0
  147.9836  141.0889  152.7576 H   0  0  0  0  0  0  0  0  0  0  0  0
  146.6192  140.7814  153.8293 H   0  0  0  0  0  0  0  0  0  0  0  0
  148.1484  137.8028  155.5281 H   0  0  0  0  0  0  0  0  0  0  0  0
  146.6474  138.6719  155.3425 H   0  0  0  0  0  0  0  0  0  0  0  0
  147.6328  135.5914  154.9818 H   0  0  0  0  0  0  0  0  0  0  0  0
  145.9391  136.0353  155.1331 H   0  0  0  0  0  0  0  0  0  0  0  0
  147.2680  134.7400  152.6753 H   0  0  0  0  0  0  0  0  0  0  0  0
  146.1463  133.9622  153.7761 H   0  0  0  0  0  0  0  0  0  0  0  0
  146.4335  136.5026  151.2244 H   0  0  0  0  0  0  0  0  0  0  0  0
  144.7343  136.9268  151.3218 H   0  0  0  0  0  0  0  0  0  0  0  0
  145.0384  137.8788  153.5975 H   0  0  0  0  0  0  0  0  0  0  0  0
  146.1496  138.6412  152.4762 H   0  0  0  0  0  0  0  0  0  0  0  0
  147.8332  137.1097  153.1898 H   0  0  0  0  0  0  0  0  0  0  0  0
  1  2  1  0  0  0  0
  1 20  1  0  0  0  0
  1 21  1  0  0  0  0
  1 22  1  0  0  0  0
  2 19  1  0  0  0  0
  2  3  2  0  0  0  0
  3  4  1  0  0  0  0
  4  5  2  0  0  0  0
  5  6  1  0  0  0  0
  5 19  1  0  0  0  0
  6  7  1  0  0  0  0
  7  8  2  0  0  0  0
  7  9  1  0  0  0  0
  9 10  1  0  0  0  0
  9 23  1  0  0  0  0
 10 11  1  0  0  0  0
 10 12  1  0  0  0  0
 10 24  1  0  0  0  0
 11 25  1  0  0  0  0
 11 26  1  0  0  0  0
 11 27  1  0  0  0  0
 12 13  1  0  0  0  0
 12 28  1  0  0  0  0
 12 29  1  0  0  0  0
 13 18  1  0  0  0  0
 13 14  1  0  0  0  0
 13 38  1  0  0  0  0
 14 15  1  0  0  0  0
 14 30  1  0  0  0  0
 14 31  1  0  0  0  0
 15 16  1  0  0  0  0
 15 32  1  0  0  0  0
 15 33  1  0  0  0  0
 16 17  1  0  0  0  0
 17 18  1  0  0  0  0
 17 34  1  0  0  0  0
 17 35  1  0  0  0  0
 18 36  1  0  0  0  0
 18 37  1  0  0  0  0
M  CHG  1   6  -1
M  CHG  1  13   1
M  END
> <s_m_source_file>
AV-unprocessed.smi

> <i_m_source_file_index>
1999

> <i_lp_mmshare_version>
43012

> <i_f3d_flags>
0

> <s_epik_input>
W0NIM11jMW5uYyhzMSlbTkhdQyg9TylbTkhdW0NASF0oW0NIM10pW0NIMl1OMltDSDJdW0NIMl1PW0NIMl1bQ0gyXTI=

> <s_epik_cmdline>
J2VwaWtfcHl0aG9uJywgJy1waCcsICc3LjAnLCAnLXRuJywgJzgnLCAnLW1hJywgJzIwMCcsICctbWV0YWxfYmluZGluZycsICctaW1hZScsICc8aW5maWxlLm1hZT4nLCAnLW9tYWUnLCAnPG91dGZpbGUubWFlPic=

> <r_lp_tautomer_probability>
1

> <r_epik_Ionization_Penalty>
3.39984

> <r_epik_Ionization_Penalty_Charging>
3.28696

> <r_epik_Ionization_Penalty_Neutral>
0.11288

> <r_epik_State_Penalty>
3.47917

> <r_epik_Charging_Adjusted_Penalty>
6.76613

> <i_epik_Tot_Q>
0

> <i_epik_Tot_abs_Q>
2

> <r_epik_Metal_State_Penalty>
1.13142

> <b_epik_Metal_Only>
1

> <s_lp_Force_Field>
OPLS_2005

> <r_lp_Energy>
12.288

> <b_lp_Chiralities_Consistent>
1

> <s_lp_Variant>
AV-unprocessed.smi:1999-7

> <Gold.Version>
5.8.1

> <Gold.Id.Protein>
6NUR|6NUR_protein|mol2

> <Gold.PLP.Fitness>
34.6858

> <Gold.PLP.PLP>
-24.0077

> <Gold.PLP.part.hbond>
-4.0000

> <Gold.PLP.part.metal>
0.0000

> <Gold.PLP.part.buried>
-2.2247

> <Gold.PLP.part.nonpolar>
-18.0532

> <Gold.PLP.part.repulsive>
0.3047

> <Gold.PLP.ligand.clash>
0.0000

> <Gold.PLP.ligand.torsion>
0.7113

> <Gold.PLP.Chemscore.Hbond>
3.9760

> <Gold.PLP.Chemscore.CHOScore>
0.0000

> <Gold.PLP.Chemscore.Metal>
0.0000

> <Gold.Chemscore.Hbonds>
donor molecule, donor type, donor heavy atom, donor atom, acceptor molecule, acceptor atom, score
      L1  H    13    38       P1  7948  2.00
      P1  H  7989  7998       L1     8  1.00
      P1  H  7997  8009       L1     3  0.98

> <Gold.PLP.Chemscore.Internal.Correction>
0.1727

> <Gold.Rescore>
     Score         DG    S(hbond)    S(metal)    S(lipo)     H(rot)  DE(clash)    DE(int)     intcor
     12.60     -15.40       2.44        0.00      50.23       1.60       0.00       2.80       ----

> <Gold.Chemscore.Fitness>
12.6016

> <Gold.Chemscore.DG>
-15.4049

> <Gold.Chemscore.ZeroCoef>
-5.4800

> <Gold.Chemscore.Hbond>
2.4411

> <Gold.Chemscore.Metal>
0.0000

> <Gold.Chemscore.Lipo>
50.2297

> <Gold.Chemscore.Internal_Hbond>
0.0000

> <Gold.Chemscore.DEClash>
0.0000

> <Gold.Chemscore.DEInternal>
2.8033

> <Gold.Chemscore.Rot>
1.6036

> <Gold.Chemscore.Internal.Correction>
   9.000000E+99

> <Gold.Chemscore.Hbonds>
donor molecule, donor type, donor heavy atom, donor atom, acceptor molecule, acceptor atom, score
      L1  H    13    38       P1  7948  0.99
      P1  H  7989  7998       L1     8  0.81
      P1  H  7997  8009       L1     3  0.20

> <Gold.Chemscore.Hbond.Weighted>
-8.1534

> <Gold.Chemscore.Metal.Weighted>
-0.0000

> <Gold.Chemscore.Lipo.Weighted>
-5.8769

> <Gold.Chemscore.Internal_Hbond.Weighted>
0.0000

> <Gold.Chemscore.DEClash.Weighted>
0.0000

> <Gold.Chemscore.DEInternal.Weighted>
2.8033

> <Gold.Chemscore.Rot.Weighted>
4.1053

> <Gold.Chemscore.Internal.Correction.Weighted>
   9.000000E+99

> <Gold.Protein.RotatedTorsions>
[ 6907 6896 6895 6894 ] final  -85.47 input  -60.11 | X-H torsion
[ 7974 7965 7964 7962 ] final  111.63 input  175.53 | X-H torsion
[ 8008 7997 7996 7995 ] final  137.22 input   59.86 | X-H torsion
[ 10167 10162 10161 10158 ] final  171.06 input  -65.29 | X-H torsion
[ 10718 10713 10712 10709 ] final  119.87 input   66.30 | X-H torsion
[ 10763 10752 10751 10750 ] final   36.33 input  -60.55 | X-H torsion
[ 11005 11000 10999 10996 ] final   92.97 input  -57.11 | X-H torsion

> <Gold.Protein.ActiveResidues>
 VAL166  LYS551  ARG553  GLY616  TRP617  ASP618  TYR619  PRO620  LYS621  CYS622 
 ASP623  PHE694  ASN695  SER759  ASP760  ASP761  ALA762  ILE779  LEU786  VAL792 
 PHE793  MET794  SER795  GLU796  ALA797  LYS798  CYS799  TRP800  GLU811  SER814 

> <Gold.Protein.RotatedAtoms>
  150.6870  134.3200  159.4782 H   0  0  0  0  0  0  0  0  0  0  0  0  # atno 6907 bound_to 6896
  152.1077  134.9294  160.0577 H   0  0  0  0  0  0  0  0  0  0  0  0  # atno 6908 bound_to 6896
  152.0549  133.4001  159.4430 H   0  0  0  0  0  0  0  0  0  0  0  0  # atno 6909 bound_to 6896
  145.2398  139.2783  143.4124 H   0  0  0  0  0  0  0  0  0  0  0  0  # atno 7974 bound_to 7965
  156.3002  140.2425  156.3874 H   0  0  0  0  0  0  0  0  0  0  0  0  # atno 8008 bound_to 7997
  154.8645  140.0418  157.1706 H   0  0  0  0  0  0  0  0  0  0  0  0  # atno 8009 bound_to 7997
  154.8861  140.2956  155.5401 H   0  0  0  0  0  0  0  0  0  0  0  0  # atno 8010 bound_to 7997
  139.5036  144.3527  151.9906 H   0  0  0  0  0  0  0  0  0  0  0  0  # atno 10167 bound_to 10162
  157.5931  131.1061  150.7956 H   0  0  0  0  0  0  0  0  0  0  0  0  # atno 10718 bound_to 10713
  153.0081  135.6308  154.1969 H   0  0  0  0  0  0  0  0  0  0  0  0  # atno 10763 bound_to 10752
  154.1712  135.2818  155.3082 H   0  0  0  0  0  0  0  0  0  0  0  0  # atno 10764 bound_to 10752
  154.5907  135.5618  153.7336 H   0  0  0  0  0  0  0  0  0  0  0  0  # atno 10765 bound_to 10752
  139.8816  134.8763  156.3650 H   0  0  0  0  0  0  0  0  0  0  0  0  # atno 11005 bound_to 11000
  146.3331  140.2758  142.8608 LP  0  0  0  0  0  0  0  0  0  0  0  0  # atno 17320 bound_to 7965
  144.9599  140.8265  143.5520 LP  0  0  0  0  0  0  0  0  0  0  0  0  # atno 17321 bound_to 7965
  140.2964  144.3696  150.6073 LP  0  0  0  0  0  0  0  0  0  0  0  0  # atno 17342 bound_to 10162
  140.5907  143.2168  151.7258 LP  0  0  0  0  0  0  0  0  0  0  0  0  # atno 17343 bound_to 10162
  156.8373  130.5036  149.5325 LP  0  0  0  0  0  0  0  0  0  0  0  0  # atno 17370 bound_to 10713
  156.0989  130.5954  150.9861 LP  0  0  0  0  0  0  0  0  0  0  0  0  # atno 17371 bound_to 10713
  140.9503  133.7455  156.0263 LP  0  0  0  0  0  0  0  0  0  0  0  0  # atno 17394 bound_to 11000
  140.8113  134.3396  157.5411 LP  0  0  0  0  0  0  0  0  0  0  0  0  # atno 17395 bound_to 11000

$$$$
