AV-unprocessed.smi:1441|AV-procd|sdf|5875|dock7
  -GOLD-   22720 5553D 1   1.00000     0.00000
 Structure written by MMmdl.
 45 46  0  0  0  0  0  0  0  0  1 V2000
  143.3868  145.5773  156.1976 C   0  0  0  0  0  0  0  0  0  0  0  0
  144.2650  145.2240  155.0335 C   0  0  0  0  0  0  0  0  0  0  0  0
  144.4019  145.9087  153.7939 C   0  0  0  0  0  0  0  0  0  0  0  0
  145.3221  145.1730  153.1018 C   0  0  0  0  0  0  0  0  0  0  0  0
  145.8908  145.3795  151.7365 C   0  0  0  0  0  0  0  0  0  0  0  0
  145.6876  144.1170  153.9181 N   0  0  0  0  0  0  0  0  0  0  0  0
  146.6406  143.0458  153.6647 C   0  0  0  0  0  0  0  0  0  0  0  0
  146.9514  142.2308  154.9256 C   0  0  0  0  0  0  0  0  0  0  0  0
  146.1477  141.4019  155.3557 O   0  0  0  0  0  0  0  0  0  0  0  0
  148.1301  142.4831  155.5149 N   0  0  0  0  0  0  0  0  0  0  0  0
  148.6263  141.8119  156.7099 C   0  0  0  0  0  0  0  0  0  0  0  0
  150.1520  141.6117  156.6462 C   0  0  0  0  0  0  0  0  0  0  0  0
  150.8079  142.0862  157.8741 N   0  0  0  0  0  0  0  0  0  0  0  0
  150.5323  143.4822  158.2487 C   0  0  0  0  0  0  0  0  0  0  0  0
  151.7898  144.3713  158.1982 C   0  0  0  0  0  0  0  0  0  0  0  0
  152.6815  144.2635  159.4442 C   0  0  0  0  0  0  0  0  0  0  0  0
  153.2893  142.8717  159.6695 C   0  0  0  0  0  0  0  0  0  0  0  0
  152.2326  141.7782  159.8986 C   0  0  0  0  0  0  0  0  0  0  0  0
  151.6153  141.2673  158.5902 C   0  0  0  0  0  0  0  0  0  0  0  0
  151.8658  140.1125  158.2426 O   0  0  0  0  0  0  0  0  0  0  0  0
  145.0359  144.1513  155.1011 N   0  0  0  0  0  0  0  0  0  0  0  0
  142.8005  146.4729  155.9911 H   0  0  0  0  0  0  0  0  0  0  0  0
  143.9792  145.7681  157.0927 H   0  0  0  0  0  0  0  0  0  0  0  0
  142.6903  144.7695  156.4230 H   0  0  0  0  0  0  0  0  0  0  0  0
  143.9011  146.8066  153.4635 H   0  0  0  0  0  0  0  0  0  0  0  0
  145.5332  146.3137  151.3034 H   0  0  0  0  0  0  0  0  0  0  0  0
  145.6018  144.5675  151.0692 H   0  0  0  0  0  0  0  0  0  0  0  0
  146.9796  145.4214  151.7699 H   0  0  0  0  0  0  0  0  0  0  0  0
  146.2394  142.3949  152.8855 H   0  0  0  0  0  0  0  0  0  0  0  0
  147.5645  143.4731  153.2743 H   0  0  0  0  0  0  0  0  0  0  0  0
  148.7310  143.1798  155.0989 H   0  0  0  0  0  0  0  0  0  0  0  0
  148.3590  142.4197  157.5744 H   0  0  0  0  0  0  0  0  0  0  0  0
  148.1197  140.8536  156.8388 H   0  0  0  0  0  0  0  0  0  0  0  0
  150.3828  140.5611  156.4670 H   0  0  0  0  0  0  0  0  0  0  0  0
  150.5569  142.1335  155.7771 H   0  0  0  0  0  0  0  0  0  0  0  0
  149.7957  143.9172  157.5727 H   0  0  0  0  0  0  0  0  0  0  0  0
  150.0684  143.5218  159.2351 H   0  0  0  0  0  0  0  0  0  0  0  0
  152.3670  144.1600  157.2971 H   0  0  0  0  0  0  0  0  0  0  0  0
  151.4701  145.4099  158.1078 H   0  0  0  0  0  0  0  0  0  0  0  0
  153.4911  144.9889  159.3595 H   0  0  0  0  0  0  0  0  0  0  0  0
  152.1100  144.5575  160.3254 H   0  0  0  0  0  0  0  0  0  0  0  0
  153.9358  142.6069  158.8310 H   0  0  0  0  0  0  0  0  0  0  0  0
  153.9409  142.9166  160.5428 H   0  0  0  0  0  0  0  0  0  0  0  0
  152.7105  140.9324  160.3949 H   0  0  0  0  0  0  0  0  0  0  0  0
  151.4526  142.1182  160.5807 H   0  0  0  0  0  0  0  0  0  0  0  0
  1  2  1  0  0  0  0
  1 22  1  0  0  0  0
  1 23  1  0  0  0  0
  1 24  1  0  0  0  0
  2 21  2  0  0  0  0
  2  3  1  0  0  0  0
  3  4  2  0  0  0  0
  3 25  1  0  0  0  0
  4  5  1  0  0  0  0
  4  6  1  0  0  0  0
  5 26  1  0  0  0  0
  5 27  1  0  0  0  0
  5 28  1  0  0  0  0
  6  7  1  0  0  0  0
  6 21  1  0  0  0  0
  7  8  1  0  0  0  0
  7 29  1  0  0  0  0
  7 30  1  0  0  0  0
  8  9  2  0  0  0  0
  8 10  1  0  0  0  0
 10 11  1  0  0  0  0
 10 31  1  0  0  0  0
 11 12  1  0  0  0  0
 11 32  1  0  0  0  0
 11 33  1  0  0  0  0
 12 13  1  0  0  0  0
 12 34  1  0  0  0  0
 12 35  1  0  0  0  0
 13 19  1  0  0  0  0
 13 14  1  0  0  0  0
 14 15  1  0  0  0  0
 14 36  1  0  0  0  0
 14 37  1  0  0  0  0
 15 16  1  0  0  0  0
 15 38  1  0  0  0  0
 15 39  1  0  0  0  0
 16 17  1  0  0  0  0
 16 40  1  0  0  0  0
 16 41  1  0  0  0  0
 17 18  1  0  0  0  0
 17 42  1  0  0  0  0
 17 43  1  0  0  0  0
 18 19  1  0  0  0  0
 18 44  1  0  0  0  0
 18 45  1  0  0  0  0
 19 20  2  0  0  0  0
M  END
> <s_m_source_file>
AV-unprocessed.smi

> <i_m_source_file_index>
1441

> <i_lp_mmshare_version>
43012

> <i_f3d_flags>
0

> <s_epik_input>
W0NIM11jMVtjSF1jKFtDSDNdKW4objEpW0NIMl1DKD1PKVtOSF1bQ0gyXVtDSDJdTjJbQ0gyXVtDSDJdW0NIMl1bQ0gyXVtDSDJdQzI9Tw==

> <s_epik_cmdline>
J2VwaWtfcHl0aG9uJywgJy1waCcsICc3LjAnLCAnLXRuJywgJzgnLCAnLW1hJywgJzIwMCcsICctbWV0YWxfYmluZGluZycsICctaW1hZScsICc8aW5maWxlLm1hZT4nLCAnLW9tYWUnLCAnPG91dGZpbGUubWFlPic=

> <r_lp_tautomer_probability>
1

> <r_epik_Ionization_Penalty>
0.000341945

> <r_epik_Ionization_Penalty_Charging>
0

> <r_epik_Ionization_Penalty_Neutral>
0.000341945

> <r_epik_State_Penalty>
-0

> <r_epik_Charging_Adjusted_Penalty>
0

> <i_epik_Tot_Q>
0

> <i_epik_Tot_abs_Q>
0

> <r_epik_Metal_State_Penalty>
-0

> <b_epik_Metal_Only>
0

> <s_lp_Force_Field>
OPLS_2005

> <r_lp_Energy>
16.3244

> <b_lp_Chiralities_Consistent>
1

> <s_lp_Variant>
AV-unprocessed.smi:1441-1

> <Gold.Version>
5.8.1

> <Gold.Id.Protein>
6NUR|6NUR_protein|mol2

> <Gold.PLP.Fitness>
47.7399

> <Gold.PLP.PLP>
-47.2454

> <Gold.PLP.part.hbond>
-1.0000

> <Gold.PLP.part.metal>
0.0000

> <Gold.PLP.part.buried>
-6.4449

> <Gold.PLP.part.nonpolar>
-40.1816

> <Gold.PLP.part.repulsive>
0.3126

> <Gold.PLP.ligand.clash>
0.0000

> <Gold.PLP.ligand.torsion>
0.8695

> <Gold.PLP.Chemscore.Hbond>
0.7360

> <Gold.PLP.Chemscore.CHOScore>
0.0000

> <Gold.PLP.Chemscore.Metal>
0.0000

> <Gold.Chemscore.Hbonds>
donor molecule, donor type, donor heavy atom, donor atom, acceptor molecule, acceptor atom, score
      L1  H    10    31       P1  8028  0.50

> <Gold.PLP.Chemscore.Internal.Correction>
0.0255

> <Gold.Rescore>
     Score         DG    S(hbond)    S(metal)    S(lipo)     H(rot)  DE(clash)    DE(int)     intcor
     15.56     -16.48       0.92        0.00     106.42       1.77       0.00       0.92       ----

> <Gold.Chemscore.Fitness>
15.5550

> <Gold.Chemscore.DG>
-16.4787

> <Gold.Chemscore.ZeroCoef>
-5.4800

> <Gold.Chemscore.Hbond>
0.9230

> <Gold.Chemscore.Metal>
0.0000

> <Gold.Chemscore.Lipo>
106.4185

> <Gold.Chemscore.Internal_Hbond>
0.0000

> <Gold.Chemscore.DEClash>
0.0009

> <Gold.Chemscore.DEInternal>
0.9228

> <Gold.Chemscore.Rot>
1.7715

> <Gold.Chemscore.Internal.Correction>
   9.000000E+99

> <Gold.Chemscore.Hbonds>
donor molecule, donor type, donor heavy atom, donor atom, acceptor molecule, acceptor atom, score
      L1  H    10    31       P1  8028  0.48

> <Gold.Chemscore.Hbond.Weighted>
-3.0828

> <Gold.Chemscore.Metal.Weighted>
-0.0000

> <Gold.Chemscore.Lipo.Weighted>
-12.4510

> <Gold.Chemscore.Internal_Hbond.Weighted>
0.0000

> <Gold.Chemscore.DEClash.Weighted>
0.0009

> <Gold.Chemscore.DEInternal.Weighted>
0.9228

> <Gold.Chemscore.Rot.Weighted>
4.5351

> <Gold.Chemscore.Internal.Correction.Weighted>
   9.000000E+99

> <Gold.Protein.RotatedTorsions>
[ 6907 6896 6895 6894 ] final   56.78 input  -60.11 | X-H torsion
[ 7974 7965 7964 7962 ] final  -55.79 input  175.53 | X-H torsion
[ 8008 7997 7996 7995 ] final -106.43 input   59.86 | X-H torsion
[ 10167 10162 10161 10158 ] final  -74.47 input  -65.29 | X-H torsion
[ 10718 10713 10712 10709 ] final -120.43 input   66.30 | X-H torsion
[ 10763 10752 10751 10750 ] final -161.24 input  -60.55 | X-H torsion
[ 11005 11000 10999 10996 ] final   18.31 input  -57.11 | X-H torsion

> <Gold.Protein.ActiveResidues>
 VAL166  LYS551  ARG553  GLY616  TRP617  ASP618  TYR619  PRO620  LYS621  CYS622 
 ASP623  PHE694  ASN695  SER759  ASP760  ASP761  ALA762  ILE779  LEU786  VAL792 
 PHE793  MET794  SER795  GLU796  ALA797  LYS798  CYS799  TRP800  GLU811  SER814 

> <Gold.Protein.RotatedAtoms>
  152.3668  134.6792  160.0188 H   0  0  0  0  0  0  0  0  0  0  0  0  # atno 6907 bound_to 6896
  151.7097  133.3306  159.3295 H   0  0  0  0  0  0  0  0  0  0  0  0  # atno 6908 bound_to 6896
  150.7644  134.6478  159.6316 H   0  0  0  0  0  0  0  0  0  0  0  0  # atno 6909 bound_to 6896
  145.8701  140.8222  142.9893 H   0  0  0  0  0  0  0  0  0  0  0  0  # atno 7974 bound_to 7965
  154.9145  140.0409  157.1964 H   0  0  0  0  0  0  0  0  0  0  0  0  # atno 8008 bound_to 7997
  154.8315  140.2900  155.5698 H   0  0  0  0  0  0  0  0  0  0  0  0  # atno 8009 bound_to 7997
  156.2987  140.2500  156.3241 H   0  0  0  0  0  0  0  0  0  0  0  0  # atno 8010 bound_to 7997
  140.5024  143.2359  151.7730 H   0  0  0  0  0  0  0  0  0  0  0  0  # atno 10167 bound_to 10162
  156.1258  130.6358  150.9540 H   0  0  0  0  0  0  0  0  0  0  0  0  # atno 10718 bound_to 10713
  154.7320  135.3049  154.8874 H   0  0  0  0  0  0  0  0  0  0  0  0  # atno 10763 bound_to 10752
  153.9714  135.6741  153.4751 H   0  0  0  0  0  0  0  0  0  0  0  0  # atno 10764 bound_to 10752
  153.0927  135.4951  154.8642 H   0  0  0  0  0  0  0  0  0  0  0  0  # atno 10765 bound_to 10752
  140.4262  134.1467  155.7676 H   0  0  0  0  0  0  0  0  0  0  0  0  # atno 11005 bound_to 11000
  144.6726  140.1226  143.7449 LP  0  0  0  0  0  0  0  0  0  0  0  0  # atno 17320 bound_to 7965
  145.9147  139.2508  143.1417 LP  0  0  0  0  0  0  0  0  0  0  0  0  # atno 17321 bound_to 7965
  139.4875  144.4503  151.9661 LP  0  0  0  0  0  0  0  0  0  0  0  0  # atno 17342 bound_to 10162
  140.3593  144.2993  150.5936 LP  0  0  0  0  0  0  0  0  0  0  0  0  # atno 17343 bound_to 10162
  157.6439  131.0906  150.8193 LP  0  0  0  0  0  0  0  0  0  0  0  0  # atno 17370 bound_to 10713
  156.8284  130.5007  149.5334 LP  0  0  0  0  0  0  0  0  0  0  0  0  # atno 17371 bound_to 10713
  141.1764  133.8505  157.1406 LP  0  0  0  0  0  0  0  0  0  0  0  0  # atno 17394 bound_to 11000
  140.0166  134.9965  157.0505 LP  0  0  0  0  0  0  0  0  0  0  0  0  # atno 17395 bound_to 11000

$$$$
