AV-unprocessed.smi:2577|AV-procd|sdf|10120|dock4
  -GOLD-   2272014143D 1   1.00000     0.00000
 Structure written by MMmdl.
 27 28  0  0  0  0  0  0  0  0  1 V2000
  150.9303  137.6229  154.3419 C   0  0  0  0  0  0  0  0  0  0  0  0
  150.7874  139.1205  154.6461 C   0  0  0  0  0  0  0  0  0  0  0  0
  151.8991  139.6694  155.5579 C   0  0  2  0  0  0  0  0  0  0  0  0
  153.1405  139.5778  154.8847 O   0  0  0  0  0  0  0  0  0  0  0  0
  151.9801  138.9017  156.8918 C   0  0  0  0  0  0  0  0  0  0  0  0
  152.6286  139.6705  157.9399 N   0  0  0  0  0  0  0  0  0  0  0  0
  153.7811  139.2018  158.4965 N   0  0  0  0  0  0  0  0  0  0  0  0
  154.1760  140.0424  159.4057 N   0  0  0  0  0  0  0  0  0  0  0  0
  153.2652  141.0849  159.4504 C   0  0  0  0  0  0  0  0  0  0  0  0
  153.2063  142.2511  160.2454 C   0  0  0  0  0  0  0  0  0  0  0  0
  152.1450  143.1695  160.0880 C   0  0  0  0  0  0  0  0  0  0  0  0
  152.1081  144.5846  161.0787 Cl  0  0  0  0  0  0  0  0  0  0  0  0
  151.1286  142.9299  159.1317 C   0  0  0  0  0  0  0  0  0  0  0  0
  149.8231  144.0429  158.9266 Cl  0  0  0  0  0  0  0  0  0  0  0  0
  151.1748  141.7705  158.3322 C   0  0  0  0  0  0  0  0  0  0  0  0
  152.2402  140.8706  158.5035 C   0  0  0  0  0  0  0  0  0  0  0  0
  150.1449  137.2898  153.6636 H   0  0  0  0  0  0  0  0  0  0  0  0
  150.8584  137.0234  155.2498 H   0  0  0  0  0  0  0  0  0  0  0  0
  151.8900  137.4062  153.8717 H   0  0  0  0  0  0  0  0  0  0  0  0
  150.8011  139.6634  153.7003 H   0  0  0  0  0  0  0  0  0  0  0  0
  149.8100  139.3125  155.0910 H   0  0  0  0  0  0  0  0  0  0  0  0
  151.7031  140.7225  155.7647 H   0  0  0  0  0  0  0  0  0  0  0  0
  153.0902  138.8743  154.2555 H   0  0  0  0  0  0  0  0  0  0  0  0
  150.9797  138.6309  157.2330 H   0  0  0  0  0  0  0  0  0  0  0  0
  152.5248  137.9658  156.7603 H   0  0  0  0  0  0  0  0  0  0  0  0
  153.9779  142.4388  160.9776 H   0  0  0  0  0  0  0  0  0  0  0  0
  150.4045  141.5749  157.6006 H   0  0  0  0  0  0  0  0  0  0  0  0
  1  2  1  0  0  0  0
  1 17  1  0  0  0  0
  1 18  1  0  0  0  0
  1 19  1  0  0  0  0
  2  3  1  0  0  0  0
  2 20  1  0  0  0  0
  2 21  1  0  0  0  0
  3  4  1  0  0  0  0
  3  5  1  0  0  0  0
  3 22  1  0  0  0  0
  4 23  1  0  0  0  0
  5  6  1  0  0  0  0
  5 24  1  0  0  0  0
  5 25  1  0  0  0  0
  6 16  1  0  0  0  0
  6  7  1  0  0  0  0
  7  8  2  0  0  0  0
  8  9  1  0  0  0  0
  9 16  2  0  0  0  0
  9 10  1  0  0  0  0
 10 11  2  0  0  0  0
 10 26  1  0  0  0  0
 11 12  1  0  0  0  0
 11 13  1  0  0  0  0
 13 14  1  0  0  0  0
 13 15  2  0  0  0  0
 15 16  1  0  0  0  0
 15 27  1  0  0  0  0
M  END
> <s_m_source_file>
AV-unprocessed.smi

> <i_m_source_file_index>
2577

> <i_lp_mmshare_version>
43012

> <i_f3d_flags>
0

> <s_epik_input>
W0NIM11bQ0gyXVtDQEhdKFtPSF0pW0NIMl1uKG5uMSljKGMxMilbY0hdYyhDbCljKENsKVtjSF0y

> <s_epik_cmdline>
J2VwaWtfcHl0aG9uJywgJy1waCcsICc3LjAnLCAnLXRuJywgJzgnLCAnLW1hJywgJzIwMCcsICctbWV0YWxfYmluZGluZycsICctaW1hZScsICc8aW5maWxlLm1hZT4nLCAnLW9tYWUnLCAnPG91dGZpbGUubWFlPic=

> <r_lp_tautomer_probability>
1

> <r_epik_Ionization_Penalty>
1.50913e-07

> <r_epik_Ionization_Penalty_Charging>
0

> <r_epik_Ionization_Penalty_Neutral>
1.50913e-07

> <r_epik_State_Penalty>
-0

> <r_epik_Charging_Adjusted_Penalty>
0

> <i_epik_Tot_Q>
0

> <i_epik_Tot_abs_Q>
0

> <r_epik_Metal_State_Penalty>
-0

> <b_epik_Metal_Only>
0

> <s_lp_Force_Field>
OPLS_2005

> <r_lp_Energy>
7.05244

> <b_lp_Chiralities_Consistent>
1

> <s_lp_Variant>
AV-unprocessed.smi:2577-1

> <Gold.Version>
5.8.1

> <Gold.Id.Protein>
6NUR|6NUR_protein|mol2

> <Gold.PLP.Fitness>
38.8875

> <Gold.PLP.PLP>
-35.1135

> <Gold.PLP.part.hbond>
-3.6857

> <Gold.PLP.part.metal>
0.0000

> <Gold.PLP.part.buried>
-2.7740

> <Gold.PLP.part.nonpolar>
-28.7058

> <Gold.PLP.part.repulsive>
0.0000

> <Gold.PLP.ligand.clash>
0.0000

> <Gold.PLP.ligand.torsion>
0.2217

> <Gold.PLP.Chemscore.Hbond>
1.4050

> <Gold.PLP.Chemscore.CHOScore>
0.0000

> <Gold.PLP.Chemscore.Metal>
0.0000

> <Gold.Chemscore.Hbonds>
donor molecule, donor type, donor heavy atom, donor atom, acceptor molecule, acceptor atom, score
      P1  H  7997  8009       L1     7  0.41
      P1  H  7997  8010       L1     4  1.00

> <Gold.PLP.Chemscore.Internal.Correction>
0.0023

> <Gold.Rescore>
     Score         DG    S(hbond)    S(metal)    S(lipo)     H(rot)  DE(clash)    DE(int)     intcor
     15.80     -16.08       0.98        0.00     101.81       1.79       0.13       0.15       ----

> <Gold.Chemscore.Fitness>
15.7998

> <Gold.Chemscore.DG>
-16.0797

> <Gold.Chemscore.ZeroCoef>
-5.4800

> <Gold.Chemscore.Hbond>
0.9808

> <Gold.Chemscore.Metal>
0.0000

> <Gold.Chemscore.Lipo>
101.8131

> <Gold.Chemscore.Internal_Hbond>
0.0000

> <Gold.Chemscore.DEClash>
0.1327

> <Gold.Chemscore.DEInternal>
0.1472

> <Gold.Chemscore.Rot>
1.7924

> <Gold.Chemscore.Internal.Correction>
   9.000000E+99

> <Gold.Chemscore.Hbonds>
donor molecule, donor type, donor heavy atom, donor atom, acceptor molecule, acceptor atom, score
      P1  H  7997  8010       L1     4  0.96

> <Gold.Chemscore.Hbond.Weighted>
-3.2760

> <Gold.Chemscore.Metal.Weighted>
-0.0000

> <Gold.Chemscore.Lipo.Weighted>
-11.9121

> <Gold.Chemscore.Internal_Hbond.Weighted>
0.0000

> <Gold.Chemscore.DEClash.Weighted>
0.1327

> <Gold.Chemscore.DEInternal.Weighted>
0.1472

> <Gold.Chemscore.Rot.Weighted>
4.5884

> <Gold.Chemscore.Internal.Correction.Weighted>
   9.000000E+99

> <Gold.Protein.RotatedTorsions>
[ 6907 6896 6895 6894 ] final  -76.77 input  -60.11 | X-H torsion
[ 7974 7965 7964 7962 ] final  165.10 input  175.53 | X-H torsion
[ 8008 7997 7996 7995 ] final  125.93 input   59.86 | X-H torsion
[ 10167 10162 10161 10158 ] final  160.13 input  -65.29 | X-H torsion
[ 10718 10713 10712 10709 ] final -102.05 input   66.30 | X-H torsion
[ 10763 10752 10751 10750 ] final  165.95 input  -60.55 | X-H torsion
[ 11005 11000 10999 10996 ] final  -61.89 input  -57.11 | X-H torsion

> <Gold.Protein.ActiveResidues>
 VAL166  LYS551  ARG553  GLY616  TRP617  ASP618  TYR619  PRO620  LYS621  CYS622 
 ASP623  PHE694  ASN695  SER759  ASP760  ASP761  ALA762  ILE779  LEU786  VAL792 
 PHE793  MET794  SER795  GLU796  ALA797  LYS798  CYS799  TRP800  GLU811  SER814 

> <Gold.Protein.RotatedAtoms>
  150.7018  134.4523  159.5341 H   0  0  0  0  0  0  0  0  0  0  0  0  # atno 6907 bound_to 6896
  152.2213  134.8407  160.0494 H   0  0  0  0  0  0  0  0  0  0  0  0  # atno 6908 bound_to 6896
  151.9257  133.3562  159.3949 H   0  0  0  0  0  0  0  0  0  0  0  0  # atno 6909 bound_to 6896
  144.7517  139.8421  143.6364 H   0  0  0  0  0  0  0  0  0  0  0  0  # atno 7974 bound_to 7965
  156.2849  140.2704  156.2030 H   0  0  0  0  0  0  0  0  0  0  0  0  # atno 8008 bound_to 7997
  155.0342  140.0386  157.2503 H   0  0  0  0  0  0  0  0  0  0  0  0  # atno 8009 bound_to 7997
  154.7329  140.2710  155.6446 H   0  0  0  0  0  0  0  0  0  0  0  0  # atno 8010 bound_to 7997
  139.4837  144.4664  151.8636 H   0  0  0  0  0  0  0  0  0  0  0  0  # atno 10167 bound_to 10162
  156.0215  130.5402  150.7053 H   0  0  0  0  0  0  0  0  0  0  0  0  # atno 10718 bound_to 10713
  154.3317  135.2754  155.2468 H   0  0  0  0  0  0  0  0  0  0  0  0  # atno 10763 bound_to 10752
  154.4777  135.5866  153.6370 H   0  0  0  0  0  0  0  0  0  0  0  0  # atno 10764 bound_to 10752
  152.9866  135.6103  154.3511 H   0  0  0  0  0  0  0  0  0  0  0  0  # atno 10765 bound_to 10752
  141.1340  133.6634  156.5443 H   0  0  0  0  0  0  0  0  0  0  0  0  # atno 11005 bound_to 11000
  146.1475  139.4549  143.0070 LP  0  0  0  0  0  0  0  0  0  0  0  0  # atno 17320 bound_to 7965
  145.6922  141.0161  143.1549 LP  0  0  0  0  0  0  0  0  0  0  0  0  # atno 17321 bound_to 7965
  140.4129  144.2345  150.5888 LP  0  0  0  0  0  0  0  0  0  0  0  0  # atno 17342 bound_to 10162
  140.4948  143.2336  151.8765 LP  0  0  0  0  0  0  0  0  0  0  0  0  # atno 17343 bound_to 10162
  157.4703  131.0892  151.0649 LP  0  0  0  0  0  0  0  0  0  0  0  0  # atno 17370 bound_to 10713
  157.1111  130.6022  149.5482 LP  0  0  0  0  0  0  0  0  0  0  0  0  # atno 17371 bound_to 10713
  140.4114  134.7269  157.4838 LP  0  0  0  0  0  0  0  0  0  0  0  0  # atno 17394 bound_to 11000
  140.0424  134.6247  155.8963 LP  0  0  0  0  0  0  0  0  0  0  0  0  # atno 17395 bound_to 11000

$$$$
