AV-unprocessed.smi:1554|AV-procd|sdf|6247|dock8
  -GOLD-   22720 6433D 1   1.00000     0.00000
 Structure written by MMmdl.
 48 50  0  0  0  0  0  0  0  0  2 V2000
  153.0685  143.2592  161.0675 C   0  0  0  0  0  0  0  0  0  0  0  0
  152.6597  142.4982  159.8185 C   0  0  0  0  0  0  0  0  0  0  0  0
  152.8275  141.0956  159.7825 C   0  0  0  0  0  0  0  0  0  0  0  0
  152.4563  140.3506  158.6418 C   0  0  0  0  0  0  0  0  0  0  0  0
  152.5291  138.9905  158.3938 N   0  0  0  0  0  0  0  0  0  0  0  0
  152.0324  138.9153  157.1629 C   0  0  0  0  0  0  0  0  0  0  0  0
  151.6437  140.0671  156.5831 N   0  0  0  0  0  0  0  0  0  0  0  0
  151.0720  140.2257  155.2578 C   0  0  0  0  0  0  0  0  0  0  0  0
  149.9956  139.1666  154.9511 C   0  0  1  0  0  0  0  0  0  0  0  0
  149.2453  139.5714  153.8215 O   0  0  0  0  0  0  0  0  0  0  0  0
  150.6143  137.7839  154.6670 C   0  0  0  0  0  0  0  0  0  0  0  0
  149.5934  136.7014  154.6472 N   0  3  2  0  0  0  0  0  0  0  0  0
  148.4506  136.9076  155.5739 C   0  0  0  0  0  0  0  0  0  0  0  0
  148.8272  136.5520  157.0256 C   0  0  0  0  0  0  0  0  0  0  0  0
  149.3408  135.2269  157.0822 O   0  0  0  0  0  0  0  0  0  0  0  0
  150.5134  135.0613  156.2923 C   0  0  1  0  0  0  0  0  0  0  0  0
  151.0311  133.6337  156.5000 C   0  0  0  0  0  0  0  0  0  0  0  0
  150.1618  135.3418  154.8170 C   0  0  0  0  0  0  0  0  0  0  0  0
  151.9083  141.0527  157.5285 C   0  0  0  0  0  0  0  0  0  0  0  0
  151.7372  142.4483  157.5521 C   0  0  0  0  0  0  0  0  0  0  0  0
  152.1133  143.1771  158.6998 C   0  0  0  0  0  0  0  0  0  0  0  0
  151.9248  144.6837  158.7152 C   0  0  0  0  0  0  0  0  0  0  0  0
  153.5069  142.5952  161.8132 H   0  0  0  0  0  0  0  0  0  0  0  0
  152.2022  143.7436  161.5184 H   0  0  0  0  0  0  0  0  0  0  0  0
  153.8070  144.0242  160.8266 H   0  0  0  0  0  0  0  0  0  0  0  0
  153.2430  140.5783  160.6348 H   0  0  0  0  0  0  0  0  0  0  0  0
  151.9425  137.9673  156.6526 H   0  0  0  0  0  0  0  0  0  0  0  0
  150.6593  141.2316  155.1716 H   0  0  0  0  0  0  0  0  0  0  0  0
  151.8818  140.1596  154.5300 H   0  0  0  0  0  0  0  0  0  0  0  0
  149.3170  139.1080  155.8018 H   0  0  0  0  0  0  0  0  0  0  0  0
  149.8191  139.6047  153.0710 H   0  0  0  0  0  0  0  0  0  0  0  0
  151.1269  137.8275  153.7047 H   0  0  0  0  0  0  0  0  0  0  0  0
  151.3837  137.5548  155.4042 H   0  0  0  0  0  0  0  0  0  0  0  0
  148.0720  137.9274  155.5162 H   0  0  0  0  0  0  0  0  0  0  0  0
  147.6335  136.2617  155.2503 H   0  0  0  0  0  0  0  0  0  0  0  0
  149.5547  137.2541  157.4343 H   0  0  0  0  0  0  0  0  0  0  0  0
  147.9448  136.6110  157.6629 H   0  0  0  0  0  0  0  0  0  0  0  0
  151.2809  135.7577  156.6345 H   0  0  0  0  0  0  0  0  0  0  0  0
  151.9370  133.4567  155.9195 H   0  0  0  0  0  0  0  0  0  0  0  0
  150.2888  132.8953  156.1957 H   0  0  0  0  0  0  0  0  0  0  0  0
  151.2691  133.4539  157.5487 H   0  0  0  0  0  0  0  0  0  0  0  0
  149.4195  134.6188  154.4756 H   0  0  0  0  0  0  0  0  0  0  0  0
  151.0334  135.2088  154.1750 H   0  0  0  0  0  0  0  0  0  0  0  0
  151.3185  142.9541  156.6950 H   0  0  0  0  0  0  0  0  0  0  0  0
  151.4802  145.0384  157.7849 H   0  0  0  0  0  0  0  0  0  0  0  0
  152.8839  145.1867  158.8405 H   0  0  0  0  0  0  0  0  0  0  0  0
  151.2681  144.9788  159.5338 H   0  0  0  0  0  0  0  0  0  0  0  0
  149.2134  136.7249  153.7110 H   0  0  0  0  0  0  0  0  0  0  0  0
  1  2  1  0  0  0  0
  1 23  1  0  0  0  0
  1 24  1  0  0  0  0
  1 25  1  0  0  0  0
  2 21  1  0  0  0  0
  2  3  2  0  0  0  0
  3  4  1  0  0  0  0
  3 26  1  0  0  0  0
  4 19  2  0  0  0  0
  4  5  1  0  0  0  0
  5  6  2  0  0  0  0
  6  7  1  0  0  0  0
  6 27  1  0  0  0  0
  7  8  1  0  0  0  0
  7 19  1  0  0  0  0
  8  9  1  0  0  0  0
  8 28  1  0  0  0  0
  8 29  1  0  0  0  0
  9 10  1  0  0  0  0
  9 11  1  0  0  0  0
  9 30  1  0  0  0  0
 10 31  1  0  0  0  0
 11 12  1  0  0  0  0
 11 32  1  0  0  0  0
 11 33  1  0  0  0  0
 12 18  1  0  0  0  0
 12 13  1  0  0  0  0
 12 48  1  0  0  0  0
 13 14  1  0  0  0  0
 13 34  1  0  0  0  0
 13 35  1  0  0  0  0
 14 15  1  0  0  0  0
 14 36  1  0  0  0  0
 14 37  1  0  0  0  0
 15 16  1  0  0  0  0
 16 17  1  0  0  0  0
 16 18  1  0  0  0  0
 16 38  1  0  0  0  0
 17 39  1  0  0  0  0
 17 40  1  0  0  0  0
 17 41  1  0  0  0  0
 18 42  1  0  0  0  0
 18 43  1  0  0  0  0
 19 20  1  0  0  0  0
 20 21  2  0  0  0  0
 20 44  1  0  0  0  0
 21 22  1  0  0  0  0
 22 45  1  0  0  0  0
 22 46  1  0  0  0  0
 22 47  1  0  0  0  0
M  CHG  1  12   1
M  END
> <s_m_source_file>
AV-unprocessed.smi

> <i_m_source_file_index>
1554

> <i_lp_mmshare_version>
43012

> <i_f3d_flags>
0

> <s_epik_input>
W0NIM11jKFtjSF0xKWMoW0NIM10pW2NIXWMoYzEyKW4oW2NIXW4yKVtDSDJdW0NASF0oW09IXSlbQ0gyXU4zW0NIMl1bQ0gyXU9bQ0BASF0oW0NIM10pW0NIMl0z

> <s_epik_cmdline>
J2VwaWtfcHl0aG9uJywgJy1waCcsICc3LjAnLCAnLXRuJywgJzgnLCAnLW1hJywgJzIwMCcsICctbWV0YWxfYmluZGluZycsICctaW1hZScsICc8aW5maWxlLm1hZT4nLCAnLW9tYWUnLCAnPG91dGZpbGUubWFlPic=

> <r_epik_Ionization_Penalty>
0.695251

> <r_epik_Ionization_Penalty_Charging>
0.608065

> <r_epik_Ionization_Penalty_Neutral>
0.0871863

> <r_epik_State_Penalty>
0.731955

> <r_epik_Charging_Adjusted_Penalty>
1.34002

> <i_epik_Tot_Q>
1

> <i_epik_Tot_abs_Q>
1

> <r_epik_Metal_State_Penalty>
0.652186

> <b_epik_Metal_Only>
0

> <s_lp_Force_Field>
OPLS_2005

> <r_lp_Energy>
22.6642

> <b_lp_Chiralities_Consistent>
1

> <s_lp_Variant>
AV-unprocessed.smi:1554-8

> <Gold.Version>
5.8.1

> <Gold.Id.Protein>
6NUR|6NUR_protein|mol2

> <Gold.PLP.Fitness>
47.7362

> <Gold.PLP.PLP>
-40.7184

> <Gold.PLP.part.hbond>
-2.0000

> <Gold.PLP.part.metal>
0.0000

> <Gold.PLP.part.buried>
-4.0645

> <Gold.PLP.part.nonpolar>
-33.9948

> <Gold.PLP.part.repulsive>
0.0305

> <Gold.PLP.ligand.clash>
0.0000

> <Gold.PLP.ligand.torsion>
0.6128

> <Gold.PLP.Chemscore.Hbond>
2.7360

> <Gold.PLP.Chemscore.CHOScore>
0.0000

> <Gold.PLP.Chemscore.Metal>
0.0000

> <Gold.Chemscore.Hbonds>
donor molecule, donor type, donor heavy atom, donor atom, acceptor molecule, acceptor atom, score
      L1  H    10    31       P1  7957  0.72
      L1  H    12    48       P1  7948  2.00

> <Gold.PLP.Chemscore.Internal.Correction>
0.0354

> <Gold.Rescore>
     Score         DG    S(hbond)    S(metal)    S(lipo)     H(rot)  DE(clash)    DE(int)     intcor
     19.15     -20.40       1.97        0.00     116.39       2.05       0.37       0.88       ----

> <Gold.Chemscore.Fitness>
19.1492

> <Gold.Chemscore.DG>
-20.4033

> <Gold.Chemscore.ZeroCoef>
-5.4800

> <Gold.Chemscore.Hbond>
1.9657

> <Gold.Chemscore.Metal>
0.0000

> <Gold.Chemscore.Lipo>
116.3877

> <Gold.Chemscore.Internal_Hbond>
0.0000

> <Gold.Chemscore.DEClash>
0.3698

> <Gold.Chemscore.DEInternal>
0.8844

> <Gold.Chemscore.Rot>
2.0546

> <Gold.Chemscore.Internal.Correction>
   9.000000E+99

> <Gold.Chemscore.Hbonds>
donor molecule, donor type, donor heavy atom, donor atom, acceptor molecule, acceptor atom, score
      L1  H    10    31       P1  7957  0.71
      L1  H    12    48       P1  7948  0.97

> <Gold.Chemscore.Hbond.Weighted>
-6.5656

> <Gold.Chemscore.Metal.Weighted>
-0.0000

> <Gold.Chemscore.Lipo.Weighted>
-13.6174

> <Gold.Chemscore.Internal_Hbond.Weighted>
0.0000

> <Gold.Chemscore.DEClash.Weighted>
0.3698

> <Gold.Chemscore.DEInternal.Weighted>
0.8844

> <Gold.Chemscore.Rot.Weighted>
5.2597

> <Gold.Chemscore.Internal.Correction.Weighted>
   9.000000E+99

> <Gold.Protein.RotatedTorsions>
[ 6907 6896 6895 6894 ] final  -73.62 input  -60.11 | X-H torsion
[ 7974 7965 7964 7962 ] final   74.68 input  175.53 | X-H torsion
[ 8008 7997 7996 7995 ] final  -28.46 input   59.86 | X-H torsion
[ 10167 10162 10161 10158 ] final  -52.05 input  -65.29 | X-H torsion
[ 10718 10713 10712 10709 ] final   81.49 input   66.30 | X-H torsion
[ 10763 10752 10751 10750 ] final  154.11 input  -60.55 | X-H torsion
[ 11005 11000 10999 10996 ] final  177.35 input  -57.11 | X-H torsion

> <Gold.Protein.ActiveResidues>
 VAL166  LYS551  ARG553  GLY616  TRP617  ASP618  TYR619  PRO620  LYS621  CYS622 
 ASP623  PHE694  ASN695  SER759  ASP760  ASP761  ALA762  ILE779  LEU786  VAL792 
 PHE793  MET794  SER795  GLU796  ALA797  LYS798  CYS799  TRP800  GLU811  SER814 

> <Gold.Protein.RotatedAtoms>
  150.7123  134.4990  159.5551 H   0  0  0  0  0  0  0  0  0  0  0  0  # atno 6907 bound_to 6896
  152.2591  134.8050  160.0442 H   0  0  0  0  0  0  0  0  0  0  0  0  # atno 6908 bound_to 6896
  151.8770  133.3452  159.3790 H   0  0  0  0  0  0  0  0  0  0  0  0  # atno 6909 bound_to 6896
  145.7252  139.2663  143.1573 H   0  0  0  0  0  0  0  0  0  0  0  0  # atno 7974 bound_to 7965
  154.4331  140.1845  156.1092 H   0  0  0  0  0  0  0  0  0  0  0  0  # atno 8008 bound_to 7997
  156.0231  140.3338  155.7034 H   0  0  0  0  0  0  0  0  0  0  0  0  # atno 8009 bound_to 7997
  155.5948  140.0634  157.2740 H   0  0  0  0  0  0  0  0  0  0  0  0  # atno 8010 bound_to 7997
  140.6557  143.2597  151.4592 H   0  0  0  0  0  0  0  0  0  0  0  0  # atno 10167 bound_to 10162
  157.6834  131.0006  150.2234 H   0  0  0  0  0  0  0  0  0  0  0  0  # atno 10718 bound_to 10713
  154.1470  135.2817  155.3146 H   0  0  0  0  0  0  0  0  0  0  0  0  # atno 10763 bound_to 10752
  154.6245  135.5456  153.7615 H   0  0  0  0  0  0  0  0  0  0  0  0  # atno 10764 bound_to 10752
  153.0233  135.6447  154.1615 H   0  0  0  0  0  0  0  0  0  0  0  0  # atno 10765 bound_to 10752
  140.3831  134.6928  157.4463 H   0  0  0  0  0  0  0  0  0  0  0  0  # atno 11005 bound_to 11000
  146.0589  140.7992  142.9745 LP  0  0  0  0  0  0  0  0  0  0  0  0  # atno 17320 bound_to 7965
  144.6906  140.3166  143.7239 LP  0  0  0  0  0  0  0  0  0  0  0  0  # atno 17321 bound_to 7965
  139.5779  144.1776  152.1929 LP  0  0  0  0  0  0  0  0  0  0  0  0  # atno 17342 bound_to 10162
  140.1092  144.5472  150.6936 LP  0  0  0  0  0  0  0  0  0  0  0  0  # atno 17343 bound_to 10162
  156.2881  130.3742  149.7868 LP  0  0  0  0  0  0  0  0  0  0  0  0  # atno 17370 bound_to 10713
  156.5536  130.8353  151.3307 LP  0  0  0  0  0  0  0  0  0  0  0  0  # atno 17371 bound_to 10713
  140.0463  134.6195  155.8917 LP  0  0  0  0  0  0  0  0  0  0  0  0  # atno 17394 bound_to 11000
  141.1916  133.6572  156.5466 LP  0  0  0  0  0  0  0  0  0  0  0  0  # atno 17395 bound_to 11000

$$$$
