AV-unprocessed.smi:2647|AV-procd|sdf|10284|dock2
  -GOLD-   2272014293D 1   1.00000     0.00000
 Structure written by MMmdl.
 31 32  0  0  0  0  0  0  0  0  2 V2000
  149.3800  138.0267  159.3457 O   0  0  0  0  0  0  0  0  0  0  0  0
  149.2846  136.9089  158.8336 C   0  0  0  0  0  0  0  0  0  0  0  0
  149.4436  136.7633  157.5102 N   0  0  0  0  0  0  0  0  0  0  0  0
  149.7235  137.8328  156.5582 C   0  0  0  0  0  0  0  0  0  0  0  0
  150.8281  137.4327  155.5673 C   0  0  0  0  0  0  0  0  0  0  0  0
  152.0495  138.3643  155.6430 C   0  0  0  0  0  0  0  0  0  0  0  0
  151.6786  139.6960  156.1325 N   0  0  0  0  0  0  0  0  0  0  0  0
  150.8006  140.5029  155.5200 C   0  0  0  0  0  0  0  0  0  0  0  0
  150.1993  140.2658  154.4726 O   0  0  0  0  0  0  0  0  0  0  0  0
  150.6146  141.7989  156.2973 C   0  0  0  0  0  0  0  0  0  0  0  0
  151.5513  141.6210  157.4962 C   0  0  0  0  0  0  0  0  0  0  0  0
  152.1505  140.2406  157.2631 C   0  0  0  0  0  0  0  0  0  0  0  0
  152.9571  139.7290  158.0388 O   0  0  0  0  0  0  0  0  0  0  0  0
  149.0206  135.7510  159.4808 N   0  5  0  0  0  0  0  0  0  0  0  0
  148.2545  135.7576  160.5842 C   0  0  0  0  0  0  0  0  0  0  0  0
  147.8646  136.8952  161.1817 N   0  0  0  0  0  0  0  0  0  0  0  0
  147.0834  136.6803  162.3090 N   0  0  0  0  0  0  0  0  0  0  0  0
  146.9106  135.3789  162.5394 C   0  0  0  0  0  0  0  0  0  0  0  0
  147.6879  134.2984  161.4018 S   0  0  0  0  0  0  0  0  0  0  0  0
  149.3584  135.8302  157.1349 H   0  0  0  0  0  0  0  0  0  0  0  0
  148.8122  138.1116  156.0263 H   0  0  0  0  0  0  0  0  0  0  0  0
  150.0336  138.7116  157.1239 H   0  0  0  0  0  0  0  0  0  0  0  0
  151.1382  136.4062  155.7676 H   0  0  0  0  0  0  0  0  0  0  0  0
  150.4293  137.4416  154.5520 H   0  0  0  0  0  0  0  0  0  0  0  0
  152.8099  137.9246  156.2909 H   0  0  0  0  0  0  0  0  0  0  0  0
  152.5150  138.4476  154.6594 H   0  0  0  0  0  0  0  0  0  0  0  0
  150.8946  142.6569  155.6852 H   0  0  0  0  0  0  0  0  0  0  0  0
  149.5753  141.9110  156.6076 H   0  0  0  0  0  0  0  0  0  0  0  0
  152.3352  142.3789  157.5159 H   0  0  0  0  0  0  0  0  0  0  0  0
  151.0104  141.6483  158.4428 H   0  0  0  0  0  0  0  0  0  0  0  0
  146.3241  135.0530  163.3853 H   0  0  0  0  0  0  0  0  0  0  0  0
  1  2  2  0  0  0  0
  2  3  1  0  0  0  0
  2 14  1  0  0  0  0
  3  4  1  0  0  0  0
  3 20  1  0  0  0  0
  4  5  1  0  0  0  0
  4 21  1  0  0  0  0
  4 22  1  0  0  0  0
  5  6  1  0  0  0  0
  5 23  1  0  0  0  0
  5 24  1  0  0  0  0
  6  7  1  0  0  0  0
  6 25  1  0  0  0  0
  6 26  1  0  0  0  0
  7 12  1  0  0  0  0
  7  8  1  0  0  0  0
  8  9  2  0  0  0  0
  8 10  1  0  0  0  0
 10 11  1  0  0  0  0
 10 27  1  0  0  0  0
 10 28  1  0  0  0  0
 11 12  1  0  0  0  0
 11 29  1  0  0  0  0
 11 30  1  0  0  0  0
 12 13  2  0  0  0  0
 14 15  1  0  0  0  0
 15 19  1  0  0  0  0
 15 16  2  0  0  0  0
 16 17  1  0  0  0  0
 17 18  2  0  0  0  0
 18 19  1  0  0  0  0
 18 31  1  0  0  0  0
M  CHG  1  14  -1
M  END
> <s_m_source_file>
AV-unprocessed.smi

> <i_m_source_file_index>
2647

> <i_lp_mmshare_version>
43012

> <i_f3d_flags>
0

> <s_epik_input>
czFbY0hdbm5jMVtOSF1DKD1PKVtOSF1bQ0gyXVtDSDJdW0NIMl1OMkMoPU8pW0NIMl1bQ0gyXUMyPU8=

> <s_epik_cmdline>
J2VwaWtfcHl0aG9uJywgJy1waCcsICc3LjAnLCAnLXRuJywgJzgnLCAnLW1hJywgJzIwMCcsICctbWV0YWxfYmluZGluZycsICctaW1hZScsICc8aW5maWxlLm1hZT4nLCAnLW9tYWUnLCAnPG91dGZpbGUubWFlPic=

> <r_lp_tautomer_probability>
1

> <r_epik_Ionization_Penalty>
3.50019

> <r_epik_Ionization_Penalty_Charging>
3.45871

> <r_epik_Ionization_Penalty_Neutral>
0.0414811

> <r_epik_State_Penalty>
3.45698

> <r_epik_Charging_Adjusted_Penalty>
6.91569

> <i_epik_Tot_Q>
-1

> <i_epik_Tot_abs_Q>
1

> <r_epik_Metal_State_Penalty>
0.503209

> <b_epik_Metal_Only>
1

> <s_lp_Force_Field>
OPLS_2005

> <r_lp_Energy>
9.35786

> <b_lp_Chiralities_Consistent>
1

> <s_lp_Variant>
AV-unprocessed.smi:2647-2

> <Gold.Version>
5.8.1

> <Gold.Id.Protein>
6NUR|6NUR_protein|mol2

> <Gold.PLP.Fitness>
45.2390

> <Gold.PLP.PLP>
-31.9989

> <Gold.PLP.part.hbond>
-6.3869

> <Gold.PLP.part.metal>
0.0000

> <Gold.PLP.part.buried>
-3.8699

> <Gold.PLP.part.nonpolar>
-22.2243

> <Gold.PLP.part.repulsive>
0.1418

> <Gold.PLP.ligand.clash>
0.0000

> <Gold.PLP.ligand.torsion>
0.9128

> <Gold.PLP.Chemscore.Hbond>
4.9884

> <Gold.PLP.Chemscore.CHOScore>
0.0000

> <Gold.PLP.Chemscore.Metal>
0.0000

> <Gold.Chemscore.Hbonds>
donor molecule, donor type, donor heavy atom, donor atom, acceptor molecule, acceptor atom, score
      P1  H  6896  6907       L1    14  2.00
      P1  H  6931  6943       L1    16  0.90
      P1  H  6934  6947       L1    16  0.27
      P1  H  7989  7998       L1     9  0.55
      P1  H  7997  8008       L1    13  1.00

> <Gold.PLP.Chemscore.Internal.Correction>
0.1005

> <Gold.Rescore>
     Score         DG    S(hbond)    S(metal)    S(lipo)     H(rot)  DE(clash)    DE(int)     intcor
     10.29     -13.10       2.48        0.00      45.08       2.32       0.36       2.45       ----

> <Gold.Chemscore.Fitness>
10.2891

> <Gold.Chemscore.DG>
-13.0964

> <Gold.Chemscore.ZeroCoef>
-5.4800

> <Gold.Chemscore.Hbond>
2.4808

> <Gold.Chemscore.Metal>
0.0000

> <Gold.Chemscore.Lipo>
45.0832

> <Gold.Chemscore.Internal_Hbond>
0.0000

> <Gold.Chemscore.DEClash>
0.3612

> <Gold.Chemscore.DEInternal>
2.4460

> <Gold.Chemscore.Rot>
2.3219

> <Gold.Chemscore.Internal.Correction>
   9.000000E+99

> <Gold.Chemscore.Hbonds>
donor molecule, donor type, donor heavy atom, donor atom, acceptor molecule, acceptor atom, score
      P1  H  6896  6907       L1    14  0.61
      P1  H  6931  6943       L1    16  0.17
      P1  H  6934  6947       L1    16  0.03
      P1  H  7989  7998       L1     9  0.03
      P1  H  7997  8008       L1    13  0.37

> <Gold.Chemscore.Hbond.Weighted>
-8.2857

> <Gold.Chemscore.Metal.Weighted>
-0.0000

> <Gold.Chemscore.Lipo.Weighted>
-5.2747

> <Gold.Chemscore.Internal_Hbond.Weighted>
0.0000

> <Gold.Chemscore.DEClash.Weighted>
0.3612

> <Gold.Chemscore.DEInternal.Weighted>
2.4460

> <Gold.Chemscore.Rot.Weighted>
5.9441

> <Gold.Chemscore.Internal.Correction.Weighted>
   9.000000E+99

> <Gold.Protein.RotatedTorsions>
[ 6907 6896 6895 6894 ] final  -61.83 input  -60.11 | X-H torsion
[ 7974 7965 7964 7962 ] final  -78.16 input  175.53 | X-H torsion
[ 8008 7997 7996 7995 ] final  -95.25 input   59.86 | X-H torsion
[ 10167 10162 10161 10158 ] final -115.92 input  -65.29 | X-H torsion
[ 10718 10713 10712 10709 ] final    4.30 input   66.30 | X-H torsion
[ 10763 10752 10751 10750 ] final   19.12 input  -60.55 | X-H torsion
[ 11005 11000 10999 10996 ] final  -72.03 input  -57.11 | X-H torsion

> <Gold.Protein.ActiveResidues>
 VAL166  LYS551  ARG553  GLY616  TRP617  ASP618  TYR619  PRO620  LYS621  CYS622 
 ASP623  PHE694  ASN695  SER759  ASP760  ASP761  ALA762  ILE779  LEU786  VAL792 
 PHE793  MET794  SER795  GLU796  ALA797  LYS798  CYS799  TRP800  GLU811  SER814 

> <Gold.Protein.RotatedAtoms>
  150.7757  134.6652  159.6361 H   0  0  0  0  0  0  0  0  0  0  0  0  # atno 6907 bound_to 6896
  152.3826  134.6563  160.0146 H   0  0  0  0  0  0  0  0  0  0  0  0  # atno 6908 bound_to 6896
  151.6888  133.3274  159.3274 H   0  0  0  0  0  0  0  0  0  0  0  0  # atno 6909 bound_to 6896
  145.5902  140.9431  143.1296 H   0  0  0  0  0  0  0  0  0  0  0  0  # atno 7974 bound_to 7965
  154.7590  140.0482  157.0957 H   0  0  0  0  0  0  0  0  0  0  0  0  # atno 8008 bound_to 7997
  154.9962  140.3119  155.4866 H   0  0  0  0  0  0  0  0  0  0  0  0  # atno 8009 bound_to 7997
  156.2900  140.2209  156.5069 H   0  0  0  0  0  0  0  0  0  0  0  0  # atno 8010 bound_to 7997
  140.0848  143.4754  152.1904 H   0  0  0  0  0  0  0  0  0  0  0  0  # atno 10167 bound_to 10162
  156.8905  130.5686  149.5650 H   0  0  0  0  0  0  0  0  0  0  0  0  # atno 10718 bound_to 10713
  153.1190  135.6714  153.9368 H   0  0  0  0  0  0  0  0  0  0  0  0  # atno 10763 bound_to 10752
  153.8889  135.3049  155.3448 H   0  0  0  0  0  0  0  0  0  0  0  0  # atno 10764 bound_to 10752
  154.7603  135.4991  153.9531 H   0  0  0  0  0  0  0  0  0  0  0  0  # atno 10765 bound_to 10752
  141.1602  133.6835  156.6997 H   0  0  0  0  0  0  0  0  0  0  0  0  # atno 11005 bound_to 11000
  144.7355  139.7599  143.7331 LP  0  0  0  0  0  0  0  0  0  0  0  0  # atno 17320 bound_to 7965
  146.1653  139.4782  142.9962 LP  0  0  0  0  0  0  0  0  0  0  0  0  # atno 17321 bound_to 7965
  139.5758  144.7487  151.3768 LP  0  0  0  0  0  0  0  0  0  0  0  0  # atno 17342 bound_to 10162
  140.7059  143.7515  150.7481 LP  0  0  0  0  0  0  0  0  0  0  0  0  # atno 17343 bound_to 10162
  156.0631  130.5680  150.9234 LP  0  0  0  0  0  0  0  0  0  0  0  0  # atno 17370 bound_to 10713
  157.6086  131.0937  150.8834 LP  0  0  0  0  0  0  0  0  0  0  0  0  # atno 17371 bound_to 10713
  140.2968  134.8196  157.4064 LP  0  0  0  0  0  0  0  0  0  0  0  0  # atno 17394 bound_to 11000
  140.1297  134.5111  155.8115 LP  0  0  0  0  0  0  0  0  0  0  0  0  # atno 17395 bound_to 11000

$$$$
