AV-unprocessed.smi:2726|AV-procd|sdf|10520|dock6
  -GOLD-   2272014563D 1   1.00000     0.00000
 Structure written by MMmdl.
 42 43  0  0  0  0  0  0  0  0  2 V2000
  149.3011  132.1414  154.2280 C   0  0  0  0  0  0  0  0  0  0  0  0
  148.2181  133.2168  154.0307 C   0  0  0  0  0  0  0  0  0  0  0  0
  147.5234  132.9819  152.6728 C   0  0  0  0  0  0  0  0  0  0  0  0
  147.1993  133.1208  155.1864 C   0  0  0  0  0  0  0  0  0  0  0  0
  148.9000  134.5171  154.0449 N   0  0  0  0  0  0  0  0  0  0  0  0
  149.5356  135.1149  155.0673 C   0  0  0  0  0  0  0  0  0  0  0  0
  149.6474  134.6253  156.1906 O   0  0  0  0  0  0  0  0  0  0  0  0
  150.0088  136.3187  154.7011 N   0  0  0  0  0  0  0  0  0  0  0  0
  150.7352  137.2561  155.4842 C   0  0  0  0  0  0  0  0  0  0  0  0
  151.0489  136.9012  156.8136 C   0  0  0  0  0  0  0  0  0  0  0  0
  151.7558  137.8060  157.6319 C   0  0  0  0  0  0  0  0  0  0  0  0
  152.1312  139.0656  157.1094 C   0  0  0  0  0  0  0  0  0  0  0  0
  152.8365  140.0350  157.8359 N   0  0  0  0  0  0  0  0  0  0  0  0
  152.1437  141.3005  158.0120 C   0  0  0  0  0  0  0  0  0  0  0  0
  152.8837  142.0176  159.1440 C   0  0  0  0  0  0  0  0  0  0  0  0
  153.6032  140.9028  159.9126 C   0  0  0  0  0  0  0  0  0  0  0  0
  153.2474  139.6148  159.1649 C   0  0  0  0  0  0  0  0  0  0  0  0
  151.8013  139.3731  155.8363 N   0  3  0  0  0  0  0  0  0  0  0  0
  151.1275  138.5351  155.0189 C   0  0  0  0  0  0  0  0  0  0  0  0
  148.8713  131.1391  154.2222 H   0  0  0  0  0  0  0  0  0  0  0  0
  149.8216  132.2684  155.1782 H   0  0  0  0  0  0  0  0  0  0  0  0
  150.0495  132.1798  153.4353 H   0  0  0  0  0  0  0  0  0  0  0  0
  148.2274  133.0761  151.8452 H   0  0  0  0  0  0  0  0  0  0  0  0
  146.7123  133.6886  152.4975 H   0  0  0  0  0  0  0  0  0  0  0  0
  147.0910  131.9821  152.6216 H   0  0  0  0  0  0  0  0  0  0  0  0
  146.7582  132.1248  155.2386 H   0  0  0  0  0  0  0  0  0  0  0  0
  146.3766  133.8261  155.0695 H   0  0  0  0  0  0  0  0  0  0  0  0
  147.6707  133.3209  156.1493 H   0  0  0  0  0  0  0  0  0  0  0  0
  148.8772  135.0221  153.1710 H   0  0  0  0  0  0  0  0  0  0  0  0
  149.7725  136.6228  153.7681 H   0  0  0  0  0  0  0  0  0  0  0  0
  150.7567  135.9379  157.2061 H   0  0  0  0  0  0  0  0  0  0  0  0
  152.0041  137.5299  158.6461 H   0  0  0  0  0  0  0  0  0  0  0  0
  152.1567  141.8857  157.0919 H   0  0  0  0  0  0  0  0  0  0  0  0
  151.1021  141.1361  158.2907 H   0  0  0  0  0  0  0  0  0  0  0  0
  153.6145  142.7168  158.7358 H   0  0  0  0  0  0  0  0  0  0  0  0
  152.1995  142.5847  159.7759 H   0  0  0  0  0  0  0  0  0  0  0  0
  154.6806  141.0707  159.8894 H   0  0  0  0  0  0  0  0  0  0  0  0
  153.2971  140.8556  160.9581 H   0  0  0  0  0  0  0  0  0  0  0  0
  152.4320  139.0983  159.6732 H   0  0  0  0  0  0  0  0  0  0  0  0
  154.0972  138.9333  159.1146 H   0  0  0  0  0  0  0  0  0  0  0  0
  150.9227  138.9296  154.0353 H   0  0  0  0  0  0  0  0  0  0  0  0
  152.0729  140.2871  155.4731 H   0  0  0  0  0  0  0  0  0  0  0  0
  1  2  1  0  0  0  0
  1 20  1  0  0  0  0
  1 21  1  0  0  0  0
  1 22  1  0  0  0  0
  2  3  1  0  0  0  0
  2  4  1  0  0  0  0
  2  5  1  0  0  0  0
  3 23  1  0  0  0  0
  3 24  1  0  0  0  0
  3 25  1  0  0  0  0
  4 26  1  0  0  0  0
  4 27  1  0  0  0  0
  4 28  1  0  0  0  0
  5  6  1  0  0  0  0
  5 29  1  0  0  0  0
  6  7  2  0  0  0  0
  6  8  1  0  0  0  0
  8  9  1  0  0  0  0
  8 30  1  0  0  0  0
  9 19  1  0  0  0  0
  9 10  2  0  0  0  0
 10 11  1  0  0  0  0
 10 31  1  0  0  0  0
 11 12  2  0  0  0  0
 11 32  1  0  0  0  0
 12 13  1  0  0  0  0
 12 18  1  0  0  0  0
 13 17  1  0  0  0  0
 13 14  1  0  0  0  0
 14 15  1  0  0  0  0
 14 33  1  0  0  0  0
 14 34  1  0  0  0  0
 15 16  1  0  0  0  0
 15 35  1  0  0  0  0
 15 36  1  0  0  0  0
 16 17  1  0  0  0  0
 16 37  1  0  0  0  0
 16 38  1  0  0  0  0
 17 39  1  0  0  0  0
 17 40  1  0  0  0  0
 18 19  2  0  0  0  0
 18 42  1  0  0  0  0
 19 41  1  0  0  0  0
M  CHG  1  18   1
M  END
> <s_m_source_file>
AV-unprocessed.smi

> <i_m_source_file_index>
2726

> <i_lp_mmshare_version>
43012

> <i_f3d_flags>
0

> <s_epik_input>
W0NIM11DKFtDSDNdKShbQ0gzXSlbTkhdQyg9TylbTkhdYzFbY0hdW2NIXWMobltjSF0xKU4yW0NIMl1bQ0gyXVtDSDJdW0NIMl0y

> <s_epik_cmdline>
J2VwaWtfcHl0aG9uJywgJy1waCcsICc3LjAnLCAnLXRuJywgJzgnLCAnLW1hJywgJzIwMCcsICctbWV0YWxfYmluZGluZycsICctaW1hZScsICc8aW5maWxlLm1hZT4nLCAnLW9tYWUnLCAnPG91dGZpbGUubWFlPic=

> <r_lp_tautomer_probability>
0.999994

> <r_epik_Ionization_Penalty>
1.07826

> <r_epik_Ionization_Penalty_Charging>
1.07824

> <r_epik_Ionization_Penalty_Neutral>
2.30307e-05

> <r_epik_State_Penalty>
1.13344

> <r_epik_Charging_Adjusted_Penalty>
2.21168

> <i_epik_Tot_Q>
1

> <i_epik_Tot_abs_Q>
1

> <r_epik_Metal_State_Penalty>
1.22394

> <b_epik_Metal_Only>
0

> <s_lp_Force_Field>
OPLS_2005

> <r_lp_Energy>
40.4449

> <b_lp_Chiralities_Consistent>
1

> <s_lp_Variant>
AV-unprocessed.smi:2726-2

> <Gold.Version>
5.8.1

> <Gold.Id.Protein>
6NUR|6NUR_protein|mol2

> <Gold.PLP.Fitness>
37.1548

> <Gold.PLP.PLP>
-28.6473

> <Gold.PLP.part.hbond>
-3.0000

> <Gold.PLP.part.metal>
0.0000

> <Gold.PLP.part.buried>
-4.0811

> <Gold.PLP.part.nonpolar>
-21.1733

> <Gold.PLP.part.repulsive>
0.2192

> <Gold.PLP.ligand.clash>
0.2005

> <Gold.PLP.ligand.torsion>
0.0798

> <Gold.PLP.Chemscore.Hbond>
2.9500

> <Gold.PLP.Chemscore.CHOScore>
0.0000

> <Gold.PLP.Chemscore.Metal>
0.0000

> <Gold.Chemscore.Hbonds>
donor molecule, donor type, donor heavy atom, donor atom, acceptor molecule, acceptor atom, score
      L1  H     5    29       P1  7948  1.00
      L1  H     8    30       P1  7948  0.88
      P1  H  7997  8008       L1    13  0.95

> <Gold.PLP.Chemscore.Internal.Correction>
0.0175

> <Gold.Rescore>
     Score         DG    S(hbond)    S(metal)    S(lipo)     H(rot)  DE(clash)    DE(int)     intcor
     15.02     -16.50       1.81        0.00      68.43       1.18       0.00       1.47       ----

> <Gold.Chemscore.Fitness>
15.0202

> <Gold.Chemscore.DG>
-16.4962

> <Gold.Chemscore.ZeroCoef>
-5.4800

> <Gold.Chemscore.Hbond>
1.8080

> <Gold.Chemscore.Metal>
0.0000

> <Gold.Chemscore.Lipo>
68.4277

> <Gold.Chemscore.Internal_Hbond>
0.0000

> <Gold.Chemscore.DEClash>
0.0021

> <Gold.Chemscore.DEInternal>
1.4739

> <Gold.Chemscore.Rot>
1.1830

> <Gold.Chemscore.Internal.Correction>
   9.000000E+99

> <Gold.Chemscore.Hbonds>
donor molecule, donor type, donor heavy atom, donor atom, acceptor molecule, acceptor atom, score
      L1  H     5    29       P1  7948  0.35
      L1  H     8    30       P1  7948  0.41
      P1  H  7997  8008       L1    13  0.10

> <Gold.Chemscore.Hbond.Weighted>
-6.0387

> <Gold.Chemscore.Metal.Weighted>
-0.0000

> <Gold.Chemscore.Lipo.Weighted>
-8.0060

> <Gold.Chemscore.Internal_Hbond.Weighted>
0.0000

> <Gold.Chemscore.DEClash.Weighted>
0.0021

> <Gold.Chemscore.DEInternal.Weighted>
1.4739

> <Gold.Chemscore.Rot.Weighted>
3.0285

> <Gold.Chemscore.Internal.Correction.Weighted>
   9.000000E+99

> <Gold.Protein.RotatedTorsions>
[ 6907 6896 6895 6894 ] final  105.37 input  -60.11 | X-H torsion
[ 7974 7965 7964 7962 ] final   71.65 input  175.53 | X-H torsion
[ 8008 7997 7996 7995 ] final  -69.30 input   59.86 | X-H torsion
[ 10167 10162 10161 10158 ] final  130.30 input  -65.29 | X-H torsion
[ 10718 10713 10712 10709 ] final   14.41 input   66.30 | X-H torsion
[ 10763 10752 10751 10750 ] final   56.07 input  -60.55 | X-H torsion
[ 11005 11000 10999 10996 ] final   42.51 input  -57.11 | X-H torsion

> <Gold.Protein.ActiveResidues>
 VAL166  LYS551  ARG553  GLY616  TRP617  ASP618  TYR619  PRO620  LYS621  CYS622 
 ASP623  PHE694  ASN695  SER759  ASP760  ASP761  ALA762  ILE779  LEU786  VAL792 
 PHE793  MET794  SER795  GLU796  ALA797  LYS798  CYS799  TRP800  GLU811  SER814 

> <Gold.Protein.RotatedAtoms>
  152.5233  133.9539  159.7684 H   0  0  0  0  0  0  0  0  0  0  0  0  # atno 6907 bound_to 6896
  150.9843  133.6205  159.2725 H   0  0  0  0  0  0  0  0  0  0  0  0  # atno 6908 bound_to 6896
  151.3371  135.0861  159.9411 H   0  0  0  0  0  0  0  0  0  0  0  0  # atno 6909 bound_to 6896
  145.7632  139.2810  143.1364 H   0  0  0  0  0  0  0  0  0  0  0  0  # atno 7974 bound_to 7965
  154.4929  140.0856  156.7633 H   0  0  0  0  0  0  0  0  0  0  0  0  # atno 8008 bound_to 7997
  155.4187  140.3445  155.4251 H   0  0  0  0  0  0  0  0  0  0  0  0  # atno 8009 bound_to 7997
  156.1354  140.1513  156.8990 H   0  0  0  0  0  0  0  0  0  0  0  0  # atno 8010 bound_to 7997
  139.5436  144.6753  151.4544 H   0  0  0  0  0  0  0  0  0  0  0  0  # atno 10167 bound_to 10162
  157.0387  130.6222  149.5747 H   0  0  0  0  0  0  0  0  0  0  0  0  # atno 10718 bound_to 10713
  152.9826  135.5689  154.5169 H   0  0  0  0  0  0  0  0  0  0  0  0  # atno 10763 bound_to 10752
  154.4663  135.2783  155.1677 H   0  0  0  0  0  0  0  0  0  0  0  0  # atno 10764 bound_to 10752
  154.3244  135.6262  153.5576 H   0  0  0  0  0  0  0  0  0  0  0  0  # atno 10765 bound_to 10752
  140.1732  134.4195  155.8244 H   0  0  0  0  0  0  0  0  0  0  0  0  # atno 11005 bound_to 11000
  146.0243  140.8318  142.9907 LP  0  0  0  0  0  0  0  0  0  0  0  0  # atno 17320 bound_to 7965
  144.6826  140.2675  143.7310 LP  0  0  0  0  0  0  0  0  0  0  0  0  # atno 17321 bound_to 7965
  140.6676  143.8364  150.6960 LP  0  0  0  0  0  0  0  0  0  0  0  0  # atno 17342 bound_to 10162
  140.1778  143.4140  152.1955 LP  0  0  0  0  0  0  0  0  0  0  0  0  # atno 17343 bound_to 10162
  156.0045  130.5130  150.7782 LP  0  0  0  0  0  0  0  0  0  0  0  0  # atno 17370 bound_to 10713
  157.5121  131.0926  151.0184 LP  0  0  0  0  0  0  0  0  0  0  0  0  # atno 17371 bound_to 10713
  141.2219  133.6966  156.7801 LP  0  0  0  0  0  0  0  0  0  0  0  0  # atno 17394 bound_to 11000
  140.2353  134.8655  157.3518 LP  0  0  0  0  0  0  0  0  0  0  0  0  # atno 17395 bound_to 11000

$$$$
