AV-unprocessed.smi:2562|AV-procd|sdf|10055|dock3
  -GOLD-   2272014 93D 1   1.00000     0.00000
 Structure written by MMmdl.
 29 30  0  0  0  0  0  0  0  0  2 V2000
  152.7199  144.0688  159.1615 C   0  0  0  0  0  0  0  0  0  0  0  0
  152.4170  143.0321  160.2487 C   0  0  0  0  0  0  0  0  0  0  0  0
  152.8541  141.6151  159.8527 C   0  0  0  0  0  0  0  0  0  0  0  0
  152.2725  141.1930  158.5211 C   0  0  0  0  0  0  0  0  0  0  0  0
  152.5589  140.0564  157.8620 N   0  5  0  0  0  0  0  0  0  0  0  0
  151.8432  139.9897  156.7578 N   0  0  0  0  0  0  0  0  0  0  0  0
  151.0896  141.1007  156.7517 C   0  0  0  0  0  0  0  0  0  0  0  0
  150.1161  141.4800  155.6532 C   0  0  1  0  0  0  0  0  0  0  0  0
  150.1159  140.4307  154.5226 C   0  0  0  0  0  0  0  0  0  0  0  0
  149.1645  140.8005  153.4742 N   0  0  0  0  0  0  0  0  0  0  0  0
  147.8282  141.0167  154.0239 C   0  0  0  0  0  0  0  0  0  0  0  0
  147.8811  142.0553  155.1571 C   0  0  0  0  0  0  0  0  0  0  0  0
  148.7897  141.6150  156.1599 O   0  0  0  0  0  0  0  0  0  0  0  0
  151.3503  141.8550  157.8293 N   0  0  0  0  0  0  0  0  0  0  0  0
  152.4020  145.0635  159.4740 H   0  0  0  0  0  0  0  0  0  0  0  0
  152.1998  143.8289  158.2338 H   0  0  0  0  0  0  0  0  0  0  0  0
  153.7879  144.1124  158.9470 H   0  0  0  0  0  0  0  0  0  0  0  0
  152.9186  143.3222  161.1726 H   0  0  0  0  0  0  0  0  0  0  0  0
  151.3477  143.0372  160.4633 H   0  0  0  0  0  0  0  0  0  0  0  0
  153.9416  141.5590  159.7936 H   0  0  0  0  0  0  0  0  0  0  0  0
  152.5425  140.8984  160.6132 H   0  0  0  0  0  0  0  0  0  0  0  0
  150.4391  142.4445  155.2566 H   0  0  0  0  0  0  0  0  0  0  0  0
  151.1165  140.3355  154.0999 H   0  0  0  0  0  0  0  0  0  0  0  0
  149.8545  139.4534  154.9305 H   0  0  0  0  0  0  0  0  0  0  0  0
  149.1301  140.0665  152.7742 H   0  0  0  0  0  0  0  0  0  0  0  0
  147.1496  141.3507  153.2389 H   0  0  0  0  0  0  0  0  0  0  0  0
  147.4279  140.0774  154.4071 H   0  0  0  0  0  0  0  0  0  0  0  0
  148.1790  143.0347  154.7790 H   0  0  0  0  0  0  0  0  0  0  0  0
  146.8940  142.1734  155.6039 H   0  0  0  0  0  0  0  0  0  0  0  0
  1  2  1  0  0  0  0
  1 15  1  0  0  0  0
  1 16  1  0  0  0  0
  1 17  1  0  0  0  0
  2  3  1  0  0  0  0
  2 18  1  0  0  0  0
  2 19  1  0  0  0  0
  3 20  1  0  0  0  0
  3 21  1  0  0  0  0
  3  4  1  0  0  0  0
  4 14  2  0  0  0  0
  4  5  1  0  0  0  0
  5  6  1  0  0  0  0
  6  7  2  0  0  0  0
  7 14  1  0  0  0  0
  7  8  1  0  0  0  0
  8 13  1  0  0  0  0
  8  9  1  0  0  0  0
  8 22  1  0  0  0  0
  9 10  1  0  0  0  0
  9 23  1  0  0  0  0
  9 24  1  0  0  0  0
 10 11  1  0  0  0  0
 10 25  1  0  0  0  0
 11 12  1  0  0  0  0
 11 26  1  0  0  0  0
 11 27  1  0  0  0  0
 12 13  1  0  0  0  0
 12 28  1  0  0  0  0
 12 29  1  0  0  0  0
M  CHG  1   5  -1
M  END
> <s_m_source_file>
AV-unprocessed.smi

> <i_m_source_file_index>
2562

> <i_lp_mmshare_version>
43012

> <i_f3d_flags>
0

> <s_epik_input>
W0NIM11bQ0gyXVtDSDJdYzFuW25IXWMobjEpW0NAQEhdMltDSDJdW05IXVtDSDJdW0NIMl1PMg==

> <s_epik_cmdline>
J2VwaWtfcHl0aG9uJywgJy1waCcsICc3LjAnLCAnLXRuJywgJzgnLCAnLW1hJywgJzIwMCcsICctbWV0YWxfYmluZGluZycsICctaW1hZScsICc8aW5maWxlLm1hZT4nLCAnLW9tYWUnLCAnPG91dGZpbGUubWFlPic=

> <r_epik_Ionization_Penalty>
15.949

> <r_epik_Ionization_Penalty_Charging>
14.3757

> <r_epik_Ionization_Penalty_Neutral>
1.5733

> <r_epik_State_Penalty>
7.02775

> <r_epik_Charging_Adjusted_Penalty>
21.4034

> <i_epik_Tot_Q>
-1

> <i_epik_Tot_abs_Q>
1

> <r_epik_Metal_State_Penalty>
3.10311

> <b_epik_Metal_Only>
1

> <s_lp_Force_Field>
OPLS_2005

> <r_lp_Energy>
11.7076

> <b_lp_Chiralities_Consistent>
1

> <s_lp_Variant>
AV-unprocessed.smi:2562-14

> <Gold.Version>
5.8.1

> <Gold.Id.Protein>
6NUR|6NUR_protein|mol2

> <Gold.PLP.Fitness>
38.6973

> <Gold.PLP.PLP>
-27.5663

> <Gold.PLP.part.hbond>
-3.5315

> <Gold.PLP.part.metal>
0.0000

> <Gold.PLP.part.buried>
0.9697

> <Gold.PLP.part.nonpolar>
-24.9343

> <Gold.PLP.part.repulsive>
0.1465

> <Gold.PLP.ligand.clash>
0.0000

> <Gold.PLP.ligand.torsion>
0.0696

> <Gold.PLP.Chemscore.Hbond>
3.7520

> <Gold.PLP.Chemscore.CHOScore>
0.0000

> <Gold.PLP.Chemscore.Metal>
0.0000

> <Gold.Chemscore.Hbonds>
donor molecule, donor type, donor heavy atom, donor atom, acceptor molecule, acceptor atom, score
      L1  H    10    25       P1  7957  0.62
      P1  H  7997  8008       L1     5  1.09
      P1  H  8011  8017       L1    10  0.89

> <Gold.PLP.Chemscore.Internal.Correction>
0.0143

> <Gold.Rescore>
     Score         DG    S(hbond)    S(metal)    S(lipo)     H(rot)  DE(clash)    DE(int)     intcor
     12.25     -14.00       1.42        0.00      64.00       1.44       1.55       0.20       ----

> <Gold.Chemscore.Fitness>
12.2515

> <Gold.Chemscore.DG>
-14.0040

> <Gold.Chemscore.ZeroCoef>
-5.4800

> <Gold.Chemscore.Hbond>
1.4169

> <Gold.Chemscore.Metal>
0.0000

> <Gold.Chemscore.Lipo>
64.0027

> <Gold.Chemscore.Internal_Hbond>
0.0000

> <Gold.Chemscore.DEClash>
1.5544

> <Gold.Chemscore.DEInternal>
0.1981

> <Gold.Chemscore.Rot>
1.4441

> <Gold.Chemscore.Internal.Correction>
   9.000000E+99

> <Gold.Chemscore.Hbonds>
donor molecule, donor type, donor heavy atom, donor atom, acceptor molecule, acceptor atom, score
      L1  H    10    25       P1  7957  0.64
      P1  H  7997  8008       L1     5  0.07
      P1  H  8011  8017       L1    10  0.18

> <Gold.Chemscore.Hbond.Weighted>
-4.7326

> <Gold.Chemscore.Metal.Weighted>
-0.0000

> <Gold.Chemscore.Lipo.Weighted>
-7.4883

> <Gold.Chemscore.Internal_Hbond.Weighted>
0.0000

> <Gold.Chemscore.DEClash.Weighted>
1.5544

> <Gold.Chemscore.DEInternal.Weighted>
0.1981

> <Gold.Chemscore.Rot.Weighted>
3.6969

> <Gold.Chemscore.Internal.Correction.Weighted>
   9.000000E+99

> <Gold.Protein.RotatedTorsions>
[ 6907 6896 6895 6894 ] final    0.34 input  -60.11 | X-H torsion
[ 7974 7965 7964 7962 ] final -115.23 input  175.53 | X-H torsion
[ 8008 7997 7996 7995 ] final  -76.16 input   59.86 | X-H torsion
[ 10167 10162 10161 10158 ] final   62.69 input  -65.29 | X-H torsion
[ 10718 10713 10712 10709 ] final   57.66 input   66.30 | X-H torsion
[ 10763 10752 10751 10750 ] final -123.95 input  -60.55 | X-H torsion
[ 11005 11000 10999 10996 ] final  120.11 input  -57.11 | X-H torsion

> <Gold.Protein.ActiveResidues>
 VAL166  LYS551  ARG553  GLY616  TRP617  ASP618  TYR619  PRO620  LYS621  CYS622 
 ASP623  PHE694  ASN695  SER759  ASP760  ASP761  ALA762  ILE779  LEU786  VAL792 
 PHE793  MET794  SER795  GLU796  ALA797  LYS798  CYS799  TRP800  GLU811  SER814 

> <Gold.Protein.RotatedAtoms>
  151.5748  135.1061  160.0003 H   0  0  0  0  0  0  0  0  0  0  0  0  # atno 6907 bound_to 6896
  152.4383  133.7397  159.6644 H   0  0  0  0  0  0  0  0  0  0  0  0  # atno 6908 bound_to 6896
  150.8284  133.8063  159.3132 H   0  0  0  0  0  0  0  0  0  0  0  0  # atno 6909 bound_to 6896
  145.1109  140.8611  143.3871 H   0  0  0  0  0  0  0  0  0  0  0  0  # atno 7974 bound_to 7965
  154.5480  140.0732  156.8621 H   0  0  0  0  0  0  0  0  0  0  0  0  # atno 8008 bound_to 7997
  155.3049  140.3386  155.4228 H   0  0  0  0  0  0  0  0  0  0  0  0  # atno 8009 bound_to 7997
  156.1936  140.1695  156.8030 H   0  0  0  0  0  0  0  0  0  0  0  0  # atno 8010 bound_to 7997
  140.1412  144.4552  150.6810 H   0  0  0  0  0  0  0  0  0  0  0  0  # atno 10167 bound_to 10162
  157.5533  130.8781  149.8997 H   0  0  0  0  0  0  0  0  0  0  0  0  # atno 10718 bound_to 10713
  154.8716  135.4080  154.3026 H   0  0  0  0  0  0  0  0  0  0  0  0  # atno 10763 bound_to 10752
  153.3883  135.7014  153.6519 H   0  0  0  0  0  0  0  0  0  0  0  0  # atno 10764 bound_to 10752
  153.5312  135.3667  155.2648 H   0  0  0  0  0  0  0  0  0  0  0  0  # atno 10765 bound_to 10752
  139.9172  134.9633  156.7757 H   0  0  0  0  0  0  0  0  0  0  0  0  # atno 11005 bound_to 11000
  145.0848  139.2933  143.5765 LP  0  0  0  0  0  0  0  0  0  0  0  0  # atno 17320 bound_to 7965
  146.3526  140.0367  142.8646 LP  0  0  0  0  0  0  0  0  0  0  0  0  # atno 17321 bound_to 7965
  140.6759  143.2305  151.5507 LP  0  0  0  0  0  0  0  0  0  0  0  0  # atno 17342 bound_to 10162
  139.5471  144.2492  152.1463 LP  0  0  0  0  0  0  0  0  0  0  0  0  # atno 17343 bound_to 10162
  156.0596  130.3702  150.1012 LP  0  0  0  0  0  0  0  0  0  0  0  0  # atno 17370 bound_to 10713
  156.9183  130.9674  151.3552 LP  0  0  0  0  0  0  0  0  0  0  0  0  # atno 17371 bound_to 10713
  140.6585  133.9667  155.7792 LP  0  0  0  0  0  0  0  0  0  0  0  0  # atno 17394 bound_to 11000
  141.0660  134.0277  157.3594 LP  0  0  0  0  0  0  0  0  0  0  0  0  # atno 17395 bound_to 11000

$$$$
