AV-unprocessed.smi:380|AV-procd|sdf|2460|dock4
  -GOLD-   2262022403D 1   1.00000     0.00000
 Structure written by MMmdl.
 39 40  0  0  0  0  0  0  0  0  1 V2000
  148.4862  133.4736  153.3389 C   0  0  0  0  0  0  0  0  0  0  0  0
  149.7747  133.4151  154.1780 C   0  0  0  0  0  0  0  0  0  0  0  0
  149.8886  132.0677  154.9056 C   0  0  0  0  0  0  0  0  0  0  0  0
  149.8798  134.5858  155.1795 C   0  0  0  0  0  0  0  0  0  0  0  0
  150.3671  135.8146  154.5614 N   0  0  0  0  0  0  0  0  0  0  0  0
  151.2343  136.6700  155.1225 C   0  0  0  0  0  0  0  0  0  0  0  0
  151.7032  136.5106  156.2505 O   0  0  0  0  0  0  0  0  0  0  0  0
  151.6171  137.8903  154.2717 C   0  0  0  0  0  0  0  0  0  0  0  0
  150.9347  139.1334  154.6936 N   0  0  0  0  0  0  0  0  0  0  0  0
  149.7051  139.4720  154.0729 C   0  0  0  0  0  0  0  0  0  0  0  0
  149.2138  138.7511  153.2025 O   0  0  0  0  0  0  0  0  0  0  0  0
  149.0862  140.7112  154.5375 C   0  0  0  0  0  0  0  0  0  0  0  0
  147.8267  141.0622  153.9697 C   0  0  0  0  0  0  0  0  0  0  0  0
  146.8157  141.3630  153.4933 N   0  0  0  0  0  0  0  0  0  0  0  0
  149.6871  141.4819  155.4672 C   0  0  0  0  0  0  0  0  0  0  0  0
  150.9097  141.1629  156.0167 N   0  0  0  0  0  0  0  0  0  0  0  0
  151.4649  141.9218  157.1017 C   0  0  0  0  0  0  0  0  0  0  0  0
  150.8337  141.8127  158.4729 C   0  0  0  0  0  0  0  0  0  0  0  0
  150.6992  143.0931  157.6863 C   0  0  0  0  0  0  0  0  0  0  0  0
  151.5462  139.9491  155.6766 C   0  0  0  0  0  0  0  0  0  0  0  0
  152.6009  139.6087  156.2178 O   0  0  0  0  0  0  0  0  0  0  0  0
  147.6000  133.4442  153.9733 H   0  0  0  0  0  0  0  0  0  0  0  0
  148.4292  132.6311  152.6493 H   0  0  0  0  0  0  0  0  0  0  0  0
  148.4381  134.3832  152.7398 H   0  0  0  0  0  0  0  0  0  0  0  0
  150.6183  133.4791  153.4892 H   0  0  0  0  0  0  0  0  0  0  0  0
  149.0702  131.9281  155.6126 H   0  0  0  0  0  0  0  0  0  0  0  0
  150.8243  131.9995  155.4614 H   0  0  0  0  0  0  0  0  0  0  0  0
  149.8652  131.2363  154.2006 H   0  0  0  0  0  0  0  0  0  0  0  0
  148.9003  134.7935  155.6112 H   0  0  0  0  0  0  0  0  0  0  0  0
  150.5297  134.3159  156.0138 H   0  0  0  0  0  0  0  0  0  0  0  0
  150.0285  136.0230  153.6332 H   0  0  0  0  0  0  0  0  0  0  0  0
  152.7005  138.0190  154.3035 H   0  0  0  0  0  0  0  0  0  0  0  0
  151.4114  137.6545  153.2267 H   0  0  0  0  0  0  0  0  0  0  0  0
  149.1972  142.3897  155.7893 H   0  0  0  0  0  0  0  0  0  0  0  0
  152.5484  142.0255  157.0874 H   0  0  0  0  0  0  0  0  0  0  0  0
  149.9407  141.1997  158.5803 H   0  0  0  0  0  0  0  0  0  0  0  0
  151.4995  141.8194  159.3334 H   0  0  0  0  0  0  0  0  0  0  0  0
  151.2772  143.9526  158.0193 H   0  0  0  0  0  0  0  0  0  0  0  0
  149.7169  143.3229  157.2775 H   0  0  0  0  0  0  0  0  0  0  0  0
  1  2  1  0  0  0  0
  1 22  1  0  0  0  0
  1 23  1  0  0  0  0
  1 24  1  0  0  0  0
  2  3  1  0  0  0  0
  2  4  1  0  0  0  0
  2 25  1  0  0  0  0
  3 26  1  0  0  0  0
  3 27  1  0  0  0  0
  3 28  1  0  0  0  0
  4  5  1  0  0  0  0
  4 29  1  0  0  0  0
  4 30  1  0  0  0  0
  5  6  1  0  0  0  0
  5 31  1  0  0  0  0
  6  7  2  0  0  0  0
  6  8  1  0  0  0  0
  8  9  1  0  0  0  0
  8 32  1  0  0  0  0
  8 33  1  0  0  0  0
  9 20  1  0  0  0  0
  9 10  1  0  0  0  0
 10 11  2  0  0  0  0
 10 12  1  0  0  0  0
 12 13  1  0  0  0  0
 12 15  2  0  0  0  0
 13 14  3  0  0  0  0
 15 16  1  0  0  0  0
 15 34  1  0  0  0  0
 16 17  1  0  0  0  0
 16 20  1  0  0  0  0
 17 19  1  0  0  0  0
 17 18  1  0  0  0  0
 17 35  1  0  0  0  0
 18 19  1  0  0  0  0
 18 36  1  0  0  0  0
 18 37  1  0  0  0  0
 19 38  1  0  0  0  0
 19 39  1  0  0  0  0
 20 21  2  0  0  0  0
M  END
> <s_m_source_file>
AV-unprocessed.smi

> <i_m_source_file_index>
380

> <i_lp_mmshare_version>
43012

> <i_f3d_flags>
0

> <s_epik_input>
W0NIM11bQ0hdKFtDSDNdKVtDSDJdW05IXUMoPU8pW0NIMl1uMWMoPU8pYyhDI04pW2NIXW4oYzE9TylbQ0hdMltDSDJdW0NIMl0y

> <s_epik_cmdline>
J2VwaWtfcHl0aG9uJywgJy1waCcsICc3LjAnLCAnLXRuJywgJzgnLCAnLW1hJywgJzIwMCcsICctbWV0YWxfYmluZGluZycsICctaW1hZScsICc8aW5maWxlLm1hZT4nLCAnLW9tYWUnLCAnPG91dGZpbGUubWFlPic=

> <r_lp_tautomer_probability>
1

> <r_epik_Ionization_Penalty>
1.93825e-08

> <r_epik_Ionization_Penalty_Charging>
8.0817e-11

> <r_epik_Ionization_Penalty_Neutral>
1.93017e-08

> <r_epik_State_Penalty>
-0

> <r_epik_Charging_Adjusted_Penalty>
8.0817e-11

> <i_epik_Tot_Q>
0

> <i_epik_Tot_abs_Q>
0

> <r_epik_Metal_State_Penalty>
-0

> <b_epik_Metal_Only>
0

> <s_lp_Force_Field>
OPLS_2005

> <r_lp_Energy>
29.2237

> <b_lp_Chiralities_Consistent>
1

> <s_lp_Variant>
AV-unprocessed.smi:380-1

> <Gold.Version>
5.8.1

> <Gold.Id.Protein>
6NUR|6NUR_protein|mol2

> <Gold.PLP.Fitness>
48.2488

> <Gold.PLP.PLP>
-38.4914

> <Gold.PLP.part.hbond>
-3.5795

> <Gold.PLP.part.metal>
0.0000

> <Gold.PLP.part.buried>
-4.3891

> <Gold.PLP.part.nonpolar>
-32.0740

> <Gold.PLP.part.repulsive>
2.1367

> <Gold.PLP.ligand.clash>
0.0000

> <Gold.PLP.ligand.torsion>
1.2439

> <Gold.PLP.Chemscore.Hbond>
3.0000

> <Gold.PLP.Chemscore.CHOScore>
1.0000

> <Gold.PLP.Chemscore.Metal>
0.0000

> <Gold.Chemscore.Hbonds>
donor molecule, donor type, donor heavy atom, donor atom, acceptor molecule, acceptor atom, score
      L1  H     5    31       P1  7948  0.59
      P1  H  7997  8009       L1    21  1.00
      P1  H 10752 10765       L1     7  0.03
      L1  C    15    34       P1  8028  1.00

> <Gold.PLP.Chemscore.Internal.Correction>
0.2452

> <Gold.Rescore>
     Score         DG    S(hbond)    S(metal)    S(lipo)     H(rot)  DE(clash)    DE(int)     intcor
     13.93     -15.89       2.46        0.00      62.46       1.99       1.37       0.58       ----

> <Gold.Chemscore.Fitness>
13.9342

> <Gold.Chemscore.DG>
-15.8857

> <Gold.Chemscore.ZeroCoef>
-5.4800

> <Gold.Chemscore.Hbond>
2.4550

> <Gold.Chemscore.Metal>
0.0000

> <Gold.Chemscore.Lipo>
62.4605

> <Gold.Chemscore.Internal_Hbond>
0.0000

> <Gold.Chemscore.DEClash>
1.3706

> <Gold.Chemscore.DEInternal>
0.5809

> <Gold.Chemscore.Rot>
1.9930

> <Gold.Chemscore.Internal.Correction>
   9.000000E+99

> <Gold.Chemscore.Hbonds>
donor molecule, donor type, donor heavy atom, donor atom, acceptor molecule, acceptor atom, score
      L1  H     5    31       P1  7948  0.04
      P1  H  7997  8009       L1    21  1.00

> <Gold.Chemscore.Hbond.Weighted>
-8.1998

> <Gold.Chemscore.Metal.Weighted>
-0.0000

> <Gold.Chemscore.Lipo.Weighted>
-7.3079

> <Gold.Chemscore.Internal_Hbond.Weighted>
0.0000

> <Gold.Chemscore.DEClash.Weighted>
1.3706

> <Gold.Chemscore.DEInternal.Weighted>
0.5809

> <Gold.Chemscore.Rot.Weighted>
5.1020

> <Gold.Chemscore.Internal.Correction.Weighted>
   9.000000E+99

> <Gold.Protein.RotatedTorsions>
[ 6907 6896 6895 6894 ] final  -22.90 input  -60.11 | X-H torsion
[ 7974 7965 7964 7962 ] final   23.15 input  175.53 | X-H torsion
[ 8008 7997 7996 7995 ] final -149.94 input   59.86 | X-H torsion
[ 10167 10162 10161 10158 ] final   81.21 input  -65.29 | X-H torsion
[ 10718 10713 10712 10709 ] final  -93.65 input   66.30 | X-H torsion
[ 10763 10752 10751 10750 ] final -143.82 input  -60.55 | X-H torsion
[ 11005 11000 10999 10996 ] final -142.66 input  -57.11 | X-H torsion

> <Gold.Protein.ActiveResidues>
 VAL166  LYS551  ARG553  GLY616  TRP617  ASP618  TYR619  PRO620  LYS621  CYS622 
 ASP623  PHE694  ASN695  SER759  ASP760  ASP761  ALA762  ILE779  LEU786  VAL792 
 PHE793  MET794  SER795  GLU796  ALA797  LYS798  CYS799  TRP800  GLU811  SER814 

> <Gold.Protein.RotatedAtoms>
  151.2118  135.0484  159.8913 H   0  0  0  0  0  0  0  0  0  0  0  0  # atno 6907 bound_to 6896
  152.5424  134.0736  159.8215 H   0  0  0  0  0  0  0  0  0  0  0  0  # atno 6908 bound_to 6896
  151.0891  133.5282  159.2648 H   0  0  0  0  0  0  0  0  0  0  0  0  # atno 6909 bound_to 6896
  146.1997  139.7784  142.8771 H   0  0  0  0  0  0  0  0  0  0  0  0  # atno 7974 bound_to 7965
  155.6156  140.0676  157.2693 H   0  0  0  0  0  0  0  0  0  0  0  0  # atno 8008 bound_to 7997
  154.4242  140.1793  156.1366 H   0  0  0  0  0  0  0  0  0  0  0  0  # atno 8009 bound_to 7997
  156.0050  140.3332  155.6887 H   0  0  0  0  0  0  0  0  0  0  0  0  # atno 8010 bound_to 7997
  139.9416  144.6086  150.8246 H   0  0  0  0  0  0  0  0  0  0  0  0  # atno 10167 bound_to 10162
  156.0016  130.5035  150.5808 H   0  0  0  0  0  0  0  0  0  0  0  0  # atno 10718 bound_to 10713
  154.8454  135.3457  154.6247 H   0  0  0  0  0  0  0  0  0  0  0  0  # atno 10763 bound_to 10752
  153.6857  135.6977  153.5109 H   0  0  0  0  0  0  0  0  0  0  0  0  # atno 10764 bound_to 10752
  153.2634  135.4315  155.0872 H   0  0  0  0  0  0  0  0  0  0  0  0  # atno 10765 bound_to 10752
  140.8203  134.2639  157.4903 H   0  0  0  0  0  0  0  0  0  0  0  0  # atno 11005 bound_to 11000
  145.3525  141.0310  143.3330 LP  0  0  0  0  0  0  0  0  0  0  0  0  # atno 17320 bound_to 7965
  144.8656  139.5112  143.6792 LP  0  0  0  0  0  0  0  0  0  0  0  0  # atno 17321 bound_to 7965
  140.7609  143.3162  151.2728 LP  0  0  0  0  0  0  0  0  0  0  0  0  # atno 17342 bound_to 10162
  139.6700  144.0037  152.2747 LP  0  0  0  0  0  0  0  0  0  0  0  0  # atno 17343 bound_to 10162
  157.3689  131.0762  151.1575 LP  0  0  0  0  0  0  0  0  0  0  0  0  # atno 17370 bound_to 10713
  157.2335  130.6536  149.5859 LP  0  0  0  0  0  0  0  0  0  0  0  0  # atno 17371 bound_to 10713
  139.8709  134.9531  156.4136 LP  0  0  0  0  0  0  0  0  0  0  0  0  # atno 17394 bound_to 11000
  140.9106  133.7714  155.9787 LP  0  0  0  0  0  0  0  0  0  0  0  0  # atno 17395 bound_to 11000

$$$$
