AV-unprocessed.smi:937|AV-procd|sdf|4212|dock10
  -GOLD-   22720 2123D 1   1.00000     0.00000
 Structure written by MMmdl.
 45 46  0  0  0  0  0  0  0  0  1 V2000
  152.6592  142.1048  158.9976 C   0  0  0  0  0  0  0  0  0  0  0  0
  151.9810  141.3364  157.8828 C   0  0  0  0  0  0  0  0  0  0  0  0
  150.8721  141.8783  157.1991 C   0  0  0  0  0  0  0  0  0  0  0  0
  150.2775  141.1156  156.1753 C   0  0  0  0  0  0  0  0  0  0  0  0
  150.8129  139.8462  155.8746 C   0  0  0  0  0  0  0  0  0  0  0  0
  150.2056  138.9783  154.7901 C   0  0  0  0  0  0  0  0  0  0  0  0
  149.6097  137.6828  155.3564 C   0  0  0  0  0  0  0  0  0  0  0  0
  148.7279  137.0548  154.3828 N   0  0  0  0  0  0  0  0  0  0  0  0
  147.4532  136.7075  154.6220 C   0  0  0  0  0  0  0  0  0  0  0  0
  146.8914  136.8957  155.6993 O   0  0  0  0  0  0  0  0  0  0  0  0
  146.8247  136.1177  153.5892 N   0  0  0  0  0  0  0  0  0  0  0  0
  145.4462  135.6220  153.5178 C   0  0  1  0  0  0  0  0  0  0  0  0
  144.5782  136.4717  152.5642 C   0  0  0  0  0  0  0  0  0  0  0  0
  144.9813  136.2835  151.0929 C   0  0  0  0  0  0  0  0  0  0  0  0
  144.9484  134.8010  150.6913 C   0  0  0  0  0  0  0  0  0  0  0  0
  145.8440  133.9415  151.6081 C   0  0  2  0  0  0  0  0  0  0  0  0
  145.8268  132.4530  151.2025 C   0  0  0  0  0  0  0  0  0  0  0  0
  146.6397  131.7389  151.9818 F   0  0  0  0  0  0  0  0  0  0  0  0
  144.5908  131.9649  151.3071 F   0  0  0  0  0  0  0  0  0  0  0  0
  146.2194  132.3218  149.9354 F   0  0  0  0  0  0  0  0  0  0  0  0
  145.4408  134.1409  153.0878 C   0  0  0  0  0  0  0  0  0  0  0  0
  151.9261  139.3983  156.6166 C   0  0  0  0  0  0  0  0  0  0  0  0
  152.5021  140.1219  157.6006 N   0  0  0  0  0  0  0  0  0  0  0  0
  152.1915  143.0780  159.1496 H   0  0  0  0  0  0  0  0  0  0  0  0
  153.7115  142.2668  158.7622 H   0  0  0  0  0  0  0  0  0  0  0  0
  152.5968  141.5482  159.9331 H   0  0  0  0  0  0  0  0  0  0  0  0
  150.4828  142.8536  157.4525 H   0  0  0  0  0  0  0  0  0  0  0  0
  149.4250  141.4995  155.6345 H   0  0  0  0  0  0  0  0  0  0  0  0
  149.4382  139.5465  154.2624 H   0  0  0  0  0  0  0  0  0  0  0  0
  150.9773  138.7456  154.0550 H   0  0  0  0  0  0  0  0  0  0  0  0
  150.4122  136.9939  155.6258 H   0  0  0  0  0  0  0  0  0  0  0  0
  149.0445  137.8914  156.2656 H   0  0  0  0  0  0  0  0  0  0  0  0
  149.1126  136.8619  153.4695 H   0  0  0  0  0  0  0  0  0  0  0  0
  147.3805  135.9701  152.7592 H   0  0  0  0  0  0  0  0  0  0  0  0
  145.0141  135.6691  154.5190 H   0  0  0  0  0  0  0  0  0  0  0  0
  143.5334  136.1821  152.6836 H   0  0  0  0  0  0  0  0  0  0  0  0
  144.6265  137.5280  152.8303 H   0  0  0  0  0  0  0  0  0  0  0  0
  144.3107  136.8548  150.4505 H   0  0  0  0  0  0  0  0  0  0  0  0
  145.9809  136.6878  150.9281 H   0  0  0  0  0  0  0  0  0  0  0  0
  143.9208  134.4374  150.7315 H   0  0  0  0  0  0  0  0  0  0  0  0
  145.2687  134.7022  149.6538 H   0  0  0  0  0  0  0  0  0  0  0  0
  146.8698  134.2938  151.4892 H   0  0  0  0  0  0  0  0  0  0  0  0
  146.1029  133.5683  153.7386 H   0  0  0  0  0  0  0  0  0  0  0  0
  144.4414  133.7329  153.2443 H   0  0  0  0  0  0  0  0  0  0  0  0
  152.3643  138.4311  156.4191 H   0  0  0  0  0  0  0  0  0  0  0  0
  1  2  1  0  0  0  0
  1 24  1  0  0  0  0
  1 25  1  0  0  0  0
  1 26  1  0  0  0  0
  2 23  1  0  0  0  0
  2  3  2  0  0  0  0
  3  4  1  0  0  0  0
  3 27  1  0  0  0  0
  4  5  2  0  0  0  0
  4 28  1  0  0  0  0
  5  6  1  0  0  0  0
  5 22  1  0  0  0  0
  6  7  1  0  0  0  0
  6 29  1  0  0  0  0
  6 30  1  0  0  0  0
  7  8  1  0  0  0  0
  7 31  1  0  0  0  0
  7 32  1  0  0  0  0
  8  9  1  0  0  0  0
  8 33  1  0  0  0  0
  9 10  2  0  0  0  0
  9 11  1  0  0  0  0
 11 12  1  0  0  0  0
 11 34  1  0  0  0  0
 12 21  1  0  0  0  0
 12 13  1  0  0  0  0
 12 35  1  0  0  0  0
 13 14  1  0  0  0  0
 13 36  1  0  0  0  0
 13 37  1  0  0  0  0
 14 15  1  0  0  0  0
 14 38  1  0  0  0  0
 14 39  1  0  0  0  0
 15 16  1  0  0  0  0
 15 40  1  0  0  0  0
 15 41  1  0  0  0  0
 16 17  1  0  0  0  0
 16 21  1  0  0  0  0
 16 42  1  0  0  0  0
 17 18  1  0  0  0  0
 17 19  1  0  0  0  0
 17 20  1  0  0  0  0
 21 43  1  0  0  0  0
 21 44  1  0  0  0  0
 22 23  2  0  0  0  0
 22 45  1  0  0  0  0
M  END
> <s_m_source_file>
AV-unprocessed.smi

> <i_m_source_file_index>
937

> <i_lp_mmshare_version>
43012

> <i_f3d_flags>
0

> <s_epik_input>
W0NIM11jMVtjSF1bY0hdYyhbY0hdbjEpW0NIMl1bQ0gyXVtOSF1DKD1PKVtOSF1bQ0BASF0yW0NIMl1bQ0gyXVtDSDJdW0NAQEhdKEMoRikoRilGKVtDSDJdMg==

> <s_epik_cmdline>
J2VwaWtfcHl0aG9uJywgJy1waCcsICc3LjAnLCAnLXRuJywgJzgnLCAnLW1hJywgJzIwMCcsICctbWV0YWxfYmluZGluZycsICctaW1hZScsICc8aW5maWxlLm1hZT4nLCAnLW9tYWUnLCAnPG91dGZpbGUubWFlPic=

> <r_epik_Ionization_Penalty>
0.0563445

> <r_epik_Ionization_Penalty_Charging>
0

> <r_epik_Ionization_Penalty_Neutral>
0.0563445

> <r_epik_State_Penalty>
0.0485409

> <r_epik_Charging_Adjusted_Penalty>
0.0485409

> <i_epik_Tot_Q>
0

> <i_epik_Tot_abs_Q>
0

> <r_epik_Metal_State_Penalty>
0.0443056

> <b_epik_Metal_Only>
0

> <s_lp_Force_Field>
OPLS_2005

> <r_lp_Energy>
18.524

> <b_lp_Chiralities_Consistent>
1

> <s_lp_Variant>
AV-unprocessed.smi:937-4

> <Gold.Version>
5.8.1

> <Gold.Id.Protein>
6NUR|6NUR_protein|mol2

> <Gold.PLP.Fitness>
44.9349

> <Gold.PLP.PLP>
-36.2185

> <Gold.PLP.part.hbond>
-3.0000

> <Gold.PLP.part.metal>
0.0000

> <Gold.PLP.part.buried>
-1.6157

> <Gold.PLP.part.nonpolar>
-31.4289

> <Gold.PLP.part.repulsive>
0.0288

> <Gold.PLP.ligand.clash>
0.0000

> <Gold.PLP.ligand.torsion>
0.1536

> <Gold.PLP.Chemscore.Hbond>
2.9920

> <Gold.PLP.Chemscore.CHOScore>
0.0000

> <Gold.PLP.Chemscore.Metal>
0.0000

> <Gold.Chemscore.Hbonds>
donor molecule, donor type, donor heavy atom, donor atom, acceptor molecule, acceptor atom, score
      L1  H     8    33       P1  7948  1.00
      L1  H    11    34       P1  7948  0.99
      P1  H  7997  8010       L1    23  0.71

> <Gold.PLP.Chemscore.Internal.Correction>
0.0476

> <Gold.Rescore>
     Score         DG    S(hbond)    S(metal)    S(lipo)     H(rot)  DE(clash)    DE(int)     intcor
     19.18     -19.35       2.44        0.00      83.46       1.58       0.05       0.12       ----

> <Gold.Chemscore.Fitness>
19.1825

> <Gold.Chemscore.DG>
-19.3520

> <Gold.Chemscore.ZeroCoef>
-5.4800

> <Gold.Chemscore.Hbond>
2.4443

> <Gold.Chemscore.Metal>
0.0000

> <Gold.Chemscore.Lipo>
83.4645

> <Gold.Chemscore.Internal_Hbond>
0.0000

> <Gold.Chemscore.DEClash>
0.0502

> <Gold.Chemscore.DEInternal>
0.1193

> <Gold.Chemscore.Rot>
1.5849

> <Gold.Chemscore.Internal.Correction>
   9.000000E+99

> <Gold.Chemscore.Hbonds>
donor molecule, donor type, donor heavy atom, donor atom, acceptor molecule, acceptor atom, score
      L1  H     8    33       P1  7948  0.96
      L1  H    11    34       P1  7948  0.94
      P1  H  7997  8010       L1    23  0.13

> <Gold.Chemscore.Hbond.Weighted>
-8.1640

> <Gold.Chemscore.Metal.Weighted>
-0.0000

> <Gold.Chemscore.Lipo.Weighted>
-9.7653

> <Gold.Chemscore.Internal_Hbond.Weighted>
0.0000

> <Gold.Chemscore.DEClash.Weighted>
0.0502

> <Gold.Chemscore.DEInternal.Weighted>
0.1193

> <Gold.Chemscore.Rot.Weighted>
4.0574

> <Gold.Chemscore.Internal.Correction.Weighted>
   9.000000E+99

> <Gold.Protein.RotatedTorsions>
[ 6907 6896 6895 6894 ] final  134.99 input  -60.11 | X-H torsion
[ 7974 7965 7964 7962 ] final  135.32 input  175.53 | X-H torsion
[ 8008 7997 7996 7995 ] final   43.30 input   59.86 | X-H torsion
[ 10167 10162 10161 10158 ] final -133.53 input  -65.29 | X-H torsion
[ 10718 10713 10712 10709 ] final   97.05 input   66.30 | X-H torsion
[ 10763 10752 10751 10750 ] final   95.69 input  -60.55 | X-H torsion
[ 11005 11000 10999 10996 ] final   95.84 input  -57.11 | X-H torsion

> <Gold.Protein.ActiveResidues>
 VAL166  LYS551  ARG553  GLY616  TRP617  ASP618  TYR619  PRO620  LYS621  CYS622 
 ASP623  PHE694  ASN695  SER759  ASP760  ASP761  ALA762  ILE779  LEU786  VAL792 
 PHE793  MET794  SER795  GLU796  ALA797  LYS798  CYS799  TRP800  GLU811  SER814 

> <Gold.Protein.RotatedAtoms>
  152.3053  133.5697  159.5644 H   0  0  0  0  0  0  0  0  0  0  0  0  # atno 6907 bound_to 6896
  150.7297  134.0232  159.3717 H   0  0  0  0  0  0  0  0  0  0  0  0  # atno 6908 bound_to 6896
  151.8129  135.0676  160.0466 H   0  0  0  0  0  0  0  0  0  0  0  0  # atno 6909 bound_to 6896
  144.9675  139.4641  143.5449 H   0  0  0  0  0  0  0  0  0  0  0  0  # atno 7974 bound_to 7965
  155.3004  140.3384  155.4248 H   0  0  0  0  0  0  0  0  0  0  0  0  # atno 8008 bound_to 7997
  156.2004  140.1730  156.7950 H   0  0  0  0  0  0  0  0  0  0  0  0  # atno 8009 bound_to 7997
  154.5552  140.0698  156.8715 H   0  0  0  0  0  0  0  0  0  0  0  0  # atno 8010 bound_to 7997
  139.8973  143.6650  152.2601 H   0  0  0  0  0  0  0  0  0  0  0  0  # atno 10167 bound_to 10162
  157.6918  131.0597  150.4584 H   0  0  0  0  0  0  0  0  0  0  0  0  # atno 10718 bound_to 10713
  153.2562  135.4245  155.0847 H   0  0  0  0  0  0  0  0  0  0  0  0  # atno 10763 bound_to 10752
  154.8402  135.3438  154.6443 H   0  0  0  0  0  0  0  0  0  0  0  0  # atno 10764 bound_to 10752
  153.6863  135.7036  153.5160 H   0  0  0  0  0  0  0  0  0  0  0  0  # atno 10765 bound_to 10752
  139.8786  134.8920  156.4070 H   0  0  0  0  0  0  0  0  0  0  0  0  # atno 11005 bound_to 11000
  146.3372  139.8866  142.8815 LP  0  0  0  0  0  0  0  0  0  0  0  0  # atno 17320 bound_to 7965
  145.2607  141.0076  143.3828 LP  0  0  0  0  0  0  0  0  0  0  0  0  # atno 17321 bound_to 7965
  139.7056  144.7628  151.1199 LP  0  0  0  0  0  0  0  0  0  0  0  0  # atno 17342 bound_to 10162
  140.7714  143.5399  150.9325 LP  0  0  0  0  0  0  0  0  0  0  0  0  # atno 17343 bound_to 10162
  156.4930  130.4099  149.6395 LP  0  0  0  0  0  0  0  0  0  0  0  0  # atno 17370 bound_to 10713
  156.3399  130.7376  151.2320 LP  0  0  0  0  0  0  0  0  0  0  0  0  # atno 17371 bound_to 10713
  140.9227  133.7634  155.9926 LP  0  0  0  0  0  0  0  0  0  0  0  0  # atno 17394 bound_to 11000
  140.8421  134.3054  157.5309 LP  0  0  0  0  0  0  0  0  0  0  0  0  # atno 17395 bound_to 11000

$$$$
