AV-unprocessed.smi:1247|AV-procd|sdf|5245|dock8
  -GOLD-   22720 4353D 1   1.00000     0.00000
 Structure written by MMmdl.
 46 47  0  0  0  0  0  0  0  0  1 V2000
  146.2663  129.5564  152.0246 C   0  0  0  0  0  0  0  0  0  0  0  0
  146.9319  130.8281  152.4606 C   0  0  0  0  0  0  0  0  0  0  0  0
  146.4693  132.1647  152.2878 C   0  0  0  0  0  0  0  0  0  0  0  0
  147.4636  132.9060  152.8663 C   0  0  0  0  0  0  0  0  0  0  0  0
  147.5580  134.2570  152.9894 N   0  0  0  0  0  0  0  0  0  0  0  0
  146.9095  135.0706  153.8414 C   0  0  0  0  0  0  0  0  0  0  0  0
  146.0958  134.7112  154.6926 O   0  0  0  0  0  0  0  0  0  0  0  0
  147.2570  136.3514  153.6493 N   0  0  0  0  0  0  0  0  0  0  0  0
  146.7241  137.4821  154.4004 C   0  0  0  0  0  0  0  0  0  0  0  0
  147.3019  138.8157  153.8899 C   0  0  0  0  0  0  0  0  0  0  0  0
  148.4641  139.3075  154.6271 N   0  0  0  0  0  0  0  0  0  0  0  0
  149.7027  138.6395  154.2393 C   0  0  0  0  0  0  0  0  0  0  0  0
  150.9120  139.1632  155.0364 C   0  0  1  0  0  0  0  0  0  0  0  0
  152.2284  138.5330  154.5697 C   0  0  0  0  0  0  0  0  0  0  0  0
  151.0163  140.5764  154.8729 O   0  0  0  0  0  0  0  0  0  0  0  0
  149.8392  141.3152  155.2027 C   0  0  2  0  0  0  0  0  0  0  0  0
  149.6242  141.3997  156.7235 C   0  0  0  0  0  0  0  0  0  0  0  0
  148.6239  140.7464  154.4440 C   0  0  0  0  0  0  0  0  0  0  0  0
  148.4332  132.0511  153.3452 N   0  0  0  0  0  0  0  0  0  0  0  0
  149.6788  132.3420  154.0282 C   0  0  0  0  0  0  0  0  0  0  0  0
  148.1004  130.7677  153.0888 N   0  0  0  0  0  0  0  0  0  0  0  0
  145.3001  129.7563  151.5607 H   0  0  0  0  0  0  0  0  0  0  0  0
  146.0957  128.8911  152.8712 H   0  0  0  0  0  0  0  0  0  0  0  0
  146.8787  129.0226  151.2976 H   0  0  0  0  0  0  0  0  0  0  0  0
  145.5588  132.4993  151.8141 H   0  0  0  0  0  0  0  0  0  0  0  0
  148.1945  134.7037  152.3459 H   0  0  0  0  0  0  0  0  0  0  0  0
  147.9343  136.5608  152.9306 H   0  0  0  0  0  0  0  0  0  0  0  0
  145.6343  137.4895  154.3413 H   0  0  0  0  0  0  0  0  0  0  0  0
  146.9788  137.3252  155.4481 H   0  0  0  0  0  0  0  0  0  0  0  0
  147.5475  138.7264  152.8307 H   0  0  0  0  0  0  0  0  0  0  0  0
  146.5128  139.5665  153.9501 H   0  0  0  0  0  0  0  0  0  0  0  0
  149.6201  137.5659  154.4050 H   0  0  0  0  0  0  0  0  0  0  0  0
  149.8793  138.7793  153.1716 H   0  0  0  0  0  0  0  0  0  0  0  0
  150.7785  138.9307  156.0933 H   0  0  0  0  0  0  0  0  0  0  0  0
  152.2096  137.4496  154.6900 H   0  0  0  0  0  0  0  0  0  0  0  0
  153.0694  138.9167  155.1477 H   0  0  0  0  0  0  0  0  0  0  0  0
  152.4198  138.7511  153.5186 H   0  0  0  0  0  0  0  0  0  0  0  0
  150.0078  142.3328  154.8493 H   0  0  0  0  0  0  0  0  0  0  0  0
  148.7886  142.0588  156.9602 H   0  0  0  0  0  0  0  0  0  0  0  0
  150.5096  141.7973  157.2198 H   0  0  0  0  0  0  0  0  0  0  0  0
  149.4040  140.4265  157.1613 H   0  0  0  0  0  0  0  0  0  0  0  0
  148.7407  140.9641  153.3811 H   0  0  0  0  0  0  0  0  0  0  0  0
  147.7204  141.2668  154.7644 H   0  0  0  0  0  0  0  0  0  0  0  0
  149.6423  133.3321  154.4826 H   0  0  0  0  0  0  0  0  0  0  0  0
  150.5024  132.3079  153.3146 H   0  0  0  0  0  0  0  0  0  0  0  0
  149.8554  131.6053  154.8127 H   0  0  0  0  0  0  0  0  0  0  0  0
  1  2  1  0  0  0  0
  1 22  1  0  0  0  0
  1 23  1  0  0  0  0
  1 24  1  0  0  0  0
  2 21  2  0  0  0  0
  2  3  1  0  0  0  0
  3  4  2  0  0  0  0
  3 25  1  0  0  0  0
  4  5  1  0  0  0  0
  4 19  1  0  0  0  0
  5  6  1  0  0  0  0
  5 26  1  0  0  0  0
  6  7  2  0  0  0  0
  6  8  1  0  0  0  0
  8  9  1  0  0  0  0
  8 27  1  0  0  0  0
  9 10  1  0  0  0  0
  9 28  1  0  0  0  0
  9 29  1  0  0  0  0
 10 11  1  0  0  0  0
 10 30  1  0  0  0  0
 10 31  1  0  0  0  0
 11 18  1  0  0  0  0
 11 12  1  0  0  0  0
 12 13  1  0  0  0  0
 12 32  1  0  0  0  0
 12 33  1  0  0  0  0
 13 14  1  0  0  0  0
 13 15  1  0  0  0  0
 13 34  1  0  0  0  0
 14 35  1  0  0  0  0
 14 36  1  0  0  0  0
 14 37  1  0  0  0  0
 15 16  1  0  0  0  0
 16 17  1  0  0  0  0
 16 18  1  0  0  0  0
 16 38  1  0  0  0  0
 17 39  1  0  0  0  0
 17 40  1  0  0  0  0
 17 41  1  0  0  0  0
 18 42  1  0  0  0  0
 18 43  1  0  0  0  0
 19 20  1  0  0  0  0
 19 21  1  0  0  0  0
 20 44  1  0  0  0  0
 20 45  1  0  0  0  0
 20 46  1  0  0  0  0
M  END
> <s_m_source_file>
AV-unprocessed.smi

> <i_m_source_file_index>
1247

> <i_lp_mmshare_version>
43012

> <i_f3d_flags>
0

> <s_epik_input>
W0NIM11jMVtjSF1jKG4objEpW0NIM10pW05IXUMoPU8pW05IXVtDSDJdW0NIMl1OMltDSDJdW0NAQEhdKFtDSDNdKU9bQ0BASF0oW0NIM10pW0NIMl0y

> <s_epik_cmdline>
J2VwaWtfcHl0aG9uJywgJy1waCcsICc3LjAnLCAnLXRuJywgJzgnLCAnLW1hJywgJzIwMCcsICctbWV0YWxfYmluZGluZycsICctaW1hZScsICc8aW5maWxlLm1hZT4nLCAnLW9tYWUnLCAnPG91dGZpbGUubWFlPic=

> <r_lp_tautomer_probability>
1

> <r_epik_Ionization_Penalty>
0.233972

> <r_epik_Ionization_Penalty_Charging>
0

> <r_epik_Ionization_Penalty_Neutral>
0.233972

> <r_epik_State_Penalty>
0.224627

> <r_epik_Charging_Adjusted_Penalty>
0.224627

> <i_epik_Tot_Q>
0

> <i_epik_Tot_abs_Q>
0

> <r_epik_Metal_State_Penalty>
0.224624

> <b_epik_Metal_Only>
0

> <s_lp_Force_Field>
OPLS_2005

> <r_lp_Energy>
23.3755

> <b_lp_Chiralities_Consistent>
1

> <s_lp_Variant>
AV-unprocessed.smi:1247-3

> <Gold.Version>
5.8.1

> <Gold.Id.Protein>
6NUR|6NUR_protein|mol2

> <Gold.PLP.Fitness>
41.2216

> <Gold.PLP.PLP>
-34.5305

> <Gold.PLP.part.hbond>
-2.9740

> <Gold.PLP.part.metal>
0.0000

> <Gold.PLP.part.buried>
-2.8807

> <Gold.PLP.part.nonpolar>
-28.6765

> <Gold.PLP.part.repulsive>
0.3315

> <Gold.PLP.ligand.clash>
0.0000

> <Gold.PLP.ligand.torsion>
1.1466

> <Gold.PLP.Chemscore.Hbond>
2.9920

> <Gold.PLP.Chemscore.CHOScore>
0.0000

> <Gold.PLP.Chemscore.Metal>
0.0000

> <Gold.Chemscore.Hbonds>
donor molecule, donor type, donor heavy atom, donor atom, acceptor molecule, acceptor atom, score
      L1  H     5    26       P1  7948  0.96
      L1  H     8    27       P1  7948  0.96
      P1  H  7989  7998       L1    15  0.99

> <Gold.PLP.Chemscore.Internal.Correction>
0.0083

> <Gold.Rescore>
     Score         DG    S(hbond)    S(metal)    S(lipo)     H(rot)  DE(clash)    DE(int)     intcor
     17.73     -18.94       2.60        0.00      73.40       1.48       0.10       1.11       ----

> <Gold.Chemscore.Fitness>
17.7295

> <Gold.Chemscore.DG>
-18.9425

> <Gold.Chemscore.ZeroCoef>
-5.4800

> <Gold.Chemscore.Hbond>
2.5969

> <Gold.Chemscore.Metal>
0.0000

> <Gold.Chemscore.Lipo>
73.3957

> <Gold.Chemscore.Internal_Hbond>
0.0000

> <Gold.Chemscore.DEClash>
0.0998

> <Gold.Chemscore.DEInternal>
1.1132

> <Gold.Chemscore.Rot>
1.4838

> <Gold.Chemscore.Internal.Correction>
   9.000000E+99

> <Gold.Chemscore.Hbonds>
donor molecule, donor type, donor heavy atom, donor atom, acceptor molecule, acceptor atom, score
      L1  H     5    26       P1  7948  0.28
      L1  H     8    27       P1  7948  0.89
      P1  H  7989  7998       L1    15  0.61

> <Gold.Chemscore.Hbond.Weighted>
-8.6736

> <Gold.Chemscore.Metal.Weighted>
-0.0000

> <Gold.Chemscore.Lipo.Weighted>
-8.5873

> <Gold.Chemscore.Internal_Hbond.Weighted>
0.0000

> <Gold.Chemscore.DEClash.Weighted>
0.0998

> <Gold.Chemscore.DEInternal.Weighted>
1.1132

> <Gold.Chemscore.Rot.Weighted>
3.7985

> <Gold.Chemscore.Internal.Correction.Weighted>
   9.000000E+99

> <Gold.Protein.RotatedTorsions>
[ 6907 6896 6895 6894 ] final  107.57 input  -60.11 | X-H torsion
[ 7974 7965 7964 7962 ] final -130.72 input  175.53 | X-H torsion
[ 8008 7997 7996 7995 ] final  -58.48 input   59.86 | X-H torsion
[ 10167 10162 10161 10158 ] final -139.72 input  -65.29 | X-H torsion
[ 10718 10713 10712 10709 ] final   93.61 input   66.30 | X-H torsion
[ 10763 10752 10751 10750 ] final   58.28 input  -60.55 | X-H torsion
[ 11005 11000 10999 10996 ] final   -8.37 input  -57.11 | X-H torsion

> <Gold.Protein.ActiveResidues>
 VAL166  LYS551  ARG553  GLY616  TRP617  ASP618  TYR619  PRO620  LYS621  CYS622 
 ASP623  PHE694  ASN695  SER759  ASP760  ASP761  ALA762  ILE779  LEU786  VAL792 
 PHE793  MET794  SER795  GLU796  ALA797  LYS798  CYS799  TRP800  GLU811  SER814 

> <Gold.Protein.RotatedAtoms>
  152.5149  133.9216  159.7536 H   0  0  0  0  0  0  0  0  0  0  0  0  # atno 6907 bound_to 6896
  150.9586  133.6461  159.2765 H   0  0  0  0  0  0  0  0  0  0  0  0  # atno 6908 bound_to 6896
  151.3714  135.0928  159.9519 H   0  0  0  0  0  0  0  0  0  0  0  0  # atno 6909 bound_to 6896
  144.9448  140.7279  143.4824 H   0  0  0  0  0  0  0  0  0  0  0  0  # atno 7974 bound_to 7965
  154.4311  140.1083  156.5964 H   0  0  0  0  0  0  0  0  0  0  0  0  # atno 8008 bound_to 7997
  155.5958  140.3492  155.4560 H   0  0  0  0  0  0  0  0  0  0  0  0  # atno 8009 bound_to 7997
  156.0211  140.1240  157.0345 H   0  0  0  0  0  0  0  0  0  0  0  0  # atno 8010 bound_to 7997
  139.8351  143.7395  152.2665 H   0  0  0  0  0  0  0  0  0  0  0  0  # atno 10167 bound_to 10162
  157.6953  131.0484  150.4059 H   0  0  0  0  0  0  0  0  0  0  0  0  # atno 10718 bound_to 10713
  152.9867  135.5612  154.5526 H   0  0  0  0  0  0  0  0  0  0  0  0  # atno 10763 bound_to 10752
  154.4960  135.2795  155.1461 H   0  0  0  0  0  0  0  0  0  0  0  0  # atno 10764 bound_to 10752
  154.2910  135.6326  153.5438 H   0  0  0  0  0  0  0  0  0  0  0  0  # atno 10765 bound_to 10752
  140.7228  133.8814  155.8833 H   0  0  0  0  0  0  0  0  0  0  0  0  # atno 11005 bound_to 11000
  145.2935  139.1875  143.4727 LP  0  0  0  0  0  0  0  0  0  0  0  0  # atno 17320 bound_to 7965
  146.3299  140.2915  142.8615 LP  0  0  0  0  0  0  0  0  0  0  0  0  # atno 17321 bound_to 7965
  139.7615  144.7505  151.0357 LP  0  0  0  0  0  0  0  0  0  0  0  0  # atno 17342 bound_to 10162
  140.7803  143.4746  151.0100 LP  0  0  0  0  0  0  0  0  0  0  0  0  # atno 17343 bound_to 10162
  156.4448  130.3999  149.6674 LP  0  0  0  0  0  0  0  0  0  0  0  0  # atno 17370 bound_to 10713
  156.3844  130.7595  151.2591 LP  0  0  0  0  0  0  0  0  0  0  0  0  # atno 17371 bound_to 10713
  140.9989  134.1177  157.4337 LP  0  0  0  0  0  0  0  0  0  0  0  0  # atno 17394 bound_to 11000
  139.8844  135.0062  156.6367 LP  0  0  0  0  0  0  0  0  0  0  0  0  # atno 17395 bound_to 11000

$$$$
