AV-unprocessed.smi:781|AV-procd|sdf|3708|dock3
  -GOLD-   22720 1133D 1   1.00000     0.00000
 Structure written by MMmdl.
 38 40  0  0  0  0  0  0  0  0  1 V2000
  150.6965  141.9975  156.2553 C   0  0  0  0  0  0  0  0  0  0  0  0
  150.3971  140.7707  155.4635 C   0  0  0  0  0  0  0  0  0  0  0  0
  149.2289  140.1776  155.0745 C   0  0  0  0  0  0  0  0  0  0  0  0
  149.6735  139.0430  154.3452 C   0  0  0  0  0  0  0  0  0  0  0  0
  148.7454  138.1456  153.7587 N   0  0  0  0  0  0  0  0  0  0  0  0
  147.4288  138.0486  154.0096 C   0  0  0  0  0  0  0  0  0  0  0  0
  146.8029  138.7518  154.8030 O   0  0  0  0  0  0  0  0  0  0  0  0
  146.8642  137.0808  153.2743 N   0  0  0  0  0  0  0  0  0  0  0  0
  145.4435  136.7312  153.2987 C   0  0  1  0  0  0  0  0  0  0  0  0
  144.7899  136.7133  151.8921 C   0  0  1  0  0  0  0  0  0  0  0  0
  145.6262  135.8822  150.8959 C   0  0  0  0  0  0  0  0  0  0  0  0
  145.4178  134.4439  151.4025 C   0  0  0  0  0  0  0  0  0  0  0  0
  144.4617  134.6330  152.5991 C   0  0  2  0  0  0  0  0  0  0  0  0
  143.5968  135.7876  152.1067 C   0  0  0  0  0  0  0  0  0  0  0  0
  145.1651  135.2902  153.8118 C   0  0  1  0  0  0  0  0  0  0  0  0
  146.3573  134.5105  154.4114 C   0  0  0  0  0  0  0  0  0  0  0  0
  147.4923  134.6361  153.5813 O   0  0  0  0  0  0  0  0  0  0  0  0
  150.9937  138.9518  154.2931 N   0  0  0  0  0  0  0  0  0  0  0  0
  151.4641  140.0593  155.0085 O   0  0  0  0  0  0  0  0  0  0  0  0
  149.8537  142.2639  156.8931 H   0  0  0  0  0  0  0  0  0  0  0  0
  150.9025  142.8408  155.5964 H   0  0  0  0  0  0  0  0  0  0  0  0
  151.5671  141.8458  156.8937 H   0  0  0  0  0  0  0  0  0  0  0  0
  148.2209  140.5052  155.2805 H   0  0  0  0  0  0  0  0  0  0  0  0
  149.1252  137.5090  153.0741 H   0  0  0  0  0  0  0  0  0  0  0  0
  147.4519  136.5526  152.6467 H   0  0  0  0  0  0  0  0  0  0  0  0
  144.9160  137.4391  153.9413 H   0  0  0  0  0  0  0  0  0  0  0  0
  144.5348  137.7058  151.5191 H   0  0  0  0  0  0  0  0  0  0  0  0
  145.2282  135.9875  149.8857 H   0  0  0  0  0  0  0  0  0  0  0  0
  146.6772  136.1677  150.8576 H   0  0  0  0  0  0  0  0  0  0  0  0
  144.9444  133.8386  150.6284 H   0  0  0  0  0  0  0  0  0  0  0  0
  146.3518  133.9517  151.6688 H   0  0  0  0  0  0  0  0  0  0  0  0
  143.9050  133.7314  152.8569 H   0  0  0  0  0  0  0  0  0  0  0  0
  142.8928  136.1554  152.8554 H   0  0  0  0  0  0  0  0  0  0  0  0
  143.0516  135.5611  151.1885 H   0  0  0  0  0  0  0  0  0  0  0  0
  144.4218  135.3746  154.6071 H   0  0  0  0  0  0  0  0  0  0  0  0
  146.6091  134.8476  155.4164 H   0  0  0  0  0  0  0  0  0  0  0  0
  146.1099  133.4512  154.4870 H   0  0  0  0  0  0  0  0  0  0  0  0
  147.5028  135.5074  153.2154 H   0  0  0  0  0  0  0  0  0  0  0  0
  1  2  1  0  0  0  0
  1 20  1  0  0  0  0
  1 21  1  0  0  0  0
  1 22  1  0  0  0  0
  2 19  1  0  0  0  0
  2  3  2  0  0  0  0
  3  4  1  0  0  0  0
  3 23  1  0  0  0  0
  4  5  1  0  0  0  0
  4 18  2  0  0  0  0
  5  6  1  0  0  0  0
  5 24  1  0  0  0  0
  6  7  2  0  0  0  0
  6  8  1  0  0  0  0
  8  9  1  0  0  0  0
  8 25  1  0  0  0  0
  9 15  1  0  0  0  0
  9 10  1  0  0  0  0
  9 26  1  0  0  0  0
 10 14  1  0  0  0  0
 10 11  1  0  0  0  0
 10 27  1  0  0  0  0
 11 12  1  0  0  0  0
 11 28  1  0  0  0  0
 11 29  1  0  0  0  0
 12 13  1  0  0  0  0
 12 30  1  0  0  0  0
 12 31  1  0  0  0  0
 13 14  1  0  0  0  0
 13 15  1  0  0  0  0
 13 32  1  0  0  0  0
 14 33  1  0  0  0  0
 14 34  1  0  0  0  0
 15 16  1  0  0  0  0
 15 35  1  0  0  0  0
 16 17  1  0  0  0  0
 16 36  1  0  0  0  0
 16 37  1  0  0  0  0
 17 38  1  0  0  0  0
 18 19  1  0  0  0  0
M  END
> <s_m_source_file>
AV-unprocessed.smi

> <i_m_source_file_index>
781

> <i_lp_mmshare_version>
43012

> <i_f3d_flags>
0

> <s_epik_input>
W0NIM11jMVtjSF1jKG5vMSlbTkhdQyg9TylbTkhdW0NASF0oW0NAQEhdMjMpW0NASF0oW0NIMl1bT0hdKVtDQEBIXShbQ0gyXTMpW0NIMl1bQ0gyXTI=

> <s_epik_cmdline>
J2VwaWtfcHl0aG9uJywgJy1waCcsICc3LjAnLCAnLXRuJywgJzgnLCAnLW1hJywgJzIwMCcsICctbWV0YWxfYmluZGluZycsICctaW1hZScsICc8aW5maWxlLm1hZT4nLCAnLW9tYWUnLCAnPG91dGZpbGUubWFlPic=

> <r_lp_tautomer_probability>
1

> <r_epik_Ionization_Penalty>
2.32222e-05

> <r_epik_Ionization_Penalty_Charging>
0

> <r_epik_Ionization_Penalty_Neutral>
2.32222e-05

> <r_epik_State_Penalty>
-0

> <r_epik_Charging_Adjusted_Penalty>
0

> <i_epik_Tot_Q>
0

> <i_epik_Tot_abs_Q>
0

> <r_epik_Metal_State_Penalty>
-0

> <b_epik_Metal_Only>
0

> <s_lp_Force_Field>
OPLS_2005

> <r_lp_Energy>
48.8521

> <b_lp_Chiralities_Consistent>
1

> <s_lp_Variant>
AV-unprocessed.smi:781-2

> <Gold.Version>
5.8.1

> <Gold.Id.Protein>
6NUR|6NUR_protein|mol2

> <Gold.PLP.Fitness>
34.0059

> <Gold.PLP.PLP>
-26.0503

> <Gold.PLP.part.hbond>
-4.6052

> <Gold.PLP.part.metal>
0.0000

> <Gold.PLP.part.buried>
-2.7575

> <Gold.PLP.part.nonpolar>
-19.2390

> <Gold.PLP.part.repulsive>
0.3156

> <Gold.PLP.ligand.clash>
0.0000

> <Gold.PLP.ligand.torsion>
0.1874

> <Gold.PLP.Chemscore.Hbond>
2.7734

> <Gold.PLP.Chemscore.CHOScore>
0.0000

> <Gold.PLP.Chemscore.Metal>
0.0000

> <Gold.Chemscore.Hbonds>
donor molecule, donor type, donor heavy atom, donor atom, acceptor molecule, acceptor atom, score
      L1  H     5    24       P1  7948  1.00
      L1  H     8    25       P1  7948  1.00
      L1  H    17    38       P1  7948  0.40
      P1  H  7989  7998       L1    19  0.36

> <Gold.PLP.Chemscore.Internal.Correction>
0.0101

> <Gold.Rescore>
     Score         DG    S(hbond)    S(metal)    S(lipo)     H(rot)  DE(clash)    DE(int)     intcor
      9.50     -14.89       2.39        0.00      52.93       1.86       1.13       4.25       ----

> <Gold.Chemscore.Fitness>
9.5012

> <Gold.Chemscore.DG>
-14.8851

> <Gold.Chemscore.ZeroCoef>
-5.4800

> <Gold.Chemscore.Hbond>
2.3865

> <Gold.Chemscore.Metal>
0.0000

> <Gold.Chemscore.Lipo>
52.9271

> <Gold.Chemscore.Internal_Hbond>
0.0000

> <Gold.Chemscore.DEClash>
1.1302

> <Gold.Chemscore.DEInternal>
4.2538

> <Gold.Chemscore.Rot>
1.8587

> <Gold.Chemscore.Internal.Correction>
   9.000000E+99

> <Gold.Chemscore.Hbonds>
donor molecule, donor type, donor heavy atom, donor atom, acceptor molecule, acceptor atom, score
      L1  H     5    24       P1  7948  0.97
      L1  H     8    25       P1  7948  0.97
      L1  H    17    38       P1  7948  0.39

> <Gold.Chemscore.Hbond.Weighted>
-7.9709

> <Gold.Chemscore.Metal.Weighted>
-0.0000

> <Gold.Chemscore.Lipo.Weighted>
-6.1925

> <Gold.Chemscore.Internal_Hbond.Weighted>
0.0000

> <Gold.Chemscore.DEClash.Weighted>
1.1302

> <Gold.Chemscore.DEInternal.Weighted>
4.2538

> <Gold.Chemscore.Rot.Weighted>
4.7583

> <Gold.Chemscore.Internal.Correction.Weighted>
   9.000000E+99

> <Gold.Protein.RotatedTorsions>
[ 6907 6896 6895 6894 ] final -165.20 input  -60.11 | X-H torsion
[ 7974 7965 7964 7962 ] final -173.67 input  175.53 | X-H torsion
[ 8008 7997 7996 7995 ] final  -78.94 input   59.86 | X-H torsion
[ 10167 10162 10161 10158 ] final  153.83 input  -65.29 | X-H torsion
[ 10718 10713 10712 10709 ] final   63.43 input   66.30 | X-H torsion
[ 10763 10752 10751 10750 ] final   94.04 input  -60.55 | X-H torsion
[ 11005 11000 10999 10996 ] final  -73.16 input  -57.11 | X-H torsion

> <Gold.Protein.ActiveResidues>
 VAL166  LYS551  ARG553  GLY616  TRP617  ASP618  TYR619  PRO620  LYS621  CYS622 
 ASP623  PHE694  ASN695  SER759  ASP760  ASP761  ALA762  ILE779  LEU786  VAL792 
 PHE793  MET794  SER795  GLU796  ALA797  LYS798  CYS799  TRP800  GLU811  SER814 

> <Gold.Protein.RotatedAtoms>
  151.4239  133.3690  159.2759 H   0  0  0  0  0  0  0  0  0  0  0  0  # atno 6907 bound_to 6896
  150.9273  134.8691  159.7539 H   0  0  0  0  0  0  0  0  0  0  0  0  # atno 6908 bound_to 6896
  152.5011  134.4182  159.9523 H   0  0  0  0  0  0  0  0  0  0  0  0  # atno 6909 bound_to 6896
  144.7136  140.1587  143.6378 H   0  0  0  0  0  0  0  0  0  0  0  0  # atno 7974 bound_to 7965
  154.5737  140.0686  156.9003 H   0  0  0  0  0  0  0  0  0  0  0  0  # atno 8008 bound_to 7997
  155.2587  140.3357  155.4257 H   0  0  0  0  0  0  0  0  0  0  0  0  # atno 8009 bound_to 7997
  156.2138  140.1770  156.7621 H   0  0  0  0  0  0  0  0  0  0  0  0  # atno 8010 bound_to 7997
  139.4825  144.5239  151.7831 H   0  0  0  0  0  0  0  0  0  0  0  0  # atno 10167 bound_to 10162
  157.5970  130.9104  149.9714 H   0  0  0  0  0  0  0  0  0  0  0  0  # atno 10718 bound_to 10713
  153.2371  135.4304  155.0658 H   0  0  0  0  0  0  0  0  0  0  0  0  # atno 10763 bound_to 10752
  154.8323  135.3393  154.6703 H   0  0  0  0  0  0  0  0  0  0  0  0  # atno 10764 bound_to 10752
  153.7128  135.7022  153.5089 H   0  0  0  0  0  0  0  0  0  0  0  0  # atno 10765 bound_to 10752
  141.1619  133.6869  156.7169 H   0  0  0  0  0  0  0  0  0  0  0  0  # atno 11005 bound_to 11000
  145.9050  139.2453  143.1471 LP  0  0  0  0  0  0  0  0  0  0  0  0  # atno 17320 bound_to 7965
  145.9773  140.8712  143.0132 LP  0  0  0  0  0  0  0  0  0  0  0  0  # atno 17321 bound_to 7965
  140.4757  144.1523  150.5924 LP  0  0  0  0  0  0  0  0  0  0  0  0  # atno 17342 bound_to 10162
  140.4333  143.2558  151.9567 LP  0  0  0  0  0  0  0  0  0  0  0  0  # atno 17343 bound_to 10162
  156.1035  130.3654  150.0175 LP  0  0  0  0  0  0  0  0  0  0  0  0  # atno 17370 bound_to 10713
  156.8286  130.9384  151.3638 LP  0  0  0  0  0  0  0  0  0  0  0  0  # atno 17371 bound_to 10713
  140.2845  134.8290  157.3963 LP  0  0  0  0  0  0  0  0  0  0  0  0  # atno 17394 bound_to 11000
  140.1402  134.4981  155.8037 LP  0  0  0  0  0  0  0  0  0  0  0  0  # atno 17395 bound_to 11000

$$$$
