AV-unprocessed.smi:103|AV-procd|sdf|978|dock10
  -GOLD-   2262017543D 1   1.00000     0.00000
 Structure written by MMmdl.
 53 55  0  0  0  0  0  0  0  0  1 V2000
  149.0922  131.6607  155.4593 C   0  0  0  0  0  0  0  0  0  0  0  0
  148.8588  132.3931  156.7745 C   0  0  0  0  0  0  0  0  0  0  0  0
  149.6232  132.2542  157.7296 O   0  0  0  0  0  0  0  0  0  0  0  0
  147.7640  133.1730  156.7437 O   0  0  0  0  0  0  0  0  0  0  0  0
  147.4906  134.0776  157.8059 C   0  0  0  0  0  0  0  0  0  0  0  0
  148.7198  134.9552  158.1237 C   0  0  1  0  0  0  0  0  0  0  0  0
  149.1124  135.6167  156.9181 O   0  0  0  0  0  0  0  0  0  0  0  0
  148.9939  137.0004  157.0487 C   0  0  1  0  0  0  0  0  0  0  0  0
  148.4839  137.5879  155.7659 N   0  0  0  0  0  0  0  0  0  0  0  0
  149.0061  138.6249  155.0197 C   0  0  0  0  0  0  0  0  0  0  0  0
  150.5270  139.5068  155.3476 S   0  0  0  0  0  0  0  0  0  0  0  0
  150.1167  141.1943  154.7445 C   0  0  0  0  0  0  0  0  0  0  0  0
  150.6994  139.5376  156.8085 O   0  0  0  0  0  0  0  0  0  0  0  0
  151.5660  138.9260  154.4838 O   0  0  0  0  0  0  0  0  0  0  0  0
  148.3873  138.9200  153.9094 N   0  0  0  0  0  0  0  0  0  0  0  0
  147.2987  138.0600  153.9197 C   0  0  0  0  0  0  0  0  0  0  0  0
  146.1989  137.8553  153.0492 C   0  0  0  0  0  0  0  0  0  0  0  0
  146.0148  138.5618  151.9257 N   0  0  0  0  0  0  0  0  0  0  0  0
  145.2897  136.9046  153.3666 N   0  0  0  0  0  0  0  0  0  0  0  0
  145.4501  136.1874  154.4827 C   0  0  0  0  0  0  0  0  0  0  0  0
  146.4254  136.2649  155.3909 N   0  0  0  0  0  0  0  0  0  0  0  0
  147.3441  137.2237  155.0722 C   0  0  0  0  0  0  0  0  0  0  0  0
  148.0652  137.2612  158.2399 C   0  0  1  0  0  0  0  0  0  0  0  0
  146.6902  137.2090  157.8600 O   0  0  0  0  0  0  0  0  0  0  0  0
  145.7231  137.5718  158.7210 C   0  0  0  0  0  0  0  0  0  0  0  0
  144.3340  137.2053  158.2170 C   0  0  0  0  0  0  0  0  0  0  0  0
  145.8858  138.1499  159.7952 O   0  0  0  0  0  0  0  0  0  0  0  0
  148.4447  136.0874  159.1267 C   0  0  1  0  0  0  0  0  0  0  0  0
  147.4544  135.7751  160.1015 O   0  0  0  0  0  0  0  0  0  0  0  0
  147.6358  136.1249  161.3869 C   0  0  0  0  0  0  0  0  0  0  0  0
  146.5249  135.6092  162.2916 C   0  0  0  0  0  0  0  0  0  0  0  0
  148.5710  136.7905  161.8317 O   0  0  0  0  0  0  0  0  0  0  0  0
  148.1747  131.6154  154.8719 H   0  0  0  0  0  0  0  0  0  0  0  0
  149.4301  130.6414  155.6484 H   0  0  0  0  0  0  0  0  0  0  0  0
  149.8543  132.1736  154.8727 H   0  0  0  0  0  0  0  0  0  0  0  0
  146.6433  134.6993  157.5198 H   0  0  0  0  0  0  0  0  0  0  0  0
  147.1753  133.5205  158.6893 H   0  0  0  0  0  0  0  0  0  0  0  0
  149.5378  134.3352  158.4910 H   0  0  0  0  0  0  0  0  0  0  0  0
  149.9918  137.4159  157.1862 H   0  0  0  0  0  0  0  0  0  0  0  0
  150.9754  141.8495  154.8882 H   0  0  0  0  0  0  0  0  0  0  0  0
  149.2668  141.5825  155.3056 H   0  0  0  0  0  0  0  0  0  0  0  0
  149.8635  141.1526  153.6855 H   0  0  0  0  0  0  0  0  0  0  0  0
  146.6784  139.2783  151.6683 H   0  0  0  0  0  0  0  0  0  0  0  0
  145.2109  138.3811  151.3422 H   0  0  0  0  0  0  0  0  0  0  0  0
  144.6905  135.4442  154.6753 H   0  0  0  0  0  0  0  0  0  0  0  0
  148.3182  138.2087  158.7161 H   0  0  0  0  0  0  0  0  0  0  0  0
  144.2882  137.2840  157.1303 H   0  0  0  0  0  0  0  0  0  0  0  0
  143.5856  137.8743  158.6426 H   0  0  0  0  0  0  0  0  0  0  0  0
  144.0877  136.1824  158.5024 H   0  0  0  0  0  0  0  0  0  0  0  0
  149.3881  136.3214  159.6233 H   0  0  0  0  0  0  0  0  0  0  0  0
  145.5496  135.8077  161.8466 H   0  0  0  0  0  0  0  0  0  0  0  0
  146.5660  136.0990  163.2647 H   0  0  0  0  0  0  0  0  0  0  0  0
  146.6271  134.5344  162.4406 H   0  0  0  0  0  0  0  0  0  0  0  0
  1  2  1  0  0  0  0
  1 33  1  0  0  0  0
  1 34  1  0  0  0  0
  1 35  1  0  0  0  0
  2  3  2  0  0  0  0
  2  4  1  0  0  0  0
  4  5  1  0  0  0  0
  5  6  1  0  0  0  0
  5 36  1  0  0  0  0
  5 37  1  0  0  0  0
  6 28  1  0  0  0  0
  6  7  1  0  0  0  0
  6 38  1  0  0  0  0
  7  8  1  0  0  0  0
  8  9  1  0  0  0  0
  8 23  1  0  0  0  0
  8 39  1  0  0  0  0
  9 22  1  0  0  0  0
  9 10  1  0  0  0  0
 10 11  1  0  0  0  0
 10 15  2  0  0  0  0
 11 12  1  0  0  0  0
 11 13  2  0  0  0  0
 11 14  2  0  0  0  0
 12 40  1  0  0  0  0
 12 41  1  0  0  0  0
 12 42  1  0  0  0  0
 15 16  1  0  0  0  0
 16 22  2  0  0  0  0
 16 17  1  0  0  0  0
 17 18  1  0  0  0  0
 17 19  2  0  0  0  0
 18 43  1  0  0  0  0
 18 44  1  0  0  0  0
 19 20  1  0  0  0  0
 20 21  2  0  0  0  0
 20 45  1  0  0  0  0
 21 22  1  0  0  0  0
 23 24  1  0  0  0  0
 23 28  1  0  0  0  0
 23 46  1  0  0  0  0
 24 25  1  0  0  0  0
 25 26  1  0  0  0  0
 25 27  2  0  0  0  0
 26 47  1  0  0  0  0
 26 48  1  0  0  0  0
 26 49  1  0  0  0  0
 28 29  1  0  0  0  0
 28 50  1  0  0  0  0
 29 30  1  0  0  0  0
 30 31  1  0  0  0  0
 30 32  2  0  0  0  0
 31 51  1  0  0  0  0
 31 52  1  0  0  0  0
 31 53  1  0  0  0  0
M  END
> <s_m_source_file>
AV-unprocessed.smi

> <i_m_source_file_index>
103

> <i_lp_mmshare_version>
43012

> <i_f3d_flags>
0

> <s_epik_input>
W0NIM11DKD1PKU9bQ0gyXVtDQEBIXTFPW0NASF0oW0NAQEhdKE9DKD1PKVtDSDNdKVtDQEhdMU9DKD1PKVtDSDNdKW4oYyhuMilTKD1PKSg9TylbQ0gzXSljKGMyMyluW2NIXW5jM1tOSDJd

> <s_epik_cmdline>
J2VwaWtfcHl0aG9uJywgJy1waCcsICc3LjAnLCAnLXRuJywgJzgnLCAnLW1hJywgJzIwMCcsICctbWV0YWxfYmluZGluZycsICctaW1hZScsICc8aW5maWxlLm1hZT4nLCAnLW9tYWUnLCAnPG91dGZpbGUubWFlPic=

> <r_lp_tautomer_probability>
1

> <r_epik_Ionization_Penalty>
1.51338e-05

> <r_epik_Ionization_Penalty_Charging>
0

> <r_epik_Ionization_Penalty_Neutral>
1.51338e-05

> <r_epik_State_Penalty>
-0

> <r_epik_Charging_Adjusted_Penalty>
0

> <i_epik_Tot_Q>
0

> <i_epik_Tot_abs_Q>
0

> <r_epik_Metal_State_Penalty>
-0

> <b_epik_Metal_Only>
0

> <s_epik_Chemistry_Notes>
This compound has an ester and may undergo hydrolysis at high or low pH. This compound contains an acetal/aminal-like group ( X-CH(R)-Y where X, Y are N, S, or O) that may be acid/base labile, releasing an aldehyde.

> <s_lp_Force_Field>
OPLS_2005

> <r_lp_Energy>
15.224

> <b_lp_Chiralities_Consistent>
1

> <s_lp_Variant>
AV-unprocessed.smi:103-2

> <Gold.Version>
5.8.1

> <Gold.Id.Protein>
6NUR|6NUR_protein|mol2

> <Gold.PLP.Fitness>
39.1290

> <Gold.PLP.PLP>
-27.1577

> <Gold.PLP.part.hbond>
-5.7683

> <Gold.PLP.part.metal>
0.0000

> <Gold.PLP.part.buried>
-5.4732

> <Gold.PLP.part.nonpolar>
-17.2087

> <Gold.PLP.part.repulsive>
0.4514

> <Gold.PLP.ligand.clash>
0.0000

> <Gold.PLP.ligand.torsion>
2.2028

> <Gold.PLP.Chemscore.Hbond>
4.6214

> <Gold.PLP.Chemscore.CHOScore>
0.0000

> <Gold.PLP.Chemscore.Metal>
0.0000

> <Gold.Chemscore.Hbonds>
donor molecule, donor type, donor heavy atom, donor atom, acceptor molecule, acceptor atom, score
      L1  H    18    44       P1 10171  0.98
      P1  H  6896  6908       L1     3  0.03
      P1  H  6931  6943       L1    32  0.99
      P1  H  6934  6947       L1    27  0.75
      P1  H  7989  7998       L1    14  0.23

> <Gold.PLP.Chemscore.Internal.Correction>
2.5128

> <Gold.Rescore>
     Score         DG    S(hbond)    S(metal)    S(lipo)     H(rot)  DE(clash)    DE(int)     intcor
      4.94     -14.03       4.60        0.00      34.66       4.25       0.74       8.35       ----

> <Gold.Chemscore.Fitness>
4.9435

> <Gold.Chemscore.DG>
-14.0294

> <Gold.Chemscore.ZeroCoef>
-5.4800

> <Gold.Chemscore.Hbond>
4.5997

> <Gold.Chemscore.Metal>
0.0000

> <Gold.Chemscore.Lipo>
34.6583

> <Gold.Chemscore.Internal_Hbond>
0.0000

> <Gold.Chemscore.DEClash>
0.7407

> <Gold.Chemscore.DEInternal>
8.3452

> <Gold.Chemscore.Rot>
4.2456

> <Gold.Chemscore.Internal.Correction>
   9.000000E+99

> <Gold.Chemscore.Hbonds>
donor molecule, donor type, donor heavy atom, donor atom, acceptor molecule, acceptor atom, score
      L1  H    18    44       P1 10171  0.92
      P1  H  6896  6908       L1     3  0.09
      P1  H  6931  6943       L1    32  0.92
      P1  H  6934  6947       L1    27  0.76

> <Gold.Chemscore.Hbond.Weighted>
-15.3630

> <Gold.Chemscore.Metal.Weighted>
-0.0000

> <Gold.Chemscore.Lipo.Weighted>
-4.0550

> <Gold.Chemscore.Internal_Hbond.Weighted>
0.0000

> <Gold.Chemscore.DEClash.Weighted>
0.7407

> <Gold.Chemscore.DEInternal.Weighted>
8.3452

> <Gold.Chemscore.Rot.Weighted>
10.8687

> <Gold.Chemscore.Internal.Correction.Weighted>
   9.000000E+99

> <Gold.Protein.RotatedTorsions>
[ 6907 6896 6895 6894 ] final   93.94 input  -60.11 | X-H torsion
[ 7974 7965 7964 7962 ] final  169.10 input  175.53 | X-H torsion
[ 8008 7997 7996 7995 ] final  -28.86 input   59.86 | X-H torsion
[ 10167 10162 10161 10158 ] final  -42.45 input  -65.29 | X-H torsion
[ 10718 10713 10712 10709 ] final   43.39 input   66.30 | X-H torsion
[ 10763 10752 10751 10750 ] final  -23.95 input  -60.55 | X-H torsion
[ 11005 11000 10999 10996 ] final -103.23 input  -57.11 | X-H torsion

> <Gold.Protein.ActiveResidues>
 VAL166  LYS551  ARG553  GLY616  TRP617  ASP618  TYR619  PRO620  LYS621  CYS622 
 ASP623  PHE694  ASN695  SER759  ASP760  ASP761  ALA762  ILE779  LEU786  VAL792 
 PHE793  MET794  SER795  GLU796  ALA797  LYS798  CYS799  TRP800  GLU811  SER814 

> <Gold.Protein.RotatedAtoms>
  152.5451  134.1270  159.8422 H   0  0  0  0  0  0  0  0  0  0  0  0  # atno 6907 bound_to 6896
  151.1320  133.5023  159.2606 H   0  0  0  0  0  0  0  0  0  0  0  0  # atno 6908 bound_to 6896
  151.1665  135.0308  159.8787 H   0  0  0  0  0  0  0  0  0  0  0  0  # atno 6909 bound_to 6896
  144.7366  139.9005  143.6409 H   0  0  0  0  0  0  0  0  0  0  0  0  # atno 7974 bound_to 7965
  154.4314  140.1834  156.1157 H   0  0  0  0  0  0  0  0  0  0  0  0  # atno 8008 bound_to 7997
  156.0183  140.3343  155.6986 H   0  0  0  0  0  0  0  0  0  0  0  0  # atno 8009 bound_to 7997
  155.6013  140.0640  157.2723 H   0  0  0  0  0  0  0  0  0  0  0  0  # atno 8010 bound_to 7997
  140.6969  143.3037  151.3211 H   0  0  0  0  0  0  0  0  0  0  0  0  # atno 10167 bound_to 10162
  157.4154  130.7938  149.7467 H   0  0  0  0  0  0  0  0  0  0  0  0  # atno 10718 bound_to 10713
  153.6760  135.6969  153.5132 H   0  0  0  0  0  0  0  0  0  0  0  0  # atno 10763 bound_to 10752
  153.2521  135.4272  155.0807 H   0  0  0  0  0  0  0  0  0  0  0  0  # atno 10764 bound_to 10752
  154.8413  135.3534  154.6304 H   0  0  0  0  0  0  0  0  0  0  0  0  # atno 10765 bound_to 10752
  141.1155  133.8623  157.1460 H   0  0  0  0  0  0  0  0  0  0  0  0  # atno 11005 bound_to 11000
  146.1075  139.4076  143.0308 LP  0  0  0  0  0  0  0  0  0  0  0  0  # atno 17320 bound_to 7965
  145.7491  140.9979  143.1260 LP  0  0  0  0  0  0  0  0  0  0  0  0  # atno 17321 bound_to 7965
  139.6435  144.0495  152.2573 LP  0  0  0  0  0  0  0  0  0  0  0  0  # atno 17342 bound_to 10162
  140.0008  144.6294  150.7731 LP  0  0  0  0  0  0  0  0  0  0  0  0  # atno 17343 bound_to 10162
  155.9863  130.3975  150.3217 LP  0  0  0  0  0  0  0  0  0  0  0  0  # atno 17370 bound_to 10713
  157.1359  131.0284  151.2949 LP  0  0  0  0  0  0  0  0  0  0  0  0  # atno 17371 bound_to 10713
  140.0074  135.0002  157.0322 LP  0  0  0  0  0  0  0  0  0  0  0  0  # atno 17394 bound_to 11000
  140.4658  134.1437  155.7197 LP  0  0  0  0  0  0  0  0  0  0  0  0  # atno 17395 bound_to 11000

$$$$
