AV-unprocessed.smi:203|AV-procd|sdf|1587|dock7
  -GOLD-   2262019483D 1   1.00000     0.00000
 Structure written by MMmdl.
 57 61  0  0  0  0  0  0  0  0  1 V2000
  145.6245  137.7999  161.6051 O   0  0  0  0  0  0  0  0  0  0  0  0
  146.4874  136.9341  161.4800 C   0  0  0  0  0  0  0  0  0  0  0  0
  147.6257  137.0231  160.4774 C   0  0  0  0  0  0  0  0  0  0  0  0
  148.2714  135.6243  160.5340 C   0  0  2  0  0  0  0  0  0  0  0  0
  148.0766  134.7811  159.2337 C   0  0  2  0  0  0  0  0  0  0  0  0
  148.0586  133.2533  159.5058 C   0  0  0  0  0  0  0  0  0  0  0  0
  147.8655  132.4459  158.2156 C   0  0  0  0  0  0  0  0  0  0  0  0
  148.9440  132.8248  157.1954 C   0  0  0  0  0  0  0  0  0  0  0  0
  148.9303  134.3378  156.9422 C   0  0  0  0  0  0  0  0  0  0  0  0
  149.0718  135.0878  158.1901 N   0  0  0  0  0  0  0  0  0  0  0  0
  149.2883  136.3967  157.9316 C   0  0  0  0  0  0  0  0  0  0  0  0
  148.3139  137.0657  157.2678 N   0  0  0  0  0  0  0  0  0  0  0  0
  148.4725  138.3613  156.9796 C   0  0  0  0  0  0  0  0  0  0  0  0
  149.5035  139.1604  157.2634 N   0  0  0  0  0  0  0  0  0  0  0  0
  150.4816  138.4888  157.9368 C   0  0  0  0  0  0  0  0  0  0  0  0
  150.4577  137.1154  158.3080 C   0  0  0  0  0  0  0  0  0  0  0  0
  151.6285  136.7840  158.9796 N   0  0  0  0  0  0  0  0  0  0  0  0
  152.3058  137.8995  159.0051 C   0  0  0  0  0  0  0  0  0  0  0  0
  151.6903  138.9735  158.4037 N   0  0  0  0  0  0  0  0  0  0  0  0
  152.2133  140.3237  158.2946 C   0  0  0  0  0  0  0  0  0  0  0  0
  152.5176  140.9502  159.6720 C   0  0  1  0  0  0  0  0  0  0  0  0
  153.6447  140.3335  160.2619 O   0  0  0  0  0  0  0  0  0  0  0  0
  152.7495  142.4752  159.6383 C   0  0  2  0  0  0  0  0  0  0  0  0
  152.7828  143.1417  161.0196 C   0  0  0  0  0  0  0  0  0  0  0  0
  152.1760  144.5202  160.7907 C   0  0  0  0  0  0  0  0  0  0  0  0
  151.8109  144.5280  159.3073 C   0  0  0  0  0  0  0  0  0  0  0  0
  151.6907  143.1542  158.9781 O   0  0  0  0  0  0  0  0  0  0  0  0
  147.6843  134.9660  161.8032 C   0  0  0  0  0  0  0  0  0  0  0  0
  146.5683  135.8085  162.1858 N   0  0  0  0  0  0  0  0  0  0  0  0
  147.2701  137.2992  159.4849 H   0  0  0  0  0  0  0  0  0  0  0  0
  148.3260  137.7911  160.8074 H   0  0  0  0  0  0  0  0  0  0  0  0
  149.3383  135.7829  160.6939 H   0  0  0  0  0  0  0  0  0  0  0  0
  147.1000  135.0412  158.8241 H   0  0  0  0  0  0  0  0  0  0  0  0
  148.9906  132.9415  159.9778 H   0  0  0  0  0  0  0  0  0  0  0  0
  147.2633  132.9912  160.2023 H   0  0  0  0  0  0  0  0  0  0  0  0
  147.9088  131.3776  158.4295 H   0  0  0  0  0  0  0  0  0  0  0  0
  146.8765  132.6438  157.8003 H   0  0  0  0  0  0  0  0  0  0  0  0
  149.9247  132.5225  157.5649 H   0  0  0  0  0  0  0  0  0  0  0  0
  148.7826  132.2877  156.2605 H   0  0  0  0  0  0  0  0  0  0  0  0
  149.7387  134.5978  156.2568 H   0  0  0  0  0  0  0  0  0  0  0  0
  147.9966  134.6192  156.4530 H   0  0  0  0  0  0  0  0  0  0  0  0
  147.6558  138.8246  156.4457 H   0  0  0  0  0  0  0  0  0  0  0  0
  153.2798  137.9708  159.4669 H   0  0  0  0  0  0  0  0  0  0  0  0
  153.1113  140.2975  157.6761 H   0  0  0  0  0  0  0  0  0  0  0  0
  151.4824  140.9240  157.7527 H   0  0  0  0  0  0  0  0  0  0  0  0
  151.6820  140.7491  160.3437 H   0  0  0  0  0  0  0  0  0  0  0  0
  154.3034  140.2165  159.5940 H   0  0  0  0  0  0  0  0  0  0  0  0
  153.6857  142.7039  159.1246 H   0  0  0  0  0  0  0  0  0  0  0  0
  152.1799  142.5934  161.7439 H   0  0  0  0  0  0  0  0  0  0  0  0
  153.7984  143.1963  161.4129 H   0  0  0  0  0  0  0  0  0  0  0  0
  151.2825  144.6403  161.4046 H   0  0  0  0  0  0  0  0  0  0  0  0
  152.8650  145.3276  161.0398 H   0  0  0  0  0  0  0  0  0  0  0  0
  150.8894  145.0731  159.1023 H   0  0  0  0  0  0  0  0  0  0  0  0
  152.6117  144.9726  158.7142 H   0  0  0  0  0  0  0  0  0  0  0  0
  147.3588  133.9379  161.6447 H   0  0  0  0  0  0  0  0  0  0  0  0
  148.4173  134.9591  162.6107 H   0  0  0  0  0  0  0  0  0  0  0  0
  145.9167  135.5489  162.9122 H   0  0  0  0  0  0  0  0  0  0  0  0
  1  2  2  0  0  0  0
  2 29  1  0  0  0  0
  2  3  1  0  0  0  0
  3  4  1  0  0  0  0
  3 30  1  0  0  0  0
  3 31  1  0  0  0  0
  4  5  1  0  0  0  0
  4 28  1  0  0  0  0
  4 32  1  0  0  0  0
  5 10  1  0  0  0  0
  5  6  1  0  0  0  0
  5 33  1  0  0  0  0
  6  7  1  0  0  0  0
  6 34  1  0  0  0  0
  6 35  1  0  0  0  0
  7  8  1  0  0  0  0
  7 36  1  0  0  0  0
  7 37  1  0  0  0  0
  8  9  1  0  0  0  0
  8 38  1  0  0  0  0
  8 39  1  0  0  0  0
  9 10  1  0  0  0  0
  9 40  1  0  0  0  0
  9 41  1  0  0  0  0
 10 11  1  0  0  0  0
 11 16  1  0  0  0  0
 11 12  2  0  0  0  0
 12 13  1  0  0  0  0
 13 14  2  0  0  0  0
 13 42  1  0  0  0  0
 14 15  1  0  0  0  0
 15 19  1  0  0  0  0
 15 16  2  0  0  0  0
 16 17  1  0  0  0  0
 17 18  2  0  0  0  0
 18 19  1  0  0  0  0
 18 43  1  0  0  0  0
 19 20  1  0  0  0  0
 20 21  1  0  0  0  0
 20 44  1  0  0  0  0
 20 45  1  0  0  0  0
 21 22  1  0  0  0  0
 21 23  1  0  0  0  0
 21 46  1  0  0  0  0
 22 47  1  0  0  0  0
 23 27  1  0  0  0  0
 23 24  1  0  0  0  0
 23 48  1  0  0  0  0
 24 25  1  0  0  0  0
 24 49  1  0  0  0  0
 24 50  1  0  0  0  0
 25 26  1  0  0  0  0
 25 51  1  0  0  0  0
 25 52  1  0  0  0  0
 26 27  1  0  0  0  0
 26 53  1  0  0  0  0
 26 54  1  0  0  0  0
 28 29  1  0  0  0  0
 28 55  1  0  0  0  0
 28 56  1  0  0  0  0
 29 57  1  0  0  0  0
M  END
> <s_m_source_file>
AV-unprocessed.smi

> <i_m_source_file_index>
203

> <i_lp_mmshare_version>
43012

> <i_f3d_flags>
0

> <s_epik_input>
Tz1DMVtDSDJdW0NASF0oW0NIMl1bTkhdMSlbQ0BASF0yW0NIMl1bQ0gyXVtDSDJdW0NIMl1OMmMobltjSF1uMyljKGMzNCluW2NIXW40W0NIMl1bQ0BIXShbT0hdKVtDQEBIXTVbQ0gyXVtDSDJdW0NIMl1PNQ==

> <s_epik_cmdline>
J2VwaWtfcHl0aG9uJywgJy1waCcsICc3LjAnLCAnLXRuJywgJzgnLCAnLW1hJywgJzIwMCcsICctbWV0YWxfYmluZGluZycsICctaW1hZScsICc8aW5maWxlLm1hZT4nLCAnLW9tYWUnLCAnPG91dGZpbGUubWFlPic=

> <r_lp_tautomer_probability>
1

> <r_epik_Ionization_Penalty>
0.00175146

> <r_epik_Ionization_Penalty_Charging>
0

> <r_epik_Ionization_Penalty_Neutral>
0.00175146

> <r_epik_State_Penalty>
0.00109045

> <r_epik_Charging_Adjusted_Penalty>
0.00109045

> <i_epik_Tot_Q>
0

> <i_epik_Tot_abs_Q>
0

> <r_epik_Metal_State_Penalty>
-0

> <b_epik_Metal_Only>
0

> <s_lp_Force_Field>
OPLS_2005

> <r_lp_Energy>
57.3727

> <b_lp_Chiralities_Consistent>
1

> <s_lp_Variant>
AV-unprocessed.smi:203-6

> <Gold.Version>
5.8.1

> <Gold.Id.Protein>
6NUR|6NUR_protein|mol2

> <Gold.PLP.Fitness>
44.0232

> <Gold.PLP.PLP>
-40.2021

> <Gold.PLP.part.hbond>
-3.0000

> <Gold.PLP.part.metal>
0.0000

> <Gold.PLP.part.buried>
-4.8527

> <Gold.PLP.part.nonpolar>
-32.1784

> <Gold.PLP.part.repulsive>
0.1032

> <Gold.PLP.ligand.clash>
0.0000

> <Gold.PLP.ligand.torsion>
0.9028

> <Gold.PLP.Chemscore.Hbond>
1.7840

> <Gold.PLP.Chemscore.CHOScore>
0.0000

> <Gold.PLP.Chemscore.Metal>
0.0000

> <Gold.Chemscore.Hbonds>
donor molecule, donor type, donor heavy atom, donor atom, acceptor molecule, acceptor atom, score
      P1  H  6896  6908       L1    10  0.25
      P1  H  6896  6909       L1    17  0.80
      P1  H  6934  6947       L1     1  0.11

> <Gold.PLP.Chemscore.Internal.Correction>
0.2749

> <Gold.Rescore>
     Score         DG    S(hbond)    S(metal)    S(lipo)     H(rot)  DE(clash)    DE(int)     intcor
     12.03     -13.09       0.94        0.00      97.72       2.72       0.04       1.01       ----

> <Gold.Chemscore.Fitness>
12.0341

> <Gold.Chemscore.DG>
-13.0862

> <Gold.Chemscore.ZeroCoef>
-5.4800

> <Gold.Chemscore.Hbond>
0.9368

> <Gold.Chemscore.Metal>
0.0000

> <Gold.Chemscore.Lipo>
97.7195

> <Gold.Chemscore.Internal_Hbond>
0.0000

> <Gold.Chemscore.DEClash>
0.0411

> <Gold.Chemscore.DEInternal>
1.0110

> <Gold.Chemscore.Rot>
2.7171

> <Gold.Chemscore.Internal.Correction>
   9.000000E+99

> <Gold.Chemscore.Hbonds>
donor molecule, donor type, donor heavy atom, donor atom, acceptor molecule, acceptor atom, score
      P1  H  6896  6908       L1    10  0.01
      P1  H  6896  6909       L1    17  0.78

> <Gold.Chemscore.Hbond.Weighted>
-3.1287

> <Gold.Chemscore.Metal.Weighted>
-0.0000

> <Gold.Chemscore.Lipo.Weighted>
-11.4332

> <Gold.Chemscore.Internal_Hbond.Weighted>
0.0000

> <Gold.Chemscore.DEClash.Weighted>
0.0411

> <Gold.Chemscore.DEInternal.Weighted>
1.0110

> <Gold.Chemscore.Rot.Weighted>
6.9557

> <Gold.Chemscore.Internal.Correction.Weighted>
   9.000000E+99

> <Gold.Protein.RotatedTorsions>
[ 6907 6896 6895 6894 ] final  132.52 input  -60.11 | X-H torsion
[ 7974 7965 7964 7962 ] final  -16.42 input  175.53 | X-H torsion
[ 8008 7997 7996 7995 ] final -119.28 input   59.86 | X-H torsion
[ 10167 10162 10161 10158 ] final -152.70 input  -65.29 | X-H torsion
[ 10718 10713 10712 10709 ] final -179.34 input   66.30 | X-H torsion
[ 10763 10752 10751 10750 ] final  167.77 input  -60.55 | X-H torsion
[ 11005 11000 10999 10996 ] final  180.00 input  -57.11 | X-H torsion

> <Gold.Protein.ActiveResidues>
 VAL166  LYS551  ARG553  GLY616  TRP617  ASP618  TYR619  PRO620  LYS621  CYS622 
 ASP623  PHE694  ASN695  SER759  ASP760  ASP761  ALA762  ILE779  LEU786  VAL792 
 PHE793  MET794  SER795  GLU796  ALA797  LYS798  CYS799  TRP800  GLU811  SER814 

> <Gold.Protein.RotatedAtoms>
  152.3315  133.5964  159.5812 H   0  0  0  0  0  0  0  0  0  0  0  0  # atno 6907 bound_to 6896
  150.7426  133.9860  159.3600 H   0  0  0  0  0  0  0  0  0  0  0  0  # atno 6908 bound_to 6896
  151.7735  135.0781  160.0414 H   0  0  0  0  0  0  0  0  0  0  0  0  # atno 6909 bound_to 6896
  146.1988  140.3633  142.8431 H   0  0  0  0  0  0  0  0  0  0  0  0  # atno 7974 bound_to 7965
  155.1132  140.0397  157.2730 H   0  0  0  0  0  0  0  0  0  0  0  0  # atno 8008 bound_to 7997
  154.6669  140.2603  155.7023 H   0  0  0  0  0  0  0  0  0  0  0  0  # atno 8009 bound_to 7997
  156.2642  140.2805  156.1163 H   0  0  0  0  0  0  0  0  0  0  0  0  # atno 8010 bound_to 7997
  139.7159  143.9034  152.2485 H   0  0  0  0  0  0  0  0  0  0  0  0  # atno 10167 bound_to 10162
  156.8577  130.9741  151.3086 H   0  0  0  0  0  0  0  0  0  0  0  0  # atno 10718 bound_to 10713
  154.3587  135.2753  155.2332 H   0  0  0  0  0  0  0  0  0  0  0  0  # atno 10763 bound_to 10752
  154.4530  135.5926  153.6207 H   0  0  0  0  0  0  0  0  0  0  0  0  # atno 10764 bound_to 10752
  152.9845  135.6046  154.3805 H   0  0  0  0  0  0  0  0  0  0  0  0  # atno 10765 bound_to 10752
  140.4124  134.6680  157.4621 H   0  0  0  0  0  0  0  0  0  0  0  0  # atno 11005 bound_to 11000
  144.8638  140.7178  143.6090 LP  0  0  0  0  0  0  0  0  0  0  0  0  # atno 17320 bound_to 7965
  145.3553  139.1695  143.4413 LP  0  0  0  0  0  0  0  0  0  0  0  0  # atno 17321 bound_to 7965
  139.8917  144.6962  150.8763 LP  0  0  0  0  0  0  0  0  0  0  0  0  # atno 17342 bound_to 10162
  140.7743  143.3581  151.1881 LP  0  0  0  0  0  0  0  0  0  0  0  0  # atno 17343 bound_to 10162
  157.6268  130.8698  149.9203 LP  0  0  0  0  0  0  0  0  0  0  0  0  # atno 17370 bound_to 10713
  156.0794  130.3675  150.0612 LP  0  0  0  0  0  0  0  0  0  0  0  0  # atno 17371 bound_to 10713
  140.0258  134.6479  155.9175 LP  0  0  0  0  0  0  0  0  0  0  0  0  # atno 17394 bound_to 11000
  141.1816  133.6547  156.5044 LP  0  0  0  0  0  0  0  0  0  0  0  0  # atno 17395 bound_to 11000

$$$$
