AV-unprocessed.smi:1395|AV-procd|sdf|5673|dock7
  -GOLD-   22720 5293D 1   1.00000     0.00000
 Structure written by MMmdl.
 42 43  0  0  0  0  0  0  0  0  3 V2000
  152.6140  139.1216  159.0406 C   0  0  0  0  0  0  0  0  0  0  0  0
  152.4915  140.6343  159.1268 C   0  0  0  0  0  0  0  0  0  0  0  0
  153.4189  141.3585  159.9059 C   0  0  0  0  0  0  0  0  0  0  0  0
  153.3035  142.7570  159.9855 C   0  0  0  0  0  0  0  0  0  0  0  0
  152.2586  143.3757  159.2781 C   0  0  0  0  0  0  0  0  0  0  0  0
  151.3684  142.6915  158.5310 N   0  0  0  0  0  0  0  0  0  0  0  0
  151.4647  141.3410  158.4449 C   0  0  0  0  0  0  0  0  0  0  0  0
  150.5651  140.5558  157.6698 N   0  0  0  0  0  0  0  0  0  0  0  0
  150.5713  140.3439  156.3419 C   0  0  0  0  0  0  0  0  0  0  0  0
  151.3464  140.8636  155.5389 O   0  0  0  0  0  0  0  0  0  0  0  0
  149.6085  139.4810  155.9855 N   0  0  0  0  0  0  0  0  0  0  0  0
  149.3403  139.0237  154.6219 C   0  0  2  0  0  0  0  0  0  0  0  0
  148.2038  137.9869  154.6195 C   0  0  0  0  0  0  0  0  0  0  0  0
  148.6412  136.6500  155.2473 C   0  0  0  0  0  0  0  0  0  0  0  0
  149.8514  136.1047  154.5803 N   0  3  2  0  0  0  0  0  0  0  0  0
  150.2174  134.7627  155.0988 C   0  0  0  0  0  0  0  0  0  0  0  0
  151.0044  134.8929  156.4069 C   0  0  0  0  0  0  0  0  0  0  0  0
  150.2751  134.5431  157.4841 N   0  5  0  0  0  0  0  0  0  0  0  0
  152.1648  135.2974  156.3782 O   0  0  0  0  0  0  0  0  0  0  0  0
  150.9824  137.0715  154.6119 C   0  0  0  0  0  0  0  0  0  0  0  0
  150.5899  138.4086  153.9609 C   0  0  0  0  0  0  0  0  0  0  0  0
  153.4702  138.7597  159.6107 H   0  0  0  0  0  0  0  0  0  0  0  0
  152.7443  138.8069  158.0049 H   0  0  0  0  0  0  0  0  0  0  0  0
  151.7188  138.6437  159.4397 H   0  0  0  0  0  0  0  0  0  0  0  0
  154.2110  140.8517  160.4375 H   0  0  0  0  0  0  0  0  0  0  0  0
  153.9972  143.3398  160.5732 H   0  0  0  0  0  0  0  0  0  0  0  0
  152.1337  144.4479  159.3112 H   0  0  0  0  0  0  0  0  0  0  0  0
  149.8441  140.0841  158.1952 H   0  0  0  0  0  0  0  0  0  0  0  0
  149.0138  139.1118  156.7128 H   0  0  0  0  0  0  0  0  0  0  0  0
  149.0176  139.8869  154.0370 H   0  0  0  0  0  0  0  0  0  0  0  0
  147.3315  138.3795  155.1435 H   0  0  0  0  0  0  0  0  0  0  0  0
  147.8842  137.8089  153.5918 H   0  0  0  0  0  0  0  0  0  0  0  0
  148.8397  136.7765  156.3126 H   0  0  0  0  0  0  0  0  0  0  0  0
  147.8228  135.9342  155.1626 H   0  0  0  0  0  0  0  0  0  0  0  0
  149.3279  134.1371  155.2010 H   0  0  0  0  0  0  0  0  0  0  0  0
  150.8711  134.2555  154.3879 H   0  0  0  0  0  0  0  0  0  0  0  0
  149.3189  134.1948  157.3465 H   0  0  0  0  0  0  0  0  0  0  0  0
  151.2996  137.2312  155.6435 H   0  0  0  0  0  0  0  0  0  0  0  0
  151.8429  136.6639  154.0813 H   0  0  0  0  0  0  0  0  0  0  0  0
  150.3883  138.2416  152.9020 H   0  0  0  0  0  0  0  0  0  0  0  0
  151.4308  139.1021  153.9977 H   0  0  0  0  0  0  0  0  0  0  0  0
  149.6079  135.9689  153.6093 H   0  0  0  0  0  0  0  0  0  0  0  0
  1  2  1  0  0  0  0
  1 22  1  0  0  0  0
  1 23  1  0  0  0  0
  1 24  1  0  0  0  0
  2  7  1  0  0  0  0
  2  3  2  0  0  0  0
  3  4  1  0  0  0  0
  3 25  1  0  0  0  0
  4  5  2  0  0  0  0
  4 26  1  0  0  0  0
  5  6  1  0  0  0  0
  5 27  1  0  0  0  0
  6  7  2  0  0  0  0
  7  8  1  0  0  0  0
  8  9  1  0  0  0  0
  8 28  1  0  0  0  0
  9 10  2  0  0  0  0
  9 11  1  0  0  0  0
 11 12  1  0  0  0  0
 11 29  1  0  0  0  0
 12 21  1  0  0  0  0
 12 13  1  0  0  0  0
 12 30  1  0  0  0  0
 13 14  1  0  0  0  0
 13 31  1  0  0  0  0
 13 32  1  0  0  0  0
 14 15  1  0  0  0  0
 14 33  1  0  0  0  0
 14 34  1  0  0  0  0
 15 16  1  0  0  0  0
 15 20  1  0  0  0  0
 15 42  1  0  0  0  0
 16 17  1  0  0  0  0
 16 35  1  0  0  0  0
 16 36  1  0  0  0  0
 17 18  1  0  0  0  0
 17 19  2  0  0  0  0
 18 37  1  0  0  0  0
 20 21  1  0  0  0  0
 20 38  1  0  0  0  0
 20 39  1  0  0  0  0
 21 40  1  0  0  0  0
 21 41  1  0  0  0  0
M  CHG  1  15   1
M  CHG  1  18  -1
M  END
> <s_m_source_file>
AV-unprocessed.smi

> <i_m_source_file_index>
1395

> <i_lp_mmshare_version>
43012

> <i_f3d_flags>
0

> <s_epik_input>
W0NIM11jMVtjSF1bY0hdW2NIXW5jMVtOSF1DKD1PKVtOSF1bQ0hdMltDSDJdW0NIMl1OKFtDSDJdW0NIMl0yKVtDSDJdQyg9TylbTkgyXQ==

> <s_epik_cmdline>
J2VwaWtfcHl0aG9uJywgJy1waCcsICc3LjAnLCAnLXRuJywgJzgnLCAnLW1hJywgJzIwMCcsICctbWV0YWxfYmluZGluZycsICctaW1hZScsICc8aW5maWxlLm1hZT4nLCAnLW9tYWUnLCAnPG91dGZpbGUubWFlPic=

> <r_epik_Ionization_Penalty>
5.72885

> <r_epik_Ionization_Penalty_Charging>
5.7288

> <r_epik_Ionization_Penalty_Neutral>
4.54304e-05

> <r_epik_State_Penalty>
6.54882

> <r_epik_Charging_Adjusted_Penalty>
12.2776

> <i_epik_Tot_Q>
0

> <i_epik_Tot_abs_Q>
2

> <r_epik_Metal_State_Penalty>
2.51297

> <b_epik_Metal_Only>
1

> <s_lp_Force_Field>
OPLS_2005

> <r_lp_Energy>
8.5501

> <b_lp_Chiralities_Consistent>
1

> <s_lp_Variant>
AV-unprocessed.smi:1395-5

> <Gold.Version>
5.8.1

> <Gold.Id.Protein>
6NUR|6NUR_protein|mol2

> <Gold.PLP.Fitness>
48.9847

> <Gold.PLP.PLP>
-34.3474

> <Gold.PLP.part.hbond>
-4.0000

> <Gold.PLP.part.metal>
0.0000

> <Gold.PLP.part.buried>
-4.4609

> <Gold.PLP.part.nonpolar>
-26.9072

> <Gold.PLP.part.repulsive>
0.1889

> <Gold.PLP.ligand.clash>
0.0000

> <Gold.PLP.ligand.torsion>
1.0500

> <Gold.PLP.Chemscore.Hbond>
5.5700

> <Gold.PLP.Chemscore.CHOScore>
0.0000

> <Gold.PLP.Chemscore.Metal>
0.0000

> <Gold.Chemscore.Hbonds>
donor molecule, donor type, donor heavy atom, donor atom, acceptor molecule, acceptor atom, score
      L1  H    15    42       P1  7948  2.00
      P1  H  6896  6909       L1    18  1.41
      P1  H  7989  7998       L1    10  0.66
      P1  H 10752 10765       L1    19  1.00

> <Gold.PLP.Chemscore.Internal.Correction>
0.0274

> <Gold.Rescore>
     Score         DG    S(hbond)    S(metal)    S(lipo)     H(rot)  DE(clash)    DE(int)     intcor
     17.66     -20.22       3.25        0.00      75.54       1.93       0.02       2.55       ----

> <Gold.Chemscore.Fitness>
17.6578

> <Gold.Chemscore.DG>
-20.2205

> <Gold.Chemscore.ZeroCoef>
-5.4800

> <Gold.Chemscore.Hbond>
3.2495

> <Gold.Chemscore.Metal>
0.0000

> <Gold.Chemscore.Lipo>
75.5417

> <Gold.Chemscore.Internal_Hbond>
0.0000

> <Gold.Chemscore.DEClash>
0.0174

> <Gold.Chemscore.DEInternal>
2.5453

> <Gold.Chemscore.Rot>
1.9341

> <Gold.Chemscore.Internal.Correction>
   9.000000E+99

> <Gold.Chemscore.Hbonds>
donor molecule, donor type, donor heavy atom, donor atom, acceptor molecule, acceptor atom, score
      L1  H    15    42       P1  7948  0.30
      P1  H  6896  6909       L1    18  0.35
      P1  H  7989  7998       L1    10  0.62
      P1  H 10752 10765       L1    19  0.98

> <Gold.Chemscore.Hbond.Weighted>
-10.8533

> <Gold.Chemscore.Metal.Weighted>
-0.0000

> <Gold.Chemscore.Lipo.Weighted>
-8.8384

> <Gold.Chemscore.Internal_Hbond.Weighted>
0.0000

> <Gold.Chemscore.DEClash.Weighted>
0.0174

> <Gold.Chemscore.DEInternal.Weighted>
2.5453

> <Gold.Chemscore.Rot.Weighted>
4.9512

> <Gold.Chemscore.Internal.Correction.Weighted>
   9.000000E+99

> <Gold.Protein.RotatedTorsions>
[ 6907 6896 6895 6894 ] final   19.28 input  -60.11 | X-H torsion
[ 7974 7965 7964 7962 ] final   84.43 input  175.53 | X-H torsion
[ 8008 7997 7996 7995 ] final   62.93 input   59.86 | X-H torsion
[ 10167 10162 10161 10158 ] final  140.45 input  -65.29 | X-H torsion
[ 10718 10713 10712 10709 ] final  -39.15 input   66.30 | X-H torsion
[ 10763 10752 10751 10750 ] final -151.32 input  -60.55 | X-H torsion
[ 11005 11000 10999 10996 ] final   46.77 input  -57.11 | X-H torsion

> <Gold.Protein.ActiveResidues>
 VAL166  LYS551  ARG553  GLY616  TRP617  ASP618  TYR619  PRO620  LYS621  CYS622 
 ASP623  PHE694  ASN695  SER759  ASP760  ASP761  ALA762  ILE779  LEU786  VAL792 
 PHE793  MET794  SER795  GLU796  ALA797  LYS798  CYS799  TRP800  GLU811  SER814 

> <Gold.Protein.RotatedAtoms>
  151.8784  135.0463  160.0486 H   0  0  0  0  0  0  0  0  0  0  0  0  # atno 6907 bound_to 6896
  152.2532  133.5228  159.5346 H   0  0  0  0  0  0  0  0  0  0  0  0  # atno 6908 bound_to 6896
  150.7091  134.0847  159.3953 H   0  0  0  0  0  0  0  0  0  0  0  0  # atno 6909 bound_to 6896
  145.5988  139.2349  143.2257 H   0  0  0  0  0  0  0  0  0  0  0  0  # atno 7974 bound_to 7965
  155.6222  140.3496  155.4655 H   0  0  0  0  0  0  0  0  0  0  0  0  # atno 8008 bound_to 7997
  156.0070  140.1225  157.0515 H   0  0  0  0  0  0  0  0  0  0  0  0  # atno 8009 bound_to 7997
  154.4268  140.1089  156.5763 H   0  0  0  0  0  0  0  0  0  0  0  0  # atno 8010 bound_to 7997
  139.5048  144.6233  151.5998 H   0  0  0  0  0  0  0  0  0  0  0  0  # atno 10167 bound_to 10162
  156.2957  130.4234  149.8193 H   0  0  0  0  0  0  0  0  0  0  0  0  # atno 10718 bound_to 10713
  154.8065  135.3263  154.7418 H   0  0  0  0  0  0  0  0  0  0  0  0  # atno 10763 bound_to 10752
  153.8076  135.6898  153.4850 H   0  0  0  0  0  0  0  0  0  0  0  0  # atno 10764 bound_to 10752
  153.1813  135.4585  154.9977 H   0  0  0  0  0  0  0  0  0  0  0  0  # atno 10765 bound_to 10752
  140.1339  134.4670  155.8500 H   0  0  0  0  0  0  0  0  0  0  0  0  # atno 11005 bound_to 11000
  146.1592  140.6813  142.9285 LP  0  0  0  0  0  0  0  0  0  0  0  0  # atno 17320 bound_to 7965
  144.7319  140.4696  143.6932 LP  0  0  0  0  0  0  0  0  0  0  0  0  # atno 17321 bound_to 7965
  140.5942  143.9725  150.6344 LP  0  0  0  0  0  0  0  0  0  0  0  0  # atno 17342 bound_to 10162
  140.2916  143.3320  152.1057 LP  0  0  0  0  0  0  0  0  0  0  0  0  # atno 17343 bound_to 10162
  156.5590  130.8375  151.3323 LP  0  0  0  0  0  0  0  0  0  0  0  0  # atno 17370 bound_to 10713
  157.7355  130.9763  150.2083 LP  0  0  0  0  0  0  0  0  0  0  0  0  # atno 17371 bound_to 10713
  141.2175  133.6806  156.7121 LP  0  0  0  0  0  0  0  0  0  0  0  0  # atno 17394 bound_to 11000
  140.2807  134.8319  157.3931 LP  0  0  0  0  0  0  0  0  0  0  0  0  # atno 17395 bound_to 11000

$$$$
