AV-unprocessed.smi:1535|AV-procd|sdf|6184|dock5
  -GOLD-   22720 6343D 1   1.00000     0.00000
 Structure written by MMmdl.
 47 48  0  0  0  0  0  0  0  0  2 V2000
  153.0097  142.5911  161.4986 C   0  0  0  0  0  0  0  0  0  0  0  0
  152.4123  142.3191  160.1289 C   0  0  0  0  0  0  0  0  0  0  0  0
  152.8129  141.1630  159.4217 C   0  0  0  0  0  0  0  0  0  0  0  0
  152.2798  140.8726  158.1472 C   0  0  0  0  0  0  0  0  0  0  0  0
  152.5259  139.8146  157.2893 N   0  0  0  0  0  0  0  0  0  0  0  0
  151.7290  140.1072  156.2660 C   0  0  0  0  0  0  0  0  0  0  0  0
  151.0042  141.2394  156.3535 N   0  0  0  0  0  0  0  0  0  0  0  0
  150.0818  141.7680  155.3653 C   0  0  0  0  0  0  0  0  0  0  0  0
  149.2219  140.6685  154.7107 C   0  0  2  0  0  0  0  0  0  0  0  0
  150.0350  139.9770  153.7847 O   0  0  0  0  0  0  0  0  0  0  0  0
  147.9826  141.2170  153.9681 C   0  0  0  0  0  0  0  0  0  0  0  0
  147.2243  142.2039  154.7810 N   0  3  1  0  0  0  0  0  0  0  0  0
  146.1083  142.8237  154.0247 C   0  0  0  0  0  0  0  0  0  0  0  0
  146.7882  141.6423  156.0872 C   0  0  0  0  0  0  0  0  0  0  0  0
  146.1125  142.6843  156.9999 C   0  0  1  0  0  0  0  0  0  0  0  0
  144.6318  142.8643  156.6420 C   0  0  0  0  0  0  0  0  0  0  0  0
  146.2654  142.3315  158.4207 C   0  0  0  0  0  0  0  0  0  0  0  0
  146.3816  142.0559  159.5378 N   0  0  0  0  0  0  0  0  0  0  0  0
  151.3295  141.7794  157.5931 C   0  0  0  0  0  0  0  0  0  0  0  0
  150.9220  142.9323  158.2874 C   0  0  0  0  0  0  0  0  0  0  0  0
  151.4631  143.2062  159.5608 C   0  0  0  0  0  0  0  0  0  0  0  0
  151.0157  144.4530  160.3032 C   0  0  0  0  0  0  0  0  0  0  0  0
  153.7396  141.8292  161.7735 H   0  0  0  0  0  0  0  0  0  0  0  0
  152.2298  142.5978  162.2604 H   0  0  0  0  0  0  0  0  0  0  0  0
  153.5150  143.5572  161.5111 H   0  0  0  0  0  0  0  0  0  0  0  0
  153.5348  140.4864  159.8550 H   0  0  0  0  0  0  0  0  0  0  0  0
  151.6769  139.4660  155.3979 H   0  0  0  0  0  0  0  0  0  0  0  0
  149.4446  142.5103  155.8487 H   0  0  0  0  0  0  0  0  0  0  0  0
  150.6618  142.2985  154.6089 H   0  0  0  0  0  0  0  0  0  0  0  0
  148.9213  139.9616  155.4828 H   0  0  0  0  0  0  0  0  0  0  0  0
  149.6279  140.0210  152.9323 H   0  0  0  0  0  0  0  0  0  0  0  0
  148.2612  141.6866  153.0236 H   0  0  0  0  0  0  0  0  0  0  0  0
  147.3477  140.3696  153.7055 H   0  0  0  0  0  0  0  0  0  0  0  0
  145.3301  142.0910  153.8071 H   0  0  0  0  0  0  0  0  0  0  0  0
  146.4477  143.2412  153.0778 H   0  0  0  0  0  0  0  0  0  0  0  0
  145.6580  143.6436  154.5823 H   0  0  0  0  0  0  0  0  0  0  0  0
  146.1235  140.7944  155.9142 H   0  0  0  0  0  0  0  0  0  0  0  0
  147.6559  141.2507  156.6198 H   0  0  0  0  0  0  0  0  0  0  0  0
  146.5952  143.6524  156.8723 H   0  0  0  0  0  0  0  0  0  0  0  0
  144.1682  143.6258  157.2701 H   0  0  0  0  0  0  0  0  0  0  0  0
  144.0755  141.9366  156.7799 H   0  0  0  0  0  0  0  0  0  0  0  0
  144.5120  143.1750  155.6036 H   0  0  0  0  0  0  0  0  0  0  0  0
  150.1975  143.5997  157.8449 H   0  0  0  0  0  0  0  0  0  0  0  0
  150.2666  145.0067  159.7365 H   0  0  0  0  0  0  0  0  0  0  0  0
  151.8627  145.1169  160.4773 H   0  0  0  0  0  0  0  0  0  0  0  0
  150.5781  144.1894  161.2664 H   0  0  0  0  0  0  0  0  0  0  0  0
  147.8844  142.9378  154.9985 H   0  0  0  0  0  0  0  0  0  0  0  0
  1  2  1  0  0  0  0
  1 23  1  0  0  0  0
  1 24  1  0  0  0  0
  1 25  1  0  0  0  0
  2 21  1  0  0  0  0
  2  3  2  0  0  0  0
  3  4  1  0  0  0  0
  3 26  1  0  0  0  0
  4 19  2  0  0  0  0
  4  5  1  0  0  0  0
  5  6  2  0  0  0  0
  6  7  1  0  0  0  0
  6 27  1  0  0  0  0
  7  8  1  0  0  0  0
  7 19  1  0  0  0  0
  8  9  1  0  0  0  0
  8 28  1  0  0  0  0
  8 29  1  0  0  0  0
  9 10  1  0  0  0  0
  9 11  1  0  0  0  0
  9 30  1  0  0  0  0
 10 31  1  0  0  0  0
 11 12  1  0  0  0  0
 11 32  1  0  0  0  0
 11 33  1  0  0  0  0
 12 13  1  0  0  0  0
 12 14  1  0  0  0  0
 12 47  1  0  0  0  0
 13 34  1  0  0  0  0
 13 35  1  0  0  0  0
 13 36  1  0  0  0  0
 14 15  1  0  0  0  0
 14 37  1  0  0  0  0
 14 38  1  0  0  0  0
 15 16  1  0  0  0  0
 15 17  1  0  0  0  0
 15 39  1  0  0  0  0
 16 40  1  0  0  0  0
 16 41  1  0  0  0  0
 16 42  1  0  0  0  0
 17 18  3  0  0  0  0
 19 20  1  0  0  0  0
 20 21  2  0  0  0  0
 20 43  1  0  0  0  0
 21 22  1  0  0  0  0
 22 44  1  0  0  0  0
 22 45  1  0  0  0  0
 22 46  1  0  0  0  0
M  CHG  1  12   1
M  END
> <s_m_source_file>
AV-unprocessed.smi

> <i_m_source_file_index>
1535

> <i_lp_mmshare_version>
43012

> <i_f3d_flags>
0

> <s_epik_input>
W0NIM11jKFtjSF0xKWMoW0NIM10pW2NIXWMoYzEyKW4oW2NIXW4yKVtDSDJdW0NASF0oW09IXSlbQ0gyXU4oW0NIM10pW0NIMl1bQ0BIXShbQ0gzXSlDI04=

> <s_epik_cmdline>
J2VwaWtfcHl0aG9uJywgJy1waCcsICc3LjAnLCAnLXRuJywgJzgnLCAnLW1hJywgJzIwMCcsICctbWV0YWxfYmluZGluZycsICctaW1hZScsICc8aW5maWxlLm1hZT4nLCAnLW9tYWUnLCAnPG91dGZpbGUubWFlPic=

> <r_epik_Ionization_Penalty>
2.21058

> <r_epik_Ionization_Penalty_Charging>
2.12381

> <r_epik_Ionization_Penalty_Neutral>
0.0867699

> <r_epik_State_Penalty>
2.36208

> <r_epik_Charging_Adjusted_Penalty>
4.48589

> <i_epik_Tot_Q>
1

> <i_epik_Tot_abs_Q>
1

> <r_epik_Metal_State_Penalty>
2.2818

> <b_epik_Metal_Only>
0

> <s_lp_Force_Field>
OPLS_2005

> <r_lp_Energy>
14.8259

> <b_lp_Chiralities_Consistent>
1

> <s_lp_Variant>
AV-unprocessed.smi:1535-15

> <Gold.Version>
5.8.1

> <Gold.Id.Protein>
6NUR|6NUR_protein|mol2

> <Gold.PLP.Fitness>
64.5467

> <Gold.PLP.PLP>
-48.2211

> <Gold.PLP.part.hbond>
-5.0000

> <Gold.PLP.part.metal>
0.0000

> <Gold.PLP.part.buried>
-6.6523

> <Gold.PLP.part.nonpolar>
-37.1492

> <Gold.PLP.part.repulsive>
0.1437

> <Gold.PLP.ligand.clash>
0.0000

> <Gold.PLP.ligand.torsion>
0.7595

> <Gold.PLP.Chemscore.Hbond>
5.8480

> <Gold.PLP.Chemscore.CHOScore>
0.0000

> <Gold.PLP.Chemscore.Metal>
0.0000

> <Gold.Chemscore.Hbonds>
donor molecule, donor type, donor heavy atom, donor atom, acceptor molecule, acceptor atom, score
      L1  H    10    31       P1  7957  1.00
      L1  H    12    47       P1  8028  1.56
      P1  H  6934  6946       L1    18  1.00
      P1  H  7989  7998       L1    10  0.83
      P1  H  7997  8008       L1     5  1.00

> <Gold.PLP.Chemscore.Internal.Correction>
0.3007

> <Gold.Rescore>
     Score         DG    S(hbond)    S(metal)    S(lipo)     H(rot)  DE(clash)    DE(int)     intcor
     22.39     -24.39       3.79        0.00     110.35       2.60       0.09       1.91       ----

> <Gold.Chemscore.Fitness>
22.3854

> <Gold.Chemscore.DG>
-24.3886

> <Gold.Chemscore.ZeroCoef>
-5.4800

> <Gold.Chemscore.Hbond>
3.7908

> <Gold.Chemscore.Metal>
0.0000

> <Gold.Chemscore.Lipo>
110.3512

> <Gold.Chemscore.Internal_Hbond>
0.0000

> <Gold.Chemscore.DEClash>
0.0920

> <Gold.Chemscore.DEInternal>
1.9111

> <Gold.Chemscore.Rot>
2.6031

> <Gold.Chemscore.Internal.Correction>
   9.000000E+99

> <Gold.Chemscore.Hbonds>
donor molecule, donor type, donor heavy atom, donor atom, acceptor molecule, acceptor atom, score
      L1  H    10    31       P1  7957  0.98
      L1  H    12    47       P1  8028  0.65
      P1  H  6934  6946       L1    18  0.98
      P1  H  7989  7998       L1    10  0.20
      P1  H  7997  8008       L1     5  0.29

> <Gold.Chemscore.Hbond.Weighted>
-12.6614

> <Gold.Chemscore.Metal.Weighted>
-0.0000

> <Gold.Chemscore.Lipo.Weighted>
-12.9111

> <Gold.Chemscore.Internal_Hbond.Weighted>
0.0000

> <Gold.Chemscore.DEClash.Weighted>
0.0920

> <Gold.Chemscore.DEInternal.Weighted>
1.9111

> <Gold.Chemscore.Rot.Weighted>
6.6640

> <Gold.Chemscore.Internal.Correction.Weighted>
   9.000000E+99

> <Gold.Protein.RotatedTorsions>
[ 6907 6896 6895 6894 ] final  -83.87 input  -60.11 | X-H torsion
[ 7974 7965 7964 7962 ] final  -23.04 input  175.53 | X-H torsion
[ 8008 7997 7996 7995 ] final  -62.24 input   59.86 | X-H torsion
[ 10167 10162 10161 10158 ] final  140.06 input  -65.29 | X-H torsion
[ 10718 10713 10712 10709 ] final  -85.43 input   66.30 | X-H torsion
[ 10763 10752 10751 10750 ] final   81.12 input  -60.55 | X-H torsion
[ 11005 11000 10999 10996 ] final -128.23 input  -57.11 | X-H torsion

> <Gold.Protein.ActiveResidues>
 VAL166  LYS551  ARG553  GLY616  TRP617  ASP618  TYR619  PRO620  LYS621  CYS622 
 ASP623  PHE694  ASN695  SER759  ASP760  ASP761  ALA762  ILE779  LEU786  VAL792 
 PHE793  MET794  SER795  GLU796  ALA797  LYS798  CYS799  TRP800  GLU811  SER814 

> <Gold.Protein.RotatedAtoms>
  150.6881  134.3445  159.4881 H   0  0  0  0  0  0  0  0  0  0  0  0  # atno 6907 bound_to 6896
  152.1294  134.9144  160.0568 H   0  0  0  0  0  0  0  0  0  0  0  0  # atno 6908 bound_to 6896
  152.0319  133.3906  159.4338 H   0  0  0  0  0  0  0  0  0  0  0  0  # atno 6909 bound_to 6896
  146.1640  140.4562  142.8560 H   0  0  0  0  0  0  0  0  0  0  0  0  # atno 7974 bound_to 7965
  154.4489  140.1000  156.6556 H   0  0  0  0  0  0  0  0  0  0  0  0  # atno 8008 bound_to 7997
  155.5349  140.3482  155.4416 H   0  0  0  0  0  0  0  0  0  0  0  0  # atno 8009 bound_to 7997
  156.0638  140.1333  156.9899 H   0  0  0  0  0  0  0  0  0  0  0  0  # atno 8010 bound_to 7997
  139.5060  144.6257  151.5943 H   0  0  0  0  0  0  0  0  0  0  0  0  # atno 10167 bound_to 10162
  155.9997  130.4731  150.4562 H   0  0  0  0  0  0  0  0  0  0  0  0  # atno 10718 bound_to 10713
  153.1090  135.4777  154.9002 H   0  0  0  0  0  0  0  0  0  0  0  0  # atno 10763 bound_to 10752
  154.7461  135.3094  154.8644 H   0  0  0  0  0  0  0  0  0  0  0  0  # atno 10764 bound_to 10752
  153.9239  135.6852  153.4800 H   0  0  0  0  0  0  0  0  0  0  0  0  # atno 10765 bound_to 10752
  140.9533  134.1035  157.4040 H   0  0  0  0  0  0  0  0  0  0  0  0  # atno 11005 bound_to 11000
  144.8066  140.6310  143.6443 LP  0  0  0  0  0  0  0  0  0  0  0  0  # atno 17320 bound_to 7965
  145.4516  139.1523  143.3915 LP  0  0  0  0  0  0  0  0  0  0  0  0  # atno 17321 bound_to 7965
  140.5973  143.9673  150.6363 LP  0  0  0  0  0  0  0  0  0  0  0  0  # atno 17342 bound_to 10162
  140.2873  143.3348  152.1095 LP  0  0  0  0  0  0  0  0  0  0  0  0  # atno 17343 bound_to 10162
  157.2590  131.0563  151.2332 LP  0  0  0  0  0  0  0  0  0  0  0  0  # atno 17370 bound_to 10713
  157.3453  130.7054  149.6407 LP  0  0  0  0  0  0  0  0  0  0  0  0  # atno 17371 bound_to 10713
  139.8854  135.0072  156.6434 LP  0  0  0  0  0  0  0  0  0  0  0  0  # atno 17394 bound_to 11000
  140.7571  133.8848  155.8390 LP  0  0  0  0  0  0  0  0  0  0  0  0  # atno 17395 bound_to 11000

$$$$
