AV-unprocessed.smi:3133|AV-procd|sdf|11938|dock3
  -GOLD-   2272017323D 1   1.00000     0.00000
 Structure written by MMmdl.
 32 33  0  0  0  0  0  0  0  0  1 V2000
  151.8113  138.3825  154.3945 C   0  0  0  0  0  0  0  0  0  0  0  0
  150.8964  138.8557  155.5428 C   0  0  1  0  0  0  0  0  0  0  0  0
  151.6844  139.4867  156.6993 C   0  0  0  0  0  0  0  0  0  0  0  0
  152.9074  139.6119  156.6287 O   0  0  0  0  0  0  0  0  0  0  0  0
  150.9599  139.9070  157.7482 N   0  0  0  0  0  0  0  0  0  0  0  0
  151.4798  140.6355  158.8996 C   0  0  0  0  0  0  0  0  0  0  0  0
  152.0925  141.9805  158.4748 C   0  0  2  0  0  0  0  0  0  0  0  0
  152.4984  142.9028  159.6243 C   0  0  0  0  0  0  0  0  0  0  0  0
  152.4593  144.2862  158.9957 C   0  0  0  0  0  0  0  0  0  0  0  0
  151.6437  144.0925  157.7129 C   0  0  0  0  0  0  0  0  0  0  0  0
  151.1378  142.7660  157.7812 O   0  0  0  0  0  0  0  0  0  0  0  0
  149.8622  139.7808  155.0937 N   0  0  0  0  0  0  0  0  0  0  0  0
  148.5532  139.5820  154.9228 C   0  0  0  0  0  0  0  0  0  0  0  0
  147.8852  140.6676  154.5592 N   0  0  0  0  0  0  0  0  0  0  0  0
  148.9114  141.5689  154.5353 C   0  0  0  0  0  0  0  0  0  0  0  0
  150.1133  141.0936  154.8603 N   0  0  0  0  0  0  0  0  0  0  0  0
  152.5438  137.6578  154.7513 H   0  0  0  0  0  0  0  0  0  0  0  0
  152.3607  139.2068  153.9377 H   0  0  0  0  0  0  0  0  0  0  0  0
  151.2298  137.8982  153.6095 H   0  0  0  0  0  0  0  0  0  0  0  0
  150.3859  137.9726  155.9307 H   0  0  0  0  0  0  0  0  0  0  0  0
  149.9621  139.7545  157.7240 H   0  0  0  0  0  0  0  0  0  0  0  0
  150.6514  140.8135  159.5856 H   0  0  0  0  0  0  0  0  0  0  0  0
  152.2088  140.0388  159.4508 H   0  0  0  0  0  0  0  0  0  0  0  0
  152.9466  141.8113  157.8159 H   0  0  0  0  0  0  0  0  0  0  0  0
  151.7633  142.8476  160.4282 H   0  0  0  0  0  0  0  0  0  0  0  0
  153.4738  142.6531  160.0434 H   0  0  0  0  0  0  0  0  0  0  0  0
  151.9948  145.0081  159.6682 H   0  0  0  0  0  0  0  0  0  0  0  0
  153.4625  144.6431  158.7601 H   0  0  0  0  0  0  0  0  0  0  0  0
  150.8319  144.8141  157.6202 H   0  0  0  0  0  0  0  0  0  0  0  0
  152.2844  144.1867  156.8349 H   0  0  0  0  0  0  0  0  0  0  0  0
  148.0780  138.6242  155.0750 H   0  0  0  0  0  0  0  0  0  0  0  0
  148.7672  142.6080  154.2783 H   0  0  0  0  0  0  0  0  0  0  0  0
  1  2  1  0  0  0  0
  1 17  1  0  0  0  0
  1 18  1  0  0  0  0
  1 19  1  0  0  0  0
  2  3  1  0  0  0  0
  2 12  1  0  0  0  0
  2 20  1  0  0  0  0
  3  4  2  0  0  0  0
  3  5  1  0  0  0  0
  5  6  1  0  0  0  0
  5 21  1  0  0  0  0
  6  7  1  0  0  0  0
  6 22  1  0  0  0  0
  6 23  1  0  0  0  0
  7 11  1  0  0  0  0
  7  8  1  0  0  0  0
  7 24  1  0  0  0  0
  8  9  1  0  0  0  0
  8 25  1  0  0  0  0
  8 26  1  0  0  0  0
  9 10  1  0  0  0  0
  9 27  1  0  0  0  0
  9 28  1  0  0  0  0
 10 11  1  0  0  0  0
 10 29  1  0  0  0  0
 10 30  1  0  0  0  0
 12 16  1  0  0  0  0
 12 13  1  0  0  0  0
 13 14  2  0  0  0  0
 13 31  1  0  0  0  0
 14 15  1  0  0  0  0
 15 16  2  0  0  0  0
 15 32  1  0  0  0  0
M  END
> <s_m_source_file>
AV-unprocessed.smi

> <i_m_source_file_index>
3133

> <i_lp_mmshare_version>
43012

> <i_f3d_flags>
0

> <s_epik_input>
bjFbY0hdbltjSF1uMVtDQEhdKFtDSDNdKUMoPU8pW05IXVtDSDJdW0NAQEhdMltDSDJdW0NIMl1bQ0gyXU8y

> <s_epik_cmdline>
J2VwaWtfcHl0aG9uJywgJy1waCcsICc3LjAnLCAnLXRuJywgJzgnLCAnLW1hJywgJzIwMCcsICctbWV0YWxfYmluZGluZycsICctaW1hZScsICc8aW5maWxlLm1hZT4nLCAnLW9tYWUnLCAnPG91dGZpbGUubWFlPic=

> <r_lp_tautomer_probability>
1

> <r_epik_Ionization_Penalty>
1.2027e-05

> <r_epik_Ionization_Penalty_Charging>
0

> <r_epik_Ionization_Penalty_Neutral>
1.2027e-05

> <r_epik_State_Penalty>
-0

> <r_epik_Charging_Adjusted_Penalty>
0

> <i_epik_Tot_Q>
0

> <i_epik_Tot_abs_Q>
0

> <r_epik_Metal_State_Penalty>
-0

> <b_epik_Metal_Only>
0

> <s_lp_Force_Field>
OPLS_2005

> <r_lp_Energy>
22.7356

> <b_lp_Chiralities_Consistent>
1

> <s_lp_Variant>
AV-unprocessed.smi:3133-2

> <Gold.Version>
5.8.1

> <Gold.Id.Protein>
6NUR|6NUR_protein|mol2

> <Gold.PLP.Fitness>
38.6331

> <Gold.PLP.PLP>
-31.3337

> <Gold.PLP.part.hbond>
-2.0000

> <Gold.PLP.part.metal>
0.0000

> <Gold.PLP.part.buried>
-3.6451

> <Gold.PLP.part.nonpolar>
-26.2535

> <Gold.PLP.part.repulsive>
0.3898

> <Gold.PLP.ligand.clash>
0.0000

> <Gold.PLP.ligand.torsion>
0.3686

> <Gold.PLP.Chemscore.Hbond>
1.6400

> <Gold.PLP.Chemscore.CHOScore>
1.0000

> <Gold.PLP.Chemscore.Metal>
0.0000

> <Gold.Chemscore.Hbonds>
donor molecule, donor type, donor heavy atom, donor atom, acceptor molecule, acceptor atom, score
      P1  H  7989  7998       L1    16  0.60
      P1  H  7997  8008       L1     4  1.00
      L1  C    15    32       P1  8028  1.00

> <Gold.PLP.Chemscore.Internal.Correction>
0.1166

> <Gold.Rescore>
     Score         DG    S(hbond)    S(metal)    S(lipo)     H(rot)  DE(clash)    DE(int)     intcor
     13.83     -14.05       1.84        0.00      70.05       2.26       0.16       0.06       ----

> <Gold.Chemscore.Fitness>
13.8287

> <Gold.Chemscore.DG>
-14.0531

> <Gold.Chemscore.ZeroCoef>
-5.4800

> <Gold.Chemscore.Hbond>
1.8418

> <Gold.Chemscore.Metal>
0.0000

> <Gold.Chemscore.Lipo>
70.0524

> <Gold.Chemscore.Internal_Hbond>
0.0000

> <Gold.Chemscore.DEClash>
0.1648

> <Gold.Chemscore.DEInternal>
0.0595

> <Gold.Chemscore.Rot>
2.2558

> <Gold.Chemscore.Internal.Correction>
   9.000000E+99

> <Gold.Chemscore.Hbonds>
donor molecule, donor type, donor heavy atom, donor atom, acceptor molecule, acceptor atom, score
      P1  H  7989  7998       L1    16  0.13
      P1  H  7997  8008       L1     4  0.94

> <Gold.Chemscore.Hbond.Weighted>
-6.1517

> <Gold.Chemscore.Metal.Weighted>
-0.0000

> <Gold.Chemscore.Lipo.Weighted>
-8.1961

> <Gold.Chemscore.Internal_Hbond.Weighted>
0.0000

> <Gold.Chemscore.DEClash.Weighted>
0.1648

> <Gold.Chemscore.DEInternal.Weighted>
0.0595

> <Gold.Chemscore.Rot.Weighted>
5.7747

> <Gold.Chemscore.Internal.Correction.Weighted>
   9.000000E+99

> <Gold.Protein.RotatedTorsions>
[ 6907 6896 6895 6894 ] final  -28.68 input  -60.11 | X-H torsion
[ 7974 7965 7964 7962 ] final  159.98 input  175.53 | X-H torsion
[ 8008 7997 7996 7995 ] final  -61.02 input   59.86 | X-H torsion
[ 10167 10162 10161 10158 ] final  -38.78 input  -65.29 | X-H torsion
[ 10718 10713 10712 10709 ] final  104.34 input   66.30 | X-H torsion
[ 10763 10752 10751 10750 ] final -162.16 input  -60.55 | X-H torsion
[ 11005 11000 10999 10996 ] final  -74.07 input  -57.11 | X-H torsion

> <Gold.Protein.ActiveResidues>
 VAL166  LYS551  ARG553  GLY616  TRP617  ASP618  TYR619  PRO620  LYS621  CYS622 
 ASP623  PHE694  ASN695  SER759  ASP760  ASP761  ALA762  ILE779  LEU786  VAL792 
 PHE793  MET794  SER795  GLU796  ALA797  LYS798  CYS799  TRP800  GLU811  SER814 

> <Gold.Protein.RotatedAtoms>
  151.1296  135.0123  159.8575 H   0  0  0  0  0  0  0  0  0  0  0  0  # atno 6907 bound_to 6896
  152.5450  134.1626  159.8574 H   0  0  0  0  0  0  0  0  0  0  0  0  # atno 6908 bound_to 6896
  151.1692  133.4750  159.2627 H   0  0  0  0  0  0  0  0  0  0  0  0  # atno 6909 bound_to 6896
  144.7761  139.7693  143.6278 H   0  0  0  0  0  0  0  0  0  0  0  0  # atno 7974 bound_to 7965
  154.4427  140.1027  156.6366 H   0  0  0  0  0  0  0  0  0  0  0  0  # atno 8008 bound_to 7997
  155.5547  140.3486  155.4458 H   0  0  0  0  0  0  0  0  0  0  0  0  # atno 8009 bound_to 7997
  156.0503  140.1302  157.0047 H   0  0  0  0  0  0  0  0  0  0  0  0  # atno 8010 bound_to 7997
  140.7083  143.3256  151.2689 H   0  0  0  0  0  0  0  0  0  0  0  0  # atno 10167 bound_to 10162
  157.6743  131.0801  150.5691 H   0  0  0  0  0  0  0  0  0  0  0  0  # atno 10718 bound_to 10713
  154.7239  135.3031  154.9003 H   0  0  0  0  0  0  0  0  0  0  0  0  # atno 10763 bound_to 10752
  153.9866  135.6724  153.4756 H   0  0  0  0  0  0  0  0  0  0  0  0  # atno 10764 bound_to 10752
  153.0858  135.4985  154.8511 H   0  0  0  0  0  0  0  0  0  0  0  0  # atno 10765 bound_to 10752
  141.1630  133.6899  156.7308 H   0  0  0  0  0  0  0  0  0  0  0  0  # atno 11005 bound_to 11000
  146.1941  139.5197  142.9786 LP  0  0  0  0  0  0  0  0  0  0  0  0  # atno 17320 bound_to 7965
  145.6183  141.0327  143.1929 LP  0  0  0  0  0  0  0  0  0  0  0  0  # atno 17321 bound_to 7965
  139.6723  143.9999  152.2760 LP  0  0  0  0  0  0  0  0  0  0  0  0  # atno 17342 bound_to 10162
  139.9601  144.6563  150.8087 LP  0  0  0  0  0  0  0  0  0  0  0  0  # atno 17343 bound_to 10162
  156.5992  130.4350  149.5904 LP  0  0  0  0  0  0  0  0  0  0  0  0  # atno 17370 bound_to 10713
  156.2520  130.6912  151.1653 LP  0  0  0  0  0  0  0  0  0  0  0  0  # atno 17371 bound_to 10713
  140.2747  134.8364  157.3879 LP  0  0  0  0  0  0  0  0  0  0  0  0  # atno 17394 bound_to 11000
  140.1489  134.4875  155.7976 LP  0  0  0  0  0  0  0  0  0  0  0  0  # atno 17395 bound_to 11000

$$$$
