AV-unprocessed.smi:210|AV-procd|sdf|1613|dock5
  -GOLD-   2262019533D 1   1.00000     0.00000
 Structure written by MMmdl.
 57 61  0  0  0  0  0  0  0  0  1 V2000
  151.1679  141.0751  157.1599 C   0  0  0  0  0  0  0  0  0  0  0  0
  149.8350  140.9371  157.6199 O   0  0  0  0  0  0  0  0  0  0  0  0
  148.8761  141.2440  156.6200 C   0  0  2  0  0  0  0  0  0  0  0  0
  147.4160  141.0466  157.0537 C   0  0  0  0  0  0  0  0  0  0  0  0
  147.1655  140.4843  155.6431 C   0  0  2  0  0  0  0  0  0  0  0  0
  146.2115  139.3684  155.5435 N   0  0  0  0  0  0  0  0  0  0  0  0
  145.6840  138.6814  156.7206 C   0  0  0  0  0  0  0  0  0  0  0  0
  146.2066  138.7032  154.3563 C   0  0  0  0  0  0  0  0  0  0  0  0
  146.9470  139.2193  153.3399 N   0  0  0  0  0  0  0  0  0  0  0  0
  146.9857  138.6146  152.1499 C   0  0  0  0  0  0  0  0  0  0  0  0
  146.3751  137.4939  151.7643 N   0  0  0  0  0  0  0  0  0  0  0  0
  145.6404  136.9569  152.7794 C   0  0  0  0  0  0  0  0  0  0  0  0
  145.4953  137.4925  154.0927 C   0  0  0  0  0  0  0  0  0  0  0  0
  144.6670  136.6616  154.8411 N   0  0  0  0  0  0  0  0  0  0  0  0
  144.3301  135.7084  154.0176 C   0  0  0  0  0  0  0  0  0  0  0  0
  144.8933  135.7915  152.7655 N   0  0  0  0  0  0  0  0  0  0  0  0
  144.6658  134.9036  151.6628 C   0  0  0  0  0  0  0  0  0  0  0  0
  144.2394  133.4486  151.8884 C   0  0  0  0  0  0  0  0  0  0  0  0
  145.0211  133.0366  150.6193 C   0  0  0  0  0  0  0  0  0  0  0  0
  145.7892  131.7017  150.6837 C   0  0  0  0  0  0  0  0  0  0  0  0
  146.7278  131.6659  151.7399 O   0  0  0  0  0  0  0  0  0  0  0  0
  144.1684  133.0092  149.3364 C   0  0  0  0  0  0  0  0  0  0  0  0
  143.3528  131.8564  149.2776 O   0  0  0  0  0  0  0  0  0  0  0  0
  145.8318  134.3333  150.8500 C   0  0  0  0  0  0  0  0  0  0  0  0
  148.6608  140.1060  155.5997 C   0  0  0  0  0  0  0  0  0  0  0  0
  149.1937  138.6851  155.8713 C   0  0  0  0  0  0  0  0  0  0  0  0
  150.3374  138.9939  154.9001 C   0  0  0  0  0  0  0  0  0  0  0  0
  149.4532  140.0849  154.2866 C   0  0  0  0  0  0  0  0  0  0  0  0
  151.8599  140.8107  157.9594 H   0  0  0  0  0  0  0  0  0  0  0  0
  151.3800  142.1016  156.8589 H   0  0  0  0  0  0  0  0  0  0  0  0
  151.3628  140.4147  156.3142 H   0  0  0  0  0  0  0  0  0  0  0  0
  149.0477  142.2051  156.1301 H   0  0  0  0  0  0  0  0  0  0  0  0
  147.3419  140.3286  157.8708 H   0  0  0  0  0  0  0  0  0  0  0  0
  146.8815  141.9696  157.2788 H   0  0  0  0  0  0  0  0  0  0  0  0
  146.9497  141.3049  154.9564 H   0  0  0  0  0  0  0  0  0  0  0  0
  144.8928  137.9812  156.4516 H   0  0  0  0  0  0  0  0  0  0  0  0
  145.2351  139.3944  157.4113 H   0  0  0  0  0  0  0  0  0  0  0  0
  146.4675  138.1367  157.2468 H   0  0  0  0  0  0  0  0  0  0  0  0
  147.5947  139.0969  151.3997 H   0  0  0  0  0  0  0  0  0  0  0  0
  143.6633  134.9095  154.3075 H   0  0  0  0  0  0  0  0  0  0  0  0
  143.9573  135.4157  151.0095 H   0  0  0  0  0  0  0  0  0  0  0  0
  144.6500  133.0362  152.8112 H   0  0  0  0  0  0  0  0  0  0  0  0
  143.1629  133.2827  151.8383 H   0  0  0  0  0  0  0  0  0  0  0  0
  145.1029  130.8649  150.8182 H   0  0  0  0  0  0  0  0  0  0  0  0
  146.3330  131.5165  149.7569 H   0  0  0  0  0  0  0  0  0  0  0  0
  147.4726  131.1548  151.4625 H   0  0  0  0  0  0  0  0  0  0  0  0
  143.5316  133.8921  149.2701 H   0  0  0  0  0  0  0  0  0  0  0  0
  144.7943  133.0183  148.4440 H   0  0  0  0  0  0  0  0  0  0  0  0
  142.4476  132.1284  149.2692 H   0  0  0  0  0  0  0  0  0  0  0  0
  146.0669  134.8984  149.9476 H   0  0  0  0  0  0  0  0  0  0  0  0
  146.7263  134.1876  151.4578 H   0  0  0  0  0  0  0  0  0  0  0  0
  149.5043  138.4863  156.8971 H   0  0  0  0  0  0  0  0  0  0  0  0
  148.5507  137.8922  155.4904 H   0  0  0  0  0  0  0  0  0  0  0  0
  151.2183  139.3977  155.4020 H   0  0  0  0  0  0  0  0  0  0  0  0
  150.5940  138.1798  154.2221 H   0  0  0  0  0  0  0  0  0  0  0  0
  148.8632  139.7233  153.4429 H   0  0  0  0  0  0  0  0  0  0  0  0
  149.9731  141.0131  154.0477 H   0  0  0  0  0  0  0  0  0  0  0  0
  1  2  1  0  0  0  0
  1 29  1  0  0  0  0
  1 30  1  0  0  0  0
  1 31  1  0  0  0  0
  2  3  1  0  0  0  0
  3 25  1  0  0  0  0
  3  4  1  0  0  0  0
  3 32  1  0  0  0  0
  4  5  1  0  0  0  0
  4 33  1  0  0  0  0
  4 34  1  0  0  0  0
  5  6  1  0  0  0  0
  5 25  1  0  0  0  0
  5 35  1  0  0  0  0
  6  7  1  0  0  0  0
  6  8  1  0  0  0  0
  7 36  1  0  0  0  0
  7 37  1  0  0  0  0
  7 38  1  0  0  0  0
  8 13  1  0  0  0  0
  8  9  2  0  0  0  0
  9 10  1  0  0  0  0
 10 11  2  0  0  0  0
 10 39  1  0  0  0  0
 11 12  1  0  0  0  0
 12 16  1  0  0  0  0
 12 13  2  0  0  0  0
 13 14  1  0  0  0  0
 14 15  2  0  0  0  0
 15 16  1  0  0  0  0
 15 40  1  0  0  0  0
 16 17  1  0  0  0  0
 17 24  1  0  0  0  0
 17 18  1  0  0  0  0
 17 41  1  0  0  0  0
 18 19  1  0  0  0  0
 18 42  1  0  0  0  0
 18 43  1  0  0  0  0
 19 20  1  0  0  0  0
 19 22  1  0  0  0  0
 19 24  1  0  0  0  0
 20 21  1  0  0  0  0
 20 44  1  0  0  0  0
 20 45  1  0  0  0  0
 21 46  1  0  0  0  0
 22 23  1  0  0  0  0
 22 47  1  0  0  0  0
 22 48  1  0  0  0  0
 23 49  1  0  0  0  0
 24 50  1  0  0  0  0
 24 51  1  0  0  0  0
 25 28  1  0  0  0  0
 25 26  1  0  0  0  0
 26 27  1  0  0  0  0
 26 52  1  0  0  0  0
 26 53  1  0  0  0  0
 27 28  1  0  0  0  0
 27 54  1  0  0  0  0
 27 55  1  0  0  0  0
 28 56  1  0  0  0  0
 28 57  1  0  0  0  0
M  END
> <s_m_source_file>
AV-unprocessed.smi

> <i_m_source_file_index>
210

> <i_lp_mmshare_version>
43012

> <i_f3d_flags>
0

> <s_epik_input>
W0NIMl0xW0NIMl1bQ0gyXUMxMltDQEhdKE9bQ0gzXSlbQ0gyXVtDQEhdMk4oW0NIM10pYyhuW2NIXW4zKWMoYzM0KW5bY0hdbjRbQ0hdKFtDSDJdNSlbQ0gyXUM1KFtDSDJdW09IXSlbQ0gyXVtPSF0=

> <s_epik_cmdline>
J2VwaWtfcHl0aG9uJywgJy1waCcsICc3LjAnLCAnLXRuJywgJzgnLCAnLW1hJywgJzIwMCcsICctbWV0YWxfYmluZGluZycsICctaW1hZScsICc8aW5maWxlLm1hZT4nLCAnLW9tYWUnLCAnPG91dGZpbGUubWFlPic=

> <r_lp_tautomer_probability>
1

> <r_epik_Ionization_Penalty>
0.00313676

> <r_epik_Ionization_Penalty_Charging>
0

> <r_epik_Ionization_Penalty_Neutral>
0.00313676

> <r_epik_State_Penalty>
0.00199132

> <r_epik_Charging_Adjusted_Penalty>
0.00199132

> <i_epik_Tot_Q>
0

> <i_epik_Tot_abs_Q>
0

> <r_epik_Metal_State_Penalty>
-0

> <b_epik_Metal_Only>
0

> <s_lp_Force_Field>
OPLS_2005

> <r_lp_Energy>
62.7777

> <b_lp_Chiralities_Consistent>
1

> <s_lp_Variant>
AV-unprocessed.smi:210-3

> <Gold.Version>
5.8.1

> <Gold.Id.Protein>
6NUR|6NUR_protein|mol2

> <Gold.PLP.Fitness>
45.6059

> <Gold.PLP.PLP>
-37.0270

> <Gold.PLP.part.hbond>
-3.0000

> <Gold.PLP.part.metal>
0.0000

> <Gold.PLP.part.buried>
-3.8058

> <Gold.PLP.part.nonpolar>
-30.7415

> <Gold.PLP.part.repulsive>
1.3104

> <Gold.PLP.ligand.clash>
0.0000

> <Gold.PLP.ligand.torsion>
1.0750

> <Gold.PLP.Chemscore.Hbond>
2.0837

> <Gold.PLP.Chemscore.CHOScore>
1.0000

> <Gold.PLP.Chemscore.Metal>
0.0000

> <Gold.Chemscore.Hbonds>
donor molecule, donor type, donor heavy atom, donor atom, acceptor molecule, acceptor atom, score
      L1  H    21    46       P1 10747  1.00
      L1  H    23    49       P1 10952  0.01
      P1  H 10785 10796       L1    23  1.00
      L1  C    10    39       P1  7957  1.00

> <Gold.PLP.Chemscore.Internal.Correction>
1.4778

> <Gold.Rescore>
     Score         DG    S(hbond)    S(metal)    S(lipo)     H(rot)  DE(clash)    DE(int)     intcor
      9.36     -12.82       2.00        0.00      77.64       3.29       0.69       2.77       ----

> <Gold.Chemscore.Fitness>
9.3576

> <Gold.Chemscore.DG>
-12.8186

> <Gold.Chemscore.ZeroCoef>
-5.4800

> <Gold.Chemscore.Hbond>
1.9967

> <Gold.Chemscore.Metal>
0.0000

> <Gold.Chemscore.Lipo>
77.6448

> <Gold.Chemscore.Internal_Hbond>
0.0000

> <Gold.Chemscore.DEClash>
0.6905

> <Gold.Chemscore.DEInternal>
2.7705

> <Gold.Chemscore.Rot>
3.2870

> <Gold.Chemscore.Internal.Correction>
   9.000000E+99

> <Gold.Chemscore.Hbonds>
donor molecule, donor type, donor heavy atom, donor atom, acceptor molecule, acceptor atom, score
      L1  H    21    46       P1 10747  0.95
      L1  H    23    49       P1 10952  0.02
      P1  H 10785 10796       L1    23  0.29

> <Gold.Chemscore.Hbond.Weighted>
-6.6689

> <Gold.Chemscore.Metal.Weighted>
-0.0000

> <Gold.Chemscore.Lipo.Weighted>
-9.0844

> <Gold.Chemscore.Internal_Hbond.Weighted>
0.0000

> <Gold.Chemscore.DEClash.Weighted>
0.6905

> <Gold.Chemscore.DEInternal.Weighted>
2.7705

> <Gold.Chemscore.Rot.Weighted>
8.4147

> <Gold.Chemscore.Internal.Correction.Weighted>
   9.000000E+99

> <Gold.Protein.RotatedTorsions>
[ 6907 6896 6895 6894 ] final -111.44 input  -60.11 | X-H torsion
[ 7974 7965 7964 7962 ] final   68.21 input  175.53 | X-H torsion
[ 8008 7997 7996 7995 ] final  -31.17 input   59.86 | X-H torsion
[ 10167 10162 10161 10158 ] final -158.25 input  -65.29 | X-H torsion
[ 10718 10713 10712 10709 ] final  126.73 input   66.30 | X-H torsion
[ 10763 10752 10751 10750 ] final  -18.42 input  -60.55 | X-H torsion
[ 11005 11000 10999 10996 ] final  -73.76 input  -57.11 | X-H torsion

> <Gold.Protein.ActiveResidues>
 VAL166  LYS551  ARG553  GLY616  TRP617  ASP618  TYR619  PRO620  LYS621  CYS622 
 ASP623  PHE694  ASN695  SER759  ASP760  ASP761  ALA762  ILE779  LEU786  VAL792 
 PHE793  MET794  SER795  GLU796  ALA797  LYS798  CYS799  TRP800  GLU811  SER814 

> <Gold.Protein.RotatedAtoms>
  150.7691  133.9234  159.3404 H   0  0  0  0  0  0  0  0  0  0  0  0  # atno 6907 bound_to 6896
  151.7125  135.0908  160.0279 H   0  0  0  0  0  0  0  0  0  0  0  0  # atno 6908 bound_to 6896
  152.3700  133.6369  159.6115 H   0  0  0  0  0  0  0  0  0  0  0  0  # atno 6909 bound_to 6896
  145.8054  139.3004  143.1130 H   0  0  0  0  0  0  0  0  0  0  0  0  # atno 7974 bound_to 7965
  154.4223  140.1771  156.1524 H   0  0  0  0  0  0  0  0  0  0  0  0  # atno 8008 bound_to 7997
  155.9904  140.3369  155.6723 H   0  0  0  0  0  0  0  0  0  0  0  0  # atno 8009 bound_to 7997
  155.6379  140.0677  157.2618 H   0  0  0  0  0  0  0  0  0  0  0  0  # atno 8010 bound_to 7997
  139.6707  143.9750  152.2282 H   0  0  0  0  0  0  0  0  0  0  0  0  # atno 10167 bound_to 10162
  157.5394  131.1097  150.8883 H   0  0  0  0  0  0  0  0  0  0  0  0  # atno 10718 bound_to 10713
  153.5890  135.7003  153.5431 H   0  0  0  0  0  0  0  0  0  0  0  0  # atno 10763 bound_to 10752
  153.3195  135.4078  155.1404 H   0  0  0  0  0  0  0  0  0  0  0  0  # atno 10764 bound_to 10752
  154.8604  135.3692  154.5421 H   0  0  0  0  0  0  0  0  0  0  0  0  # atno 10765 bound_to 10752
  141.1627  133.6889  156.7262 H   0  0  0  0  0  0  0  0  0  0  0  0  # atno 11005 bound_to 11000
  145.9834  140.8664  143.0103 LP  0  0  0  0  0  0  0  0  0  0  0  0  # atno 17320 bound_to 7965
  144.6763  140.2112  143.7377 LP  0  0  0  0  0  0  0  0  0  0  0  0  # atno 17321 bound_to 7965
  139.9514  144.6618  150.8169 LP  0  0  0  0  0  0  0  0  0  0  0  0  # atno 17342 bound_to 10162
  140.7617  143.3180  151.2688 LP  0  0  0  0  0  0  0  0  0  0  0  0  # atno 17343 bound_to 10162
  156.9441  130.5395  149.5281 LP  0  0  0  0  0  0  0  0  0  0  0  0  # atno 17370 bound_to 10713
  156.0484  130.5557  150.8934 LP  0  0  0  0  0  0  0  0  0  0  0  0  # atno 17371 bound_to 10713
  140.2779  134.8340  157.3907 LP  0  0  0  0  0  0  0  0  0  0  0  0  # atno 17394 bound_to 11000
  140.1460  134.4911  155.7996 LP  0  0  0  0  0  0  0  0  0  0  0  0  # atno 17395 bound_to 11000

$$$$
