AV-unprocessed.smi:787|AV-procd|sdf|3729|dock7
  -GOLD-   22720 1163D 1   1.00000     0.00000
 Structure written by MMmdl.
 46 48  0  0  0  0  0  0  0  0  1 V2000
  146.0895  137.9614  152.7972 C   0  0  0  0  0  0  0  0  0  0  0  0
  146.9886  136.9582  153.3453 N   0  0  0  0  0  0  0  0  0  0  0  0
  147.0098  136.7017  154.7235 C   0  0  0  0  0  0  0  0  0  0  0  0
  146.8062  135.4444  155.1812 N   0  0  0  0  0  0  0  0  0  0  0  0
  146.8232  135.2504  156.5065 C   0  0  0  0  0  0  0  0  0  0  0  0
  147.0167  136.1429  157.4900 N   0  0  0  0  0  0  0  0  0  0  0  0
  147.2255  137.3900  157.0464 C   0  0  0  0  0  0  0  0  0  0  0  0
  147.4552  138.5055  157.8335 N   0  0  0  0  0  0  0  0  0  0  0  0
  147.5973  139.4593  156.9163 C   0  0  0  0  0  0  0  0  0  0  0  0
  147.4790  139.1004  155.6229 N   0  0  0  0  0  0  0  0  0  0  0  0
  147.5890  139.9666  154.4628 C   0  0  0  0  0  0  0  0  0  0  0  0
  148.8527  140.8450  154.5146 C   0  0  2  0  0  0  0  0  0  0  0  0
  149.0411  141.4004  153.2292 O   0  0  0  0  0  0  0  0  0  0  0  0
  150.1212  140.0453  154.8862 C   0  0  0  0  0  0  0  0  0  0  0  0
  151.0812  140.7389  155.7539 N   0  0  0  0  0  0  0  0  0  0  0  0
  152.2009  139.8567  156.0591 C   0  0  0  0  0  0  0  0  0  0  0  0
  150.4877  141.2010  157.0145 C   0  0  0  0  0  0  0  0  0  0  0  0
  151.2980  142.2176  157.7975 C   0  0  0  0  0  0  0  0  0  0  0  0
  151.9811  141.8315  158.9706 C   0  0  0  0  0  0  0  0  0  0  0  0
  152.7189  142.7810  159.7041 C   0  0  0  0  0  0  0  0  0  0  0  0
  152.7643  144.1217  159.2758 C   0  0  0  0  0  0  0  0  0  0  0  0
  152.0742  144.5119  158.1121 C   0  0  0  0  0  0  0  0  0  0  0  0
  151.3473  143.5611  157.3705 C   0  0  0  0  0  0  0  0  0  0  0  0
  147.2345  137.7299  155.6605 C   0  0  0  0  0  0  0  0  0  0  0  0
  146.2232  138.0298  151.7177 H   0  0  0  0  0  0  0  0  0  0  0  0
  146.2942  138.9415  153.2289 H   0  0  0  0  0  0  0  0  0  0  0  0
  145.0495  137.7006  152.9958 H   0  0  0  0  0  0  0  0  0  0  0  0
  147.7109  136.5739  152.7529 H   0  0  0  0  0  0  0  0  0  0  0  0
  146.6523  134.2341  156.8290 H   0  0  0  0  0  0  0  0  0  0  0  0
  147.7937  140.4825  157.2019 H   0  0  0  0  0  0  0  0  0  0  0  0
  147.5801  139.3549  153.5595 H   0  0  0  0  0  0  0  0  0  0  0  0
  146.6919  140.5853  154.4206 H   0  0  0  0  0  0  0  0  0  0  0  0
  148.6746  141.6675  155.2023 H   0  0  0  0  0  0  0  0  0  0  0  0
  149.2407  140.7017  152.6252 H   0  0  0  0  0  0  0  0  0  0  0  0
  149.8441  139.1012  155.3554 H   0  0  0  0  0  0  0  0  0  0  0  0
  150.6041  139.7585  153.9505 H   0  0  0  0  0  0  0  0  0  0  0  0
  152.9418  140.3673  156.6752 H   0  0  0  0  0  0  0  0  0  0  0  0
  152.7038  139.5372  155.1457 H   0  0  0  0  0  0  0  0  0  0  0  0
  151.8678  138.9660  156.5938 H   0  0  0  0  0  0  0  0  0  0  0  0
  149.4881  141.5984  156.8314 H   0  0  0  0  0  0  0  0  0  0  0  0
  150.3496  140.3483  157.6806 H   0  0  0  0  0  0  0  0  0  0  0  0
  151.9444  140.8051  159.3055 H   0  0  0  0  0  0  0  0  0  0  0  0
  153.2469  142.4814  160.5974 H   0  0  0  0  0  0  0  0  0  0  0  0
  153.3293  144.8503  159.8383 H   0  0  0  0  0  0  0  0  0  0  0  0
  152.1098  145.5399  157.7829 H   0  0  0  0  0  0  0  0  0  0  0  0
  150.8265  143.8685  156.4754 H   0  0  0  0  0  0  0  0  0  0  0  0
  1  2  1  0  0  0  0
  1 25  1  0  0  0  0
  1 26  1  0  0  0  0
  1 27  1  0  0  0  0
  2  3  1  0  0  0  0
  2 28  1  0  0  0  0
  3 24  1  0  0  0  0
  3  4  2  0  0  0  0
  4  5  1  0  0  0  0
  5  6  2  0  0  0  0
  5 29  1  0  0  0  0
  6  7  1  0  0  0  0
  7 24  2  0  0  0  0
  7  8  1  0  0  0  0
  8  9  2  0  0  0  0
  9 10  1  0  0  0  0
  9 30  1  0  0  0  0
 10 11  1  0  0  0  0
 10 24  1  0  0  0  0
 11 12  1  0  0  0  0
 11 31  1  0  0  0  0
 11 32  1  0  0  0  0
 12 13  1  0  0  0  0
 12 14  1  0  0  0  0
 12 33  1  0  0  0  0
 13 34  1  0  0  0  0
 14 15  1  0  0  0  0
 14 35  1  0  0  0  0
 14 36  1  0  0  0  0
 15 16  1  0  0  0  0
 15 17  1  0  0  0  0
 16 37  1  0  0  0  0
 16 38  1  0  0  0  0
 16 39  1  0  0  0  0
 17 18  1  0  0  0  0
 17 40  1  0  0  0  0
 17 41  1  0  0  0  0
 18 23  1  0  0  0  0
 18 19  2  0  0  0  0
 19 20  1  0  0  0  0
 19 42  1  0  0  0  0
 20 21  2  0  0  0  0
 20 43  1  0  0  0  0
 21 22  1  0  0  0  0
 21 44  1  0  0  0  0
 22 23  2  0  0  0  0
 22 45  1  0  0  0  0
 23 46  1  0  0  0  0
M  END
> <s_m_source_file>
AV-unprocessed.smi

> <i_m_source_file_index>
787

> <i_lp_mmshare_version>
43012

> <i_f3d_flags>
0

> <s_epik_input>
bjFbY0hdbmMoW05IXVtDSDNdKWMoYzEyKW4oW2NIXW4yKVtDSDJdW0NASF0oW09IXSlbQ0gyXU4oW0NIM10pW0NIMl1jM1tjSF1bY0hdW2NIXVtjSF1bY0hdMw==

> <s_epik_cmdline>
J2VwaWtfcHl0aG9uJywgJy1waCcsICc3LjAnLCAnLXRuJywgJzgnLCAnLW1hJywgJzIwMCcsICctbWV0YWxfYmluZGluZycsICctaW1hZScsICc8aW5maWxlLm1hZT4nLCAnLW9tYWUnLCAnPG91dGZpbGUubWFlPic=

> <r_lp_tautomer_probability>
0.999987

> <r_epik_Ionization_Penalty>
1.52367

> <r_epik_Ionization_Penalty_Charging>
0

> <r_epik_Ionization_Penalty_Neutral>
1.52367

> <r_epik_State_Penalty>
1.60995

> <r_epik_Charging_Adjusted_Penalty>
1.60995

> <i_epik_Tot_Q>
0

> <i_epik_Tot_abs_Q>
0

> <r_epik_Metal_State_Penalty>
1.60969

> <b_epik_Metal_Only>
0

> <s_lp_Force_Field>
OPLS_2005

> <r_lp_Energy>
20.724

> <b_lp_Chiralities_Consistent>
1

> <s_lp_Variant>
AV-unprocessed.smi:787-5

> <Gold.Version>
5.8.1

> <Gold.Id.Protein>
6NUR|6NUR_protein|mol2

> <Gold.PLP.Fitness>
43.5854

> <Gold.PLP.PLP>
-37.5371

> <Gold.PLP.part.hbond>
-3.6680

> <Gold.PLP.part.metal>
0.0000

> <Gold.PLP.part.buried>
-3.9131

> <Gold.PLP.part.nonpolar>
-30.1575

> <Gold.PLP.part.repulsive>
0.0657

> <Gold.PLP.ligand.clash>
0.0000

> <Gold.PLP.ligand.torsion>
1.5120

> <Gold.PLP.Chemscore.Hbond>
2.9120

> <Gold.PLP.Chemscore.CHOScore>
0.0000

> <Gold.PLP.Chemscore.Metal>
0.0000

> <Gold.Chemscore.Hbonds>
donor molecule, donor type, donor heavy atom, donor atom, acceptor molecule, acceptor atom, score
      L1  H     2    28       P1  7948  1.00
      L1  H    13    34       P1  7957  1.00
      P1  H  8011  8017       L1    13  0.55

> <Gold.PLP.Chemscore.Internal.Correction>
0.3364

> <Gold.Rescore>
     Score         DG    S(hbond)    S(metal)    S(lipo)     H(rot)  DE(clash)    DE(int)     intcor
     15.89     -17.68       2.31        0.00     106.41       3.11       0.10       1.69       ----

> <Gold.Chemscore.Fitness>
15.8935

> <Gold.Chemscore.DG>
-17.6778

> <Gold.Chemscore.ZeroCoef>
-5.4800

> <Gold.Chemscore.Hbond>
2.3063

> <Gold.Chemscore.Metal>
0.0000

> <Gold.Chemscore.Lipo>
106.4084

> <Gold.Chemscore.Internal_Hbond>
0.0000

> <Gold.Chemscore.DEClash>
0.0988

> <Gold.Chemscore.DEInternal>
1.6855

> <Gold.Chemscore.Rot>
3.1075

> <Gold.Chemscore.Internal.Correction>
   9.000000E+99

> <Gold.Chemscore.Hbonds>
donor molecule, donor type, donor heavy atom, donor atom, acceptor molecule, acceptor atom, score
      L1  H     2    28       P1  7948  0.97
      L1  H    13    34       P1  7957  0.98
      P1  H  8011  8017       L1    13  0.03

> <Gold.Chemscore.Hbond.Weighted>
-7.7031

> <Gold.Chemscore.Metal.Weighted>
-0.0000

> <Gold.Chemscore.Lipo.Weighted>
-12.4498

> <Gold.Chemscore.Internal_Hbond.Weighted>
0.0000

> <Gold.Chemscore.DEClash.Weighted>
0.0988

> <Gold.Chemscore.DEInternal.Weighted>
1.6855

> <Gold.Chemscore.Rot.Weighted>
7.9551

> <Gold.Chemscore.Internal.Correction.Weighted>
   9.000000E+99

> <Gold.Protein.RotatedTorsions>
[ 6907 6896 6895 6894 ] final  -25.60 input  -60.11 | X-H torsion
[ 7974 7965 7964 7962 ] final  157.43 input  175.53 | X-H torsion
[ 8008 7997 7996 7995 ] final -113.17 input   59.86 | X-H torsion
[ 10167 10162 10161 10158 ] final  125.25 input  -65.29 | X-H torsion
[ 10718 10713 10712 10709 ] final  -21.86 input   66.30 | X-H torsion
[ 10763 10752 10751 10750 ] final -147.45 input  -60.55 | X-H torsion
[ 11005 11000 10999 10996 ] final -155.80 input  -57.11 | X-H torsion

> <Gold.Protein.ActiveResidues>
 VAL166  LYS551  ARG553  GLY616  TRP617  ASP618  TYR619  PRO620  LYS621  CYS622 
 ASP623  PHE694  ASN695  SER759  ASP760  ASP761  ALA762  ILE779  LEU786  VAL792 
 PHE793  MET794  SER795  GLU796  ALA797  LYS798  CYS799  TRP800  GLU811  SER814 

> <Gold.Protein.RotatedAtoms>
  151.1728  135.0326  159.8758 H   0  0  0  0  0  0  0  0  0  0  0  0  # atno 6907 bound_to 6896
  152.5448  134.1151  159.8385 H   0  0  0  0  0  0  0  0  0  0  0  0  # atno 6908 bound_to 6896
  151.1259  133.5024  159.2633 H   0  0  0  0  0  0  0  0  0  0  0  0  # atno 6909 bound_to 6896
  144.7904  139.7340  143.6224 H   0  0  0  0  0  0  0  0  0  0  0  0  # atno 7974 bound_to 7965
  155.0165  140.0393  157.2420 H   0  0  0  0  0  0  0  0  0  0  0  0  # atno 8008 bound_to 7997
  154.7414  140.2749  155.6346 H   0  0  0  0  0  0  0  0  0  0  0  0  # atno 8009 bound_to 7997
  156.2865  140.2664  156.2143 H   0  0  0  0  0  0  0  0  0  0  0  0  # atno 8010 bound_to 7997
  139.5696  144.6931  151.3815 H   0  0  0  0  0  0  0  0  0  0  0  0  # atno 10167 bound_to 10162
  156.5124  130.4613  149.6641 H   0  0  0  0  0  0  0  0  0  0  0  0  # atno 10718 bound_to 10713
  154.8285  135.3360  154.6819 H   0  0  0  0  0  0  0  0  0  0  0  0  # atno 10763 bound_to 10752
  153.7442  135.6943  153.4964 H   0  0  0  0  0  0  0  0  0  0  0  0  # atno 10764 bound_to 10752
  153.2222  135.4445  155.0453 H   0  0  0  0  0  0  0  0  0  0  0  0  # atno 10765 bound_to 10752
  140.6825  134.4129  157.5225 H   0  0  0  0  0  0  0  0  0  0  0  0  # atno 11005 bound_to 11000
  146.2153  139.5538  142.9654 LP  0  0  0  0  0  0  0  0  0  0  0  0  # atno 17320 bound_to 7965
  145.5810  141.0382  143.2122 LP  0  0  0  0  0  0  0  0  0  0  0  0  # atno 17321 bound_to 7965
  140.6980  143.7701  150.7358 LP  0  0  0  0  0  0  0  0  0  0  0  0  # atno 17342 bound_to 10162
  140.1203  143.4618  152.2317 LP  0  0  0  0  0  0  0  0  0  0  0  0  # atno 17343 bound_to 10162
  156.3227  130.7289  151.2204 LP  0  0  0  0  0  0  0  0  0  0  0  0  # atno 17370 bound_to 10713
  157.7448  131.0451  150.4827 LP  0  0  0  0  0  0  0  0  0  0  0  0  # atno 17371 bound_to 10713
  139.8947  134.8699  156.2163 LP  0  0  0  0  0  0  0  0  0  0  0  0  # atno 17394 bound_to 11000
  141.0306  133.6991  156.1423 LP  0  0  0  0  0  0  0  0  0  0  0  0  # atno 17395 bound_to 11000

$$$$
