AV-unprocessed.smi:3201|AV-procd|sdf|12239|dock7
  -GOLD-   2272018 73D 1   1.00000     0.00000
 Structure written by MMmdl.
 41 43  0  0  0  0  0  0  0  0  2 V2000
  149.2051  138.4142  154.3753 C   0  0  0  0  0  0  0  0  0  0  0  0
  148.5850  139.7742  154.3803 C   0  0  0  0  0  0  0  0  0  0  0  0
  148.7690  140.8383  155.2221 C   0  0  0  0  0  0  0  0  0  0  0  0
  149.6718  140.9543  156.4194 C   0  0  0  0  0  0  0  0  0  0  0  0
  150.9088  141.8076  156.1101 C   0  0  0  0  0  0  0  0  0  0  0  0
  150.7631  143.1705  156.6604 N   0  3  0  0  0  0  0  0  0  0  0  0
  150.8428  143.2562  158.1356 C   0  0  2  0  0  0  0  0  0  0  0  0
  150.5648  144.6927  158.6319 C   0  0  0  0  0  0  0  0  0  0  0  0
  151.8297  145.0311  159.4418 C   0  0  1  0  0  0  0  0  0  0  0  0
  151.8615  144.1854  160.7282 C   0  0  0  0  0  0  0  0  0  0  0  0
  152.1891  142.7763  160.1991 C   0  0  0  0  0  0  0  0  0  0  0  0
  152.2690  142.9939  158.6761 C   0  0  2  0  0  0  0  0  0  0  0  0
  152.9173  144.3733  158.6025 C   0  0  0  0  0  0  0  0  0  0  0  0
  147.8942  141.8340  154.7027 C   0  0  0  0  0  0  0  0  0  0  0  0
  147.2272  141.4263  153.6380 N   0  0  0  0  0  0  0  0  0  0  0  0
  147.6520  140.1620  153.4366 N   0  0  0  0  0  0  0  0  0  0  0  0
  147.1147  139.3990  152.3266 C   0  0  0  0  0  0  0  0  0  0  0  0
  149.8307  138.2612  155.2542 H   0  0  0  0  0  0  0  0  0  0  0  0
  149.8296  138.2776  153.4922 H   0  0  0  0  0  0  0  0  0  0  0  0
  148.4397  137.6379  154.3720 H   0  0  0  0  0  0  0  0  0  0  0  0
  149.1330  141.3890  157.2623 H   0  0  0  0  0  0  0  0  0  0  0  0
  149.9908  139.9657  156.7522 H   0  0  0  0  0  0  0  0  0  0  0  0
  151.7980  141.3418  156.5374 H   0  0  0  0  0  0  0  0  0  0  0  0
  151.0605  141.8604  155.0320 H   0  0  0  0  0  0  0  0  0  0  0  0
  151.4728  143.7685  156.2621 H   0  0  0  0  0  0  0  0  0  0  0  0
  150.1212  142.5610  158.5680 H   0  0  0  0  0  0  0  0  0  0  0  0
  150.4505  145.3910  157.8012 H   0  0  0  0  0  0  0  0  0  0  0  0
  149.6600  144.7528  159.2380 H   0  0  0  0  0  0  0  0  0  0  0  0
  151.9646  146.0990  159.6165 H   0  0  0  0  0  0  0  0  0  0  0  0
  152.6446  144.5322  161.4037 H   0  0  0  0  0  0  0  0  0  0  0  0
  150.9147  144.2183  161.2685 H   0  0  0  0  0  0  0  0  0  0  0  0
  153.1477  142.4348  160.5919 H   0  0  0  0  0  0  0  0  0  0  0  0
  151.4346  142.0394  160.4771 H   0  0  0  0  0  0  0  0  0  0  0  0
  152.8149  142.2028  158.1622 H   0  0  0  0  0  0  0  0  0  0  0  0
  152.9829  144.7709  157.5884 H   0  0  0  0  0  0  0  0  0  0  0  0
  153.9047  144.4131  159.0663 H   0  0  0  0  0  0  0  0  0  0  0  0
  147.7244  142.8360  155.0682 H   0  0  0  0  0  0  0  0  0  0  0  0
  147.9315  139.0019  151.7236 H   0  0  0  0  0  0  0  0  0  0  0  0
  146.4856  140.0278  151.6948 H   0  0  0  0  0  0  0  0  0  0  0  0
  146.5171  138.5706  152.7075 H   0  0  0  0  0  0  0  0  0  0  0  0
  149.8568  143.5159  156.3784 H   0  0  0  0  0  0  0  0  0  0  0  0
  1  2  1  0  0  0  0
  1 18  1  0  0  0  0
  1 19  1  0  0  0  0
  1 20  1  0  0  0  0
  2 16  1  0  0  0  0
  2  3  2  0  0  0  0
  3  4  1  0  0  0  0
  3 14  1  0  0  0  0
  4  5  1  0  0  0  0
  4 21  1  0  0  0  0
  4 22  1  0  0  0  0
  5  6  1  0  0  0  0
  5 23  1  0  0  0  0
  5 24  1  0  0  0  0
  6  7  1  0  0  0  0
  6 25  1  0  0  0  0
  6 41  1  0  0  0  0
  7 12  1  0  0  0  0
  7  8  1  0  0  0  0
  7 26  1  0  0  0  0
  8  9  1  0  0  0  0
  8 27  1  0  0  0  0
  8 28  1  0  0  0  0
  9 13  1  0  0  0  0
  9 10  1  0  0  0  0
  9 29  1  0  0  0  0
 10 11  1  0  0  0  0
 10 30  1  0  0  0  0
 10 31  1  0  0  0  0
 11 12  1  0  0  0  0
 11 32  1  0  0  0  0
 11 33  1  0  0  0  0
 12 13  1  0  0  0  0
 12 34  1  0  0  0  0
 13 35  1  0  0  0  0
 13 36  1  0  0  0  0
 14 15  2  0  0  0  0
 14 37  1  0  0  0  0
 15 16  1  0  0  0  0
 16 17  1  0  0  0  0
 17 38  1  0  0  0  0
 17 39  1  0  0  0  0
 17 40  1  0  0  0  0
M  CHG  1   6   1
M  END
> <s_m_source_file>
AV-unprocessed.smi

> <i_m_source_file_index>
3201

> <i_lp_mmshare_version>
43012

> <i_f3d_flags>
0

> <s_epik_input>
W0NIM11uMW5bY0hdYyhjMVtDSDNdKVtDSDJdW0NIMl1bTkhdW0NASF0oW0NIMl1bQ0BIXTIzKVtDQEhdKFtDSDJdMylbQ0gyXVtDSDJdMg==

> <s_epik_cmdline>
J2VwaWtfcHl0aG9uJywgJy1waCcsICc3LjAnLCAnLXRuJywgJzgnLCAnLW1hJywgJzIwMCcsICctbWV0YWxfYmluZGluZycsICctaW1hZScsICc8aW5maWxlLm1hZT4nLCAnLW9tYWUnLCAnPG91dGZpbGUubWFlPic=

> <r_lp_tautomer_probability>
1

> <r_epik_Ionization_Penalty>
0.000331174

> <r_epik_Ionization_Penalty_Charging>
0.000242709

> <r_epik_Ionization_Penalty_Neutral>
8.84659e-05

> <r_epik_State_Penalty>
-0

> <r_epik_Charging_Adjusted_Penalty>
0.000242709

> <i_epik_Tot_Q>
1

> <i_epik_Tot_abs_Q>
1

> <r_epik_Metal_State_Penalty>
-0

> <b_epik_Metal_Only>
0

> <s_lp_Force_Field>
OPLS_2005

> <r_lp_Energy>
49.8246

> <b_lp_Chiralities_Consistent>
1

> <s_lp_Variant>
AV-unprocessed.smi:3201-3

> <Gold.Version>
5.8.1

> <Gold.Id.Protein>
6NUR|6NUR_protein|mol2

> <Gold.PLP.Fitness>
48.0589

> <Gold.PLP.PLP>
-40.1831

> <Gold.PLP.part.hbond>
-1.0000

> <Gold.PLP.part.metal>
0.0000

> <Gold.PLP.part.buried>
-3.2801

> <Gold.PLP.part.nonpolar>
-35.7542

> <Gold.PLP.part.repulsive>
0.2271

> <Gold.PLP.ligand.clash>
0.0000

> <Gold.PLP.ligand.torsion>
0.5488

> <Gold.PLP.Chemscore.Hbond>
1.9840

> <Gold.PLP.Chemscore.CHOScore>
1.0000

> <Gold.PLP.Chemscore.Metal>
0.0000

> <Gold.Chemscore.Hbonds>
donor molecule, donor type, donor heavy atom, donor atom, acceptor molecule, acceptor atom, score
      L1  H     6    41       P1  8028  1.98
      L1  C    14    37       P1  8028  1.00

> <Gold.PLP.Chemscore.Internal.Correction>
0.0215

> <Gold.Rescore>
     Score         DG    S(hbond)    S(metal)    S(lipo)     H(rot)  DE(clash)    DE(int)     intcor
     18.98     -19.63       0.98        0.00     122.54       1.36       0.18       0.46       ----

> <Gold.Chemscore.Fitness>
18.9803

> <Gold.Chemscore.DG>
-19.6265

> <Gold.Chemscore.ZeroCoef>
-5.4800

> <Gold.Chemscore.Hbond>
0.9843

> <Gold.Chemscore.Metal>
0.0000

> <Gold.Chemscore.Lipo>
122.5435

> <Gold.Chemscore.Internal_Hbond>
0.0000

> <Gold.Chemscore.DEClash>
0.1820

> <Gold.Chemscore.DEInternal>
0.4643

> <Gold.Chemscore.Rot>
1.3588

> <Gold.Chemscore.Internal.Correction>
   9.000000E+99

> <Gold.Chemscore.Hbonds>
donor molecule, donor type, donor heavy atom, donor atom, acceptor molecule, acceptor atom, score
      L1  H     6    41       P1  8028  0.94

> <Gold.Chemscore.Hbond.Weighted>
-3.2875

> <Gold.Chemscore.Metal.Weighted>
-0.0000

> <Gold.Chemscore.Lipo.Weighted>
-14.3376

> <Gold.Chemscore.Internal_Hbond.Weighted>
0.0000

> <Gold.Chemscore.DEClash.Weighted>
0.1820

> <Gold.Chemscore.DEInternal.Weighted>
0.4643

> <Gold.Chemscore.Rot.Weighted>
3.4786

> <Gold.Chemscore.Internal.Correction.Weighted>
   9.000000E+99

> <Gold.Protein.RotatedTorsions>
[ 6907 6896 6895 6894 ] final  174.56 input  -60.11 | X-H torsion
[ 7974 7965 7964 7962 ] final -154.70 input  175.53 | X-H torsion
[ 8008 7997 7996 7995 ] final   -1.04 input   59.86 | X-H torsion
[ 10167 10162 10161 10158 ] final -172.96 input  -65.29 | X-H torsion
[ 10718 10713 10712 10709 ] final  174.92 input   66.30 | X-H torsion
[ 10763 10752 10751 10750 ] final -120.45 input  -60.55 | X-H torsion
[ 11005 11000 10999 10996 ] final  -86.62 input  -57.11 | X-H torsion

> <Gold.Protein.ActiveResidues>
 VAL166  LYS551  ARG553  GLY616  TRP617  ASP618  TYR619  PRO620  LYS621  CYS622 
 ASP623  PHE694  ASN695  SER759  ASP760  ASP761  ALA762  ILE779  LEU786  VAL792 
 PHE793  MET794  SER795  GLU796  ALA797  LYS798  CYS799  TRP800  GLU811  SER814 

> <Gold.Protein.RotatedAtoms>
  151.7504  133.3327  159.3389 H   0  0  0  0  0  0  0  0  0  0  0  0  # atno 6907 bound_to 6896
  150.7537  134.6197  159.6139 H   0  0  0  0  0  0  0  0  0  0  0  0  # atno 6908 bound_to 6896
  152.3472  134.7057  160.0298 H   0  0  0  0  0  0  0  0  0  0  0  0  # atno 6909 bound_to 6896
  144.7676  140.4351  143.5930 H   0  0  0  0  0  0  0  0  0  0  0  0  # atno 7974 bound_to 7965
  154.6512  140.2569  155.7212 H   0  0  0  0  0  0  0  0  0  0  0  0  # atno 8008 bound_to 7997
  156.2576  140.2867  156.0868 H   0  0  0  0  0  0  0  0  0  0  0  0  # atno 8009 bound_to 7997
  155.1448  140.0381  157.2797 H   0  0  0  0  0  0  0  0  0  0  0  0  # atno 8010 bound_to 7997
  139.5715  144.1630  152.1391 H   0  0  0  0  0  0  0  0  0  0  0  0  # atno 10167 bound_to 10162
  156.9424  131.0005  151.2965 H   0  0  0  0  0  0  0  0  0  0  0  0  # atno 10718 bound_to 10713
  154.8644  135.4202  154.2462 H   0  0  0  0  0  0  0  0  0  0  0  0  # atno 10763 bound_to 10752
  153.3417  135.6994  153.6867 H   0  0  0  0  0  0  0  0  0  0  0  0  # atno 10764 bound_to 10752
  153.5843  135.3567  155.2859 H   0  0  0  0  0  0  0  0  0  0  0  0  # atno 10765 bound_to 10752
  141.1628  133.7465  156.9188 H   0  0  0  0  0  0  0  0  0  0  0  0  # atno 11005 bound_to 11000
  145.6422  139.1551  143.2909 LP  0  0  0  0  0  0  0  0  0  0  0  0  # atno 17320 bound_to 7965
  146.1797  140.6517  142.9195 LP  0  0  0  0  0  0  0  0  0  0  0  0  # atno 17321 bound_to 7965
  140.1164  144.5412  150.6891 LP  0  0  0  0  0  0  0  0  0  0  0  0  # atno 17342 bound_to 10162
  140.6999  143.2428  151.4893 LP  0  0  0  0  0  0  0  0  0  0  0  0  # atno 17343 bound_to 10162
  157.5776  130.8354  149.8477 LP  0  0  0  0  0  0  0  0  0  0  0  0  # atno 17370 bound_to 10713
  156.0398  130.3742  150.1464 LP  0  0  0  0  0  0  0  0  0  0  0  0  # atno 17371 bound_to 10713
  140.1466  134.9258  157.2537 LP  0  0  0  0  0  0  0  0  0  0  0  0  # atno 17394 bound_to 11000
  140.2773  134.3391  155.7354 LP  0  0  0  0  0  0  0  0  0  0  0  0  # atno 17395 bound_to 11000

$$$$
