AV-unprocessed.smi:1100|AV-procd|sdf|4759|dock10
  -GOLD-   22720 3293D 1   1.00000     0.00000
 Structure written by MMmdl.
 43 44  0  0  0  0  0  0  0  0  1 V2000
  149.2826  135.9714  157.8415 C   0  0  0  0  0  0  0  0  0  0  0  0
  149.4409  136.2642  156.3274 C   0  0  2  0  0  0  0  0  0  0  0  0
  149.5345  134.9118  155.5620 C   0  0  0  0  0  0  0  0  0  0  0  0
  148.8346  134.9171  154.2800 N   0  0  0  0  0  0  0  0  0  0  0  0
  147.7935  134.1325  153.9671 C   0  0  0  0  0  0  0  0  0  0  0  0
  147.3059  133.3188  154.7507 O   0  0  0  0  0  0  0  0  0  0  0  0
  147.3765  134.3678  152.7096 N   0  0  0  0  0  0  0  0  0  0  0  0
  146.3489  133.7450  151.9874 C   0  0  0  0  0  0  0  0  0  0  0  0
  144.9335  133.7874  152.3267 C   0  0  0  0  0  0  0  0  0  0  0  0
  144.0212  133.1515  151.5649 C   0  0  0  0  0  0  0  0  0  0  0  0
  144.4067  132.3945  150.3714 C   0  0  0  0  0  0  0  0  0  0  0  0
  143.5812  131.8179  149.6628 O   0  0  0  0  0  0  0  0  0  0  0  0
  145.7427  132.3680  150.0974 N   0  0  0  0  0  0  0  0  0  0  0  0
  146.2326  131.6331  148.9287 C   0  0  0  0  0  0  0  0  0  0  0  0
  146.6899  133.0348  150.8968 C   0  0  0  0  0  0  0  0  0  0  0  0
  150.5676  137.1807  156.0345 N   0  0  0  0  0  0  0  0  0  0  0  0
  150.7794  137.3766  154.5953 C   0  0  0  0  0  0  0  0  0  0  0  0
  151.9274  138.3533  154.2867 C   0  0  0  0  0  0  0  0  0  0  0  0
  151.6787  139.6017  154.9177 O   0  0  0  0  0  0  0  0  0  0  0  0
  151.5445  139.4691  156.3258 C   0  0  0  0  0  0  0  0  0  0  0  0
  150.3916  138.5026  156.6474 C   0  0  0  0  0  0  0  0  0  0  0  0
  148.4846  135.2590  158.0469 H   0  0  0  0  0  0  0  0  0  0  0  0
  149.0172  136.8619  158.4092 H   0  0  0  0  0  0  0  0  0  0  0  0
  150.2021  135.5634  158.2623 H   0  0  0  0  0  0  0  0  0  0  0  0
  148.5222  136.7551  156.0028 H   0  0  0  0  0  0  0  0  0  0  0  0
  150.5652  134.6301  155.3517 H   0  0  0  0  0  0  0  0  0  0  0  0
  149.1157  134.1114  156.1727 H   0  0  0  0  0  0  0  0  0  0  0  0
  149.1737  135.5616  153.5808 H   0  0  0  0  0  0  0  0  0  0  0  0
  147.8658  135.0931  152.2063 H   0  0  0  0  0  0  0  0  0  0  0  0
  144.5736  134.3120  153.1965 H   0  0  0  0  0  0  0  0  0  0  0  0
  142.9783  133.1951  151.8429 H   0  0  0  0  0  0  0  0  0  0  0  0
  147.3204  131.6358  148.8543 H   0  0  0  0  0  0  0  0  0  0  0  0
  145.8408  132.0741  148.0111 H   0  0  0  0  0  0  0  0  0  0  0  0
  145.9144  130.5900  148.9675 H   0  0  0  0  0  0  0  0  0  0  0  0
  147.7130  132.9372  150.5626 H   0  0  0  0  0  0  0  0  0  0  0  0
  151.0302  136.4362  154.1093 H   0  0  0  0  0  0  0  0  0  0  0  0
  149.8607  137.7395  154.1319 H   0  0  0  0  0  0  0  0  0  0  0  0
  152.8814  137.9480  154.6273 H   0  0  0  0  0  0  0  0  0  0  0  0
  152.0124  138.5092  153.2113 H   0  0  0  0  0  0  0  0  0  0  0  0
  152.4809  139.1117  156.7574 H   0  0  0  0  0  0  0  0  0  0  0  0
  151.3471  140.4504  156.7576 H   0  0  0  0  0  0  0  0  0  0  0  0
  149.4489  138.9414  156.3165 H   0  0  0  0  0  0  0  0  0  0  0  0
  150.3394  138.4199  157.7314 H   0  0  0  0  0  0  0  0  0  0  0  0
  1  2  1  0  0  0  0
  1 22  1  0  0  0  0
  1 23  1  0  0  0  0
  1 24  1  0  0  0  0
  2  3  1  0  0  0  0
  2 16  1  0  0  0  0
  2 25  1  0  0  0  0
  3  4  1  0  0  0  0
  3 26  1  0  0  0  0
  3 27  1  0  0  0  0
  4  5  1  0  0  0  0
  4 28  1  0  0  0  0
  5  6  2  0  0  0  0
  5  7  1  0  0  0  0
  7  8  1  0  0  0  0
  7 29  1  0  0  0  0
  8 15  2  0  0  0  0
  8  9  1  0  0  0  0
  9 10  2  0  0  0  0
  9 30  1  0  0  0  0
 10 11  1  0  0  0  0
 10 31  1  0  0  0  0
 11 12  2  0  0  0  0
 11 13  1  0  0  0  0
 13 14  1  0  0  0  0
 13 15  1  0  0  0  0
 14 32  1  0  0  0  0
 14 33  1  0  0  0  0
 14 34  1  0  0  0  0
 15 35  1  0  0  0  0
 16 21  1  0  0  0  0
 16 17  1  0  0  0  0
 17 18  1  0  0  0  0
 17 36  1  0  0  0  0
 17 37  1  0  0  0  0
 18 19  1  0  0  0  0
 18 38  1  0  0  0  0
 18 39  1  0  0  0  0
 19 20  1  0  0  0  0
 20 21  1  0  0  0  0
 20 40  1  0  0  0  0
 20 41  1  0  0  0  0
 21 42  1  0  0  0  0
 21 43  1  0  0  0  0
M  END
> <s_m_source_file>
AV-unprocessed.smi

> <i_m_source_file_index>
1100

> <i_lp_mmshare_version>
43012

> <i_f3d_flags>
0

> <s_epik_input>
W0NIMl0xW0NIMl1PW0NIMl1bQ0gyXU4xW0NASF0oW0NIM10pW0NIMl1bTkhdQyg9TylbTkhdYzJbY0hdW2NIXWMoPU8pbihbQ0gzXSlbY0hdMg==

> <s_epik_cmdline>
J2VwaWtfcHl0aG9uJywgJy1waCcsICc3LjAnLCAnLXRuJywgJzgnLCAnLW1hJywgJzIwMCcsICctbWV0YWxfYmluZGluZycsICctaW1hZScsICc8aW5maWxlLm1hZT4nLCAnLW9tYWUnLCAnPG91dGZpbGUubWFlPic=

> <r_lp_tautomer_probability>
1

> <r_epik_Ionization_Penalty>
0.266016

> <r_epik_Ionization_Penalty_Charging>
5.79683e-06

> <r_epik_Ionization_Penalty_Neutral>
0.26601

> <r_epik_State_Penalty>
0.257924

> <r_epik_Charging_Adjusted_Penalty>
0.25793

> <i_epik_Tot_Q>
0

> <i_epik_Tot_abs_Q>
0

> <r_epik_Metal_State_Penalty>
0.260326

> <b_epik_Metal_Only>
0

> <s_lp_Force_Field>
OPLS_2005

> <r_lp_Energy>
41.8129

> <b_lp_Chiralities_Consistent>
1

> <s_lp_Variant>
AV-unprocessed.smi:1100-1

> <Gold.Version>
5.8.1

> <Gold.Id.Protein>
6NUR|6NUR_protein|mol2

> <Gold.PLP.Fitness>
45.5463

> <Gold.PLP.PLP>
-33.0014

> <Gold.PLP.part.hbond>
-4.0000

> <Gold.PLP.part.metal>
0.0000

> <Gold.PLP.part.buried>
-5.5031

> <Gold.PLP.part.nonpolar>
-24.6528

> <Gold.PLP.part.repulsive>
0.3115

> <Gold.PLP.ligand.clash>
0.0000

> <Gold.PLP.ligand.torsion>
1.1197

> <Gold.PLP.Chemscore.Hbond>
3.9280

> <Gold.PLP.Chemscore.CHOScore>
0.9916

> <Gold.PLP.Chemscore.Metal>
0.0000

> <Gold.Chemscore.Hbonds>
donor molecule, donor type, donor heavy atom, donor atom, acceptor molecule, acceptor atom, score
      L1  H     4    28       P1  7948  0.93
      L1  H     7    29       P1  7948  1.00
      P1  H  7989  7998       L1    19  1.00
      P1  H 10785 10796       L1    12  0.98
      L1  C    15    35       P1 10747  0.96

> <Gold.PLP.Chemscore.Internal.Correction>
0.0255

> <Gold.Rescore>
     Score         DG    S(hbond)    S(metal)    S(lipo)     H(rot)  DE(clash)    DE(int)     intcor
     20.42     -21.81       3.57        0.00      70.33       1.49       0.11       1.28       ----

> <Gold.Chemscore.Fitness>
20.4234

> <Gold.Chemscore.DG>
-21.8114

> <Gold.Chemscore.ZeroCoef>
-5.4800

> <Gold.Chemscore.Hbond>
3.5710

> <Gold.Chemscore.Metal>
0.0000

> <Gold.Chemscore.Lipo>
70.3284

> <Gold.Chemscore.Internal_Hbond>
0.0000

> <Gold.Chemscore.DEClash>
0.1078

> <Gold.Chemscore.DEInternal>
1.2802

> <Gold.Chemscore.Rot>
1.4938

> <Gold.Chemscore.Internal.Correction>
   9.000000E+99

> <Gold.Chemscore.Hbonds>
donor molecule, donor type, donor heavy atom, donor atom, acceptor molecule, acceptor atom, score
      L1  H     4    28       P1  7948  0.55
      L1  H     7    29       P1  7948  0.86
      P1  H  7989  7998       L1    19  0.49
      P1  H 10785 10796       L1    12  0.92

> <Gold.Chemscore.Hbond.Weighted>
-11.9272

> <Gold.Chemscore.Metal.Weighted>
-0.0000

> <Gold.Chemscore.Lipo.Weighted>
-8.2284

> <Gold.Chemscore.Internal_Hbond.Weighted>
0.0000

> <Gold.Chemscore.DEClash.Weighted>
0.1078

> <Gold.Chemscore.DEInternal.Weighted>
1.2802

> <Gold.Chemscore.Rot.Weighted>
3.8242

> <Gold.Chemscore.Internal.Correction.Weighted>
   9.000000E+99

> <Gold.Protein.RotatedTorsions>
[ 6907 6896 6895 6894 ] final  -33.30 input  -60.11 | X-H torsion
[ 7974 7965 7964 7962 ] final  157.69 input  175.53 | X-H torsion
[ 8008 7997 7996 7995 ] final   77.98 input   59.86 | X-H torsion
[ 10167 10162 10161 10158 ] final -168.41 input  -65.29 | X-H torsion
[ 10718 10713 10712 10709 ] final   84.00 input   66.30 | X-H torsion
[ 10763 10752 10751 10750 ] final   37.60 input  -60.55 | X-H torsion
[ 11005 11000 10999 10996 ] final  160.25 input  -57.11 | X-H torsion

> <Gold.Protein.ActiveResidues>
 VAL166  LYS551  ARG553  GLY616  TRP617  ASP618  TYR619  PRO620  LYS621  CYS622 
 ASP623  PHE694  ASN695  SER759  ASP760  ASP761  ALA762  ILE779  LEU786  VAL792 
 PHE793  MET794  SER795  GLU796  ALA797  LYS798  CYS799  TRP800  GLU811  SER814 

> <Gold.Protein.RotatedAtoms>
  151.0674  134.9776  159.8291 H   0  0  0  0  0  0  0  0  0  0  0  0  # atno 6907 bound_to 6896
  152.5404  134.2341  159.8846 H   0  0  0  0  0  0  0  0  0  0  0  0  # atno 6908 bound_to 6896
  151.2364  133.4379  159.2639 H   0  0  0  0  0  0  0  0  0  0  0  0  # atno 6909 bound_to 6896
  144.7889  139.7375  143.6229 H   0  0  0  0  0  0  0  0  0  0  0  0  # atno 7974 bound_to 7965
  155.8493  140.3459  155.5683 H   0  0  0  0  0  0  0  0  0  0  0  0  # atno 8008 bound_to 7997
  155.8055  140.0891  157.1953 H   0  0  0  0  0  0  0  0  0  0  0  0  # atno 8009 bound_to 7997
  154.4007  140.1457  156.3312 H   0  0  0  0  0  0  0  0  0  0  0  0  # atno 8010 bound_to 7997
  139.5987  144.1056  152.1719 H   0  0  0  0  0  0  0  0  0  0  0  0  # atno 10167 bound_to 10162
  157.6890  131.0115  150.2608 H   0  0  0  0  0  0  0  0  0  0  0  0  # atno 10718 bound_to 10713
  153.0031  135.6273  154.2171 H   0  0  0  0  0  0  0  0  0  0  0  0  # atno 10763 bound_to 10752
  154.1914  135.2808  155.3022 H   0  0  0  0  0  0  0  0  0  0  0  0  # atno 10764 bound_to 10752
  154.5756  135.5663  153.7196 H   0  0  0  0  0  0  0  0  0  0  0  0  # atno 10765 bound_to 10752
  140.2041  134.8316  157.3050 H   0  0  0  0  0  0  0  0  0  0  0  0  # atno 11005 bound_to 11000
  146.2132  139.5504  142.9667 LP  0  0  0  0  0  0  0  0  0  0  0  0  # atno 17320 bound_to 7965
  145.5848  141.0378  143.2102 LP  0  0  0  0  0  0  0  0  0  0  0  0  # atno 17321 bound_to 7965
  140.0648  144.5828  150.7236 LP  0  0  0  0  0  0  0  0  0  0  0  0  # atno 17342 bound_to 10162
  140.7233  143.2610  151.4207 LP  0  0  0  0  0  0  0  0  0  0  0  0  # atno 17343 bound_to 10162
  156.3188  130.3782  149.7594 LP  0  0  0  0  0  0  0  0  0  0  0  0  # atno 17370 bound_to 10713
  156.5171  130.8198  151.3190 LP  0  0  0  0  0  0  0  0  0  0  0  0  # atno 17371 bound_to 10713
  140.2022  134.4241  155.7657 LP  0  0  0  0  0  0  0  0  0  0  0  0  # atno 17394 bound_to 11000
  141.2227  133.7077  156.8201 LP  0  0  0  0  0  0  0  0  0  0  0  0  # atno 17395 bound_to 11000

$$$$
