AV-unprocessed.smi:90|AV-procd|sdf|830|dock3
  -GOLD-   2262017253D 1   1.00000     0.00000
 Structure written by MMmdl.
 64 67  0  0  0  0  0  0  0  0  2 V2000
  148.4378  134.1870  155.7777 C   0  0  0  0  0  0  0  0  0  0  0  0
  147.5899  134.8315  154.7784 N   0  0  0  0  0  0  0  0  0  0  0  0
  146.5045  134.0345  154.2098 C   0  0  0  0  0  0  0  0  0  0  0  0
  146.6947  132.5230  154.4427 C   0  0  0  0  0  0  0  0  0  0  0  0
  147.7348  131.8716  153.4936 C   0  0  1  0  0  0  0  0  0  0  0  0
  148.2638  130.5093  153.9989 C   0  0  0  0  0  0  0  0  0  0  0  0
  147.1999  129.4050  153.8972 C   0  0  0  0  0  0  0  0  0  0  0  0
  146.6682  129.3154  152.4603 C   0  0  0  0  0  0  0  0  0  0  0  0
  146.1749  130.6826  151.9575 C   0  0  0  0  0  0  0  0  0  0  0  0
  147.2377  131.7114  152.0941 N   0  3  1  0  0  0  0  0  0  0  0  0
  146.9075  132.9800  151.4050 C   0  0  0  0  0  0  0  0  0  0  0  0
  147.3807  136.1715  154.8903 C   0  0  0  0  0  0  0  0  0  0  0  0
  146.5260  136.7841  154.0271 N   0  0  0  0  0  0  0  0  0  0  0  0
  146.3202  138.1019  154.0949 C   0  0  0  0  0  0  0  0  0  0  0  0
  146.8528  138.9852  154.9392 N   0  0  0  0  0  0  0  0  0  0  0  0
  147.6981  138.3810  155.8213 C   0  0  0  0  0  0  0  0  0  0  0  0
  148.0210  136.9938  155.8639 C   0  0  0  0  0  0  0  0  0  0  0  0
  148.9177  136.7559  156.8994 N   0  0  0  0  0  0  0  0  0  0  0  0
  149.1201  137.9308  157.4285 C   0  0  0  0  0  0  0  0  0  0  0  0
  148.4138  138.9633  156.8543 N   0  0  0  0  0  0  0  0  0  0  0  0
  148.4501  140.3663  157.2459 C   0  0  0  0  0  0  0  0  0  0  0  0
  149.8216  141.0750  157.0308 C   0  0  0  0  0  0  0  0  0  0  0  0
  150.1855  141.1194  155.5193 C   0  0  0  0  0  0  0  0  0  0  0  0
  149.2578  141.8757  154.7674 O   0  0  0  0  0  0  0  0  0  0  0  0
  149.7658  142.5197  157.5912 C   0  0  0  0  0  0  0  0  0  0  0  0
  151.1541  143.1746  157.7202 C   0  0  0  0  0  0  0  0  0  0  0  0
  152.0105  142.3612  158.5107 O   0  0  0  0  0  0  0  0  0  0  0  0
  152.2301  141.0776  157.9410 C   0  0  0  0  0  0  0  0  0  0  0  0
  150.8969  140.3153  157.8485 C   0  0  0  0  0  0  0  0  0  0  0  0
  149.3759  134.7302  155.8995 H   0  0  0  0  0  0  0  0  0  0  0  0
  148.6819  133.1691  155.4727 H   0  0  0  0  0  0  0  0  0  0  0  0
  147.9357  134.1394  156.7447 H   0  0  0  0  0  0  0  0  0  0  0  0
  145.5398  134.3542  154.5981 H   0  0  0  0  0  0  0  0  0  0  0  0
  146.4703  134.2432  153.1410 H   0  0  0  0  0  0  0  0  0  0  0  0
  146.9608  132.3493  155.4847 H   0  0  0  0  0  0  0  0  0  0  0  0
  145.7272  132.0439  154.2990 H   0  0  0  0  0  0  0  0  0  0  0  0
  148.5902  132.5468  153.4431 H   0  0  0  0  0  0  0  0  0  0  0  0
  149.1264  130.2206  153.3967 H   0  0  0  0  0  0  0  0  0  0  0  0
  148.6345  130.5820  155.0206 H   0  0  0  0  0  0  0  0  0  0  0  0
  147.6257  128.4472  154.1976 H   0  0  0  0  0  0  0  0  0  0  0  0
  146.3799  129.6062  154.5869 H   0  0  0  0  0  0  0  0  0  0  0  0
  147.4601  128.9529  151.8036 H   0  0  0  0  0  0  0  0  0  0  0  0
  145.8625  128.5828  152.4047 H   0  0  0  0  0  0  0  0  0  0  0  0
  145.8891  130.5948  150.9087 H   0  0  0  0  0  0  0  0  0  0  0  0
  145.2788  130.9900  152.4974 H   0  0  0  0  0  0  0  0  0  0  0  0
  145.9812  133.4158  151.7801 H   0  0  0  0  0  0  0  0  0  0  0  0
  146.7813  132.8045  150.3364 H   0  0  0  0  0  0  0  0  0  0  0  0
  147.7090  133.7092  151.5267 H   0  0  0  0  0  0  0  0  0  0  0  0
  145.6313  138.5067  153.3682 H   0  0  0  0  0  0  0  0  0  0  0  0
  149.7893  138.0760  158.2641 H   0  0  0  0  0  0  0  0  0  0  0  0
  147.6716  140.8815  156.6816 H   0  0  0  0  0  0  0  0  0  0  0  0
  148.1454  140.4365  158.2907 H   0  0  0  0  0  0  0  0  0  0  0  0
  151.1790  141.5430  155.3713 H   0  0  0  0  0  0  0  0  0  0  0  0
  150.2194  140.1228  155.0827 H   0  0  0  0  0  0  0  0  0  0  0  0
  149.3841  142.7907  154.9663 H   0  0  0  0  0  0  0  0  0  0  0  0
  149.1299  143.1500  156.9689 H   0  0  0  0  0  0  0  0  0  0  0  0
  149.3062  142.5058  158.5805 H   0  0  0  0  0  0  0  0  0  0  0  0
  151.6054  143.3587  156.7449 H   0  0  0  0  0  0  0  0  0  0  0  0
  151.0588  144.1469  158.2037 H   0  0  0  0  0  0  0  0  0  0  0  0
  152.7094  141.1706  156.9660 H   0  0  0  0  0  0  0  0  0  0  0  0
  152.9250  140.5305  158.5781 H   0  0  0  0  0  0  0  0  0  0  0  0
  150.5332  140.1556  158.8645 H   0  0  0  0  0  0  0  0  0  0  0  0
  151.0667  139.3197  157.4378 H   0  0  0  0  0  0  0  0  0  0  0  0
  148.0273  131.3411  151.5844 H   0  0  0  0  0  0  0  0  0  0  0  0
  1  2  1  0  0  0  0
  1 30  1  0  0  0  0
  1 31  1  0  0  0  0
  1 32  1  0  0  0  0
  2  3  1  0  0  0  0
  2 12  1  0  0  0  0
  3  4  1  0  0  0  0
  3 33  1  0  0  0  0
  3 34  1  0  0  0  0
  4  5  1  0  0  0  0
  4 35  1  0  0  0  0
  4 36  1  0  0  0  0
  5 10  1  0  0  0  0
  5  6  1  0  0  0  0
  5 37  1  0  0  0  0
  6  7  1  0  0  0  0
  6 38  1  0  0  0  0
  6 39  1  0  0  0  0
  7  8  1  0  0  0  0
  7 40  1  0  0  0  0
  7 41  1  0  0  0  0
  8  9  1  0  0  0  0
  8 42  1  0  0  0  0
  8 43  1  0  0  0  0
  9 10  1  0  0  0  0
  9 44  1  0  0  0  0
  9 45  1  0  0  0  0
 10 11  1  0  0  0  0
 10 64  1  0  0  0  0
 11 46  1  0  0  0  0
 11 47  1  0  0  0  0
 11 48  1  0  0  0  0
 12 17  1  0  0  0  0
 12 13  2  0  0  0  0
 13 14  1  0  0  0  0
 14 15  2  0  0  0  0
 14 49  1  0  0  0  0
 15 16  1  0  0  0  0
 16 20  1  0  0  0  0
 16 17  2  0  0  0  0
 17 18  1  0  0  0  0
 18 19  2  0  0  0  0
 19 20  1  0  0  0  0
 19 50  1  0  0  0  0
 20 21  1  0  0  0  0
 21 22  1  0  0  0  0
 21 51  1  0  0  0  0
 21 52  1  0  0  0  0
 22 29  1  0  0  0  0
 22 23  1  0  0  0  0
 22 25  1  0  0  0  0
 23 24  1  0  0  0  0
 23 53  1  0  0  0  0
 23 54  1  0  0  0  0
 24 55  1  0  0  0  0
 25 26  1  0  0  0  0
 25 56  1  0  0  0  0
 25 57  1  0  0  0  0
 26 27  1  0  0  0  0
 26 58  1  0  0  0  0
 26 59  1  0  0  0  0
 27 28  1  0  0  0  0
 28 29  1  0  0  0  0
 28 60  1  0  0  0  0
 28 61  1  0  0  0  0
 29 62  1  0  0  0  0
 29 63  1  0  0  0  0
M  CHG  1  10   1
M  END
> <s_m_source_file>
AV-unprocessed.smi

> <i_m_source_file_index>
90

> <i_lp_mmshare_version>
43012

> <i_f3d_flags>
0

> <s_epik_input>
W0NIM11OMVtDSDJdW0NIMl1bQ0gyXVtDSDJdW0NASF0xW0NIMl1bQ0gyXU4oW0NIM10pYyhuW2NIXW4yKWMoYzIzKW5bY0hdbjNbQ0gyXUM0KFtDSDJdW09IXSlbQ0gyXVtDSDJdT1tDSDJdW0NIMl00

> <s_epik_cmdline>
J2VwaWtfcHl0aG9uJywgJy1waCcsICc3LjAnLCAnLXRuJywgJzgnLCAnLW1hJywgJzIwMCcsICctbWV0YWxfYmluZGluZycsICctaW1hZScsICc8aW5maWxlLm1hZT4nLCAnLW9tYWUnLCAnPG91dGZpbGUubWFlPic=

> <r_lp_tautomer_probability>
1

> <r_epik_Ionization_Penalty>
0.00234895

> <r_epik_Ionization_Penalty_Charging>
0.00106647

> <r_epik_Ionization_Penalty_Neutral>
0.00128248

> <r_epik_State_Penalty>
-0

> <r_epik_Charging_Adjusted_Penalty>
0.00106647

> <i_epik_Tot_Q>
1

> <i_epik_Tot_abs_Q>
1

> <r_epik_Metal_State_Penalty>
-0

> <b_epik_Metal_Only>
0

> <s_lp_Force_Field>
OPLS_2005

> <r_lp_Energy>
42.9862

> <b_lp_Chiralities_Consistent>
1

> <s_lp_Variant>
AV-unprocessed.smi:90-2

> <Gold.Version>
5.8.1

> <Gold.Id.Protein>
6NUR|6NUR_protein|mol2

> <Gold.PLP.Fitness>
42.0747

> <Gold.PLP.PLP>
-33.3675

> <Gold.PLP.part.hbond>
-2.5465

> <Gold.PLP.part.metal>
0.0000

> <Gold.PLP.part.buried>
-5.7107

> <Gold.PLP.part.nonpolar>
-25.1599

> <Gold.PLP.part.repulsive>
0.2157

> <Gold.PLP.ligand.clash>
0.0000

> <Gold.PLP.ligand.torsion>
0.6153

> <Gold.PLP.Chemscore.Hbond>
2.0000

> <Gold.PLP.Chemscore.CHOScore>
1.0000

> <Gold.PLP.Chemscore.Metal>
0.0000

> <Gold.Chemscore.Hbonds>
donor molecule, donor type, donor heavy atom, donor atom, acceptor molecule, acceptor atom, score
      L1  H    10    64       P1 10747  1.00
      L1  H    24    55       P1  8028  0.83
      L1  C    14    49       P1 10175  0.06

> <Gold.PLP.Chemscore.Internal.Correction>
0.9377

> <Gold.Rescore>
     Score         DG    S(hbond)    S(metal)    S(lipo)     H(rot)  DE(clash)    DE(int)     intcor
     13.67     -15.87       2.00        0.00      91.61       2.73       0.01       2.19       ----

> <Gold.Chemscore.Fitness>
13.6739

> <Gold.Chemscore.DG>
-15.8668

> <Gold.Chemscore.ZeroCoef>
-5.4800

> <Gold.Chemscore.Hbond>
1.9968

> <Gold.Chemscore.Metal>
0.0000

> <Gold.Chemscore.Lipo>
91.6114

> <Gold.Chemscore.Internal_Hbond>
0.0000

> <Gold.Chemscore.DEClash>
0.0077

> <Gold.Chemscore.DEInternal>
2.1852

> <Gold.Chemscore.Rot>
2.7347

> <Gold.Chemscore.Internal.Correction>
   9.000000E+99

> <Gold.Chemscore.Hbonds>
donor molecule, donor type, donor heavy atom, donor atom, acceptor molecule, acceptor atom, score
      L1  H    10    64       P1 10747  1.00
      L1  H    24    55       P1  8028  0.81

> <Gold.Chemscore.Hbond.Weighted>
-6.6692

> <Gold.Chemscore.Metal.Weighted>
-0.0000

> <Gold.Chemscore.Lipo.Weighted>
-10.7185

> <Gold.Chemscore.Internal_Hbond.Weighted>
0.0000

> <Gold.Chemscore.DEClash.Weighted>
0.0077

> <Gold.Chemscore.DEInternal.Weighted>
2.1852

> <Gold.Chemscore.Rot.Weighted>
7.0009

> <Gold.Chemscore.Internal.Correction.Weighted>
   9.000000E+99

> <Gold.Protein.RotatedTorsions>
[ 6907 6896 6895 6894 ] final  -99.97 input  -60.11 | X-H torsion
[ 7974 7965 7964 7962 ] final  -23.87 input  175.53 | X-H torsion
[ 8008 7997 7996 7995 ] final  101.22 input   59.86 | X-H torsion
[ 10167 10162 10161 10158 ] final  -51.11 input  -65.29 | X-H torsion
[ 10718 10713 10712 10709 ] final   18.50 input   66.30 | X-H torsion
[ 10763 10752 10751 10750 ] final   47.65 input  -60.55 | X-H torsion
[ 11005 11000 10999 10996 ] final  111.84 input  -57.11 | X-H torsion

> <Gold.Protein.ActiveResidues>
 VAL166  LYS551  ARG553  GLY616  TRP617  ASP618  TYR619  PRO620  LYS621  CYS622 
 ASP623  PHE694  ASN695  SER759  ASP760  ASP761  ALA762  ILE779  LEU786  VAL792 
 PHE793  MET794  SER795  GLU796  ALA797  LYS798  CYS799  TRP800  GLU811  SER814 

> <Gold.Protein.RotatedAtoms>
  150.7099  134.0959  159.3948 H   0  0  0  0  0  0  0  0  0  0  0  0  # atno 6907 bound_to 6896
  151.8945  135.0401  160.0510 H   0  0  0  0  0  0  0  0  0  0  0  0  # atno 6908 bound_to 6896
  152.2464  133.5143  159.5336 H   0  0  0  0  0  0  0  0  0  0  0  0  # atno 6909 bound_to 6896
  146.1589  140.4675  142.8579 H   0  0  0  0  0  0  0  0  0  0  0  0  # atno 7974 bound_to 7965
  156.1278  140.3201  155.8304 H   0  0  0  0  0  0  0  0  0  0  0  0  # atno 8008 bound_to 7997
  155.4387  140.0524  157.3029 H   0  0  0  0  0  0  0  0  0  0  0  0  # atno 8009 bound_to 7997
  154.4876  140.2079  155.9633 H   0  0  0  0  0  0  0  0  0  0  0  0  # atno 8010 bound_to 7997
  140.6605  143.2632  151.4456 H   0  0  0  0  0  0  0  0  0  0  0  0  # atno 10167 bound_to 10162
  157.0972  130.6453  149.5863 H   0  0  0  0  0  0  0  0  0  0  0  0  # atno 10718 bound_to 10713
  152.9798  135.5969  154.3798 H   0  0  0  0  0  0  0  0  0  0  0  0  # atno 10763 bound_to 10752
  154.3463  135.2767  155.2397 H   0  0  0  0  0  0  0  0  0  0  0  0  # atno 10764 bound_to 10752
  154.4456  135.6002  153.6213 H   0  0  0  0  0  0  0  0  0  0  0  0  # atno 10765 bound_to 10752
  139.8913  134.9517  156.6494 H   0  0  0  0  0  0  0  0  0  0  0  0  # atno 11005 bound_to 11000
  144.8001  140.6196  143.6484 LP  0  0  0  0  0  0  0  0  0  0  0  0  # atno 17320 bound_to 7965
  145.4637  139.1510  143.3852 LP  0  0  0  0  0  0  0  0  0  0  0  0  # atno 17321 bound_to 7965
  139.5837  144.1651  152.2002 LP  0  0  0  0  0  0  0  0  0  0  0  0  # atno 17342 bound_to 10162
  140.0985  144.5560  150.7005 LP  0  0  0  0  0  0  0  0  0  0  0  0  # atno 17343 bound_to 10162
  155.9883  130.4925  150.7162 LP  0  0  0  0  0  0  0  0  0  0  0  0  # atno 17370 bound_to 10713
  157.4671  131.0889  151.0683 LP  0  0  0  0  0  0  0  0  0  0  0  0  # atno 17371 bound_to 10713
  140.7532  133.8880  155.8362 LP  0  0  0  0  0  0  0  0  0  0  0  0  # atno 17394 bound_to 11000
  140.9983  134.1184  157.4342 LP  0  0  0  0  0  0  0  0  0  0  0  0  # atno 17395 bound_to 11000

$$$$
