AV-unprocessed.smi:1764|AV-procd|sdf|7132|dock7
  -GOLD-   22720 8373D 1   1.00000     0.00000
 Structure written by MMmdl.
 31 32  0  0  0  0  0  0  0  0  1 V2000
  144.4018  136.4940  152.7474 O   0  0  0  0  0  0  0  0  0  0  0  0
  145.6102  136.3969  152.5314 C   0  0  0  0  0  0  0  0  0  0  0  0
  146.5155  137.2778  152.9817 N   0  0  0  0  0  0  0  0  0  0  0  0
  146.2096  138.4685  153.7672 C   0  0  0  0  0  0  0  0  0  0  0  0
  147.2063  139.6038  153.4813 C   0  0  2  0  0  0  0  0  0  0  0  0
  148.5839  139.3859  154.1058 C   0  0  0  0  0  0  0  0  0  0  0  0
  149.1260  140.7956  154.2911 C   0  0  0  0  0  0  0  0  0  0  0  0
  147.9084  141.6974  154.0725 C   0  0  0  0  0  0  0  0  0  0  0  0
  146.7935  140.8184  154.0873 O   0  0  0  0  0  0  0  0  0  0  0  0
  146.1974  135.4145  151.8254 N   0  0  0  0  0  0  0  0  0  0  0  0
  145.5857  134.2934  151.2030 C   0  0  0  0  0  0  0  0  0  0  0  0
  146.4836  133.3443  150.6638 C   0  0  0  0  0  0  0  0  0  0  0  0
  145.9773  132.1946  150.0271 C   0  0  0  0  0  0  0  0  0  0  0  0
  144.5840  132.0226  149.9462 C   0  0  0  0  0  0  0  0  0  0  0  0
  143.7598  133.0146  150.5090 C   0  0  0  0  0  0  0  0  0  0  0  0
  144.2432  134.1173  151.1194 N   0  0  0  0  0  0  0  0  0  0  0  0
  147.4871  137.1188  152.7589 H   0  0  0  0  0  0  0  0  0  0  0  0
  145.1842  138.7992  153.5926 H   0  0  0  0  0  0  0  0  0  0  0  0
  146.2679  138.1908  154.8198 H   0  0  0  0  0  0  0  0  0  0  0  0
  147.3098  139.7593  152.4056 H   0  0  0  0  0  0  0  0  0  0  0  0
  148.4853  138.9050  155.0802 H   0  0  0  0  0  0  0  0  0  0  0  0
  149.2290  138.7609  153.4877 H   0  0  0  0  0  0  0  0  0  0  0  0
  149.5418  140.9203  155.2915 H   0  0  0  0  0  0  0  0  0  0  0  0
  149.9114  141.0247  153.5698 H   0  0  0  0  0  0  0  0  0  0  0  0
  147.8130  142.4676  154.8383 H   0  0  0  0  0  0  0  0  0  0  0  0
  147.9642  142.1882  153.0997 H   0  0  0  0  0  0  0  0  0  0  0  0
  147.1999  135.4728  151.7252 H   0  0  0  0  0  0  0  0  0  0  0  0
  147.5516  133.4916  150.7352 H   0  0  0  0  0  0  0  0  0  0  0  0
  146.6470  131.4579  149.6085 H   0  0  0  0  0  0  0  0  0  0  0  0
  144.1579  131.1541  149.4662 H   0  0  0  0  0  0  0  0  0  0  0  0
  142.6846  132.9209  150.4688 H   0  0  0  0  0  0  0  0  0  0  0  0
  1  2  2  0  0  0  0
  2  3  1  0  0  0  0
  2 10  1  0  0  0  0
  3  4  1  0  0  0  0
  3 17  1  0  0  0  0
  4  5  1  0  0  0  0
  4 18  1  0  0  0  0
  4 19  1  0  0  0  0
  5  9  1  0  0  0  0
  5  6  1  0  0  0  0
  5 20  1  0  0  0  0
  6  7  1  0  0  0  0
  6 21  1  0  0  0  0
  6 22  1  0  0  0  0
  7  8  1  0  0  0  0
  7 23  1  0  0  0  0
  7 24  1  0  0  0  0
  8  9  1  0  0  0  0
  8 25  1  0  0  0  0
  8 26  1  0  0  0  0
 10 11  1  0  0  0  0
 10 27  1  0  0  0  0
 11 16  1  0  0  0  0
 11 12  2  0  0  0  0
 12 13  1  0  0  0  0
 12 28  1  0  0  0  0
 13 14  2  0  0  0  0
 13 29  1  0  0  0  0
 14 15  1  0  0  0  0
 14 30  1  0  0  0  0
 15 16  2  0  0  0  0
 15 31  1  0  0  0  0
M  END
> <s_m_source_file>
AV-unprocessed.smi

> <i_m_source_file_index>
1764

> <i_lp_mmshare_version>
43012

> <i_f3d_flags>
0

> <s_epik_input>
bjFbY0hdW2NIXVtjSF1bY0hdYzFbTkhdQyg9TylbTkhdW0NIMl1bQ0BASF0yW0NIMl1bQ0gyXVtDSDJdTzI=

> <s_epik_cmdline>
J2VwaWtfcHl0aG9uJywgJy1waCcsICc3LjAnLCAnLXRuJywgJzgnLCAnLW1hJywgJzIwMCcsICctbWV0YWxfYmluZGluZycsICctaW1hZScsICc8aW5maWxlLm1hZT4nLCAnLW9tYWUnLCAnPG91dGZpbGUubWFlPic=

> <r_lp_tautomer_probability>
1

> <r_epik_Ionization_Penalty>
4.47751e-05

> <r_epik_Ionization_Penalty_Charging>
0

> <r_epik_Ionization_Penalty_Neutral>
4.47751e-05

> <r_epik_State_Penalty>
-0

> <r_epik_Charging_Adjusted_Penalty>
0

> <i_epik_Tot_Q>
0

> <i_epik_Tot_abs_Q>
0

> <r_epik_Metal_State_Penalty>
-0

> <b_epik_Metal_Only>
0

> <s_lp_Force_Field>
OPLS_2005

> <r_lp_Energy>
19.1165

> <b_lp_Chiralities_Consistent>
1

> <s_lp_Variant>
AV-unprocessed.smi:1764-1

> <Gold.Version>
5.8.1

> <Gold.Id.Protein>
6NUR|6NUR_protein|mol2

> <Gold.PLP.Fitness>
37.8268

> <Gold.PLP.PLP>
-29.3523

> <Gold.PLP.part.hbond>
-2.0000

> <Gold.PLP.part.metal>
0.0000

> <Gold.PLP.part.buried>
-4.1355

> <Gold.PLP.part.nonpolar>
-24.4153

> <Gold.PLP.part.repulsive>
0.5012

> <Gold.PLP.ligand.clash>
0.0000

> <Gold.PLP.ligand.torsion>
0.2667

> <Gold.PLP.Chemscore.Hbond>
2.0000

> <Gold.PLP.Chemscore.CHOScore>
1.0000

> <Gold.PLP.Chemscore.Metal>
0.0000

> <Gold.Chemscore.Hbonds>
donor molecule, donor type, donor heavy atom, donor atom, acceptor molecule, acceptor atom, score
      L1  H     3    17       P1  7948  1.00
      L1  H    10    27       P1  7948  1.00
      L1  C    15    31       P1 10186  1.00

> <Gold.PLP.Chemscore.Internal.Correction>
0.0079

> <Gold.Rescore>
     Score         DG    S(hbond)    S(metal)    S(lipo)     H(rot)  DE(clash)    DE(int)     intcor
     15.30     -16.93       1.96        0.00      69.54       1.27       0.06       1.57       ----

> <Gold.Chemscore.Fitness>
15.3042

> <Gold.Chemscore.DG>
-16.9275

> <Gold.Chemscore.ZeroCoef>
-5.4800

> <Gold.Chemscore.Hbond>
1.9630

> <Gold.Chemscore.Metal>
0.0000

> <Gold.Chemscore.Lipo>
69.5422

> <Gold.Chemscore.Internal_Hbond>
0.0000

> <Gold.Chemscore.DEClash>
0.0551

> <Gold.Chemscore.DEInternal>
1.5682

> <Gold.Chemscore.Rot>
1.2678

> <Gold.Chemscore.Internal.Correction>
   9.000000E+99

> <Gold.Chemscore.Hbonds>
donor molecule, donor type, donor heavy atom, donor atom, acceptor molecule, acceptor atom, score
      L1  H     3    17       P1  7948  0.98
      L1  H    10    27       P1  7948  0.99

> <Gold.Chemscore.Hbond.Weighted>
-6.5565

> <Gold.Chemscore.Metal.Weighted>
-0.0000

> <Gold.Chemscore.Lipo.Weighted>
-8.1364

> <Gold.Chemscore.Internal_Hbond.Weighted>
0.0000

> <Gold.Chemscore.DEClash.Weighted>
0.0551

> <Gold.Chemscore.DEInternal.Weighted>
1.5682

> <Gold.Chemscore.Rot.Weighted>
3.2455

> <Gold.Chemscore.Internal.Correction.Weighted>
   9.000000E+99

> <Gold.Protein.RotatedTorsions>
[ 6907 6896 6895 6894 ] final  131.61 input  -60.11 | X-H torsion
[ 7974 7965 7964 7962 ] final  -94.44 input  175.53 | X-H torsion
[ 8008 7997 7996 7995 ] final   29.68 input   59.86 | X-H torsion
[ 10167 10162 10161 10158 ] final   95.14 input  -65.29 | X-H torsion
[ 10718 10713 10712 10709 ] final   90.82 input   66.30 | X-H torsion
[ 10763 10752 10751 10750 ] final  -75.51 input  -60.55 | X-H torsion
[ 11005 11000 10999 10996 ] final   23.52 input  -57.11 | X-H torsion

> <Gold.Protein.ActiveResidues>
 VAL166  LYS551  ARG553  GLY616  TRP617  ASP618  TYR619  PRO620  LYS621  CYS622 
 ASP623  PHE694  ASN695  SER759  ASP760  ASP761  ALA762  ILE779  LEU786  VAL792 
 PHE793  MET794  SER795  GLU796  ALA797  LYS798  CYS799  TRP800  GLU811  SER814 

> <Gold.Protein.RotatedAtoms>
  152.3409  133.6066  159.5875 H   0  0  0  0  0  0  0  0  0  0  0  0  # atno 6907 bound_to 6896
  150.7478  133.9724  159.3559 H   0  0  0  0  0  0  0  0  0  0  0  0  # atno 6908 bound_to 6896
  151.7588  135.0816  160.0393 H   0  0  0  0  0  0  0  0  0  0  0  0  # atno 6909 bound_to 6896
  145.3732  140.9508  143.2435 H   0  0  0  0  0  0  0  0  0  0  0  0  # atno 7974 bound_to 7965
  155.0784  140.3207  155.4609 H   0  0  0  0  0  0  0  0  0  0  0  0  # atno 8008 bound_to 7997
  156.2773  140.2099  156.5857 H   0  0  0  0  0  0  0  0  0  0  0  0  # atno 8009 bound_to 7997
  154.6999  140.0508  157.0434 H   0  0  0  0  0  0  0  0  0  0  0  0  # atno 8010 bound_to 7997
  139.8017  144.6811  150.9756 H   0  0  0  0  0  0  0  0  0  0  0  0  # atno 10167 bound_to 10162
  157.6959  131.0385  150.3636 H   0  0  0  0  0  0  0  0  0  0  0  0  # atno 10718 bound_to 10713
  154.4875  135.5829  153.6434 H   0  0  0  0  0  0  0  0  0  0  0  0  # atno 10763 bound_to 10752
  152.9857  135.6104  154.3167 H   0  0  0  0  0  0  0  0  0  0  0  0  # atno 10764 bound_to 10752
  154.3064  135.2846  155.2566 H   0  0  0  0  0  0  0  0  0  0  0  0  # atno 10765 bound_to 10752
  140.3687  134.2046  155.7668 H   0  0  0  0  0  0  0  0  0  0  0  0  # atno 11005 bound_to 11000
  144.8561  139.5248  143.6834 LP  0  0  0  0  0  0  0  0  0  0  0  0  # atno 17320 bound_to 7965
  146.2876  139.7047  142.9184 LP  0  0  0  0  0  0  0  0  0  0  0  0  # atno 17321 bound_to 7965
  140.7820  143.4275  151.0746 LP  0  0  0  0  0  0  0  0  0  0  0  0  # atno 17342 bound_to 10162
  139.7946  143.8169  152.3156 LP  0  0  0  0  0  0  0  0  0  0  0  0  # atno 17343 bound_to 10162
  156.4069  130.3926  149.6919 LP  0  0  0  0  0  0  0  0  0  0  0  0  # atno 17370 bound_to 10713
  156.4217  130.7772  151.2789 LP  0  0  0  0  0  0  0  0  0  0  0  0  # atno 17371 bound_to 10713
  141.1961  133.8089  157.0685 LP  0  0  0  0  0  0  0  0  0  0  0  0  # atno 17394 bound_to 11000
  140.0569  134.9776  157.1236 LP  0  0  0  0  0  0  0  0  0  0  0  0  # atno 17395 bound_to 11000

$$$$
