AV-unprocessed.smi:3129|AV-procd|sdf|11925|dock4
  -GOLD-   2272017313D 1   1.00000     0.00000
 Structure written by MMmdl.
 39 39  0  0  0  0  0  0  0  0  1 V2000
  144.7637  142.7866  155.0550 C   0  0  0  0  0  0  0  0  0  0  0  0
  145.6873  143.7830  154.3320 C   0  0  0  0  0  0  0  0  0  0  0  0
  144.8672  144.7122  153.4252 C   0  0  0  0  0  0  0  0  0  0  0  0
  146.8068  143.0903  153.5260 C   0  0  0  0  0  0  0  0  0  0  0  0
  147.8836  142.5937  154.3781 N   0  0  0  0  0  0  0  0  0  0  0  0
  148.0171  141.3304  154.8119 C   0  0  0  0  0  0  0  0  0  0  0  0
  147.2268  140.4290  154.5288 O   0  0  0  0  0  0  0  0  0  0  0  0
  149.2347  141.0356  155.7032 C   0  0  1  0  0  0  0  0  0  0  0  0
  150.0995  139.9372  155.0660 C   0  0  0  0  0  0  0  0  0  0  0  0
  150.0620  142.2231  155.9832 N   0  0  0  0  0  0  0  0  0  0  0  0
  150.8217  142.1424  157.2256 C   0  0  0  0  0  0  0  0  0  0  0  0
  151.4576  143.5085  157.5197 C   0  0  0  0  0  0  0  0  0  0  0  0
  151.6529  143.7113  158.9421 N   0  0  0  0  0  0  0  0  0  0  0  0
  152.3379  142.9146  159.8351 C   0  0  0  0  0  0  0  0  0  0  0  0
  152.2538  143.5124  161.0599 C   0  0  0  0  0  0  0  0  0  0  0  0
  151.4875  144.6856  160.8113 C   0  0  0  0  0  0  0  0  0  0  0  0
  151.1306  144.8027  159.5423 N   0  0  0  0  0  0  0  0  0  0  0  0
  144.2956  142.0985  154.3505 H   0  0  0  0  0  0  0  0  0  0  0  0
  143.9683  143.3059  155.5902 H   0  0  0  0  0  0  0  0  0  0  0  0
  145.3079  142.1935  155.7897 H   0  0  0  0  0  0  0  0  0  0  0  0
  146.1584  144.4066  155.0930 H   0  0  0  0  0  0  0  0  0  0  0  0
  144.3724  144.1533  152.6300 H   0  0  0  0  0  0  0  0  0  0  0  0
  145.5010  145.4664  152.9581 H   0  0  0  0  0  0  0  0  0  0  0  0
  144.0975  145.2373  153.9915 H   0  0  0  0  0  0  0  0  0  0  0  0
  146.3934  142.2897  152.9100 H   0  0  0  0  0  0  0  0  0  0  0  0
  147.2503  143.8039  152.8310 H   0  0  0  0  0  0  0  0  0  0  0  0
  148.5833  143.2642  154.6618 H   0  0  0  0  0  0  0  0  0  0  0  0
  148.8721  140.6530  156.6590 H   0  0  0  0  0  0  0  0  0  0  0  0
  149.5156  139.0374  154.8672 H   0  0  0  0  0  0  0  0  0  0  0  0
  150.9193  139.6537  155.7266 H   0  0  0  0  0  0  0  0  0  0  0  0
  150.5347  140.2662  154.1214 H   0  0  0  0  0  0  0  0  0  0  0  0
  149.5097  143.0689  155.9742 H   0  0  0  0  0  0  0  0  0  0  0  0
  150.1748  141.8579  158.0564 H   0  0  0  0  0  0  0  0  0  0  0  0
  151.5960  141.3794  157.1349 H   0  0  0  0  0  0  0  0  0  0  0  0
  152.4224  143.6008  157.0179 H   0  0  0  0  0  0  0  0  0  0  0  0
  150.8251  144.3126  157.1409 H   0  0  0  0  0  0  0  0  0  0  0  0
  152.8235  141.9999  159.5280 H   0  0  0  0  0  0  0  0  0  0  0  0
  152.6754  143.1649  161.9914 H   0  0  0  0  0  0  0  0  0  0  0  0
  151.1829  145.4508  161.5101 H   0  0  0  0  0  0  0  0  0  0  0  0
  1  2  1  0  0  0  0
  1 18  1  0  0  0  0
  1 19  1  0  0  0  0
  1 20  1  0  0  0  0
  2  3  1  0  0  0  0
  2  4  1  0  0  0  0
  2 21  1  0  0  0  0
  3 22  1  0  0  0  0
  3 23  1  0  0  0  0
  3 24  1  0  0  0  0
  4  5  1  0  0  0  0
  4 25  1  0  0  0  0
  4 26  1  0  0  0  0
  5  6  1  0  0  0  0
  5 27  1  0  0  0  0
  6  7  2  0  0  0  0
  6  8  1  0  0  0  0
  8  9  1  0  0  0  0
  8 10  1  0  0  0  0
  8 28  1  0  0  0  0
  9 29  1  0  0  0  0
  9 30  1  0  0  0  0
  9 31  1  0  0  0  0
 10 11  1  0  0  0  0
 10 32  1  0  0  0  0
 11 12  1  0  0  0  0
 11 33  1  0  0  0  0
 11 34  1  0  0  0  0
 12 13  1  0  0  0  0
 12 35  1  0  0  0  0
 12 36  1  0  0  0  0
 13 17  1  0  0  0  0
 13 14  1  0  0  0  0
 14 15  2  0  0  0  0
 14 37  1  0  0  0  0
 15 16  1  0  0  0  0
 15 38  1  0  0  0  0
 16 17  2  0  0  0  0
 16 39  1  0  0  0  0
M  END
> <s_m_source_file>
AV-unprocessed.smi

> <i_m_source_file_index>
3129

> <i_lp_mmshare_version>
43012

> <i_f3d_flags>
0

> <s_epik_input>
W0NIM11bQ0hdKFtDSDNdKVtDSDJdW05IXUMoPU8pW0NASF0oW0NIM10pW05IXVtDSDJdW0NIMl1uMVtjSF1bY0hdW2NIXW4x

> <s_epik_cmdline>
J2VwaWtfcHl0aG9uJywgJy1waCcsICc3LjAnLCAnLXRuJywgJzgnLCAnLW1hJywgJzIwMCcsICctbWV0YWxfYmluZGluZycsICctaW1hZScsICc8aW5maWxlLm1hZT4nLCAnLW9tYWUnLCAnPG91dGZpbGUubWFlPic=

> <r_lp_tautomer_probability>
1

> <r_epik_Ionization_Penalty>
0.724007

> <r_epik_Ionization_Penalty_Charging>
0

> <r_epik_Ionization_Penalty_Neutral>
0.724007

> <r_epik_State_Penalty>
0.74758

> <r_epik_Charging_Adjusted_Penalty>
0.74758

> <i_epik_Tot_Q>
0

> <i_epik_Tot_abs_Q>
0

> <r_epik_Metal_State_Penalty>
0.746851

> <b_epik_Metal_Only>
0

> <s_lp_Force_Field>
OPLS_2005

> <r_lp_Energy>
5.77618

> <b_lp_Chiralities_Consistent>
1

> <s_lp_Variant>
AV-unprocessed.smi:3129-4

> <Gold.Version>
5.8.1

> <Gold.Id.Protein>
6NUR|6NUR_protein|mol2

> <Gold.PLP.Fitness>
43.6061

> <Gold.PLP.PLP>
-39.0629

> <Gold.PLP.part.hbond>
-2.0000

> <Gold.PLP.part.metal>
0.0000

> <Gold.PLP.part.buried>
-6.1906

> <Gold.PLP.part.nonpolar>
-31.5584

> <Gold.PLP.part.repulsive>
0.3319

> <Gold.PLP.ligand.clash>
0.0000

> <Gold.PLP.ligand.torsion>
0.7941

> <Gold.PLP.Chemscore.Hbond>
2.0000

> <Gold.PLP.Chemscore.CHOScore>
0.0000

> <Gold.PLP.Chemscore.Metal>
0.0000

> <Gold.Chemscore.Hbonds>
donor molecule, donor type, donor heavy atom, donor atom, acceptor molecule, acceptor atom, score
      L1  H     5    27       P1  8028  0.88
      L1  H    10    32       P1  8028  1.00

> <Gold.PLP.Chemscore.Internal.Correction>
0.1314

> <Gold.Rescore>
     Score         DG    S(hbond)    S(metal)    S(lipo)     H(rot)  DE(clash)    DE(int)     intcor
     16.19     -16.84       1.96        0.00      87.72       2.13       0.01       0.64       ----

> <Gold.Chemscore.Fitness>
16.1906

> <Gold.Chemscore.DG>
-16.8420

> <Gold.Chemscore.ZeroCoef>
-5.4800

> <Gold.Chemscore.Hbond>
1.9649

> <Gold.Chemscore.Metal>
0.0000

> <Gold.Chemscore.Lipo>
87.7213

> <Gold.Chemscore.Internal_Hbond>
0.0000

> <Gold.Chemscore.DEClash>
0.0085

> <Gold.Chemscore.DEInternal>
0.6430

> <Gold.Chemscore.Rot>
2.1345

> <Gold.Chemscore.Internal.Correction>
   9.000000E+99

> <Gold.Chemscore.Hbonds>
donor molecule, donor type, donor heavy atom, donor atom, acceptor molecule, acceptor atom, score
      L1  H     5    27       P1  8028  0.87
      L1  H    10    32       P1  8028  1.00

> <Gold.Chemscore.Hbond.Weighted>
-6.5629

> <Gold.Chemscore.Metal.Weighted>
-0.0000

> <Gold.Chemscore.Lipo.Weighted>
-10.2634

> <Gold.Chemscore.Internal_Hbond.Weighted>
0.0000

> <Gold.Chemscore.DEClash.Weighted>
0.0085

> <Gold.Chemscore.DEInternal.Weighted>
0.6430

> <Gold.Chemscore.Rot.Weighted>
5.4642

> <Gold.Chemscore.Internal.Correction.Weighted>
   9.000000E+99

> <Gold.Protein.RotatedTorsions>
[ 6907 6896 6895 6894 ] final  -66.39 input  -60.11 | X-H torsion
[ 7974 7965 7964 7962 ] final  -49.60 input  175.53 | X-H torsion
[ 8008 7997 7996 7995 ] final -139.95 input   59.86 | X-H torsion
[ 10167 10162 10161 10158 ] final   54.65 input  -65.29 | X-H torsion
[ 10718 10713 10712 10709 ] final   73.10 input   66.30 | X-H torsion
[ 10763 10752 10751 10750 ] final    9.32 input  -60.55 | X-H torsion
[ 11005 11000 10999 10996 ] final   72.32 input  -57.11 | X-H torsion

> <Gold.Protein.ActiveResidues>
 VAL166  LYS551  ARG553  GLY616  TRP617  ASP618  TYR619  PRO620  LYS621  CYS622 
 ASP623  PHE694  ASN695  SER759  ASP760  ASP761  ALA762  ILE779  LEU786  VAL792 
 PHE793  MET794  SER795  GLU796  ALA797  LYS798  CYS799  TRP800  GLU811  SER814 

> <Gold.Protein.RotatedAtoms>
  150.7468  134.6027  159.6044 H   0  0  0  0  0  0  0  0  0  0  0  0  # atno 6907 bound_to 6896
  152.3384  134.7165  160.0279 H   0  0  0  0  0  0  0  0  0  0  0  0  # atno 6908 bound_to 6896
  151.7625  133.3299  159.3458 H   0  0  0  0  0  0  0  0  0  0  0  0  # atno 6909 bound_to 6896
  145.9388  140.7682  142.9562 H   0  0  0  0  0  0  0  0  0  0  0  0  # atno 7974 bound_to 7965
  155.4532  140.0540  157.2999 H   0  0  0  0  0  0  0  0  0  0  0  0  # atno 8008 bound_to 7997
  154.4768  140.2064  155.9814 H   0  0  0  0  0  0  0  0  0  0  0  0  # atno 8009 bound_to 7997
  156.1144  140.3199  155.8123 H   0  0  0  0  0  0  0  0  0  0  0  0  # atno 8010 bound_to 7997
  140.2279  144.3718  150.6425 H   0  0  0  0  0  0  0  0  0  0  0  0  # atno 10167 bound_to 10162
  157.6532  130.9612  150.1022 H   0  0  0  0  0  0  0  0  0  0  0  0  # atno 10718 bound_to 10713
  153.2153  135.6874  153.8064 H   0  0  0  0  0  0  0  0  0  0  0  0  # atno 10763 bound_to 10752
  153.7282  135.3257  155.3281 H   0  0  0  0  0  0  0  0  0  0  0  0  # atno 10764 bound_to 10752
  154.8243  135.4629  154.0978 H   0  0  0  0  0  0  0  0  0  0  0  0  # atno 10765 bound_to 10752
  139.9497  134.7249  156.0893 H   0  0  0  0  0  0  0  0  0  0  0  0  # atno 11005 bound_to 11000
  144.6776  140.2246  143.7362 LP  0  0  0  0  0  0  0  0  0  0  0  0  # atno 17320 bound_to 7965
  145.8328  139.2093  143.1873 LP  0  0  0  0  0  0  0  0  0  0  0  0  # atno 17321 bound_to 7965
  140.6207  143.2176  151.6700 LP  0  0  0  0  0  0  0  0  0  0  0  0  # atno 17342 bound_to 10162
  139.5120  144.3489  152.0671 LP  0  0  0  0  0  0  0  0  0  0  0  0  # atno 17343 bound_to 10162
  156.1942  130.3656  149.8871 LP  0  0  0  0  0  0  0  0  0  0  0  0  # atno 17370 bound_to 10713
  156.6791  130.8851  151.3573 LP  0  0  0  0  0  0  0  0  0  0  0  0  # atno 17371 bound_to 10713
  141.1157  133.6628  156.3087 LP  0  0  0  0  0  0  0  0  0  0  0  0  # atno 17394 bound_to 11000
  140.5749  134.5804  157.5466 LP  0  0  0  0  0  0  0  0  0  0  0  0  # atno 17395 bound_to 11000

$$$$
