AV-unprocessed.smi:1123|AV-procd|sdf|4830|dock4
  -GOLD-   22720 3393D 1   1.00000     0.00000
 Structure written by MMmdl.
 37 38  0  0  0  0  0  0  0  0  1 V2000
  146.9187  142.1484  154.3503 C   0  0  0  0  0  0  0  0  0  0  0  0
  147.9799  141.1603  153.8248 C   0  0  1  0  0  0  0  0  0  0  0  0
  149.2830  141.1920  154.6404 C   0  0  0  0  0  0  0  0  0  0  0  0
  150.2412  140.4853  154.3252 O   0  0  0  0  0  0  0  0  0  0  0  0
  149.3033  142.0227  155.6952 N   0  0  0  0  0  0  0  0  0  0  0  0
  150.4378  142.2138  156.5900 C   0  0  0  0  0  0  0  0  0  0  0  0
  150.0584  141.9062  158.0509 C   0  0  0  0  0  0  0  0  0  0  0  0
  151.1329  142.1061  159.0215 N   0  0  0  0  0  0  0  0  0  0  0  0
  151.5388  143.5055  159.1337 C   0  0  0  0  0  0  0  0  0  0  0  0
  152.6903  143.6910  160.1378 C   0  0  0  0  0  0  0  0  0  0  0  0
  153.7916  142.8699  159.7634 O   0  0  0  0  0  0  0  0  0  0  0  0
  153.4465  141.4906  159.6896 C   0  0  0  0  0  0  0  0  0  0  0  0
  152.3010  141.3008  158.6803 C   0  0  0  0  0  0  0  0  0  0  0  0
  147.4658  139.7985  153.7417 N   0  0  0  0  0  0  0  0  0  0  0  0
  147.4102  138.9647  152.7010 C   0  0  0  0  0  0  0  0  0  0  0  0
  146.9124  137.7713  152.9923 N   0  0  0  0  0  0  0  0  0  0  0  0
  146.6725  137.9441  154.3259 C   0  0  0  0  0  0  0  0  0  0  0  0
  146.9948  139.1359  154.8277 N   0  0  0  0  0  0  0  0  0  0  0  0
  147.2999  143.1701  154.3517 H   0  0  0  0  0  0  0  0  0  0  0  0
  146.6056  141.9114  155.3681 H   0  0  0  0  0  0  0  0  0  0  0  0
  146.0291  142.1332  153.7202 H   0  0  0  0  0  0  0  0  0  0  0  0
  148.2307  141.4698  152.8089 H   0  0  0  0  0  0  0  0  0  0  0  0
  148.4749  142.5669  155.8873 H   0  0  0  0  0  0  0  0  0  0  0  0
  151.2323  141.5509  156.2490 H   0  0  0  0  0  0  0  0  0  0  0  0
  150.8194  143.2322  156.4996 H   0  0  0  0  0  0  0  0  0  0  0  0
  149.2229  142.5528  158.3222 H   0  0  0  0  0  0  0  0  0  0  0  0
  149.6808  140.8852  158.1237 H   0  0  0  0  0  0  0  0  0  0  0  0
  151.8481  143.8809  158.1571 H   0  0  0  0  0  0  0  0  0  0  0  0
  150.6985  144.1199  159.4542 H   0  0  0  0  0  0  0  0  0  0  0  0
  153.0121  144.7321  160.1583 H   0  0  0  0  0  0  0  0  0  0  0  0
  152.3655  143.4363  161.1478 H   0  0  0  0  0  0  0  0  0  0  0  0
  154.3223  140.9196  159.3818 H   0  0  0  0  0  0  0  0  0  0  0  0
  153.1566  141.1272  160.6767 H   0  0  0  0  0  0  0  0  0  0  0  0
  152.0260  140.2462  158.6443 H   0  0  0  0  0  0  0  0  0  0  0  0
  152.6538  141.5648  157.6822 H   0  0  0  0  0  0  0  0  0  0  0  0
  147.7441  139.2350  151.7101 H   0  0  0  0  0  0  0  0  0  0  0  0
  146.2532  137.1662  154.9468 H   0  0  0  0  0  0  0  0  0  0  0  0
  1  2  1  0  0  0  0
  1 19  1  0  0  0  0
  1 20  1  0  0  0  0
  1 21  1  0  0  0  0
  2  3  1  0  0  0  0
  2 14  1  0  0  0  0
  2 22  1  0  0  0  0
  3  4  2  0  0  0  0
  3  5  1  0  0  0  0
  5  6  1  0  0  0  0
  5 23  1  0  0  0  0
  6  7  1  0  0  0  0
  6 24  1  0  0  0  0
  6 25  1  0  0  0  0
  7  8  1  0  0  0  0
  7 26  1  0  0  0  0
  7 27  1  0  0  0  0
  8 13  1  0  0  0  0
  8  9  1  0  0  0  0
  9 10  1  0  0  0  0
  9 28  1  0  0  0  0
  9 29  1  0  0  0  0
 10 11  1  0  0  0  0
 10 30  1  0  0  0  0
 10 31  1  0  0  0  0
 11 12  1  0  0  0  0
 12 13  1  0  0  0  0
 12 32  1  0  0  0  0
 12 33  1  0  0  0  0
 13 34  1  0  0  0  0
 13 35  1  0  0  0  0
 14 18  1  0  0  0  0
 14 15  1  0  0  0  0
 15 16  2  0  0  0  0
 15 36  1  0  0  0  0
 16 17  1  0  0  0  0
 17 18  2  0  0  0  0
 17 37  1  0  0  0  0
M  END
> <s_m_source_file>
AV-unprocessed.smi

> <i_m_source_file_index>
1123

> <i_lp_mmshare_version>
43012

> <i_f3d_flags>
0

> <s_epik_input>
bjFbY0hdbltjSF1uMVtDQEhdKFtDSDNdKUMoPU8pW05IXVtDSDJdW0NIMl1OMltDSDJdW0NIMl1PW0NIMl1bQ0gyXTI=

> <s_epik_cmdline>
J2VwaWtfcHl0aG9uJywgJy1waCcsICc3LjAnLCAnLXRuJywgJzgnLCAnLW1hJywgJzIwMCcsICctbWV0YWxfYmluZGluZycsICctaW1hZScsICc8aW5maWxlLm1hZT4nLCAnLW9tYWUnLCAnPG91dGZpbGUubWFlPic=

> <r_lp_tautomer_probability>
1

> <r_epik_Ionization_Penalty>
0.211373

> <r_epik_Ionization_Penalty_Charging>
0

> <r_epik_Ionization_Penalty_Neutral>
0.211373

> <r_epik_State_Penalty>
0.201459

> <r_epik_Charging_Adjusted_Penalty>
0.201459

> <i_epik_Tot_Q>
0

> <i_epik_Tot_abs_Q>
0

> <r_epik_Metal_State_Penalty>
0.201458

> <b_epik_Metal_Only>
0

> <s_lp_Force_Field>
OPLS_2005

> <r_lp_Energy>
26.9465

> <b_lp_Chiralities_Consistent>
1

> <s_lp_Variant>
AV-unprocessed.smi:1123-2

> <Gold.Version>
5.8.1

> <Gold.Id.Protein>
6NUR|6NUR_protein|mol2

> <Gold.PLP.Fitness>
41.2365

> <Gold.PLP.PLP>
-33.8778

> <Gold.PLP.part.hbond>
-2.0000

> <Gold.PLP.part.metal>
0.0000

> <Gold.PLP.part.buried>
-4.4168

> <Gold.PLP.part.nonpolar>
-28.2708

> <Gold.PLP.part.repulsive>
0.5549

> <Gold.PLP.ligand.clash>
0.3426

> <Gold.PLP.ligand.torsion>
0.1200

> <Gold.PLP.Chemscore.Hbond>
1.6027

> <Gold.PLP.Chemscore.CHOScore>
1.0000

> <Gold.PLP.Chemscore.Metal>
0.0000

> <Gold.Chemscore.Hbonds>
donor molecule, donor type, donor heavy atom, donor atom, acceptor molecule, acceptor atom, score
      L1  H     5    23       P1  8028  0.13
      P1  H  7989  7998       L1     4  0.90
      L1  C    15    36       P1  7957  0.98

> <Gold.PLP.Chemscore.Internal.Correction>
0.1332

> <Gold.Rescore>
     Score         DG    S(hbond)    S(metal)    S(lipo)     H(rot)  DE(clash)    DE(int)     intcor
     10.90     -11.43       1.34        0.00      69.72       2.61       0.24       0.29       ----

> <Gold.Chemscore.Fitness>
10.8956

> <Gold.Chemscore.DG>
-11.4262

> <Gold.Chemscore.ZeroCoef>
-5.4800

> <Gold.Chemscore.Hbond>
1.3382

> <Gold.Chemscore.Metal>
0.0000

> <Gold.Chemscore.Lipo>
69.7229

> <Gold.Chemscore.Internal_Hbond>
0.0000

> <Gold.Chemscore.DEClash>
0.2376

> <Gold.Chemscore.DEInternal>
0.2930

> <Gold.Chemscore.Rot>
2.6097

> <Gold.Chemscore.Internal.Correction>
   9.000000E+99

> <Gold.Chemscore.Hbonds>
donor molecule, donor type, donor heavy atom, donor atom, acceptor molecule, acceptor atom, score
      L1  H     5    23       P1  8028  0.14
      P1  H  7989  7998       L1     4  0.88

> <Gold.Chemscore.Hbond.Weighted>
-4.4695

> <Gold.Chemscore.Metal.Weighted>
-0.0000

> <Gold.Chemscore.Lipo.Weighted>
-8.1576

> <Gold.Chemscore.Internal_Hbond.Weighted>
0.0000

> <Gold.Chemscore.DEClash.Weighted>
0.2376

> <Gold.Chemscore.DEInternal.Weighted>
0.2930

> <Gold.Chemscore.Rot.Weighted>
6.6809

> <Gold.Chemscore.Internal.Correction.Weighted>
   9.000000E+99

> <Gold.Protein.RotatedTorsions>
[ 6907 6896 6895 6894 ] final  123.76 input  -60.11 | X-H torsion
[ 7974 7965 7964 7962 ] final  150.47 input  175.53 | X-H torsion
[ 8008 7997 7996 7995 ] final   35.05 input   59.86 | X-H torsion
[ 10167 10162 10161 10158 ] final -137.86 input  -65.29 | X-H torsion
[ 10718 10713 10712 10709 ] final   55.46 input   66.30 | X-H torsion
[ 10763 10752 10751 10750 ] final  -99.61 input  -60.55 | X-H torsion
[ 11005 11000 10999 10996 ] final  -85.79 input  -57.11 | X-H torsion

> <Gold.Protein.ActiveResidues>
 VAL166  LYS551  ARG553  GLY616  TRP617  ASP618  TYR619  PRO620  LYS621  CYS622 
 ASP623  PHE694  ASN695  SER759  ASP760  ASP761  ALA762  ILE779  LEU786  VAL792 
 PHE793  MET794  SER795  GLU796  ALA797  LYS798  CYS799  TRP800  GLU811  SER814 

> <Gold.Protein.RotatedAtoms>
  152.4135  133.7001  159.6418 H   0  0  0  0  0  0  0  0  0  0  0  0  # atno 6907 bound_to 6896
  150.8013  133.8582  159.3233 H   0  0  0  0  0  0  0  0  0  0  0  0  # atno 6908 bound_to 6896
  151.6318  135.1024  160.0175 H   0  0  0  0  0  0  0  0  0  0  0  0  # atno 6909 bound_to 6896
  144.8362  139.6412  143.6037 H   0  0  0  0  0  0  0  0  0  0  0  0  # atno 7974 bound_to 7965
  155.1649  140.3286  155.4404 H   0  0  0  0  0  0  0  0  0  0  0  0  # atno 8008 bound_to 7997
  156.2530  140.1954  156.6705 H   0  0  0  0  0  0  0  0  0  0  0  0  # atno 8009 bound_to 7997
  154.6379  140.0574  156.9797 H   0  0  0  0  0  0  0  0  0  0  0  0  # atno 8010 bound_to 7997
  139.8536  143.7167  152.2656 H   0  0  0  0  0  0  0  0  0  0  0  0  # atno 10167 bound_to 10162
  157.5347  130.8655  149.8736 H   0  0  0  0  0  0  0  0  0  0  0  0  # atno 10718 bound_to 10713
  154.7512  135.4966  153.9292 H   0  0  0  0  0  0  0  0  0  0  0  0  # atno 10763 bound_to 10752
  153.1145  135.6717  153.9450 H   0  0  0  0  0  0  0  0  0  0  0  0  # atno 10764 bound_to 10752
  153.9199  135.3089  155.3427 H   0  0  0  0  0  0  0  0  0  0  0  0  # atno 10765 bound_to 10752
  141.1637  133.7419  156.9067 H   0  0  0  0  0  0  0  0  0  0  0  0  # atno 11005 bound_to 11000
  146.2660  139.6522  142.9329 LP  0  0  0  0  0  0  0  0  0  0  0  0  # atno 17320 bound_to 7965
  145.4790  141.0437  143.2656 LP  0  0  0  0  0  0  0  0  0  0  0  0  # atno 17321 bound_to 7965
  139.7441  144.7551  151.0606 LP  0  0  0  0  0  0  0  0  0  0  0  0  # atno 17342 bound_to 10162
  140.7784  143.4937  150.9860 LP  0  0  0  0  0  0  0  0  0  0  0  0  # atno 17343 bound_to 10162
  156.0449  130.3730  150.1342 LP  0  0  0  0  0  0  0  0  0  0  0  0  # atno 17370 bound_to 10713
  156.9525  130.9779  151.3495 LP  0  0  0  0  0  0  0  0  0  0  0  0  # atno 17371 bound_to 10713
  140.1545  134.9208  157.2635 LP  0  0  0  0  0  0  0  0  0  0  0  0  # atno 17394 bound_to 11000
  140.2683  134.3489  155.7382 LP  0  0  0  0  0  0  0  0  0  0  0  0  # atno 17395 bound_to 11000

$$$$
