AV-unprocessed.smi:2999|AV-procd|sdf|11421|dock7
  -GOLD-   2272016343D 1   1.00000     0.00000
 Structure written by MMmdl.
 38 40  0  0  0  0  0  0  0  0  2 V2000
  144.7253  137.5010  152.5981 O   0  0  0  0  0  0  0  0  0  0  0  0
  145.9033  137.1456  152.5618 C   0  0  0  0  0  0  0  0  0  0  0  0
  146.9295  137.9747  152.8003 N   0  0  0  0  0  0  0  0  0  0  0  0
  146.8007  139.3929  153.1189 C   0  0  0  0  0  0  0  0  0  0  0  0
  147.7130  139.8090  154.2870 C   0  0  2  0  0  0  0  0  0  0  0  0
  147.6677  141.3321  154.5335 C   0  0  0  0  0  0  0  0  0  0  0  0
  148.6228  141.7400  155.5918 N   0  3  1  0  0  0  0  0  0  0  0  0
  148.1519  141.4300  156.9622 C   0  0  0  0  0  0  0  0  0  0  0  0
  147.2486  142.4911  157.5456 C   0  0  0  0  0  0  0  0  0  0  0  0
  148.6830  142.3782  158.0118 C   0  0  0  0  0  0  0  0  0  0  0  0
  149.9824  141.2239  155.3068 C   0  0  0  0  0  0  0  0  0  0  0  0
  149.9583  139.7101  155.0270 C   0  0  0  0  0  0  0  0  0  0  0  0
  149.0506  139.4377  153.9666 O   0  0  0  0  0  0  0  0  0  0  0  0
  146.3332  135.9043  152.2848 N   0  0  0  0  0  0  0  0  0  0  0  0
  145.5493  134.7581  152.0039 C   0  0  0  0  0  0  0  0  0  0  0  0
  144.2311  134.8994  151.8540 N   0  0  0  0  0  0  0  0  0  0  0  0
  143.6010  133.6824  151.5786 C   0  0  0  0  0  0  0  0  0  0  0  0
  144.4632  132.6157  151.5181 C   0  0  0  0  0  0  0  0  0  0  0  0
  146.1130  133.0962  151.8096 S   0  0  0  0  0  0  0  0  0  0  0  0
  147.8664  137.6008  152.7535 H   0  0  0  0  0  0  0  0  0  0  0  0
  147.0475  139.9689  152.2267 H   0  0  0  0  0  0  0  0  0  0  0  0
  145.7586  139.6174  153.3529 H   0  0  0  0  0  0  0  0  0  0  0  0
  147.3982  139.2842  155.1902 H   0  0  0  0  0  0  0  0  0  0  0  0
  147.9297  141.8599  153.6156 H   0  0  0  0  0  0  0  0  0  0  0  0
  146.6587  141.6516  154.7970 H   0  0  0  0  0  0  0  0  0  0  0  0
  147.9934  140.3810  157.2041 H   0  0  0  0  0  0  0  0  0  0  0  0
  146.9892  143.3475  156.9256 H   0  0  0  0  0  0  0  0  0  0  0  0
  146.4733  142.1657  158.2363 H   0  0  0  0  0  0  0  0  0  0  0  0
  148.8523  141.9787  159.0096 H   0  0  0  0  0  0  0  0  0  0  0  0
  149.3758  143.1575  157.6991 H   0  0  0  0  0  0  0  0  0  0  0  0
  150.3716  141.7467  154.4321 H   0  0  0  0  0  0  0  0  0  0  0  0
  150.6575  141.4544  156.1318 H   0  0  0  0  0  0  0  0  0  0  0  0
  150.9516  139.3691  154.7349 H   0  0  0  0  0  0  0  0  0  0  0  0
  149.6806  139.1443  155.9175 H   0  0  0  0  0  0  0  0  0  0  0  0
  147.3323  135.7604  152.2745 H   0  0  0  0  0  0  0  0  0  0  0  0
  142.5304  133.6662  151.4379 H   0  0  0  0  0  0  0  0  0  0  0  0
  144.2288  131.5803  151.3209 H   0  0  0  0  0  0  0  0  0  0  0  0
  148.6837  142.7475  155.5512 H   0  0  0  0  0  0  0  0  0  0  0  0
  1  2  2  0  0  0  0
  2  3  1  0  0  0  0
  2 14  1  0  0  0  0
  3  4  1  0  0  0  0
  3 20  1  0  0  0  0
  4  5  1  0  0  0  0
  4 21  1  0  0  0  0
  4 22  1  0  0  0  0
  5 13  1  0  0  0  0
  5  6  1  0  0  0  0
  5 23  1  0  0  0  0
  6  7  1  0  0  0  0
  6 24  1  0  0  0  0
  6 25  1  0  0  0  0
  7  8  1  0  0  0  0
  7 11  1  0  0  0  0
  7 38  1  0  0  0  0
  8 10  1  0  0  0  0
  8  9  1  0  0  0  0
  8 26  1  0  0  0  0
  9 10  1  0  0  0  0
  9 27  1  0  0  0  0
  9 28  1  0  0  0  0
 10 29  1  0  0  0  0
 10 30  1  0  0  0  0
 11 12  1  0  0  0  0
 11 31  1  0  0  0  0
 11 32  1  0  0  0  0
 12 13  1  0  0  0  0
 12 33  1  0  0  0  0
 12 34  1  0  0  0  0
 14 15  1  0  0  0  0
 14 35  1  0  0  0  0
 15 19  1  0  0  0  0
 15 16  2  0  0  0  0
 16 17  1  0  0  0  0
 17 18  2  0  0  0  0
 17 36  1  0  0  0  0
 18 19  1  0  0  0  0
 18 37  1  0  0  0  0
M  CHG  1   7   1
M  END
> <s_m_source_file>
AV-unprocessed.smi

> <i_m_source_file_index>
2999

> <i_lp_mmshare_version>
43012

> <i_f3d_flags>
0

> <s_epik_input>
czFbY0hdW2NIXW5jMVtOSF1DKD1PKVtOSF1bQ0gyXVtDQEBIXTJbQ0gyXU4oW0NIMl1bQ0gyXU8yKVtDSF0zW0NIMl1bQ0gyXTM=

> <s_epik_cmdline>
J2VwaWtfcHl0aG9uJywgJy1waCcsICc3LjAnLCAnLXRuJywgJzgnLCAnLW1hJywgJzIwMCcsICctbWV0YWxfYmluZGluZycsICctaW1hZScsICc8aW5maWxlLm1hZT4nLCAnLW9tYWUnLCAnPG91dGZpbGUubWFlPic=

> <r_lp_tautomer_probability>
0.999

> <r_epik_Ionization_Penalty>
1.55235

> <r_epik_Ionization_Penalty_Charging>
1.55221

> <r_epik_Ionization_Penalty_Neutral>
0.000139685

> <r_epik_State_Penalty>
1.64652

> <r_epik_Charging_Adjusted_Penalty>
3.19873

> <i_epik_Tot_Q>
1

> <i_epik_Tot_abs_Q>
1

> <r_epik_Metal_State_Penalty>
1.68612

> <b_epik_Metal_Only>
0

> <s_lp_Force_Field>
OPLS_2005

> <r_lp_Energy>
21.4475

> <b_lp_Chiralities_Consistent>
1

> <s_lp_Variant>
AV-unprocessed.smi:2999-5

> <Gold.Version>
5.8.1

> <Gold.Id.Protein>
6NUR|6NUR_protein|mol2

> <Gold.PLP.Fitness>
41.2625

> <Gold.PLP.PLP>
-26.9631

> <Gold.PLP.part.hbond>
-3.0000

> <Gold.PLP.part.metal>
0.0000

> <Gold.PLP.part.buried>
-6.6175

> <Gold.PLP.part.nonpolar>
-20.1799

> <Gold.PLP.part.repulsive>
2.1321

> <Gold.PLP.ligand.clash>
0.0000

> <Gold.PLP.ligand.torsion>
0.7545

> <Gold.PLP.Chemscore.Hbond>
3.8480

> <Gold.PLP.Chemscore.CHOScore>
1.0000

> <Gold.PLP.Chemscore.Metal>
0.0000

> <Gold.Chemscore.Hbonds>
donor molecule, donor type, donor heavy atom, donor atom, acceptor molecule, acceptor atom, score
      L1  H     3    20       P1  7948  0.85
      L1  H     7    38       P1  8028  2.00
      L1  H    14    35       P1  7948  1.00
      L1  C    17    36       P1 10186  1.00

> <Gold.PLP.Chemscore.Internal.Correction>
1.2643

> <Gold.Rescore>
     Score         DG    S(hbond)    S(metal)    S(lipo)     H(rot)  DE(clash)    DE(int)     intcor
     14.86     -17.09       2.80        0.00      53.88       1.58       0.11       2.12       ----

> <Gold.Chemscore.Fitness>
14.8617

> <Gold.Chemscore.DG>
-17.0947

> <Gold.Chemscore.ZeroCoef>
-5.4800

> <Gold.Chemscore.Hbond>
2.8008

> <Gold.Chemscore.Metal>
0.0000

> <Gold.Chemscore.Lipo>
53.8770

> <Gold.Chemscore.Internal_Hbond>
0.0000

> <Gold.Chemscore.DEClash>
0.1130

> <Gold.Chemscore.DEInternal>
2.1200

> <Gold.Chemscore.Rot>
1.5795

> <Gold.Chemscore.Internal.Correction>
   9.000000E+99

> <Gold.Chemscore.Hbonds>
donor molecule, donor type, donor heavy atom, donor atom, acceptor molecule, acceptor atom, score
      L1  H     3    20       P1  7948  0.84
      L1  H     7    38       P1  8028  0.98
      L1  H    14    35       P1  7948  0.97

> <Gold.Chemscore.Hbond.Weighted>
-9.3545

> <Gold.Chemscore.Metal.Weighted>
-0.0000

> <Gold.Chemscore.Lipo.Weighted>
-6.3036

> <Gold.Chemscore.Internal_Hbond.Weighted>
0.0000

> <Gold.Chemscore.DEClash.Weighted>
0.1130

> <Gold.Chemscore.DEInternal.Weighted>
2.1200

> <Gold.Chemscore.Rot.Weighted>
4.0434

> <Gold.Chemscore.Internal.Correction.Weighted>
   9.000000E+99

> <Gold.Protein.RotatedTorsions>
[ 6907 6896 6895 6894 ] final  159.90 input  -60.11 | X-H torsion
[ 7974 7965 7964 7962 ] final -164.68 input  175.53 | X-H torsion
[ 8008 7997 7996 7995 ] final -145.37 input   59.86 | X-H torsion
[ 10167 10162 10161 10158 ] final  125.79 input  -65.29 | X-H torsion
[ 10718 10713 10712 10709 ] final  122.26 input   66.30 | X-H torsion
[ 10763 10752 10751 10750 ] final   75.89 input  -60.55 | X-H torsion
[ 11005 11000 10999 10996 ] final  120.88 input  -57.11 | X-H torsion

> <Gold.Protein.ActiveResidues>
 VAL166  LYS551  ARG553  GLY616  TRP617  ASP618  TYR619  PRO620  LYS621  CYS622 
 ASP623  PHE694  ASN695  SER759  ASP760  ASP761  ALA762  ILE779  LEU786  VAL792 
 PHE793  MET794  SER795  GLU796  ALA797  LYS798  CYS799  TRP800  GLU811  SER814 

> <Gold.Protein.RotatedAtoms>
  151.9786  133.3750  159.4098 H   0  0  0  0  0  0  0  0  0  0  0  0  # atno 6907 bound_to 6896
  150.6938  134.4062  159.5150 H   0  0  0  0  0  0  0  0  0  0  0  0  # atno 6908 bound_to 6896
  152.1778  134.8780  160.0579 H   0  0  0  0  0  0  0  0  0  0  0  0  # atno 6909 bound_to 6896
  144.7290  140.2925  143.6218 H   0  0  0  0  0  0  0  0  0  0  0  0  # atno 7974 bound_to 7965
  155.5420  140.0609  157.2868 H   0  0  0  0  0  0  0  0  0  0  0  0  # atno 8008 bound_to 7997
  154.4449  140.1917  156.0645 H   0  0  0  0  0  0  0  0  0  0  0  0  # atno 8009 bound_to 7997
  156.0577  140.3276  155.7429 H   0  0  0  0  0  0  0  0  0  0  0  0  # atno 8010 bound_to 7997
  139.5666  144.6915  151.3892 H   0  0  0  0  0  0  0  0  0  0  0  0  # atno 10167 bound_to 10162
  157.5755  131.1079  150.8286 H   0  0  0  0  0  0  0  0  0  0  0  0  # atno 10718 bound_to 10713
  153.0686  135.4972  154.8256 H   0  0  0  0  0  0  0  0  0  0  0  0  # atno 10763 bound_to 10752
  154.6990  135.2998  154.9371 H   0  0  0  0  0  0  0  0  0  0  0  0  # atno 10764 bound_to 10752
  154.0100  135.6755  153.4817 H   0  0  0  0  0  0  0  0  0  0  0  0  # atno 10765 bound_to 10752
  139.9203  134.9636  156.7874 H   0  0  0  0  0  0  0  0  0  0  0  0  # atno 11005 bound_to 11000
  145.7841  139.1902  143.2141 LP  0  0  0  0  0  0  0  0  0  0  0  0  # atno 17320 bound_to 7965
  146.0810  140.7764  142.9641 LP  0  0  0  0  0  0  0  0  0  0  0  0  # atno 17321 bound_to 7965
  140.6950  143.7771  150.7312 LP  0  0  0  0  0  0  0  0  0  0  0  0  # atno 17342 bound_to 10162
  140.1264  143.4565  152.2281 LP  0  0  0  0  0  0  0  0  0  0  0  0  # atno 17343 bound_to 10162
  156.8746  130.5158  149.5294 LP  0  0  0  0  0  0  0  0  0  0  0  0  # atno 17370 bound_to 10713
  156.0800  130.5813  150.9546 LP  0  0  0  0  0  0  0  0  0  0  0  0  # atno 17371 bound_to 10713
  140.6494  133.9745  155.7747 LP  0  0  0  0  0  0  0  0  0  0  0  0  # atno 17394 bound_to 11000
  141.0718  134.0194  157.3515 LP  0  0  0  0  0  0  0  0  0  0  0  0  # atno 17395 bound_to 11000

$$$$
