AV-unprocessed.smi:515|AV-procd|sdf|2781|dock6
  -GOLD-   2262023253D 1   1.00000     0.00000
 Structure written by MMmdl.
 48 50  0  0  0  0  0  0  0  0  2 V2000
  150.0460  129.5857  154.3006 C   0  0  0  0  0  0  0  0  0  0  0  0
  149.2184  130.8426  154.0243 C   0  0  0  0  0  0  0  0  0  0  0  0
  149.8011  131.9305  154.7192 O   0  0  0  0  0  0  0  0  0  0  0  0
  149.1956  133.1748  154.4111 C   0  0  0  0  0  0  0  0  0  0  0  0
  149.4262  134.1594  155.5665 C   0  0  0  0  0  0  0  0  0  0  0  0
  149.0970  135.5312  155.1923 N   0  0  0  0  0  0  0  0  0  0  0  0
  147.9158  135.9990  154.7084 C   0  0  0  0  0  0  0  0  0  0  0  0
  146.7071  135.1352  154.4818 C   0  0  0  0  0  0  0  0  0  0  0  0
  146.5286  135.1111  153.0078 N   0  3  0  0  0  0  0  0  0  0  0  0
  146.2314  133.7640  152.4573 C   0  0  0  0  0  0  0  0  0  0  0  0
  146.0995  133.8272  150.9265 C   0  0  0  0  0  0  0  0  0  0  0  0
  145.0922  134.7663  150.5716 O   0  0  0  0  0  0  0  0  0  0  0  0
  145.4100  136.0794  151.0155 C   0  0  0  0  0  0  0  0  0  0  0  0
  145.5174  136.0923  152.5497 C   0  0  0  0  0  0  0  0  0  0  0  0
  147.9105  137.3116  154.4530 N   0  0  0  0  0  0  0  0  0  0  0  0
  149.1890  137.7128  154.8102 C   0  0  0  0  0  0  0  0  0  0  0  0
  149.9154  136.6597  155.2618 C   0  0  0  0  0  0  0  0  0  0  0  0
  151.3033  136.8010  155.7258 C   0  0  0  0  0  0  0  0  0  0  0  0
  151.9785  135.8636  156.1444 O   0  0  0  0  0  0  0  0  0  0  0  0
  151.7621  138.0736  155.6476 N   0  0  0  0  0  0  0  0  0  0  0  0
  151.0860  139.1756  155.2006 C   0  0  0  0  0  0  0  0  0  0  0  0
  151.6391  140.2751  155.1907 O   0  0  0  0  0  0  0  0  0  0  0  0
  149.7940  139.0011  154.7744 N   0  0  0  0  0  0  0  0  0  0  0  0
  149.0245  140.1462  154.2842 C   0  0  0  0  0  0  0  0  0  0  0  0
  152.7112  138.2264  155.9564 H   0  0  0  0  0  0  0  0  0  0  0  0
  149.6288  128.7228  153.7816 H   0  0  0  0  0  0  0  0  0  0  0  0
  150.0677  129.3582  155.3666 H   0  0  0  0  0  0  0  0  0  0  0  0
  151.0752  129.7136  153.9642 H   0  0  0  0  0  0  0  0  0  0  0  0
  149.1968  131.0464  152.9529 H   0  0  0  0  0  0  0  0  0  0  0  0
  148.1896  130.6925  154.3549 H   0  0  0  0  0  0  0  0  0  0  0  0
  149.6191  133.5794  153.4909 H   0  0  0  0  0  0  0  0  0  0  0  0
  148.1264  133.0358  154.2452 H   0  0  0  0  0  0  0  0  0  0  0  0
  148.8369  133.8690  156.4345 H   0  0  0  0  0  0  0  0  0  0  0  0
  150.4619  134.1148  155.9010 H   0  0  0  0  0  0  0  0  0  0  0  0
  146.8108  134.1340  154.8978 H   0  0  0  0  0  0  0  0  0  0  0  0
  145.8528  135.6081  154.9684 H   0  0  0  0  0  0  0  0  0  0  0  0
  147.0206  133.0591  152.7192 H   0  0  0  0  0  0  0  0  0  0  0  0
  145.3066  133.3859  152.8958 H   0  0  0  0  0  0  0  0  0  0  0  0
  147.0495  134.1012  150.4646 H   0  0  0  0  0  0  0  0  0  0  0  0
  145.8248  132.8486  150.5327 H   0  0  0  0  0  0  0  0  0  0  0  0
  146.3399  136.4180  150.5558 H   0  0  0  0  0  0  0  0  0  0  0  0
  144.6261  136.7625  150.6883 H   0  0  0  0  0  0  0  0  0  0  0  0
  144.5496  135.8556  152.9949 H   0  0  0  0  0  0  0  0  0  0  0  0
  145.7913  137.0922  152.8890 H   0  0  0  0  0  0  0  0  0  0  0  0
  149.5395  140.6271  153.4513 H   0  0  0  0  0  0  0  0  0  0  0  0
  148.8946  140.8847  155.0766 H   0  0  0  0  0  0  0  0  0  0  0  0
  148.0320  139.8659  153.9321 H   0  0  0  0  0  0  0  0  0  0  0  0
  147.4102  135.4057  152.6113 H   0  0  0  0  0  0  0  0  0  0  0  0
  1  2  1  0  0  0  0
  1 26  1  0  0  0  0
  1 27  1  0  0  0  0
  1 28  1  0  0  0  0
  2  3  1  0  0  0  0
  2 29  1  0  0  0  0
  2 30  1  0  0  0  0
  3  4  1  0  0  0  0
  4  5  1  0  0  0  0
  4 31  1  0  0  0  0
  4 32  1  0  0  0  0
  5  6  1  0  0  0  0
  5 33  1  0  0  0  0
  5 34  1  0  0  0  0
  6 17  1  0  0  0  0
  6  7  1  0  0  0  0
  7  8  1  0  0  0  0
  7 15  2  0  0  0  0
  8  9  1  0  0  0  0
  8 35  1  0  0  0  0
  8 36  1  0  0  0  0
  9 14  1  0  0  0  0
  9 10  1  0  0  0  0
  9 48  1  0  0  0  0
 10 11  1  0  0  0  0
 10 37  1  0  0  0  0
 10 38  1  0  0  0  0
 11 12  1  0  0  0  0
 11 39  1  0  0  0  0
 11 40  1  0  0  0  0
 12 13  1  0  0  0  0
 13 14  1  0  0  0  0
 13 41  1  0  0  0  0
 13 42  1  0  0  0  0
 14 43  1  0  0  0  0
 14 44  1  0  0  0  0
 15 16  1  0  0  0  0
 16 23  1  0  0  0  0
 16 17  2  0  0  0  0
 17 18  1  0  0  0  0
 18 19  2  0  0  0  0
 18 20  1  0  0  0  0
 20 25  1  0  0  0  0
 20 21  1  0  0  0  0
 21 22  2  0  0  0  0
 21 23  1  0  0  0  0
 23 24  1  0  0  0  0
 24 45  1  0  0  0  0
 24 46  1  0  0  0  0
 24 47  1  0  0  0  0
M  CHG  1   9   1
M  END
> <s_m_source_file>
AV-unprocessed.smi

> <i_m_source_file_index>
515

> <i_lp_mmshare_version>
43012

> <i_f3d_flags>
0

> <s_epik_input>
W0NIM11uMWMoPU8pW25IXWMoPU8pYyhjMTIpbihbQ0gyXVtDSDJdT1tDSDJdW0NIM10pYyhuMilbQ0gyXU4zW0NIMl1bQ0gyXU9bQ0gyXVtDSDJdMw==

> <s_epik_cmdline>
J2VwaWtfcHl0aG9uJywgJy1waCcsICc3LjAnLCAnLXRuJywgJzgnLCAnLW1hJywgJzIwMCcsICctbWV0YWxfYmluZGluZycsICctaW1hZScsICc8aW5maWxlLm1hZT4nLCAnLW9tYWUnLCAnPG91dGZpbGUubWFlPic=

> <r_epik_Ionization_Penalty>
1.12075

> <r_epik_Ionization_Penalty_Charging>
1.12075

> <r_epik_Ionization_Penalty_Neutral>
5.33793e-09

> <r_epik_State_Penalty>
1.17893

> <r_epik_Charging_Adjusted_Penalty>
2.29968

> <i_epik_Tot_Q>
1

> <i_epik_Tot_abs_Q>
1

> <r_epik_Metal_State_Penalty>
1.3264

> <b_epik_Metal_Only>
0

> <s_lp_Force_Field>
OPLS_2005

> <r_lp_Energy>
34.9817

> <b_lp_Chiralities_Consistent>
1

> <s_lp_Variant>
AV-unprocessed.smi:515-2

> <Gold.Version>
5.8.1

> <Gold.Id.Protein>
6NUR|6NUR_protein|mol2

> <Gold.PLP.Fitness>
42.5943

> <Gold.PLP.PLP>
-32.3380

> <Gold.PLP.part.hbond>
-3.0000

> <Gold.PLP.part.metal>
0.0000

> <Gold.PLP.part.buried>
-4.8086

> <Gold.PLP.part.nonpolar>
-26.9288

> <Gold.PLP.part.repulsive>
2.2163

> <Gold.PLP.ligand.clash>
0.0000

> <Gold.PLP.ligand.torsion>
0.8267

> <Gold.PLP.Chemscore.Hbond>
3.9440

> <Gold.PLP.Chemscore.CHOScore>
0.0000

> <Gold.PLP.Chemscore.Metal>
0.0000

> <Gold.Chemscore.Hbonds>
donor molecule, donor type, donor heavy atom, donor atom, acceptor molecule, acceptor atom, score
      L1  H     9    48       P1  7948  2.00
      P1  H  7989  7998       L1    22  0.91
      P1  H 10752 10765       L1    19  1.00

> <Gold.PLP.Chemscore.Internal.Correction>
0.0777

> <Gold.Rescore>
     Score         DG    S(hbond)    S(metal)    S(lipo)     H(rot)  DE(clash)    DE(int)     intcor
     13.32     -15.33       2.72        0.00      55.03       2.22       1.34       0.66       ----

> <Gold.Chemscore.Fitness>
13.3161

> <Gold.Chemscore.DG>
-15.3257

> <Gold.Chemscore.ZeroCoef>
-5.4800

> <Gold.Chemscore.Hbond>
2.7201

> <Gold.Chemscore.Metal>
0.0000

> <Gold.Chemscore.Lipo>
55.0347

> <Gold.Chemscore.Internal_Hbond>
0.0000

> <Gold.Chemscore.DEClash>
1.3447

> <Gold.Chemscore.DEInternal>
0.6648

> <Gold.Chemscore.Rot>
2.2182

> <Gold.Chemscore.Internal.Correction>
   9.000000E+99

> <Gold.Chemscore.Hbonds>
donor molecule, donor type, donor heavy atom, donor atom, acceptor molecule, acceptor atom, score
      L1  H     9    48       P1  7948  1.00
      P1  H  7989  7998       L1    22  0.58
      P1  H 10752 10765       L1    19  0.74

> <Gold.Chemscore.Hbond.Weighted>
-9.0852

> <Gold.Chemscore.Metal.Weighted>
-0.0000

> <Gold.Chemscore.Lipo.Weighted>
-6.4391

> <Gold.Chemscore.Internal_Hbond.Weighted>
0.0000

> <Gold.Chemscore.DEClash.Weighted>
1.3447

> <Gold.Chemscore.DEInternal.Weighted>
0.6648

> <Gold.Chemscore.Rot.Weighted>
5.6785

> <Gold.Chemscore.Internal.Correction.Weighted>
   9.000000E+99

> <Gold.Protein.RotatedTorsions>
[ 6907 6896 6895 6894 ] final  -57.70 input  -60.11 | X-H torsion
[ 7974 7965 7964 7962 ] final   -0.30 input  175.53 | X-H torsion
[ 8008 7997 7996 7995 ] final -105.77 input   59.86 | X-H torsion
[ 10167 10162 10161 10158 ] final  -72.58 input  -65.29 | X-H torsion
[ 10718 10713 10712 10709 ] final  -99.48 input   66.30 | X-H torsion
[ 10763 10752 10751 10750 ] final -150.06 input  -60.55 | X-H torsion
[ 11005 11000 10999 10996 ] final  125.91 input  -57.11 | X-H torsion

> <Gold.Protein.ActiveResidues>
 VAL166  LYS551  ARG553  GLY616  TRP617  ASP618  TYR619  PRO620  LYS621  CYS622 
 ASP623  PHE694  ASN695  SER759  ASP760  ASP761  ALA762  ILE779  LEU786  VAL792 
 PHE793  MET794  SER795  GLU796  ALA797  LYS798  CYS799  TRP800  GLU811  SER814 

> <Gold.Protein.RotatedAtoms>
  150.8065  134.7193  159.6648 H   0  0  0  0  0  0  0  0  0  0  0  0  # atno 6907 bound_to 6896
  152.4185  134.5995  160.0006 H   0  0  0  0  0  0  0  0  0  0  0  0  # atno 6908 bound_to 6896
  151.6218  133.3301  159.3125 H   0  0  0  0  0  0  0  0  0  0  0  0  # atno 6909 bound_to 6896
  146.2428  140.1249  142.8339 H   0  0  0  0  0  0  0  0  0  0  0  0  # atno 7974 bound_to 7965
  154.9047  140.0412  157.1913 H   0  0  0  0  0  0  0  0  0  0  0  0  # atno 8008 bound_to 7997
  154.8408  140.2914  155.5639 H   0  0  0  0  0  0  0  0  0  0  0  0  # atno 8009 bound_to 7997
  156.2992  140.2483  156.3350 H   0  0  0  0  0  0  0  0  0  0  0  0  # atno 8010 bound_to 7997
  140.5181  143.2335  151.7478 H   0  0  0  0  0  0  0  0  0  0  0  0  # atno 10167 bound_to 10162
  156.0135  130.5284  150.6676 H   0  0  0  0  0  0  0  0  0  0  0  0  # atno 10718 bound_to 10713
  154.8141  135.3293  154.7224 H   0  0  0  0  0  0  0  0  0  0  0  0  # atno 10763 bound_to 10752
  153.7868  135.6914  153.4883 H   0  0  0  0  0  0  0  0  0  0  0  0  # atno 10764 bound_to 10752
  153.1943  135.4539  155.0135 H   0  0  0  0  0  0  0  0  0  0  0  0  # atno 10765 bound_to 10752
  139.9430  134.9633  156.8629 H   0  0  0  0  0  0  0  0  0  0  0  0  # atno 11005 bound_to 11000
  145.0375  140.8920  143.5072 LP  0  0  0  0  0  0  0  0  0  0  0  0  # atno 17320 bound_to 7965
  145.1323  139.2624  143.5533 LP  0  0  0  0  0  0  0  0  0  0  0  0  # atno 17321 bound_to 7965
  139.4915  144.4295  151.9888 LP  0  0  0  0  0  0  0  0  0  0  0  0  # atno 17342 bound_to 10162
  140.3390  144.3226  150.5971 LP  0  0  0  0  0  0  0  0  0  0  0  0  # atno 17343 bound_to 10162
  157.4405  131.0860  151.0948 LP  0  0  0  0  0  0  0  0  0  0  0  0  # atno 17370 bound_to 10713
  157.1493  130.6177  149.5577 LP  0  0  0  0  0  0  0  0  0  0  0  0  # atno 17371 bound_to 10713
  140.5905  134.0266  155.7498 LP  0  0  0  0  0  0  0  0  0  0  0  0  # atno 17394 bound_to 11000
  141.1071  133.9676  157.2978 LP  0  0  0  0  0  0  0  0  0  0  0  0  # atno 17395 bound_to 11000

$$$$
