AV-unprocessed.smi:1996|AV-procd|sdf|8084|dock10
  -GOLD-   2272010303D 1   1.00000     0.00000
 Structure written by MMmdl.
 33 34  0  0  0  0  0  0  0  0  1 V2000
  148.8873  138.9395  155.8645 O   0  0  0  0  0  0  0  0  0  0  0  0
  149.2422  139.5521  154.8571 C   0  0  0  0  0  0  0  0  0  0  0  0
  150.3156  140.3551  154.8204 N   0  0  0  0  0  0  0  0  0  0  0  0
  151.2132  140.6040  155.9424 C   0  0  0  0  0  0  0  0  0  0  0  0
  150.4673  141.2380  157.1296 C   0  0  0  0  0  0  0  0  0  0  0  0
  151.3899  141.9984  158.0674 C   0  0  0  0  0  0  0  0  0  0  0  0
  152.2575  141.3657  158.8810 C   0  0  0  0  0  0  0  0  0  0  0  0
  153.1934  142.0713  159.8469 C   0  0  0  0  0  0  0  0  0  0  0  0
  152.8251  143.5512  160.0471 C   0  0  0  0  0  0  0  0  0  0  0  0
  152.4682  144.2203  158.7139 C   0  0  0  0  0  0  0  0  0  0  0  0
  151.2783  143.5185  158.0352 C   0  0  0  0  0  0  0  0  0  0  0  0
  148.6256  139.5101  153.6629 N   0  0  0  0  0  0  0  0  0  0  0  0
  147.4743  138.7663  153.2918 C   0  0  0  0  0  0  0  0  0  0  0  0
  146.8776  137.8681  154.0913 N   0  0  0  0  0  0  0  0  0  0  0  0
  145.7756  137.2818  153.4823 N   0  0  0  0  0  0  0  0  0  0  0  0
  145.5845  137.7604  152.2495 C   0  0  0  0  0  0  0  0  0  0  0  0
  146.7321  138.9747  151.7119 S   0  0  0  0  0  0  0  0  0  0  0  0
  150.5332  140.8220  153.9521 H   0  0  0  0  0  0  0  0  0  0  0  0
  151.6500  139.6492  156.2354 H   0  0  0  0  0  0  0  0  0  0  0  0
  152.0409  141.2413  155.6259 H   0  0  0  0  0  0  0  0  0  0  0  0
  149.6983  141.9173  156.7592 H   0  0  0  0  0  0  0  0  0  0  0  0
  149.9456  140.4689  157.7003 H   0  0  0  0  0  0  0  0  0  0  0  0
  152.3218  140.2873  158.8634 H   0  0  0  0  0  0  0  0  0  0  0  0
  153.1785  141.5526  160.8057 H   0  0  0  0  0  0  0  0  0  0  0  0
  154.2075  141.9853  159.4555 H   0  0  0  0  0  0  0  0  0  0  0  0
  151.9728  143.6261  160.7236 H   0  0  0  0  0  0  0  0  0  0  0  0
  153.6491  144.0783  160.5288 H   0  0  0  0  0  0  0  0  0  0  0  0
  152.2389  145.2751  158.8681 H   0  0  0  0  0  0  0  0  0  0  0  0
  153.3357  144.1867  158.0534 H   0  0  0  0  0  0  0  0  0  0  0  0
  151.1984  143.8573  157.0017 H   0  0  0  0  0  0  0  0  0  0  0  0
  150.3510  143.8033  158.5333 H   0  0  0  0  0  0  0  0  0  0  0  0
  149.0325  140.0713  152.9293 H   0  0  0  0  0  0  0  0  0  0  0  0
  144.7618  137.3955  151.6526 H   0  0  0  0  0  0  0  0  0  0  0  0
  1  2  2  0  0  0  0
  2  3  1  0  0  0  0
  2 12  1  0  0  0  0
  3  4  1  0  0  0  0
  3 18  1  0  0  0  0
  4  5  1  0  0  0  0
  4 19  1  0  0  0  0
  4 20  1  0  0  0  0
  5  6  1  0  0  0  0
  5 21  1  0  0  0  0
  5 22  1  0  0  0  0
  6 11  1  0  0  0  0
  6  7  2  0  0  0  0
  7  8  1  0  0  0  0
  7 23  1  0  0  0  0
  8  9  1  0  0  0  0
  8 24  1  0  0  0  0
  8 25  1  0  0  0  0
  9 10  1  0  0  0  0
  9 26  1  0  0  0  0
  9 27  1  0  0  0  0
 10 11  1  0  0  0  0
 10 28  1  0  0  0  0
 10 29  1  0  0  0  0
 11 30  1  0  0  0  0
 11 31  1  0  0  0  0
 12 13  1  0  0  0  0
 12 32  1  0  0  0  0
 13 17  1  0  0  0  0
 13 14  2  0  0  0  0
 14 15  1  0  0  0  0
 15 16  2  0  0  0  0
 16 17  1  0  0  0  0
 16 33  1  0  0  0  0
M  END
> <s_m_source_file>
AV-unprocessed.smi

> <i_m_source_file_index>
1996

> <i_lp_mmshare_version>
43012

> <i_f3d_flags>
0

> <s_epik_input>
czFbY0hdbm5jMVtOSF1DKD1PKVtOSF1bQ0gyXVtDSDJdQzI9W0NIXVtDSDJdW0NIMl1bQ0gyXVtDSDJdMg==

> <s_epik_cmdline>
J2VwaWtfcHl0aG9uJywgJy1waCcsICc3LjAnLCAnLXRuJywgJzgnLCAnLW1hJywgJzIwMCcsICctbWV0YWxfYmluZGluZycsICctaW1hZScsICc8aW5maWxlLm1hZT4nLCAnLW9tYWUnLCAnPG91dGZpbGUubWFlPic=

> <r_lp_tautomer_probability>
1

> <r_epik_Ionization_Penalty>
0.00157076

> <r_epik_Ionization_Penalty_Charging>
0

> <r_epik_Ionization_Penalty_Neutral>
0.00157076

> <r_epik_State_Penalty>
-0

> <r_epik_Charging_Adjusted_Penalty>
0

> <i_epik_Tot_Q>
0

> <i_epik_Tot_abs_Q>
0

> <r_epik_Metal_State_Penalty>
0.323125

> <b_epik_Metal_Only>
0

> <s_lp_Force_Field>
OPLS_2005

> <r_lp_Energy>
6.02977

> <b_lp_Chiralities_Consistent>
1

> <s_lp_Variant>
AV-unprocessed.smi:1996-1

> <Gold.Version>
5.8.1

> <Gold.Id.Protein>
6NUR|6NUR_protein|mol2

> <Gold.PLP.Fitness>
38.3828

> <Gold.PLP.PLP>
-33.4161

> <Gold.PLP.part.hbond>
-1.0000

> <Gold.PLP.part.metal>
0.0000

> <Gold.PLP.part.buried>
-1.5552

> <Gold.PLP.part.nonpolar>
-33.3670

> <Gold.PLP.part.repulsive>
2.1804

> <Gold.PLP.ligand.clash>
0.0000

> <Gold.PLP.ligand.torsion>
0.2514

> <Gold.PLP.Chemscore.Hbond>
1.0000

> <Gold.PLP.Chemscore.CHOScore>
0.8218

> <Gold.PLP.Chemscore.Metal>
0.0000

> <Gold.Chemscore.Hbonds>
donor molecule, donor type, donor heavy atom, donor atom, acceptor molecule, acceptor atom, score
      L1  H    12    32       P1  7957  0.88
      L1  C    16    33       P1 10171  0.86

> <Gold.PLP.Chemscore.Internal.Correction>
0.0040

> <Gold.Rescore>
     Score         DG    S(hbond)    S(metal)    S(lipo)     H(rot)  DE(clash)    DE(int)     intcor
     14.38     -15.97       0.97        0.00      97.44       1.62       0.13       1.47       ----

> <Gold.Chemscore.Fitness>
14.3754

> <Gold.Chemscore.DG>
-15.9724

> <Gold.Chemscore.ZeroCoef>
-5.4800

> <Gold.Chemscore.Hbond>
0.9673

> <Gold.Chemscore.Metal>
0.0000

> <Gold.Chemscore.Lipo>
97.4389

> <Gold.Chemscore.Internal_Hbond>
0.0000

> <Gold.Chemscore.DEClash>
0.1310

> <Gold.Chemscore.DEInternal>
1.4660

> <Gold.Chemscore.Rot>
1.6167

> <Gold.Chemscore.Internal.Correction>
   9.000000E+99

> <Gold.Chemscore.Hbonds>
donor molecule, donor type, donor heavy atom, donor atom, acceptor molecule, acceptor atom, score
      L1  H    12    32       P1  7957  0.86

> <Gold.Chemscore.Hbond.Weighted>
-3.2307

> <Gold.Chemscore.Metal.Weighted>
-0.0000

> <Gold.Chemscore.Lipo.Weighted>
-11.4004

> <Gold.Chemscore.Internal_Hbond.Weighted>
0.0000

> <Gold.Chemscore.DEClash.Weighted>
0.1310

> <Gold.Chemscore.DEInternal.Weighted>
1.4660

> <Gold.Chemscore.Rot.Weighted>
4.1387

> <Gold.Chemscore.Internal.Correction.Weighted>
   9.000000E+99

> <Gold.Protein.RotatedTorsions>
[ 6907 6896 6895 6894 ] final  116.53 input  -60.11 | X-H torsion
[ 7974 7965 7964 7962 ] final  153.71 input  175.53 | X-H torsion
[ 8008 7997 7996 7995 ] final  -44.61 input   59.86 | X-H torsion
[ 10167 10162 10161 10158 ] final  145.40 input  -65.29 | X-H torsion
[ 10718 10713 10712 10709 ] final  146.04 input   66.30 | X-H torsion
[ 10763 10752 10751 10750 ] final    2.06 input  -60.55 | X-H torsion
[ 11005 11000 10999 10996 ] final -108.96 input  -57.11 | X-H torsion

> <Gold.Protein.ActiveResidues>
 VAL166  LYS551  ARG553  GLY616  TRP617  ASP618  TYR619  PRO620  LYS621  CYS622 
 ASP623  PHE694  ASN695  SER759  ASP760  ASP761  ALA762  ILE779  LEU786  VAL792 
 PHE793  MET794  SER795  GLU796  ALA797  LYS798  CYS799  TRP800  GLU811  SER814 

> <Gold.Protein.RotatedAtoms>
  152.4672  133.7949  159.6921 H   0  0  0  0  0  0  0  0  0  0  0  0  # atno 6907 bound_to 6896
  150.8642  133.7589  159.2988 H   0  0  0  0  0  0  0  0  0  0  0  0  # atno 6908 bound_to 6896
  151.5144  135.1069  159.9914 H   0  0  0  0  0  0  0  0  0  0  0  0  # atno 6909 bound_to 6896
  144.8136  139.6837  143.6131 H   0  0  0  0  0  0  0  0  0  0  0  0  # atno 7974 bound_to 7965
  154.3998  140.1418  156.3711 H   0  0  0  0  0  0  0  0  0  0  0  0  # atno 8008 bound_to 7997
  155.8091  140.3473  155.5426 H   0  0  0  0  0  0  0  0  0  0  0  0  # atno 8009 bound_to 7997
  155.8404  140.0926  157.1728 H   0  0  0  0  0  0  0  0  0  0  0  0  # atno 8010 bound_to 7997
  139.4927  144.5904  151.6691 H   0  0  0  0  0  0  0  0  0  0  0  0  # atno 10167 bound_to 10162
  157.3380  131.0931  151.1107 H   0  0  0  0  0  0  0  0  0  0  0  0  # atno 10718 bound_to 10713
  153.3003  135.6955  153.7209 H   0  0  0  0  0  0  0  0  0  0  0  0  # atno 10763 bound_to 10752
  153.6126  135.3442  155.2984 H   0  0  0  0  0  0  0  0  0  0  0  0  # atno 10764 bound_to 10752
  154.8549  135.4367  154.2112 H   0  0  0  0  0  0  0  0  0  0  0  0  # atno 10765 bound_to 10752
  141.0874  133.9116  157.2155 H   0  0  0  0  0  0  0  0  0  0  0  0  # atno 11005 bound_to 11000
  146.2437  139.6054  142.9474 LP  0  0  0  0  0  0  0  0  0  0  0  0  # atno 17320 bound_to 7965
  145.5266  141.0429  143.2406 LP  0  0  0  0  0  0  0  0  0  0  0  0  # atno 17321 bound_to 7965
  140.5530  144.0394  150.6135 LP  0  0  0  0  0  0  0  0  0  0  0  0  # atno 17342 bound_to 10162
  140.3454  143.2994  152.0544 LP  0  0  0  0  0  0  0  0  0  0  0  0  # atno 17343 bound_to 10162
  157.2330  130.6534  149.5857 LP  0  0  0  0  0  0  0  0  0  0  0  0  # atno 17370 bound_to 10713
  155.9704  130.4593  150.6030 LP  0  0  0  0  0  0  0  0  0  0  0  0  # atno 17371 bound_to 10713
  139.9694  135.0133  156.9472 LP  0  0  0  0  0  0  0  0  0  0  0  0  # atno 17394 bound_to 11000
  140.5332  134.0793  155.7321 LP  0  0  0  0  0  0  0  0  0  0  0  0  # atno 17395 bound_to 11000

$$$$
