AV-unprocessed.smi:265|AV-procd|sdf|2017|dock8
  -GOLD-   2262021223D 1   1.00000     0.00000
 Structure written by MMmdl.
 52 56  0  0  0  0  0  0  0  0  1 V2000
  148.0932  132.5069  153.6141 C   0  0  0  0  0  0  0  0  0  0  0  0
  149.4891  132.4386  154.2528 C   0  0  2  0  0  0  0  0  0  0  0  0
  149.6790  131.2071  154.9484 O   0  0  0  0  0  0  0  0  0  0  0  0
  150.2335  131.4447  156.2368 C   0  0  0  0  0  0  0  0  0  0  0  0
  150.8274  132.8470  156.1629 C   0  0  0  0  0  0  0  0  0  0  0  0
  149.8528  133.5697  155.2426 C   0  0  2  0  0  0  0  0  0  0  0  0
  148.7150  133.9465  156.0003 O   0  0  0  0  0  0  0  0  0  0  0  0
  150.3886  134.8742  154.5969 C   0  0  0  0  0  0  0  0  0  0  0  0
  150.6286  135.9673  155.5262 N   0  0  0  0  0  0  0  0  0  0  0  0
  150.8720  135.8632  156.8783 C   0  0  0  0  0  0  0  0  0  0  0  0
  151.0587  136.9949  157.5014 N   0  0  0  0  0  0  0  0  0  0  0  0
  150.9557  137.9492  156.4982 C   0  0  0  0  0  0  0  0  0  0  0  0
  151.0521  139.3640  156.4702 C   0  0  0  0  0  0  0  0  0  0  0  0
  151.2849  140.0858  157.5863 N   0  0  0  0  0  0  0  0  0  0  0  0
  152.5120  139.7021  158.2850 C   0  0  0  0  0  0  0  0  0  0  0  0
  152.6173  140.4104  159.6492 C   0  0  0  0  0  0  0  0  0  0  0  0
  152.4783  141.9271  159.4596 C   0  0  2  0  0  0  0  0  0  0  0  0
  152.4608  142.6216  160.6975 O   0  0  0  0  0  0  0  0  0  0  0  0
  152.4982  144.0454  160.5490 C   0  0  0  0  0  0  0  0  0  0  0  0
  151.5017  144.5649  159.4900 C   0  0  0  0  0  0  0  0  0  0  0  0
  151.2548  145.7667  159.4199 O   0  0  0  0  0  0  0  0  0  0  0  0
  150.9601  143.6778  158.6386 N   0  0  0  0  0  0  0  0  0  0  0  0
  151.1434  142.2381  158.7637 C   0  0  1  0  0  0  0  0  0  0  0  0
  151.0844  141.5234  157.4044 C   0  0  0  0  0  0  0  0  0  0  0  0
  150.9005  139.9922  155.2749 N   0  0  0  0  0  0  0  0  0  0  0  0
  150.6674  139.2739  154.1717 C   0  0  0  0  0  0  0  0  0  0  0  0
  150.5470  137.9498  154.0463 N   0  0  0  0  0  0  0  0  0  0  0  0
  150.6972  137.3216  155.2482 C   0  0  0  0  0  0  0  0  0  0  0  0
  153.3178  142.2821  158.8576 H   0  0  0  0  0  0  0  0  0  0  0  0
  150.3244  141.8700  159.3846 H   0  0  0  0  0  0  0  0  0  0  0  0
  147.9493  133.4508  153.0882 H   0  0  0  0  0  0  0  0  0  0  0  0
  147.3032  132.4102  154.3592 H   0  0  0  0  0  0  0  0  0  0  0  0
  147.9612  131.7012  152.8919 H   0  0  0  0  0  0  0  0  0  0  0  0
  150.2246  132.4124  153.4504 H   0  0  0  0  0  0  0  0  0  0  0  0
  149.4329  131.4053  156.9764 H   0  0  0  0  0  0  0  0  0  0  0  0
  150.9736  130.6883  156.4986 H   0  0  0  0  0  0  0  0  0  0  0  0
  150.9415  133.3181  157.1400 H   0  0  0  0  0  0  0  0  0  0  0  0
  151.8155  132.7762  155.7100 H   0  0  0  0  0  0  0  0  0  0  0  0
  148.9116  134.7498  156.4575 H   0  0  0  0  0  0  0  0  0  0  0  0
  151.3223  134.6705  154.0707 H   0  0  0  0  0  0  0  0  0  0  0  0
  149.6885  135.2288  153.8392 H   0  0  0  0  0  0  0  0  0  0  0  0
  150.8977  134.9136  157.3933 H   0  0  0  0  0  0  0  0  0  0  0  0
  152.5330  138.6208  158.4273 H   0  0  0  0  0  0  0  0  0  0  0  0
  153.3750  139.9596  157.6691 H   0  0  0  0  0  0  0  0  0  0  0  0
  151.8350  140.0454  160.3160 H   0  0  0  0  0  0  0  0  0  0  0  0
  153.5698  140.1739  160.1237 H   0  0  0  0  0  0  0  0  0  0  0  0
  152.2871  144.5087  161.5131 H   0  0  0  0  0  0  0  0  0  0  0  0
  153.5052  144.3484  160.2597 H   0  0  0  0  0  0  0  0  0  0  0  0
  150.3324  144.0117  157.9216 H   0  0  0  0  0  0  0  0  0  0  0  0
  151.8515  141.9201  156.7374 H   0  0  0  0  0  0  0  0  0  0  0  0
  150.1187  141.7021  156.9293 H   0  0  0  0  0  0  0  0  0  0  0  0
  150.5614  139.8411  153.2585 H   0  0  0  0  0  0  0  0  0  0  0  0
  1  2  1  0  0  0  0
  1 31  1  0  0  0  0
  1 32  1  0  0  0  0
  1 33  1  0  0  0  0
  2  6  1  0  0  0  0
  2  3  1  0  0  0  0
  2 34  1  0  0  0  0
  3  4  1  0  0  0  0
  4  5  1  0  0  0  0
  4 35  1  0  0  0  0
  4 36  1  0  0  0  0
  5  6  1  0  0  0  0
  5 37  1  0  0  0  0
  5 38  1  0  0  0  0
  6  7  1  0  0  0  0
  6  8  1  0  0  0  0
  7 39  1  0  0  0  0
  8  9  1  0  0  0  0
  8 40  1  0  0  0  0
  8 41  1  0  0  0  0
  9 28  1  0  0  0  0
  9 10  1  0  0  0  0
 10 11  2  0  0  0  0
 10 42  1  0  0  0  0
 11 12  1  0  0  0  0
 12 28  2  0  0  0  0
 12 13  1  0  0  0  0
 13 14  1  0  0  0  0
 13 25  2  0  0  0  0
 14 24  1  0  0  0  0
 14 15  1  0  0  0  0
 15 16  1  0  0  0  0
 15 43  1  0  0  0  0
 15 44  1  0  0  0  0
 16 17  1  0  0  0  0
 16 45  1  0  0  0  0
 16 46  1  0  0  0  0
 17 29  1  0  0  0  0
 17 23  1  0  0  0  0
 17 18  1  0  0  0  0
 18 19  1  0  0  0  0
 19 20  1  0  0  0  0
 19 47  1  0  0  0  0
 19 48  1  0  0  0  0
 20 21  2  0  0  0  0
 20 22  1  0  0  0  0
 22 23  1  0  0  0  0
 22 49  1  0  0  0  0
 23 30  1  0  0  0  0
 23 24  1  0  0  0  0
 24 50  1  0  0  0  0
 24 51  1  0  0  0  0
 25 26  1  0  0  0  0
 26 27  2  0  0  0  0
 26 52  1  0  0  0  0
 27 28  1  0  0  0  0
M  END
> <s_m_source_file>
AV-unprocessed.smi

> <i_m_source_file_index>
265

> <i_lp_mmshare_version>
43012

> <i_f3d_flags>
0

> <s_epik_input>
W0NIMl0xW0NIMl1PW0NAQEhdKFtDSDNdKVtDQEBdMShbT0hdKVtDSDJdbihbY0hdbjIpYyhjMjMpbltjSF1uYzNOKFtDSDJdW0NIMl00KVtDSDJdW0NAQEhdKFtDQEhdNDUpW05IXUMoPU8pW0NIMl1PNQ==

> <s_epik_cmdline>
J2VwaWtfcHl0aG9uJywgJy1waCcsICc3LjAnLCAnLXRuJywgJzgnLCAnLW1hJywgJzIwMCcsICctbWV0YWxfYmluZGluZycsICctaW1hZScsICc8aW5maWxlLm1hZT4nLCAnLW9tYWUnLCAnPG91dGZpbGUubWFlPic=

> <r_lp_tautomer_probability>
1

> <r_epik_Ionization_Penalty>
0.00221504

> <r_epik_Ionization_Penalty_Charging>
0

> <r_epik_Ionization_Penalty_Neutral>
0.00221504

> <r_epik_State_Penalty>
-0

> <r_epik_Charging_Adjusted_Penalty>
0

> <i_epik_Tot_Q>
0

> <i_epik_Tot_abs_Q>
0

> <r_epik_Metal_State_Penalty>
-0

> <b_epik_Metal_Only>
0

> <s_lp_Force_Field>
OPLS_2005

> <r_lp_Energy>
49.4841

> <b_lp_Chiralities_Consistent>
1

> <s_lp_Variant>
AV-unprocessed.smi:265-3

> <Gold.Version>
5.8.1

> <Gold.Id.Protein>
6NUR|6NUR_protein|mol2

> <Gold.PLP.Fitness>
41.9188

> <Gold.PLP.PLP>
-39.6673

> <Gold.PLP.part.hbond>
-2.3047

> <Gold.PLP.part.metal>
0.0000

> <Gold.PLP.part.buried>
-6.7794

> <Gold.PLP.part.nonpolar>
-32.1638

> <Gold.PLP.part.repulsive>
0.5742

> <Gold.PLP.ligand.clash>
0.0000

> <Gold.PLP.ligand.torsion>
0.4845

> <Gold.PLP.Chemscore.Hbond>
0.0000

> <Gold.PLP.Chemscore.CHOScore>
1.0000

> <Gold.PLP.Chemscore.Metal>
0.0000

> <Gold.Chemscore.Hbonds>
donor molecule, donor type, donor heavy atom, donor atom, acceptor molecule, acceptor atom, score
      L1  C    26    52       P1  7957  1.00

> <Gold.PLP.Chemscore.Internal.Correction>
0.2206

> <Gold.Rescore>
     Score         DG    S(hbond)    S(metal)    S(lipo)     H(rot)  DE(clash)    DE(int)     intcor
      7.68      -9.77       0.00        0.00      85.83       2.25       0.47       1.62       ----

> <Gold.Chemscore.Fitness>
7.6765

> <Gold.Chemscore.DG>
-9.7740

> <Gold.Chemscore.ZeroCoef>
-5.4800

> <Gold.Chemscore.Hbond>
0.0000

> <Gold.Chemscore.Metal>
0.0000

> <Gold.Chemscore.Lipo>
85.8286

> <Gold.Chemscore.Internal_Hbond>
0.0000

> <Gold.Chemscore.DEClash>
0.4749

> <Gold.Chemscore.DEInternal>
1.6226

> <Gold.Chemscore.Rot>
2.2453

> <Gold.Chemscore.Internal.Correction>
   9.000000E+99

> <Gold.Chemscore.Hbond.Weighted>
-0.0000

> <Gold.Chemscore.Metal.Weighted>
-0.0000

> <Gold.Chemscore.Lipo.Weighted>
-10.0419

> <Gold.Chemscore.Internal_Hbond.Weighted>
0.0000

> <Gold.Chemscore.DEClash.Weighted>
0.4749

> <Gold.Chemscore.DEInternal.Weighted>
1.6226

> <Gold.Chemscore.Rot.Weighted>
5.7479

> <Gold.Chemscore.Internal.Correction.Weighted>
   9.000000E+99

> <Gold.Protein.RotatedTorsions>
[ 6907 6896 6895 6894 ] final -132.80 input  -60.11 | X-H torsion
[ 7974 7965 7964 7962 ] final   86.28 input  175.53 | X-H torsion
[ 8008 7997 7996 7995 ] final   46.51 input   59.86 | X-H torsion
[ 10167 10162 10161 10158 ] final  -51.42 input  -65.29 | X-H torsion
[ 10718 10713 10712 10709 ] final   77.73 input   66.30 | X-H torsion
[ 10763 10752 10751 10750 ] final  -42.02 input  -60.55 | X-H torsion
[ 11005 11000 10999 10996 ] final  -15.21 input  -57.11 | X-H torsion

> <Gold.Protein.ActiveResidues>
 VAL166  LYS551  ARG553  GLY616  TRP617  ASP618  TYR619  PRO620  LYS621  CYS622 
 ASP623  PHE694  ASN695  SER759  ASP760  ASP761  ALA762  ILE779  LEU786  VAL792 
 PHE793  MET794  SER795  GLU796  ALA797  LYS798  CYS799  TRP800  GLU811  SER814 

> <Gold.Protein.RotatedAtoms>
  150.9666  133.6388  159.2744 H   0  0  0  0  0  0  0  0  0  0  0  0  # atno 6907 bound_to 6896
  151.3691  135.0918  159.9469 H   0  0  0  0  0  0  0  0  0  0  0  0  # atno 6908 bound_to 6896
  152.5168  133.9224  159.7595 H   0  0  0  0  0  0  0  0  0  0  0  0  # atno 6909 bound_to 6896
  145.5743  139.2317  143.2388 H   0  0  0  0  0  0  0  0  0  0  0  0  # atno 7974 bound_to 7965
  155.3537  140.3415  155.4239 H   0  0  0  0  0  0  0  0  0  0  0  0  # atno 8008 bound_to 7997
  156.1750  140.1644  156.8413 H   0  0  0  0  0  0  0  0  0  0  0  0  # atno 8009 bound_to 7997
  154.5273  140.0753  156.8264 H   0  0  0  0  0  0  0  0  0  0  0  0  # atno 8010 bound_to 7997
  140.6589  143.2620  151.4501 H   0  0  0  0  0  0  0  0  0  0  0  0  # atno 10167 bound_to 10162
  157.6721  130.9835  150.1684 H   0  0  0  0  0  0  0  0  0  0  0  0  # atno 10718 bound_to 10713
  153.9721  135.6727  153.4747 H   0  0  0  0  0  0  0  0  0  0  0  0  # atno 10763 bound_to 10752
  153.0788  135.4934  154.8457 H   0  0  0  0  0  0  0  0  0  0  0  0  # atno 10764 bound_to 10752
  154.7213  135.3118  154.9003 H   0  0  0  0  0  0  0  0  0  0  0  0  # atno 10765 bound_to 10752
  140.7943  133.8263  155.9409 H   0  0  0  0  0  0  0  0  0  0  0  0  # atno 11005 bound_to 11000
  146.1762  140.6570  142.9210 LP  0  0  0  0  0  0  0  0  0  0  0  0  # atno 17320 bound_to 7965
  144.7423  140.4975  143.6860 LP  0  0  0  0  0  0  0  0  0  0  0  0  # atno 17321 bound_to 7965
  139.5818  144.1693  152.1978 LP  0  0  0  0  0  0  0  0  0  0  0  0  # atno 17342 bound_to 10162
  140.1020  144.5531  150.6982 LP  0  0  0  0  0  0  0  0  0  0  0  0  # atno 17343 bound_to 10162
  156.2444  130.3694  149.8301 LP  0  0  0  0  0  0  0  0  0  0  0  0  # atno 17370 bound_to 10713
  156.6092  130.8579  151.3450 LP  0  0  0  0  0  0  0  0  0  0  0  0  # atno 17371 bound_to 10713
  140.9358  134.1963  157.4832 LP  0  0  0  0  0  0  0  0  0  0  0  0  # atno 17394 bound_to 11000
  139.8728  134.9852  156.5270 LP  0  0  0  0  0  0  0  0  0  0  0  0  # atno 17395 bound_to 11000

$$$$
