AV-unprocessed.smi:1971|AV-procd|sdf|7967|dock9
  -GOLD-   2272010143D 1   1.00000     0.00000
 Structure written by MMmdl.
 43 44  0  0  0  0  0  0  0  0  1 V2000
  151.3866  144.2692  158.4926 C   0  0  0  0  0  0  0  0  0  0  0  0
  151.5520  142.7887  158.8639 C   0  0  0  0  0  0  0  0  0  0  0  0
  150.9050  141.8478  157.9511 N   0  0  0  0  0  0  0  0  0  0  0  0
  151.0090  142.3096  156.5689 C   0  0  0  0  0  0  0  0  0  0  0  0
  150.3243  141.3401  155.5887 C   0  0  0  0  0  0  0  0  0  0  0  0
  150.9048  139.9923  155.6510 N   0  0  0  0  0  0  0  0  0  0  0  0
  150.2733  139.0547  154.6976 C   0  0  1  0  0  0  0  0  0  0  0  0
  151.0524  137.7304  154.5323 C   0  0  0  0  0  0  0  0  0  0  0  0
  148.8042  138.7056  155.0421 C   0  0  0  0  0  0  0  0  0  0  0  0
  148.2232  137.7986  154.0588 N   0  0  0  0  0  0  0  0  0  0  0  0
  146.9749  137.3185  154.1122 C   0  0  0  0  0  0  0  0  0  0  0  0
  146.1709  137.6180  154.9956 O   0  0  0  0  0  0  0  0  0  0  0  0
  146.7340  136.4777  153.0912 N   0  0  0  0  0  0  0  0  0  0  0  0
  145.5412  135.7645  152.8033 C   0  0  0  0  0  0  0  0  0  0  0  0
  144.7648  135.1872  153.7277 N   0  0  0  0  0  0  0  0  0  0  0  0
  143.6548  134.5561  153.1602 C   0  0  0  0  0  0  0  0  0  0  0  0
  143.6022  134.6628  151.7927 C   0  0  0  0  0  0  0  0  0  0  0  0
  144.9506  135.5688  151.1597 S   0  0  0  0  0  0  0  0  0  0  0  0
  150.8039  139.5359  157.0442 C   0  0  0  0  0  0  0  0  0  0  0  0
  151.4874  140.5076  158.0239 C   0  0  0  0  0  0  0  0  0  0  0  0
  151.9750  144.8987  159.1603 H   0  0  0  0  0  0  0  0  0  0  0  0
  150.3501  144.5967  158.5707 H   0  0  0  0  0  0  0  0  0  0  0  0
  151.7264  144.4598  157.4744 H   0  0  0  0  0  0  0  0  0  0  0  0
  152.6215  142.5759  158.8878 H   0  0  0  0  0  0  0  0  0  0  0  0
  151.1920  142.6265  159.8810 H   0  0  0  0  0  0  0  0  0  0  0  0
  150.5497  143.2941  156.4749 H   0  0  0  0  0  0  0  0  0  0  0  0
  152.0578  142.4282  156.2915 H   0  0  0  0  0  0  0  0  0  0  0  0
  149.2539  141.2980  155.7968 H   0  0  0  0  0  0  0  0  0  0  0  0
  150.4352  141.7580  154.5897 H   0  0  0  0  0  0  0  0  0  0  0  0
  150.2565  139.5315  153.7163 H   0  0  0  0  0  0  0  0  0  0  0  0
  150.5036  137.0243  153.9085 H   0  0  0  0  0  0  0  0  0  0  0  0
  151.2320  137.2484  155.4939 H   0  0  0  0  0  0  0  0  0  0  0  0
  152.0151  137.8784  154.0442 H   0  0  0  0  0  0  0  0  0  0  0  0
  148.7278  138.2631  156.0355 H   0  0  0  0  0  0  0  0  0  0  0  0
  148.2047  139.6164  155.0870 H   0  0  0  0  0  0  0  0  0  0  0  0
  148.8241  137.5017  153.3036 H   0  0  0  0  0  0  0  0  0  0  0  0
  147.4974  136.3220  152.4495 H   0  0  0  0  0  0  0  0  0  0  0  0
  142.9500  134.0534  153.8056 H   0  0  0  0  0  0  0  0  0  0  0  0
  142.8546  134.2660  151.1222 H   0  0  0  0  0  0  0  0  0  0  0  0
  149.7565  139.4072  157.3217 H   0  0  0  0  0  0  0  0  0  0  0  0
  151.2822  138.5653  157.1644 H   0  0  0  0  0  0  0  0  0  0  0  0
  152.5566  140.5504  157.8106 H   0  0  0  0  0  0  0  0  0  0  0  0
  151.3859  140.1079  159.0325 H   0  0  0  0  0  0  0  0  0  0  0  0
  1  2  1  0  0  0  0
  1 21  1  0  0  0  0
  1 22  1  0  0  0  0
  1 23  1  0  0  0  0
  2  3  1  0  0  0  0
  2 24  1  0  0  0  0
  2 25  1  0  0  0  0
  3 20  1  0  0  0  0
  3  4  1  0  0  0  0
  4  5  1  0  0  0  0
  4 26  1  0  0  0  0
  4 27  1  0  0  0  0
  5  6  1  0  0  0  0
  5 28  1  0  0  0  0
  5 29  1  0  0  0  0
  6  7  1  0  0  0  0
  6 19  1  0  0  0  0
  7  8  1  0  0  0  0
  7  9  1  0  0  0  0
  7 30  1  0  0  0  0
  8 31  1  0  0  0  0
  8 32  1  0  0  0  0
  8 33  1  0  0  0  0
  9 10  1  0  0  0  0
  9 34  1  0  0  0  0
  9 35  1  0  0  0  0
 10 11  1  0  0  0  0
 10 36  1  0  0  0  0
 11 12  2  0  0  0  0
 11 13  1  0  0  0  0
 13 14  1  0  0  0  0
 13 37  1  0  0  0  0
 14 18  1  0  0  0  0
 14 15  2  0  0  0  0
 15 16  1  0  0  0  0
 16 17  2  0  0  0  0
 16 38  1  0  0  0  0
 17 18  1  0  0  0  0
 17 39  1  0  0  0  0
 19 20  1  0  0  0  0
 19 40  1  0  0  0  0
 19 41  1  0  0  0  0
 20 42  1  0  0  0  0
 20 43  1  0  0  0  0
M  END
> <s_m_source_file>
AV-unprocessed.smi

> <i_m_source_file_index>
1971

> <i_lp_mmshare_version>
43012

> <i_f3d_flags>
0

> <s_epik_input>
W0NIM11bQ0gyXU4xW0NIMl1bQ0gyXU4oW0NIMl1bQ0gyXTEpW0NASF0oW0NIM10pW0NIMl1bTkhdQyg9TylbTkhdYzJuW2NIXVtjSF1zMg==

> <s_epik_cmdline>
J2VwaWtfcHl0aG9uJywgJy1waCcsICc3LjAnLCAnLXRuJywgJzgnLCAnLW1hJywgJzIwMCcsICctbWV0YWxfYmluZGluZycsICctaW1hZScsICc8aW5maWxlLm1hZT4nLCAnLW9tYWUnLCAnPG91dGZpbGUubWFlPic=

> <r_lp_tautomer_probability>
0.999

> <r_epik_Ionization_Penalty>
2.43994

> <r_epik_Ionization_Penalty_Charging>
0

> <r_epik_Ionization_Penalty_Neutral>
2.43994

> <r_epik_State_Penalty>
1.7682

> <r_epik_Charging_Adjusted_Penalty>
1.7682

> <i_epik_Tot_Q>
0

> <i_epik_Tot_abs_Q>
0

> <r_epik_Metal_State_Penalty>
1.80147

> <b_epik_Metal_Only>
0

> <s_lp_Force_Field>
OPLS_2005

> <r_lp_Energy>
42.8393

> <b_lp_Chiralities_Consistent>
1

> <s_lp_Variant>
AV-unprocessed.smi:1971-6

> <Gold.Version>
5.8.1

> <Gold.Id.Protein>
6NUR|6NUR_protein|mol2

> <Gold.PLP.Fitness>
40.7242

> <Gold.PLP.PLP>
-30.3009

> <Gold.PLP.part.hbond>
-2.0000

> <Gold.PLP.part.metal>
0.0000

> <Gold.PLP.part.buried>
-5.2176

> <Gold.PLP.part.nonpolar>
-24.3215

> <Gold.PLP.part.repulsive>
0.1749

> <Gold.PLP.ligand.clash>
0.0000

> <Gold.PLP.ligand.torsion>
0.6346

> <Gold.PLP.Chemscore.Hbond>
1.8800

> <Gold.PLP.Chemscore.CHOScore>
1.9996

> <Gold.PLP.Chemscore.Metal>
0.0000

> <Gold.Chemscore.Hbonds>
donor molecule, donor type, donor heavy atom, donor atom, acceptor molecule, acceptor atom, score
      L1  H    10    36       P1  7948  0.88
      L1  H    13    37       P1  7948  1.00
      L1  C    16    38       P1 10957  1.00
      L1  C    17    39       P1 10186  1.00

> <Gold.PLP.Chemscore.Internal.Correction>
0.0537

> <Gold.Rescore>
     Score         DG    S(hbond)    S(metal)    S(lipo)     H(rot)  DE(clash)    DE(int)     intcor
     16.16     -16.84       1.92        0.00      80.64       1.75       0.01       0.67       ----

> <Gold.Chemscore.Fitness>
16.1576

> <Gold.Chemscore.DG>
-16.8409

> <Gold.Chemscore.ZeroCoef>
-5.4800

> <Gold.Chemscore.Hbond>
1.9160

> <Gold.Chemscore.Metal>
0.0000

> <Gold.Chemscore.Lipo>
80.6376

> <Gold.Chemscore.Internal_Hbond>
0.0000

> <Gold.Chemscore.DEClash>
0.0108

> <Gold.Chemscore.DEInternal>
0.6726

> <Gold.Chemscore.Rot>
1.7473

> <Gold.Chemscore.Internal.Correction>
   9.000000E+99

> <Gold.Chemscore.Hbonds>
donor molecule, donor type, donor heavy atom, donor atom, acceptor molecule, acceptor atom, score
      L1  H    10    36       P1  7948  0.86
      L1  H    13    37       P1  7948  0.96

> <Gold.Chemscore.Hbond.Weighted>
-6.3994

> <Gold.Chemscore.Metal.Weighted>
-0.0000

> <Gold.Chemscore.Lipo.Weighted>
-9.4346

> <Gold.Chemscore.Internal_Hbond.Weighted>
0.0000

> <Gold.Chemscore.DEClash.Weighted>
0.0108

> <Gold.Chemscore.DEInternal.Weighted>
0.6726

> <Gold.Chemscore.Rot.Weighted>
4.4731

> <Gold.Chemscore.Internal.Correction.Weighted>
   9.000000E+99

> <Gold.Protein.RotatedTorsions>
[ 6907 6896 6895 6894 ] final  176.37 input  -60.11 | X-H torsion
[ 7974 7965 7964 7962 ] final  -40.76 input  175.53 | X-H torsion
[ 8008 7997 7996 7995 ] final  111.81 input   59.86 | X-H torsion
[ 10167 10162 10161 10158 ] final  -14.89 input  -65.29 | X-H torsion
[ 10718 10713 10712 10709 ] final  -34.05 input   66.30 | X-H torsion
[ 10763 10752 10751 10750 ] final   57.58 input  -60.55 | X-H torsion
[ 11005 11000 10999 10996 ] final   -2.70 input  -57.11 | X-H torsion

> <Gold.Protein.ActiveResidues>
 VAL166  LYS551  ARG553  GLY616  TRP617  ASP618  TYR619  PRO620  LYS621  CYS622 
 ASP623  PHE694  ASN695  SER759  ASP760  ASP761  ALA762  ILE779  LEU786  VAL792 
 PHE793  MET794  SER795  GLU796  ALA797  LYS798  CYS799  TRP800  GLU811  SER814 

> <Gold.Protein.RotatedAtoms>
  151.7212  133.3314  159.3315 H   0  0  0  0  0  0  0  0  0  0  0  0  # atno 6907 bound_to 6896
  150.7652  134.6447  159.6265 H   0  0  0  0  0  0  0  0  0  0  0  0  # atno 6908 bound_to 6896
  152.3651  134.6818  160.0246 H   0  0  0  0  0  0  0  0  0  0  0  0  # atno 6909 bound_to 6896
  146.0274  140.6774  142.9149 H   0  0  0  0  0  0  0  0  0  0  0  0  # atno 7974 bound_to 7965
  156.2149  140.3012  155.9818 H   0  0  0  0  0  0  0  0  0  0  0  0  # atno 8008 bound_to 7997
  155.2629  140.0430  157.3016 H   0  0  0  0  0  0  0  0  0  0  0  0  # atno 8009 bound_to 7997
  154.5754  140.2360  155.8139 H   0  0  0  0  0  0  0  0  0  0  0  0  # atno 8010 bound_to 7997
  140.7209  143.5275  150.9560 H   0  0  0  0  0  0  0  0  0  0  0  0  # atno 10167 bound_to 10162
  156.3553  130.4315  149.7670 H   0  0  0  0  0  0  0  0  0  0  0  0  # atno 10718 bound_to 10713
  152.9853  135.5636  154.5414 H   0  0  0  0  0  0  0  0  0  0  0  0  # atno 10763 bound_to 10752
  154.4868  135.2791  155.1530 H   0  0  0  0  0  0  0  0  0  0  0  0  # atno 10764 bound_to 10752
  154.3016  135.6306  153.5480 H   0  0  0  0  0  0  0  0  0  0  0  0  # atno 10765 bound_to 10752
  140.6613  133.9318  155.8438 H   0  0  0  0  0  0  0  0  0  0  0  0  # atno 11005 bound_to 11000
  144.7015  140.3675  143.7152 LP  0  0  0  0  0  0  0  0  0  0  0  0  # atno 17320 bound_to 7965
  145.7095  139.1681  143.2547 LP  0  0  0  0  0  0  0  0  0  0  0  0  # atno 17321 bound_to 7965
  139.8994  143.6854  152.3133 LP  0  0  0  0  0  0  0  0  0  0  0  0  # atno 17342 bound_to 10162
  139.7198  144.7605  151.0973 LP  0  0  0  0  0  0  0  0  0  0  0  0  # atno 17343 bound_to 10162
  156.4855  130.8061  151.3073 LP  0  0  0  0  0  0  0  0  0  0  0  0  # atno 17370 bound_to 10713
  157.7466  130.9992  150.2881 LP  0  0  0  0  0  0  0  0  0  0  0  0  # atno 17371 bound_to 10713
  141.0463  134.0549  157.3840 LP  0  0  0  0  0  0  0  0  0  0  0  0  # atno 17394 bound_to 11000
  139.9012  135.0165  156.7277 LP  0  0  0  0  0  0  0  0  0  0  0  0  # atno 17395 bound_to 11000

$$$$
