AV-unprocessed.smi:814|AV-procd|sdf|3821|dock9
  -GOLD-   22720 1263D 1   1.00000     0.00000
 Structure written by MMmdl.
 37 38  0  0  0  0  0  0  0  0  2 V2000
  147.2527  141.5453  154.1881 C   0  0  0  0  0  0  0  0  0  0  0  0
  147.2950  140.2930  153.4303 N   0  0  0  0  0  0  0  0  0  0  0  0
  146.5068  139.9596  152.3584 C   0  0  0  0  0  0  0  0  0  0  0  0
  146.8864  138.7022  151.9674 C   0  0  0  0  0  0  0  0  0  0  0  0
  147.8887  138.3196  152.8168 N   0  3  0  0  0  0  0  0  0  0  0  0
  148.1427  139.2879  153.7050 C   0  0  0  0  0  0  0  0  0  0  0  0
  149.1659  139.2157  154.7944 C   0  0  0  0  0  0  0  0  0  0  0  0
  150.2263  140.3230  154.6861 C   0  0  0  0  0  0  0  0  0  0  0  0
  150.4767  140.9516  155.9770 N   0  0  0  0  0  0  0  0  0  0  0  0
  151.5457  140.7132  156.7526 C   0  0  0  0  0  0  0  0  0  0  0  0
  152.4453  139.9337  156.4364 O   0  0  0  0  0  0  0  0  0  0  0  0
  151.6056  141.4653  158.0888 C   0  0  2  0  0  0  0  0  0  0  0  0
  151.5414  142.9961  157.8791 C   0  0  0  0  0  0  0  0  0  0  0  0
  151.8538  143.7618  159.1531 C   0  0  0  0  0  0  0  0  0  0  0  0
  152.4410  143.2038  160.2257 C   0  0  0  0  0  0  0  0  0  0  0  0
  152.8641  141.7466  160.2830 C   0  0  0  0  0  0  0  0  0  0  0  0
  152.8662  141.0859  158.8912 C   0  0  0  0  0  0  0  0  0  0  0  0
  146.4625  142.1848  153.7932 H   0  0  0  0  0  0  0  0  0  0  0  0
  148.2105  142.0576  154.0943 H   0  0  0  0  0  0  0  0  0  0  0  0
  147.0488  141.3292  155.2369 H   0  0  0  0  0  0  0  0  0  0  0  0
  145.7521  140.6243  151.9628 H   0  0  0  0  0  0  0  0  0  0  0  0
  146.5275  138.0668  151.1706 H   0  0  0  0  0  0  0  0  0  0  0  0
  148.6238  139.2846  155.7384 H   0  0  0  0  0  0  0  0  0  0  0  0
  149.6215  138.2259  154.7568 H   0  0  0  0  0  0  0  0  0  0  0  0
  151.1671  139.9095  154.3231 H   0  0  0  0  0  0  0  0  0  0  0  0
  149.9194  141.0768  153.9588 H   0  0  0  0  0  0  0  0  0  0  0  0
  149.7829  141.6048  156.3121 H   0  0  0  0  0  0  0  0  0  0  0  0
  150.7377  141.1711  158.6824 H   0  0  0  0  0  0  0  0  0  0  0  0
  152.2446  143.3235  157.1121 H   0  0  0  0  0  0  0  0  0  0  0  0
  150.5451  143.2805  157.5380 H   0  0  0  0  0  0  0  0  0  0  0  0
  151.5925  144.8098  159.1687 H   0  0  0  0  0  0  0  0  0  0  0  0
  152.6245  143.7993  161.1081 H   0  0  0  0  0  0  0  0  0  0  0  0
  153.8563  141.6762  160.7294 H   0  0  0  0  0  0  0  0  0  0  0  0
  152.1782  141.2219  160.9486 H   0  0  0  0  0  0  0  0  0  0  0  0
  152.9465  140.0033  158.9999 H   0  0  0  0  0  0  0  0  0  0  0  0
  153.7556  141.4069  158.3460 H   0  0  0  0  0  0  0  0  0  0  0  0
  148.3716  137.4305  152.7819 H   0  0  0  0  0  0  0  0  0  0  0  0
  1  2  1  0  0  0  0
  1 18  1  0  0  0  0
  1 19  1  0  0  0  0
  1 20  1  0  0  0  0
  2  6  1  0  0  0  0
  2  3  1  0  0  0  0
  3  4  2  0  0  0  0
  3 21  1  0  0  0  0
  4  5  1  0  0  0  0
  4 22  1  0  0  0  0
  5  6  2  0  0  0  0
  5 37  1  0  0  0  0
  6  7  1  0  0  0  0
  7  8  1  0  0  0  0
  7 23  1  0  0  0  0
  7 24  1  0  0  0  0
  8  9  1  0  0  0  0
  8 25  1  0  0  0  0
  8 26  1  0  0  0  0
  9 10  1  0  0  0  0
  9 27  1  0  0  0  0
 10 11  2  0  0  0  0
 10 12  1  0  0  0  0
 12 17  1  0  0  0  0
 12 13  1  0  0  0  0
 12 28  1  0  0  0  0
 13 14  1  0  0  0  0
 13 29  1  0  0  0  0
 13 30  1  0  0  0  0
 14 15  2  0  0  0  0
 14 31  1  0  0  0  0
 15 16  1  0  0  0  0
 15 32  1  0  0  0  0
 16 17  1  0  0  0  0
 16 33  1  0  0  0  0
 16 34  1  0  0  0  0
 17 35  1  0  0  0  0
 17 36  1  0  0  0  0
M  CHG  1   5   1
M  END
> <s_m_source_file>
AV-unprocessed.smi

> <i_m_source_file_index>
814

> <i_lp_mmshare_version>
43012

> <i_f3d_flags>
0

> <s_epik_input>
W0NIM11uMVtjSF1bY0hdbmMxW0NIMl1bQ0gyXVtOSF1DKD1PKVtDQEBIXTJbQ0gyXVtDSF09W0NIXVtDSDJdW0NIMl0y

> <s_epik_cmdline>
J2VwaWtfcHl0aG9uJywgJy1waCcsICc3LjAnLCAnLXRuJywgJzgnLCAnLW1hJywgJzIwMCcsICctbWV0YWxfYmluZGluZycsICctaW1hZScsICc8aW5maWxlLm1hZT4nLCAnLW9tYWUnLCAnPG91dGZpbGUubWFlPic=

> <r_lp_tautomer_probability>
1

> <r_epik_Ionization_Penalty>
0.0819619

> <r_epik_Ionization_Penalty_Charging>
0

> <r_epik_Ionization_Penalty_Neutral>
0.0819619

> <r_epik_State_Penalty>
0.0726933

> <r_epik_Charging_Adjusted_Penalty>
0.0726933

> <i_epik_Tot_Q>
1

> <i_epik_Tot_abs_Q>
1

> <r_epik_Metal_State_Penalty>
0.411758

> <b_epik_Metal_Only>
0

> <s_lp_Force_Field>
OPLS_2005

> <r_lp_Energy>
9.54254

> <b_lp_Chiralities_Consistent>
1

> <s_lp_Variant>
AV-unprocessed.smi:814-1

> <Gold.Version>
5.8.1

> <Gold.Id.Protein>
6NUR|6NUR_protein|mol2

> <Gold.PLP.Fitness>
45.9956

> <Gold.PLP.PLP>
-36.9996

> <Gold.PLP.part.hbond>
-3.0000

> <Gold.PLP.part.metal>
0.0000

> <Gold.PLP.part.buried>
3.5033

> <Gold.PLP.part.nonpolar>
-37.8731

> <Gold.PLP.part.repulsive>
0.1650

> <Gold.PLP.ligand.clash>
0.0000

> <Gold.PLP.ligand.torsion>
0.4468

> <Gold.PLP.Chemscore.Hbond>
2.9840

> <Gold.PLP.Chemscore.CHOScore>
0.3072

> <Gold.PLP.Chemscore.Metal>
0.0000

> <Gold.Chemscore.Hbonds>
donor molecule, donor type, donor heavy atom, donor atom, acceptor molecule, acceptor atom, score
      L1  H     5    37       P1  7948  1.86
      P1  H  7997  8008       L1    11  1.00
      L1  C     3    21       P1 10175  0.60

> <Gold.PLP.Chemscore.Internal.Correction>
0.0158

> <Gold.Rescore>
     Score         DG    S(hbond)    S(metal)    S(lipo)     H(rot)  DE(clash)    DE(int)     intcor
     16.83     -18.19       1.81        0.00      93.17       1.65       0.83       0.53       ----

> <Gold.Chemscore.Fitness>
16.8321

> <Gold.Chemscore.DG>
-18.1880

> <Gold.Chemscore.ZeroCoef>
-5.4800

> <Gold.Chemscore.Hbond>
1.8071

> <Gold.Chemscore.Metal>
0.0000

> <Gold.Chemscore.Lipo>
93.1708

> <Gold.Chemscore.Internal_Hbond>
0.0000

> <Gold.Chemscore.DEClash>
0.8271

> <Gold.Chemscore.DEInternal>
0.5287

> <Gold.Chemscore.Rot>
1.6518

> <Gold.Chemscore.Internal.Correction>
   9.000000E+99

> <Gold.Chemscore.Hbonds>
donor molecule, donor type, donor heavy atom, donor atom, acceptor molecule, acceptor atom, score
      L1  H     5    37       P1  7948  0.89
      P1  H  7997  8008       L1    11  1.00

> <Gold.Chemscore.Hbond.Weighted>
-6.0357

> <Gold.Chemscore.Metal.Weighted>
-0.0000

> <Gold.Chemscore.Lipo.Weighted>
-10.9010

> <Gold.Chemscore.Internal_Hbond.Weighted>
0.0000

> <Gold.Chemscore.DEClash.Weighted>
0.8271

> <Gold.Chemscore.DEInternal.Weighted>
0.5287

> <Gold.Chemscore.Rot.Weighted>
4.2287

> <Gold.Chemscore.Internal.Correction.Weighted>
   9.000000E+99

> <Gold.Protein.RotatedTorsions>
[ 6907 6896 6895 6894 ] final   92.86 input  -60.11 | X-H torsion
[ 7974 7965 7964 7962 ] final   14.22 input  175.53 | X-H torsion
[ 8008 7997 7996 7995 ] final  -42.69 input   59.86 | X-H torsion
[ 10167 10162 10161 10158 ] final    7.57 input  -65.29 | X-H torsion
[ 10718 10713 10712 10709 ] final   46.68 input   66.30 | X-H torsion
[ 10763 10752 10751 10750 ] final  176.28 input  -60.55 | X-H torsion
[ 11005 11000 10999 10996 ] final    0.03 input  -57.11 | X-H torsion

> <Gold.Protein.ActiveResidues>
 VAL166  LYS551  ARG553  GLY616  TRP617  ASP618  TYR619  PRO620  LYS621  CYS622 
 ASP623  PHE694  ASN695  SER759  ASP760  ASP761  ALA762  ILE779  LEU786  VAL792 
 PHE793  MET794  SER795  GLU796  ALA797  LYS798  CYS799  TRP800  GLU811  SER814 

> <Gold.Protein.RotatedAtoms>
  152.5453  134.1437  159.8489 H   0  0  0  0  0  0  0  0  0  0  0  0  # atno 6907 bound_to 6896
  151.1471  133.4925  159.2603 H   0  0  0  0  0  0  0  0  0  0  0  0  # atno 6908 bound_to 6896
  151.1512  135.0238  159.8724 H   0  0  0  0  0  0  0  0  0  0  0  0  # atno 6909 bound_to 6896
  146.2310  139.9073  142.8530 H   0  0  0  0  0  0  0  0  0  0  0  0  # atno 7974 bound_to 7965
  154.3998  140.1467  156.3396 H   0  0  0  0  0  0  0  0  0  0  0  0  # atno 8008 bound_to 7997
  155.8369  140.3463  155.5586 H   0  0  0  0  0  0  0  0  0  0  0  0  # atno 8009 bound_to 7997
  155.8129  140.0886  157.1884 H   0  0  0  0  0  0  0  0  0  0  0  0  # atno 8010 bound_to 7997
  140.6364  143.7876  150.7366 H   0  0  0  0  0  0  0  0  0  0  0  0  # atno 10167 bound_to 10162
  157.4507  130.8136  149.7785 H   0  0  0  0  0  0  0  0  0  0  0  0  # atno 10718 bound_to 10713
  154.4790  135.2774  155.1585 H   0  0  0  0  0  0  0  0  0  0  0  0  # atno 10763 bound_to 10752
  154.3303  135.6191  153.5552 H   0  0  0  0  0  0  0  0  0  0  0  0  # atno 10764 bound_to 10752
  152.9873  135.5764  154.5187 H   0  0  0  0  0  0  0  0  0  0  0  0  # atno 10765 bound_to 10752
  140.6311  133.9574  155.8275 H   0  0  0  0  0  0  0  0  0  0  0  0  # atno 11005 bound_to 11000
  145.2264  140.9955  143.4016 LP  0  0  0  0  0  0  0  0  0  0  0  0  # atno 17320 bound_to 7965
  144.9567  139.4024  143.6376 LP  0  0  0  0  0  0  0  0  0  0  0  0  # atno 17321 bound_to 7965
  140.1498  143.4367  152.2139 LP  0  0  0  0  0  0  0  0  0  0  0  0  # atno 17342 bound_to 10162
  139.5574  144.7382  151.4253 LP  0  0  0  0  0  0  0  0  0  0  0  0  # atno 17343 bound_to 10162
  155.9986  130.3893  150.2696 LP  0  0  0  0  0  0  0  0  0  0  0  0  # atno 17370 bound_to 10713
  157.0868  131.0158  151.3136 LP  0  0  0  0  0  0  0  0  0  0  0  0  # atno 17371 bound_to 10713
  141.0675  134.0255  157.3574 LP  0  0  0  0  0  0  0  0  0  0  0  0  # atno 17394 bound_to 11000
  139.9116  135.0191  156.7713 LP  0  0  0  0  0  0  0  0  0  0  0  0  # atno 17395 bound_to 11000

$$$$
