AV-unprocessed.smi:480|AV-procd|sdf|2677|dock6
  -GOLD-   2262023103D 1   1.00000     0.00000
 Structure written by MMmdl.
 46 48  0  0  0  0  0  0  0  0  1 V2000
  152.6364  138.3663  154.8305 C   0  0  0  0  0  0  0  0  0  0  0  0
  151.3948  138.4924  155.7206 C   0  0  0  0  0  0  0  0  0  0  0  0
  151.4053  139.7398  156.5522 C   0  0  0  0  0  0  0  0  0  0  0  0
  152.4628  140.0768  157.2916 N   0  0  0  0  0  0  0  0  0  0  0  0
  152.0683  141.2710  157.8622 C   0  0  0  0  0  0  0  0  0  0  0  0
  152.7464  142.1311  158.7554 C   0  0  0  0  0  0  0  0  0  0  0  0
  152.1338  143.3188  159.2060 C   0  0  0  0  0  0  0  0  0  0  0  0
  150.8377  143.6631  158.7707 C   0  0  0  0  0  0  0  0  0  0  0  0
  150.1445  142.8198  157.8812 C   0  0  0  0  0  0  0  0  0  0  0  0
  150.7600  141.6347  157.4356 C   0  0  0  0  0  0  0  0  0  0  0  0
  150.3641  140.6112  156.5806 N   0  0  0  0  0  0  0  0  0  0  0  0
  149.0914  140.5382  155.8746 C   0  0  0  0  0  0  0  0  0  0  0  0
  149.0105  141.5095  154.6789 C   0  0  1  0  0  0  0  0  0  0  0  0
  149.7308  140.9209  153.6158 O   0  0  0  0  0  0  0  0  0  0  0  0
  147.5767  141.7903  154.1946 C   0  0  0  0  0  0  0  0  0  0  0  0
  146.8554  142.4135  155.2486 O   0  0  0  0  0  0  0  0  0  0  0  0
  146.0264  143.4697  154.9367 C   0  0  0  0  0  0  0  0  0  0  0  0
  145.3774  144.1116  156.0114 C   0  0  0  0  0  0  0  0  0  0  0  0
  144.5160  145.2022  155.7867 C   0  0  0  0  0  0  0  0  0  0  0  0
  144.2904  145.6652  154.4760 C   0  0  0  0  0  0  0  0  0  0  0  0
  143.3689  146.8424  154.2346 C   0  0  0  0  0  0  0  0  0  0  0  0
  142.1032  146.4304  153.6092 C   0  0  0  0  0  0  0  0  0  0  0  0
  141.1074  146.1060  153.1172 N   0  0  0  0  0  0  0  0  0  0  0  0
  144.9305  145.0300  153.3937 C   0  0  0  0  0  0  0  0  0  0  0  0
  145.7928  143.9394  153.6194 C   0  0  0  0  0  0  0  0  0  0  0  0
  152.6043  137.4462  154.2469 H   0  0  0  0  0  0  0  0  0  0  0  0
  153.5480  138.3501  155.4287 H   0  0  0  0  0  0  0  0  0  0  0  0
  152.7089  139.2008  154.1328 H   0  0  0  0  0  0  0  0  0  0  0  0
  150.4878  138.4516  155.1184 H   0  0  0  0  0  0  0  0  0  0  0  0
  151.3432  137.6322  156.3890 H   0  0  0  0  0  0  0  0  0  0  0  0
  153.7401  141.8771  159.0938 H   0  0  0  0  0  0  0  0  0  0  0  0
  152.6617  143.9694  159.8879 H   0  0  0  0  0  0  0  0  0  0  0  0
  150.3760  144.5752  159.1193 H   0  0  0  0  0  0  0  0  0  0  0  0
  149.1520  143.0806  157.5453 H   0  0  0  0  0  0  0  0  0  0  0  0
  148.9655  139.5124  155.5253 H   0  0  0  0  0  0  0  0  0  0  0  0
  148.2719  140.7157  156.5702 H   0  0  0  0  0  0  0  0  0  0  0  0
  149.4941  142.4489  154.9502 H   0  0  0  0  0  0  0  0  0  0  0  0
  150.2640  140.2240  153.9672 H   0  0  0  0  0  0  0  0  0  0  0  0
  147.5883  142.4051  153.2927 H   0  0  0  0  0  0  0  0  0  0  0  0
  147.0726  140.8539  153.9549 H   0  0  0  0  0  0  0  0  0  0  0  0
  145.5448  143.7656  157.0209 H   0  0  0  0  0  0  0  0  0  0  0  0
  144.0309  145.6845  156.6226 H   0  0  0  0  0  0  0  0  0  0  0  0
  143.1418  147.3452  155.1750 H   0  0  0  0  0  0  0  0  0  0  0  0
  143.8559  147.5684  153.5834 H   0  0  0  0  0  0  0  0  0  0  0  0
  144.7638  145.3795  152.3853 H   0  0  0  0  0  0  0  0  0  0  0  0
  146.2635  143.4805  152.7633 H   0  0  0  0  0  0  0  0  0  0  0  0
  1  2  1  0  0  0  0
  1 26  1  0  0  0  0
  1 27  1  0  0  0  0
  1 28  1  0  0  0  0
  2  3  1  0  0  0  0
  2 29  1  0  0  0  0
  2 30  1  0  0  0  0
  3 11  1  0  0  0  0
  3  4  2  0  0  0  0
  4  5  1  0  0  0  0
  5 10  2  0  0  0  0
  5  6  1  0  0  0  0
  6  7  2  0  0  0  0
  6 31  1  0  0  0  0
  7  8  1  0  0  0  0
  7 32  1  0  0  0  0
  8  9  2  0  0  0  0
  8 33  1  0  0  0  0
  9 10  1  0  0  0  0
  9 34  1  0  0  0  0
 10 11  1  0  0  0  0
 11 12  1  0  0  0  0
 12 13  1  0  0  0  0
 12 35  1  0  0  0  0
 12 36  1  0  0  0  0
 13 14  1  0  0  0  0
 13 15  1  0  0  0  0
 13 37  1  0  0  0  0
 14 38  1  0  0  0  0
 15 16  1  0  0  0  0
 15 39  1  0  0  0  0
 15 40  1  0  0  0  0
 16 17  1  0  0  0  0
 17 25  1  0  0  0  0
 17 18  2  0  0  0  0
 18 19  1  0  0  0  0
 18 41  1  0  0  0  0
 19 20  2  0  0  0  0
 19 42  1  0  0  0  0
 20 21  1  0  0  0  0
 20 24  1  0  0  0  0
 21 22  1  0  0  0  0
 21 43  1  0  0  0  0
 21 44  1  0  0  0  0
 22 23  3  0  0  0  0
 24 25  2  0  0  0  0
 24 45  1  0  0  0  0
 25 46  1  0  0  0  0
M  END
> <s_m_source_file>
AV-unprocessed.smi

> <i_m_source_file_index>
480

> <i_lp_mmshare_version>
43012

> <i_f3d_flags>
0

> <s_epik_input>
W2NIXTFbY0hdW2NIXVtjSF1jKGMxMiluKGMobjIpW0NIMl1bQ0gzXSlbQ0gyXVtDQEhdKFtPSF0pW0NIMl1PYzNbY0hdW2NIXWMoW0NIMl1DI04pW2NIXVtjSF0z

> <s_epik_cmdline>
J2VwaWtfcHl0aG9uJywgJy1waCcsICc3LjAnLCAnLXRuJywgJzgnLCAnLW1hJywgJzIwMCcsICctbWV0YWxfYmluZGluZycsICctaW1hZScsICc8aW5maWxlLm1hZT4nLCAnLW9tYWUnLCAnPG91dGZpbGUubWFlPic=

> <r_lp_tautomer_probability>
1

> <r_epik_Ionization_Penalty>
0.114213

> <r_epik_Ionization_Penalty_Charging>
0

> <r_epik_Ionization_Penalty_Neutral>
0.114213

> <r_epik_State_Penalty>
0.103875

> <r_epik_Charging_Adjusted_Penalty>
0.103875

> <i_epik_Tot_Q>
0

> <i_epik_Tot_abs_Q>
0

> <r_epik_Metal_State_Penalty>
0.000113526

> <b_epik_Metal_Only>
0

> <s_lp_Force_Field>
OPLS_2005

> <r_lp_Energy>
15.7981

> <b_lp_Chiralities_Consistent>
1

> <s_lp_Variant>
AV-unprocessed.smi:480-2

> <Gold.Version>
5.8.1

> <Gold.Id.Protein>
6NUR|6NUR_protein|mol2

> <Gold.PLP.Fitness>
57.1150

> <Gold.PLP.PLP>
-51.3365

> <Gold.PLP.part.hbond>
-5.7783

> <Gold.PLP.part.metal>
0.0000

> <Gold.PLP.part.buried>
-5.2253

> <Gold.PLP.part.nonpolar>
-41.6959

> <Gold.PLP.part.repulsive>
0.2580

> <Gold.PLP.ligand.clash>
0.0000

> <Gold.PLP.ligand.torsion>
0.8569

> <Gold.PLP.Chemscore.Hbond>
2.4515

> <Gold.PLP.Chemscore.CHOScore>
0.0000

> <Gold.PLP.Chemscore.Metal>
0.0000

> <Gold.Chemscore.Hbonds>
donor molecule, donor type, donor heavy atom, donor atom, acceptor molecule, acceptor atom, score
      P1  H  7997  8009       L1     4  1.00
      P1  H  8011  8017       L1    14  1.00

> <Gold.PLP.Chemscore.Internal.Correction>
0.1377

> <Gold.Rescore>
     Score         DG    S(hbond)    S(metal)    S(lipo)     H(rot)  DE(clash)    DE(int)     intcor
     20.24     -21.01       2.29        0.00     123.66       2.58       0.09       0.68       ----

> <Gold.Chemscore.Fitness>
20.2435

> <Gold.Chemscore.DG>
-21.0125

> <Gold.Chemscore.ZeroCoef>
-5.4800

> <Gold.Chemscore.Hbond>
2.2931

> <Gold.Chemscore.Metal>
0.0000

> <Gold.Chemscore.Lipo>
123.6578

> <Gold.Chemscore.Internal_Hbond>
0.0000

> <Gold.Chemscore.DEClash>
0.0879

> <Gold.Chemscore.DEInternal>
0.6811

> <Gold.Chemscore.Rot>
2.5759

> <Gold.Chemscore.Internal.Correction>
   9.000000E+99

> <Gold.Chemscore.Hbonds>
donor molecule, donor type, donor heavy atom, donor atom, acceptor molecule, acceptor atom, score
      P1  H  7997  8009       L1     4  0.79
      P1  H  8011  8017       L1    14  0.28

> <Gold.Chemscore.Hbond.Weighted>
-7.6589

> <Gold.Chemscore.Metal.Weighted>
-0.0000

> <Gold.Chemscore.Lipo.Weighted>
-14.4680

> <Gold.Chemscore.Internal_Hbond.Weighted>
0.0000

> <Gold.Chemscore.DEClash.Weighted>
0.0879

> <Gold.Chemscore.DEInternal.Weighted>
0.6811

> <Gold.Chemscore.Rot.Weighted>
6.5943

> <Gold.Chemscore.Internal.Correction.Weighted>
   9.000000E+99

> <Gold.Protein.RotatedTorsions>
[ 6907 6896 6895 6894 ] final  -35.03 input  -60.11 | X-H torsion
[ 7974 7965 7964 7962 ] final  141.43 input  175.53 | X-H torsion
[ 8008 7997 7996 7995 ] final -177.70 input   59.86 | X-H torsion
[ 10167 10162 10161 10158 ] final -178.10 input  -65.29 | X-H torsion
[ 10718 10713 10712 10709 ] final  149.04 input   66.30 | X-H torsion
[ 10763 10752 10751 10750 ] final   -1.10 input  -60.55 | X-H torsion
[ 11005 11000 10999 10996 ] final  178.93 input  -57.11 | X-H torsion

> <Gold.Protein.ActiveResidues>
 VAL166  LYS551  ARG553  GLY616  TRP617  ASP618  TYR619  PRO620  LYS621  CYS622 
 ASP623  PHE694  ASN695  SER759  ASP760  ASP761  ALA762  ILE779  LEU786  VAL792 
 PHE793  MET794  SER795  GLU796  ALA797  LYS798  CYS799  TRP800  GLU811  SER814 

> <Gold.Protein.RotatedAtoms>
  151.0450  134.9634  159.8181 H   0  0  0  0  0  0  0  0  0  0  0  0  # atno 6907 bound_to 6896
  152.5371  134.2609  159.8945 H   0  0  0  0  0  0  0  0  0  0  0  0  # atno 6908 bound_to 6896
  151.2623  133.4253  159.2650 H   0  0  0  0  0  0  0  0  0  0  0  0  # atno 6909 bound_to 6896
  144.9097  139.5309  143.5714 H   0  0  0  0  0  0  0  0  0  0  0  0  # atno 7974 bound_to 7965
  156.0101  140.1239  157.0462 H   0  0  0  0  0  0  0  0  0  0  0  0  # atno 8008 bound_to 7997
  154.4273  140.1089  156.5887 H   0  0  0  0  0  0  0  0  0  0  0  0  # atno 8009 bound_to 7997
  155.6091  140.3471  155.4619 H   0  0  0  0  0  0  0  0  0  0  0  0  # atno 8010 bound_to 7997
  139.5448  144.2265  152.0967 H   0  0  0  0  0  0  0  0  0  0  0  0  # atno 10167 bound_to 10162
  157.3011  131.0871  151.1389 H   0  0  0  0  0  0  0  0  0  0  0  0  # atno 10718 bound_to 10713
  153.3404  135.6980  153.6871 H   0  0  0  0  0  0  0  0  0  0  0  0  # atno 10763 bound_to 10752
  153.5638  135.3529  155.2811 H   0  0  0  0  0  0  0  0  0  0  0  0  # atno 10764 bound_to 10752
  154.8635  135.4256  154.2616 H   0  0  0  0  0  0  0  0  0  0  0  0  # atno 10765 bound_to 10752
  140.4006  134.6781  157.4559 H   0  0  0  0  0  0  0  0  0  0  0  0  # atno 11005 bound_to 11000
  146.3152  139.7894  142.8989 LP  0  0  0  0  0  0  0  0  0  0  0  0  # atno 17320 bound_to 7965
  145.3475  141.0300  143.3357 LP  0  0  0  0  0  0  0  0  0  0  0  0  # atno 17321 bound_to 7965
  140.1749  144.4900  150.6559 LP  0  0  0  0  0  0  0  0  0  0  0  0  # atno 17342 bound_to 10162
  140.6692  143.2279  151.5667 LP  0  0  0  0  0  0  0  0  0  0  0  0  # atno 17343 bound_to 10162
  157.2748  130.6721  149.6037 LP  0  0  0  0  0  0  0  0  0  0  0  0  # atno 17370 bound_to 10713
  155.9671  130.4468  150.5555 LP  0  0  0  0  0  0  0  0  0  0  0  0  # atno 17371 bound_to 10713
  140.0339  134.6365  155.9069 LP  0  0  0  0  0  0  0  0  0  0  0  0  # atno 17394 bound_to 11000
  141.1858  133.6556  156.5213 LP  0  0  0  0  0  0  0  0  0  0  0  0  # atno 17395 bound_to 11000

$$$$
