AV-unprocessed.smi:102|AV-procd|sdf|970|dock2
  -GOLD-   2262017523D 1   1.00000     0.00000
 Structure written by MMmdl.
 43 44  0  0  0  0  0  0  0  0  2 V2000
  147.4084  135.4607  162.4498 C   0  0  0  0  0  0  0  0  0  0  0  0
  147.6812  136.1932  161.1428 C   0  0  0  0  0  0  0  0  0  0  0  0
  147.3049  137.3522  160.9658 O   0  0  0  0  0  0  0  0  0  0  0  0
  148.3570  135.4333  160.2619 O   0  0  0  0  0  0  0  0  0  0  0  0
  148.1773  135.6190  158.8645 C   0  0  0  0  0  0  0  0  0  0  0  0
  148.4516  137.0767  158.4624 C   0  0  1  0  0  0  0  0  0  0  0  0
  149.5384  137.6002  159.2078 O   0  0  0  0  0  0  0  0  0  0  0  0
  150.0492  138.7041  158.5329 C   0  0  1  0  0  0  0  0  0  0  0  0
  151.5194  138.8414  158.8617 N   0  0  0  0  0  0  0  0  0  0  0  0
  152.0635  140.0768  159.1715 C   0  0  0  0  0  0  0  0  0  0  0  0
  153.3686  140.2045  159.4863 C   0  0  0  0  0  0  0  0  0  0  0  0
  153.8700  141.4156  159.7843 F   0  0  0  0  0  0  0  0  0  0  0  0
  154.2269  139.0210  159.5063 C   0  0  0  0  0  0  0  0  0  0  0  0
  155.4187  139.1450  159.7841 O   0  0  0  0  0  0  0  0  0  0  0  0
  153.6580  137.8148  159.2151 N   0  5  0  0  0  0  0  0  0  0  0  0
  152.3356  137.6794  158.9038 C   0  0  0  0  0  0  0  0  0  0  0  0
  151.8061  136.5936  158.6656 O   0  0  0  0  0  0  0  0  0  0  0  0
  149.7775  138.4898  157.0293 C   0  0  1  0  0  0  0  0  0  0  0  0
  150.9756  138.2979  156.2830 O   0  0  0  0  0  0  0  0  0  0  0  0
  151.4253  139.2591  155.4612 C   0  0  0  0  0  0  0  0  0  0  0  0
  152.6789  138.8347  154.7088 C   0  0  0  0  0  0  0  0  0  0  0  0
  150.9185  140.3688  155.2950 O   0  0  0  0  0  0  0  0  0  0  0  0
  148.9265  137.2244  157.0147 C   0  0  2  0  0  0  0  0  0  0  0  0
  147.8329  137.4094  156.1248 O   0  0  0  0  0  0  0  0  0  0  0  0
  147.0091  138.4614  156.2647 C   0  0  0  0  0  0  0  0  0  0  0  0
  145.9490  138.5161  155.1731 C   0  0  0  0  0  0  0  0  0  0  0  0
  147.0605  139.3124  157.1526 O   0  0  0  0  0  0  0  0  0  0  0  0
  148.3416  135.2770  162.9825 H   0  0  0  0  0  0  0  0  0  0  0  0
  146.9256  134.5030  162.2546 H   0  0  0  0  0  0  0  0  0  0  0  0
  146.7547  136.0520  163.0913 H   0  0  0  0  0  0  0  0  0  0  0  0
  148.7848  134.9266  158.2795 H   0  0  0  0  0  0  0  0  0  0  0  0
  147.1375  135.3771  158.6458 H   0  0  0  0  0  0  0  0  0  0  0  0
  147.5727  137.7016  158.6328 H   0  0  0  0  0  0  0  0  0  0  0  0
  149.5565  139.5937  158.9291 H   0  0  0  0  0  0  0  0  0  0  0  0
  151.4397  140.9583  159.1715 H   0  0  0  0  0  0  0  0  0  0  0  0
  149.2210  139.3591  156.6742 H   0  0  0  0  0  0  0  0  0  0  0  0
  153.4988  138.6666  155.4074 H   0  0  0  0  0  0  0  0  0  0  0  0
  152.9807  139.6052  153.9991 H   0  0  0  0  0  0  0  0  0  0  0  0
  152.4964  137.9109  154.1596 H   0  0  0  0  0  0  0  0  0  0  0  0
  149.5556  136.3746  156.7432 H   0  0  0  0  0  0  0  0  0  0  0  0
  145.1474  137.8103  155.3914 H   0  0  0  0  0  0  0  0  0  0  0  0
  146.3825  138.2615  154.2056 H   0  0  0  0  0  0  0  0  0  0  0  0
  145.5212  139.5164  155.1063 H   0  0  0  0  0  0  0  0  0  0  0  0
  1  2  1  0  0  0  0
  1 28  1  0  0  0  0
  1 29  1  0  0  0  0
  1 30  1  0  0  0  0
  2  3  2  0  0  0  0
  2  4  1  0  0  0  0
  4  5  1  0  0  0  0
  5  6  1  0  0  0  0
  5 31  1  0  0  0  0
  5 32  1  0  0  0  0
  6 23  1  0  0  0  0
  6  7  1  0  0  0  0
  6 33  1  0  0  0  0
  7  8  1  0  0  0  0
  8  9  1  0  0  0  0
  8 18  1  0  0  0  0
  8 34  1  0  0  0  0
  9 16  1  0  0  0  0
  9 10  1  0  0  0  0
 10 11  2  0  0  0  0
 10 35  1  0  0  0  0
 11 12  1  0  0  0  0
 11 13  1  0  0  0  0
 13 14  2  0  0  0  0
 13 15  1  0  0  0  0
 15 16  1  0  0  0  0
 16 17  2  0  0  0  0
 18 19  1  0  0  0  0
 18 23  1  0  0  0  0
 18 36  1  0  0  0  0
 19 20  1  0  0  0  0
 20 21  1  0  0  0  0
 20 22  2  0  0  0  0
 21 37  1  0  0  0  0
 21 38  1  0  0  0  0
 21 39  1  0  0  0  0
 23 24  1  0  0  0  0
 23 40  1  0  0  0  0
 24 25  1  0  0  0  0
 25 26  1  0  0  0  0
 25 27  2  0  0  0  0
 26 41  1  0  0  0  0
 26 42  1  0  0  0  0
 26 43  1  0  0  0  0
M  CHG  1  15  -1
M  END
> <s_m_source_file>
AV-unprocessed.smi

> <i_m_source_file_index>
102

> <i_lp_mmshare_version>
43012

> <i_f3d_flags>
0

> <s_epik_input>
W0NIM11DKD1PKU9bQ0gyXVtDQEBIXTFPW0NASF0oW0NAQEhdKE9DKD1PKVtDSDNdKVtDQEhdMU9DKD1PKVtDSDNdKW4yW2NIXWMoRiljKD1PKVtuSF1jMj1P

> <s_epik_cmdline>
J2VwaWtfcHl0aG9uJywgJy1waCcsICc3LjAnLCAnLXRuJywgJzgnLCAnLW1hJywgJzIwMCcsICctbWV0YWxfYmluZGluZycsICctaW1hZScsICc8aW5maWxlLm1hZT4nLCAnLW9tYWUnLCAnPG91dGZpbGUubWFlPic=

> <r_epik_Ionization_Penalty>
1.40304

> <r_epik_Ionization_Penalty_Charging>
1.43915e-08

> <r_epik_Ionization_Penalty_Neutral>
1.40304

> <r_epik_State_Penalty>
1.48536

> <r_epik_Charging_Adjusted_Penalty>
1.48536

> <i_epik_Tot_Q>
-1

> <i_epik_Tot_abs_Q>
1

> <r_epik_Metal_State_Penalty>
0.00663881

> <b_epik_Metal_Only>
0

> <s_epik_Chemistry_Notes>
This compound has an ester and may undergo hydrolysis at high or low pH. This compound contains an acetal/aminal-like group ( X-CH(R)-Y where X, Y are N, S, or O) that may be acid/base labile, releasing an aldehyde.

> <s_lp_Force_Field>
OPLS_2005

> <r_lp_Energy>
20.3433

> <b_lp_Chiralities_Consistent>
1

> <s_lp_Variant>
AV-unprocessed.smi:102-26

> <Gold.Version>
5.8.1

> <Gold.Id.Protein>
6NUR|6NUR_protein|mol2

> <Gold.PLP.Fitness>
41.3948

> <Gold.PLP.PLP>
-34.2334

> <Gold.PLP.part.hbond>
-4.7756

> <Gold.PLP.part.metal>
0.0000

> <Gold.PLP.part.buried>
-5.0751

> <Gold.PLP.part.nonpolar>
-24.2947

> <Gold.PLP.part.repulsive>
0.0538

> <Gold.PLP.ligand.clash>
0.0000

> <Gold.PLP.ligand.torsion>
1.7418

> <Gold.PLP.Chemscore.Hbond>
3.4176

> <Gold.PLP.Chemscore.CHOScore>
0.0000

> <Gold.PLP.Chemscore.Metal>
0.0000

> <Gold.Chemscore.Hbonds>
donor molecule, donor type, donor heavy atom, donor atom, acceptor molecule, acceptor atom, score
      P1  H  6896  6909       L1    17  0.72
      P1  H  6931  6943       L1     3  0.38
      P1  H  6934  6947       L1     3  1.00
      P1  H  7989  7998       L1    22  1.00

> <Gold.PLP.Chemscore.Internal.Correction>
0.3923

> <Gold.Rescore>
     Score         DG    S(hbond)    S(metal)    S(lipo)     H(rot)  DE(clash)    DE(int)     intcor
      3.13     -10.29       2.96        0.00      43.97       4.00       0.00       7.16       ----

> <Gold.Chemscore.Fitness>
3.1293

> <Gold.Chemscore.DG>
-10.2881

> <Gold.Chemscore.ZeroCoef>
-5.4800

> <Gold.Chemscore.Hbond>
2.9612

> <Gold.Chemscore.Metal>
0.0000

> <Gold.Chemscore.Lipo>
43.9741

> <Gold.Chemscore.Internal_Hbond>
0.0000

> <Gold.Chemscore.DEClash>
0.0000

> <Gold.Chemscore.DEInternal>
7.1588

> <Gold.Chemscore.Rot>
3.9951

> <Gold.Chemscore.Internal.Correction>
   9.000000E+99

> <Gold.Chemscore.Hbonds>
donor molecule, donor type, donor heavy atom, donor atom, acceptor molecule, acceptor atom, score
      P1  H  6896  6909       L1    17  0.71
      P1  H  6931  6943       L1     3  0.05
      P1  H  6934  6947       L1     3  0.98
      P1  H  7989  7998       L1    22  0.32

> <Gold.Chemscore.Hbond.Weighted>
-9.8906

> <Gold.Chemscore.Metal.Weighted>
-0.0000

> <Gold.Chemscore.Lipo.Weighted>
-5.1450

> <Gold.Chemscore.Internal_Hbond.Weighted>
0.0000

> <Gold.Chemscore.DEClash.Weighted>
0.0000

> <Gold.Chemscore.DEInternal.Weighted>
7.1588

> <Gold.Chemscore.Rot.Weighted>
10.2274

> <Gold.Chemscore.Internal.Correction.Weighted>
   9.000000E+99

> <Gold.Protein.RotatedTorsions>
[ 6907 6896 6895 6894 ] final  114.38 input  -60.11 | X-H torsion
[ 7974 7965 7964 7962 ] final  138.50 input  175.53 | X-H torsion
[ 8008 7997 7996 7995 ] final   76.08 input   59.86 | X-H torsion
[ 10167 10162 10161 10158 ] final   33.62 input  -65.29 | X-H torsion
[ 10718 10713 10712 10709 ] final  -81.46 input   66.30 | X-H torsion
[ 10763 10752 10751 10750 ] final  -91.75 input  -60.55 | X-H torsion
[ 11005 11000 10999 10996 ] final  -15.20 input  -57.11 | X-H torsion

> <Gold.Protein.ActiveResidues>
 VAL166  LYS551  ARG553  GLY616  TRP617  ASP618  TYR619  PRO620  LYS621  CYS622 
 ASP623  PHE694  ASN695  SER759  ASP760  ASP761  ALA762  ILE779  LEU786  VAL792 
 PHE793  MET794  SER795  GLU796  ALA797  LYS798  CYS799  TRP800  GLU811  SER814 

> <Gold.Protein.RotatedAtoms>
  152.4805  133.8243  159.7069 H   0  0  0  0  0  0  0  0  0  0  0  0  # atno 6907 bound_to 6896
  150.8852  133.7308  159.2927 H   0  0  0  0  0  0  0  0  0  0  0  0  # atno 6908 bound_to 6896
  151.4799  135.1055  159.9827 H   0  0  0  0  0  0  0  0  0  0  0  0  # atno 6909 bound_to 6896
  144.9366  139.4981  143.5592 H   0  0  0  0  0  0  0  0  0  0  0  0  # atno 7974 bound_to 7965
  155.8222  140.3469  155.5521 H   0  0  0  0  0  0  0  0  0  0  0  0  # atno 8008 bound_to 7997
  155.8330  140.0930  157.1801 H   0  0  0  0  0  0  0  0  0  0  0  0  # atno 8009 bound_to 7997
  154.4004  140.1408  156.3624 H   0  0  0  0  0  0  0  0  0  0  0  0  # atno 8010 bound_to 7997
  140.4391  144.1214  150.6171 H   0  0  0  0  0  0  0  0  0  0  0  0  # atno 10167 bound_to 10162
  156.0050  130.4604  150.3956 H   0  0  0  0  0  0  0  0  0  0  0  0  # atno 10718 bound_to 10713
  154.6792  135.5256  153.8240 H   0  0  0  0  0  0  0  0  0  0  0  0  # atno 10763 bound_to 10752
  153.0553  135.6548  154.0603 H   0  0  0  0  0  0  0  0  0  0  0  0  # atno 10764 bound_to 10752
  154.0492  135.2971  155.3323 H   0  0  0  0  0  0  0  0  0  0  0  0  # atno 10765 bound_to 10752
  140.7943  133.8264  155.9409 H   0  0  0  0  0  0  0  0  0  0  0  0  # atno 11005 bound_to 11000
  146.3269  139.8355  142.8900 LP  0  0  0  0  0  0  0  0  0  0  0  0  # atno 17320 bound_to 7965
  145.3057  141.0206  143.3583 LP  0  0  0  0  0  0  0  0  0  0  0  0  # atno 17321 bound_to 7965
  140.4340  143.2555  151.9559 LP  0  0  0  0  0  0  0  0  0  0  0  0  # atno 17342 bound_to 10162
  139.4788  144.5717  151.8077 LP  0  0  0  0  0  0  0  0  0  0  0  0  # atno 17343 bound_to 10162
  157.2028  131.0442  151.2641 LP  0  0  0  0  0  0  0  0  0  0  0  0  # atno 17370 bound_to 10713
  157.3960  130.7307  149.6732 LP  0  0  0  0  0  0  0  0  0  0  0  0  # atno 17371 bound_to 10713
  140.9359  134.1963  157.4832 LP  0  0  0  0  0  0  0  0  0  0  0  0  # atno 17394 bound_to 11000
  139.8728  134.9852  156.5271 LP  0  0  0  0  0  0  0  0  0  0  0  0  # atno 17395 bound_to 11000

$$$$
