AV-unprocessed.smi:1803|AV-procd|sdf|7279|dock3
  -GOLD-   22720 8543D 1   1.00000     0.00000
 Structure written by MMmdl.
 36 38  0  0  0  0  0  0  0  0  2 V2000
  145.8766  138.3553  152.9001 O   0  0  0  0  0  0  0  0  0  0  0  0
  146.5804  137.4752  153.3920 C   0  0  0  0  0  0  0  0  0  0  0  0
  147.7356  137.7794  154.0218 N   0  0  0  0  0  0  0  0  0  0  0  0
  148.3856  139.0254  154.2621 C   0  0  0  0  0  0  0  0  0  0  0  0
  149.6894  139.1610  154.5554 N   0  0  0  0  0  0  0  0  0  0  0  0
  150.0516  140.4898  154.7284 N   0  0  0  0  0  0  0  0  0  0  0  0
  149.0103  141.3080  154.5524 C   0  0  0  0  0  0  0  0  0  0  0  0
  147.4865  140.5331  154.1576 S   0  0  0  0  0  0  0  0  0  0  0  0
  146.2524  136.1736  153.3422 N   0  0  0  0  0  0  0  0  0  0  0  0
  145.0606  135.6192  152.7089 C   0  0  2  0  0  0  0  0  0  0  0  0
  143.7923  135.8476  153.5228 C   0  0  0  0  0  0  0  0  0  0  0  0
  142.8464  134.7915  152.9495 C   0  0  0  0  0  0  0  0  0  0  0  0
  143.6979  133.6342  152.5902 N   0  3  1  0  0  0  0  0  0  0  0  0
  143.2558  132.8940  151.3830 C   0  0  0  0  0  0  0  0  0  0  0  0
  144.1915  131.7041  151.0997 C   0  0  0  0  0  0  0  0  0  0  0  0
  145.6847  132.0937  151.1022 C   0  0  0  0  0  0  0  0  0  0  0  0
  145.8983  133.5965  151.3404 C   0  0  0  0  0  0  0  0  0  0  0  0
  145.1180  134.0875  152.5811 C   0  0  1  0  0  0  0  0  0  0  0  0
  148.2175  136.9816  154.4108 H   0  0  0  0  0  0  0  0  0  0  0  0
  149.1408  142.3753  154.6542 H   0  0  0  0  0  0  0  0  0  0  0  0
  146.8855  135.5161  153.7758 H   0  0  0  0  0  0  0  0  0  0  0  0
  144.9101  136.0681  151.7246 H   0  0  0  0  0  0  0  0  0  0  0  0
  143.9752  135.6508  154.5806 H   0  0  0  0  0  0  0  0  0  0  0  0
  143.4017  136.8614  153.4280 H   0  0  0  0  0  0  0  0  0  0  0  0
  142.0624  134.5068  153.6516 H   0  0  0  0  0  0  0  0  0  0  0  0
  142.3643  135.1901  152.0554 H   0  0  0  0  0  0  0  0  0  0  0  0
  142.2347  132.5397  151.5277 H   0  0  0  0  0  0  0  0  0  0  0  0
  143.2354  133.5678  150.5248 H   0  0  0  0  0  0  0  0  0  0  0  0
  144.0253  130.9294  151.8494 H   0  0  0  0  0  0  0  0  0  0  0  0
  143.9266  131.2548  150.1420 H   0  0  0  0  0  0  0  0  0  0  0  0
  146.1985  131.5328  151.8840 H   0  0  0  0  0  0  0  0  0  0  0  0
  146.1522  131.7977  150.1625 H   0  0  0  0  0  0  0  0  0  0  0  0
  146.9622  133.8038  151.4588 H   0  0  0  0  0  0  0  0  0  0  0  0
  145.5813  134.1492  150.4551 H   0  0  0  0  0  0  0  0  0  0  0  0
  145.5739  133.6652  153.4785 H   0  0  0  0  0  0  0  0  0  0  0  0
  143.6325  132.9819  153.3587 H   0  0  0  0  0  0  0  0  0  0  0  0
  1  2  2  0  0  0  0
  2  3  1  0  0  0  0
  2  9  1  0  0  0  0
  3  4  1  0  0  0  0
  3 19  1  0  0  0  0
  4  8  1  0  0  0  0
  4  5  2  0  0  0  0
  5  6  1  0  0  0  0
  6  7  2  0  0  0  0
  7  8  1  0  0  0  0
  7 20  1  0  0  0  0
  9 10  1  0  0  0  0
  9 21  1  0  0  0  0
 10 18  1  0  0  0  0
 10 11  1  0  0  0  0
 10 22  1  0  0  0  0
 11 12  1  0  0  0  0
 11 23  1  0  0  0  0
 11 24  1  0  0  0  0
 12 13  1  0  0  0  0
 12 25  1  0  0  0  0
 12 26  1  0  0  0  0
 13 18  1  0  0  0  0
 13 14  1  0  0  0  0
 13 36  1  0  0  0  0
 14 15  1  0  0  0  0
 14 27  1  0  0  0  0
 14 28  1  0  0  0  0
 15 16  1  0  0  0  0
 15 29  1  0  0  0  0
 15 30  1  0  0  0  0
 16 17  1  0  0  0  0
 16 31  1  0  0  0  0
 16 32  1  0  0  0  0
 17 18  1  0  0  0  0
 17 33  1  0  0  0  0
 17 34  1  0  0  0  0
 18 35  1  0  0  0  0
M  CHG  1  13   1
M  END
> <s_m_source_file>
AV-unprocessed.smi

> <i_m_source_file_index>
1803

> <i_lp_mmshare_version>
43012

> <i_f3d_flags>
0

> <s_epik_input>
czFbY0hdbm5jMVtOSF1DKD1PKVtOSF1bQ0BIXShbQ0gyXVtDSDJdMilbQ0BASF0oTjIzKVtDSDJdW0NIMl1bQ0gyXVtDSDJdMw==

> <s_epik_cmdline>
J2VwaWtfcHl0aG9uJywgJy1waCcsICc3LjAnLCAnLXRuJywgJzgnLCAnLW1hJywgJzIwMCcsICctbWV0YWxfYmluZGluZycsICctaW1hZScsICc8aW5maWxlLm1hZT4nLCAnLW9tYWUnLCAnPG91dGZpbGUubWFlPic=

> <r_lp_tautomer_probability>
1

> <r_epik_Ionization_Penalty>
0.00213286

> <r_epik_Ionization_Penalty_Charging>
0.00107044

> <r_epik_Ionization_Penalty_Neutral>
0.00106242

> <r_epik_State_Penalty>
-0

> <r_epik_Charging_Adjusted_Penalty>
0.00107044

> <i_epik_Tot_Q>
1

> <i_epik_Tot_abs_Q>
1

> <r_epik_Metal_State_Penalty>
0.292783

> <b_epik_Metal_Only>
0

> <s_lp_Force_Field>
OPLS_2005

> <r_lp_Energy>
41.2334

> <b_lp_Chiralities_Consistent>
1

> <s_lp_Variant>
AV-unprocessed.smi:1803-1

> <Gold.Version>
5.8.1

> <Gold.Id.Protein>
6NUR|6NUR_protein|mol2

> <Gold.PLP.Fitness>
35.3492

> <Gold.PLP.PLP>
-25.6324

> <Gold.PLP.part.hbond>
-3.8806

> <Gold.PLP.part.metal>
0.0000

> <Gold.PLP.part.buried>
-5.3246

> <Gold.PLP.part.nonpolar>
-19.4395

> <Gold.PLP.part.repulsive>
0.8825

> <Gold.PLP.ligand.clash>
0.0000

> <Gold.PLP.ligand.torsion>
0.2376

> <Gold.PLP.Chemscore.Hbond>
2.5370

> <Gold.PLP.Chemscore.CHOScore>
0.8576

> <Gold.PLP.Chemscore.Metal>
0.0000

> <Gold.Chemscore.Hbonds>
donor molecule, donor type, donor heavy atom, donor atom, acceptor molecule, acceptor atom, score
      L1  H    13    36       P1 10957  1.66
      P1  H  7989  7998       L1     6  0.90
      L1  C     7    20       P1  8028  0.95

> <Gold.PLP.Chemscore.Internal.Correction>
0.0080

> <Gold.Rescore>
     Score         DG    S(hbond)    S(metal)    S(lipo)     H(rot)  DE(clash)    DE(int)     intcor
     13.58     -15.25       1.72        0.00      56.22       1.00       0.52       1.14       ----

> <Gold.Chemscore.Fitness>
13.5825

> <Gold.Chemscore.DG>
-15.2495

> <Gold.Chemscore.ZeroCoef>
-5.4800

> <Gold.Chemscore.Hbond>
1.7222

> <Gold.Chemscore.Metal>
0.0000

> <Gold.Chemscore.Lipo>
56.2156

> <Gold.Chemscore.Internal_Hbond>
0.0000

> <Gold.Chemscore.DEClash>
0.5231

> <Gold.Chemscore.DEInternal>
1.1439

> <Gold.Chemscore.Rot>
1.0000

> <Gold.Chemscore.Internal.Correction>
   9.000000E+99

> <Gold.Chemscore.Hbonds>
donor molecule, donor type, donor heavy atom, donor atom, acceptor molecule, acceptor atom, score
      L1  H    13    36       P1 10957  0.59
      P1  H  7989  7998       L1     6  0.46

> <Gold.Chemscore.Hbond.Weighted>
-5.7523

> <Gold.Chemscore.Metal.Weighted>
-0.0000

> <Gold.Chemscore.Lipo.Weighted>
-6.5772

> <Gold.Chemscore.Internal_Hbond.Weighted>
0.0000

> <Gold.Chemscore.DEClash.Weighted>
0.5231

> <Gold.Chemscore.DEInternal.Weighted>
1.1439

> <Gold.Chemscore.Rot.Weighted>
2.5600

> <Gold.Chemscore.Internal.Correction.Weighted>
   9.000000E+99

> <Gold.Protein.RotatedTorsions>
[ 6907 6896 6895 6894 ] final -143.11 input  -60.11 | X-H torsion
[ 7974 7965 7964 7962 ] final   62.50 input  175.53 | X-H torsion
[ 8008 7997 7996 7995 ] final   -4.09 input   59.86 | X-H torsion
[ 10167 10162 10161 10158 ] final   56.44 input  -65.29 | X-H torsion
[ 10718 10713 10712 10709 ] final -173.12 input   66.30 | X-H torsion
[ 10763 10752 10751 10750 ] final   90.70 input  -60.55 | X-H torsion
[ 11005 11000 10999 10996 ] final -110.81 input  -57.11 | X-H torsion

> <Gold.Protein.ActiveResidues>
 VAL166  LYS551  ARG553  GLY616  TRP617  ASP618  TYR619  PRO620  LYS621  CYS622 
 ASP623  PHE694  ASN695  SER759  ASP760  ASP761  ALA762  ILE779  LEU786  VAL792 
 PHE793  MET794  SER795  GLU796  ALA797  LYS798  CYS799  TRP800  GLU811  SER814 

> <Gold.Protein.RotatedAtoms>
  151.0961  133.5279  159.2612 H   0  0  0  0  0  0  0  0  0  0  0  0  # atno 6907 bound_to 6896
  151.2127  135.0487  159.8928 H   0  0  0  0  0  0  0  0  0  0  0  0  # atno 6908 bound_to 6896
  152.5439  134.0774  159.8274 H   0  0  0  0  0  0  0  0  0  0  0  0  # atno 6909 bound_to 6896
  145.8726  139.3388  143.0754 H   0  0  0  0  0  0  0  0  0  0  0  0  # atno 7974 bound_to 7965
  154.6180  140.2493  155.7585 H   0  0  0  0  0  0  0  0  0  0  0  0  # atno 8008 bound_to 7997
  156.2410  140.2932  156.0394 H   0  0  0  0  0  0  0  0  0  0  0  0  # atno 8009 bound_to 7997
  155.1943  140.0392  157.2896 H   0  0  0  0  0  0  0  0  0  0  0  0  # atno 8010 bound_to 7997
  140.2088  144.3911  150.6498 H   0  0  0  0  0  0  0  0  0  0  0  0  # atno 10167 bound_to 10162
  156.7657  130.9430  151.3119 H   0  0  0  0  0  0  0  0  0  0  0  0  # atno 10718 bound_to 10713
  153.2004  135.4424  155.0259 H   0  0  0  0  0  0  0  0  0  0  0  0  # atno 10763 bound_to 10752
  154.8143  135.3308  154.7221 H   0  0  0  0  0  0  0  0  0  0  0  0  # atno 10764 bound_to 10752
  153.7667  135.6987  153.4970 H   0  0  0  0  0  0  0  0  0  0  0  0  # atno 10765 bound_to 10752
  141.0770  133.9283  157.2368 H   0  0  0  0  0  0  0  0  0  0  0  0  # atno 11005 bound_to 11000
  145.9119  140.9174  143.0449 LP  0  0  0  0  0  0  0  0  0  0  0  0  # atno 17320 bound_to 7965
  144.6726  140.1172  143.7452 LP  0  0  0  0  0  0  0  0  0  0  0  0  # atno 17321 bound_to 7965
  140.6338  143.2191  151.6438 LP  0  0  0  0  0  0  0  0  0  0  0  0  # atno 17342 bound_to 10162
  139.5188  144.3273  152.0858 LP  0  0  0  0  0  0  0  0  0  0  0  0  # atno 17343 bound_to 10162
  157.6714  130.9055  150.0050 LP  0  0  0  0  0  0  0  0  0  0  0  0  # atno 17370 bound_to 10713
  156.1310  130.3643  149.9731 LP  0  0  0  0  0  0  0  0  0  0  0  0  # atno 17371 bound_to 10713
  139.9583  135.0160  156.9190 LP  0  0  0  0  0  0  0  0  0  0  0  0  # atno 17394 bound_to 11000
  140.5551  134.0590  155.7381 LP  0  0  0  0  0  0  0  0  0  0  0  0  # atno 17395 bound_to 11000

$$$$
