AV-unprocessed.smi:157|AV-procd|sdf|1308|dock10
  -GOLD-   2262019 03D 1   1.00000     0.00000
 Structure written by MMmdl.
 36 38  0  0  0  0  0  0  0  0  2 V2000
  155.3923  139.1160  153.9175 O   0  0  0  0  0  0  0  0  0  0  0  0
  154.3155  138.2475  154.1989 C   0  0  0  0  0  0  0  0  0  0  0  0
  153.0410  139.0573  154.4939 C   0  0  2  0  0  0  0  0  0  0  0  0
  153.0540  139.5676  155.8264 O   0  0  0  0  0  0  0  0  0  0  0  0
  151.7699  139.5237  156.3720 C   0  0  1  0  0  0  0  0  0  0  0  0
  151.4437  140.8690  156.9374 N   0  0  0  0  0  0  0  0  0  0  0  0
  150.4994  141.7046  156.4587 C   0  0  0  0  0  0  0  0  0  0  0  0
  150.3785  142.8363  157.1315 N   0  3  0  0  0  0  0  0  0  0  0  0
  151.2996  142.7821  158.1557 C   0  0  0  0  0  0  0  0  0  0  0  0
  151.9582  141.5576  158.0154 C   0  0  0  0  0  0  0  0  0  0  0  0
  152.9870  141.0019  158.7918 N   0  0  0  0  0  0  0  0  0  0  0  0
  153.7014  141.6932  159.6189 C   0  0  0  0  0  0  0  0  0  0  0  0
  153.5729  143.0227  159.9844 N   0  0  0  0  0  0  0  0  0  0  0  0
  152.3004  143.6257  160.3381 C   0  0  0  0  0  0  0  0  0  0  0  0
  151.3991  143.9139  159.1304 C   0  0  1  0  0  0  0  0  0  0  0  0
  151.8277  145.1155  158.5238 O   0  0  0  0  0  0  0  0  0  0  0  0
  150.8015  139.1430  155.2508 C   0  0  0  0  0  0  0  0  0  0  0  0
  151.6983  138.3226  154.3477 C   0  0  2  0  0  0  0  0  0  0  0  0
  151.7619  136.9811  154.7949 O   0  0  0  0  0  0  0  0  0  0  0  0
  153.0218  139.9295  153.8384 H   0  0  0  0  0  0  0  0  0  0  0  0
  151.7476  138.8301  157.2139 H   0  0  0  0  0  0  0  0  0  0  0  0
  150.3958  144.1115  159.5093 H   0  0  0  0  0  0  0  0  0  0  0  0
  151.3470  138.3251  153.3155 H   0  0  0  0  0  0  0  0  0  0  0  0
  155.8431  138.7970  153.1504 H   0  0  0  0  0  0  0  0  0  0  0  0
  154.1705  137.5558  153.3688 H   0  0  0  0  0  0  0  0  0  0  0  0
  154.5807  137.6463  155.0688 H   0  0  0  0  0  0  0  0  0  0  0  0
  149.8956  141.4645  155.6019 H   0  0  0  0  0  0  0  0  0  0  0  0
  154.5307  141.2061  160.1340 H   0  0  0  0  0  0  0  0  0  0  0  0
  154.3392  143.4660  160.4711 H   0  0  0  0  0  0  0  0  0  0  0  0
  151.7856  142.9330  161.0056 H   0  0  0  0  0  0  0  0  0  0  0  0
  152.4721  144.5329  160.9184 H   0  0  0  0  0  0  0  0  0  0  0  0
  151.9077  144.9743  157.5931 H   0  0  0  0  0  0  0  0  0  0  0  0
  149.9330  138.6076  155.6359 H   0  0  0  0  0  0  0  0  0  0  0  0
  150.4618  140.0376  154.7278 H   0  0  0  0  0  0  0  0  0  0  0  0
  151.8483  136.9839  155.7363 H   0  0  0  0  0  0  0  0  0  0  0  0
  149.7278  143.5862  156.9353 H   0  0  0  0  0  0  0  0  0  0  0  0
  1  2  1  0  0  0  0
  1 24  1  0  0  0  0
  2  3  1  0  0  0  0
  2 25  1  0  0  0  0
  2 26  1  0  0  0  0
  3 20  1  0  0  0  0
  3 18  1  0  0  0  0
  3  4  1  0  0  0  0
  4  5  1  0  0  0  0
  5 21  1  0  0  0  0
  5  6  1  0  0  0  0
  5 17  1  0  0  0  0
  6 10  1  0  0  0  0
  6  7  1  0  0  0  0
  7  8  2  0  0  0  0
  7 27  1  0  0  0  0
  8  9  1  0  0  0  0
  8 36  1  0  0  0  0
  9 15  1  0  0  0  0
  9 10  2  0  0  0  0
 10 11  1  0  0  0  0
 11 12  2  0  0  0  0
 12 13  1  0  0  0  0
 12 28  1  0  0  0  0
 13 14  1  0  0  0  0
 13 29  1  0  0  0  0
 14 15  1  0  0  0  0
 14 30  1  0  0  0  0
 14 31  1  0  0  0  0
 15 22  1  0  0  0  0
 15 16  1  0  0  0  0
 16 32  1  0  0  0  0
 17 18  1  0  0  0  0
 17 33  1  0  0  0  0
 17 34  1  0  0  0  0
 18 23  1  0  0  0  0
 18 19  1  0  0  0  0
 19 35  1  0  0  0  0
M  CHG  1   8   1
M  END
> <s_m_source_file>
AV-unprocessed.smi

> <i_m_source_file_index>
157

> <i_lp_mmshare_version>
43012

> <i_f3d_flags>
0

> <s_epik_input>
W09IXVtDSDJdW0NASF0xT1tDQEhdKFtDSDJdW0NAQEhdMVtPSF0pbihbY0hdbjIpYyhjMjMpTj1bQ0hdW05IXVtDSDJdW0NASF0zW09IXQ==

> <s_epik_cmdline>
J2VwaWtfcHl0aG9uJywgJy1waCcsICc3LjAnLCAnLXRuJywgJzgnLCAnLW1hJywgJzIwMCcsICctbWV0YWxfYmluZGluZycsICctaW1hZScsICc8aW5maWxlLm1hZT4nLCAnLW9tYWUnLCAnPG91dGZpbGUubWFlPic=

> <r_epik_Ionization_Penalty>
1.68594

> <r_epik_Ionization_Penalty_Charging>
0

> <r_epik_Ionization_Penalty_Neutral>
1.68594

> <r_epik_State_Penalty>
1.79006

> <r_epik_Charging_Adjusted_Penalty>
1.79006

> <i_epik_Tot_Q>
1

> <i_epik_Tot_abs_Q>
1

> <r_epik_Metal_State_Penalty>
5.85324

> <b_epik_Metal_Only>
0

> <s_epik_Chemistry_Notes>
This compound has an imine and may undergo hydrolysis. This compound contains an acetal/aminal-like group ( X-CH(R)-Y where X, Y are N, S, or O) that may be acid/base labile, releasing an aldehyde.

> <s_lp_Force_Field>
OPLS_2005

> <r_lp_Energy>
54.692

> <b_lp_Chiralities_Consistent>
1

> <s_lp_Variant>
AV-unprocessed.smi:157-18

> <Gold.Version>
5.8.1

> <Gold.Id.Protein>
6NUR|6NUR_protein|mol2

> <Gold.PLP.Fitness>
50.1402

> <Gold.PLP.PLP>
-36.5243

> <Gold.PLP.part.hbond>
-3.8611

> <Gold.PLP.part.metal>
0.0000

> <Gold.PLP.part.buried>
-3.9157

> <Gold.PLP.part.nonpolar>
-28.7572

> <Gold.PLP.part.repulsive>
0.0331

> <Gold.PLP.ligand.clash>
0.0000

> <Gold.PLP.ligand.torsion>
0.2740

> <Gold.PLP.Chemscore.Hbond>
4.7200

> <Gold.PLP.Chemscore.CHOScore>
0.0000

> <Gold.PLP.Chemscore.Metal>
0.0000

> <Gold.Chemscore.Hbonds>
donor molecule, donor type, donor heavy atom, donor atom, acceptor molecule, acceptor atom, score
      L1  H     8    36       P1  8028  1.98
      P1  H  7997  8009       L1     4  0.99
      P1  H  7997  8010       L1     1  0.82
      P1  H 10752 10764       L1    19  1.00

> <Gold.PLP.Chemscore.Internal.Correction>
0.0040

> <Gold.Rescore>
     Score         DG    S(hbond)    S(metal)    S(lipo)     H(rot)  DE(clash)    DE(int)     intcor
     13.79     -14.71       3.36        0.00      63.20       3.67       0.67       0.24       ----

> <Gold.Chemscore.Fitness>
13.7893

> <Gold.Chemscore.DG>
-14.7076

> <Gold.Chemscore.ZeroCoef>
-5.4800

> <Gold.Chemscore.Hbond>
3.3588

> <Gold.Chemscore.Metal>
0.0000

> <Gold.Chemscore.Lipo>
63.1977

> <Gold.Chemscore.Internal_Hbond>
0.0000

> <Gold.Chemscore.DEClash>
0.6740

> <Gold.Chemscore.DEInternal>
0.2443

> <Gold.Chemscore.Rot>
3.6659

> <Gold.Chemscore.Internal.Correction>
   9.000000E+99

> <Gold.Chemscore.Hbonds>
donor molecule, donor type, donor heavy atom, donor atom, acceptor molecule, acceptor atom, score
      L1  H     8    36       P1  8028  0.92
      P1  H  7997  8009       L1     4  0.88
      P1  H  7997  8010       L1     1  0.56
      P1  H 10752 10764       L1    19  0.33

> <Gold.Chemscore.Hbond.Weighted>
-11.2182

> <Gold.Chemscore.Metal.Weighted>
-0.0000

> <Gold.Chemscore.Lipo.Weighted>
-7.3941

> <Gold.Chemscore.Internal_Hbond.Weighted>
0.0000

> <Gold.Chemscore.DEClash.Weighted>
0.6740

> <Gold.Chemscore.DEInternal.Weighted>
0.2443

> <Gold.Chemscore.Rot.Weighted>
9.3848

> <Gold.Chemscore.Internal.Correction.Weighted>
   9.000000E+99

> <Gold.Protein.RotatedTorsions>
[ 6907 6896 6895 6894 ] final -125.12 input  -60.11 | X-H torsion
[ 7974 7965 7964 7962 ] final  -63.50 input  175.53 | X-H torsion
[ 8008 7997 7996 7995 ] final -173.08 input   59.86 | X-H torsion
[ 10167 10162 10161 10158 ] final -104.49 input  -65.29 | X-H torsion
[ 10718 10713 10712 10709 ] final  -15.65 input   66.30 | X-H torsion
[ 10763 10752 10751 10750 ] final  -76.48 input  -60.55 | X-H torsion
[ 11005 11000 10999 10996 ] final  157.24 input  -57.11 | X-H torsion

> <Gold.Protein.ActiveResidues>
 VAL166  LYS551  ARG553  GLY616  TRP617  ASP618  TYR619  PRO620  LYS621  CYS622 
 ASP623  PHE694  ASN695  SER759  ASP760  ASP761  ALA762  ILE779  LEU786  VAL792 
 PHE793  MET794  SER795  GLU796  ALA797  LYS798  CYS799  TRP800  GLU811  SER814 

> <Gold.Protein.RotatedAtoms>
  150.8835  133.7339  159.2924 H   0  0  0  0  0  0  0  0  0  0  0  0  # atno 6907 bound_to 6896
  151.4913  135.1056  159.9814 H   0  0  0  0  0  0  0  0  0  0  0  0  # atno 6908 bound_to 6896
  152.4775  133.8128  159.7068 H   0  0  0  0  0  0  0  0  0  0  0  0  # atno 6909 bound_to 6896
  145.7783  140.8776  143.0344 H   0  0  0  0  0  0  0  0  0  0  0  0  # atno 7974 bound_to 7965
  155.9529  140.1130  157.0961 H   0  0  0  0  0  0  0  0  0  0  0  0  # atno 8008 bound_to 7997
  154.4114  140.1197  156.5143 H   0  0  0  0  0  0  0  0  0  0  0  0  # atno 8009 bound_to 7997
  155.6819  140.3473  155.4861 H   0  0  0  0  0  0  0  0  0  0  0  0  # atno 8010 bound_to 7997
  140.2087  143.3763  152.1069 H   0  0  0  0  0  0  0  0  0  0  0  0  # atno 10167 bound_to 10162
  156.5988  130.4818  149.6248 H   0  0  0  0  0  0  0  0  0  0  0  0  # atno 10718 bound_to 10713
  154.5004  135.5796  153.6527 H   0  0  0  0  0  0  0  0  0  0  0  0  # atno 10763 bound_to 10752
  152.9878  135.6134  154.3009 H   0  0  0  0  0  0  0  0  0  0  0  0  # atno 10764 bound_to 10752
  154.2916  135.2848  155.2631 H   0  0  0  0  0  0  0  0  0  0  0  0  # atno 10765 bound_to 10752
  140.1751  134.8516  157.2736 H   0  0  0  0  0  0  0  0  0  0  0  0  # atno 11005 bound_to 11000
  144.6800  139.9953  143.7484 LP  0  0  0  0  0  0  0  0  0  0  0  0  # atno 17320 bound_to 7965
  146.0100  139.3162  143.0876 LP  0  0  0  0  0  0  0  0  0  0  0  0  # atno 17321 bound_to 7965
  139.5188  144.7011  151.5490 LP  0  0  0  0  0  0  0  0  0  0  0  0  # atno 17342 bound_to 10162
  140.6339  143.9022  150.6630 LP  0  0  0  0  0  0  0  0  0  0  0  0  # atno 17343 bound_to 10162
  156.2487  130.6894  151.1624 LP  0  0  0  0  0  0  0  0  0  0  0  0  # atno 17370 bound_to 10713
  157.7285  131.0631  150.5817 LP  0  0  0  0  0  0  0  0  0  0  0  0  # atno 17371 bound_to 10713
  140.2332  134.3883  155.7512 LP  0  0  0  0  0  0  0  0  0  0  0  0  # atno 17394 bound_to 11000
  141.2220  133.7226  156.8674 LP  0  0  0  0  0  0  0  0  0  0  0  0  # atno 17395 bound_to 11000

$$$$
