AV-unprocessed.smi:1492|AV-procd|sdf|6041|dock3
  -GOLD-   22720 6153D 1   1.00000     0.00000
 Structure written by MMmdl.
 52 53  0  0  0  0  0  0  0  0  1 V2000
  151.2850  145.7518  159.7754 C   0  0  0  0  0  0  0  0  0  0  0  0
  151.7136  144.4506  160.4779 C   0  0  0  0  0  0  0  0  0  0  0  0
  152.0854  143.2470  159.5547 C   0  0  2  0  0  0  0  0  0  0  0  0
  153.0742  143.7471  158.4682 C   0  0  0  0  0  0  0  0  0  0  0  0
  150.7989  142.7729  158.8047 C   0  0  0  0  0  0  0  0  0  0  0  0
  151.1013  141.8557  157.7087 N   0  0  0  0  0  0  0  0  0  0  0  0
  150.2121  141.1701  156.9760 C   0  0  0  0  0  0  0  0  0  0  0  0
  149.0114  141.1072  157.2377 O   0  0  0  0  0  0  0  0  0  0  0  0
  150.7671  140.4844  155.7272 C   0  0  0  0  0  0  0  0  0  0  0  0
  149.7051  139.8794  154.8084 C   0  0  0  0  0  0  0  0  0  0  0  0
  149.7567  138.5953  154.3720 C   0  0  0  0  0  0  0  0  0  0  0  0
  150.8671  137.6183  154.7169 C   0  0  0  0  0  0  0  0  0  0  0  0
  148.7626  138.0729  153.5637 N   0  0  0  0  0  0  0  0  0  0  0  0
  147.7093  138.9013  153.2143 C   0  0  0  0  0  0  0  0  0  0  0  0
  146.6730  138.2319  152.3385 C   0  0  0  0  0  0  0  0  0  0  0  0
  147.5712  140.1393  153.5790 N   0  0  0  0  0  0  0  0  0  0  0  0
  148.5507  140.7159  154.4030 C   0  0  0  0  0  0  0  0  0  0  0  0
  148.4351  141.8807  154.7817 O   0  0  0  0  0  0  0  0  0  0  0  0
  152.6983  142.1184  160.3170 N   0  0  0  0  0  0  0  0  0  0  0  0
  153.3825  141.1047  159.5063 C   0  0  0  0  0  0  0  0  0  0  0  0
  153.8436  139.9075  160.3548 C   0  0  0  0  0  0  0  0  0  0  0  0
  154.6873  140.3599  161.4068 O   0  0  0  0  0  0  0  0  0  0  0  0
  154.0443  141.3074  162.2508 C   0  0  0  0  0  0  0  0  0  0  0  0
  153.5850  142.5154  161.4172 C   0  0  0  0  0  0  0  0  0  0  0  0
  148.8382  137.1113  153.2650 H   0  0  0  0  0  0  0  0  0  0  0  0
  151.0578  146.5205  160.5142 H   0  0  0  0  0  0  0  0  0  0  0  0
  150.3884  145.6162  159.1716 H   0  0  0  0  0  0  0  0  0  0  0  0
  152.0714  146.1491  159.1341 H   0  0  0  0  0  0  0  0  0  0  0  0
  152.5566  144.6979  161.1221 H   0  0  0  0  0  0  0  0  0  0  0  0
  150.9033  144.1662  161.1487 H   0  0  0  0  0  0  0  0  0  0  0  0
  152.5839  144.3757  157.7249 H   0  0  0  0  0  0  0  0  0  0  0  0
  153.5291  142.9160  157.9285 H   0  0  0  0  0  0  0  0  0  0  0  0
  153.8831  144.3421  158.8924 H   0  0  0  0  0  0  0  0  0  0  0  0
  150.1235  142.2578  159.4878 H   0  0  0  0  0  0  0  0  0  0  0  0
  150.2240  143.6202  158.4290 H   0  0  0  0  0  0  0  0  0  0  0  0
  152.0648  141.8302  157.4071 H   0  0  0  0  0  0  0  0  0  0  0  0
  151.3928  141.1951  155.1866 H   0  0  0  0  0  0  0  0  0  0  0  0
  151.4502  139.6945  156.0409 H   0  0  0  0  0  0  0  0  0  0  0  0
  150.9467  137.4937  155.7967 H   0  0  0  0  0  0  0  0  0  0  0  0
  151.8236  137.9820  154.3413 H   0  0  0  0  0  0  0  0  0  0  0  0
  150.6878  136.6350  154.2802 H   0  0  0  0  0  0  0  0  0  0  0  0
  145.8263  138.8961  152.1598 H   0  0  0  0  0  0  0  0  0  0  0  0
  146.2979  137.3263  152.8163 H   0  0  0  0  0  0  0  0  0  0  0  0
  147.1065  137.9634  151.3749 H   0  0  0  0  0  0  0  0  0  0  0  0
  152.7284  140.7221  158.7248 H   0  0  0  0  0  0  0  0  0  0  0  0
  154.2509  141.5381  159.0105 H   0  0  0  0  0  0  0  0  0  0  0  0
  152.9857  139.3773  160.7691 H   0  0  0  0  0  0  0  0  0  0  0  0
  154.3929  139.1953  159.7391 H   0  0  0  0  0  0  0  0  0  0  0  0
  153.1979  140.8415  162.7558 H   0  0  0  0  0  0  0  0  0  0  0  0
  154.7420  141.6252  163.0255 H   0  0  0  0  0  0  0  0  0  0  0  0
  154.4666  143.0231  161.0264 H   0  0  0  0  0  0  0  0  0  0  0  0
  153.0889  143.2150  162.0872 H   0  0  0  0  0  0  0  0  0  0  0  0
  1  2  1  0  0  0  0
  1 26  1  0  0  0  0
  1 27  1  0  0  0  0
  1 28  1  0  0  0  0
  2  3  1  0  0  0  0
  2 29  1  0  0  0  0
  2 30  1  0  0  0  0
  3  4  1  0  0  0  0
  3  5  1  0  0  0  0
  3 19  1  0  0  0  0
  4 31  1  0  0  0  0
  4 32  1  0  0  0  0
  4 33  1  0  0  0  0
  5  6  1  0  0  0  0
  5 34  1  0  0  0  0
  5 35  1  0  0  0  0
  6  7  1  0  0  0  0
  6 36  1  0  0  0  0
  7  8  2  0  0  0  0
  7  9  1  0  0  0  0
  9 37  1  0  0  0  0
  9 38  1  0  0  0  0
  9 10  1  0  0  0  0
 10 17  1  0  0  0  0
 10 11  2  0  0  0  0
 11 12  1  0  0  0  0
 11 13  1  0  0  0  0
 12 39  1  0  0  0  0
 12 40  1  0  0  0  0
 12 41  1  0  0  0  0
 13 25  1  0  0  0  0
 13 14  1  0  0  0  0
 14 15  1  0  0  0  0
 14 16  2  0  0  0  0
 15 42  1  0  0  0  0
 15 43  1  0  0  0  0
 15 44  1  0  0  0  0
 16 17  1  0  0  0  0
 17 18  2  0  0  0  0
 19 24  1  0  0  0  0
 19 20  1  0  0  0  0
 20 21  1  0  0  0  0
 20 45  1  0  0  0  0
 20 46  1  0  0  0  0
 21 22  1  0  0  0  0
 21 47  1  0  0  0  0
 21 48  1  0  0  0  0
 22 23  1  0  0  0  0
 23 24  1  0  0  0  0
 23 49  1  0  0  0  0
 23 50  1  0  0  0  0
 24 51  1  0  0  0  0
 24 52  1  0  0  0  0
M  END
> <s_m_source_file>
AV-unprocessed.smi

> <i_m_source_file_index>
1492

> <i_lp_mmshare_version>
43012

> <i_f3d_flags>
0

> <s_epik_input>
W0NIMl0xW0NIMl1PW0NIMl1bQ0gyXU4xW0NAQF0oW0NIM10pKFtDSDJdW0NIM10pW0NIMl1bTkhdQyg9TylbQ0gyXWMyYyhbQ0gzXSluYyhbQ0gzXSlbbkhdYzI9Tw==

> <s_epik_cmdline>
J2VwaWtfcHl0aG9uJywgJy1waCcsICc3LjAnLCAnLXRuJywgJzgnLCAnLW1hJywgJzIwMCcsICctbWV0YWxfYmluZGluZycsICctaW1hZScsICc8aW5maWxlLm1hZT4nLCAnLW9tYWUnLCAnPG91dGZpbGUubWFlPic=

> <r_lp_tautomer_probability>
0.156392

> <r_epik_Ionization_Penalty>
0.342516

> <r_epik_Ionization_Penalty_Charging>
0.0141408

> <r_epik_Ionization_Penalty_Neutral>
0.328375

> <r_epik_State_Penalty>
1.47662

> <r_epik_Charging_Adjusted_Penalty>
1.49076

> <i_epik_Tot_Q>
0

> <i_epik_Tot_abs_Q>
0

> <r_epik_Metal_State_Penalty>
1.65506

> <b_epik_Metal_Only>
0

> <s_lp_Force_Field>
OPLS_2005

> <r_lp_Energy>
47.0207

> <b_lp_Chiralities_Consistent>
1

> <s_lp_Variant>
AV-unprocessed.smi:1492-6

> <Gold.Version>
5.8.1

> <Gold.Id.Protein>
6NUR|6NUR_protein|mol2

> <Gold.PLP.Fitness>
50.2836

> <Gold.PLP.PLP>
-48.6654

> <Gold.PLP.part.hbond>
-2.0000

> <Gold.PLP.part.metal>
0.0000

> <Gold.PLP.part.buried>
-3.1643

> <Gold.PLP.part.nonpolar>
-45.2121

> <Gold.PLP.part.repulsive>
3.1625

> <Gold.PLP.ligand.clash>
0.0046

> <Gold.PLP.ligand.torsion>
0.8185

> <Gold.PLP.Chemscore.Hbond>
1.0000

> <Gold.PLP.Chemscore.CHOScore>
0.0000

> <Gold.PLP.Chemscore.Metal>
0.0000

> <Gold.Chemscore.Hbonds>
donor molecule, donor type, donor heavy atom, donor atom, acceptor molecule, acceptor atom, score
      L1  H    13    25       P1  7948  0.78

> <Gold.PLP.Chemscore.Internal.Correction>
0.2597

> <Gold.Rescore>
     Score         DG    S(hbond)    S(metal)    S(lipo)     H(rot)  DE(clash)    DE(int)     intcor
     13.68     -16.92       0.70        0.00     124.09       2.12       1.10       2.14       ----

> <Gold.Chemscore.Fitness>
13.6756

> <Gold.Chemscore.DG>
-16.9184

> <Gold.Chemscore.ZeroCoef>
-5.4800

> <Gold.Chemscore.Hbond>
0.6993

> <Gold.Chemscore.Metal>
0.0000

> <Gold.Chemscore.Lipo>
124.0905

> <Gold.Chemscore.Internal_Hbond>
0.0000

> <Gold.Chemscore.DEClash>
1.1044

> <Gold.Chemscore.DEInternal>
2.1383

> <Gold.Chemscore.Rot>
2.1155

> <Gold.Chemscore.Internal.Correction>
   9.000000E+99

> <Gold.Chemscore.Hbonds>
donor molecule, donor type, donor heavy atom, donor atom, acceptor molecule, acceptor atom, score
      L1  H    13    25       P1  7948  0.77

> <Gold.Chemscore.Hbond.Weighted>
-2.3355

> <Gold.Chemscore.Metal.Weighted>
-0.0000

> <Gold.Chemscore.Lipo.Weighted>
-14.5186

> <Gold.Chemscore.Internal_Hbond.Weighted>
0.0000

> <Gold.Chemscore.DEClash.Weighted>
1.1044

> <Gold.Chemscore.DEInternal.Weighted>
2.1383

> <Gold.Chemscore.Rot.Weighted>
5.4157

> <Gold.Chemscore.Internal.Correction.Weighted>
   9.000000E+99

> <Gold.Protein.RotatedTorsions>
[ 6907 6896 6895 6894 ] final   31.99 input  -60.11 | X-H torsion
[ 7974 7965 7964 7962 ] final  -58.45 input  175.53 | X-H torsion
[ 8008 7997 7996 7995 ] final  124.34 input   59.86 | X-H torsion
[ 10167 10162 10161 10158 ] final -149.65 input  -65.29 | X-H torsion
[ 10718 10713 10712 10709 ] final  -50.67 input   66.30 | X-H torsion
[ 10763 10752 10751 10750 ] final   24.50 input  -60.55 | X-H torsion
[ 11005 11000 10999 10996 ] final   84.43 input  -57.11 | X-H torsion

> <Gold.Protein.ActiveResidues>
 VAL166  LYS551  ARG553  GLY616  TRP617  ASP618  TYR619  PRO620  LYS621  CYS622 
 ASP623  PHE694  ASN695  SER759  ASP760  ASP761  ALA762  ILE779  LEU786  VAL792 
 PHE793  MET794  SER795  GLU796  ALA797  LYS798  CYS799  TRP800  GLU811  SER814 

> <Gold.Protein.RotatedAtoms>
  152.0681  134.9551  160.0574 H   0  0  0  0  0  0  0  0  0  0  0  0  # atno 6907 bound_to 6896
  152.0888  133.4185  159.4542 H   0  0  0  0  0  0  0  0  0  0  0  0  # atno 6908 bound_to 6896
  150.6836  134.2816  159.4673 H   0  0  0  0  0  0  0  0  0  0  0  0  # atno 6909 bound_to 6896
  145.8391  140.8429  143.0043 H   0  0  0  0  0  0  0  0  0  0  0  0  # atno 7974 bound_to 7965
  156.2798  140.2742  156.1773 H   0  0  0  0  0  0  0  0  0  0  0  0  # atno 8008 bound_to 7997
  155.0593  140.0386  157.2589 H   0  0  0  0  0  0  0  0  0  0  0  0  # atno 8009 bound_to 7997
  154.7131  140.2672  155.6616 H   0  0  0  0  0  0  0  0  0  0  0  0  # atno 8010 bound_to 7997
  139.7423  143.8643  152.2565 H   0  0  0  0  0  0  0  0  0  0  0  0  # atno 10167 bound_to 10162
  156.1779  130.4150  149.9549 H   0  0  0  0  0  0  0  0  0  0  0  0  # atno 10718 bound_to 10713
  153.0759  135.6604  154.0146 H   0  0  0  0  0  0  0  0  0  0  0  0  # atno 10763 bound_to 10752
  153.9780  135.2958  155.3424 H   0  0  0  0  0  0  0  0  0  0  0  0  # atno 10764 bound_to 10752
  154.7147  135.5190  153.8791 H   0  0  0  0  0  0  0  0  0  0  0  0  # atno 10765 bound_to 10752
  139.9001  134.8215  156.2444 H   0  0  0  0  0  0  0  0  0  0  0  0  # atno 11005 bound_to 11000
  144.6734  140.0786  143.7470 LP  0  0  0  0  0  0  0  0  0  0  0  0  # atno 17320 bound_to 7965
  145.9485  139.2717  143.1226 LP  0  0  0  0  0  0  0  0  0  0  0  0  # atno 17321 bound_to 7965
  139.8597  144.7123  150.9114 LP  0  0  0  0  0  0  0  0  0  0  0  0  # atno 17342 bound_to 10162
  140.7787  143.3828  151.1446 LP  0  0  0  0  0  0  0  0  0  0  0  0  # atno 17343 bound_to 10162
  156.7329  130.9050  151.3627 LP  0  0  0  0  0  0  0  0  0  0  0  0  # atno 17370 bound_to 10713
  157.6848  130.9175  150.0359 LP  0  0  0  0  0  0  0  0  0  0  0  0  # atno 17371 bound_to 10713
  141.0264  133.7012  156.1355 LP  0  0  0  0  0  0  0  0  0  0  0  0  # atno 17394 bound_to 11000
  140.7159  134.4410  157.5578 LP  0  0  0  0  0  0  0  0  0  0  0  0  # atno 17395 bound_to 11000

$$$$
