AV-unprocessed.smi:1352|AV-procd|sdf|5530|dock4
  -GOLD-   22720 5123D 1   1.00000     0.00000
 Structure written by MMmdl.
 47 48  0  0  0  0  0  0  0  0  2 V2000
  144.3908  137.1994  152.2823 C   0  0  0  0  0  0  0  0  0  0  0  0
  145.5804  136.2301  152.2352 C   0  0  2  0  0  0  0  0  0  0  0  0
  145.2774  135.0120  151.3471 C   0  0  0  0  0  0  0  0  0  0  0  0
  146.4722  134.0442  151.3288 C   0  0  2  0  0  0  0  0  0  0  0  0
  146.1810  132.8099  150.4634 C   0  0  0  0  0  0  0  0  0  0  0  0
  146.8581  133.6468  152.7667 C   0  0  0  0  0  0  0  0  0  0  0  0
  147.1499  134.8413  153.6010 N   0  3  2  0  0  0  0  0  0  0  0  0
  147.6602  134.4739  154.9462 C   0  0  0  0  0  0  0  0  0  0  0  0
  149.1991  134.4058  154.9924 C   0  0  0  0  0  0  0  0  0  0  0  0
  149.8064  135.6058  154.4289 N   0  0  0  0  0  0  0  0  0  0  0  0
  150.8815  136.2318  154.9309 C   0  0  0  0  0  0  0  0  0  0  0  0
  151.4589  135.8587  155.9531 O   0  0  0  0  0  0  0  0  0  0  0  0
  151.3531  137.4776  154.1672 C   0  0  0  0  0  0  0  0  0  0  0  0
  150.6966  138.7187  154.6113 N   0  0  0  0  0  0  0  0  0  0  0  0
  149.3631  138.9212  154.2032 C   0  0  0  0  0  0  0  0  0  0  0  0
  148.6721  140.0177  154.5530 C   0  0  0  0  0  0  0  0  0  0  0  0
  149.3317  141.0081  155.3705 C   0  0  0  0  0  0  0  0  0  0  0  0
  150.6060  140.8229  155.7692 C   0  0  0  0  0  0  0  0  0  0  0  0
  151.3639  139.6240  155.3922 C   0  0  0  0  0  0  0  0  0  0  0  0
  152.5265  139.4433  155.7558 O   0  0  0  0  0  0  0  0  0  0  0  0
  145.9895  135.7704  153.6479 C   0  0  0  0  0  0  0  0  0  0  0  0
  143.5090  136.7248  152.7143 H   0  0  0  0  0  0  0  0  0  0  0  0
  144.1265  137.5456  151.2825 H   0  0  0  0  0  0  0  0  0  0  0  0
  144.6236  138.0789  152.8833 H   0  0  0  0  0  0  0  0  0  0  0  0
  146.4233  136.7672  151.7971 H   0  0  0  0  0  0  0  0  0  0  0  0
  144.3888  134.4969  151.7156 H   0  0  0  0  0  0  0  0  0  0  0  0
  145.0485  135.3392  150.3321 H   0  0  0  0  0  0  0  0  0  0  0  0
  147.3218  134.5640  150.8829 H   0  0  0  0  0  0  0  0  0  0  0  0
  145.3397  132.2384  150.8571 H   0  0  0  0  0  0  0  0  0  0  0  0
  147.0446  132.1454  150.4225 H   0  0  0  0  0  0  0  0  0  0  0  0
  145.9384  133.0964  149.4395 H   0  0  0  0  0  0  0  0  0  0  0  0
  146.0578  133.0670  153.2299 H   0  0  0  0  0  0  0  0  0  0  0  0
  147.7378  133.0024  152.7340 H   0  0  0  0  0  0  0  0  0  0  0  0
  147.2788  135.1728  155.6922 H   0  0  0  0  0  0  0  0  0  0  0  0
  147.2670  133.4931  155.2176 H   0  0  0  0  0  0  0  0  0  0  0  0
  149.5445  134.2609  156.0177 H   0  0  0  0  0  0  0  0  0  0  0  0
  149.5700  133.5578  154.4182 H   0  0  0  0  0  0  0  0  0  0  0  0
  149.3898  135.9794  153.5878 H   0  0  0  0  0  0  0  0  0  0  0  0
  152.4365  137.5737  154.2644 H   0  0  0  0  0  0  0  0  0  0  0  0
  151.1767  137.3109  153.1035 H   0  0  0  0  0  0  0  0  0  0  0  0
  148.9406  138.1312  153.5994 H   0  0  0  0  0  0  0  0  0  0  0  0
  147.6492  140.1540  154.2339 H   0  0  0  0  0  0  0  0  0  0  0  0
  148.8002  141.9014  155.6646 H   0  0  0  0  0  0  0  0  0  0  0  0
  151.0830  141.5743  156.3813 H   0  0  0  0  0  0  0  0  0  0  0  0
  146.2360  136.6471  154.2458 H   0  0  0  0  0  0  0  0  0  0  0  0
  145.1505  135.2783  154.1431 H   0  0  0  0  0  0  0  0  0  0  0  0
  147.9017  135.3295  153.1353 H   0  0  0  0  0  0  0  0  0  0  0  0
  1  2  1  0  0  0  0
  1 22  1  0  0  0  0
  1 23  1  0  0  0  0
  1 24  1  0  0  0  0
  2 21  1  0  0  0  0
  2  3  1  0  0  0  0
  2 25  1  0  0  0  0
  3  4  1  0  0  0  0
  3 26  1  0  0  0  0
  3 27  1  0  0  0  0
  4  5  1  0  0  0  0
  4  6  1  0  0  0  0
  4 28  1  0  0  0  0
  5 29  1  0  0  0  0
  5 30  1  0  0  0  0
  5 31  1  0  0  0  0
  6  7  1  0  0  0  0
  6 32  1  0  0  0  0
  6 33  1  0  0  0  0
  7  8  1  0  0  0  0
  7 21  1  0  0  0  0
  7 47  1  0  0  0  0
  8  9  1  0  0  0  0
  8 34  1  0  0  0  0
  8 35  1  0  0  0  0
  9 10  1  0  0  0  0
  9 36  1  0  0  0  0
  9 37  1  0  0  0  0
 10 11  1  0  0  0  0
 10 38  1  0  0  0  0
 11 12  2  0  0  0  0
 11 13  1  0  0  0  0
 13 14  1  0  0  0  0
 13 39  1  0  0  0  0
 13 40  1  0  0  0  0
 14 19  1  0  0  0  0
 14 15  1  0  0  0  0
 15 16  2  0  0  0  0
 15 41  1  0  0  0  0
 16 17  1  0  0  0  0
 16 42  1  0  0  0  0
 17 18  2  0  0  0  0
 17 43  1  0  0  0  0
 18 19  1  0  0  0  0
 18 44  1  0  0  0  0
 19 20  2  0  0  0  0
 21 45  1  0  0  0  0
 21 46  1  0  0  0  0
M  CHG  1   7   1
M  END
> <s_m_source_file>
AV-unprocessed.smi

> <i_m_source_file_index>
1352

> <i_lp_mmshare_version>
43012

> <i_f3d_flags>
0

> <s_epik_input>
W0NIM11bQ0BASF0xW0NIMl1bQ0BASF0oW0NIM10pW0NIMl1OKFtDSDJdMSlbQ0gyXVtDSDJdW05IXUMoPU8pW0NIMl1uMltjSF1bY0hdW2NIXVtjSF1jMj1P

> <s_epik_cmdline>
J2VwaWtfcHl0aG9uJywgJy1waCcsICc3LjAnLCAnLXRuJywgJzgnLCAnLW1hJywgJzIwMCcsICctbWV0YWxfYmluZGluZycsICctaW1hZScsICc8aW5maWxlLm1hZT4nLCAnLW9tYWUnLCAnPG91dGZpbGUubWFlPic=

> <r_lp_tautomer_probability>
1

> <r_epik_Ionization_Penalty>
0.00156146

> <r_epik_Ionization_Penalty_Charging>
0.00156138

> <r_epik_Ionization_Penalty_Neutral>
8.12891e-08

> <r_epik_State_Penalty>
0.00104868

> <r_epik_Charging_Adjusted_Penalty>
0.00261006

> <i_epik_Tot_Q>
1

> <i_epik_Tot_abs_Q>
1

> <r_epik_Metal_State_Penalty>
-0

> <b_epik_Metal_Only>
0

> <s_lp_Force_Field>
OPLS_2005

> <r_lp_Energy>
25.1883

> <b_lp_Chiralities_Consistent>
1

> <s_lp_Variant>
AV-unprocessed.smi:1352-3

> <Gold.Version>
5.8.1

> <Gold.Id.Protein>
6NUR|6NUR_protein|mol2

> <Gold.PLP.Fitness>
51.6465

> <Gold.PLP.PLP>
-36.0701

> <Gold.PLP.part.hbond>
-4.6223

> <Gold.PLP.part.metal>
0.0000

> <Gold.PLP.part.buried>
2.5706

> <Gold.PLP.part.nonpolar>
-34.4232

> <Gold.PLP.part.repulsive>
0.0967

> <Gold.PLP.ligand.clash>
0.0000

> <Gold.PLP.ligand.torsion>
1.2125

> <Gold.PLP.Chemscore.Hbond>
4.9913

> <Gold.PLP.Chemscore.CHOScore>
1.0000

> <Gold.PLP.Chemscore.Metal>
0.0000

> <Gold.Chemscore.Hbonds>
donor molecule, donor type, donor heavy atom, donor atom, acceptor molecule, acceptor atom, score
      L1  H     7    47       P1  7948  2.00
      L1  H    10    38       P1  7948  1.00
      P1  H  7997  8008       L1    20  1.00
      P1  H 10752 10764       L1    12  0.75
      L1  C    15    41       P1  7948  0.94

> <Gold.PLP.Chemscore.Internal.Correction>
0.0276

> <Gold.Rescore>
     Score         DG    S(hbond)    S(metal)    S(lipo)     H(rot)  DE(clash)    DE(int)     intcor
     19.98     -21.20       3.60        0.00      71.64       1.83       0.05       1.18       ----

> <Gold.Chemscore.Fitness>
19.9797

> <Gold.Chemscore.DG>
-21.2032

> <Gold.Chemscore.ZeroCoef>
-5.4800

> <Gold.Chemscore.Hbond>
3.6027

> <Gold.Chemscore.Metal>
0.0000

> <Gold.Chemscore.Lipo>
71.6444

> <Gold.Chemscore.Internal_Hbond>
0.0000

> <Gold.Chemscore.DEClash>
0.0463

> <Gold.Chemscore.DEInternal>
1.1773

> <Gold.Chemscore.Rot>
1.8329

> <Gold.Chemscore.Internal.Correction>
   9.000000E+99

> <Gold.Chemscore.Hbonds>
donor molecule, donor type, donor heavy atom, donor atom, acceptor molecule, acceptor atom, score
      L1  H     7    47       P1  7948  1.00
      L1  H    10    38       P1  7948  0.60
      P1  H  7997  8008       L1    20  0.95
      P1  H 10752 10764       L1    12  0.09

> <Gold.Chemscore.Hbond.Weighted>
-12.0330

> <Gold.Chemscore.Metal.Weighted>
-0.0000

> <Gold.Chemscore.Lipo.Weighted>
-8.3824

> <Gold.Chemscore.Internal_Hbond.Weighted>
0.0000

> <Gold.Chemscore.DEClash.Weighted>
0.0463

> <Gold.Chemscore.DEInternal.Weighted>
1.1773

> <Gold.Chemscore.Rot.Weighted>
4.6922

> <Gold.Chemscore.Internal.Correction.Weighted>
   9.000000E+99

> <Gold.Protein.RotatedTorsions>
[ 6907 6896 6895 6894 ] final   19.94 input  -60.11 | X-H torsion
[ 7974 7965 7964 7962 ] final  -41.16 input  175.53 | X-H torsion
[ 8008 7997 7996 7995 ] final  -40.58 input   59.86 | X-H torsion
[ 10167 10162 10161 10158 ] final  173.41 input  -65.29 | X-H torsion
[ 10718 10713 10712 10709 ] final  -21.29 input   66.30 | X-H torsion
[ 10763 10752 10751 10750 ] final  -27.69 input  -60.55 | X-H torsion
[ 11005 11000 10999 10996 ] final   30.74 input  -57.11 | X-H torsion

> <Gold.Protein.ActiveResidues>
 VAL166  LYS551  ARG553  GLY616  TRP617  ASP618  TYR619  PRO620  LYS621  CYS622 
 ASP623  PHE694  ASN695  SER759  ASP760  ASP761  ALA762  ILE779  LEU786  VAL792 
 PHE793  MET794  SER795  GLU796  ALA797  LYS798  CYS799  TRP800  GLU811  SER814 

> <Gold.Protein.RotatedAtoms>
  151.8887  135.0425  160.0495 H   0  0  0  0  0  0  0  0  0  0  0  0  # atno 6907 bound_to 6896
  152.2453  133.5165  159.5302 H   0  0  0  0  0  0  0  0  0  0  0  0  # atno 6908 bound_to 6896
  150.7066  134.0950  159.3987 H   0  0  0  0  0  0  0  0  0  0  0  0  # atno 6909 bound_to 6896
  146.0237  140.6818  142.9166 H   0  0  0  0  0  0  0  0  0  0  0  0  # atno 7974 bound_to 7965
  154.4011  140.1521  156.3051 H   0  0  0  0  0  0  0  0  0  0  0  0  # atno 8008 bound_to 7997
  155.8666  140.3451  155.5770 H   0  0  0  0  0  0  0  0  0  0  0  0  # atno 8009 bound_to 7997
  155.7821  140.0845  157.2044 H   0  0  0  0  0  0  0  0  0  0  0  0  # atno 8010 bound_to 7997
  139.5107  144.3263  152.0154 H   0  0  0  0  0  0  0  0  0  0  0  0  # atno 10167 bound_to 10162
  156.5202  130.4630  149.6601 H   0  0  0  0  0  0  0  0  0  0  0  0  # atno 10718 bound_to 10713
  153.7362  135.6935  153.4977 H   0  0  0  0  0  0  0  0  0  0  0  0  # atno 10763 bound_to 10752
  153.2101  135.4406  155.0369 H   0  0  0  0  0  0  0  0  0  0  0  0  # atno 10764 bound_to 10752
  154.8236  135.3435  154.6889 H   0  0  0  0  0  0  0  0  0  0  0  0  # atno 10765 bound_to 10752
  140.2912  134.2862  155.7775 H   0  0  0  0  0  0  0  0  0  0  0  0  # atno 11005 bound_to 11000
  144.7000  140.3612  143.7163 LP  0  0  0  0  0  0  0  0  0  0  0  0  # atno 17320 bound_to 7965
  145.7152  139.1695  143.2516 LP  0  0  0  0  0  0  0  0  0  0  0  0  # atno 17321 bound_to 7965
  140.2704  144.3970  150.6153 LP  0  0  0  0  0  0  0  0  0  0  0  0  # atno 17342 bound_to 10162
  140.6092  143.2169  151.6919 LP  0  0  0  0  0  0  0  0  0  0  0  0  # atno 17343 bound_to 10162
  156.3156  130.7253  151.2155 LP  0  0  0  0  0  0  0  0  0  0  0  0  # atno 17370 bound_to 10713
  157.7438  131.0469  150.4918 LP  0  0  0  0  0  0  0  0  0  0  0  0  # atno 17371 bound_to 10713
  141.2146  133.7586  156.9627 LP  0  0  0  0  0  0  0  0  0  0  0  0  # atno 17394 bound_to 11000
  140.1194  134.9427  157.2181 LP  0  0  0  0  0  0  0  0  0  0  0  0  # atno 17395 bound_to 11000

$$$$
