AV-unprocessed.smi:3330|AV-procd|sdf|12803|dock4
  -GOLD-   2272019163D 1   1.00000     0.00000
 Structure written by MMmdl.
 39 40  0  0  0  0  0  0  0  0  2 V2000
  145.5434  136.1828  151.6628 C   0  0  0  0  0  0  0  0  0  0  0  0
  145.6982  135.0146  152.6539 C   0  0  2  0  0  0  0  0  0  0  0  0
  147.0627  134.4563  152.5195 N   0  3  0  0  0  0  0  0  0  0  0  0
  147.6032  133.8351  153.7453 C   0  0  0  0  0  0  0  0  0  0  0  0
  148.8848  133.0452  153.4412 C   0  0  0  0  0  0  0  0  0  0  0  0
  149.7616  132.9833  154.6131 N   0  0  0  0  0  0  0  0  0  0  0  0
  150.2078  134.0552  155.2805 C   0  0  0  0  0  0  0  0  0  0  0  0
  149.9749  135.2383  155.0363 O   0  0  0  0  0  0  0  0  0  0  0  0
  151.0639  133.5791  156.4339 C   0  0  0  0  0  0  0  0  0  0  0  0
  150.9550  132.1499  156.2323 N   0  0  0  0  0  0  0  0  0  0  0  0
  150.1916  131.8397  155.1766 C   0  0  0  0  0  0  0  0  0  0  0  0
  149.9285  130.6985  154.8003 O   0  0  0  0  0  0  0  0  0  0  0  0
  144.6313  133.9037  152.4530 C   0  0  1  0  0  0  0  0  0  0  0  0
  143.1865  134.4374  152.4935 C   0  0  0  0  0  0  0  0  0  0  0  0
  144.8491  133.1525  151.2229 N   0  0  0  0  0  0  0  0  0  0  0  0
  143.9922  132.9992  150.1525 C   0  0  0  0  0  0  0  0  0  0  0  0
  144.6238  132.2125  149.2326 C   0  0  0  0  0  0  0  0  0  0  0  0
  145.8816  131.9313  149.8347 C   0  0  0  0  0  0  0  0  0  0  0  0
  146.0142  132.4949  151.0242 N   0  0  0  0  0  0  0  0  0  0  0  0
  144.5951  136.7042  151.7942 H   0  0  0  0  0  0  0  0  0  0  0  0
  145.5924  135.8358  150.6302 H   0  0  0  0  0  0  0  0  0  0  0  0
  146.3338  136.9210  151.8026 H   0  0  0  0  0  0  0  0  0  0  0  0
  145.5829  135.4322  153.6559 H   0  0  0  0  0  0  0  0  0  0  0  0
  147.0552  133.7685  151.7799 H   0  0  0  0  0  0  0  0  0  0  0  0
  147.8082  134.6160  154.4791 H   0  0  0  0  0  0  0  0  0  0  0  0
  146.8521  133.1746  154.1798 H   0  0  0  0  0  0  0  0  0  0  0  0
  148.6319  132.0340  153.1169 H   0  0  0  0  0  0  0  0  0  0  0  0
  149.4145  133.5003  152.6023 H   0  0  0  0  0  0  0  0  0  0  0  0
  152.0946  133.9225  156.3403 H   0  0  0  0  0  0  0  0  0  0  0  0
  150.6498  133.8829  157.3959 H   0  0  0  0  0  0  0  0  0  0  0  0
  151.4026  131.4736  156.8342 H   0  0  0  0  0  0  0  0  0  0  0  0
  144.7362  133.1901  153.2719 H   0  0  0  0  0  0  0  0  0  0  0  0
  142.9423  134.8597  153.4682 H   0  0  0  0  0  0  0  0  0  0  0  0
  142.4696  133.6379  152.3033 H   0  0  0  0  0  0  0  0  0  0  0  0
  143.0240  135.2126  151.7440 H   0  0  0  0  0  0  0  0  0  0  0  0
  143.0136  133.4561  150.1347 H   0  0  0  0  0  0  0  0  0  0  0  0
  144.2459  131.8881  148.2744 H   0  0  0  0  0  0  0  0  0  0  0  0
  146.6963  131.3388  149.4449 H   0  0  0  0  0  0  0  0  0  0  0  0
  147.6847  135.2061  152.2530 H   0  0  0  0  0  0  0  0  0  0  0  0
  1  2  1  0  0  0  0
  1 20  1  0  0  0  0
  1 21  1  0  0  0  0
  1 22  1  0  0  0  0
  2  3  1  0  0  0  0
  2 13  1  0  0  0  0
  2 23  1  0  0  0  0
  3  4  1  0  0  0  0
  3 24  1  0  0  0  0
  3 39  1  0  0  0  0
  4  5  1  0  0  0  0
  4 25  1  0  0  0  0
  4 26  1  0  0  0  0
  5  6  1  0  0  0  0
  5 27  1  0  0  0  0
  5 28  1  0  0  0  0
  6 11  1  0  0  0  0
  6  7  1  0  0  0  0
  7  8  2  0  0  0  0
  7  9  1  0  0  0  0
  9 10  1  0  0  0  0
  9 29  1  0  0  0  0
  9 30  1  0  0  0  0
 10 11  1  0  0  0  0
 10 31  1  0  0  0  0
 11 12  2  0  0  0  0
 13 14  1  0  0  0  0
 13 15  1  0  0  0  0
 13 32  1  0  0  0  0
 14 33  1  0  0  0  0
 14 34  1  0  0  0  0
 14 35  1  0  0  0  0
 15 19  1  0  0  0  0
 15 16  1  0  0  0  0
 16 17  2  0  0  0  0
 16 36  1  0  0  0  0
 17 18  1  0  0  0  0
 17 37  1  0  0  0  0
 18 19  2  0  0  0  0
 18 38  1  0  0  0  0
M  CHG  1   3   1
M  END
> <s_m_source_file>
AV-unprocessed.smi

> <i_m_source_file_index>
3330

> <i_lp_mmshare_version>
43012

> <i_f3d_flags>
0

> <s_epik_input>
bjFbY0hdW2NIXVtjSF1uMVtDQEBIXShbQ0gzXSlbQ0BIXShbQ0gzXSlbTkhdW0NIMl1bQ0gyXU4yQyg9TylbQ0gyXVtOSF1DMj1P

> <s_epik_cmdline>
J2VwaWtfcHl0aG9uJywgJy1waCcsICc3LjAnLCAnLXRuJywgJzgnLCAnLW1hJywgJzIwMCcsICctbWV0YWxfYmluZGluZycsICctaW1hZScsICc8aW5maWxlLm1hZT4nLCAnLW9tYWUnLCAnPG91dGZpbGUubWFlPic=

> <r_lp_tautomer_probability>
1

> <r_epik_Ionization_Penalty>
0.0124905

> <r_epik_Ionization_Penalty_Charging>
0.0123685

> <r_epik_Ionization_Penalty_Neutral>
0.000122059

> <r_epik_State_Penalty>
0.00957041

> <r_epik_Charging_Adjusted_Penalty>
0.0219389

> <i_epik_Tot_Q>
1

> <i_epik_Tot_abs_Q>
1

> <r_epik_Metal_State_Penalty>
0.0858301

> <b_epik_Metal_Only>
0

> <s_lp_Force_Field>
OPLS_2005

> <r_lp_Energy>
25.3738

> <b_lp_Chiralities_Consistent>
1

> <s_lp_Variant>
AV-unprocessed.smi:3330-3

> <Gold.Version>
5.8.1

> <Gold.Id.Protein>
6NUR|6NUR_protein|mol2

> <Gold.PLP.Fitness>
46.1687

> <Gold.PLP.PLP>
-35.1435

> <Gold.PLP.part.hbond>
-1.0000

> <Gold.PLP.part.metal>
0.0000

> <Gold.PLP.part.buried>
-5.6916

> <Gold.PLP.part.nonpolar>
-28.9915

> <Gold.PLP.part.repulsive>
0.3908

> <Gold.PLP.ligand.clash>
0.0000

> <Gold.PLP.ligand.torsion>
0.6019

> <Gold.PLP.Chemscore.Hbond>
2.0000

> <Gold.PLP.Chemscore.CHOScore>
2.0000

> <Gold.PLP.Chemscore.Metal>
0.0000

> <Gold.Chemscore.Hbonds>
donor molecule, donor type, donor heavy atom, donor atom, acceptor molecule, acceptor atom, score
      L1  H     3    39       P1  7948  2.00
      L1  C    16    36       P1 10186  1.00
      L1  C    18    38       P1 10747  1.00

> <Gold.PLP.Chemscore.Internal.Correction>
0.2289

> <Gold.Rescore>
     Score         DG    S(hbond)    S(metal)    S(lipo)     H(rot)  DE(clash)    DE(int)     intcor
      7.78      -9.89       0.99        0.00      67.64       2.67       0.04       2.06       ----

> <Gold.Chemscore.Fitness>
7.7805

> <Gold.Chemscore.DG>
-9.8883

> <Gold.Chemscore.ZeroCoef>
-5.4800

> <Gold.Chemscore.Hbond>
0.9942

> <Gold.Chemscore.Metal>
0.0000

> <Gold.Chemscore.Lipo>
67.6413

> <Gold.Chemscore.Internal_Hbond>
0.0000

> <Gold.Chemscore.DEClash>
0.0449

> <Gold.Chemscore.DEInternal>
2.0629

> <Gold.Chemscore.Rot>
2.6666

> <Gold.Chemscore.Internal.Correction>
   9.000000E+99

> <Gold.Chemscore.Hbonds>
donor molecule, donor type, donor heavy atom, donor atom, acceptor molecule, acceptor atom, score
      L1  H     3    39       P1  7948  0.98

> <Gold.Chemscore.Hbond.Weighted>
-3.3208

> <Gold.Chemscore.Metal.Weighted>
-0.0000

> <Gold.Chemscore.Lipo.Weighted>
-7.9140

> <Gold.Chemscore.Internal_Hbond.Weighted>
0.0000

> <Gold.Chemscore.DEClash.Weighted>
0.0449

> <Gold.Chemscore.DEInternal.Weighted>
2.0629

> <Gold.Chemscore.Rot.Weighted>
6.8265

> <Gold.Chemscore.Internal.Correction.Weighted>
   9.000000E+99

> <Gold.Protein.RotatedTorsions>
[ 6907 6896 6895 6894 ] final    6.65 input  -60.11 | X-H torsion
[ 7974 7965 7964 7962 ] final  -70.51 input  175.53 | X-H torsion
[ 8008 7997 7996 7995 ] final -125.84 input   59.86 | X-H torsion
[ 10167 10162 10161 10158 ] final  163.00 input  -65.29 | X-H torsion
[ 10718 10713 10712 10709 ] final   45.68 input   66.30 | X-H torsion
[ 10763 10752 10751 10750 ] final  -35.01 input  -60.55 | X-H torsion
[ 11005 11000 10999 10996 ] final  150.76 input  -57.11 | X-H torsion

> <Gold.Protein.ActiveResidues>
 VAL166  LYS551  ARG553  GLY616  TRP617  ASP618  TYR619  PRO620  LYS621  CYS622 
 ASP623  PHE694  ASN695  SER759  ASP760  ASP761  ALA762  ILE779  LEU786  VAL792 
 PHE793  MET794  SER795  GLU796  ALA797  LYS798  CYS799  TRP800  GLU811  SER814 

> <Gold.Protein.RotatedAtoms>
  151.6772  135.0967  160.0208 H   0  0  0  0  0  0  0  0  0  0  0  0  # atno 6907 bound_to 6896
  152.3857  133.6603  159.6205 H   0  0  0  0  0  0  0  0  0  0  0  0  # atno 6908 bound_to 6896
  150.7783  133.8956  159.3367 H   0  0  0  0  0  0  0  0  0  0  0  0  # atno 6909 bound_to 6896
  145.6900  140.9156  143.0786 H   0  0  0  0  0  0  0  0  0  0  0  0  # atno 7974 bound_to 7965
  155.2199  140.0421  157.2946 H   0  0  0  0  0  0  0  0  0  0  0  0  # atno 8008 bound_to 7997
  154.5956  140.2438  155.7831 H   0  0  0  0  0  0  0  0  0  0  0  0  # atno 8009 bound_to 7997
  156.2288  140.2945  156.0144 H   0  0  0  0  0  0  0  0  0  0  0  0  # atno 8010 bound_to 7997
  139.4868  144.4381  151.8986 H   0  0  0  0  0  0  0  0  0  0  0  0  # atno 10167 bound_to 10162
  157.4402  130.8076  149.7686 H   0  0  0  0  0  0  0  0  0  0  0  0  # atno 10718 bound_to 10713
  153.8561  135.6844  153.4787 H   0  0  0  0  0  0  0  0  0  0  0  0  # atno 10763 bound_to 10752
  153.1369  135.4674  154.9434 H   0  0  0  0  0  0  0  0  0  0  0  0  # atno 10764 bound_to 10752
  154.7780  135.3259  154.7999 H   0  0  0  0  0  0  0  0  0  0  0  0  # atno 10765 bound_to 10752
  140.1159  134.8894  157.2003 H   0  0  0  0  0  0  0  0  0  0  0  0  # atno 11005 bound_to 11000
  144.6999  139.8809  143.7447 LP  0  0  0  0  0  0  0  0  0  0  0  0  # atno 17320 bound_to 7965
  146.0890  139.3879  143.0417 LP  0  0  0  0  0  0  0  0  0  0  0  0  # atno 17321 bound_to 7965
  140.3832  144.2710  150.5906 LP  0  0  0  0  0  0  0  0  0  0  0  0  # atno 17342 bound_to 10162
  140.5214  143.2265  151.8382 LP  0  0  0  0  0  0  0  0  0  0  0  0  # atno 17343 bound_to 10162
  155.9945  130.3917  150.2854 LP  0  0  0  0  0  0  0  0  0  0  0  0  # atno 17370 bound_to 10713
  157.1018  131.0198  151.3082 LP  0  0  0  0  0  0  0  0  0  0  0  0  # atno 17371 bound_to 10713
  140.3029  134.3111  155.7285 LP  0  0  0  0  0  0  0  0  0  0  0  0  # atno 17394 bound_to 11000
  141.2141  133.7603  156.9666 LP  0  0  0  0  0  0  0  0  0  0  0  0  # atno 17395 bound_to 11000

$$$$
