AV-unprocessed.smi:1495|AV-procd|sdf|6053|dock6
  -GOLD-   22720 6173D 1   1.00000     0.00000
 Structure written by MMmdl.
 40 41  0  0  0  0  0  0  0  0  1 V2000
  146.8080  138.8688  152.9440 C   0  0  0  0  0  0  0  0  0  0  0  0
  146.9374  139.1042  154.4538 C   0  0  0  0  0  0  0  0  0  0  0  0
  148.3127  138.7014  155.0075 C   0  0  2  0  0  0  0  0  0  0  0  0
  149.4431  139.5978  154.4608 C   0  0  0  0  0  0  0  0  0  0  0  0
  150.7185  139.1199  155.0142 N   0  0  0  0  0  0  0  0  0  0  0  0
  151.4698  139.7311  155.9637 C   0  0  0  0  0  0  0  0  0  0  0  0
  152.6699  139.5048  156.1249 O   0  0  0  0  0  0  0  0  0  0  0  0
  150.8103  140.6367  156.7032 N   0  0  0  0  0  0  0  0  0  0  0  0
  151.4048  141.4252  157.7732 C   0  0  0  0  0  0  0  0  0  0  0  0
  151.2453  142.9250  157.4897 C   0  0  0  0  0  0  0  0  0  0  0  0
  151.5501  143.7638  158.6932 C   0  0  0  0  0  0  0  0  0  0  0  0
  151.4121  145.1250  158.8045 C   0  0  0  0  0  0  0  0  0  0  0  0
  151.8715  145.6974  160.3845 S   0  0  0  0  0  0  0  0  0  0  0  0
  152.2386  144.0389  160.8443 C   0  0  0  0  0  0  0  0  0  0  0  0
  152.7446  143.6541  162.1920 C   0  0  0  0  0  0  0  0  0  0  0  0
  152.0218  143.1598  159.8628 N   0  0  0  0  0  0  0  0  0  0  0  0
  150.9687  137.7439  154.5786 C   0  0  0  0  0  0  0  0  0  0  0  0
  149.8277  136.8577  155.1081 C   0  0  0  0  0  0  0  0  0  0  0  0
  148.5781  137.3502  154.6289 O   0  0  0  0  0  0  0  0  0  0  0  0
  145.8153  139.1493  152.5917 H   0  0  0  0  0  0  0  0  0  0  0  0
  146.9656  137.8193  152.6937 H   0  0  0  0  0  0  0  0  0  0  0  0
  147.5362  139.4592  152.3875 H   0  0  0  0  0  0  0  0  0  0  0  0
  146.7421  140.1536  154.6780 H   0  0  0  0  0  0  0  0  0  0  0  0
  146.1611  138.5323  154.9631 H   0  0  0  0  0  0  0  0  0  0  0  0
  148.2899  138.7718  156.0968 H   0  0  0  0  0  0  0  0  0  0  0  0
  149.4799  139.5354  153.3721 H   0  0  0  0  0  0  0  0  0  0  0  0
  149.2289  140.6424  154.6858 H   0  0  0  0  0  0  0  0  0  0  0  0
  149.8308  140.7868  156.5105 H   0  0  0  0  0  0  0  0  0  0  0  0
  150.9262  141.1720  158.7210 H   0  0  0  0  0  0  0  0  0  0  0  0
  152.4614  141.1675  157.8648 H   0  0  0  0  0  0  0  0  0  0  0  0
  151.8990  143.2117  156.6646 H   0  0  0  0  0  0  0  0  0  0  0  0
  150.2286  143.1239  157.1479 H   0  0  0  0  0  0  0  0  0  0  0  0
  151.0674  145.8228  158.0559 H   0  0  0  0  0  0  0  0  0  0  0  0
  152.2193  142.7698  162.5540 H   0  0  0  0  0  0  0  0  0  0  0  0
  152.5888  144.4667  162.9017 H   0  0  0  0  0  0  0  0  0  0  0  0
  153.8109  143.4335  162.1404 H   0  0  0  0  0  0  0  0  0  0  0  0
  151.0000  137.7069  153.4888 H   0  0  0  0  0  0  0  0  0  0  0  0
  151.9304  137.3587  154.9201 H   0  0  0  0  0  0  0  0  0  0  0  0
  149.9570  135.8305  154.7671 H   0  0  0  0  0  0  0  0  0  0  0  0
  149.8261  136.8356  156.1991 H   0  0  0  0  0  0  0  0  0  0  0  0
  1  2  1  0  0  0  0
  1 20  1  0  0  0  0
  1 21  1  0  0  0  0
  1 22  1  0  0  0  0
  2  3  1  0  0  0  0
  2 23  1  0  0  0  0
  2 24  1  0  0  0  0
  3 19  1  0  0  0  0
  3  4  1  0  0  0  0
  3 25  1  0  0  0  0
  4  5  1  0  0  0  0
  4 26  1  0  0  0  0
  4 27  1  0  0  0  0
  5  6  1  0  0  0  0
  5 17  1  0  0  0  0
  6  7  2  0  0  0  0
  6  8  1  0  0  0  0
  8  9  1  0  0  0  0
  8 28  1  0  0  0  0
  9 10  1  0  0  0  0
  9 29  1  0  0  0  0
  9 30  1  0  0  0  0
 10 11  1  0  0  0  0
 10 31  1  0  0  0  0
 10 32  1  0  0  0  0
 11 16  1  0  0  0  0
 11 12  2  0  0  0  0
 12 13  1  0  0  0  0
 12 33  1  0  0  0  0
 13 14  1  0  0  0  0
 14 15  1  0  0  0  0
 14 16  2  0  0  0  0
 15 34  1  0  0  0  0
 15 35  1  0  0  0  0
 15 36  1  0  0  0  0
 17 18  1  0  0  0  0
 17 37  1  0  0  0  0
 17 38  1  0  0  0  0
 18 19  1  0  0  0  0
 18 39  1  0  0  0  0
 18 40  1  0  0  0  0
M  END
> <s_m_source_file>
AV-unprocessed.smi

> <i_m_source_file_index>
1495

> <i_lp_mmshare_version>
43012

> <i_f3d_flags>
0

> <s_epik_input>
W0NIM11bQ0gyXVtDQEBIXTFbQ0gyXU4oW0NIMl1bQ0gyXU8xKUMoPU8pW05IXVtDSDJdW0NIMl1jMltjSF1zYyhuMilbQ0gzXQ==

> <s_epik_cmdline>
J2VwaWtfcHl0aG9uJywgJy1waCcsICc3LjAnLCAnLXRuJywgJzgnLCAnLW1hJywgJzIwMCcsICctbWV0YWxfYmluZGluZycsICctaW1hZScsICc8aW5maWxlLm1hZT4nLCAnLW9tYWUnLCAnPG91dGZpbGUubWFlPic=

> <r_epik_Ionization_Penalty>
0.00206013

> <r_epik_Ionization_Penalty_Charging>
0

> <r_epik_Ionization_Penalty_Neutral>
0.00206013

> <r_epik_State_Penalty>
0.00138662

> <r_epik_Charging_Adjusted_Penalty>
0.00138662

> <i_epik_Tot_Q>
0

> <i_epik_Tot_abs_Q>
0

> <r_epik_Metal_State_Penalty>
-0

> <b_epik_Metal_Only>
0

> <s_lp_Force_Field>
OPLS_2005

> <r_lp_Energy>
21.6891

> <b_lp_Chiralities_Consistent>
1

> <s_lp_Variant>
AV-unprocessed.smi:1495-1

> <Gold.Version>
5.8.1

> <Gold.Id.Protein>
6NUR|6NUR_protein|mol2

> <Gold.PLP.Fitness>
42.4046

> <Gold.PLP.PLP>
-40.1233

> <Gold.PLP.part.hbond>
-1.0000

> <Gold.PLP.part.metal>
0.0000

> <Gold.PLP.part.buried>
-6.1580

> <Gold.PLP.part.nonpolar>
-35.6866

> <Gold.PLP.part.repulsive>
1.6503

> <Gold.PLP.ligand.clash>
0.0000

> <Gold.PLP.ligand.torsion>
0.3860

> <Gold.PLP.Chemscore.Hbond>
1.0000

> <Gold.PLP.Chemscore.CHOScore>
0.0000

> <Gold.PLP.Chemscore.Metal>
0.0000

> <Gold.Chemscore.Hbonds>
donor molecule, donor type, donor heavy atom, donor atom, acceptor molecule, acceptor atom, score
      P1  H  7997  8009       L1     7  1.00

> <Gold.PLP.Chemscore.Internal.Correction>
0.0533

> <Gold.Rescore>
     Score         DG    S(hbond)    S(metal)    S(lipo)     H(rot)  DE(clash)    DE(int)     intcor
     17.24     -18.07       1.00        0.00     110.12       1.42       0.42       0.41       ----

> <Gold.Chemscore.Fitness>
17.2353

> <Gold.Chemscore.DG>
-18.0653

> <Gold.Chemscore.ZeroCoef>
-5.4800

> <Gold.Chemscore.Hbond>
0.9999

> <Gold.Chemscore.Metal>
0.0000

> <Gold.Chemscore.Lipo>
110.1222

> <Gold.Chemscore.Internal_Hbond>
0.0000

> <Gold.Chemscore.DEClash>
0.4230

> <Gold.Chemscore.DEInternal>
0.4070

> <Gold.Chemscore.Rot>
1.4214

> <Gold.Chemscore.Internal.Correction>
   9.000000E+99

> <Gold.Chemscore.Hbonds>
donor molecule, donor type, donor heavy atom, donor atom, acceptor molecule, acceptor atom, score
      P1  H  7997  8009       L1     7  1.00

> <Gold.Chemscore.Hbond.Weighted>
-3.3398

> <Gold.Chemscore.Metal.Weighted>
-0.0000

> <Gold.Chemscore.Lipo.Weighted>
-12.8843

> <Gold.Chemscore.Internal_Hbond.Weighted>
0.0000

> <Gold.Chemscore.DEClash.Weighted>
0.4230

> <Gold.Chemscore.DEInternal.Weighted>
0.4070

> <Gold.Chemscore.Rot.Weighted>
3.6388

> <Gold.Chemscore.Internal.Correction.Weighted>
   9.000000E+99

> <Gold.Protein.RotatedTorsions>
[ 6907 6896 6895 6894 ] final  -54.37 input  -60.11 | X-H torsion
[ 7974 7965 7964 7962 ] final   59.09 input  175.53 | X-H torsion
[ 8008 7997 7996 7995 ] final -161.17 input   59.86 | X-H torsion
[ 10167 10162 10161 10158 ] final -164.84 input  -65.29 | X-H torsion
[ 10718 10713 10712 10709 ] final -131.63 input   66.30 | X-H torsion
[ 10763 10752 10751 10750 ] final -145.56 input  -60.55 | X-H torsion
[ 11005 11000 10999 10996 ] final  -18.94 input  -57.11 | X-H torsion

> <Gold.Protein.ActiveResidues>
 VAL166  LYS551  ARG553  GLY616  TRP617  ASP618  TYR619  PRO620  LYS621  CYS622 
 ASP623  PHE694  ASN695  SER759  ASP760  ASP761  ALA762  ILE779  LEU786  VAL792 
 PHE793  MET794  SER795  GLU796  ALA797  LYS798  CYS799  TRP800  GLU811  SER814 

> <Gold.Protein.RotatedAtoms>
  150.8344  134.7611  159.6880 H   0  0  0  0  0  0  0  0  0  0  0  0  # atno 6907 bound_to 6896
  152.4443  134.5523  159.9880 H   0  0  0  0  0  0  0  0  0  0  0  0  # atno 6908 bound_to 6896
  151.5676  133.3356  159.3019 H   0  0  0  0  0  0  0  0  0  0  0  0  # atno 6909 bound_to 6896
  145.9110  139.3654  143.0535 H   0  0  0  0  0  0  0  0  0  0  0  0  # atno 7974 bound_to 7965
  155.7883  140.0874  157.2022 H   0  0  0  0  0  0  0  0  0  0  0  0  # atno 8008 bound_to 7997
  154.3986  140.1495  156.3191 H   0  0  0  0  0  0  0  0  0  0  0  0  # atno 8009 bound_to 7997
  155.8584  140.3431  155.5742 H   0  0  0  0  0  0  0  0  0  0  0  0  # atno 8010 bound_to 7997
  139.6223  144.0600  152.1943 H   0  0  0  0  0  0  0  0  0  0  0  0  # atno 10167 bound_to 10162
  156.2264  130.7010  151.0811 H   0  0  0  0  0  0  0  0  0  0  0  0  # atno 10718 bound_to 10713
  154.8378  135.3410  154.6523 H   0  0  0  0  0  0  0  0  0  0  0  0  # atno 10763 bound_to 10752
  153.7136  135.6962  153.5035 H   0  0  0  0  0  0  0  0  0  0  0  0  # atno 10764 bound_to 10752
  153.2433  135.4377  155.0675 H   0  0  0  0  0  0  0  0  0  0  0  0  # atno 10765 bound_to 10752
  140.8317  133.7992  155.9766 H   0  0  0  0  0  0  0  0  0  0  0  0  # atno 11005 bound_to 11000
  145.8672  140.9441  143.0669 LP  0  0  0  0  0  0  0  0  0  0  0  0  # atno 17320 bound_to 7965
  144.6743  140.0607  143.7476 LP  0  0  0  0  0  0  0  0  0  0  0  0  # atno 17321 bound_to 7965
  140.0245  144.6128  150.7539 LP  0  0  0  0  0  0  0  0  0  0  0  0  # atno 17342 bound_to 10162
  140.7389  143.2785  151.3670 LP  0  0  0  0  0  0  0  0  0  0  0  0  # atno 17343 bound_to 10162
  157.7112  131.0733  150.6492 LP  0  0  0  0  0  0  0  0  0  0  0  0  # atno 17370 bound_to 10713
  156.6558  130.4498  149.5704 LP  0  0  0  0  0  0  0  0  0  0  0  0  # atno 17371 bound_to 10713
  140.8990  134.2401  157.5052 LP  0  0  0  0  0  0  0  0  0  0  0  0  # atno 17394 bound_to 11000
  139.8705  134.9698  156.4678 LP  0  0  0  0  0  0  0  0  0  0  0  0  # atno 17395 bound_to 11000

$$$$
