AV-unprocessed.smi:1657|AV-procd|sdf|6647|dock3
  -GOLD-   22720 7353D 1   1.00000     0.00000
 Structure written by MMmdl.
 52 54  0  0  0  0  0  0  0  0  2 V2000
  149.0362  135.1739  156.4645 O   0  0  0  0  0  0  0  0  0  0  0  0
  148.8314  135.5566  155.3125 C   0  0  0  0  0  0  0  0  0  0  0  0
  148.2610  134.7896  154.3726 N   0  0  0  0  0  0  0  0  0  0  0  0
  147.8041  133.4201  154.5796 C   0  0  0  0  0  0  0  0  0  0  0  0
  148.5440  132.4338  153.6558 C   0  0  0  0  0  0  0  0  0  0  0  0
  147.6266  131.7480  152.7114 N   0  3  0  0  0  0  0  0  0  0  0  0
  146.8068  130.7048  153.3820 C   0  0  0  0  0  0  0  0  0  0  0  0
  145.9676  129.9153  152.3632 C   0  0  0  0  0  0  0  0  0  0  0  0
  145.0803  130.8546  151.5366 C   0  0  0  0  0  0  0  0  0  0  0  0
  145.9381  131.9451  150.8822 C   0  0  0  0  0  0  0  0  0  0  0  0
  146.7784  132.6909  151.9328 C   0  0  0  0  0  0  0  0  0  0  0  0
  149.1622  136.7635  154.8229 N   0  0  0  0  0  0  0  0  0  0  0  0
  149.7738  137.8507  155.5029 C   0  0  0  0  0  0  0  0  0  0  0  0
  150.0697  137.8575  156.8853 C   0  0  0  0  0  0  0  0  0  0  0  0
  150.6592  139.0041  157.4510 C   0  0  0  0  0  0  0  0  0  0  0  0
  150.9376  140.1207  156.6269 C   0  0  0  0  0  0  0  0  0  0  0  0
  151.5340  141.2800  157.1716 N   0  0  0  0  0  0  0  0  0  0  0  0
  152.1525  141.1775  158.4928 C   0  0  0  0  0  0  0  0  0  0  0  0
  152.9944  142.4292  158.7922 C   0  0  0  0  0  0  0  0  0  0  0  0
  152.1892  143.5945  158.6512 O   0  0  0  0  0  0  0  0  0  0  0  0
  151.6909  143.7346  157.3252 C   0  0  0  0  0  0  0  0  0  0  0  0
  150.8028  142.5293  156.9710 C   0  0  0  0  0  0  0  0  0  0  0  0
  150.6319  140.1163  155.3058 N   0  0  0  0  0  0  0  0  0  0  0  0
  150.0651  139.0164  154.7679 C   0  0  0  0  0  0  0  0  0  0  0  0
  148.1311  135.1821  153.4513 H   0  0  0  0  0  0  0  0  0  0  0  0
  147.9280  133.1565  155.6304 H   0  0  0  0  0  0  0  0  0  0  0  0
  146.7334  133.3867  154.3765 H   0  0  0  0  0  0  0  0  0  0  0  0
  149.2881  132.9983  153.0918 H   0  0  0  0  0  0  0  0  0  0  0  0
  149.0967  131.6903  154.2324 H   0  0  0  0  0  0  0  0  0  0  0  0
  147.4561  130.0124  153.9194 H   0  0  0  0  0  0  0  0  0  0  0  0
  146.1575  131.1722  154.1240 H   0  0  0  0  0  0  0  0  0  0  0  0
  146.6279  129.3546  151.7000 H   0  0  0  0  0  0  0  0  0  0  0  0
  145.3503  129.1794  152.8794 H   0  0  0  0  0  0  0  0  0  0  0  0
  144.5392  130.2914  150.7755 H   0  0  0  0  0  0  0  0  0  0  0  0
  144.3287  131.3132  152.1807 H   0  0  0  0  0  0  0  0  0  0  0  0
  146.5962  131.4973  150.1360 H   0  0  0  0  0  0  0  0  0  0  0  0
  145.2995  132.6494  150.3479 H   0  0  0  0  0  0  0  0  0  0  0  0
  146.1243  133.2395  152.6127 H   0  0  0  0  0  0  0  0  0  0  0  0
  147.3967  133.4318  151.4277 H   0  0  0  0  0  0  0  0  0  0  0  0
  149.0143  136.9006  153.8336 H   0  0  0  0  0  0  0  0  0  0  0  0
  149.8406  137.0181  157.5235 H   0  0  0  0  0  0  0  0  0  0  0  0
  150.8705  139.0181  158.5096 H   0  0  0  0  0  0  0  0  0  0  0  0
  151.3733  141.0624  159.2475 H   0  0  0  0  0  0  0  0  0  0  0  0
  152.7913  140.2949  158.5453 H   0  0  0  0  0  0  0  0  0  0  0  0
  153.3813  142.3858  159.8104 H   0  0  0  0  0  0  0  0  0  0  0  0
  153.8570  142.4864  158.1262 H   0  0  0  0  0  0  0  0  0  0  0  0
  151.1141  144.6572  157.2590 H   0  0  0  0  0  0  0  0  0  0  0  0
  152.5198  143.8270  156.6213 H   0  0  0  0  0  0  0  0  0  0  0  0
  150.4571  142.6380  155.9443 H   0  0  0  0  0  0  0  0  0  0  0  0
  149.9149  142.5220  157.6046 H   0  0  0  0  0  0  0  0  0  0  0  0
  149.8435  139.0689  153.7119 H   0  0  0  0  0  0  0  0  0  0  0  0
  148.2112  131.2597  152.0482 H   0  0  0  0  0  0  0  0  0  0  0  0
  1  2  2  0  0  0  0
  2  3  1  0  0  0  0
  2 12  1  0  0  0  0
  3  4  1  0  0  0  0
  3 25  1  0  0  0  0
  4  5  1  0  0  0  0
  4 26  1  0  0  0  0
  4 27  1  0  0  0  0
  5  6  1  0  0  0  0
  5 28  1  0  0  0  0
  5 29  1  0  0  0  0
  6 11  1  0  0  0  0
  6  7  1  0  0  0  0
  6 52  1  0  0  0  0
  7  8  1  0  0  0  0
  7 30  1  0  0  0  0
  7 31  1  0  0  0  0
  8  9  1  0  0  0  0
  8 32  1  0  0  0  0
  8 33  1  0  0  0  0
  9 10  1  0  0  0  0
  9 34  1  0  0  0  0
  9 35  1  0  0  0  0
 10 11  1  0  0  0  0
 10 36  1  0  0  0  0
 10 37  1  0  0  0  0
 11 38  1  0  0  0  0
 11 39  1  0  0  0  0
 12 13  1  0  0  0  0
 12 40  1  0  0  0  0
 13 24  1  0  0  0  0
 13 14  2  0  0  0  0
 14 15  1  0  0  0  0
 14 41  1  0  0  0  0
 15 16  2  0  0  0  0
 15 42  1  0  0  0  0
 16 17  1  0  0  0  0
 16 23  1  0  0  0  0
 17 22  1  0  0  0  0
 17 18  1  0  0  0  0
 18 19  1  0  0  0  0
 18 43  1  0  0  0  0
 18 44  1  0  0  0  0
 19 20  1  0  0  0  0
 19 45  1  0  0  0  0
 19 46  1  0  0  0  0
 20 21  1  0  0  0  0
 21 22  1  0  0  0  0
 21 47  1  0  0  0  0
 21 48  1  0  0  0  0
 22 49  1  0  0  0  0
 22 50  1  0  0  0  0
 23 24  2  0  0  0  0
 24 51  1  0  0  0  0
M  CHG  1   6   1
M  END
> <s_m_source_file>
AV-unprocessed.smi

> <i_m_source_file_index>
1657

> <i_lp_mmshare_version>
43012

> <i_f3d_flags>
0

> <s_epik_input>
W0NIMl0xW0NIMl1bQ0gyXVtDSDJdW0NIMl1OMVtDSDJdW0NIMl1bTkhdQyg9TylbTkhdYzJbY0hdW2NIXWMobltjSF0yKU4zW0NIMl1bQ0gyXU9bQ0gyXVtDSDJdMw==

> <s_epik_cmdline>
J2VwaWtfcHl0aG9uJywgJy1waCcsICc3LjAnLCAnLXRuJywgJzgnLCAnLW1hJywgJzIwMCcsICctbWV0YWxfYmluZGluZycsICctaW1hZScsICc8aW5maWxlLm1hZT4nLCAnLW9tYWUnLCAnPG91dGZpbGUubWFlPic=

> <r_lp_tautomer_probability>
1

> <r_epik_Ionization_Penalty>
0.00380107

> <r_epik_Ionization_Penalty_Charging>
0.00211816

> <r_epik_Ionization_Penalty_Neutral>
0.00168291

> <r_epik_State_Penalty>
-0

> <r_epik_Charging_Adjusted_Penalty>
0.00211816

> <i_epik_Tot_Q>
1

> <i_epik_Tot_abs_Q>
1

> <r_epik_Metal_State_Penalty>
-0

> <b_epik_Metal_Only>
0

> <s_lp_Force_Field>
OPLS_2005

> <r_lp_Energy>
33.9821

> <b_lp_Chiralities_Consistent>
1

> <s_lp_Variant>
AV-unprocessed.smi:1657-1

> <Gold.Version>
5.8.1

> <Gold.Id.Protein>
6NUR|6NUR_protein|mol2

> <Gold.PLP.Fitness>
51.5372

> <Gold.PLP.PLP>
-39.4268

> <Gold.PLP.part.hbond>
-3.8559

> <Gold.PLP.part.metal>
0.0000

> <Gold.PLP.part.buried>
-5.4155

> <Gold.PLP.part.nonpolar>
-30.6346

> <Gold.PLP.part.repulsive>
0.1197

> <Gold.PLP.ligand.clash>
0.0000

> <Gold.PLP.ligand.torsion>
0.6429

> <Gold.PLP.Chemscore.Hbond>
3.3260

> <Gold.PLP.Chemscore.CHOScore>
0.9999

> <Gold.PLP.Chemscore.Metal>
0.0000

> <Gold.Chemscore.Hbonds>
donor molecule, donor type, donor heavy atom, donor atom, acceptor molecule, acceptor atom, score
      L1  H     3    25       P1  7948  0.89
      L1  H     6    52       P1 10747  1.00
      L1  H    12    40       P1  7948  0.91
      P1  H  7989  7998       L1    23  0.53
      L1  C    24    51       P1  7957  0.49

> <Gold.PLP.Chemscore.Internal.Correction>
0.4182

> <Gold.Rescore>
     Score         DG    S(hbond)    S(metal)    S(lipo)     H(rot)  DE(clash)    DE(int)     intcor
     21.47     -23.43       2.76        0.00     110.17       1.62       0.06       1.90       ----

> <Gold.Chemscore.Fitness>
21.4656

> <Gold.Chemscore.DG>
-23.4281

> <Gold.Chemscore.ZeroCoef>
-5.4800

> <Gold.Chemscore.Hbond>
2.7562

> <Gold.Chemscore.Metal>
0.0000

> <Gold.Chemscore.Lipo>
110.1692

> <Gold.Chemscore.Internal_Hbond>
0.0000

> <Gold.Chemscore.DEClash>
0.0626

> <Gold.Chemscore.DEInternal>
1.8999

> <Gold.Chemscore.Rot>
1.6201

> <Gold.Chemscore.Internal.Correction>
   9.000000E+99

> <Gold.Chemscore.Hbonds>
donor molecule, donor type, donor heavy atom, donor atom, acceptor molecule, acceptor atom, score
      L1  H     3    25       P1  7948  0.81
      L1  H     6    52       P1 10747  0.98
      L1  H    12    40       P1  7948  0.84
      P1  H  7989  7998       L1    23  0.10

> <Gold.Chemscore.Hbond.Weighted>
-9.2058

> <Gold.Chemscore.Metal.Weighted>
-0.0000

> <Gold.Chemscore.Lipo.Weighted>
-12.8898

> <Gold.Chemscore.Internal_Hbond.Weighted>
0.0000

> <Gold.Chemscore.DEClash.Weighted>
0.0626

> <Gold.Chemscore.DEInternal.Weighted>
1.8999

> <Gold.Chemscore.Rot.Weighted>
4.1475

> <Gold.Chemscore.Internal.Correction.Weighted>
   9.000000E+99

> <Gold.Protein.RotatedTorsions>
[ 6907 6896 6895 6894 ] final   79.19 input  -60.11 | X-H torsion
[ 7974 7965 7964 7962 ] final  -75.37 input  175.53 | X-H torsion
[ 8008 7997 7996 7995 ] final  162.28 input   59.86 | X-H torsion
[ 10167 10162 10161 10158 ] final  114.89 input  -65.29 | X-H torsion
[ 10718 10713 10712 10709 ] final  -27.01 input   66.30 | X-H torsion
[ 10763 10752 10751 10750 ] final   66.11 input  -60.55 | X-H torsion
[ 11005 11000 10999 10996 ] final  -50.72 input  -57.11 | X-H torsion

> <Gold.Protein.ActiveResidues>
 VAL166  LYS551  ARG553  GLY616  TRP617  ASP618  TYR619  PRO620  LYS621  CYS622 
 ASP623  PHE694  ASN695  SER759  ASP760  ASP761  ALA762  ILE779  LEU786  VAL792 
 PHE793  MET794  SER795  GLU796  ALA797  LYS798  CYS799  TRP800  GLU811  SER814 

> <Gold.Protein.RotatedAtoms>
  152.5189  134.3549  159.9263 H   0  0  0  0  0  0  0  0  0  0  0  0  # atno 6907 bound_to 6896
  151.3500  133.3923  159.2687 H   0  0  0  0  0  0  0  0  0  0  0  0  # atno 6908 bound_to 6896
  150.9735  134.9122  159.7860 H   0  0  0  0  0  0  0  0  0  0  0  0  # atno 6909 bound_to 6896
  145.6269  140.9348  143.1108 H   0  0  0  0  0  0  0  0  0  0  0  0  # atno 7974 bound_to 7965
  156.2042  140.1754  156.7834 H   0  0  0  0  0  0  0  0  0  0  0  0  # atno 8008 bound_to 7997
  154.5633  140.0695  156.8883 H   0  0  0  0  0  0  0  0  0  0  0  0  # atno 8009 bound_to 7997
  155.2808  140.3349  155.4261 H   0  0  0  0  0  0  0  0  0  0  0  0  # atno 8010 bound_to 7997
  139.6356  144.7119  151.2341 H   0  0  0  0  0  0  0  0  0  0  0  0  # atno 10167 bound_to 10162
  156.4437  130.4469  149.7035 H   0  0  0  0  0  0  0  0  0  0  0  0  # atno 10718 bound_to 10713
  153.0125  135.5332  154.6772 H   0  0  0  0  0  0  0  0  0  0  0  0  # atno 10763 bound_to 10752
  154.5941  135.2861  155.0606 H   0  0  0  0  0  0  0  0  0  0  0  0  # atno 10764 bound_to 10752
  154.1688  135.6535  153.5056 H   0  0  0  0  0  0  0  0  0  0  0  0  # atno 10765 bound_to 10752
  141.0831  133.6648  156.3772 H   0  0  0  0  0  0  0  0  0  0  0  0  # atno 11005 bound_to 11000
  144.7209  139.8034  143.7382 LP  0  0  0  0  0  0  0  0  0  0  0  0  # atno 17320 bound_to 7965
  146.1387  139.4439  143.0122 LP  0  0  0  0  0  0  0  0  0  0  0  0  # atno 17321 bound_to 7965
  140.7463  143.6402  150.8342 LP  0  0  0  0  0  0  0  0  0  0  0  0  # atno 17342 bound_to 10162
  140.0032  143.5721  152.2867 LP  0  0  0  0  0  0  0  0  0  0  0  0  # atno 17343 bound_to 10162
  156.3890  130.7617  151.2617 LP  0  0  0  0  0  0  0  0  0  0  0  0  # atno 17370 bound_to 10713
  157.7505  131.0273  150.4001 LP  0  0  0  0  0  0  0  0  0  0  0  0  # atno 17371 bound_to 10713
  140.5423  134.6108  157.5383 LP  0  0  0  0  0  0  0  0  0  0  0  0  # atno 17394 bound_to 11000
  139.9647  134.7393  156.0163 LP  0  0  0  0  0  0  0  0  0  0  0  0  # atno 17395 bound_to 11000

$$$$
