AV-unprocessed.smi:513|AV-procd|sdf|2772|dock10
  -GOLD-   2262023243D 1   1.00000     0.00000
 Structure written by MMmdl.
 43 45  0  0  0  0  0  0  0  0  2 V2000
  148.2494  141.4245  154.1057 C   0  0  0  0  0  0  0  0  0  0  0  0
  149.5581  141.6874  154.5802 O   0  0  0  0  0  0  0  0  0  0  0  0
  149.6172  141.7632  155.9937 C   0  0  0  0  0  0  0  0  0  0  0  0
  151.0022  142.2777  156.4019 C   0  0  0  0  0  0  0  0  0  0  0  0
  151.6962  141.3208  157.2597 N   0  0  0  0  0  0  0  0  0  0  0  0
  152.3203  141.5429  158.4499 C   0  0  0  0  0  0  0  0  0  0  0  0
  152.3585  142.8024  159.0516 N   0  0  0  0  0  0  0  0  0  0  0  0
  152.5003  144.0495  158.3037 C   0  0  0  0  0  0  0  0  0  0  0  0
  151.4406  145.0826  158.7300 C   0  0  0  0  0  0  0  0  0  0  0  0
  151.5027  145.3259  160.1865 N   0  3  0  0  0  0  0  0  0  0  0  0
  151.4472  144.0775  160.9752 C   0  0  0  0  0  0  0  0  0  0  0  0
  152.5118  143.0819  160.4787 C   0  0  0  0  0  0  0  0  0  0  0  0
  152.9391  140.4753  158.9607 N   0  0  0  0  0  0  0  0  0  0  0  0
  152.6695  139.4809  158.0333 C   0  0  0  0  0  0  0  0  0  0  0  0
  151.9401  139.9704  156.9985 C   0  0  0  0  0  0  0  0  0  0  0  0
  151.5620  139.1423  155.8441 C   0  0  0  0  0  0  0  0  0  0  0  0
  150.9235  139.5661  154.8834 O   0  0  0  0  0  0  0  0  0  0  0  0
  152.0017  137.8639  155.9391 N   0  0  0  0  0  0  0  0  0  0  0  0
  152.7325  137.3084  156.9531 C   0  0  0  0  0  0  0  0  0  0  0  0
  153.0717  136.1269  156.8901 O   0  0  0  0  0  0  0  0  0  0  0  0
  153.0642  138.1129  158.0134 N   0  0  0  0  0  0  0  0  0  0  0  0
  153.8501  137.5792  159.1276 C   0  0  0  0  0  0  0  0  0  0  0  0
  151.7702  137.2527  155.1695 H   0  0  0  0  0  0  0  0  0  0  0  0
  148.2557  141.3892  153.0164 H   0  0  0  0  0  0  0  0  0  0  0  0
  147.5533  142.2059  154.4132 H   0  0  0  0  0  0  0  0  0  0  0  0
  147.8826  140.4647  154.4719 H   0  0  0  0  0  0  0  0  0  0  0  0
  148.8412  142.4317  156.3700 H   0  0  0  0  0  0  0  0  0  0  0  0
  149.4408  140.7758  156.4236 H   0  0  0  0  0  0  0  0  0  0  0  0
  151.5969  142.4856  155.5183 H   0  0  0  0  0  0  0  0  0  0  0  0
  150.9193  143.2370  156.9086 H   0  0  0  0  0  0  0  0  0  0  0  0
  153.5043  144.4483  158.4563 H   0  0  0  0  0  0  0  0  0  0  0  0
  152.4046  143.8502  157.2357 H   0  0  0  0  0  0  0  0  0  0  0  0
  151.5890  146.0241  158.2012 H   0  0  0  0  0  0  0  0  0  0  0  0
  150.4429  144.7243  158.4725 H   0  0  0  0  0  0  0  0  0  0  0  0
  152.3781  145.7870  160.3895 H   0  0  0  0  0  0  0  0  0  0  0  0
  151.6030  144.3105  162.0285 H   0  0  0  0  0  0  0  0  0  0  0  0
  150.4495  143.6455  160.8867 H   0  0  0  0  0  0  0  0  0  0  0  0
  152.4853  142.1593  161.0573 H   0  0  0  0  0  0  0  0  0  0  0  0
  153.5067  143.4981  160.6440 H   0  0  0  0  0  0  0  0  0  0  0  0
  153.4814  136.6015  159.4423 H   0  0  0  0  0  0  0  0  0  0  0  0
  153.8159  138.2266  160.0039 H   0  0  0  0  0  0  0  0  0  0  0  0
  154.8946  137.4713  158.8324 H   0  0  0  0  0  0  0  0  0  0  0  0
  150.7423  145.9319  160.4597 H   0  0  0  0  0  0  0  0  0  0  0  0
  1  2  1  0  0  0  0
  1 24  1  0  0  0  0
  1 25  1  0  0  0  0
  1 26  1  0  0  0  0
  2  3  1  0  0  0  0
  3  4  1  0  0  0  0
  3 27  1  0  0  0  0
  3 28  1  0  0  0  0
  4  5  1  0  0  0  0
  4 29  1  0  0  0  0
  4 30  1  0  0  0  0
  5 15  1  0  0  0  0
  5  6  1  0  0  0  0
  6  7  1  0  0  0  0
  6 13  2  0  0  0  0
  7 12  1  0  0  0  0
  7  8  1  0  0  0  0
  8  9  1  0  0  0  0
  8 31  1  0  0  0  0
  8 32  1  0  0  0  0
  9 10  1  0  0  0  0
  9 33  1  0  0  0  0
  9 34  1  0  0  0  0
 10 11  1  0  0  0  0
 10 35  1  0  0  0  0
 10 43  1  0  0  0  0
 11 12  1  0  0  0  0
 11 36  1  0  0  0  0
 11 37  1  0  0  0  0
 12 38  1  0  0  0  0
 12 39  1  0  0  0  0
 13 14  1  0  0  0  0
 14 21  1  0  0  0  0
 14 15  2  0  0  0  0
 15 16  1  0  0  0  0
 16 17  2  0  0  0  0
 16 18  1  0  0  0  0
 18 23  1  0  0  0  0
 18 19  1  0  0  0  0
 19 20  2  0  0  0  0
 19 21  1  0  0  0  0
 21 22  1  0  0  0  0
 22 40  1  0  0  0  0
 22 41  1  0  0  0  0
 22 42  1  0  0  0  0
M  CHG  1  10   1
M  END
> <s_m_source_file>
AV-unprocessed.smi

> <i_m_source_file_index>
513

> <i_lp_mmshare_version>
43012

> <i_f3d_flags>
0

> <s_epik_input>
W0NIM11uMWMoPU8pW25IXWMoPU8pYyhjMTIpbihbQ0gyXVtDSDJdT1tDSDNdKWMobjIpTjNbQ0gyXVtDSDJdW05IXVtDSDJdW0NIMl0z

> <s_epik_cmdline>
J2VwaWtfcHl0aG9uJywgJy1waCcsICc3LjAnLCAnLXRuJywgJzgnLCAnLW1hJywgJzIwMCcsICctbWV0YWxfYmluZGluZycsICctaW1hZScsICc8aW5maWxlLm1hZT4nLCAnLW9tYWUnLCAnPG91dGZpbGUubWFlPic=

> <r_epik_Ionization_Penalty>
0.00860422

> <r_epik_Ionization_Penalty_Charging>
0.00860232

> <r_epik_Ionization_Penalty_Neutral>
1.90009e-06

> <r_epik_State_Penalty>
0.00646614

> <r_epik_Charging_Adjusted_Penalty>
0.0150685

> <i_epik_Tot_Q>
1

> <i_epik_Tot_abs_Q>
1

> <r_epik_Metal_State_Penalty>
0.0348233

> <b_epik_Metal_Only>
0

> <s_lp_Force_Field>
OPLS_2005

> <r_lp_Energy>
48.3968

> <b_lp_Chiralities_Consistent>
1

> <s_lp_Variant>
AV-unprocessed.smi:513-1

> <Gold.Version>
5.8.1

> <Gold.Id.Protein>
6NUR|6NUR_protein|mol2

> <Gold.PLP.Fitness>
45.1020

> <Gold.PLP.PLP>
-40.4233

> <Gold.PLP.part.hbond>
-3.9879

> <Gold.PLP.part.metal>
0.0000

> <Gold.PLP.part.buried>
-4.2919

> <Gold.PLP.part.nonpolar>
-32.0244

> <Gold.PLP.part.repulsive>
0.5174

> <Gold.PLP.ligand.clash>
0.0000

> <Gold.PLP.ligand.torsion>
0.9187

> <Gold.PLP.Chemscore.Hbond>
2.0040

> <Gold.PLP.Chemscore.CHOScore>
0.0000

> <Gold.PLP.Chemscore.Metal>
0.0000

> <Gold.Chemscore.Hbonds>
donor molecule, donor type, donor heavy atom, donor atom, acceptor molecule, acceptor atom, score
      P1  H  7989  7998       L1    17  1.00
      P1  H 10752 10765       L1    20  1.00

> <Gold.PLP.Chemscore.Internal.Correction>
0.5040

> <Gold.Rescore>
     Score         DG    S(hbond)    S(metal)    S(lipo)     H(rot)  DE(clash)    DE(int)     intcor
     14.35     -17.39       1.99        0.00      79.30       1.57       0.11       2.94       ----

> <Gold.Chemscore.Fitness>
14.3451

> <Gold.Chemscore.DG>
-17.3928

> <Gold.Chemscore.ZeroCoef>
-5.4800

> <Gold.Chemscore.Hbond>
1.9918

> <Gold.Chemscore.Metal>
0.0000

> <Gold.Chemscore.Lipo>
79.2956

> <Gold.Chemscore.Internal_Hbond>
0.0000

> <Gold.Chemscore.DEClash>
0.1090

> <Gold.Chemscore.DEInternal>
2.9386

> <Gold.Chemscore.Rot>
1.5693

> <Gold.Chemscore.Internal.Correction>
   9.000000E+99

> <Gold.Chemscore.Hbonds>
donor molecule, donor type, donor heavy atom, donor atom, acceptor molecule, acceptor atom, score
      P1  H  7989  7998       L1    17  0.93
      P1  H 10752 10765       L1    20  0.98

> <Gold.Chemscore.Hbond.Weighted>
-6.6526

> <Gold.Chemscore.Metal.Weighted>
-0.0000

> <Gold.Chemscore.Lipo.Weighted>
-9.2776

> <Gold.Chemscore.Internal_Hbond.Weighted>
0.0000

> <Gold.Chemscore.DEClash.Weighted>
0.1090

> <Gold.Chemscore.DEInternal.Weighted>
2.9386

> <Gold.Chemscore.Rot.Weighted>
4.0175

> <Gold.Chemscore.Internal.Correction.Weighted>
   9.000000E+99

> <Gold.Protein.RotatedTorsions>
[ 6907 6896 6895 6894 ] final  -58.33 input  -60.11 | X-H torsion
[ 7974 7965 7964 7962 ] final  159.93 input  175.53 | X-H torsion
[ 8008 7997 7996 7995 ] final   66.64 input   59.86 | X-H torsion
[ 10167 10162 10161 10158 ] final  -94.12 input  -65.29 | X-H torsion
[ 10718 10713 10712 10709 ] final -151.34 input   66.30 | X-H torsion
[ 10763 10752 10751 10750 ] final -108.89 input  -60.55 | X-H torsion
[ 11005 11000 10999 10996 ] final  105.72 input  -57.11 | X-H torsion

> <Gold.Protein.ActiveResidues>
 VAL166  LYS551  ARG553  GLY616  TRP617  ASP618  TYR619  PRO620  LYS621  CYS622 
 ASP623  PHE694  ASN695  SER759  ASP760  ASP761  ALA762  ILE779  LEU786  VAL792 
 PHE793  MET794  SER795  GLU796  ALA797  LYS798  CYS799  TRP800  GLU811  SER814 

> <Gold.Protein.RotatedAtoms>
  150.8015  134.7112  159.6604 H   0  0  0  0  0  0  0  0  0  0  0  0  # atno 6907 bound_to 6896
  152.4132  134.6084  160.0029 H   0  0  0  0  0  0  0  0  0  0  0  0  # atno 6908 bound_to 6896
  151.6321  133.3294  159.3147 H   0  0  0  0  0  0  0  0  0  0  0  0  # atno 6909 bound_to 6896
  144.7764  139.7686  143.6277 H   0  0  0  0  0  0  0  0  0  0  0  0  # atno 7974 bound_to 7965
  155.6805  140.3496  155.4853 H   0  0  0  0  0  0  0  0  0  0  0  0  # atno 8008 bound_to 7997
  155.9611  140.1137  157.0917 H   0  0  0  0  0  0  0  0  0  0  0  0  # atno 8009 bound_to 7997
  154.4143  140.1175  156.5166 H   0  0  0  0  0  0  0  0  0  0  0  0  # atno 8010 bound_to 7997
  140.3177  143.3067  152.0080 H   0  0  0  0  0  0  0  0  0  0  0  0  # atno 10167 bound_to 10162
  156.4579  130.8199  151.2430 H   0  0  0  0  0  0  0  0  0  0  0  0  # atno 10718 bound_to 10713
  154.8162  135.4621  154.0650 H   0  0  0  0  0  0  0  0  0  0  0  0  # atno 10763 bound_to 10752
  153.2041  135.6873  153.8201 H   0  0  0  0  0  0  0  0  0  0  0  0  # atno 10764 bound_to 10752
  153.7676  135.3275  155.3324 H   0  0  0  0  0  0  0  0  0  0  0  0  # atno 10765 bound_to 10752
  139.8805  134.9345  156.5557 H   0  0  0  0  0  0  0  0  0  0  0  0  # atno 11005 bound_to 11000
  146.1945  139.5204  142.9783 LP  0  0  0  0  0  0  0  0  0  0  0  0  # atno 17320 bound_to 7965
  145.6175  141.0328  143.1933 LP  0  0  0  0  0  0  0  0  0  0  0  0  # atno 17321 bound_to 7965
  139.4880  144.6335  151.7022 LP  0  0  0  0  0  0  0  0  0  0  0  0  # atno 17342 bound_to 10162
  140.5511  144.0423  150.6127 LP  0  0  0  0  0  0  0  0  0  0  0  0  # atno 17343 bound_to 10162
  157.7499  131.0117  150.3354 LP  0  0  0  0  0  0  0  0  0  0  0  0  # atno 17370 bound_to 10713
  156.3747  130.3870  149.7148 LP  0  0  0  0  0  0  0  0  0  0  0  0  # atno 17371 bound_to 10713
  140.8207  133.8356  155.8893 LP  0  0  0  0  0  0  0  0  0  0  0  0  # atno 17394 bound_to 11000
  140.9421  134.1887  157.4790 LP  0  0  0  0  0  0  0  0  0  0  0  0  # atno 17395 bound_to 11000

$$$$
