AV-unprocessed.smi:2027|AV-procd|sdf|8219|dock9
  -GOLD-   2272010493D 1   1.00000     0.00000
 Structure written by MMmdl.
 51 53  0  0  0  0  0  0  0  0  3 V2000
  151.8662  140.2061  156.6613 C   0  0  0  0  0  0  0  0  0  0  0  0
  150.6772  140.3408  155.7254 C   0  0  0  0  0  0  0  0  0  0  0  0
  149.7096  141.3321  156.0031 C   0  0  0  0  0  0  0  0  0  0  0  0
  148.6350  141.4326  155.1280 C   0  0  0  0  0  0  0  0  0  0  0  0
  147.5368  142.2942  155.1276 N   0  3  0  0  0  0  0  0  0  0  0  0
  146.7412  142.0158  154.0588 C   0  0  0  0  0  0  0  0  0  0  0  0
  147.3109  140.9834  153.3780 N   0  0  0  0  0  0  0  0  0  0  0  0
  146.8595  140.3093  152.1485 C   0  0  0  0  0  0  0  0  0  0  0  0
  147.0055  138.7721  152.1855 C   0  0  2  0  0  0  0  0  0  0  0  0
  146.4939  138.2317  150.9823 O   0  0  0  0  0  0  0  0  0  0  0  0
  146.2803  138.1077  153.3758 C   0  0  0  0  0  0  0  0  0  0  0  0
  146.6252  136.6715  153.5490 N   0  3  2  0  0  0  0  0  0  0  0  0
  145.7777  135.7964  152.7078 C   0  0  0  0  0  0  0  0  0  0  0  0
  146.6811  136.2140  154.9629 C   0  0  0  0  0  0  0  0  0  0  0  0
  147.3859  134.8884  155.0583 C   0  0  0  0  0  0  0  0  0  0  0  0
  147.5709  134.0714  156.2108 C   0  0  0  0  0  0  0  0  0  0  0  0
  148.2462  132.9640  155.9544 N   0  0  0  0  0  0  0  0  0  0  0  0
  148.5051  133.0265  154.6326 N   0  0  0  0  0  0  0  0  0  0  0  0
  149.2433  131.9549  153.9991 C   0  0  0  0  0  0  0  0  0  0  0  0
  147.9946  134.1736  154.0649 C   0  0  0  0  0  0  0  0  0  0  0  0
  148.4994  140.5895  154.0070 C   0  0  0  0  0  0  0  0  0  0  0  0
  149.4445  139.6061  153.7209 C   0  0  0  0  0  0  0  0  0  0  0  0
  150.5452  139.4878  154.5993 C   0  0  0  0  0  0  0  0  0  0  0  0
  151.5916  138.4245  154.3109 C   0  0  0  0  0  0  0  0  0  0  0  0
  151.8462  140.9655  157.4434 H   0  0  0  0  0  0  0  0  0  0  0  0
  152.8016  140.3192  156.1128 H   0  0  0  0  0  0  0  0  0  0  0  0
  151.8631  139.2289  157.1445 H   0  0  0  0  0  0  0  0  0  0  0  0
  149.8037  141.9850  156.8590 H   0  0  0  0  0  0  0  0  0  0  0  0
  145.8224  142.5218  153.7992 H   0  0  0  0  0  0  0  0  0  0  0  0
  145.8121  140.5779  152.0032 H   0  0  0  0  0  0  0  0  0  0  0  0
  147.3916  140.7248  151.2932 H   0  0  0  0  0  0  0  0  0  0  0  0
  148.0699  138.5480  152.2289 H   0  0  0  0  0  0  0  0  0  0  0  0
  145.6425  138.6101  150.8205 H   0  0  0  0  0  0  0  0  0  0  0  0
  146.5015  138.6427  154.3006 H   0  0  0  0  0  0  0  0  0  0  0  0
  145.2033  138.1918  153.2235 H   0  0  0  0  0  0  0  0  0  0  0  0
  144.7354  135.8389  153.0269 H   0  0  0  0  0  0  0  0  0  0  0  0
  146.1148  134.7608  152.7684 H   0  0  0  0  0  0  0  0  0  0  0  0
  145.8281  136.0951  151.6601 H   0  0  0  0  0  0  0  0  0  0  0  0
  147.1649  136.9674  155.5861 H   0  0  0  0  0  0  0  0  0  0  0  0
  145.6732  136.1212  155.3700 H   0  0  0  0  0  0  0  0  0  0  0  0
  147.2410  134.2522  157.2233 H   0  0  0  0  0  0  0  0  0  0  0  0
  149.2248  132.0773  152.9160 H   0  0  0  0  0  0  0  0  0  0  0  0
  148.7958  130.9937  154.2540 H   0  0  0  0  0  0  0  0  0  0  0  0
  150.2786  131.9700  154.3405 H   0  0  0  0  0  0  0  0  0  0  0  0
  148.1104  134.3876  153.0124 H   0  0  0  0  0  0  0  0  0  0  0  0
  149.3510  138.9554  152.8646 H   0  0  0  0  0  0  0  0  0  0  0  0
  151.3181  137.8185  153.4465 H   0  0  0  0  0  0  0  0  0  0  0  0
  151.7045  137.7542  155.1633 H   0  0  0  0  0  0  0  0  0  0  0  0
  152.5571  138.8860  154.1027 H   0  0  0  0  0  0  0  0  0  0  0  0
  147.5621  136.5672  153.1853 H   0  0  0  0  0  0  0  0  0  0  0  0
  147.3441  143.0229  155.8034 H   0  0  0  0  0  0  0  0  0  0  0  0
  1  2  1  0  0  0  0
  1 25  1  0  0  0  0
  1 26  1  0  0  0  0
  1 27  1  0  0  0  0
  2 23  1  0  0  0  0
  2  3  2  0  0  0  0
  3  4  1  0  0  0  0
  3 28  1  0  0  0  0
  4 21  2  0  0  0  0
  4  5  1  0  0  0  0
  5  6  2  0  0  0  0
  5 51  1  0  0  0  0
  6  7  1  0  0  0  0
  6 29  1  0  0  0  0
  7  8  1  0  0  0  0
  7 21  1  0  0  0  0
  8  9  1  0  0  0  0
  8 30  1  0  0  0  0
  8 31  1  0  0  0  0
  9 10  1  0  0  0  0
  9 11  1  0  0  0  0
  9 32  1  0  0  0  0
 10 33  1  0  0  0  0
 11 12  1  0  0  0  0
 11 34  1  0  0  0  0
 11 35  1  0  0  0  0
 12 13  1  0  0  0  0
 12 14  1  0  0  0  0
 12 50  1  0  0  0  0
 13 36  1  0  0  0  0
 13 37  1  0  0  0  0
 13 38  1  0  0  0  0
 14 15  1  0  0  0  0
 14 39  1  0  0  0  0
 14 40  1  0  0  0  0
 15 20  2  0  0  0  0
 15 16  1  0  0  0  0
 16 17  2  0  0  0  0
 16 41  1  0  0  0  0
 17 18  1  0  0  0  0
 18 19  1  0  0  0  0
 18 20  1  0  0  0  0
 19 42  1  0  0  0  0
 19 43  1  0  0  0  0
 19 44  1  0  0  0  0
 20 45  1  0  0  0  0
 21 22  1  0  0  0  0
 22 23  2  0  0  0  0
 22 46  1  0  0  0  0
 23 24  1  0  0  0  0
 24 47  1  0  0  0  0
 24 48  1  0  0  0  0
 24 49  1  0  0  0  0
M  CHG  1   5   1
M  CHG  1  12   1
M  END
> <s_m_source_file>
AV-unprocessed.smi

> <i_m_source_file_index>
2027

> <i_lp_mmshare_version>
43012

> <i_f3d_flags>
0

> <s_epik_input>
W0NIM11jKFtjSF0xKWMoW0NIM10pW2NIXWMoYzEyKW4oW2NIXW4yKVtDSDJdW0NASF0oW09IXSlbQ0gyXU4oW0NIM10pW0NIMl1jM1tjSF1ubihbQ0gzXSlbY0hdMw==

> <s_epik_cmdline>
J2VwaWtfcHl0aG9uJywgJy1waCcsICc3LjAnLCAnLXRuJywgJzgnLCAnLW1hJywgJzIwMCcsICctbWV0YWxfYmluZGluZycsICctaW1hZScsICc8aW5maWxlLm1hZT4nLCAnLW9tYWUnLCAnPG91dGZpbGUubWFlPic=

> <r_lp_tautomer_probability>
1

> <r_epik_Ionization_Penalty>
1.77469

> <r_epik_Ionization_Penalty_Charging>
1.77463

> <r_epik_Ionization_Penalty_Neutral>
6.41153e-05

> <r_epik_State_Penalty>
1.85225

> <r_epik_Charging_Adjusted_Penalty>
3.62688

> <i_epik_Tot_Q>
2

> <i_epik_Tot_abs_Q>
2

> <r_epik_Metal_State_Penalty>
1.92669

> <b_epik_Metal_Only>
0

> <s_lp_Force_Field>
OPLS_2005

> <r_lp_Energy>
22.3184

> <b_lp_Chiralities_Consistent>
1

> <s_lp_Variant>
AV-unprocessed.smi:2027-11

> <Gold.Version>
5.8.1

> <Gold.Id.Protein>
6NUR|6NUR_protein|mol2

> <Gold.PLP.Fitness>
53.2613

> <Gold.PLP.PLP>
-39.2143

> <Gold.PLP.part.hbond>
-4.2690

> <Gold.PLP.part.metal>
0.0000

> <Gold.PLP.part.buried>
5.2642

> <Gold.PLP.part.nonpolar>
-39.9621

> <Gold.PLP.part.repulsive>
0.0988

> <Gold.PLP.ligand.clash>
0.0000

> <Gold.PLP.ligand.torsion>
0.7558

> <Gold.PLP.Chemscore.Hbond>
4.1201

> <Gold.PLP.Chemscore.CHOScore>
1.0000

> <Gold.PLP.Chemscore.Metal>
0.0000

> <Gold.Chemscore.Hbonds>
donor molecule, donor type, donor heavy atom, donor atom, acceptor molecule, acceptor atom, score
      L1  H     5    51       P1  8028  0.15
      L1  H    10    33       P1 10171  0.99
      L1  H    12    50       P1  7948  2.00
      P1  H  7954  7966       L1    10  1.00
      L1  C    20    45       P1  7948  1.00

> <Gold.PLP.Chemscore.Internal.Correction>
0.1982

> <Gold.Rescore>
     Score         DG    S(hbond)    S(metal)    S(lipo)     H(rot)  DE(clash)    DE(int)     intcor
     13.33     -18.50       2.47        0.00      97.42       2.58       2.90       2.27       ----

> <Gold.Chemscore.Fitness>
13.3303

> <Gold.Chemscore.DG>
-18.5021

> <Gold.Chemscore.ZeroCoef>
-5.4800

> <Gold.Chemscore.Hbond>
2.4665

> <Gold.Chemscore.Metal>
0.0000

> <Gold.Chemscore.Lipo>
97.4189

> <Gold.Chemscore.Internal_Hbond>
0.0000

> <Gold.Chemscore.DEClash>
2.9022

> <Gold.Chemscore.DEInternal>
2.2696

> <Gold.Chemscore.Rot>
2.5836

> <Gold.Chemscore.Internal.Correction>
   9.000000E+99

> <Gold.Chemscore.Hbonds>
donor molecule, donor type, donor heavy atom, donor atom, acceptor molecule, acceptor atom, score
      L1  H     5    51       P1  8028  0.01
      L1  H    10    33       P1 10171  0.88
      L1  H    12    50       P1  7948  0.98
      P1  H  7954  7966       L1    10  0.36

> <Gold.Chemscore.Hbond.Weighted>
-8.2379

> <Gold.Chemscore.Metal.Weighted>
-0.0000

> <Gold.Chemscore.Lipo.Weighted>
-11.3980

> <Gold.Chemscore.Internal_Hbond.Weighted>
0.0000

> <Gold.Chemscore.DEClash.Weighted>
2.9022

> <Gold.Chemscore.DEInternal.Weighted>
2.2696

> <Gold.Chemscore.Rot.Weighted>
6.6139

> <Gold.Chemscore.Internal.Correction.Weighted>
   9.000000E+99

> <Gold.Protein.RotatedTorsions>
[ 6907 6896 6895 6894 ] final  -22.40 input  -60.11 | X-H torsion
[ 7974 7965 7964 7962 ] final  108.71 input  175.53 | X-H torsion
[ 8008 7997 7996 7995 ] final   95.05 input   59.86 | X-H torsion
[ 10167 10162 10161 10158 ] final  114.79 input  -65.29 | X-H torsion
[ 10718 10713 10712 10709 ] final   84.86 input   66.30 | X-H torsion
[ 10763 10752 10751 10750 ] final  141.75 input  -60.55 | X-H torsion
[ 11005 11000 10999 10996 ] final   -4.02 input  -57.11 | X-H torsion

> <Gold.Protein.ActiveResidues>
 VAL166  LYS551  ARG553  GLY616  TRP617  ASP618  TYR619  PRO620  LYS621  CYS622 
 ASP623  PHE694  ASN695  SER759  ASP760  ASP761  ALA762  ILE779  LEU786  VAL792 
 PHE793  MET794  SER795  GLU796  ALA797  LYS798  CYS799  TRP800  GLU811  SER814 

> <Gold.Protein.RotatedAtoms>
  151.2192  135.0511  159.8942 H   0  0  0  0  0  0  0  0  0  0  0  0  # atno 6907 bound_to 6896
  152.5417  134.0660  159.8183 H   0  0  0  0  0  0  0  0  0  0  0  0  # atno 6908 bound_to 6896
  151.0823  133.5332  159.2651 H   0  0  0  0  0  0  0  0  0  0  0  0  # atno 6909 bound_to 6896
  145.2772  139.2645  143.3935 H   0  0  0  0  0  0  0  0  0  0  0  0  # atno 7974 bound_to 7965
  156.0646  140.3291  155.7503 H   0  0  0  0  0  0  0  0  0  0  0  0  # atno 8008 bound_to 7997
  155.5401  140.0601  157.2889 H   0  0  0  0  0  0  0  0  0  0  0  0  # atno 8009 bound_to 7997
  154.4499  140.1912  156.0570 H   0  0  0  0  0  0  0  0  0  0  0  0  # atno 8010 bound_to 7997
  139.6363  144.7120  151.2328 H   0  0  0  0  0  0  0  0  0  0  0  0  # atno 10167 bound_to 10162
  157.6905  131.0151  150.2736 H   0  0  0  0  0  0  0  0  0  0  0  0  # atno 10718 bound_to 10713
  153.9444  135.2976  155.3441 H   0  0  0  0  0  0  0  0  0  0  0  0  # atno 10763 bound_to 10752
  154.7460  135.5003  153.9208 H   0  0  0  0  0  0  0  0  0  0  0  0  # atno 10764 bound_to 10752
  153.1026  135.6738  153.9752 H   0  0  0  0  0  0  0  0  0  0  0  0  # atno 10765 bound_to 10752
  140.6756  133.9198  155.8522 H   0  0  0  0  0  0  0  0  0  0  0  0  # atno 11005 bound_to 11000
  146.3228  140.3230  142.8634 LP  0  0  0  0  0  0  0  0  0  0  0  0  # atno 17320 bound_to 7965
  144.9284  140.7948  143.5704 LP  0  0  0  0  0  0  0  0  0  0  0  0  # atno 17321 bound_to 7965
  140.7467  143.6390  150.8352 LP  0  0  0  0  0  0  0  0  0  0  0  0  # atno 17342 bound_to 10162
  140.0022  143.5732  152.2871 LP  0  0  0  0  0  0  0  0  0  0  0  0  # atno 17343 bound_to 10162
  156.3294  130.3798  149.7504 LP  0  0  0  0  0  0  0  0  0  0  0  0  # atno 17370 bound_to 10713
  156.5048  130.8145  151.3146 LP  0  0  0  0  0  0  0  0  0  0  0  0  # atno 17371 bound_to 10713
  141.0357  134.0692  157.3961 LP  0  0  0  0  0  0  0  0  0  0  0  0  # atno 17394 bound_to 11000
  139.8967  135.0147  156.7067 LP  0  0  0  0  0  0  0  0  0  0  0  0  # atno 17395 bound_to 11000

$$$$
