AV-unprocessed.smi:290|AV-procd|sdf|2217|dock2
  -GOLD-   2262022 53D 1   1.00000     0.00000
 Structure written by MMmdl.
 59 62  0  0  0  0  0  0  0  0  2 V2000
  147.4797  140.8933  156.4911 C   0  0  0  0  0  0  0  0  0  0  0  0
  148.9931  140.8466  156.7573 C   0  0  2  0  0  0  0  0  0  0  0  0
  149.3444  141.7355  157.8081 O   0  0  0  0  0  0  0  0  0  0  0  0
  150.7442  141.9328  157.7318 C   0  0  0  0  0  0  0  0  0  0  0  0
  150.9742  142.1310  156.2386 C   0  0  0  0  0  0  0  0  0  0  0  0
  149.9307  141.2235  155.5792 C   0  0  2  0  0  0  0  0  0  0  0  0
  149.2530  141.9790  154.5881 O   0  0  0  0  0  0  0  0  0  0  0  0
  150.5766  139.9937  154.8944 C   0  0  0  0  0  0  0  0  0  0  0  0
  149.7450  138.8003  154.9424 N   0  0  0  0  0  0  0  0  0  0  0  0
  150.0674  137.5942  155.5221 C   0  0  0  0  0  0  0  0  0  0  0  0
  149.1526  136.6685  155.4278 N   0  0  0  0  0  0  0  0  0  0  0  0
  148.1175  137.2827  154.7324 C   0  0  0  0  0  0  0  0  0  0  0  0
  146.8303  136.8676  154.2845 C   0  0  0  0  0  0  0  0  0  0  0  0
  146.2962  135.6403  154.4699 N   0  0  0  0  0  0  0  0  0  0  0  0
  147.1331  134.5388  153.9967 C   0  0  0  0  0  0  0  0  0  0  0  0
  146.1782  133.4682  153.4586 C   0  0  0  0  0  0  0  0  0  0  0  0
  144.9851  134.3197  153.0152 C   0  0  1  0  0  0  0  0  0  0  0  0
  143.7060  133.6194  152.6795 N   0  3  1  0  0  0  0  0  0  0  0  0
  142.5490  134.5477  152.7267 C   0  0  0  0  0  0  0  0  0  0  0  0
  143.7270  132.7991  151.4355 C   0  0  0  0  0  0  0  0  0  0  0  0
  144.4726  133.4832  150.2752 C   0  0  0  0  0  0  0  0  0  0  0  0
  143.5979  133.6865  149.1859 O   0  0  0  0  0  0  0  0  0  0  0  0
  144.9008  135.4155  154.0949 C   0  0  1  0  0  0  0  0  0  0  0  0
  144.0863  135.0667  155.3520 C   0  0  0  0  0  0  0  0  0  0  0  0
  146.0547  137.7789  153.6484 N   0  0  0  0  0  0  0  0  0  0  0  0
  146.5130  139.0163  153.4363 C   0  0  0  0  0  0  0  0  0  0  0  0
  147.6913  139.5398  153.7802 N   0  0  0  0  0  0  0  0  0  0  0  0
  148.4686  138.6297  154.4342 C   0  0  0  0  0  0  0  0  0  0  0  0
  145.3110  134.8412  152.1136 H   0  0  0  0  0  0  0  0  0  0  0  0
  144.4539  136.3110  153.6627 H   0  0  0  0  0  0  0  0  0  0  0  0
  147.2022  140.2260  155.6748 H   0  0  0  0  0  0  0  0  0  0  0  0
  147.1482  141.8997  156.2339 H   0  0  0  0  0  0  0  0  0  0  0  0
  146.9236  140.5815  157.3753 H   0  0  0  0  0  0  0  0  0  0  0  0
  149.2485  139.8488  157.1159 H   0  0  0  0  0  0  0  0  0  0  0  0
  151.0649  142.7891  158.3258 H   0  0  0  0  0  0  0  0  0  0  0  0
  151.2638  141.0444  158.0949 H   0  0  0  0  0  0  0  0  0  0  0  0
  150.7940  143.1794  155.9939 H   0  0  0  0  0  0  0  0  0  0  0  0
  151.9993  141.9015  155.9453 H   0  0  0  0  0  0  0  0  0  0  0  0
  149.0827  142.8421  154.9327 H   0  0  0  0  0  0  0  0  0  0  0  0
  150.7988  140.2126  153.8491 H   0  0  0  0  0  0  0  0  0  0  0  0
  151.5331  139.7637  155.3656 H   0  0  0  0  0  0  0  0  0  0  0  0
  151.0123  137.4196  156.0157 H   0  0  0  0  0  0  0  0  0  0  0  0
  147.7947  134.8830  153.1996 H   0  0  0  0  0  0  0  0  0  0  0  0
  147.7571  134.1504  154.8023 H   0  0  0  0  0  0  0  0  0  0  0  0
  146.6137  132.8851  152.6468 H   0  0  0  0  0  0  0  0  0  0  0  0
  145.9238  132.7861  154.2692 H   0  0  0  0  0  0  0  0  0  0  0  0
  142.6296  135.3081  151.9490 H   0  0  0  0  0  0  0  0  0  0  0  0
  142.4957  135.0531  153.6915 H   0  0  0  0  0  0  0  0  0  0  0  0
  141.6019  134.0268  152.5972 H   0  0  0  0  0  0  0  0  0  0  0  0
  144.1791  131.8295  151.6494 H   0  0  0  0  0  0  0  0  0  0  0  0
  142.7154  132.5927  151.0921 H   0  0  0  0  0  0  0  0  0  0  0  0
  144.9233  134.4304  150.5679 H   0  0  0  0  0  0  0  0  0  0  0  0
  145.2885  132.8430  149.9386 H   0  0  0  0  0  0  0  0  0  0  0  0
  142.7274  133.8400  149.5220 H   0  0  0  0  0  0  0  0  0  0  0  0
  143.0406  134.8782  155.1122 H   0  0  0  0  0  0  0  0  0  0  0  0
  144.1069  135.8942  156.0617 H   0  0  0  0  0  0  0  0  0  0  0  0
  144.4853  134.1924  155.8662 H   0  0  0  0  0  0  0  0  0  0  0  0
  145.8394  139.6816  152.9161 H   0  0  0  0  0  0  0  0  0  0  0  0
  143.5588  132.9657  153.4356 H   0  0  0  0  0  0  0  0  0  0  0  0
  1  2  1  0  0  0  0
  1 31  1  0  0  0  0
  1 32  1  0  0  0  0
  1 33  1  0  0  0  0
  2  6  1  0  0  0  0
  2  3  1  0  0  0  0
  2 34  1  0  0  0  0
  3  4  1  0  0  0  0
  4  5  1  0  0  0  0
  4 35  1  0  0  0  0
  4 36  1  0  0  0  0
  5  6  1  0  0  0  0
  5 37  1  0  0  0  0
  5 38  1  0  0  0  0
  6  7  1  0  0  0  0
  6  8  1  0  0  0  0
  7 39  1  0  0  0  0
  8  9  1  0  0  0  0
  8 40  1  0  0  0  0
  8 41  1  0  0  0  0
  9 28  1  0  0  0  0
  9 10  1  0  0  0  0
 10 11  2  0  0  0  0
 10 42  1  0  0  0  0
 11 12  1  0  0  0  0
 12 28  2  0  0  0  0
 12 13  1  0  0  0  0
 13 14  1  0  0  0  0
 13 25  2  0  0  0  0
 14 23  1  0  0  0  0
 14 15  1  0  0  0  0
 15 16  1  0  0  0  0
 15 43  1  0  0  0  0
 15 44  1  0  0  0  0
 16 17  1  0  0  0  0
 16 45  1  0  0  0  0
 16 46  1  0  0  0  0
 17 29  1  0  0  0  0
 17 18  1  0  0  0  0
 17 23  1  0  0  0  0
 18 19  1  0  0  0  0
 18 20  1  0  0  0  0
 18 59  1  0  0  0  0
 19 47  1  0  0  0  0
 19 48  1  0  0  0  0
 19 49  1  0  0  0  0
 20 21  1  0  0  0  0
 20 50  1  0  0  0  0
 20 51  1  0  0  0  0
 21 22  1  0  0  0  0
 21 52  1  0  0  0  0
 21 53  1  0  0  0  0
 22 54  1  0  0  0  0
 23 30  1  0  0  0  0
 23 24  1  0  0  0  0
 24 55  1  0  0  0  0
 24 56  1  0  0  0  0
 24 57  1  0  0  0  0
 25 26  1  0  0  0  0
 26 27  2  0  0  0  0
 26 58  1  0  0  0  0
 27 28  1  0  0  0  0
M  CHG  1  18   1
M  END
> <s_m_source_file>
AV-unprocessed.smi

> <i_m_source_file_index>
290

> <i_lp_mmshare_version>
43012

> <i_f3d_flags>
0

> <s_epik_input>
W0NIMl0xW0NIMl1PW0NAQEhdKFtDSDNdKVtDQEBdMShbT0hdKVtDSDJdbihbY0hdbjIpYyhjMjMpbltjSF1uYzNONFtDSDJdW0NIMl1bQ0BIXShbQ0BIXTRbQ0gzXSlOKFtDSDNdKVtDSDJdW0NIMl1bT0hd

> <s_epik_cmdline>
J2VwaWtfcHl0aG9uJywgJy1waCcsICc3LjAnLCAnLXRuJywgJzgnLCAnLW1hJywgJzIwMCcsICctbWV0YWxfYmluZGluZycsICctaW1hZScsICc8aW5maWxlLm1hZT4nLCAnLW9tYWUnLCAnPG91dGZpbGUubWFlPic=

> <r_lp_tautomer_probability>
1

> <r_epik_Ionization_Penalty>
0.0036983

> <r_epik_Ionization_Penalty_Charging>
0.0032725

> <r_epik_Ionization_Penalty_Neutral>
0.000425798

> <r_epik_State_Penalty>
-0

> <r_epik_Charging_Adjusted_Penalty>
0.0032725

> <i_epik_Tot_Q>
1

> <i_epik_Tot_abs_Q>
1

> <r_epik_Metal_State_Penalty>
-0

> <b_epik_Metal_Only>
0

> <s_lp_Force_Field>
OPLS_2005

> <r_lp_Energy>
65.9865

> <b_lp_Chiralities_Consistent>
1

> <s_lp_Variant>
AV-unprocessed.smi:290-3

> <Gold.Version>
5.8.1

> <Gold.Id.Protein>
6NUR|6NUR_protein|mol2

> <Gold.PLP.Fitness>
44.8740

> <Gold.PLP.PLP>
-32.3272

> <Gold.PLP.part.hbond>
-4.9617

> <Gold.PLP.part.metal>
0.0000

> <Gold.PLP.part.buried>
-4.4938

> <Gold.PLP.part.nonpolar>
-22.9559

> <Gold.PLP.part.repulsive>
0.6236

> <Gold.PLP.ligand.clash>
0.0000

> <Gold.PLP.ligand.torsion>
1.6274

> <Gold.PLP.Chemscore.Hbond>
4.1400

> <Gold.PLP.Chemscore.CHOScore>
1.0000

> <Gold.PLP.Chemscore.Metal>
0.0000

> <Gold.Chemscore.Hbonds>
donor molecule, donor type, donor heavy atom, donor atom, acceptor molecule, acceptor atom, score
      L1  H     7    39       P1  8028  1.00
      L1  H    18    59       P1 10957  2.00
      L1  H    22    54       P1 10186  1.00
      P1  H  8011  8017       L1     7  0.07
      L1  C    26    58       P1 10175  1.00

> <Gold.PLP.Chemscore.Internal.Correction>
0.3816

> <Gold.Rescore>
     Score         DG    S(hbond)    S(metal)    S(lipo)     H(rot)  DE(clash)    DE(int)     intcor
     12.17     -13.57       2.95        0.00      65.23       3.67       0.00       1.40       ----

> <Gold.Chemscore.Fitness>
12.1696

> <Gold.Chemscore.DG>
-13.5726

> <Gold.Chemscore.ZeroCoef>
-5.4800

> <Gold.Chemscore.Hbond>
2.9477

> <Gold.Chemscore.Metal>
0.0000

> <Gold.Chemscore.Lipo>
65.2282

> <Gold.Chemscore.Internal_Hbond>
0.0000

> <Gold.Chemscore.DEClash>
0.0000

> <Gold.Chemscore.DEInternal>
1.4030

> <Gold.Chemscore.Rot>
3.6658

> <Gold.Chemscore.Internal.Correction>
   9.000000E+99

> <Gold.Chemscore.Hbonds>
donor molecule, donor type, donor heavy atom, donor atom, acceptor molecule, acceptor atom, score
      L1  H     7    39       P1  8028  0.95
      L1  H    18    59       P1 10957  0.78
      L1  H    22    54       P1 10186  0.99
      P1  H  8011  8017       L1     7  0.02

> <Gold.Chemscore.Hbond.Weighted>
-9.8453

> <Gold.Chemscore.Metal.Weighted>
-0.0000

> <Gold.Chemscore.Lipo.Weighted>
-7.6317

> <Gold.Chemscore.Internal_Hbond.Weighted>
0.0000

> <Gold.Chemscore.DEClash.Weighted>
0.0000

> <Gold.Chemscore.DEInternal.Weighted>
1.4030

> <Gold.Chemscore.Rot.Weighted>
9.3844

> <Gold.Chemscore.Internal.Correction.Weighted>
   9.000000E+99

> <Gold.Protein.RotatedTorsions>
[ 6907 6896 6895 6894 ] final   91.59 input  -60.11 | X-H torsion
[ 7974 7965 7964 7962 ] final -153.44 input  175.53 | X-H torsion
[ 8008 7997 7996 7995 ] final  -87.70 input   59.86 | X-H torsion
[ 10167 10162 10161 10158 ] final  169.56 input  -65.29 | X-H torsion
[ 10718 10713 10712 10709 ] final  148.21 input   66.30 | X-H torsion
[ 10763 10752 10751 10750 ] final  140.31 input  -60.55 | X-H torsion
[ 11005 11000 10999 10996 ] final  154.37 input  -57.11 | X-H torsion

> <Gold.Protein.ActiveResidues>
 VAL166  LYS551  ARG553  GLY616  TRP617  ASP618  TYR619  PRO620  LYS621  CYS622 
 ASP623  PHE694  ASN695  SER759  ASP760  ASP761  ALA762  ILE779  LEU786  VAL792 
 PHE793  MET794  SER795  GLU796  ALA797  LYS798  CYS799  TRP800  GLU811  SER814 

> <Gold.Protein.RotatedAtoms>
  152.5450  134.1633  159.8566 H   0  0  0  0  0  0  0  0  0  0  0  0  # atno 6907 bound_to 6896
  151.1649  133.4814  159.2601 H   0  0  0  0  0  0  0  0  0  0  0  0  # atno 6908 bound_to 6896
  151.1334  135.0153  159.8648 H   0  0  0  0  0  0  0  0  0  0  0  0  # atno 6909 bound_to 6896
  144.7741  140.4526  143.5886 H   0  0  0  0  0  0  0  0  0  0  0  0  # atno 7974 bound_to 7965
  154.6663  140.0562  157.0117 H   0  0  0  0  0  0  0  0  0  0  0  0  # atno 8008 bound_to 7997
  155.1154  140.3242  155.4492 H   0  0  0  0  0  0  0  0  0  0  0  0  # atno 8009 bound_to 7997
  156.2639  140.2007  156.6277 H   0  0  0  0  0  0  0  0  0  0  0  0  # atno 8010 bound_to 7997
  139.4995  144.3692  151.9743 H   0  0  0  0  0  0  0  0  0  0  0  0  # atno 10167 bound_to 10162
  157.3115  131.0888  151.1313 H   0  0  0  0  0  0  0  0  0  0  0  0  # atno 10718 bound_to 10713
  153.9206  135.3001  155.3447 H   0  0  0  0  0  0  0  0  0  0  0  0  # atno 10763 bound_to 10752
  154.7577  135.4949  153.9409 H   0  0  0  0  0  0  0  0  0  0  0  0  # atno 10764 bound_to 10752
  153.1144  135.6767  153.9547 H   0  0  0  0  0  0  0  0  0  0  0  0  # atno 10765 bound_to 10752
  140.1482  134.8692  157.2421 H   0  0  0  0  0  0  0  0  0  0  0  0  # atno 11005 bound_to 11000
  145.6238  139.1527  143.3007 LP  0  0  0  0  0  0  0  0  0  0  0  0  # atno 17320 bound_to 7965
  146.1908  140.6346  142.9146 LP  0  0  0  0  0  0  0  0  0  0  0  0  # atno 17321 bound_to 7965
  140.3128  144.3518  150.6029 LP  0  0  0  0  0  0  0  0  0  0  0  0  # atno 17342 bound_to 10162
  140.5785  143.2174  151.7471 LP  0  0  0  0  0  0  0  0  0  0  0  0  # atno 17343 bound_to 10162
  157.2633  130.6669  149.5985 LP  0  0  0  0  0  0  0  0  0  0  0  0  # atno 17370 bound_to 10713
  155.9678  130.4502  150.5687 LP  0  0  0  0  0  0  0  0  0  0  0  0  # atno 17371 bound_to 10713
  140.2637  134.3541  155.7397 LP  0  0  0  0  0  0  0  0  0  0  0  0  # atno 17394 bound_to 11000
  141.2195  133.7384  156.9118 LP  0  0  0  0  0  0  0  0  0  0  0  0  # atno 17395 bound_to 11000

$$$$
