AV-unprocessed.smi:1570|AV-procd|sdf|6313|dock10
  -GOLD-   22720 6513D 1   1.00000     0.00000
 Structure written by MMmdl.
 51 53  0  0  0  0  0  0  0  0  1 V2000
  150.8126  141.5469  156.1550 C   0  0  0  0  0  0  0  0  0  0  0  0
  151.1886  140.4694  157.1797 C   0  0  0  0  0  0  0  0  0  0  0  0
  151.8956  141.0473  158.3201 N   0  0  0  0  0  0  0  0  0  0  0  0
  153.0015  140.5477  158.9198 C   0  0  0  0  0  0  0  0  0  0  0  0
  153.5937  139.5173  158.5992 O   0  0  0  0  0  0  0  0  0  0  0  0
  153.3478  141.3816  159.9293 N   0  0  0  0  0  0  0  0  0  0  0  0
  154.4743  141.2078  160.8494 C   0  0  0  0  0  0  0  0  0  0  0  0
  155.6116  140.3515  160.2459 C   0  0  1  0  0  0  0  0  0  0  0  0
  156.8668  140.8939  160.6003 O   0  0  0  0  0  0  0  0  0  0  0  0
  155.5593  138.8410  160.5782 C   0  0  0  0  0  0  0  0  0  0  0  0
  155.2472  138.4851  161.9640 N   0  0  0  0  0  0  0  0  0  0  0  0
  156.1563  139.0951  162.9297 C   0  0  0  0  0  0  0  0  0  0  0  0
  155.8084  138.6993  164.3779 C   0  0  2  0  0  0  0  0  0  0  0  0
  156.8147  139.2596  165.3883 C   0  0  0  0  0  0  0  0  0  0  0  0
  155.8047  137.2786  164.4893 O   0  0  0  0  0  0  0  0  0  0  0  0
  154.8932  136.6464  163.5954 C   0  0  2  0  0  0  0  0  0  0  0  0
  154.9666  135.1326  163.8198 C   0  0  0  0  0  0  0  0  0  0  0  0
  155.2560  137.0399  162.1514 C   0  0  0  0  0  0  0  0  0  0  0  0
  152.4547  142.4658  159.9531 C   0  0  0  0  0  0  0  0  0  0  0  0
  152.3906  143.6013  160.7813 C   0  0  0  0  0  0  0  0  0  0  0  0
  151.3401  144.5184  160.5467 C   0  0  0  0  0  0  0  0  0  0  0  0
  150.3983  144.2940  159.5101 C   0  0  0  0  0  0  0  0  0  0  0  0
  150.4874  143.1477  158.6866 C   0  0  0  0  0  0  0  0  0  0  0  0
  151.5385  142.2502  158.9446 C   0  0  0  0  0  0  0  0  0  0  0  0
  150.2759  141.1100  155.3127 H   0  0  0  0  0  0  0  0  0  0  0  0
  151.6999  142.0439  155.7613 H   0  0  0  0  0  0  0  0  0  0  0  0
  150.1707  142.3082  156.5994 H   0  0  0  0  0  0  0  0  0  0  0  0
  150.2926  139.9537  157.5262 H   0  0  0  0  0  0  0  0  0  0  0  0
  151.8095  139.7080  156.7056 H   0  0  0  0  0  0  0  0  0  0  0  0
  154.8584  142.1941  161.1144 H   0  0  0  0  0  0  0  0  0  0  0  0
  154.1310  140.7666  161.7847 H   0  0  0  0  0  0  0  0  0  0  0  0
  155.5672  140.4396  159.1601 H   0  0  0  0  0  0  0  0  0  0  0  0
  157.5269  140.2302  160.4696 H   0  0  0  0  0  0  0  0  0  0  0  0
  154.7803  138.4167  159.9432 H   0  0  0  0  0  0  0  0  0  0  0  0
  156.4829  138.3542  160.2614 H   0  0  0  0  0  0  0  0  0  0  0  0
  157.1829  138.8006  162.7059 H   0  0  0  0  0  0  0  0  0  0  0  0
  156.1168  140.1805  162.8496 H   0  0  0  0  0  0  0  0  0  0  0  0
  154.8151  139.0741  164.6296 H   0  0  0  0  0  0  0  0  0  0  0  0
  156.8453  140.3487  165.3485 H   0  0  0  0  0  0  0  0  0  0  0  0
  157.8207  138.8884  165.1905 H   0  0  0  0  0  0  0  0  0  0  0  0
  156.5469  138.9716  166.4050 H   0  0  0  0  0  0  0  0  0  0  0  0
  153.8811  136.9850  163.8235 H   0  0  0  0  0  0  0  0  0  0  0  0
  154.2740  134.6050  163.1635 H   0  0  0  0  0  0  0  0  0  0  0  0
  154.7086  134.8788  164.8482 H   0  0  0  0  0  0  0  0  0  0  0  0
  155.9697  134.7527  163.6241 H   0  0  0  0  0  0  0  0  0  0  0  0
  154.5461  136.5758  161.4655 H   0  0  0  0  0  0  0  0  0  0  0  0
  156.2402  136.6414  161.8998 H   0  0  0  0  0  0  0  0  0  0  0  0
  153.1050  143.7711  161.5725 H   0  0  0  0  0  0  0  0  0  0  0  0
  151.2541  145.3995  161.1655 H   0  0  0  0  0  0  0  0  0  0  0  0
  149.6040  145.0076  159.3470 H   0  0  0  0  0  0  0  0  0  0  0  0
  149.7750  142.9738  157.8939 H   0  0  0  0  0  0  0  0  0  0  0  0
  1  2  1  0  0  0  0
  1 25  1  0  0  0  0
  1 26  1  0  0  0  0
  1 27  1  0  0  0  0
  2  3  1  0  0  0  0
  2 28  1  0  0  0  0
  2 29  1  0  0  0  0
  3 24  1  0  0  0  0
  3  4  1  0  0  0  0
  4  5  2  0  0  0  0
  4  6  1  0  0  0  0
  6  7  1  0  0  0  0
  6 19  1  0  0  0  0
  7  8  1  0  0  0  0
  7 30  1  0  0  0  0
  7 31  1  0  0  0  0
  8  9  1  0  0  0  0
  8 10  1  0  0  0  0
  8 32  1  0  0  0  0
  9 33  1  0  0  0  0
 10 11  1  0  0  0  0
 10 34  1  0  0  0  0
 10 35  1  0  0  0  0
 11 18  1  0  0  0  0
 11 12  1  0  0  0  0
 12 13  1  0  0  0  0
 12 36  1  0  0  0  0
 12 37  1  0  0  0  0
 13 14  1  0  0  0  0
 13 15  1  0  0  0  0
 13 38  1  0  0  0  0
 14 39  1  0  0  0  0
 14 40  1  0  0  0  0
 14 41  1  0  0  0  0
 15 16  1  0  0  0  0
 16 17  1  0  0  0  0
 16 18  1  0  0  0  0
 16 42  1  0  0  0  0
 17 43  1  0  0  0  0
 17 44  1  0  0  0  0
 17 45  1  0  0  0  0
 18 46  1  0  0  0  0
 18 47  1  0  0  0  0
 19 24  2  0  0  0  0
 19 20  1  0  0  0  0
 20 21  2  0  0  0  0
 20 48  1  0  0  0  0
 21 22  1  0  0  0  0
 21 49  1  0  0  0  0
 22 23  2  0  0  0  0
 22 50  1  0  0  0  0
 23 24  1  0  0  0  0
 23 51  1  0  0  0  0
M  END
> <s_m_source_file>
AV-unprocessed.smi

> <i_m_source_file_index>
1570

> <i_lp_mmshare_version>
43012

> <i_f3d_flags>
0

> <s_epik_input>
W2NIXTFbY0hdW2NIXVtjSF1jKGMxMiluKFtDSDJdW0NIM10pYyg9TyluMltDSDJdW0NASF0oW09IXSlbQ0gyXU4zW0NIMl1bQ0BASF0oW0NIM10pT1tDQEBIXShbQ0gzXSlbQ0gyXTM=

> <s_epik_cmdline>
J2VwaWtfcHl0aG9uJywgJy1waCcsICc3LjAnLCAnLXRuJywgJzgnLCAnLW1hJywgJzIwMCcsICctbWV0YWxfYmluZGluZycsICctaW1hZScsICc8aW5maWxlLm1hZT4nLCAnLW9tYWUnLCAnPG91dGZpbGUubWFlPic=

> <r_epik_Ionization_Penalty>
0.214359

> <r_epik_Ionization_Penalty_Charging>
2.30976e-09

> <r_epik_Ionization_Penalty_Neutral>
0.214359

> <r_epik_State_Penalty>
0.204533

> <r_epik_Charging_Adjusted_Penalty>
0.204533

> <i_epik_Tot_Q>
0

> <i_epik_Tot_abs_Q>
0

> <r_epik_Metal_State_Penalty>
0.204533

> <b_epik_Metal_Only>
0

> <s_lp_Force_Field>
OPLS_2005

> <r_lp_Energy>
59.6928

> <b_lp_Chiralities_Consistent>
1

> <s_lp_Variant>
AV-unprocessed.smi:1570-2

> <Gold.Version>
5.8.1

> <Gold.Id.Protein>
6NUR|6NUR_protein|mol2

> <Gold.PLP.Fitness>
50.5056

> <Gold.PLP.PLP>
-50.5234

> <Gold.PLP.part.hbond>
-2.0000

> <Gold.PLP.part.metal>
0.0000

> <Gold.PLP.part.buried>
-6.6374

> <Gold.PLP.part.nonpolar>
-40.6321

> <Gold.PLP.part.repulsive>
0.0788

> <Gold.PLP.ligand.clash>
0.5498

> <Gold.PLP.ligand.torsion>
1.2735

> <Gold.PLP.Chemscore.Hbond>
0.9913

> <Gold.PLP.Chemscore.CHOScore>
0.0000

> <Gold.PLP.Chemscore.Metal>
0.0000

> <Gold.Chemscore.Hbonds>
donor molecule, donor type, donor heavy atom, donor atom, acceptor molecule, acceptor atom, score
      P1  H  7997  8008       L1     5  1.00

> <Gold.PLP.Chemscore.Internal.Correction>
0.1053

> <Gold.Rescore>
     Score         DG    S(hbond)    S(metal)    S(lipo)     H(rot)  DE(clash)    DE(int)     intcor
     14.69     -19.46       0.94        0.00     137.64       2.06       0.10       4.66       ----

> <Gold.Chemscore.Fitness>
14.6941

> <Gold.Chemscore.DG>
-19.4553

> <Gold.Chemscore.ZeroCoef>
-5.4800

> <Gold.Chemscore.Hbond>
0.9395

> <Gold.Chemscore.Metal>
0.0000

> <Gold.Chemscore.Lipo>
137.6442

> <Gold.Chemscore.Internal_Hbond>
0.0000

> <Gold.Chemscore.DEClash>
0.1006

> <Gold.Chemscore.DEInternal>
4.6606

> <Gold.Chemscore.Rot>
2.0574

> <Gold.Chemscore.Internal.Correction>
   9.000000E+99

> <Gold.Chemscore.Hbonds>
donor molecule, donor type, donor heavy atom, donor atom, acceptor molecule, acceptor atom, score
      P1  H  7997  8008       L1     5  0.50

> <Gold.Chemscore.Hbond.Weighted>
-3.1378

> <Gold.Chemscore.Metal.Weighted>
-0.0000

> <Gold.Chemscore.Lipo.Weighted>
-16.1044

> <Gold.Chemscore.Internal_Hbond.Weighted>
0.0000

> <Gold.Chemscore.DEClash.Weighted>
0.1006

> <Gold.Chemscore.DEInternal.Weighted>
4.6606

> <Gold.Chemscore.Rot.Weighted>
5.2669

> <Gold.Chemscore.Internal.Correction.Weighted>
   9.000000E+99

> <Gold.Protein.RotatedTorsions>
[ 6907 6896 6895 6894 ] final   94.75 input  -60.11 | X-H torsion
[ 7974 7965 7964 7962 ] final   13.92 input  175.53 | X-H torsion
[ 8008 7997 7996 7995 ] final  -97.66 input   59.86 | X-H torsion
[ 10167 10162 10161 10158 ] final  146.94 input  -65.29 | X-H torsion
[ 10718 10713 10712 10709 ] final   98.54 input   66.30 | X-H torsion
[ 10763 10752 10751 10750 ] final  179.83 input  -60.55 | X-H torsion
[ 11005 11000 10999 10996 ] final  -11.06 input  -57.11 | X-H torsion

> <Gold.Protein.ActiveResidues>
 VAL166  LYS551  ARG553  GLY616  TRP617  ASP618  TYR619  PRO620  LYS621  CYS622 
 ASP623  PHE694  ASN695  SER759  ASP760  ASP761  ALA762  ILE779  LEU786  VAL792 
 PHE793  MET794  SER795  GLU796  ALA797  LYS798  CYS799  TRP800  GLU811  SER814 

> <Gold.Protein.RotatedAtoms>
  152.5448  134.1145  159.8372 H   0  0  0  0  0  0  0  0  0  0  0  0  # atno 6907 bound_to 6896
  151.1208  133.5098  159.2609 H   0  0  0  0  0  0  0  0  0  0  0  0  # atno 6908 bound_to 6896
  151.1781  135.0358  159.8835 H   0  0  0  0  0  0  0  0  0  0  0  0  # atno 6909 bound_to 6896
  146.2318  139.9117  142.8523 H   0  0  0  0  0  0  0  0  0  0  0  0  # atno 7974 bound_to 7965
  154.7907  140.0461  157.1198 H   0  0  0  0  0  0  0  0  0  0  0  0  # atno 8008 bound_to 7997
  154.9594  140.3075  155.5018 H   0  0  0  0  0  0  0  0  0  0  0  0  # atno 8009 bound_to 7997
  156.2949  140.2273  156.4679 H   0  0  0  0  0  0  0  0  0  0  0  0  # atno 8010 bound_to 7997
  139.4898  144.5792  151.6905 H   0  0  0  0  0  0  0  0  0  0  0  0  # atno 10167 bound_to 10162
  157.6893  131.0643  150.4812 H   0  0  0  0  0  0  0  0  0  0  0  0  # atno 10718 bound_to 10713
  154.5257  135.2796  155.1224 H   0  0  0  0  0  0  0  0  0  0  0  0  # atno 10763 bound_to 10752
  154.2764  135.6294  153.5333 H   0  0  0  0  0  0  0  0  0  0  0  0  # atno 10764 bound_to 10752
  152.9946  135.5640  154.5757 H   0  0  0  0  0  0  0  0  0  0  0  0  # atno 10765 bound_to 10752
  140.7513  133.8590  155.9047 H   0  0  0  0  0  0  0  0  0  0  0  0  # atno 11005 bound_to 11000
  145.2223  140.9940  143.4038 LP  0  0  0  0  0  0  0  0  0  0  0  0  # atno 17320 bound_to 7965
  144.9600  139.3990  143.6360 LP  0  0  0  0  0  0  0  0  0  0  0  0  # atno 17321 bound_to 7965
  140.5394  144.0603  150.6083 LP  0  0  0  0  0  0  0  0  0  0  0  0  # atno 17342 bound_to 10162
  140.3620  143.2903  152.0373 LP  0  0  0  0  0  0  0  0  0  0  0  0  # atno 17343 bound_to 10162
  156.5143  130.4147  149.6284 LP  0  0  0  0  0  0  0  0  0  0  0  0  # atno 17370 bound_to 10713
  156.3212  130.7281  151.2193 LP  0  0  0  0  0  0  0  0  0  0  0  0  # atno 17371 bound_to 10713
  140.9748  134.1484  157.4546 LP  0  0  0  0  0  0  0  0  0  0  0  0  # atno 17394 bound_to 11000
  139.8787  134.9991  156.5935 LP  0  0  0  0  0  0  0  0  0  0  0  0  # atno 17395 bound_to 11000

$$$$
