AV-unprocessed.smi:3068|AV-procd|sdf|11703|dock8
  -GOLD-   2272017103D 1   1.00000     0.00000
 Structure written by MMmdl.
 40 42  0  0  0  0  0  0  0  0  2 V2000
  151.1563  138.0993  154.5706 N   0  0  0  0  0  0  0  0  0  0  0  0
  150.1750  138.6886  154.4012 C   0  0  0  0  0  0  0  0  0  0  0  0
  148.9396  139.4314  154.1864 C   0  0  0  0  0  0  0  0  0  0  0  0
  149.0106  140.7769  154.3112 N   0  0  0  0  0  0  0  0  0  0  0  0
  147.8730  141.4774  154.1175 C   0  0  0  0  0  0  0  0  0  0  0  0
  146.6591  140.8384  153.7993 C   0  0  0  0  0  0  0  0  0  0  0  0
  146.5785  139.4967  153.6740 N   0  0  0  0  0  0  0  0  0  0  0  0
  147.7147  138.7802  153.8661 C   0  0  0  0  0  0  0  0  0  0  0  0
  147.6469  137.3801  153.7387 N   0  0  0  0  0  0  0  0  0  0  0  0
  146.5403  136.6064  154.2896 C   0  0  0  0  0  0  0  0  0  0  0  0
  146.1196  135.4456  153.3723 C   0  0  1  0  0  0  0  0  0  0  0  0
  145.2944  134.3908  154.1419 C   0  0  0  0  0  0  0  0  0  0  0  0
  144.7814  133.3333  153.2375 N   0  3  2  0  0  0  0  0  0  0  0  0
  145.8137  132.3336  152.8496 C   0  0  0  0  0  0  0  0  0  0  0  0
  145.2148  131.2248  151.9722 C   0  0  0  0  0  0  0  0  0  0  0  0
  144.5521  131.8210  150.7256 C   0  0  0  0  0  0  0  0  0  0  0  0
  143.4896  132.8474  151.1411 C   0  0  0  0  0  0  0  0  0  0  0  0
  144.0506  133.9315  152.0859 C   0  0  2  0  0  0  0  0  0  0  0  0
  144.9219  134.9898  151.3771 C   0  0  0  0  0  0  0  0  0  0  0  0
  145.3176  135.9778  152.3216 O   0  0  0  0  0  0  0  0  0  0  0  0
  147.9320  142.5512  154.2171 H   0  0  0  0  0  0  0  0  0  0  0  0
  145.7519  141.4035  153.6451 H   0  0  0  0  0  0  0  0  0  0  0  0
  148.4323  136.8802  153.3458 H   0  0  0  0  0  0  0  0  0  0  0  0
  146.8169  136.2304  155.2752 H   0  0  0  0  0  0  0  0  0  0  0  0
  145.6958  137.2772  154.4494 H   0  0  0  0  0  0  0  0  0  0  0  0
  147.0102  134.9795  152.9496 H   0  0  0  0  0  0  0  0  0  0  0  0
  145.8854  133.9452  154.9431 H   0  0  0  0  0  0  0  0  0  0  0  0
  144.4410  134.8735  154.6203 H   0  0  0  0  0  0  0  0  0  0  0  0
  146.6346  132.8143  152.3175 H   0  0  0  0  0  0  0  0  0  0  0  0
  146.2417  131.8909  153.7498 H   0  0  0  0  0  0  0  0  0  0  0  0
  145.9932  130.5194  151.6797 H   0  0  0  0  0  0  0  0  0  0  0  0
  144.4809  130.6566  152.5451 H   0  0  0  0  0  0  0  0  0  0  0  0
  145.3044  132.2924  150.0923 H   0  0  0  0  0  0  0  0  0  0  0  0
  144.0954  131.0303  150.1294 H   0  0  0  0  0  0  0  0  0  0  0  0
  143.0459  133.3080  150.2577 H   0  0  0  0  0  0  0  0  0  0  0  0
  142.6772  132.3238  151.6471 H   0  0  0  0  0  0  0  0  0  0  0  0
  143.1914  134.4608  152.5011 H   0  0  0  0  0  0  0  0  0  0  0  0
  145.7998  134.5481  150.9042 H   0  0  0  0  0  0  0  0  0  0  0  0
  144.3512  135.4777  150.5867 H   0  0  0  0  0  0  0  0  0  0  0  0
  144.0960  132.8145  153.7678 H   0  0  0  0  0  0  0  0  0  0  0  0
  1  2  3  0  0  0  0
  2  3  1  0  0  0  0
  3  8  1  0  0  0  0
  3  4  2  0  0  0  0
  4  5  1  0  0  0  0
  5  6  2  0  0  0  0
  5 21  1  0  0  0  0
  6  7  1  0  0  0  0
  6 22  1  0  0  0  0
  7  8  2  0  0  0  0
  8  9  1  0  0  0  0
  9 10  1  0  0  0  0
  9 23  1  0  0  0  0
 10 11  1  0  0  0  0
 10 24  1  0  0  0  0
 10 25  1  0  0  0  0
 11 20  1  0  0  0  0
 11 12  1  0  0  0  0
 11 26  1  0  0  0  0
 12 13  1  0  0  0  0
 12 27  1  0  0  0  0
 12 28  1  0  0  0  0
 13 18  1  0  0  0  0
 13 14  1  0  0  0  0
 13 40  1  0  0  0  0
 14 15  1  0  0  0  0
 14 29  1  0  0  0  0
 14 30  1  0  0  0  0
 15 16  1  0  0  0  0
 15 31  1  0  0  0  0
 15 32  1  0  0  0  0
 16 17  1  0  0  0  0
 16 33  1  0  0  0  0
 16 34  1  0  0  0  0
 17 18  1  0  0  0  0
 17 35  1  0  0  0  0
 17 36  1  0  0  0  0
 18 19  1  0  0  0  0
 18 37  1  0  0  0  0
 19 20  1  0  0  0  0
 19 38  1  0  0  0  0
 19 39  1  0  0  0  0
M  CHG  1  13   1
M  END
> <s_m_source_file>
AV-unprocessed.smi

> <i_m_source_file_index>
3068

> <i_lp_mmshare_version>
43012

> <i_f3d_flags>
0

> <s_epik_input>
TiNDYzFuW2NIXVtjSF1uYzFbTkhdW0NIMl1bQ0BIXShbQ0gyXTIpT1tDSDJdW0NAQEhdKE4yMylbQ0gyXVtDSDJdW0NIMl1bQ0gyXTM=

> <s_epik_cmdline>
J2VwaWtfcHl0aG9uJywgJy1waCcsICc3LjAnLCAnLXRuJywgJzgnLCAnLW1hJywgJzIwMCcsICctbWV0YWxfYmluZGluZycsICctaW1hZScsICc8aW5maWxlLm1hZT4nLCAnLW9tYWUnLCAnPG91dGZpbGUubWFlPic=

> <r_epik_Ionization_Penalty>
0.0804321

> <r_epik_Ionization_Penalty_Charging>
0.0803403

> <r_epik_Ionization_Penalty_Neutral>
9.17277e-05

> <r_epik_State_Penalty>
0.0711481

> <r_epik_Charging_Adjusted_Penalty>
0.151488

> <i_epik_Tot_Q>
1

> <i_epik_Tot_abs_Q>
1

> <r_epik_Metal_State_Penalty>
0.0711481

> <b_epik_Metal_Only>
0

> <s_lp_Force_Field>
OPLS_2005

> <r_lp_Energy>
39.7851

> <b_lp_Chiralities_Consistent>
1

> <s_lp_Variant>
AV-unprocessed.smi:3068-6

> <Gold.Version>
5.8.1

> <Gold.Id.Protein>
6NUR|6NUR_protein|mol2

> <Gold.PLP.Fitness>
40.1857

> <Gold.PLP.PLP>
-29.0095

> <Gold.PLP.part.hbond>
-1.9468

> <Gold.PLP.part.metal>
0.0000

> <Gold.PLP.part.buried>
-6.1198

> <Gold.PLP.part.nonpolar>
-23.5664

> <Gold.PLP.part.repulsive>
0.6269

> <Gold.PLP.ligand.clash>
0.0000

> <Gold.PLP.ligand.torsion>
0.6585

> <Gold.PLP.Chemscore.Hbond>
2.7985

> <Gold.PLP.Chemscore.CHOScore>
1.3646

> <Gold.PLP.Chemscore.Metal>
0.0000

> <Gold.Chemscore.Hbonds>
donor molecule, donor type, donor heavy atom, donor atom, acceptor molecule, acceptor atom, score
      L1  H     9    23       P1  7948  0.82
      L1  H    13    40       P1 10957  1.98
      L1  C     5    21       P1  8028  0.48
      L1  C     6    22       P1 10175  0.88

> <Gold.PLP.Chemscore.Internal.Correction>
0.0040

> <Gold.Rescore>
     Score         DG    S(hbond)    S(metal)    S(lipo)     H(rot)  DE(clash)    DE(int)     intcor
     14.98     -15.69       1.90        0.00      62.03       1.32       0.03       0.67       ----

> <Gold.Chemscore.Fitness>
14.9849

> <Gold.Chemscore.DG>
-15.6927

> <Gold.Chemscore.ZeroCoef>
-5.4800

> <Gold.Chemscore.Hbond>
1.8959

> <Gold.Chemscore.Metal>
0.0000

> <Gold.Chemscore.Lipo>
62.0321

> <Gold.Chemscore.Internal_Hbond>
0.0000

> <Gold.Chemscore.DEClash>
0.0336

> <Gold.Chemscore.DEInternal>
0.6742

> <Gold.Chemscore.Rot>
1.3193

> <Gold.Chemscore.Internal.Correction>
   9.000000E+99

> <Gold.Chemscore.Hbonds>
donor molecule, donor type, donor heavy atom, donor atom, acceptor molecule, acceptor atom, score
      L1  H     9    23       P1  7948  0.81
      L1  H    13    40       P1 10957  0.76

> <Gold.Chemscore.Hbond.Weighted>
-6.3323

> <Gold.Chemscore.Metal.Weighted>
-0.0000

> <Gold.Chemscore.Lipo.Weighted>
-7.2578

> <Gold.Chemscore.Internal_Hbond.Weighted>
0.0000

> <Gold.Chemscore.DEClash.Weighted>
0.0336

> <Gold.Chemscore.DEInternal.Weighted>
0.6742

> <Gold.Chemscore.Rot.Weighted>
3.3774

> <Gold.Chemscore.Internal.Correction.Weighted>
   9.000000E+99

> <Gold.Protein.RotatedTorsions>
[ 6907 6896 6895 6894 ] final  -11.92 input  -60.11 | X-H torsion
[ 7974 7965 7964 7962 ] final   70.51 input  175.53 | X-H torsion
[ 8008 7997 7996 7995 ] final   30.43 input   59.86 | X-H torsion
[ 10167 10162 10161 10158 ] final -176.93 input  -65.29 | X-H torsion
[ 10718 10713 10712 10709 ] final -174.49 input   66.30 | X-H torsion
[ 10763 10752 10751 10750 ] final  117.98 input  -60.55 | X-H torsion
[ 11005 11000 10999 10996 ] final   36.44 input  -57.11 | X-H torsion

> <Gold.Protein.ActiveResidues>
 VAL166  LYS551  ARG553  GLY616  TRP617  ASP618  TYR619  PRO620  LYS621  CYS622 
 ASP623  PHE694  ASN695  SER759  ASP760  ASP761  ALA762  ILE779  LEU786  VAL792 
 PHE793  MET794  SER795  GLU796  ALA797  LYS798  CYS799  TRP800  GLU811  SER814 

> <Gold.Protein.RotatedAtoms>
  151.3786  135.0936  159.9488 H   0  0  0  0  0  0  0  0  0  0  0  0  # atno 6907 bound_to 6896
  152.5115  133.9094  159.7491 H   0  0  0  0  0  0  0  0  0  0  0  0  # atno 6908 bound_to 6896
  150.9523  133.6481  159.2798 H   0  0  0  0  0  0  0  0  0  0  0  0  # atno 6909 bound_to 6896
  145.7772  139.2871  143.1286 H   0  0  0  0  0  0  0  0  0  0  0  0  # atno 7974 bound_to 7965
  155.0904  140.3219  155.4575 H   0  0  0  0  0  0  0  0  0  0  0  0  # atno 8008 bound_to 7997
  156.2744  140.2079  156.5977 H   0  0  0  0  0  0  0  0  0  0  0  0  # atno 8009 bound_to 7997
  154.6908  140.0516  157.0349 H   0  0  0  0  0  0  0  0  0  0  0  0  # atno 8010 bound_to 7997
  139.5505  144.2122  152.1068 H   0  0  0  0  0  0  0  0  0  0  0  0  # atno 10167 bound_to 10162
  156.7858  130.9500  151.3120 H   0  0  0  0  0  0  0  0  0  0  0  0  # atno 10718 bound_to 10713
  153.5607  135.3521  155.2798 H   0  0  0  0  0  0  0  0  0  0  0  0  # atno 10763 bound_to 10752
  154.8695  135.4136  154.2834 H   0  0  0  0  0  0  0  0  0  0  0  0  # atno 10764 bound_to 10752
  153.3579  135.7058  153.6805 H   0  0  0  0  0  0  0  0  0  0  0  0  # atno 10765 bound_to 10752
  140.2325  134.3511  155.7958 H   0  0  0  0  0  0  0  0  0  0  0  0  # atno 11005 bound_to 11000
  146.0110  140.8435  142.9971 LP  0  0  0  0  0  0  0  0  0  0  0  0  # atno 17320 bound_to 7965
  144.6802  140.2490  143.7334 LP  0  0  0  0  0  0  0  0  0  0  0  0  # atno 17321 bound_to 7965
  140.1617  144.5020  150.6629 LP  0  0  0  0  0  0  0  0  0  0  0  0  # atno 17342 bound_to 10162
  140.6766  143.2308  151.5492 LP  0  0  0  0  0  0  0  0  0  0  0  0  # atno 17343 bound_to 10162
  157.6624  130.8978  149.9859 LP  0  0  0  0  0  0  0  0  0  0  0  0  # atno 17370 bound_to 10713
  156.1189  130.3646  149.9920 LP  0  0  0  0  0  0  0  0  0  0  0  0  # atno 17371 bound_to 10713
  141.2217  133.7253  156.8754 LP  0  0  0  0  0  0  0  0  0  0  0  0  # atno 17394 bound_to 11000
  140.1736  134.9083  157.2863 LP  0  0  0  0  0  0  0  0  0  0  0  0  # atno 17395 bound_to 11000

$$$$
