AV-unprocessed.smi:1760|AV-procd|sdf|7090|dock7
  -GOLD-   22720 8303D 1   1.00000     0.00000
 Structure written by MMmdl.
 44 46  0  0  0  0  0  0  0  0  2 V2000
  150.6860  137.7928  159.2999 O   0  0  0  0  0  0  0  0  0  0  0  0
  150.4566  138.3210  158.2123 C   0  0  0  0  0  0  0  0  0  0  0  0
  150.8921  139.5316  157.8173 N   0  0  0  0  0  0  0  0  0  0  0  0
  151.6654  140.4720  158.5190 C   0  0  0  0  0  0  0  0  0  0  0  0
  151.4168  141.8071  158.5622 C   0  0  0  0  0  0  0  0  0  0  0  0
  152.2646  142.7261  159.3035 C   0  0  0  0  0  0  0  0  0  0  0  0
  151.9273  144.2047  159.4170 C   0  0  0  0  0  0  0  0  0  0  0  0
  152.0830  144.6422  160.6672 F   0  0  0  0  0  0  0  0  0  0  0  0
  152.7313  144.9141  158.6263 F   0  0  0  0  0  0  0  0  0  0  0  0
  150.6684  144.4382  159.0457 F   0  0  0  0  0  0  0  0  0  0  0  0
  153.3118  142.1852  159.9532 C   0  0  0  0  0  0  0  0  0  0  0  0
  153.5886  140.8177  159.8934 N   0  0  0  0  0  0  0  0  0  0  0  0
  152.8368  139.9191  159.2189 C   0  0  0  0  0  0  0  0  0  0  0  0
  153.1460  138.7279  159.2160 O   0  0  0  0  0  0  0  0  0  0  0  0
  149.7424  137.7326  157.2416 N   0  0  0  0  0  0  0  0  0  0  0  0
  149.1468  136.4002  157.3050 C   0  0  2  0  0  0  0  0  0  0  0  0
  149.8601  135.4600  156.3192 C   0  0  0  0  0  0  0  0  0  0  0  0
  149.1850  134.0758  156.2830 C   0  0  0  0  0  0  0  0  0  0  0  0
  147.7346  134.1693  155.9745 N   0  3  2  0  0  0  0  0  0  0  0  0
  147.4559  134.4704  154.5504 C   0  0  0  0  0  0  0  0  0  0  0  0
  147.0243  133.2645  153.7490 C   0  0  0  0  0  0  0  0  0  0  0  0
  148.4238  133.8160  153.5925 C   0  0  0  0  0  0  0  0  0  0  0  0
  147.0197  135.0681  156.9172 C   0  0  0  0  0  0  0  0  0  0  0  0
  147.6480  136.4739  156.9685 C   0  0  0  0  0  0  0  0  0  0  0  0
  154.4036  140.4918  160.3929 H   0  0  0  0  0  0  0  0  0  0  0  0
  150.6761  139.7970  156.8674 H   0  0  0  0  0  0  0  0  0  0  0  0
  150.5859  142.2355  158.0262 H   0  0  0  0  0  0  0  0  0  0  0  0
  154.0040  142.7455  160.5644 H   0  0  0  0  0  0  0  0  0  0  0  0
  149.6104  138.2454  156.3819 H   0  0  0  0  0  0  0  0  0  0  0  0
  149.2507  135.9813  158.3077 H   0  0  0  0  0  0  0  0  0  0  0  0
  149.8609  135.8967  155.3197 H   0  0  0  0  0  0  0  0  0  0  0  0
  150.9072  135.3485  156.6036 H   0  0  0  0  0  0  0  0  0  0  0  0
  149.6798  133.4295  155.5573 H   0  0  0  0  0  0  0  0  0  0  0  0
  149.2993  133.5911  157.2534 H   0  0  0  0  0  0  0  0  0  0  0  0
  147.0438  135.4522  154.3265 H   0  0  0  0  0  0  0  0  0  0  0  0
  146.9145  132.3129  154.2663 H   0  0  0  0  0  0  0  0  0  0  0  0
  146.3290  133.4300  152.9286 H   0  0  0  0  0  0  0  0  0  0  0  0
  148.6506  134.3451  152.6690 H   0  0  0  0  0  0  0  0  0  0  0  0
  149.2434  133.2306  154.0056 H   0  0  0  0  0  0  0  0  0  0  0  0
  145.9656  135.1315  156.6448 H   0  0  0  0  0  0  0  0  0  0  0  0
  147.0528  134.6196  157.9110 H   0  0  0  0  0  0  0  0  0  0  0  0
  147.1294  137.0790  157.7131 H   0  0  0  0  0  0  0  0  0  0  0  0
  147.5036  136.9780  156.0121 H   0  0  0  0  0  0  0  0  0  0  0  0
  147.3563  133.2454  156.1280 H   0  0  0  0  0  0  0  0  0  0  0  0
  1  2  2  0  0  0  0
  2  3  1  0  0  0  0
  2 15  1  0  0  0  0
  3  4  1  0  0  0  0
  3 26  1  0  0  0  0
  4 13  1  0  0  0  0
  4  5  2  0  0  0  0
  5  6  1  0  0  0  0
  5 27  1  0  0  0  0
  6  7  1  0  0  0  0
  6 11  2  0  0  0  0
  7  8  1  0  0  0  0
  7  9  1  0  0  0  0
  7 10  1  0  0  0  0
 11 12  1  0  0  0  0
 11 28  1  0  0  0  0
 12 25  1  0  0  0  0
 12 13  1  0  0  0  0
 13 14  2  0  0  0  0
 15 16  1  0  0  0  0
 15 29  1  0  0  0  0
 16 24  1  0  0  0  0
 16 17  1  0  0  0  0
 16 30  1  0  0  0  0
 17 18  1  0  0  0  0
 17 31  1  0  0  0  0
 17 32  1  0  0  0  0
 18 19  1  0  0  0  0
 18 33  1  0  0  0  0
 18 34  1  0  0  0  0
 19 20  1  0  0  0  0
 19 23  1  0  0  0  0
 19 44  1  0  0  0  0
 20 22  1  0  0  0  0
 20 21  1  0  0  0  0
 20 35  1  0  0  0  0
 21 22  1  0  0  0  0
 21 36  1  0  0  0  0
 21 37  1  0  0  0  0
 22 38  1  0  0  0  0
 22 39  1  0  0  0  0
 23 24  1  0  0  0  0
 23 40  1  0  0  0  0
 23 41  1  0  0  0  0
 24 42  1  0  0  0  0
 24 43  1  0  0  0  0
M  CHG  1  19   1
M  END
> <s_m_source_file>
AV-unprocessed.smi

> <i_m_source_file_index>
1760

> <i_lp_mmshare_version>
43012

> <i_f3d_flags>
0

> <s_epik_input>
W0NIMl0xW0NIMl1bQ0hdMU4oW0NIMl1bQ0gyXTIpW0NIMl1bQ0gyXVtDSF0yW05IXUMoPU8pW05IXWMzW2NIXWMoQyhGKShGKUYpW2NIXVtuSF1jMz1P

> <s_epik_cmdline>
J2VwaWtfcHl0aG9uJywgJy1waCcsICc3LjAnLCAnLXRuJywgJzgnLCAnLW1hJywgJzIwMCcsICctbWV0YWxfYmluZGluZycsICctaW1hZScsICc8aW5maWxlLm1hZT4nLCAnLW9tYWUnLCAnPG91dGZpbGUubWFlPic=

> <r_lp_tautomer_probability>
0.999

> <r_epik_Ionization_Penalty>
0.131122

> <r_epik_Ionization_Penalty_Charging>
0.131104

> <r_epik_Ionization_Penalty_Neutral>
1.84439e-05

> <r_epik_State_Penalty>
0.116042

> <r_epik_Charging_Adjusted_Penalty>
0.247146

> <i_epik_Tot_Q>
1

> <i_epik_Tot_abs_Q>
1

> <r_epik_Metal_State_Penalty>
0.492282

> <b_epik_Metal_Only>
0

> <s_lp_Force_Field>
OPLS_2005

> <r_lp_Energy>
39.2626

> <b_lp_Chiralities_Consistent>
1

> <s_lp_Variant>
AV-unprocessed.smi:1760-2

> <Gold.Version>
5.8.1

> <Gold.Id.Protein>
6NUR|6NUR_protein|mol2

> <Gold.PLP.Fitness>
38.4739

> <Gold.PLP.PLP>
-41.0641

> <Gold.PLP.part.hbond>
0.0000

> <Gold.PLP.part.metal>
0.0000

> <Gold.PLP.part.buried>
-7.1754

> <Gold.PLP.part.nonpolar>
-34.2146

> <Gold.PLP.part.repulsive>
0.1663

> <Gold.PLP.ligand.clash>
0.0000

> <Gold.PLP.ligand.torsion>
1.9482

> <Gold.PLP.Chemscore.Hbond>
0.0000

> <Gold.PLP.Chemscore.CHOScore>
0.0000

> <Gold.PLP.Chemscore.Metal>
0.0000

> <Gold.PLP.Chemscore.Internal.Correction>
1.3061

> <Gold.Rescore>
     Score         DG    S(hbond)    S(metal)    S(lipo)     H(rot)  DE(clash)    DE(int)     intcor
     12.48     -14.44       0.99        0.00      76.36       1.29       0.07       1.89       ----

> <Gold.Chemscore.Fitness>
12.4776

> <Gold.Chemscore.DG>
-14.4393

> <Gold.Chemscore.ZeroCoef>
-5.4800

> <Gold.Chemscore.Hbond>
0.9943

> <Gold.Chemscore.Metal>
0.0000

> <Gold.Chemscore.Lipo>
76.3610

> <Gold.Chemscore.Internal_Hbond>
0.0000

> <Gold.Chemscore.DEClash>
0.0695

> <Gold.Chemscore.DEInternal>
1.8921

> <Gold.Chemscore.Rot>
1.2875

> <Gold.Chemscore.Internal.Correction>
   9.000000E+99

> <Gold.Chemscore.Hbond.Weighted>
-3.3210

> <Gold.Chemscore.Metal.Weighted>
-0.0000

> <Gold.Chemscore.Lipo.Weighted>
-8.9342

> <Gold.Chemscore.Internal_Hbond.Weighted>
0.0000

> <Gold.Chemscore.DEClash.Weighted>
0.0695

> <Gold.Chemscore.DEInternal.Weighted>
1.8921

> <Gold.Chemscore.Rot.Weighted>
3.2960

> <Gold.Chemscore.Internal.Correction.Weighted>
   9.000000E+99

> <Gold.Protein.RotatedTorsions>
[ 6907 6896 6895 6894 ] final  -13.04 input  -60.11 | X-H torsion
[ 7974 7965 7964 7962 ] final  176.83 input  175.53 | X-H torsion
[ 8008 7997 7996 7995 ] final   27.73 input   59.86 | X-H torsion
[ 10167 10162 10161 10158 ] final  -90.50 input  -65.29 | X-H torsion
[ 10718 10713 10712 10709 ] final -168.39 input   66.30 | X-H torsion
[ 10763 10752 10751 10750 ] final   41.96 input  -60.55 | X-H torsion
[ 11005 11000 10999 10996 ] final   28.65 input  -57.11 | X-H torsion

> <Gold.Protein.ActiveResidues>
 VAL166  LYS551  ARG553  GLY616  TRP617  ASP618  TYR619  PRO620  LYS621  CYS622 
 ASP623  PHE694  ASN695  SER759  ASP760  ASP761  ALA762  ILE779  LEU786  VAL792 
 PHE793  MET794  SER795  GLU796  ALA797  LYS798  CYS799  TRP800  GLU811  SER814 

> <Gold.Protein.RotatedAtoms>
  151.3611  135.0904  159.9434 H   0  0  0  0  0  0  0  0  0  0  0  0  # atno 6907 bound_to 6896
  152.5161  133.9257  159.7566 H   0  0  0  0  0  0  0  0  0  0  0  0  # atno 6908 bound_to 6896
  150.9652  133.6348  159.2777 H   0  0  0  0  0  0  0  0  0  0  0  0  # atno 6909 bound_to 6896
  144.7178  140.0155  143.6440 H   0  0  0  0  0  0  0  0  0  0  0  0  # atno 7974 bound_to 7965
  155.0475  140.3176  155.4703 H   0  0  0  0  0  0  0  0  0  0  0  0  # atno 8008 bound_to 7997
  156.2842  140.2152  156.5543 H   0  0  0  0  0  0  0  0  0  0  0  0  # atno 8009 bound_to 7997
  154.7238  140.0487  157.0652 H   0  0  0  0  0  0  0  0  0  0  0  0  # atno 8010 bound_to 7997
  140.3542  143.2875  151.9690 H   0  0  0  0  0  0  0  0  0  0  0  0  # atno 10167 bound_to 10162
  156.6962  130.9178  151.3074 H   0  0  0  0  0  0  0  0  0  0  0  0  # atno 10718 bound_to 10713
  152.9895  135.6146  154.2871 H   0  0  0  0  0  0  0  0  0  0  0  0  # atno 10763 bound_to 10752
  154.2598  135.2782  155.2784 H   0  0  0  0  0  0  0  0  0  0  0  0  # atno 10764 bound_to 10752
  154.5215  135.5813  153.6742 H   0  0  0  0  0  0  0  0  0  0  0  0  # atno 10765 bound_to 10752
  140.3133  134.2625  155.7730 H   0  0  0  0  0  0  0  0  0  0  0  0  # atno 11005 bound_to 11000
  146.0223  139.3262  143.0805 LP  0  0  0  0  0  0  0  0  0  0  0  0  # atno 17320 bound_to 7965
  145.8553  140.9506  143.0728 LP  0  0  0  0  0  0  0  0  0  0  0  0  # atno 17321 bound_to 7965
  139.4822  144.6049  151.7539 LP  0  0  0  0  0  0  0  0  0  0  0  0  # atno 17342 bound_to 10162
  140.5189  144.0909  150.6017 LP  0  0  0  0  0  0  0  0  0  0  0  0  # atno 17343 bound_to 10162
  157.6990  130.9313  150.0730 LP  0  0  0  0  0  0  0  0  0  0  0  0  # atno 17370 bound_to 10713
  156.1762  130.3648  149.9097 LP  0  0  0  0  0  0  0  0  0  0  0  0  # atno 17371 bound_to 10713
  141.2103  133.7723  156.9939 LP  0  0  0  0  0  0  0  0  0  0  0  0  # atno 17394 bound_to 11000
  140.1006  134.9538  157.1916 LP  0  0  0  0  0  0  0  0  0  0  0  0  # atno 17395 bound_to 11000

$$$$
