AV-unprocessed.smi:1119|AV-procd|sdf|4817|dock6
  -GOLD-   22720 3373D 1   1.00000     0.00000
 Structure written by MMmdl.
 31 32  0  0  0  0  0  0  0  0  1 V2000
  147.0926  141.5673  153.7386 C   0  0  0  0  0  0  0  0  0  0  0  0
  148.1259  141.7537  154.6998 O   0  0  0  0  0  0  0  0  0  0  0  0
  149.1246  140.8026  154.7869 C   0  0  0  0  0  0  0  0  0  0  0  0
  148.9670  139.6375  154.1095 N   0  0  0  0  0  0  0  0  0  0  0  0
  149.9392  138.7066  154.1960 C   0  0  0  0  0  0  0  0  0  0  0  0
  151.1074  138.8816  154.9604 C   0  0  0  0  0  0  0  0  0  0  0  0
  151.2739  140.0892  155.6632 C   0  0  0  0  0  0  0  0  0  0  0  0
  150.2687  141.0820  155.5702 C   0  0  0  0  0  0  0  0  0  0  0  0
  150.3302  142.3240  156.2598 N   0  0  0  0  0  0  0  0  0  0  0  0
  151.0079  142.6195  157.3818 C   0  0  0  0  0  0  0  0  0  0  0  0
  151.7344  141.8404  157.9989 O   0  0  0  0  0  0  0  0  0  0  0  0
  150.8125  143.8948  157.7442 N   0  0  0  0  0  0  0  0  0  0  0  0
  151.4316  144.5391  158.8954 C   0  0  0  0  0  0  0  0  0  0  0  0
  151.3402  143.7521  160.1884 C   0  0  0  0  0  0  0  0  0  0  0  0
  152.0192  144.2349  161.4491 C   0  0  0  0  0  0  0  0  0  0  0  0
  152.5486  143.0209  160.7253 C   0  0  0  0  0  0  0  0  0  0  0  0
  146.3964  142.4040  153.7910 H   0  0  0  0  0  0  0  0  0  0  0  0
  146.5278  140.6544  153.9325 H   0  0  0  0  0  0  0  0  0  0  0  0
  147.4921  141.5335  152.7238 H   0  0  0  0  0  0  0  0  0  0  0  0
  149.7780  137.7925  153.6441 H   0  0  0  0  0  0  0  0  0  0  0  0
  151.8566  138.1054  155.0106 H   0  0  0  0  0  0  0  0  0  0  0  0
  152.1562  140.2247  156.2694 H   0  0  0  0  0  0  0  0  0  0  0  0
  149.8574  143.0929  155.8078 H   0  0  0  0  0  0  0  0  0  0  0  0
  150.2007  144.4636  157.1775 H   0  0  0  0  0  0  0  0  0  0  0  0
  152.4864  144.6854  158.6624 H   0  0  0  0  0  0  0  0  0  0  0  0
  151.0118  145.5361  159.0405 H   0  0  0  0  0  0  0  0  0  0  0  0
  150.3895  143.2385  160.3201 H   0  0  0  0  0  0  0  0  0  0  0  0
  152.6057  145.1499  161.3915 H   0  0  0  0  0  0  0  0  0  0  0  0
  151.4985  144.0741  162.3910 H   0  0  0  0  0  0  0  0  0  0  0  0
  152.3844  142.0491  161.1865 H   0  0  0  0  0  0  0  0  0  0  0  0
  153.4891  143.1293  160.1882 H   0  0  0  0  0  0  0  0  0  0  0  0
  1  2  1  0  0  0  0
  1 17  1  0  0  0  0
  1 18  1  0  0  0  0
  1 19  1  0  0  0  0
  2  3  1  0  0  0  0
  3  8  1  0  0  0  0
  3  4  2  0  0  0  0
  4  5  1  0  0  0  0
  5  6  2  0  0  0  0
  5 20  1  0  0  0  0
  6  7  1  0  0  0  0
  6 21  1  0  0  0  0
  7  8  2  0  0  0  0
  7 22  1  0  0  0  0
  8  9  1  0  0  0  0
  9 10  1  0  0  0  0
  9 23  1  0  0  0  0
 10 11  2  0  0  0  0
 10 12  1  0  0  0  0
 12 13  1  0  0  0  0
 12 24  1  0  0  0  0
 13 14  1  0  0  0  0
 13 25  1  0  0  0  0
 13 26  1  0  0  0  0
 14 16  1  0  0  0  0
 14 15  1  0  0  0  0
 14 27  1  0  0  0  0
 15 16  1  0  0  0  0
 15 28  1  0  0  0  0
 15 29  1  0  0  0  0
 16 30  1  0  0  0  0
 16 31  1  0  0  0  0
M  END
> <s_m_source_file>
AV-unprocessed.smi

> <i_m_source_file_index>
1119

> <i_lp_mmshare_version>
43012

> <i_f3d_flags>
0

> <s_epik_input>
W0NIM11PYzFuW2NIXVtjSF1bY0hdYzFbTkhdQyg9TylbTkhdW0NIMl1bQ0hdMltDSDJdW0NIMl0y

> <s_epik_cmdline>
J2VwaWtfcHl0aG9uJywgJy1waCcsICc3LjAnLCAnLXRuJywgJzgnLCAnLW1hJywgJzIwMCcsICctbWV0YWxfYmluZGluZycsICctaW1hZScsICc8aW5maWxlLm1hZT4nLCAnLW9tYWUnLCAnPG91dGZpbGUubWFlPic=

> <r_lp_tautomer_probability>
1

> <r_epik_Ionization_Penalty>
9.92152e-05

> <r_epik_Ionization_Penalty_Charging>
0

> <r_epik_Ionization_Penalty_Neutral>
9.92152e-05

> <r_epik_State_Penalty>
-0

> <r_epik_Charging_Adjusted_Penalty>
0

> <i_epik_Tot_Q>
0

> <i_epik_Tot_abs_Q>
0

> <r_epik_Metal_State_Penalty>
-0

> <b_epik_Metal_Only>
0

> <s_lp_Force_Field>
OPLS_2005

> <r_lp_Energy>
14.7926

> <b_lp_Chiralities_Consistent>
1

> <s_lp_Variant>
AV-unprocessed.smi:1119-1

> <Gold.Version>
5.8.1

> <Gold.Id.Protein>
6NUR|6NUR_protein|mol2

> <Gold.PLP.Fitness>
46.4088

> <Gold.PLP.PLP>
-38.1239

> <Gold.PLP.part.hbond>
-2.0000

> <Gold.PLP.part.metal>
0.0000

> <Gold.PLP.part.buried>
-5.4254

> <Gold.PLP.part.nonpolar>
-31.8420

> <Gold.PLP.part.repulsive>
1.0036

> <Gold.PLP.ligand.clash>
0.0000

> <Gold.PLP.ligand.torsion>
0.6157

> <Gold.PLP.Chemscore.Hbond>
1.9913

> <Gold.PLP.Chemscore.CHOScore>
1.0000

> <Gold.PLP.Chemscore.Metal>
0.0000

> <Gold.Chemscore.Hbonds>
donor molecule, donor type, donor heavy atom, donor atom, acceptor molecule, acceptor atom, score
      L1  H     9    23       P1  8028  1.00
      L1  H    12    24       P1  8028  1.00
      L1  C     5    20       P1  7948  1.00

> <Gold.PLP.Chemscore.Internal.Correction>
0.5426

> <Gold.Rescore>
     Score         DG    S(hbond)    S(metal)    S(lipo)     H(rot)  DE(clash)    DE(int)     intcor
     15.84     -17.49       1.86        0.00      81.14       1.45       0.00       1.64       ----

> <Gold.Chemscore.Fitness>
15.8432

> <Gold.Chemscore.DG>
-17.4908

> <Gold.Chemscore.ZeroCoef>
-5.4800

> <Gold.Chemscore.Hbond>
1.8649

> <Gold.Chemscore.Metal>
0.0000

> <Gold.Chemscore.Lipo>
81.1377

> <Gold.Chemscore.Internal_Hbond>
0.0000

> <Gold.Chemscore.DEClash>
0.0042

> <Gold.Chemscore.DEInternal>
1.6434

> <Gold.Chemscore.Rot>
1.4497

> <Gold.Chemscore.Internal.Correction>
   9.000000E+99

> <Gold.Chemscore.Hbonds>
donor molecule, donor type, donor heavy atom, donor atom, acceptor molecule, acceptor atom, score
      L1  H     9    23       P1  8028  0.99
      L1  H    12    24       P1  8028  0.57

> <Gold.Chemscore.Hbond.Weighted>
-6.2289

> <Gold.Chemscore.Metal.Weighted>
-0.0000

> <Gold.Chemscore.Lipo.Weighted>
-9.4931

> <Gold.Chemscore.Internal_Hbond.Weighted>
0.0000

> <Gold.Chemscore.DEClash.Weighted>
0.0042

> <Gold.Chemscore.DEInternal.Weighted>
1.6434

> <Gold.Chemscore.Rot.Weighted>
3.7111

> <Gold.Chemscore.Internal.Correction.Weighted>
   9.000000E+99

> <Gold.Protein.RotatedTorsions>
[ 6907 6896 6895 6894 ] final  -23.48 input  -60.11 | X-H torsion
[ 7974 7965 7964 7962 ] final   38.18 input  175.53 | X-H torsion
[ 8008 7997 7996 7995 ] final   33.85 input   59.86 | X-H torsion
[ 10167 10162 10161 10158 ] final  -90.00 input  -65.29 | X-H torsion
[ 10718 10713 10712 10709 ] final  126.04 input   66.30 | X-H torsion
[ 10763 10752 10751 10750 ] final  -66.81 input  -60.55 | X-H torsion
[ 11005 11000 10999 10996 ] final  154.41 input  -57.11 | X-H torsion

> <Gold.Protein.ActiveResidues>
 VAL166  LYS551  ARG553  GLY616  TRP617  ASP618  TYR619  PRO620  LYS621  CYS622 
 ASP623  PHE694  ASN695  SER759  ASP760  ASP761  ALA762  ILE779  LEU786  VAL792 
 PHE793  MET794  SER795  GLU796  ALA797  LYS798  CYS799  TRP800  GLU811  SER814 

> <Gold.Protein.RotatedAtoms>
  151.2035  135.0452  159.8881 H   0  0  0  0  0  0  0  0  0  0  0  0  # atno 6907 bound_to 6896
  152.5431  134.0824  159.8251 H   0  0  0  0  0  0  0  0  0  0  0  0  # atno 6908 bound_to 6896
  151.0968  133.5226  159.2644 H   0  0  0  0  0  0  0  0  0  0  0  0  # atno 6909 bound_to 6896
  146.1081  139.5804  142.9370 H   0  0  0  0  0  0  0  0  0  0  0  0  # atno 7974 bound_to 7965
  155.1452  140.3270  155.4443 H   0  0  0  0  0  0  0  0  0  0  0  0  # atno 8008 bound_to 7997
  156.2592  140.1986  156.6516 H   0  0  0  0  0  0  0  0  0  0  0  0  # atno 8009 bound_to 7997
  154.6513  140.0558  156.9945 H   0  0  0  0  0  0  0  0  0  0  0  0  # atno 8010 bound_to 7997
  140.3592  143.2851  151.9635 H   0  0  0  0  0  0  0  0  0  0  0  0  # atno 10167 bound_to 10162
  157.5453  131.1096  150.8793 H   0  0  0  0  0  0  0  0  0  0  0  0  # atno 10718 bound_to 10713
  154.3653  135.6107  153.5712 H   0  0  0  0  0  0  0  0  0  0  0  0  # atno 10763 bound_to 10752
  152.9792  135.5825  154.4585 H   0  0  0  0  0  0  0  0  0  0  0  0  # atno 10764 bound_to 10752
  154.4330  135.2848  155.1877 H   0  0  0  0  0  0  0  0  0  0  0  0  # atno 10765 bound_to 10752
  140.1487  134.8690  157.2426 H   0  0  0  0  0  0  0  0  0  0  0  0  # atno 11005 bound_to 11000
  145.5719  141.0393  143.2170 LP  0  0  0  0  0  0  0  0  0  0  0  0  # atno 17320 bound_to 7965
  144.7488  139.7248  143.7281 LP  0  0  0  0  0  0  0  0  0  0  0  0  # atno 17321 bound_to 7965
  139.4816  144.6008  151.7609 LP  0  0  0  0  0  0  0  0  0  0  0  0  # atno 17342 bound_to 10162
  140.5144  144.0976  150.6004 LP  0  0  0  0  0  0  0  0  0  0  0  0  # atno 17343 bound_to 10162
  156.9333  130.5358  149.5279 LP  0  0  0  0  0  0  0  0  0  0  0  0  # atno 17370 bound_to 10713
  156.0530  130.5596  150.9031 LP  0  0  0  0  0  0  0  0  0  0  0  0  # atno 17371 bound_to 10713
  140.2632  134.3547  155.7399 LP  0  0  0  0  0  0  0  0  0  0  0  0  # atno 17394 bound_to 11000
  141.2196  133.7381  156.9111 LP  0  0  0  0  0  0  0  0  0  0  0  0  # atno 17395 bound_to 11000

$$$$
