AV-unprocessed.smi:757|AV-procd|sdf|3614|dock6
  -GOLD-   22720 1 13D 1   1.00000     0.00000
 Structure written by MMmdl.
 45 46  0  0  0  0  0  0  0  0  2 V2000
  148.8485  126.7518  150.7238 C   0  0  0  0  0  0  0  0  0  0  0  0
  147.9342  127.5484  150.8666 C   0  0  0  0  0  0  0  0  0  0  0  0
  146.8379  128.5127  151.0529 C   0  0  0  0  0  0  0  0  0  0  0  0
  146.7387  129.0421  152.4952 C   0  0  0  0  0  0  0  0  0  0  0  0
  147.3726  130.3752  152.6563 N   0  3  2  0  0  0  0  0  0  0  0  0
  147.9483  130.5600  154.0139 C   0  0  0  0  0  0  0  0  0  0  0  0
  148.7175  131.8874  154.1199 C   0  0  0  0  0  0  0  0  0  0  0  0
  147.8193  133.0792  153.7539 C   0  0  1  0  0  0  0  0  0  0  0  0
  148.5923  134.3175  153.7915 N   0  0  0  0  0  0  0  0  0  0  0  0
  149.2480  134.7831  154.8648 C   0  0  0  0  0  0  0  0  0  0  0  0
  149.2478  134.2137  155.9560 O   0  0  0  0  0  0  0  0  0  0  0  0
  149.8722  135.9414  154.5900 N   0  0  0  0  0  0  0  0  0  0  0  0
  150.6942  136.7303  155.4406 C   0  0  0  0  0  0  0  0  0  0  0  0
  150.9559  136.4330  156.7997 C   0  0  0  0  0  0  0  0  0  0  0  0
  151.8050  137.2849  157.5317 C   0  0  0  0  0  0  0  0  0  0  0  0
  152.3744  138.4001  156.8859 C   0  0  0  0  0  0  0  0  0  0  0  0
  153.2067  139.2282  157.6107 O   0  0  0  0  0  0  0  0  0  0  0  0
  153.7107  138.7578  158.8560 C   0  0  0  0  0  0  0  0  0  0  0  0
  152.1382  138.6846  155.5813 N   0  0  0  0  0  0  0  0  0  0  0  0
  151.3226  137.8645  154.8858 C   0  0  0  0  0  0  0  0  0  0  0  0
  147.2098  132.8501  152.3589 C   0  0  0  0  0  0  0  0  0  0  0  0
  146.4733  131.5018  152.2893 C   0  0  0  0  0  0  0  0  0  0  0  0
  149.6495  126.0583  150.5970 H   0  0  0  0  0  0  0  0  0  0  0  0
  147.0038  129.3351  150.3563 H   0  0  0  0  0  0  0  0  0  0  0  0
  145.9197  128.0116  150.7482 H   0  0  0  0  0  0  0  0  0  0  0  0
  145.6996  129.0840  152.8267 H   0  0  0  0  0  0  0  0  0  0  0  0
  147.2434  128.3322  153.1531 H   0  0  0  0  0  0  0  0  0  0  0  0
  147.1496  130.5268  154.7569 H   0  0  0  0  0  0  0  0  0  0  0  0
  148.6274  129.7375  154.2425 H   0  0  0  0  0  0  0  0  0  0  0  0
  149.1049  132.0075  155.1325 H   0  0  0  0  0  0  0  0  0  0  0  0
  149.5846  131.8568  153.4581 H   0  0  0  0  0  0  0  0  0  0  0  0
  147.0145  133.1400  154.4895 H   0  0  0  0  0  0  0  0  0  0  0  0
  148.6416  134.8523  152.9366 H   0  0  0  0  0  0  0  0  0  0  0  0
  149.7088  136.3271  153.6714 H   0  0  0  0  0  0  0  0  0  0  0  0
  150.5387  135.5681  157.2912 H   0  0  0  0  0  0  0  0  0  0  0  0
  152.0202  137.0823  158.5703 H   0  0  0  0  0  0  0  0  0  0  0  0
  154.3488  139.5224  159.2986 H   0  0  0  0  0  0  0  0  0  0  0  0
  154.3136  137.8576  158.7289 H   0  0  0  0  0  0  0  0  0  0  0  0
  152.9034  138.5529  159.5607 H   0  0  0  0  0  0  0  0  0  0  0  0
  151.1642  138.1270  153.8497 H   0  0  0  0  0  0  0  0  0  0  0  0
  146.5177  133.6560  152.1117 H   0  0  0  0  0  0  0  0  0  0  0  0
  147.9947  132.8745  151.6014 H   0  0  0  0  0  0  0  0  0  0  0  0
  146.0871  131.3674  151.2797 H   0  0  0  0  0  0  0  0  0  0  0  0
  145.6108  131.5125  152.9578 H   0  0  0  0  0  0  0  0  0  0  0  0
  148.1523  130.3985  152.0145 H   0  0  0  0  0  0  0  0  0  0  0  0
  1  2  3  0  0  0  0
  1 23  1  0  0  0  0
  2  3  1  0  0  0  0
  3  4  1  0  0  0  0
  3 24  1  0  0  0  0
  3 25  1  0  0  0  0
  4  5  1  0  0  0  0
  4 26  1  0  0  0  0
  4 27  1  0  0  0  0
  5 22  1  0  0  0  0
  5  6  1  0  0  0  0
  5 45  1  0  0  0  0
  6  7  1  0  0  0  0
  6 28  1  0  0  0  0
  6 29  1  0  0  0  0
  7  8  1  0  0  0  0
  7 30  1  0  0  0  0
  7 31  1  0  0  0  0
  8  9  1  0  0  0  0
  8 21  1  0  0  0  0
  8 32  1  0  0  0  0
  9 10  1  0  0  0  0
  9 33  1  0  0  0  0
 10 11  2  0  0  0  0
 10 12  1  0  0  0  0
 12 13  1  0  0  0  0
 12 34  1  0  0  0  0
 13 20  1  0  0  0  0
 13 14  2  0  0  0  0
 14 15  1  0  0  0  0
 14 35  1  0  0  0  0
 15 16  2  0  0  0  0
 15 36  1  0  0  0  0
 16 17  1  0  0  0  0
 16 19  1  0  0  0  0
 17 18  1  0  0  0  0
 18 37  1  0  0  0  0
 18 38  1  0  0  0  0
 18 39  1  0  0  0  0
 19 20  2  0  0  0  0
 20 40  1  0  0  0  0
 21 22  1  0  0  0  0
 21 41  1  0  0  0  0
 21 42  1  0  0  0  0
 22 43  1  0  0  0  0
 22 44  1  0  0  0  0
M  CHG  1   5   1
M  END
> <s_m_source_file>
AV-unprocessed.smi

> <i_m_source_file_index>
757

> <i_lp_mmshare_version>
43012

> <i_f3d_flags>
0

> <s_epik_input>
W0NIXSNDW0NIMl1bQ0gyXU4xW0NIMl1bQ0gyXVtDSF0oW0NIMl1bQ0gyXTEpW05IXUMoPU8pW05IXWMyW2NIXVtjSF1jKE9bQ0gzXSluW2NIXTI=

> <s_epik_cmdline>
J2VwaWtfcHl0aG9uJywgJy1waCcsICc3LjAnLCAnLXRuJywgJzgnLCAnLW1hJywgJzIwMCcsICctbWV0YWxfYmluZGluZycsICctaW1hZScsICc8aW5maWxlLm1hZT4nLCAnLW9tYWUnLCAnPG91dGZpbGUubWFlPic=

> <r_lp_tautomer_probability>
1

> <r_epik_Ionization_Penalty>
0.0402573

> <r_epik_Ionization_Penalty_Charging>
0.0401786

> <r_epik_Ionization_Penalty_Neutral>
7.86509e-05

> <r_epik_State_Penalty>
0.0338029

> <r_epik_Charging_Adjusted_Penalty>
0.0739815

> <i_epik_Tot_Q>
1

> <i_epik_Tot_abs_Q>
1

> <r_epik_Metal_State_Penalty>
0.0338035

> <b_epik_Metal_Only>
0

> <s_lp_Force_Field>
OPLS_2005

> <r_lp_Energy>
20.3265

> <b_lp_Chiralities_Consistent>
1

> <s_lp_Variant>
AV-unprocessed.smi:757-1

> <Gold.Version>
5.8.1

> <Gold.Id.Protein>
6NUR|6NUR_protein|mol2

> <Gold.PLP.Fitness>
48.6171

> <Gold.PLP.PLP>
-38.2393

> <Gold.PLP.part.hbond>
-4.1331

> <Gold.PLP.part.metal>
0.0000

> <Gold.PLP.part.buried>
-4.7659

> <Gold.PLP.part.nonpolar>
-29.7840

> <Gold.PLP.part.repulsive>
0.0788

> <Gold.PLP.ligand.clash>
0.0480

> <Gold.PLP.ligand.torsion>
0.8047

> <Gold.PLP.Chemscore.Hbond>
4.0000

> <Gold.PLP.Chemscore.CHOScore>
0.0000

> <Gold.PLP.Chemscore.Metal>
0.0000

> <Gold.Chemscore.Hbonds>
donor molecule, donor type, donor heavy atom, donor atom, acceptor molecule, acceptor atom, score
      L1  H     5    45       P1 10747  1.00
      L1  H     9    33       P1  7948  1.00
      L1  H    12    34       P1  7948  1.00
      P1  H  7997  8008       L1    17  1.00

> <Gold.PLP.Chemscore.Internal.Correction>
0.0352

> <Gold.Rescore>
     Score         DG    S(hbond)    S(metal)    S(lipo)     H(rot)  DE(clash)    DE(int)     intcor
     20.50     -23.82       3.52        0.00      91.12       1.59       0.34       2.98       ----

> <Gold.Chemscore.Fitness>
20.5047

> <Gold.Chemscore.DG>
-23.8209

> <Gold.Chemscore.ZeroCoef>
-5.4800

> <Gold.Chemscore.Hbond>
3.5165

> <Gold.Chemscore.Metal>
0.0000

> <Gold.Chemscore.Lipo>
91.1161

> <Gold.Chemscore.Internal_Hbond>
0.0000

> <Gold.Chemscore.DEClash>
0.3381

> <Gold.Chemscore.DEInternal>
2.9782

> <Gold.Chemscore.Rot>
1.5879

> <Gold.Chemscore.Internal.Correction>
   9.000000E+99

> <Gold.Chemscore.Hbonds>
donor molecule, donor type, donor heavy atom, donor atom, acceptor molecule, acceptor atom, score
      L1  H     5    45       P1 10747  0.94
      L1  H     9    33       P1  7948  0.35
      L1  H    12    34       P1  7948  0.38
      P1  H  7997  8008       L1    17  0.75

> <Gold.Chemscore.Hbond.Weighted>
-11.7453

> <Gold.Chemscore.Metal.Weighted>
-0.0000

> <Gold.Chemscore.Lipo.Weighted>
-10.6606

> <Gold.Chemscore.Internal_Hbond.Weighted>
0.0000

> <Gold.Chemscore.DEClash.Weighted>
0.3381

> <Gold.Chemscore.DEInternal.Weighted>
2.9782

> <Gold.Chemscore.Rot.Weighted>
4.0649

> <Gold.Chemscore.Internal.Correction.Weighted>
   9.000000E+99

> <Gold.Protein.RotatedTorsions>
[ 6907 6896 6895 6894 ] final   69.85 input  -60.11 | X-H torsion
[ 7974 7965 7964 7962 ] final  -40.04 input  175.53 | X-H torsion
[ 8008 7997 7996 7995 ] final  -57.23 input   59.86 | X-H torsion
[ 10167 10162 10161 10158 ] final   60.65 input  -65.29 | X-H torsion
[ 10718 10713 10712 10709 ] final  105.55 input   66.30 | X-H torsion
[ 10763 10752 10751 10750 ] final  -83.21 input  -60.55 | X-H torsion
[ 11005 11000 10999 10996 ] final -105.34 input  -57.11 | X-H torsion

> <Gold.Protein.ActiveResidues>
 VAL166  LYS551  ARG553  GLY616  TRP617  ASP618  TYR619  PRO620  LYS621  CYS622 
 ASP623  PHE694  ASN695  SER759  ASP760  ASP761  ALA762  ILE779  LEU786  VAL792 
 PHE793  MET794  SER795  GLU796  ALA797  LYS798  CYS799  TRP800  GLU811  SER814 

> <Gold.Protein.RotatedAtoms>
  152.4712  134.4955  159.9708 H   0  0  0  0  0  0  0  0  0  0  0  0  # atno 6907 bound_to 6896
  151.4981  133.3504  159.2872 H   0  0  0  0  0  0  0  0  0  0  0  0  # atno 6908 bound_to 6896
  150.8723  134.8127  159.7226 H   0  0  0  0  0  0  0  0  0  0  0  0  # atno 6909 bound_to 6896
  146.0341  140.6693  142.9118 H   0  0  0  0  0  0  0  0  0  0  0  0  # atno 7974 bound_to 7965
  154.4260  140.1111  156.5764 H   0  0  0  0  0  0  0  0  0  0  0  0  # atno 8008 bound_to 7997
  155.6158  140.3494  155.4617 H   0  0  0  0  0  0  0  0  0  0  0  0  # atno 8009 bound_to 7997
  156.0063  140.1210  157.0487 H   0  0  0  0  0  0  0  0  0  0  0  0  # atno 8010 bound_to 7997
  140.1633  144.4348  150.6698 H   0  0  0  0  0  0  0  0  0  0  0  0  # atno 10167 bound_to 10162
  157.6701  131.0830  150.5874 H   0  0  0  0  0  0  0  0  0  0  0  0  # atno 10718 bound_to 10713
  154.5850  135.5564  153.7222 H   0  0  0  0  0  0  0  0  0  0  0  0  # atno 10763 bound_to 10752
  153.0095  135.6329  154.1929 H   0  0  0  0  0  0  0  0  0  0  0  0  # atno 10764 bound_to 10752
  154.1870  135.2884  155.3014 H   0  0  0  0  0  0  0  0  0  0  0  0  # atno 10765 bound_to 10752
  141.1058  133.8799  157.1722 H   0  0  0  0  0  0  0  0  0  0  0  0  # atno 11005 bound_to 11000
  144.7044  140.3789  143.7130 LP  0  0  0  0  0  0  0  0  0  0  0  0  # atno 17320 bound_to 7965
  145.6992  139.1657  143.2602 LP  0  0  0  0  0  0  0  0  0  0  0  0  # atno 17321 bound_to 7965
  140.6629  143.2258  151.5813 LP  0  0  0  0  0  0  0  0  0  0  0  0  # atno 17342 bound_to 10162
  139.5371  144.2751  152.1274 LP  0  0  0  0  0  0  0  0  0  0  0  0  # atno 17343 bound_to 10162
  156.6174  130.4396  149.5835 LP  0  0  0  0  0  0  0  0  0  0  0  0  # atno 17370 bound_to 10713
  156.2382  130.6835  151.1530 LP  0  0  0  0  0  0  0  0  0  0  0  0  # atno 17371 bound_to 10713
  139.9928  135.0058  157.0014 LP  0  0  0  0  0  0  0  0  0  0  0  0  # atno 17394 bound_to 11000
  140.4905  134.1197  155.7232 LP  0  0  0  0  0  0  0  0  0  0  0  0  # atno 17395 bound_to 11000

$$$$
