AV-unprocessed.smi:2407|AV-procd|sdf|9518|dock3
  -GOLD-   2272013153D 1   1.00000     0.00000
 Structure written by MMmdl.
 38 39  0  0  0  0  0  0  0  0  1 V2000
  145.3950  142.2133  157.6297 C   0  0  0  0  0  0  0  0  0  0  0  0
  146.4157  141.9777  156.5562 C   0  0  0  0  0  0  0  0  0  0  0  0
  146.2601  142.4673  155.1998 C   0  0  0  0  0  0  0  0  0  0  0  0
  147.2228  142.2087  154.2888 C   0  0  0  0  0  0  0  0  0  0  0  0
  148.4212  141.4462  154.6327 C   0  0  0  0  0  0  0  0  0  0  0  0
  149.3119  141.1871  153.8238 O   0  0  0  0  0  0  0  0  0  0  0  0
  148.4600  141.0432  155.9370 N   0  0  0  0  0  0  0  0  0  0  0  0
  149.5900  140.2671  156.4622 C   0  0  0  0  0  0  0  0  0  0  0  0
  150.9508  140.8620  156.0371 C   0  0  2  0  0  0  0  0  0  0  0  0
  151.4331  140.0983  154.9487 O   0  0  0  0  0  0  0  0  0  0  0  0
  151.9962  140.7620  157.1607 C   0  0  0  0  0  0  0  0  0  0  0  0
  151.8905  141.9149  157.9857 O   0  0  0  0  0  0  0  0  0  0  0  0
  152.5359  141.9202  159.2053 C   0  0  0  0  0  0  0  0  0  0  0  0
  153.2329  140.7999  159.7264 C   0  0  0  0  0  0  0  0  0  0  0  0
  153.8699  140.8711  160.9791 C   0  0  0  0  0  0  0  0  0  0  0  0
  153.8195  142.0593  161.7274 C   0  0  0  0  0  0  0  0  0  0  0  0
  153.1319  143.1769  161.2216 C   0  0  0  0  0  0  0  0  0  0  0  0
  152.4887  143.1163  159.9642 C   0  0  0  0  0  0  0  0  0  0  0  0
  151.7447  144.3330  159.4225 C   0  0  0  0  0  0  0  0  0  0  0  0
  151.7400  145.3432  160.2935 F   0  0  0  0  0  0  0  0  0  0  0  0
  152.3265  144.7558  158.2998 F   0  0  0  0  0  0  0  0  0  0  0  0
  150.4790  144.0083  159.1575 F   0  0  0  0  0  0  0  0  0  0  0  0
  147.4735  141.3052  156.8726 N   0  0  0  0  0  0  0  0  0  0  0  0
  144.5851  142.8494  157.2716 H   0  0  0  0  0  0  0  0  0  0  0  0
  145.8449  142.7021  158.4945 H   0  0  0  0  0  0  0  0  0  0  0  0
  144.9577  141.2714  157.9623 H   0  0  0  0  0  0  0  0  0  0  0  0
  145.3802  143.0324  154.9296 H   0  0  0  0  0  0  0  0  0  0  0  0
  147.1059  142.5738  153.2790 H   0  0  0  0  0  0  0  0  0  0  0  0
  149.5173  140.2462  157.5510 H   0  0  0  0  0  0  0  0  0  0  0  0
  149.5184  139.2204  156.1592 H   0  0  0  0  0  0  0  0  0  0  0  0
  150.8364  141.9053  155.7397 H   0  0  0  0  0  0  0  0  0  0  0  0
  151.1533  139.2030  155.0648 H   0  0  0  0  0  0  0  0  0  0  0  0
  151.7862  139.8858  157.7761 H   0  0  0  0  0  0  0  0  0  0  0  0
  153.0003  140.6487  156.7477 H   0  0  0  0  0  0  0  0  0  0  0  0
  153.2950  139.8692  159.1837 H   0  0  0  0  0  0  0  0  0  0  0  0
  154.3976  140.0118  161.3658 H   0  0  0  0  0  0  0  0  0  0  0  0
  154.3078  142.1141  162.6893 H   0  0  0  0  0  0  0  0  0  0  0  0
  153.1044  144.0807  161.8116 H   0  0  0  0  0  0  0  0  0  0  0  0
  1  2  1  0  0  0  0
  1 24  1  0  0  0  0
  1 25  1  0  0  0  0
  1 26  1  0  0  0  0
  2 23  2  0  0  0  0
  2  3  1  0  0  0  0
  3  4  2  0  0  0  0
  3 27  1  0  0  0  0
  4  5  1  0  0  0  0
  4 28  1  0  0  0  0
  5  6  2  0  0  0  0
  5  7  1  0  0  0  0
  7  8  1  0  0  0  0
  7 23  1  0  0  0  0
  8  9  1  0  0  0  0
  8 29  1  0  0  0  0
  8 30  1  0  0  0  0
  9 10  1  0  0  0  0
  9 11  1  0  0  0  0
  9 31  1  0  0  0  0
 10 32  1  0  0  0  0
 11 12  1  0  0  0  0
 11 33  1  0  0  0  0
 11 34  1  0  0  0  0
 12 13  1  0  0  0  0
 13 18  1  0  0  0  0
 13 14  2  0  0  0  0
 14 15  1  0  0  0  0
 14 35  1  0  0  0  0
 15 16  2  0  0  0  0
 15 36  1  0  0  0  0
 16 17  1  0  0  0  0
 16 37  1  0  0  0  0
 17 18  2  0  0  0  0
 17 38  1  0  0  0  0
 18 19  1  0  0  0  0
 19 20  1  0  0  0  0
 19 21  1  0  0  0  0
 19 22  1  0  0  0  0
M  END
> <s_m_source_file>
AV-unprocessed.smi

> <i_m_source_file_index>
2407

> <i_lp_mmshare_version>
43012

> <i_f3d_flags>
0

> <s_epik_input>
W0NIM11jMVtjSF1bY0hdYyg9TyluKG4xKVtDSDJdW0NASF0oW09IXSlbQ0gyXU9jMltjSF1bY0hdW2NIXVtjSF1jMkMoRikoRilG

> <s_epik_cmdline>
J2VwaWtfcHl0aG9uJywgJy1waCcsICc3LjAnLCAnLXRuJywgJzgnLCAnLW1hJywgJzIwMCcsICctbWV0YWxfYmluZGluZycsICctaW1hZScsICc8aW5maWxlLm1hZT4nLCAnLW9tYWUnLCAnPG91dGZpbGUubWFlPic=

> <r_lp_tautomer_probability>
1

> <r_epik_Ionization_Penalty>
5.91655e-06

> <r_epik_Ionization_Penalty_Charging>
5.79937e-06

> <r_epik_Ionization_Penalty_Neutral>
1.17174e-07

> <r_epik_State_Penalty>
-0

> <r_epik_Charging_Adjusted_Penalty>
5.79937e-06

> <i_epik_Tot_Q>
0

> <i_epik_Tot_abs_Q>
0

> <r_epik_Metal_State_Penalty>
-0

> <b_epik_Metal_Only>
0

> <s_lp_Force_Field>
OPLS_2005

> <r_lp_Energy>
33.5011

> <b_lp_Chiralities_Consistent>
1

> <s_lp_Variant>
AV-unprocessed.smi:2407-1

> <Gold.Version>
5.8.1

> <Gold.Id.Protein>
6NUR|6NUR_protein|mol2

> <Gold.PLP.Fitness>
58.4610

> <Gold.PLP.PLP>
-54.7258

> <Gold.PLP.part.hbond>
-3.0000

> <Gold.PLP.part.metal>
0.0000

> <Gold.PLP.part.buried>
-7.1178

> <Gold.PLP.part.nonpolar>
-44.6495

> <Gold.PLP.part.repulsive>
2.3142

> <Gold.PLP.ligand.clash>
0.4708

> <Gold.PLP.ligand.torsion>
1.1182

> <Gold.PLP.Chemscore.Hbond>
1.9440

> <Gold.PLP.Chemscore.CHOScore>
0.0000

> <Gold.PLP.Chemscore.Metal>
0.0000

> <Gold.Chemscore.Hbonds>
donor molecule, donor type, donor heavy atom, donor atom, acceptor molecule, acceptor atom, score
      P1  H  7989  7998       L1    10  1.00
      P1  H  8011  8017       L1     6  0.88

> <Gold.PLP.Chemscore.Internal.Correction>
0.6104

> <Gold.Rescore>
     Score         DG    S(hbond)    S(metal)    S(lipo)     H(rot)  DE(clash)    DE(int)     intcor
     11.11     -16.62       1.73        0.00     102.78       2.60       0.43       5.09       ----

> <Gold.Chemscore.Fitness>
11.1072

> <Gold.Chemscore.DG>
-16.6230

> <Gold.Chemscore.ZeroCoef>
-5.4800

> <Gold.Chemscore.Hbond>
1.7312

> <Gold.Chemscore.Metal>
0.0000

> <Gold.Chemscore.Lipo>
102.7841

> <Gold.Chemscore.Internal_Hbond>
0.0000

> <Gold.Chemscore.DEClash>
0.4270

> <Gold.Chemscore.DEInternal>
5.0888

> <Gold.Chemscore.Rot>
2.6035

> <Gold.Chemscore.Internal.Correction>
   9.000000E+99

> <Gold.Chemscore.Hbonds>
donor molecule, donor type, donor heavy atom, donor atom, acceptor molecule, acceptor atom, score
      P1  H  7989  7998       L1    10  0.94
      P1  H  8011  8017       L1     6  0.83

> <Gold.Chemscore.Hbond.Weighted>
-5.7822

> <Gold.Chemscore.Metal.Weighted>
-0.0000

> <Gold.Chemscore.Lipo.Weighted>
-12.0257

> <Gold.Chemscore.Internal_Hbond.Weighted>
0.0000

> <Gold.Chemscore.DEClash.Weighted>
0.4270

> <Gold.Chemscore.DEInternal.Weighted>
5.0888

> <Gold.Chemscore.Rot.Weighted>
6.6649

> <Gold.Chemscore.Internal.Correction.Weighted>
   9.000000E+99

> <Gold.Protein.RotatedTorsions>
[ 6907 6896 6895 6894 ] final   34.35 input  -60.11 | X-H torsion
[ 7974 7965 7964 7962 ] final  -72.14 input  175.53 | X-H torsion
[ 8008 7997 7996 7995 ] final -108.98 input   59.86 | X-H torsion
[ 10167 10162 10161 10158 ] final   44.27 input  -65.29 | X-H torsion
[ 10718 10713 10712 10709 ] final   13.30 input   66.30 | X-H torsion
[ 10763 10752 10751 10750 ] final -118.30 input  -60.55 | X-H torsion
[ 11005 11000 10999 10996 ] final   98.59 input  -57.11 | X-H torsion

> <Gold.Protein.ActiveResidues>
 VAL166  LYS551  ARG553  GLY616  TRP617  ASP618  TYR619  PRO620  LYS621  CYS622 
 ASP623  PHE694  ASN695  SER759  ASP760  ASP761  ALA762  ILE779  LEU786  VAL792 
 PHE793  MET794  SER795  GLU796  ALA797  LYS798  CYS799  TRP800  GLU811  SER814 

> <Gold.Protein.RotatedAtoms>
  152.1012  134.9340  160.0569 H   0  0  0  0  0  0  0  0  0  0  0  0  # atno 6907 bound_to 6896
  152.0553  133.4033  159.4403 H   0  0  0  0  0  0  0  0  0  0  0  0  # atno 6908 bound_to 6896
  150.6839  134.3181  159.4818 H   0  0  0  0  0  0  0  0  0  0  0  0  # atno 6909 bound_to 6896
  145.6690  140.9227  143.0893 H   0  0  0  0  0  0  0  0  0  0  0  0  # atno 7974 bound_to 7965
  154.9525  140.0400  157.2151 H   0  0  0  0  0  0  0  0  0  0  0  0  # atno 8008 bound_to 7997
  154.7965  140.2844  155.5931 H   0  0  0  0  0  0  0  0  0  0  0  0  # atno 8009 bound_to 7997
  156.2956  140.2563  156.2824 H   0  0  0  0  0  0  0  0  0  0  0  0  # atno 8010 bound_to 7997
  140.3359  144.2530  150.6161 H   0  0  0  0  0  0  0  0  0  0  0  0  # atno 10167 bound_to 10162
  157.0226  130.6161  149.5723 H   0  0  0  0  0  0  0  0  0  0  0  0  # atno 10718 bound_to 10713
  154.8583  135.4279  154.2116 H   0  0  0  0  0  0  0  0  0  0  0  0  # atno 10763 bound_to 10752
  153.3141  135.6978  153.7095 H   0  0  0  0  0  0  0  0  0  0  0  0  # atno 10764 bound_to 10752
  153.6176  135.3508  155.2974 H   0  0  0  0  0  0  0  0  0  0  0  0  # atno 10765 bound_to 10752
  139.8772  134.9056  156.4480 H   0  0  0  0  0  0  0  0  0  0  0  0  # atno 11005 bound_to 11000
  144.7063  139.8547  143.7429 LP  0  0  0  0  0  0  0  0  0  0  0  0  # atno 17320 bound_to 7965
  146.1062  139.4062  143.0316 LP  0  0  0  0  0  0  0  0  0  0  0  0  # atno 17321 bound_to 7965
  140.5354  143.2234  151.8172 LP  0  0  0  0  0  0  0  0  0  0  0  0  # atno 17342 bound_to 10162
  139.4848  144.4668  151.9474 LP  0  0  0  0  0  0  0  0  0  0  0  0  # atno 17343 bound_to 10162
  156.0097  130.5187  150.7948 LP  0  0  0  0  0  0  0  0  0  0  0  0  # atno 17370 bound_to 10713
  157.5238  131.0933  151.0044 LP  0  0  0  0  0  0  0  0  0  0  0  0  # atno 17371 bound_to 10713
  140.8952  133.7819  155.9617 LP  0  0  0  0  0  0  0  0  0  0  0  0  # atno 17394 bound_to 11000
  140.8710  134.2726  157.5190 LP  0  0  0  0  0  0  0  0  0  0  0  0  # atno 17395 bound_to 11000

$$$$
