AV-unprocessed.smi:54|AV-procd|sdf|542|dock6
  -GOLD-   2262016433D 1   1.00000     0.00000
 Structure written by MMmdl.
 44 46  0  0  0  0  0  0  0  0  1 V2000
  148.8161  132.7240  154.0129 C   0  0  0  0  0  0  0  0  0  0  0  0
  149.9475  132.5154  155.0323 C   0  0  0  0  0  0  0  0  0  0  0  0
  149.7858  131.1824  155.7808 C   0  0  0  0  0  0  0  0  0  0  0  0
  150.0050  133.6884  156.0176 C   0  0  0  0  0  0  0  0  0  0  0  0
  149.8814  133.5275  157.2326 O   0  0  0  0  0  0  0  0  0  0  0  0
  150.2023  134.9962  155.4175 N   0  0  0  0  0  0  0  0  0  0  0  0
  150.2690  136.1888  156.0535 C   0  0  0  0  0  0  0  0  0  0  0  0
  150.0125  137.3431  155.4547 N   0  0  0  0  0  0  0  0  0  0  0  0
  150.1402  138.4416  156.2580 C   0  0  0  0  0  0  0  0  0  0  0  0
  150.4865  138.4488  157.5926 C   0  0  0  0  0  0  0  0  0  0  0  0
  150.5092  139.7532  158.0729 N   0  0  0  0  0  0  0  0  0  0  0  0
  150.1830  140.4781  157.0390 C   0  0  0  0  0  0  0  0  0  0  0  0
  149.9568  139.7567  155.8889 N   0  0  0  0  0  0  0  0  0  0  0  0
  149.5500  140.2282  154.5258 C   0  0  1  0  0  0  0  0  0  0  0  0
  149.0945  139.1254  153.8009 O   0  0  0  0  0  0  0  0  0  0  0  0
  147.6770  139.0460  153.9031 C   0  0  2  0  0  0  0  0  0  0  0  0
  147.0887  138.1237  152.8215 C   0  0  0  0  0  0  0  0  0  0  0  0
  147.5681  138.5077  151.5506 O   0  0  0  0  0  0  0  0  0  0  0  0
  147.2762  140.5232  153.8106 C   0  0  2  0  0  0  0  0  0  0  0  0
  147.2662  140.9514  152.4580 O   0  0  0  0  0  0  0  0  0  0  0  0
  148.3646  141.2076  154.6379 C   0  0  2  0  0  0  0  0  0  0  0  0
  148.6667  142.5120  154.1783 O   0  0  0  0  0  0  0  0  0  0  0  0
  150.7526  137.2068  158.2597 C   0  0  0  0  0  0  0  0  0  0  0  0
  151.0671  137.0244  159.4337 O   0  0  0  0  0  0  0  0  0  0  0  0
  150.6193  136.1071  157.4014 N   0  0  0  0  0  0  0  0  0  0  0  0
  150.4583  140.6480  154.0911 H   0  0  0  0  0  0  0  0  0  0  0  0
  147.4059  138.6784  154.8951 H   0  0  0  0  0  0  0  0  0  0  0  0
  146.2848  140.6995  154.2292 H   0  0  0  0  0  0  0  0  0  0  0  0
  148.0388  141.2689  155.6777 H   0  0  0  0  0  0  0  0  0  0  0  0
  148.9303  133.6699  153.4818 H   0  0  0  0  0  0  0  0  0  0  0  0
  147.8371  132.7283  154.4942 H   0  0  0  0  0  0  0  0  0  0  0  0
  148.8133  131.9293  153.2666 H   0  0  0  0  0  0  0  0  0  0  0  0
  150.8918  132.4821  154.4869 H   0  0  0  0  0  0  0  0  0  0  0  0
  150.5818  131.0383  156.5125 H   0  0  0  0  0  0  0  0  0  0  0  0
  149.8229  130.3411  155.0885 H   0  0  0  0  0  0  0  0  0  0  0  0
  148.8331  131.1313  156.3100 H   0  0  0  0  0  0  0  0  0  0  0  0
  150.2622  135.0154  154.4103 H   0  0  0  0  0  0  0  0  0  0  0  0
  150.1020  141.5541  157.0939 H   0  0  0  0  0  0  0  0  0  0  0  0
  147.4053  137.0946  152.9933 H   0  0  0  0  0  0  0  0  0  0  0  0
  145.9984  138.1364  152.8330 H   0  0  0  0  0  0  0  0  0  0  0  0
  148.1577  139.2377  151.6626 H   0  0  0  0  0  0  0  0  0  0  0  0
  147.9996  140.5514  152.0153 H   0  0  0  0  0  0  0  0  0  0  0  0
  148.5537  143.1161  154.8973 H   0  0  0  0  0  0  0  0  0  0  0  0
  150.7979  135.1984  157.8030 H   0  0  0  0  0  0  0  0  0  0  0  0
  1  2  1  0  0  0  0
  1 30  1  0  0  0  0
  1 31  1  0  0  0  0
  1 32  1  0  0  0  0
  2  3  1  0  0  0  0
  2  4  1  0  0  0  0
  2 33  1  0  0  0  0
  3 34  1  0  0  0  0
  3 35  1  0  0  0  0
  3 36  1  0  0  0  0
  4  5  2  0  0  0  0
  4  6  1  0  0  0  0
  6 37  1  0  0  0  0
  6  7  1  0  0  0  0
  7 25  1  0  0  0  0
  7  8  2  0  0  0  0
  8  9  1  0  0  0  0
  9 13  1  0  0  0  0
  9 10  2  0  0  0  0
 10 11  1  0  0  0  0
 10 23  1  0  0  0  0
 11 12  2  0  0  0  0
 12 13  1  0  0  0  0
 12 38  1  0  0  0  0
 13 14  1  0  0  0  0
 14 26  1  0  0  0  0
 14 21  1  0  0  0  0
 14 15  1  0  0  0  0
 15 16  1  0  0  0  0
 16 27  1  0  0  0  0
 16 17  1  0  0  0  0
 16 19  1  0  0  0  0
 17 18  1  0  0  0  0
 17 39  1  0  0  0  0
 17 40  1  0  0  0  0
 18 41  1  0  0  0  0
 19 28  1  0  0  0  0
 19 20  1  0  0  0  0
 19 21  1  0  0  0  0
 20 42  1  0  0  0  0
 21 29  1  0  0  0  0
 21 22  1  0  0  0  0
 22 43  1  0  0  0  0
 23 24  2  0  0  0  0
 23 25  1  0  0  0  0
 25 44  1  0  0  0  0
M  END
> <s_m_source_file>
AV-unprocessed.smi

> <i_m_source_file_index>
54

> <i_lp_mmshare_version>
43012

> <i_f3d_flags>
0

> <s_epik_input>
W0NIM11bQ0hdKFtDSDNdKUMoPU8pW05IXWMobjEpW25IXWMoPU8pYyhjMTIpbltjSF1uMltDQEBIXTNPW0NASF0oW0NIMl1bT0hdKVtDQEBIXShbT0hdKVtDQEhdM1tPSF0=

> <s_epik_cmdline>
J2VwaWtfcHl0aG9uJywgJy1waCcsICc3LjAnLCAnLXRuJywgJzgnLCAnLW1hJywgJzIwMCcsICctbWV0YWxfYmluZGluZycsICctaW1hZScsICc8aW5maWxlLm1hZT4nLCAnLW9tYWUnLCAnPG91dGZpbGUubWFlPic=

> <r_lp_tautomer_probability>
0.85571

> <r_epik_Ionization_Penalty>
0.0316551

> <r_epik_Ionization_Penalty_Charging>
0.0316043

> <r_epik_Ionization_Penalty_Neutral>
5.07097e-05

> <r_epik_State_Penalty>
3.15494e-07

> <r_epik_Charging_Adjusted_Penalty>
0.0316047

> <i_epik_Tot_Q>
0

> <i_epik_Tot_abs_Q>
0

> <r_epik_Metal_State_Penalty>
0.421206

> <b_epik_Metal_Only>
0

> <s_epik_Chemistry_Notes>
This compound contains an acetal/aminal-like group ( X-CH(R)-Y where X, Y are N, S, or O) that may be acid/base labile, releasing an aldehyde.

> <s_lp_Force_Field>
OPLS_2005

> <r_lp_Energy>
43.5631

> <b_lp_Chiralities_Consistent>
1

> <s_lp_Variant>
AV-unprocessed.smi:54-14

> <Gold.Version>
5.8.1

> <Gold.Id.Protein>
6NUR|6NUR_protein|mol2

> <Gold.PLP.Fitness>
45.3918

> <Gold.PLP.PLP>
-28.8792

> <Gold.PLP.part.hbond>
-8.1090

> <Gold.PLP.part.metal>
0.0000

> <Gold.PLP.part.buried>
-1.8394

> <Gold.PLP.part.nonpolar>
-21.3545

> <Gold.PLP.part.repulsive>
2.1232

> <Gold.PLP.ligand.clash>
0.0000

> <Gold.PLP.ligand.torsion>
0.4329

> <Gold.PLP.Chemscore.Hbond>
5.7779

> <Gold.PLP.Chemscore.CHOScore>
0.0000

> <Gold.PLP.Chemscore.Metal>
0.0000

> <Gold.Chemscore.Hbonds>
donor molecule, donor type, donor heavy atom, donor atom, acceptor molecule, acceptor atom, score
      L1  H    18    41       P1  7957  0.93
      L1  H    20    42       P1  7957  1.00
      L1  H    22    43       P1  8028  0.99
      P1  H  6896  6908       L1     5  0.49
      P1  H  6896  6909       L1    24  1.00
      P1  H  7954  7966       L1    18  0.95
      P1  H  8011  8017       L1    22  0.09

> <Gold.PLP.Chemscore.Internal.Correction>
0.0449

> <Gold.Rescore>
     Score         DG    S(hbond)    S(metal)    S(lipo)     H(rot)  DE(clash)    DE(int)     intcor
     11.20     -15.96       4.77        0.00      42.03       4.05       2.57       2.18       ----

> <Gold.Chemscore.Fitness>
11.1992

> <Gold.Chemscore.DG>
-15.9560

> <Gold.Chemscore.ZeroCoef>
-5.4800

> <Gold.Chemscore.Hbond>
4.7680

> <Gold.Chemscore.Metal>
0.0000

> <Gold.Chemscore.Lipo>
42.0276

> <Gold.Chemscore.Internal_Hbond>
0.0000

> <Gold.Chemscore.DEClash>
2.5739

> <Gold.Chemscore.DEInternal>
2.1829

> <Gold.Chemscore.Rot>
4.0493

> <Gold.Chemscore.Internal.Correction>
   9.000000E+99

> <Gold.Chemscore.Hbonds>
donor molecule, donor type, donor heavy atom, donor atom, acceptor molecule, acceptor atom, score
      L1  H    18    41       P1  7957  0.87
      L1  H    20    42       P1  7957  1.00
      L1  H    22    43       P1  8028  0.93
      P1  H  6896  6908       L1     5  0.49
      P1  H  6896  6909       L1    24  0.91
      P1  H  7954  7966       L1    18  0.21
      P1  H  8011  8017       L1    22  0.09

> <Gold.Chemscore.Hbond.Weighted>
-15.9250

> <Gold.Chemscore.Metal.Weighted>
-0.0000

> <Gold.Chemscore.Lipo.Weighted>
-4.9172

> <Gold.Chemscore.Internal_Hbond.Weighted>
0.0000

> <Gold.Chemscore.DEClash.Weighted>
2.5739

> <Gold.Chemscore.DEInternal.Weighted>
2.1829

> <Gold.Chemscore.Rot.Weighted>
10.3662

> <Gold.Chemscore.Internal.Correction.Weighted>
   9.000000E+99

> <Gold.Protein.RotatedTorsions>
[ 6907 6896 6895 6894 ] final  111.90 input  -60.11 | X-H torsion
[ 7974 7965 7964 7962 ] final  119.40 input  175.53 | X-H torsion
[ 8008 7997 7996 7995 ] final -120.41 input   59.86 | X-H torsion
[ 10167 10162 10161 10158 ] final -173.37 input  -65.29 | X-H torsion
[ 10718 10713 10712 10709 ] final   27.59 input   66.30 | X-H torsion
[ 10763 10752 10751 10750 ] final -154.41 input  -60.55 | X-H torsion
[ 11005 11000 10999 10996 ] final   36.19 input  -57.11 | X-H torsion

> <Gold.Protein.ActiveResidues>
 VAL166  LYS551  ARG553  GLY616  TRP617  ASP618  TYR619  PRO620  LYS621  CYS622 
 ASP623  PHE694  ASN695  SER759  ASP760  ASP761  ALA762  ILE779  LEU786  VAL792 
 PHE793  MET794  SER795  GLU796  ALA797  LYS798  CYS799  TRP800  GLU811  SER814 

> <Gold.Protein.RotatedAtoms>
  152.4945  133.8592  159.7241 H   0  0  0  0  0  0  0  0  0  0  0  0  # atno 6907 bound_to 6896
  150.9108  133.6991  159.2862 H   0  0  0  0  0  0  0  0  0  0  0  0  # atno 6908 bound_to 6896
  151.4400  135.1023  159.9720 H   0  0  0  0  0  0  0  0  0  0  0  0  # atno 6909 bound_to 6896
  145.1436  139.3253  143.4603 H   0  0  0  0  0  0  0  0  0  0  0  0  # atno 7974 bound_to 7965
  155.1314  140.0400  157.2776 H   0  0  0  0  0  0  0  0  0  0  0  0  # atno 8008 bound_to 7997
  154.6540  140.2575  155.7156 H   0  0  0  0  0  0  0  0  0  0  0  0  # atno 8009 bound_to 7997
  156.2590  140.2830  156.0985 H   0  0  0  0  0  0  0  0  0  0  0  0  # atno 8010 bound_to 7997
  139.5692  144.1682  152.1358 H   0  0  0  0  0  0  0  0  0  0  0  0  # atno 10167 bound_to 10162
  157.2223  130.6984  149.6275 H   0  0  0  0  0  0  0  0  0  0  0  0  # atno 10718 bound_to 10713
  154.7860  135.3190  154.7884 H   0  0  0  0  0  0  0  0  0  0  0  0  # atno 10763 bound_to 10752
  153.8584  135.6855  153.4789 H   0  0  0  0  0  0  0  0  0  0  0  0  # atno 10764 bound_to 10752
  153.1512  135.4698  154.9578 H   0  0  0  0  0  0  0  0  0  0  0  0  # atno 10765 bound_to 10752
  140.2350  134.3482  155.7948 H   0  0  0  0  0  0  0  0  0  0  0  0  # atno 11005 bound_to 11000
  146.3502  140.1483  142.8593 LP  0  0  0  0  0  0  0  0  0  0  0  0  # atno 17320 bound_to 7965
  145.0506  140.9014  143.4998 LP  0  0  0  0  0  0  0  0  0  0  0  0  # atno 17321 bound_to 7965
  140.1211  144.5372  150.6862 LP  0  0  0  0  0  0  0  0  0  0  0  0  # atno 17342 bound_to 10162
  140.6976  143.2414  151.4956 LP  0  0  0  0  0  0  0  0  0  0  0  0  # atno 17343 bound_to 10162
  155.9681  130.4516  150.5741 LP  0  0  0  0  0  0  0  0  0  0  0  0  # atno 17370 bound_to 10713
  157.3563  131.0742  151.1672 LP  0  0  0  0  0  0  0  0  0  0  0  0  # atno 17371 bound_to 10713
  141.2215  133.7267  156.8794 LP  0  0  0  0  0  0  0  0  0  0  0  0  # atno 17394 bound_to 11000
  140.1711  134.9099  157.2834 LP  0  0  0  0  0  0  0  0  0  0  0  0  # atno 17395 bound_to 11000

$$$$
