AV-unprocessed.smi:2795|AV-procd|sdf|10780|dock9
  -GOLD-   2272015213D 1   1.00000     0.00000
 Structure written by MMmdl.
 36 37  0  0  0  0  0  0  0  0  1 V2000
  152.5703  144.2206  161.5839 C   0  0  0  0  0  0  0  0  0  0  0  0
  152.3944  144.1734  160.1463 N   0  0  0  0  0  0  0  0  0  0  0  0
  152.0520  145.1908  159.3442 C   0  0  0  0  0  0  0  0  0  0  0  0
  151.9592  144.8711  158.0607 N   0  0  0  0  0  0  0  0  0  0  0  0
  152.2724  143.5148  158.0346 C   0  0  0  0  0  0  0  0  0  0  0  0
  152.5416  143.0690  159.3116 C   0  0  0  0  0  0  0  0  0  0  0  0
  152.9238  141.7118  159.8177 C   0  0  0  0  0  0  0  0  0  0  0  0
  154.4173  141.5586  160.1570 C   0  0  0  0  0  0  0  0  0  0  0  0
  154.6501  140.4308  161.0516 N   0  0  0  0  0  0  0  0  0  0  0  0
  154.9734  140.5304  162.3503 C   0  0  0  0  0  0  0  0  0  0  0  0
  155.1307  141.6081  162.9249 O   0  0  0  0  0  0  0  0  0  0  0  0
  155.1484  139.2134  163.1135 C   0  0  2  0  0  0  0  0  0  0  0  0
  153.9193  138.2919  162.9573 C   0  0  0  0  0  0  0  0  0  0  0  0
  154.0882  137.0268  163.8055 C   0  0  0  0  0  0  0  0  0  0  0  0
  154.4011  137.4174  165.2537 C   0  0  0  0  0  0  0  0  0  0  0  0
  155.5970  138.3818  165.3015 C   0  0  0  0  0  0  0  0  0  0  0  0
  155.3364  139.5252  164.4924 O   0  0  0  0  0  0  0  0  0  0  0  0
  152.4659  145.2446  161.9444 H   0  0  0  0  0  0  0  0  0  0  0  0
  153.5627  143.8534  161.8466 H   0  0  0  0  0  0  0  0  0  0  0  0
  151.8178  143.5962  162.0662 H   0  0  0  0  0  0  0  0  0  0  0  0
  151.8659  146.1904  159.7091 H   0  0  0  0  0  0  0  0  0  0  0  0
  152.2795  142.9679  157.1032 H   0  0  0  0  0  0  0  0  0  0  0  0
  152.3268  141.4877  160.7023 H   0  0  0  0  0  0  0  0  0  0  0  0
  152.6494  140.9656  159.0710 H   0  0  0  0  0  0  0  0  0  0  0  0
  154.9903  141.3869  159.2454 H   0  0  0  0  0  0  0  0  0  0  0  0
  154.8073  142.4747  160.6040 H   0  0  0  0  0  0  0  0  0  0  0  0
  154.5499  139.5065  160.6577 H   0  0  0  0  0  0  0  0  0  0  0  0
  156.0384  138.7016  162.7408 H   0  0  0  0  0  0  0  0  0  0  0  0
  153.0127  138.8127  163.2700 H   0  0  0  0  0  0  0  0  0  0  0  0
  153.7784  138.0203  161.9104 H   0  0  0  0  0  0  0  0  0  0  0  0
  153.1861  136.4160  163.7616 H   0  0  0  0  0  0  0  0  0  0  0  0
  154.9002  136.4194  163.4035 H   0  0  0  0  0  0  0  0  0  0  0  0
  153.5293  137.8969  165.7003 H   0  0  0  0  0  0  0  0  0  0  0  0
  154.6083  136.5275  165.8485 H   0  0  0  0  0  0  0  0  0  0  0  0
  155.7725  138.7094  166.3263 H   0  0  0  0  0  0  0  0  0  0  0  0
  156.5092  137.8867  164.9653 H   0  0  0  0  0  0  0  0  0  0  0  0
  1  2  1  0  0  0  0
  1 18  1  0  0  0  0
  1 19  1  0  0  0  0
  1 20  1  0  0  0  0
  2  6  1  0  0  0  0
  2  3  1  0  0  0  0
  3  4  2  0  0  0  0
  3 21  1  0  0  0  0
  4  5  1  0  0  0  0
  5  6  2  0  0  0  0
  5 22  1  0  0  0  0
  6  7  1  0  0  0  0
  7  8  1  0  0  0  0
  7 23  1  0  0  0  0
  7 24  1  0  0  0  0
  8  9  1  0  0  0  0
  8 25  1  0  0  0  0
  8 26  1  0  0  0  0
  9 10  1  0  0  0  0
  9 27  1  0  0  0  0
 10 11  2  0  0  0  0
 10 12  1  0  0  0  0
 12 17  1  0  0  0  0
 12 13  1  0  0  0  0
 12 28  1  0  0  0  0
 13 14  1  0  0  0  0
 13 29  1  0  0  0  0
 13 30  1  0  0  0  0
 14 15  1  0  0  0  0
 14 31  1  0  0  0  0
 14 32  1  0  0  0  0
 15 16  1  0  0  0  0
 15 33  1  0  0  0  0
 15 34  1  0  0  0  0
 16 17  1  0  0  0  0
 16 35  1  0  0  0  0
 16 36  1  0  0  0  0
M  END
> <s_m_source_file>
AV-unprocessed.smi

> <i_m_source_file_index>
2795

> <i_lp_mmshare_version>
43012

> <i_f3d_flags>
0

> <s_epik_input>
W0NIM11uMVtjSF1uW2NIXWMxW0NIMl1bQ0gyXVtOSF1DKD1PKVtDQEBIXTJbQ0gyXVtDSDJdW0NIMl1bQ0gyXU8y

> <s_epik_cmdline>
J2VwaWtfcHl0aG9uJywgJy1waCcsICc3LjAnLCAnLXRuJywgJzgnLCAnLW1hJywgJzIwMCcsICctbWV0YWxfYmluZGluZycsICctaW1hZScsICc8aW5maWxlLm1hZT4nLCAnLW9tYWUnLCAnPG91dGZpbGUubWFlPic=

> <r_lp_tautomer_probability>
1

> <r_epik_Ionization_Penalty>
0.870864

> <r_epik_Ionization_Penalty_Charging>
0.870864

> <r_epik_Ionization_Penalty_Neutral>
4.06047e-08

> <r_epik_State_Penalty>
0.90819

> <r_epik_Charging_Adjusted_Penalty>
1.77905

> <i_epik_Tot_Q>
0

> <i_epik_Tot_abs_Q>
0

> <r_epik_Metal_State_Penalty>
0.360563

> <b_epik_Metal_Only>
0

> <s_lp_Force_Field>
OPLS_2005

> <r_lp_Energy>
9.35516

> <b_lp_Chiralities_Consistent>
1

> <s_lp_Variant>
AV-unprocessed.smi:2795-3

> <Gold.Version>
5.8.1

> <Gold.Id.Protein>
6NUR|6NUR_protein|mol2

> <Gold.PLP.Fitness>
43.5601

> <Gold.PLP.PLP>
-44.5075

> <Gold.PLP.part.hbond>
-1.0000

> <Gold.PLP.part.metal>
0.0000

> <Gold.PLP.part.buried>
-5.6347

> <Gold.PLP.part.nonpolar>
-37.2975

> <Gold.PLP.part.repulsive>
0.1192

> <Gold.PLP.ligand.clash>
0.0000

> <Gold.PLP.ligand.torsion>
0.4760

> <Gold.PLP.Chemscore.Hbond>
0.0000

> <Gold.PLP.Chemscore.CHOScore>
0.0000

> <Gold.PLP.Chemscore.Metal>
0.0000

> <Gold.PLP.Chemscore.Internal.Correction>
0.0047

> <Gold.Rescore>
     Score         DG    S(hbond)    S(metal)    S(lipo)     H(rot)  DE(clash)    DE(int)     intcor
     11.78     -12.35       0.00        0.00      97.19       1.76       0.17       0.40       ----

> <Gold.Chemscore.Fitness>
11.7771

> <Gold.Chemscore.DG>
-12.3489

> <Gold.Chemscore.ZeroCoef>
-5.4800

> <Gold.Chemscore.Hbond>
0.0000

> <Gold.Chemscore.Metal>
0.0000

> <Gold.Chemscore.Lipo>
97.1856

> <Gold.Chemscore.Internal_Hbond>
0.0000

> <Gold.Chemscore.DEClash>
0.1743

> <Gold.Chemscore.DEInternal>
0.3975

> <Gold.Chemscore.Rot>
1.7585

> <Gold.Chemscore.Internal.Correction>
   9.000000E+99

> <Gold.Chemscore.Hbond.Weighted>
-0.0000

> <Gold.Chemscore.Metal.Weighted>
-0.0000

> <Gold.Chemscore.Lipo.Weighted>
-11.3707

> <Gold.Chemscore.Internal_Hbond.Weighted>
0.0000

> <Gold.Chemscore.DEClash.Weighted>
0.1743

> <Gold.Chemscore.DEInternal.Weighted>
0.3975

> <Gold.Chemscore.Rot.Weighted>
4.5018

> <Gold.Chemscore.Internal.Correction.Weighted>
   9.000000E+99

> <Gold.Protein.RotatedTorsions>
[ 6907 6896 6895 6894 ] final  -45.68 input  -60.11 | X-H torsion
[ 7974 7965 7964 7962 ] final   33.26 input  175.53 | X-H torsion
[ 8008 7997 7996 7995 ] final    9.82 input   59.86 | X-H torsion
[ 10167 10162 10161 10158 ] final -170.03 input  -65.29 | X-H torsion
[ 10718 10713 10712 10709 ] final -136.53 input   66.30 | X-H torsion
[ 10763 10752 10751 10750 ] final  157.22 input  -60.55 | X-H torsion
[ 11005 11000 10999 10996 ] final  111.24 input  -57.11 | X-H torsion

> <Gold.Protein.ActiveResidues>
 VAL166  LYS551  ARG553  GLY616  TRP617  ASP618  TYR619  PRO620  LYS621  CYS622 
 ASP623  PHE694  ASN695  SER759  ASP760  ASP761  ALA762  ILE779  LEU786  VAL792 
 PHE793  MET794  SER795  GLU796  ALA797  LYS798  CYS799  TRP800  GLU811  SER814 

> <Gold.Protein.RotatedAtoms>
  150.9194  134.8611  159.7478 H   0  0  0  0  0  0  0  0  0  0  0  0  # atno 6907 bound_to 6896
  152.4985  134.4241  159.9500 H   0  0  0  0  0  0  0  0  0  0  0  0  # atno 6908 bound_to 6896
  151.4276  133.3640  159.2799 H   0  0  0  0  0  0  0  0  0  0  0  0  # atno 6909 bound_to 6896
  146.1432  139.6420  142.9149 H   0  0  0  0  0  0  0  0  0  0  0  0  # atno 7974 bound_to 7965
  154.7852  140.2826  155.6033 H   0  0  0  0  0  0  0  0  0  0  0  0  # atno 8008 bound_to 7997
  156.2956  140.2615  156.2614 H   0  0  0  0  0  0  0  0  0  0  0  0  # atno 8009 bound_to 7997
  154.9737  140.0375  157.2236 H   0  0  0  0  0  0  0  0  0  0  0  0  # atno 8010 bound_to 7997
  139.5886  144.1262  152.1607 H   0  0  0  0  0  0  0  0  0  0  0  0  # atno 10167 bound_to 10162
  156.2781  130.7305  151.1293 H   0  0  0  0  0  0  0  0  0  0  0  0  # atno 10718 bound_to 10713
  154.1968  135.2792  155.3004 H   0  0  0  0  0  0  0  0  0  0  0  0  # atno 10763 bound_to 10752
  154.5885  135.5567  153.7258 H   0  0  0  0  0  0  0  0  0  0  0  0  # atno 10764 bound_to 10752
  153.0098  135.6362  154.2107 H   0  0  0  0  0  0  0  0  0  0  0  0  # atno 10765 bound_to 10752
  139.8899  134.9503  156.6402 H   0  0  0  0  0  0  0  0  0  0  0  0  # atno 11005 bound_to 11000
  145.4998  141.0438  143.2547 LP  0  0  0  0  0  0  0  0  0  0  0  0  # atno 17320 bound_to 7965
  144.7816  139.6513  143.7152 LP  0  0  0  0  0  0  0  0  0  0  0  0  # atno 17321 bound_to 7965
  140.0831  144.5683  150.7108 LP  0  0  0  0  0  0  0  0  0  0  0  0  # atno 17342 bound_to 10162
  140.7154  143.2540  151.4452 LP  0  0  0  0  0  0  0  0  0  0  0  0  # atno 17343 bound_to 10162
  157.7306  131.0615  150.5720 LP  0  0  0  0  0  0  0  0  0  0  0  0  # atno 17370 bound_to 10713
  156.5823  130.4307  149.5972 LP  0  0  0  0  0  0  0  0  0  0  0  0  # atno 17371 bound_to 10713
  140.7599  133.8826  155.8410 LP  0  0  0  0  0  0  0  0  0  0  0  0  # atno 17394 bound_to 11000
  140.9930  134.1253  157.4390 LP  0  0  0  0  0  0  0  0  0  0  0  0  # atno 17395 bound_to 11000

$$$$
