AV-unprocessed.smi:199|AV-procd|sdf|1572|dock5
  -GOLD-   2262019453D 1   1.00000     0.00000
 Structure written by MMmdl.
 51 55  0  0  0  0  0  0  0  0  1 V2000
  146.4912  133.6296  162.2402 C   0  0  0  0  0  0  0  0  0  0  0  0
  146.2330  135.1074  162.5734 C   0  0  2  0  0  0  0  0  0  0  0  0
  144.8272  135.2788  162.7328 O   0  0  0  0  0  0  0  0  0  0  0  0
  144.4885  136.6069  162.3772 C   0  0  0  0  0  0  0  0  0  0  0  0
  145.3505  136.8419  161.1464 C   0  0  0  0  0  0  0  0  0  0  0  0
  146.6657  136.1552  161.5081 C   0  0  1  0  0  0  0  0  0  0  0  0
  147.4885  137.1104  162.1563 O   0  0  0  0  0  0  0  0  0  0  0  0
  147.4397  135.6116  160.2781 C   0  0  0  0  0  0  0  0  0  0  0  0
  148.2106  136.6307  159.5812 N   0  0  0  0  0  0  0  0  0  0  0  0
  149.5602  136.8692  159.7062 C   0  0  0  0  0  0  0  0  0  0  0  0
  150.0236  137.8398  158.9683 N   0  0  0  0  0  0  0  0  0  0  0  0
  148.9082  138.3208  158.2925 C   0  0  0  0  0  0  0  0  0  0  0  0
  148.6906  139.3586  157.3409 C   0  0  0  0  0  0  0  0  0  0  0  0
  149.6790  140.1680  156.8752 N   0  0  0  0  0  0  0  0  0  0  0  0
  150.8421  139.6364  156.1827 C   0  0  2  0  0  0  0  0  0  0  0  0
  151.7503  140.8746  156.0842 C   0  0  0  0  0  0  0  0  0  0  0  0
  150.7133  141.9953  155.8954 C   0  0  0  0  0  0  0  0  0  0  0  0
  149.3994  141.1930  155.8802 C   0  0  1  0  0  0  0  0  0  0  0  0
  149.3057  140.4334  154.5325 C   0  0  2  0  0  0  0  0  0  0  0  0
  147.8841  139.9602  154.1727 C   0  0  0  0  0  0  0  0  0  0  0  0
  147.9253  139.1140  153.0436 O   0  0  0  0  0  0  0  0  0  0  0  0
  150.3093  139.2877  154.7778 C   0  0  0  0  0  0  0  0  0  0  0  0
  147.4250  139.5158  156.8701 N   0  0  0  0  0  0  0  0  0  0  0  0
  146.4346  138.7379  157.3153 C   0  0  0  0  0  0  0  0  0  0  0  0
  146.4889  137.7476  158.2070 N   0  0  0  0  0  0  0  0  0  0  0  0
  147.7589  137.5681  158.6686 C   0  0  0  0  0  0  0  0  0  0  0  0
  147.5548  133.4307  162.1092 H   0  0  0  0  0  0  0  0  0  0  0  0
  145.9713  133.3259  161.3316 H   0  0  0  0  0  0  0  0  0  0  0  0
  146.1370  132.9874  163.0467 H   0  0  0  0  0  0  0  0  0  0  0  0
  146.7005  135.3285  163.5352 H   0  0  0  0  0  0  0  0  0  0  0  0
  143.4226  136.7114  162.1736 H   0  0  0  0  0  0  0  0  0  0  0  0
  144.7579  137.2888  163.1854 H   0  0  0  0  0  0  0  0  0  0  0  0
  144.8869  136.3405  160.2959 H   0  0  0  0  0  0  0  0  0  0  0  0
  145.4574  137.8973  160.8918 H   0  0  0  0  0  0  0  0  0  0  0  0
  147.6228  136.8341  163.0500 H   0  0  0  0  0  0  0  0  0  0  0  0
  148.1180  134.8105  160.5747 H   0  0  0  0  0  0  0  0  0  0  0  0
  146.7482  135.1784  159.5551 H   0  0  0  0  0  0  0  0  0  0  0  0
  150.1970  136.2926  160.3611 H   0  0  0  0  0  0  0  0  0  0  0  0
  151.3299  138.7986  156.6824 H   0  0  0  0  0  0  0  0  0  0  0  0
  152.3108  141.0232  157.0080 H   0  0  0  0  0  0  0  0  0  0  0  0
  152.4616  140.8097  155.2604 H   0  0  0  0  0  0  0  0  0  0  0  0
  150.7359  142.6825  156.7423 H   0  0  0  0  0  0  0  0  0  0  0  0
  150.8719  142.5764  154.9865 H   0  0  0  0  0  0  0  0  0  0  0  0
  148.5369  141.8264  156.0806 H   0  0  0  0  0  0  0  0  0  0  0  0
  149.6573  141.0800  153.7268 H   0  0  0  0  0  0  0  0  0  0  0  0
  147.4144  139.4235  154.9963 H   0  0  0  0  0  0  0  0  0  0  0  0
  147.2478  140.8147  153.9414 H   0  0  0  0  0  0  0  0  0  0  0  0
  148.7068  139.3089  152.5493 H   0  0  0  0  0  0  0  0  0  0  0  0
  151.0988  139.2515  154.0265 H   0  0  0  0  0  0  0  0  0  0  0  0
  149.8130  138.3165  154.7816 H   0  0  0  0  0  0  0  0  0  0  0  0
  145.4593  138.9376  156.8964 H   0  0  0  0  0  0  0  0  0  0  0  0
  1  2  1  0  0  0  0
  1 27  1  0  0  0  0
  1 28  1  0  0  0  0
  1 29  1  0  0  0  0
  2  6  1  0  0  0  0
  2  3  1  0  0  0  0
  2 30  1  0  0  0  0
  3  4  1  0  0  0  0
  4  5  1  0  0  0  0
  4 31  1  0  0  0  0
  4 32  1  0  0  0  0
  5  6  1  0  0  0  0
  5 33  1  0  0  0  0
  5 34  1  0  0  0  0
  6  7  1  0  0  0  0
  6  8  1  0  0  0  0
  7 35  1  0  0  0  0
  8  9  1  0  0  0  0
  8 36  1  0  0  0  0
  8 37  1  0  0  0  0
  9 26  1  0  0  0  0
  9 10  1  0  0  0  0
 10 11  2  0  0  0  0
 10 38  1  0  0  0  0
 11 12  1  0  0  0  0
 12 26  2  0  0  0  0
 12 13  1  0  0  0  0
 13 14  1  0  0  0  0
 13 23  2  0  0  0  0
 14 18  1  0  0  0  0
 14 15  1  0  0  0  0
 15 22  1  0  0  0  0
 15 16  1  0  0  0  0
 15 39  1  0  0  0  0
 16 17  1  0  0  0  0
 16 40  1  0  0  0  0
 16 41  1  0  0  0  0
 17 18  1  0  0  0  0
 17 42  1  0  0  0  0
 17 43  1  0  0  0  0
 18 19  1  0  0  0  0
 18 44  1  0  0  0  0
 19 20  1  0  0  0  0
 19 22  1  0  0  0  0
 19 45  1  0  0  0  0
 20 21  1  0  0  0  0
 20 46  1  0  0  0  0
 20 47  1  0  0  0  0
 21 48  1  0  0  0  0
 22 49  1  0  0  0  0
 22 50  1  0  0  0  0
 23 24  1  0  0  0  0
 24 25  2  0  0  0  0
 24 51  1  0  0  0  0
 25 26  1  0  0  0  0
M  END
> <s_m_source_file>
AV-unprocessed.smi

> <i_m_source_file_index>
199

> <i_lp_mmshare_version>
43012

> <i_f3d_flags>
0

> <s_epik_input>
W0NIMl0xW0NIMl1PW0NAQEhdKFtDSDNdKVtDQEBdMShbT0hdKVtDSDJdbihbY0hdbjIpYyhjMjMpbltjSF1uYzNOKFtDQEBIXTQ1KVtDQEhdKFtDSDJdW0NIMl00KVtDQEhdKFtDSDJdNSlbQ0gyXVtPSF0=

> <s_epik_cmdline>
J2VwaWtfcHl0aG9uJywgJy1waCcsICc3LjAnLCAnLXRuJywgJzgnLCAnLW1hJywgJzIwMCcsICctbWV0YWxfYmluZGluZycsICctaW1hZScsICc8aW5maWxlLm1hZT4nLCAnLW9tYWUnLCAnPG91dGZpbGUubWFlPic=

> <r_lp_tautomer_probability>
1

> <r_epik_Ionization_Penalty>
0.00583903

> <r_epik_Ionization_Penalty_Charging>
0

> <r_epik_Ionization_Penalty_Neutral>
0.00583903

> <r_epik_State_Penalty>
-0

> <r_epik_Charging_Adjusted_Penalty>
0

> <i_epik_Tot_Q>
0

> <i_epik_Tot_abs_Q>
0

> <r_epik_Metal_State_Penalty>
-0

> <b_epik_Metal_Only>
0

> <s_lp_Force_Field>
OPLS_2005

> <r_lp_Energy>
83.4582

> <b_lp_Chiralities_Consistent>
1

> <s_lp_Variant>
AV-unprocessed.smi:199-13

> <Gold.Version>
5.8.1

> <Gold.Id.Protein>
6NUR|6NUR_protein|mol2

> <Gold.PLP.Fitness>
42.2700

> <Gold.PLP.PLP>
-36.9255

> <Gold.PLP.part.hbond>
-3.6627

> <Gold.PLP.part.metal>
0.0000

> <Gold.PLP.part.buried>
-6.4982

> <Gold.PLP.part.nonpolar>
-27.7489

> <Gold.PLP.part.repulsive>
0.0285

> <Gold.PLP.ligand.clash>
0.0000

> <Gold.PLP.ligand.torsion>
0.6234

> <Gold.PLP.Chemscore.Hbond>
2.1936

> <Gold.PLP.Chemscore.CHOScore>
0.0000

> <Gold.PLP.Chemscore.Metal>
0.0000

> <Gold.Chemscore.Hbonds>
donor molecule, donor type, donor heavy atom, donor atom, acceptor molecule, acceptor atom, score
      L1  H    21    48       P1  7957  1.00
      P1  H  6931  6943       L1     7  0.94
      P1  H  6934  6947       L1     7  0.25

> <Gold.PLP.Chemscore.Internal.Correction>
0.0105

> <Gold.Rescore>
     Score         DG    S(hbond)    S(metal)    S(lipo)     H(rot)  DE(clash)    DE(int)     intcor
     12.36     -14.29       1.96        0.00      86.53       3.07       0.10       1.84       ----

> <Gold.Chemscore.Fitness>
12.3585

> <Gold.Chemscore.DG>
-14.2912

> <Gold.Chemscore.ZeroCoef>
-5.4800

> <Gold.Chemscore.Hbond>
1.9621

> <Gold.Chemscore.Metal>
0.0000

> <Gold.Chemscore.Lipo>
86.5347

> <Gold.Chemscore.Internal_Hbond>
0.0000

> <Gold.Chemscore.DEClash>
0.0966

> <Gold.Chemscore.DEInternal>
1.8361

> <Gold.Chemscore.Rot>
3.0729

> <Gold.Chemscore.Internal.Correction>
   9.000000E+99

> <Gold.Chemscore.Hbonds>
donor molecule, donor type, donor heavy atom, donor atom, acceptor molecule, acceptor atom, score
      L1  H    21    48       P1  7957  0.97
      P1  H  6931  6943       L1     7  0.23
      P1  H  6934  6947       L1     7  0.12

> <Gold.Chemscore.Hbond.Weighted>
-6.5533

> <Gold.Chemscore.Metal.Weighted>
-0.0000

> <Gold.Chemscore.Lipo.Weighted>
-10.1246

> <Gold.Chemscore.Internal_Hbond.Weighted>
0.0000

> <Gold.Chemscore.DEClash.Weighted>
0.0966

> <Gold.Chemscore.DEInternal.Weighted>
1.8361

> <Gold.Chemscore.Rot.Weighted>
7.8667

> <Gold.Chemscore.Internal.Correction.Weighted>
   9.000000E+99

> <Gold.Protein.RotatedTorsions>
[ 6907 6896 6895 6894 ] final -177.15 input  -60.11 | X-H torsion
[ 7974 7965 7964 7962 ] final -164.65 input  175.53 | X-H torsion
[ 8008 7997 7996 7995 ] final   19.20 input   59.86 | X-H torsion
[ 10167 10162 10161 10158 ] final -133.35 input  -65.29 | X-H torsion
[ 10718 10713 10712 10709 ] final   24.07 input   66.30 | X-H torsion
[ 10763 10752 10751 10750 ] final  144.11 input  -60.55 | X-H torsion
[ 11005 11000 10999 10996 ] final    6.25 input  -57.11 | X-H torsion

> <Gold.Protein.ActiveResidues>
 VAL166  LYS551  ARG553  GLY616  TRP617  ASP618  TYR619  PRO620  LYS621  CYS622 
 ASP623  PHE694  ASN695  SER759  ASP760  ASP761  ALA762  ILE779  LEU786  VAL792 
 PHE793  MET794  SER795  GLU796  ALA797  LYS798  CYS799  TRP800  GLU811  SER814 

> <Gold.Protein.RotatedAtoms>
  151.6163  133.3343  159.3077 H   0  0  0  0  0  0  0  0  0  0  0  0  # atno 6907 bound_to 6896
  150.8130  134.7299  159.6716 H   0  0  0  0  0  0  0  0  0  0  0  0  # atno 6908 bound_to 6896
  152.4226  134.5932  160.0031 H   0  0  0  0  0  0  0  0  0  0  0  0  # atno 6909 bound_to 6896
  144.7291  140.2929  143.6217 H   0  0  0  0  0  0  0  0  0  0  0  0  # atno 7974 bound_to 7965
  154.9172  140.3022  155.5235 H   0  0  0  0  0  0  0  0  0  0  0  0  # atno 8008 bound_to 7997
  156.3012  140.2378  156.4154 H   0  0  0  0  0  0  0  0  0  0  0  0  # atno 8009 bound_to 7997
  154.8367  140.0416  157.1502 H   0  0  0  0  0  0  0  0  0  0  0  0  # atno 8010 bound_to 7997
  139.8991  143.6629  152.2598 H   0  0  0  0  0  0  0  0  0  0  0  0  # atno 10167 bound_to 10162
  157.1747  130.6775  149.6091 H   0  0  0  0  0  0  0  0  0  0  0  0  # atno 10718 bound_to 10713
  153.9834  135.2939  155.3418 H   0  0  0  0  0  0  0  0  0  0  0  0  # atno 10763 bound_to 10752
  154.7256  135.5090  153.8884 H   0  0  0  0  0  0  0  0  0  0  0  0  # atno 10764 bound_to 10752
  153.0843  135.6689  154.0095 H   0  0  0  0  0  0  0  0  0  0  0  0  # atno 10765 bound_to 10752
  140.5616  134.0187  155.7974 H   0  0  0  0  0  0  0  0  0  0  0  0  # atno 11005 bound_to 11000
  145.7837  139.1901  143.2143 LP  0  0  0  0  0  0  0  0  0  0  0  0  # atno 17320 bound_to 7965
  146.0813  140.7761  142.9640 LP  0  0  0  0  0  0  0  0  0  0  0  0  # atno 17321 bound_to 7965
  139.7041  144.7631  151.1223 LP  0  0  0  0  0  0  0  0  0  0  0  0  # atno 17342 bound_to 10162
  140.7710  143.5418  150.9303 LP  0  0  0  0  0  0  0  0  0  0  0  0  # atno 17343 bound_to 10162
  155.9733  130.4667  150.6298 LP  0  0  0  0  0  0  0  0  0  0  0  0  # atno 17370 bound_to 10713
  157.4010  131.0810  151.1309 LP  0  0  0  0  0  0  0  0  0  0  0  0  # atno 17371 bound_to 10713
  141.1111  133.9615  157.2908 LP  0  0  0  0  0  0  0  0  0  0  0  0  # atno 17394 bound_to 11000
  139.9405  135.0191  156.8693 LP  0  0  0  0  0  0  0  0  0  0  0  0  # atno 17395 bound_to 11000

$$$$
