AV-unprocessed.smi:2511|AV-procd|sdf|9887|dock5
  -GOLD-   2272013523D 1   1.00000     0.00000
 Structure written by MMmdl.
 40 41  0  0  0  0  0  0  0  0  1 V2000
  143.8540  136.8547  151.7077 N   0  0  0  0  0  0  0  0  0  0  0  0
  144.4377  136.4867  152.8532 C   0  0  0  0  0  0  0  0  0  0  0  0
  144.0998  135.4739  153.4642 O   0  0  0  0  0  0  0  0  0  0  0  0
  145.5680  137.3557  153.3366 C   0  0  0  0  0  0  0  0  0  0  0  0
  146.2063  138.2439  152.4412 C   0  0  0  0  0  0  0  0  0  0  0  0
  147.2678  139.0431  152.9072 C   0  0  0  0  0  0  0  0  0  0  0  0
  147.6623  138.9343  154.2613 C   0  0  0  0  0  0  0  0  0  0  0  0
  148.7249  139.6699  154.8514 N   0  0  0  0  0  0  0  0  0  0  0  0
  149.0332  139.8146  156.1554 C   0  0  0  0  0  0  0  0  0  0  0  0
  148.4005  139.3184  157.0848 O   0  0  0  0  0  0  0  0  0  0  0  0
  150.1365  140.5508  156.3831 N   0  0  0  0  0  0  0  0  0  0  0  0
  150.7499  140.9033  157.6658 C   0  0  1  0  0  0  0  0  0  0  0  0
  152.1271  140.2246  157.7753 C   0  0  0  0  0  0  0  0  0  0  0  0
  152.8396  140.6126  159.0793 C   0  0  0  0  0  0  0  0  0  0  0  0
  152.9677  142.1379  159.2127 C   0  0  0  0  0  0  0  0  0  0  0  0
  151.5940  142.8344  159.1177 C   0  0  1  0  0  0  0  0  0  0  0  0
  151.7093  144.3654  159.2690 C   0  0  0  0  0  0  0  0  0  0  0  0
  152.5001  144.8777  158.3257 F   0  0  0  0  0  0  0  0  0  0  0  0
  150.5035  144.9258  159.1720 F   0  0  0  0  0  0  0  0  0  0  0  0
  152.2128  144.6688  160.4655 F   0  0  0  0  0  0  0  0  0  0  0  0
  150.8869  142.4350  157.8049 C   0  0  0  0  0  0  0  0  0  0  0  0
  146.9770  138.0052  155.0697 C   0  0  0  0  0  0  0  0  0  0  0  0
  145.9578  137.2383  154.6294 N   0  0  0  0  0  0  0  0  0  0  0  0
  143.0887  136.3124  151.3348 H   0  0  0  0  0  0  0  0  0  0  0  0
  144.1841  137.6778  151.2244 H   0  0  0  0  0  0  0  0  0  0  0  0
  145.8935  138.3174  151.4096 H   0  0  0  0  0  0  0  0  0  0  0  0
  147.7608  139.7076  152.2154 H   0  0  0  0  0  0  0  0  0  0  0  0
  149.3762  140.0826  154.1997 H   0  0  0  0  0  0  0  0  0  0  0  0
  150.6090  140.9063  155.5642 H   0  0  0  0  0  0  0  0  0  0  0  0
  150.1308  140.5237  158.4808 H   0  0  0  0  0  0  0  0  0  0  0  0
  152.0150  139.1405  157.7277 H   0  0  0  0  0  0  0  0  0  0  0  0
  152.7501  140.5087  156.9257 H   0  0  0  0  0  0  0  0  0  0  0  0
  152.2857  140.2160  159.9311 H   0  0  0  0  0  0  0  0  0  0  0  0
  153.8280  140.1533  159.1124 H   0  0  0  0  0  0  0  0  0  0  0  0
  153.4457  142.3779  160.1628 H   0  0  0  0  0  0  0  0  0  0  0  0
  153.6292  142.5154  158.4321 H   0  0  0  0  0  0  0  0  0  0  0  0
  150.9817  142.4722  159.9454 H   0  0  0  0  0  0  0  0  0  0  0  0
  151.4442  142.8308  156.9545 H   0  0  0  0  0  0  0  0  0  0  0  0
  149.9018  142.9000  157.7657 H   0  0  0  0  0  0  0  0  0  0  0  0
  147.2512  137.8749  156.1067 H   0  0  0  0  0  0  0  0  0  0  0  0
  1  2  1  0  0  0  0
  1 24  1  0  0  0  0
  1 25  1  0  0  0  0
  2  3  2  0  0  0  0
  2  4  1  0  0  0  0
  4 23  1  0  0  0  0
  4  5  2  0  0  0  0
  5  6  1  0  0  0  0
  5 26  1  0  0  0  0
  6  7  2  0  0  0  0
  6 27  1  0  0  0  0
  7  8  1  0  0  0  0
  7 22  1  0  0  0  0
  8  9  1  0  0  0  0
  8 28  1  0  0  0  0
  9 10  2  0  0  0  0
  9 11  1  0  0  0  0
 11 12  1  0  0  0  0
 11 29  1  0  0  0  0
 12 21  1  0  0  0  0
 12 13  1  0  0  0  0
 12 30  1  0  0  0  0
 13 14  1  0  0  0  0
 13 31  1  0  0  0  0
 13 32  1  0  0  0  0
 14 15  1  0  0  0  0
 14 33  1  0  0  0  0
 14 34  1  0  0  0  0
 15 16  1  0  0  0  0
 15 35  1  0  0  0  0
 15 36  1  0  0  0  0
 16 17  1  0  0  0  0
 16 21  1  0  0  0  0
 16 37  1  0  0  0  0
 17 18  1  0  0  0  0
 17 19  1  0  0  0  0
 17 20  1  0  0  0  0
 21 38  1  0  0  0  0
 21 39  1  0  0  0  0
 22 23  2  0  0  0  0
 22 40  1  0  0  0  0
M  END
> <s_m_source_file>
AV-unprocessed.smi

> <i_m_source_file_index>
2511

> <i_lp_mmshare_version>
43012

> <i_f3d_flags>
0

> <s_epik_input>
W05IMl1DKD1PKWMxW2NIXVtjSF1jKFtjSF1uMSlbTkhdQyg9TylbTkhdW0NAQEhdMltDSDJdW0NIMl1bQ0gyXVtDQEBIXShDKEYpKEYpRilbQ0gyXTI=

> <s_epik_cmdline>
J2VwaWtfcHl0aG9uJywgJy1waCcsICc3LjAnLCAnLXRuJywgJzgnLCAnLW1hJywgJzIwMCcsICctbWV0YWxfYmluZGluZycsICctaW1hZScsICc8aW5maWxlLm1hZT4nLCAnLW9tYWUnLCAnPG91dGZpbGUubWFlPic=

> <r_lp_tautomer_probability>
1

> <r_epik_Ionization_Penalty>
4.28758e-05

> <r_epik_Ionization_Penalty_Charging>
0

> <r_epik_Ionization_Penalty_Neutral>
4.28758e-05

> <r_epik_State_Penalty>
-0

> <r_epik_Charging_Adjusted_Penalty>
0

> <i_epik_Tot_Q>
0

> <i_epik_Tot_abs_Q>
0

> <r_epik_Metal_State_Penalty>
-0

> <b_epik_Metal_Only>
0

> <s_lp_Force_Field>
OPLS_2005

> <r_lp_Energy>
28.5247

> <b_lp_Chiralities_Consistent>
1

> <s_lp_Variant>
AV-unprocessed.smi:2511-2

> <Gold.Version>
5.8.1

> <Gold.Id.Protein>
6NUR|6NUR_protein|mol2

> <Gold.PLP.Fitness>
39.3507

> <Gold.PLP.PLP>
-37.3981

> <Gold.PLP.part.hbond>
-1.0000

> <Gold.PLP.part.metal>
0.0000

> <Gold.PLP.part.buried>
-5.6909

> <Gold.PLP.part.nonpolar>
-31.9123

> <Gold.PLP.part.repulsive>
0.2546

> <Gold.PLP.ligand.clash>
0.0000

> <Gold.PLP.ligand.torsion>
0.2358

> <Gold.PLP.Chemscore.Hbond>
0.8000

> <Gold.PLP.Chemscore.CHOScore>
0.0000

> <Gold.PLP.Chemscore.Metal>
0.0000

> <Gold.Chemscore.Hbonds>
donor molecule, donor type, donor heavy atom, donor atom, acceptor molecule, acceptor atom, score
      L1  H     1    25       P1 10171  0.80

> <Gold.PLP.Chemscore.Internal.Correction>
0.0241

> <Gold.Rescore>
     Score         DG    S(hbond)    S(metal)    S(lipo)     H(rot)  DE(clash)    DE(int)     intcor
     13.66     -15.36       0.92        0.00      80.05       1.00       0.06       1.64       ----

> <Gold.Chemscore.Fitness>
13.6639

> <Gold.Chemscore.DG>
-15.3635

> <Gold.Chemscore.ZeroCoef>
-5.4800

> <Gold.Chemscore.Hbond>
0.9216

> <Gold.Chemscore.Metal>
0.0000

> <Gold.Chemscore.Lipo>
80.0454

> <Gold.Chemscore.Internal_Hbond>
0.0000

> <Gold.Chemscore.DEClash>
0.0575

> <Gold.Chemscore.DEInternal>
1.6421

> <Gold.Chemscore.Rot>
1.0000

> <Gold.Chemscore.Internal.Correction>
   9.000000E+99

> <Gold.Chemscore.Hbonds>
donor molecule, donor type, donor heavy atom, donor atom, acceptor molecule, acceptor atom, score
      L1  H     1    25       P1 10171  0.80

> <Gold.Chemscore.Hbond.Weighted>
-3.0782

> <Gold.Chemscore.Metal.Weighted>
-0.0000

> <Gold.Chemscore.Lipo.Weighted>
-9.3653

> <Gold.Chemscore.Internal_Hbond.Weighted>
0.0000

> <Gold.Chemscore.DEClash.Weighted>
0.0575

> <Gold.Chemscore.DEInternal.Weighted>
1.6421

> <Gold.Chemscore.Rot.Weighted>
2.5600

> <Gold.Chemscore.Internal.Correction.Weighted>
   9.000000E+99

> <Gold.Protein.RotatedTorsions>
[ 6907 6896 6895 6894 ] final  -21.89 input  -60.11 | X-H torsion
[ 7974 7965 7964 7962 ] final  -62.48 input  175.53 | X-H torsion
[ 8008 7997 7996 7995 ] final  109.66 input   59.86 | X-H torsion
[ 10167 10162 10161 10158 ] final -171.82 input  -65.29 | X-H torsion
[ 10718 10713 10712 10709 ] final  131.58 input   66.30 | X-H torsion
[ 10763 10752 10751 10750 ] final -106.31 input  -60.55 | X-H torsion
[ 11005 11000 10999 10996 ] final -113.58 input  -57.11 | X-H torsion

> <Gold.Protein.ActiveResidues>
 VAL166  LYS551  ARG553  GLY616  TRP617  ASP618  TYR619  PRO620  LYS621  CYS622 
 ASP623  PHE694  ASN695  SER759  ASP760  ASP761  ALA762  ILE779  LEU786  VAL792 
 PHE793  MET794  SER795  GLU796  ALA797  LYS798  CYS799  TRP800  GLU811  SER814 

> <Gold.Protein.RotatedAtoms>
  151.2267  135.0539  159.8971 H   0  0  0  0  0  0  0  0  0  0  0  0  # atno 6907 bound_to 6896
  152.5409  134.0581  159.8150 H   0  0  0  0  0  0  0  0  0  0  0  0  # atno 6908 bound_to 6896
  151.0755  133.5383  159.2655 H   0  0  0  0  0  0  0  0  0  0  0  0  # atno 6909 bound_to 6896
  145.7908  140.8710  143.0282 H   0  0  0  0  0  0  0  0  0  0  0  0  # atno 7974 bound_to 7965
  156.1996  140.3053  155.9498 H   0  0  0  0  0  0  0  0  0  0  0  0  # atno 8008 bound_to 7997
  155.2986  140.0445  157.3045 H   0  0  0  0  0  0  0  0  0  0  0  0  # atno 8009 bound_to 7997
  154.5553  140.2304  155.8429 H   0  0  0  0  0  0  0  0  0  0  0  0  # atno 8010 bound_to 7997
  139.5780  144.1488  152.1477 H   0  0  0  0  0  0  0  0  0  0  0  0  # atno 10167 bound_to 10162
  157.4954  131.1092  150.9500 H   0  0  0  0  0  0  0  0  0  0  0  0  # atno 10718 bound_to 10713
  154.8004  135.4716  154.0262 H   0  0  0  0  0  0  0  0  0  0  0  0  # atno 10763 bound_to 10752
  153.1772  135.6834  153.8534 H   0  0  0  0  0  0  0  0  0  0  0  0  # atno 10764 bound_to 10752
  153.8097  135.3218  155.3377 H   0  0  0  0  0  0  0  0  0  0  0  0  # atno 10765 bound_to 10752
  141.0605  133.9543  157.2675 H   0  0  0  0  0  0  0  0  0  0  0  0  # atno 11005 bound_to 11000
  144.6782  140.0121  143.7484 LP  0  0  0  0  0  0  0  0  0  0  0  0  # atno 17320 bound_to 7965
  145.9979  139.3067  143.0946 LP  0  0  0  0  0  0  0  0  0  0  0  0  # atno 17321 bound_to 7965
  140.1035  144.5519  150.6973 LP  0  0  0  0  0  0  0  0  0  0  0  0  # atno 17342 bound_to 10162
  140.7061  143.2469  151.4722 LP  0  0  0  0  0  0  0  0  0  0  0  0  # atno 17343 bound_to 10162
  157.0188  130.5666  149.5329 LP  0  0  0  0  0  0  0  0  0  0  0  0  # atno 17370 bound_to 10713
  156.0197  130.5292  150.8240 LP  0  0  0  0  0  0  0  0  0  0  0  0  # atno 17371 bound_to 10713
  139.9428  135.0188  156.8762 LP  0  0  0  0  0  0  0  0  0  0  0  0  # atno 17394 bound_to 11000
  140.5878  134.0291  155.7488 LP  0  0  0  0  0  0  0  0  0  0  0  0  # atno 17395 bound_to 11000

$$$$
