AV-unprocessed.smi:260|AV-procd|sdf|1981|dock2
  -GOLD-   2262021153D 1   1.00000     0.00000
 Structure written by MMmdl.
 53 56  0  0  0  0  0  0  0  0  1 V2000
  151.6958  137.3159  155.3563 C   0  0  0  0  0  0  0  0  0  0  0  0
  150.8976  138.4420  155.8137 N   0  0  0  0  0  0  0  0  0  0  0  0
  151.2527  139.7308  155.6855 C   0  0  0  0  0  0  0  0  0  0  0  0
  152.3188  140.0664  155.1676 O   0  0  0  0  0  0  0  0  0  0  0  0
  150.2791  140.8212  156.2067 C   0  0  1  0  0  0  0  0  0  0  0  0
  150.9881  141.6544  157.2921 C   0  0  0  0  0  0  0  0  0  0  0  0
  149.7961  141.6934  155.0345 C   0  0  0  0  0  0  0  0  0  0  0  0
  148.6390  140.8926  154.4269 C   0  0  0  0  0  0  0  0  0  0  0  0
  148.0897  140.1014  155.5211 N   0  0  0  0  0  0  0  0  0  0  0  0
  147.4090  138.9518  155.2602 C   0  0  0  0  0  0  0  0  0  0  0  0
  147.1746  138.0790  156.2763 N   0  0  0  0  0  0  0  0  0  0  0  0
  146.5196  136.9355  156.0587 C   0  0  0  0  0  0  0  0  0  0  0  0
  146.0101  136.4715  154.9176 N   0  0  0  0  0  0  0  0  0  0  0  0
  146.2245  137.3448  153.8933 C   0  0  0  0  0  0  0  0  0  0  0  0
  146.9048  138.5946  153.9730 C   0  0  0  0  0  0  0  0  0  0  0  0
  146.9097  139.1992  152.7195 N   0  0  0  0  0  0  0  0  0  0  0  0
  146.2790  138.3569  151.9482 C   0  0  0  0  0  0  0  0  0  0  0  0
  145.8329  137.2161  152.5731 N   0  0  0  0  0  0  0  0  0  0  0  0
  145.1030  136.1172  151.9667 C   0  0  0  0  0  0  0  0  0  0  0  0
  146.0384  135.0050  151.4547 C   0  0  1  0  0  0  0  0  0  0  0  0
  146.9775  134.6451  152.4504 O   0  0  0  0  0  0  0  0  0  0  0  0
  145.2734  133.7619  150.9589 C   0  0  1  0  0  0  0  0  0  0  0  0
  144.2049  134.0014  149.8888 C   0  0  0  0  0  0  0  0  0  0  0  0
  144.1152  132.6330  149.2513 C   0  0  0  0  0  0  0  0  0  0  0  0
  145.5754  132.1873  149.2647 C   0  0  0  0  0  0  0  0  0  0  0  0
  146.1517  132.7706  150.4304 O   0  0  0  0  0  0  0  0  0  0  0  0
  148.9283  140.2654  156.7094 C   0  0  0  0  0  0  0  0  0  0  0  0
  151.1704  136.3829  155.5602 H   0  0  0  0  0  0  0  0  0  0  0  0
  152.6569  137.2866  155.8710 H   0  0  0  0  0  0  0  0  0  0  0  0
  151.8759  137.3785  154.2824 H   0  0  0  0  0  0  0  0  0  0  0  0
  150.0077  138.2320  156.2429 H   0  0  0  0  0  0  0  0  0  0  0  0
  150.3360  142.4368  157.6815 H   0  0  0  0  0  0  0  0  0  0  0  0
  151.8826  142.1438  156.9045 H   0  0  0  0  0  0  0  0  0  0  0  0
  151.2882  141.0317  158.1359 H   0  0  0  0  0  0  0  0  0  0  0  0
  149.4193  142.6464  155.4088 H   0  0  0  0  0  0  0  0  0  0  0  0
  150.5697  141.9209  154.2996 H   0  0  0  0  0  0  0  0  0  0  0  0
  147.8853  141.5493  153.9918 H   0  0  0  0  0  0  0  0  0  0  0  0
  149.0138  140.2318  153.6440 H   0  0  0  0  0  0  0  0  0  0  0  0
  146.3852  136.3019  156.9229 H   0  0  0  0  0  0  0  0  0  0  0  0
  146.1168  138.5484  150.8975 H   0  0  0  0  0  0  0  0  0  0  0  0
  144.3980  135.7214  152.6990 H   0  0  0  0  0  0  0  0  0  0  0  0
  144.5080  136.5170  151.1449 H   0  0  0  0  0  0  0  0  0  0  0  0
  146.6130  135.3975  150.6147 H   0  0  0  0  0  0  0  0  0  0  0  0
  147.6801  135.2769  152.4379 H   0  0  0  0  0  0  0  0  0  0  0  0
  144.7839  133.2974  151.8165 H   0  0  0  0  0  0  0  0  0  0  0  0
  143.2567  134.3435  150.3045 H   0  0  0  0  0  0  0  0  0  0  0  0
  144.5332  134.7286  149.1456 H   0  0  0  0  0  0  0  0  0  0  0  0
  143.5127  131.9683  149.8721 H   0  0  0  0  0  0  0  0  0  0  0  0
  143.6838  132.6521  148.2501 H   0  0  0  0  0  0  0  0  0  0  0  0
  145.6810  131.1022  149.2664 H   0  0  0  0  0  0  0  0  0  0  0  0
  146.0978  132.5773  148.3900 H   0  0  0  0  0  0  0  0  0  0  0  0
  149.0566  139.3654  157.3101 H   0  0  0  0  0  0  0  0  0  0  0  0
  148.4378  140.9932  157.3567 H   0  0  0  0  0  0  0  0  0  0  0  0
  1  2  1  0  0  0  0
  1 28  1  0  0  0  0
  1 29  1  0  0  0  0
  1 30  1  0  0  0  0
  2  3  1  0  0  0  0
  2 31  1  0  0  0  0
  3  4  2  0  0  0  0
  3  5  1  0  0  0  0
  5 27  1  0  0  0  0
  5  6  1  0  0  0  0
  5  7  1  0  0  0  0
  6 32  1  0  0  0  0
  6 33  1  0  0  0  0
  6 34  1  0  0  0  0
  7  8  1  0  0  0  0
  7 35  1  0  0  0  0
  7 36  1  0  0  0  0
  8  9  1  0  0  0  0
  8 37  1  0  0  0  0
  8 38  1  0  0  0  0
  9 10  1  0  0  0  0
  9 27  1  0  0  0  0
 10 15  1  0  0  0  0
 10 11  2  0  0  0  0
 11 12  1  0  0  0  0
 12 13  2  0  0  0  0
 12 39  1  0  0  0  0
 13 14  1  0  0  0  0
 14 18  1  0  0  0  0
 14 15  2  0  0  0  0
 15 16  1  0  0  0  0
 16 17  2  0  0  0  0
 17 18  1  0  0  0  0
 17 40  1  0  0  0  0
 18 19  1  0  0  0  0
 19 20  1  0  0  0  0
 19 41  1  0  0  0  0
 19 42  1  0  0  0  0
 20 21  1  0  0  0  0
 20 22  1  0  0  0  0
 20 43  1  0  0  0  0
 21 44  1  0  0  0  0
 22 26  1  0  0  0  0
 22 23  1  0  0  0  0
 22 45  1  0  0  0  0
 23 24  1  0  0  0  0
 23 46  1  0  0  0  0
 23 47  1  0  0  0  0
 24 25  1  0  0  0  0
 24 48  1  0  0  0  0
 24 49  1  0  0  0  0
 25 26  1  0  0  0  0
 25 50  1  0  0  0  0
 25 51  1  0  0  0  0
 27 52  1  0  0  0  0
 27 53  1  0  0  0  0
M  END
> <s_m_source_file>
AV-unprocessed.smi

> <i_m_source_file_index>
260

> <i_lp_mmshare_version>
43012

> <i_f3d_flags>
0

> <s_epik_input>
W0NIM11bTkhdQyg9TylbQ0BAXTEoW0NIM10pW0NIMl1bQ0gyXU4oW0NIMl0xKWMobltjSF1uMiljKGMyMyluW2NIXW4zW0NIMl1bQ0BIXShbT0hdKVtDQEBIXTRbQ0gyXVtDSDJdW0NIMl1PNA==

> <s_epik_cmdline>
J2VwaWtfcHl0aG9uJywgJy1waCcsICc3LjAnLCAnLXRuJywgJzgnLCAnLW1hJywgJzIwMCcsICctbWV0YWxfYmluZGluZycsICctaW1hZScsICc8aW5maWxlLm1hZT4nLCAnLW9tYWUnLCAnPG91dGZpbGUubWFlPic=

> <r_lp_tautomer_probability>
1

> <r_epik_Ionization_Penalty>
0.00115068

> <r_epik_Ionization_Penalty_Charging>
0

> <r_epik_Ionization_Penalty_Neutral>
0.00115068

> <r_epik_State_Penalty>
0.000668876

> <r_epik_Charging_Adjusted_Penalty>
0.000668876

> <i_epik_Tot_Q>
0

> <i_epik_Tot_abs_Q>
0

> <r_epik_Metal_State_Penalty>
-0

> <b_epik_Metal_Only>
0

> <s_lp_Force_Field>
OPLS_2005

> <r_lp_Energy>
50.9621

> <b_lp_Chiralities_Consistent>
1

> <s_lp_Variant>
AV-unprocessed.smi:260-7

> <Gold.Version>
5.8.1

> <Gold.Id.Protein>
6NUR|6NUR_protein|mol2

> <Gold.PLP.Fitness>
45.5947

> <Gold.PLP.PLP>
-37.1197

> <Gold.PLP.part.hbond>
-2.4478

> <Gold.PLP.part.metal>
0.0000

> <Gold.PLP.part.buried>
-2.0635

> <Gold.PLP.part.nonpolar>
-33.1315

> <Gold.PLP.part.repulsive>
0.5596

> <Gold.PLP.ligand.clash>
0.0000

> <Gold.PLP.ligand.torsion>
0.5955

> <Gold.PLP.Chemscore.Hbond>
2.2085

> <Gold.PLP.Chemscore.CHOScore>
0.8682

> <Gold.PLP.Chemscore.Metal>
0.0000

> <Gold.Chemscore.Hbonds>
donor molecule, donor type, donor heavy atom, donor atom, acceptor molecule, acceptor atom, score
      L1  H    21    44       P1  7948  1.00
      P1  H  7989  7998       L1     4  0.66
      P1  H  7997  8008       L1     4  0.47
      L1  C    17    40       P1 10171  0.90

> <Gold.PLP.Chemscore.Internal.Correction>
0.4359

> <Gold.Rescore>
     Score         DG    S(hbond)    S(metal)    S(lipo)     H(rot)  DE(clash)    DE(int)     intcor
     13.49     -15.34       1.96        0.00      83.71       2.53       0.11       1.73       ----

> <Gold.Chemscore.Fitness>
13.4950

> <Gold.Chemscore.DG>
-15.3386

> <Gold.Chemscore.ZeroCoef>
-5.4800

> <Gold.Chemscore.Hbond>
1.9554

> <Gold.Chemscore.Metal>
0.0000

> <Gold.Chemscore.Lipo>
83.7076

> <Gold.Chemscore.Internal_Hbond>
0.0000

> <Gold.Chemscore.DEClash>
0.1136

> <Gold.Chemscore.DEInternal>
1.7301

> <Gold.Chemscore.Rot>
2.5259

> <Gold.Chemscore.Internal.Correction>
   9.000000E+99

> <Gold.Chemscore.Hbonds>
donor molecule, donor type, donor heavy atom, donor atom, acceptor molecule, acceptor atom, score
      L1  H    21    44       P1  7948  0.99
      P1  H  7989  7998       L1     4  0.20
      P1  H  7997  8008       L1     4  0.48

> <Gold.Chemscore.Hbond.Weighted>
-6.5312

> <Gold.Chemscore.Metal.Weighted>
-0.0000

> <Gold.Chemscore.Lipo.Weighted>
-9.7938

> <Gold.Chemscore.Internal_Hbond.Weighted>
0.0000

> <Gold.Chemscore.DEClash.Weighted>
0.1136

> <Gold.Chemscore.DEInternal.Weighted>
1.7301

> <Gold.Chemscore.Rot.Weighted>
6.4663

> <Gold.Chemscore.Internal.Correction.Weighted>
   9.000000E+99

> <Gold.Protein.RotatedTorsions>
[ 6907 6896 6895 6894 ] final -176.34 input  -60.11 | X-H torsion
[ 7974 7965 7964 7962 ] final -144.68 input  175.53 | X-H torsion
[ 8008 7997 7996 7995 ] final  -21.12 input   59.86 | X-H torsion
[ 10167 10162 10161 10158 ] final   51.48 input  -65.29 | X-H torsion
[ 10718 10713 10712 10709 ] final  179.88 input   66.30 | X-H torsion
[ 10763 10752 10751 10750 ] final -118.44 input  -60.55 | X-H torsion
[ 11005 11000 10999 10996 ] final  -23.02 input  -57.11 | X-H torsion

> <Gold.Protein.ActiveResidues>
 VAL166  LYS551  ARG553  GLY616  TRP617  ASP618  TYR619  PRO620  LYS621  CYS622 
 ASP623  PHE694  ASN695  SER759  ASP760  ASP761  ALA762  ILE779  LEU786  VAL792 
 PHE793  MET794  SER795  GLU796  ALA797  LYS798  CYS799  TRP800  GLU811  SER814 

> <Gold.Protein.RotatedAtoms>
  151.6032  133.3354  159.3051 H   0  0  0  0  0  0  0  0  0  0  0  0  # atno 6907 bound_to 6896
  150.8197  134.7401  159.6772 H   0  0  0  0  0  0  0  0  0  0  0  0  # atno 6908 bound_to 6896
  152.4291  134.5818  160.0001 H   0  0  0  0  0  0  0  0  0  0  0  0  # atno 6909 bound_to 6896
  144.8281  140.5680  143.5534 H   0  0  0  0  0  0  0  0  0  0  0  0  # atno 7974 bound_to 7965
  154.4726  140.2043  155.9958 H   0  0  0  0  0  0  0  0  0  0  0  0  # atno 8008 bound_to 7997
  156.1036  140.3240  155.7945 H   0  0  0  0  0  0  0  0  0  0  0  0  # atno 8009 bound_to 7997
  155.4756  140.0534  157.2964 H   0  0  0  0  0  0  0  0  0  0  0  0  # atno 8010 bound_to 7997
  140.2614  144.3368  150.6317 H   0  0  0  0  0  0  0  0  0  0  0  0  # atno 10167 bound_to 10162
  156.8692  130.9778  151.3075 H   0  0  0  0  0  0  0  0  0  0  0  0  # atno 10718 bound_to 10713
  154.8587  135.4274  154.2139 H   0  0  0  0  0  0  0  0  0  0  0  0  # atno 10763 bound_to 10752
  153.3159  135.6979  153.7080 H   0  0  0  0  0  0  0  0  0  0  0  0  # atno 10764 bound_to 10752
  153.6154  135.3511  155.2967 H   0  0  0  0  0  0  0  0  0  0  0  0  # atno 10765 bound_to 10752
  140.8712  133.7719  156.0189 H   0  0  0  0  0  0  0  0  0  0  0  0  # atno 11005 bound_to 11000
  145.4956  139.1486  143.3685 LP  0  0  0  0  0  0  0  0  0  0  0  0  # atno 17320 bound_to 7965
  146.2585  140.5095  142.8863 LP  0  0  0  0  0  0  0  0  0  0  0  0  # atno 17321 bound_to 7965
  140.5963  143.2167  151.7159 LP  0  0  0  0  0  0  0  0  0  0  0  0  # atno 17342 bound_to 10162
  139.5015  144.3863  152.0325 LP  0  0  0  0  0  0  0  0  0  0  0  0  # atno 17343 bound_to 10162
  157.6205  130.8652  149.9101 LP  0  0  0  0  0  0  0  0  0  0  0  0  # atno 17370 bound_to 10713
  156.0735  130.3682  150.0725 LP  0  0  0  0  0  0  0  0  0  0  0  0  # atno 17371 bound_to 10713
  140.8571  134.2885  157.5250 LP  0  0  0  0  0  0  0  0  0  0  0  0  # atno 17394 bound_to 11000
  139.8712  134.9498  156.4038 LP  0  0  0  0  0  0  0  0  0  0  0  0  # atno 17395 bound_to 11000

$$$$
