AV-unprocessed.smi:1234|AV-procd|sdf|5174|dock8
  -GOLD-   22720 4253D 1   1.00000     0.00000
 Structure written by MMmdl.
 32 33  0  0  0  0  0  0  0  0  2 V2000
  149.6275  136.2554  159.1157 O   0  0  0  0  0  0  0  0  0  0  0  0
  148.8438  137.1494  159.4433 C   0  0  0  0  0  0  0  0  0  0  0  0
  148.7506  138.2602  158.7002 N   0  0  0  0  0  0  0  0  0  0  0  0
  149.5239  138.5330  157.4953 C   0  0  0  0  0  0  0  0  0  0  0  0
  150.1582  139.9334  157.5701 C   0  0  0  0  0  0  0  0  0  0  0  0
  151.0516  140.1457  158.8042 C   0  0  0  0  0  0  0  0  0  0  0  0
  151.3247  139.1941  159.5376 O   0  0  0  0  0  0  0  0  0  0  0  0
  151.5157  141.3894  159.0466 N   0  0  0  0  0  0  0  0  0  0  0  0
  152.3867  141.7213  160.1724 C   0  0  0  0  0  0  0  0  0  0  0  0
  152.8785  143.1448  159.9106 C   0  0  0  0  0  0  0  0  0  0  0  0
  151.7932  143.7589  159.0374 C   0  0  0  0  0  0  0  0  0  0  0  0
  151.2376  142.5779  158.2404 C   0  0  0  0  0  0  0  0  0  0  0  0
  148.0243  137.1429  160.5193 N   0  5  0  0  0  0  0  0  0  0  0  0
  147.7154  135.9823  161.1210 C   0  0  0  0  0  0  0  0  0  0  0  0
  147.6599  134.8197  160.4512 N   0  0  0  0  0  0  0  0  0  0  0  0
  147.3277  133.7398  161.2580 N   0  0  0  0  0  0  0  0  0  0  0  0
  147.1482  134.1166  162.5239 C   0  0  0  0  0  0  0  0  0  0  0  0
  147.3724  135.8231  162.8461 S   0  0  0  0  0  0  0  0  0  0  0  0
  148.0972  138.9688  158.9997 H   0  0  0  0  0  0  0  0  0  0  0  0
  150.2991  137.7725  157.3853 H   0  0  0  0  0  0  0  0  0  0  0  0
  148.8663  138.4573  156.6276 H   0  0  0  0  0  0  0  0  0  0  0  0
  150.7517  140.1067  156.6715 H   0  0  0  0  0  0  0  0  0  0  0  0
  149.3683  140.6853  157.5815 H   0  0  0  0  0  0  0  0  0  0  0  0
  151.8048  141.6796  161.0946 H   0  0  0  0  0  0  0  0  0  0  0  0
  153.2213  141.0247  160.2662 H   0  0  0  0  0  0  0  0  0  0  0  0
  153.0530  143.7072  160.8283 H   0  0  0  0  0  0  0  0  0  0  0  0
  153.8172  143.1114  159.3557 H   0  0  0  0  0  0  0  0  0  0  0  0
  151.0082  144.1742  159.6710 H   0  0  0  0  0  0  0  0  0  0  0  0
  152.1666  144.5609  158.4001 H   0  0  0  0  0  0  0  0  0  0  0  0
  151.7531  142.4887  157.2833 H   0  0  0  0  0  0  0  0  0  0  0  0
  150.1723  142.7070  158.0444 H   0  0  0  0  0  0  0  0  0  0  0  0
  146.8852  133.3847  163.2727 H   0  0  0  0  0  0  0  0  0  0  0  0
  1  2  2  0  0  0  0
  2  3  1  0  0  0  0
  2 13  1  0  0  0  0
  3  4  1  0  0  0  0
  3 19  1  0  0  0  0
  4  5  1  0  0  0  0
  4 20  1  0  0  0  0
  4 21  1  0  0  0  0
  5  6  1  0  0  0  0
  5 22  1  0  0  0  0
  5 23  1  0  0  0  0
  6  7  2  0  0  0  0
  6  8  1  0  0  0  0
  8 12  1  0  0  0  0
  8  9  1  0  0  0  0
  9 10  1  0  0  0  0
  9 24  1  0  0  0  0
  9 25  1  0  0  0  0
 10 11  1  0  0  0  0
 10 26  1  0  0  0  0
 10 27  1  0  0  0  0
 11 12  1  0  0  0  0
 11 28  1  0  0  0  0
 11 29  1  0  0  0  0
 12 30  1  0  0  0  0
 12 31  1  0  0  0  0
 13 14  1  0  0  0  0
 14 18  1  0  0  0  0
 14 15  2  0  0  0  0
 15 16  1  0  0  0  0
 16 17  2  0  0  0  0
 17 18  1  0  0  0  0
 17 32  1  0  0  0  0
M  CHG  1  13  -1
M  END
> <s_m_source_file>
AV-unprocessed.smi

> <i_m_source_file_index>
1234

> <i_lp_mmshare_version>
43012

> <i_f3d_flags>
0

> <s_epik_input>
czFbY0hdbm5jMVtOSF1DKD1PKVtOSF1bQ0gyXVtDSDJdQyg9TylOMltDSDJdW0NIMl1bQ0gyXVtDSDJdMg==

> <s_epik_cmdline>
J2VwaWtfcHl0aG9uJywgJy1waCcsICc3LjAnLCAnLXRuJywgJzgnLCAnLW1hJywgJzIwMCcsICctbWV0YWxfYmluZGluZycsICctaW1hZScsICc8aW5maWxlLm1hZT4nLCAnLW9tYWUnLCAnPG91dGZpbGUubWFlPic=

> <r_lp_tautomer_probability>
1

> <r_epik_Ionization_Penalty>
3.2941

> <r_epik_Ionization_Penalty_Charging>
3.25456

> <r_epik_Ionization_Penalty_Neutral>
0.039538

> <r_epik_State_Penalty>
3.25212

> <r_epik_Charging_Adjusted_Penalty>
6.50668

> <i_epik_Tot_Q>
-1

> <i_epik_Tot_abs_Q>
1

> <r_epik_Metal_State_Penalty>
0.477003

> <b_epik_Metal_Only>
1

> <s_lp_Force_Field>
OPLS_2005

> <r_lp_Energy>
26.7799

> <b_lp_Chiralities_Consistent>
1

> <s_lp_Variant>
AV-unprocessed.smi:1234-2

> <Gold.Version>
5.8.1

> <Gold.Id.Protein>
6NUR|6NUR_protein|mol2

> <Gold.PLP.Fitness>
45.9966

> <Gold.PLP.PLP>
-35.2188

> <Gold.PLP.part.hbond>
-3.0253

> <Gold.PLP.part.metal>
0.0000

> <Gold.PLP.part.buried>
-5.0327

> <Gold.PLP.part.nonpolar>
-28.0438

> <Gold.PLP.part.repulsive>
0.1915

> <Gold.PLP.ligand.clash>
0.0000

> <Gold.PLP.ligand.torsion>
0.3937

> <Gold.PLP.Chemscore.Hbond>
3.8440

> <Gold.PLP.Chemscore.CHOScore>
0.0000

> <Gold.PLP.Chemscore.Metal>
0.0000

> <Gold.Chemscore.Hbonds>
donor molecule, donor type, donor heavy atom, donor atom, acceptor molecule, acceptor atom, score
      P1  H  6896  6907       L1     1  1.00
      P1  H  6931  6943       L1    13  1.55
      P1  H  6934  6947       L1    13  1.30

> <Gold.PLP.Chemscore.Internal.Correction>
0.0333

> <Gold.Rescore>
     Score         DG    S(hbond)    S(metal)    S(lipo)     H(rot)  DE(clash)    DE(int)     intcor
     13.23     -15.29       2.06        0.00      63.67       1.76       0.00       2.07       ----

> <Gold.Chemscore.Fitness>
13.2261

> <Gold.Chemscore.DG>
-15.2945

> <Gold.Chemscore.ZeroCoef>
-5.4800

> <Gold.Chemscore.Hbond>
2.0569

> <Gold.Chemscore.Metal>
0.0000

> <Gold.Chemscore.Lipo>
63.6670

> <Gold.Chemscore.Internal_Hbond>
0.0000

> <Gold.Chemscore.DEClash>
0.0000

> <Gold.Chemscore.DEInternal>
2.0684

> <Gold.Chemscore.Rot>
1.7596

> <Gold.Chemscore.Internal.Correction>
   9.000000E+99

> <Gold.Chemscore.Hbonds>
donor molecule, donor type, donor heavy atom, donor atom, acceptor molecule, acceptor atom, score
      P1  H  6896  6907       L1     1  0.99
      P1  H  6931  6943       L1    13  0.17
      P1  H  6934  6947       L1    13  0.53

> <Gold.Chemscore.Hbond.Weighted>
-6.8700

> <Gold.Chemscore.Metal.Weighted>
-0.0000

> <Gold.Chemscore.Lipo.Weighted>
-7.4490

> <Gold.Chemscore.Internal_Hbond.Weighted>
0.0000

> <Gold.Chemscore.DEClash.Weighted>
0.0000

> <Gold.Chemscore.DEInternal.Weighted>
2.0684

> <Gold.Chemscore.Rot.Weighted>
4.5046

> <Gold.Chemscore.Internal.Correction.Weighted>
   9.000000E+99

> <Gold.Protein.RotatedTorsions>
[ 6907 6896 6895 6894 ] final  -53.95 input  -60.11 | X-H torsion
[ 7974 7965 7964 7962 ] final -156.05 input  175.53 | X-H torsion
[ 8008 7997 7996 7995 ] final   31.86 input   59.86 | X-H torsion
[ 10167 10162 10161 10158 ] final   51.84 input  -65.29 | X-H torsion
[ 10718 10713 10712 10709 ] final  -94.45 input   66.30 | X-H torsion
[ 10763 10752 10751 10750 ] final -168.36 input  -60.55 | X-H torsion
[ 11005 11000 10999 10996 ] final   47.69 input  -57.11 | X-H torsion

> <Gold.Protein.ActiveResidues>
 VAL166  LYS551  ARG553  GLY616  TRP617  ASP618  TYR619  PRO620  LYS621  CYS622 
 ASP623  PHE694  ASN695  SER759  ASP760  ASP761  ALA762  ILE779  LEU786  VAL792 
 PHE793  MET794  SER795  GLU796  ALA797  LYS798  CYS799  TRP800  GLU811  SER814 

> <Gold.Protein.RotatedAtoms>
  150.8381  134.7662  159.6909 H   0  0  0  0  0  0  0  0  0  0  0  0  # atno 6907 bound_to 6896
  152.4474  134.5463  159.9863 H   0  0  0  0  0  0  0  0  0  0  0  0  # atno 6908 bound_to 6896
  151.5609  133.3365  159.3006 H   0  0  0  0  0  0  0  0  0  0  0  0  # atno 6909 bound_to 6896
  144.7611  140.4163  143.5976 H   0  0  0  0  0  0  0  0  0  0  0  0  # atno 7974 bound_to 7965
  155.1131  140.3241  155.4516 H   0  0  0  0  0  0  0  0  0  0  0  0  # atno 8008 bound_to 7997
  156.2685  140.2040  156.6203 H   0  0  0  0  0  0  0  0  0  0  0  0  # atno 8009 bound_to 7997
  154.6740  140.0533  157.0183 H   0  0  0  0  0  0  0  0  0  0  0  0  # atno 8010 bound_to 7997
  140.2577  144.3409  150.6328 H   0  0  0  0  0  0  0  0  0  0  0  0  # atno 10167 bound_to 10162
  156.0027  130.5068  150.5928 H   0  0  0  0  0  0  0  0  0  0  0  0  # atno 10718 bound_to 10713
  154.6636  135.2928  154.9834 H   0  0  0  0  0  0  0  0  0  0  0  0  # atno 10763 bound_to 10752
  154.0885  135.6594  153.4853 H   0  0  0  0  0  0  0  0  0  0  0  0  # atno 10764 bound_to 10752
  153.0444  135.5214  154.7599 H   0  0  0  0  0  0  0  0  0  0  0  0  # atno 10765 bound_to 10752
  140.1257  134.4771  155.8561 H   0  0  0  0  0  0  0  0  0  0  0  0  # atno 11005 bound_to 11000
  145.6617  139.1582  143.2804 LP  0  0  0  0  0  0  0  0  0  0  0  0  # atno 17320 bound_to 7965
  146.1674  140.6697  142.9249 LP  0  0  0  0  0  0  0  0  0  0  0  0  # atno 17321 bound_to 7965
  140.5991  143.2167  151.7107 LP  0  0  0  0  0  0  0  0  0  0  0  0  # atno 17342 bound_to 10162
  139.5026  144.3821  152.0365 LP  0  0  0  0  0  0  0  0  0  0  0  0  # atno 17343 bound_to 10162
  157.3790  131.0778  151.1493 LP  0  0  0  0  0  0  0  0  0  0  0  0  # atno 17370 bound_to 10713
  157.2222  130.6486  149.5815 LP  0  0  0  0  0  0  0  0  0  0  0  0  # atno 17371 bound_to 10713
  141.2160  133.6777  156.6973 LP  0  0  0  0  0  0  0  0  0  0  0  0  # atno 17394 bound_to 11000
  140.2907  134.8243  157.4014 LP  0  0  0  0  0  0  0  0  0  0  0  0  # atno 17395 bound_to 11000

$$$$
