AV-unprocessed.smi:3331|AV-procd|sdf|12821|dock2
  -GOLD-   2272019193D 1   1.00000     0.00000
 Structure written by MMmdl.
 47 48  0  0  0  0  0  0  0  0  2 V2000
  151.0207  143.6392  158.4068 C   0  0  0  0  0  0  0  0  0  0  0  0
  150.8260  142.2447  157.7959 C   0  0  2  0  0  0  0  0  0  0  0  0
  151.8033  141.2165  158.4077 C   0  0  0  0  0  0  0  0  0  0  0  0
  151.7117  139.8354  157.7203 C   0  0  2  0  0  0  0  0  0  0  0  0
  152.7751  138.8674  158.2569 C   0  0  0  0  0  0  0  0  0  0  0  0
  151.8067  139.9931  156.1877 C   0  0  0  0  0  0  0  0  0  0  0  0
  150.7526  140.9144  155.7438 N   0  0  0  0  0  0  0  0  0  0  0  0
  149.6581  140.4928  155.0613 C   0  0  0  0  0  0  0  0  0  0  0  0
  148.7218  141.2503  154.7990 O   0  0  0  0  0  0  0  0  0  0  0  0
  149.5575  139.0263  154.5879 C   0  0  1  0  0  0  0  0  0  0  0  0
  148.8481  138.1728  155.6525 C   0  0  0  0  0  0  0  0  0  0  0  0
  148.8265  138.9104  153.3037 N   0  3  0  0  0  0  0  0  0  0  0  0
  147.3691  139.1491  153.3839 C   0  0  0  0  0  0  0  0  0  0  0  0
  146.7264  139.0744  151.9923 C   0  0  0  0  0  0  0  0  0  0  0  0
  146.0844  137.7946  151.7660 N   0  0  0  0  0  0  0  0  0  0  0  0
  145.1404  137.1581  152.5438 C   0  0  0  0  0  0  0  0  0  0  0  0
  144.8380  135.9770  151.9292 C   0  0  0  0  0  0  0  0  0  0  0  0
  145.6594  135.9802  150.7673 C   0  0  0  0  0  0  0  0  0  0  0  0
  146.4038  137.0704  150.6721 N   0  0  0  0  0  0  0  0  0  0  0  0
  150.9833  142.2688  156.2624 C   0  0  0  0  0  0  0  0  0  0  0  0
  152.0208  144.0245  158.2059 H   0  0  0  0  0  0  0  0  0  0  0  0
  150.8845  143.6159  159.4884 H   0  0  0  0  0  0  0  0  0  0  0  0
  150.3020  144.3507  157.9995 H   0  0  0  0  0  0  0  0  0  0  0  0
  149.8088  141.9234  158.0263 H   0  0  0  0  0  0  0  0  0  0  0  0
  152.8227  141.5938  158.3138 H   0  0  0  0  0  0  0  0  0  0  0  0
  151.6132  141.1133  159.4767 H   0  0  0  0  0  0  0  0  0  0  0  0
  150.7344  139.4098  157.9536 H   0  0  0  0  0  0  0  0  0  0  0  0
  153.7825  139.2296  158.0491 H   0  0  0  0  0  0  0  0  0  0  0  0
  152.6748  137.8820  157.8010 H   0  0  0  0  0  0  0  0  0  0  0  0
  152.6821  138.7414  159.3359 H   0  0  0  0  0  0  0  0  0  0  0  0
  152.7823  140.3931  155.9070 H   0  0  0  0  0  0  0  0  0  0  0  0
  151.7427  139.0155  155.7079 H   0  0  0  0  0  0  0  0  0  0  0  0
  150.5512  138.6167  154.4088 H   0  0  0  0  0  0  0  0  0  0  0  0
  149.3602  138.2153  156.6141 H   0  0  0  0  0  0  0  0  0  0  0  0
  148.8114  137.1253  155.3519 H   0  0  0  0  0  0  0  0  0  0  0  0
  147.8216  138.5061  155.8120 H   0  0  0  0  0  0  0  0  0  0  0  0
  149.2106  139.5914  152.6645 H   0  0  0  0  0  0  0  0  0  0  0  0
  146.9073  138.4106  154.0402 H   0  0  0  0  0  0  0  0  0  0  0  0
  147.1906  140.1295  153.8279 H   0  0  0  0  0  0  0  0  0  0  0  0
  145.9823  139.8630  151.8696 H   0  0  0  0  0  0  0  0  0  0  0  0
  147.4800  139.2253  151.2180 H   0  0  0  0  0  0  0  0  0  0  0  0
  144.7663  137.5925  153.4591 H   0  0  0  0  0  0  0  0  0  0  0  0
  144.1380  135.2242  152.2601 H   0  0  0  0  0  0  0  0  0  0  0  0
  145.7359  135.2279  149.9961 H   0  0  0  0  0  0  0  0  0  0  0  0
  150.3354  143.0239  155.8220 H   0  0  0  0  0  0  0  0  0  0  0  0
  151.9943  142.5828  155.9975 H   0  0  0  0  0  0  0  0  0  0  0  0
  148.9895  137.9870  152.9276 H   0  0  0  0  0  0  0  0  0  0  0  0
  1  2  1  0  0  0  0
  1 21  1  0  0  0  0
  1 22  1  0  0  0  0
  1 23  1  0  0  0  0
  2 20  1  0  0  0  0
  2  3  1  0  0  0  0
  2 24  1  0  0  0  0
  3  4  1  0  0  0  0
  3 25  1  0  0  0  0
  3 26  1  0  0  0  0
  4  5  1  0  0  0  0
  4  6  1  0  0  0  0
  4 27  1  0  0  0  0
  5 28  1  0  0  0  0
  5 29  1  0  0  0  0
  5 30  1  0  0  0  0
  6  7  1  0  0  0  0
  6 31  1  0  0  0  0
  6 32  1  0  0  0  0
  7  8  1  0  0  0  0
  7 20  1  0  0  0  0
  8  9  2  0  0  0  0
  8 10  1  0  0  0  0
 10 11  1  0  0  0  0
 10 12  1  0  0  0  0
 10 33  1  0  0  0  0
 11 34  1  0  0  0  0
 11 35  1  0  0  0  0
 11 36  1  0  0  0  0
 12 13  1  0  0  0  0
 12 37  1  0  0  0  0
 12 47  1  0  0  0  0
 13 14  1  0  0  0  0
 13 38  1  0  0  0  0
 13 39  1  0  0  0  0
 14 15  1  0  0  0  0
 14 40  1  0  0  0  0
 14 41  1  0  0  0  0
 15 19  1  0  0  0  0
 15 16  1  0  0  0  0
 16 17  2  0  0  0  0
 16 42  1  0  0  0  0
 17 18  1  0  0  0  0
 17 43  1  0  0  0  0
 18 19  2  0  0  0  0
 18 44  1  0  0  0  0
 20 45  1  0  0  0  0
 20 46  1  0  0  0  0
M  CHG  1  12   1
M  END
> <s_m_source_file>
AV-unprocessed.smi

> <i_m_source_file_index>
3331

> <i_lp_mmshare_version>
43012

> <i_f3d_flags>
0

> <s_epik_input>
W0NIM11bQ0BASF0xW0NIMl1bQ0BASF0oW0NIM10pW0NIMl1OKFtDSDJdMSlDKD1PKVtDQEhdKFtDSDNdKVtOSF1bQ0gyXVtDSDJdbjJbY0hdW2NIXVtjSF1uMg==

> <s_epik_cmdline>
J2VwaWtfcHl0aG9uJywgJy1waCcsICc3LjAnLCAnLXRuJywgJzgnLCAnLW1hJywgJzIwMCcsICctbWV0YWxfYmluZGluZycsICctaW1hZScsICc8aW5maWxlLm1hZT4nLCAnLW9tYWUnLCAnPG91dGZpbGUubWFlPic=

> <r_lp_tautomer_probability>
1

> <r_epik_Ionization_Penalty>
0.189706

> <r_epik_Ionization_Penalty_Charging>
0.189703

> <r_epik_Ionization_Penalty_Neutral>
2.45875e-06

> <r_epik_State_Penalty>
0.179341

> <r_epik_Charging_Adjusted_Penalty>
0.369044

> <i_epik_Tot_Q>
1

> <i_epik_Tot_abs_Q>
1

> <r_epik_Metal_State_Penalty>
0.179578

> <b_epik_Metal_Only>
0

> <s_lp_Force_Field>
OPLS_2005

> <r_lp_Energy>
26.0913

> <b_lp_Chiralities_Consistent>
1

> <s_lp_Variant>
AV-unprocessed.smi:3331-5

> <Gold.Version>
5.8.1

> <Gold.Id.Protein>
6NUR|6NUR_protein|mol2

> <Gold.PLP.Fitness>
48.4932

> <Gold.PLP.PLP>
-35.9542

> <Gold.PLP.part.hbond>
-2.9942

> <Gold.PLP.part.metal>
0.0000

> <Gold.PLP.part.buried>
-0.8966

> <Gold.PLP.part.nonpolar>
-34.2376

> <Gold.PLP.part.repulsive>
2.4720

> <Gold.PLP.ligand.clash>
0.0000

> <Gold.PLP.ligand.torsion>
1.1315

> <Gold.PLP.Chemscore.Hbond>
3.9051

> <Gold.PLP.Chemscore.CHOScore>
1.0000

> <Gold.PLP.Chemscore.Metal>
0.0000

> <Gold.Chemscore.Hbonds>
donor molecule, donor type, donor heavy atom, donor atom, acceptor molecule, acceptor atom, score
      L1  H    12    37       P1  7957  0.99
      L1  H    12    47       P1  7948  2.00
      P1  H  7954  7966       L1    19  0.84
      L1  C    18    44       P1  7921  1.00

> <Gold.PLP.Chemscore.Internal.Correction>
0.0870

> <Gold.Rescore>
     Score         DG    S(hbond)    S(metal)    S(lipo)     H(rot)  DE(clash)    DE(int)     intcor
     16.77     -20.70       2.77        0.00      88.84       1.73       1.58       2.34       ----

> <Gold.Chemscore.Fitness>
16.7736

> <Gold.Chemscore.DG>
-20.6981

> <Gold.Chemscore.ZeroCoef>
-5.4800

> <Gold.Chemscore.Hbond>
2.7669

> <Gold.Chemscore.Metal>
0.0000

> <Gold.Chemscore.Lipo>
88.8356

> <Gold.Chemscore.Internal_Hbond>
0.0000

> <Gold.Chemscore.DEClash>
1.5825

> <Gold.Chemscore.DEInternal>
2.3420

> <Gold.Chemscore.Rot>
1.7254

> <Gold.Chemscore.Internal.Correction>
   9.000000E+99

> <Gold.Chemscore.Hbonds>
donor molecule, donor type, donor heavy atom, donor atom, acceptor molecule, acceptor atom, score
      L1  H    12    37       P1  7957  0.94
      L1  H    12    47       P1  7948  0.93
      P1  H  7954  7966       L1    19  0.52

> <Gold.Chemscore.Hbond.Weighted>
-9.2414

> <Gold.Chemscore.Metal.Weighted>
-0.0000

> <Gold.Chemscore.Lipo.Weighted>
-10.3938

> <Gold.Chemscore.Internal_Hbond.Weighted>
0.0000

> <Gold.Chemscore.DEClash.Weighted>
1.5825

> <Gold.Chemscore.DEInternal.Weighted>
2.3420

> <Gold.Chemscore.Rot.Weighted>
4.4170

> <Gold.Chemscore.Internal.Correction.Weighted>
   9.000000E+99

> <Gold.Protein.RotatedTorsions>
[ 6907 6896 6895 6894 ] final -114.18 input  -60.11 | X-H torsion
[ 7974 7965 7964 7962 ] final  113.09 input  175.53 | X-H torsion
[ 8008 7997 7996 7995 ] final    9.98 input   59.86 | X-H torsion
[ 10167 10162 10161 10158 ] final  104.96 input  -65.29 | X-H torsion
[ 10718 10713 10712 10709 ] final  -66.98 input   66.30 | X-H torsion
[ 10763 10752 10751 10750 ] final   95.70 input  -60.55 | X-H torsion
[ 11005 11000 10999 10996 ] final -175.40 input  -57.11 | X-H torsion

> <Gold.Protein.ActiveResidues>
 VAL166  LYS551  ARG553  GLY616  TRP617  ASP618  TYR619  PRO620  LYS621  CYS622 
 ASP623  PHE694  ASN695  SER759  ASP760  ASP761  ALA762  ILE779  LEU786  VAL792 
 PHE793  MET794  SER795  GLU796  ALA797  LYS798  CYS799  TRP800  GLU811  SER814 

> <Gold.Protein.RotatedAtoms>
  150.7883  133.8838  159.3293 H   0  0  0  0  0  0  0  0  0  0  0  0  # atno 6907 bound_to 6896
  151.6682  135.0978  160.0202 H   0  0  0  0  0  0  0  0  0  0  0  0  # atno 6908 bound_to 6896
  152.3952  133.6698  159.6306 H   0  0  0  0  0  0  0  0  0  0  0  0  # atno 6909 bound_to 6896
  145.2213  139.2861  143.4217 H   0  0  0  0  0  0  0  0  0  0  0  0  # atno 7974 bound_to 7965
  154.7872  140.2829  155.6019 H   0  0  0  0  0  0  0  0  0  0  0  0  # atno 8008 bound_to 7997
  156.2959  140.2611  156.2640 H   0  0  0  0  0  0  0  0  0  0  0  0  # atno 8009 bound_to 7997
  154.9713  140.0376  157.2225 H   0  0  0  0  0  0  0  0  0  0  0  0  # atno 8010 bound_to 7997
  139.7132  144.7073  151.0992 H   0  0  0  0  0  0  0  0  0  0  0  0  # atno 10167 bound_to 10162
  156.0582  130.4270  150.1787 H   0  0  0  0  0  0  0  0  0  0  0  0  # atno 10718 bound_to 10713
  153.2563  135.4245  155.0848 H   0  0  0  0  0  0  0  0  0  0  0  0  # atno 10763 bound_to 10752
  154.8402  135.3438  154.6442 H   0  0  0  0  0  0  0  0  0  0  0  0  # atno 10764 bound_to 10752
  153.6862  135.7036  153.5160 H   0  0  0  0  0  0  0  0  0  0  0  0  # atno 10765 bound_to 10752
  140.4637  134.6231  157.4853 H   0  0  0  0  0  0  0  0  0  0  0  0  # atno 11005 bound_to 11000
  146.3375  140.2520  142.8599 LP  0  0  0  0  0  0  0  0  0  0  0  0  # atno 17320 bound_to 7965
  144.9763  140.8417  143.5425 LP  0  0  0  0  0  0  0  0  0  0  0  0  # atno 17321 bound_to 7965
  140.7738  143.5264  150.9475 LP  0  0  0  0  0  0  0  0  0  0  0  0  # atno 17342 bound_to 10162
  139.8950  143.6907  152.3140 LP  0  0  0  0  0  0  0  0  0  0  0  0  # atno 17343 bound_to 10162
  156.9860  130.9879  151.3426 LP  0  0  0  0  0  0  0  0  0  0  0  0  # atno 17370 bound_to 10713
  157.5570  130.8220  149.8217 LP  0  0  0  0  0  0  0  0  0  0  0  0  # atno 17371 bound_to 10713
  139.9929  134.6957  155.9659 LP  0  0  0  0  0  0  0  0  0  0  0  0  # atno 17394 bound_to 11000
  141.1609  133.6539  156.4317 LP  0  0  0  0  0  0  0  0  0  0  0  0  # atno 17395 bound_to 11000

$$$$
