AV-unprocessed.smi:1852|AV-procd|sdf|7526|dock9
  -GOLD-   22720 9233D 1   1.00000     0.00000
 Structure written by MMmdl.
 46 48  0  0  0  0  0  0  0  0  2 V2000
  155.6430  130.0657  154.3526 C   0  0  0  0  0  0  0  0  0  0  0  0
  154.4845  129.1264  154.6183 C   0  0  0  0  0  0  0  0  0  0  0  0
  154.7179  127.7591  154.8619 C   0  0  0  0  0  0  0  0  0  0  0  0
  153.6364  126.8945  155.1095 C   0  0  0  0  0  0  0  0  0  0  0  0
  152.3162  127.3904  155.1157 C   0  0  0  0  0  0  0  0  0  0  0  0
  151.1602  126.4467  155.3912 C   0  0  0  0  0  0  0  0  0  0  0  0
  152.0685  128.7608  154.8719 C   0  0  0  0  0  0  0  0  0  0  0  0
  150.7549  129.1788  154.8873 O   0  0  0  0  0  0  0  0  0  0  0  0
  150.4662  130.5315  154.5614 C   0  0  0  0  0  0  0  0  0  0  0  0
  148.9600  130.7782  154.7245 C   0  0  0  0  0  0  0  0  0  0  0  0
  148.4775  131.8471  153.8354 N   0  0  0  0  0  0  0  0  0  0  0  0
  148.8423  133.1596  153.7550 C   0  0  0  0  0  0  0  0  0  0  0  0
  149.8730  133.8650  154.5808 C   0  0  0  0  0  0  0  0  0  0  0  0
  149.9938  135.2808  154.2542 N   0  0  0  0  0  0  0  0  0  0  0  0
  150.8111  136.1449  154.8730 C   0  0  0  0  0  0  0  0  0  0  0  0
  151.5763  135.8449  155.7880 O   0  0  0  0  0  0  0  0  0  0  0  0
  148.0860  133.7285  152.7738 N   0  3  0  0  0  0  0  0  0  0  0  0
  147.2244  132.7768  152.2280 C   0  0  0  0  0  0  0  0  0  0  0  0
  146.2717  132.8830  151.2192 C   0  0  0  0  0  0  0  0  0  0  0  0
  145.5490  131.7134  150.9055 C   0  0  0  0  0  0  0  0  0  0  0  0
  145.7847  130.5009  151.5848 C   0  0  0  0  0  0  0  0  0  0  0  0
  146.7551  130.4050  152.6033 C   0  0  0  0  0  0  0  0  0  0  0  0
  147.4678  131.5654  152.9066 C   0  0  0  0  0  0  0  0  0  0  0  0
  153.1658  129.6239  154.6232 C   0  0  0  0  0  0  0  0  0  0  0  0
  156.5812  129.5203  154.2456 H   0  0  0  0  0  0  0  0  0  0  0  0
  155.7508  130.7727  155.1756 H   0  0  0  0  0  0  0  0  0  0  0  0
  155.4723  130.6296  153.4352 H   0  0  0  0  0  0  0  0  0  0  0  0
  155.7247  127.3679  154.8599 H   0  0  0  0  0  0  0  0  0  0  0  0
  153.8265  125.8477  155.2961 H   0  0  0  0  0  0  0  0  0  0  0  0
  150.5002  126.3950  154.5251 H   0  0  0  0  0  0  0  0  0  0  0  0
  150.5798  126.7968  156.2453 H   0  0  0  0  0  0  0  0  0  0  0  0
  151.5111  125.4383  155.6120 H   0  0  0  0  0  0  0  0  0  0  0  0
  151.0157  131.2026  155.2236 H   0  0  0  0  0  0  0  0  0  0  0  0
  150.7648  130.7484  153.5350 H   0  0  0  0  0  0  0  0  0  0  0  0
  148.4025  129.8704  154.4956 H   0  0  0  0  0  0  0  0  0  0  0  0
  148.7151  131.0289  155.7563 H   0  0  0  0  0  0  0  0  0  0  0  0
  149.5969  133.7764  155.6318 H   0  0  0  0  0  0  0  0  0  0  0  0
  150.8420  133.3758  154.4767 H   0  0  0  0  0  0  0  0  0  0  0  0
  149.4021  135.6329  153.5156 H   0  0  0  0  0  0  0  0  0  0  0  0
  150.7043  137.1565  154.4518 H   0  0  0  0  0  0  0  0  0  0  0  0
  146.0870  133.8116  150.6995 H   0  0  0  0  0  0  0  0  0  0  0  0
  144.7977  131.7475  150.1297 H   0  0  0  0  0  0  0  0  0  0  0  0
  145.2088  129.6256  151.3208 H   0  0  0  0  0  0  0  0  0  0  0  0
  146.9212  129.4716  153.1203 H   0  0  0  0  0  0  0  0  0  0  0  0
  153.0189  130.6755  154.4287 H   0  0  0  0  0  0  0  0  0  0  0  0
  148.1550  134.7003  152.5011 H   0  0  0  0  0  0  0  0  0  0  0  0
  1  2  1  0  0  0  0
  1 25  1  0  0  0  0
  1 26  1  0  0  0  0
  1 27  1  0  0  0  0
  2 24  1  0  0  0  0
  2  3  2  0  0  0  0
  3  4  1  0  0  0  0
  3 28  1  0  0  0  0
  4  5  2  0  0  0  0
  4 29  1  0  0  0  0
  5  6  1  0  0  0  0
  5  7  1  0  0  0  0
  6 30  1  0  0  0  0
  6 31  1  0  0  0  0
  6 32  1  0  0  0  0
  7  8  1  0  0  0  0
  7 24  2  0  0  0  0
  8  9  1  0  0  0  0
  9 10  1  0  0  0  0
  9 33  1  0  0  0  0
  9 34  1  0  0  0  0
 10 11  1  0  0  0  0
 10 35  1  0  0  0  0
 10 36  1  0  0  0  0
 11 23  1  0  0  0  0
 11 12  1  0  0  0  0
 12 13  1  0  0  0  0
 12 17  2  0  0  0  0
 13 14  1  0  0  0  0
 13 37  1  0  0  0  0
 13 38  1  0  0  0  0
 14 15  1  0  0  0  0
 14 39  1  0  0  0  0
 15 16  2  0  0  0  0
 15 40  1  0  0  0  0
 17 18  1  0  0  0  0
 17 46  1  0  0  0  0
 18 23  2  0  0  0  0
 18 19  1  0  0  0  0
 19 20  2  0  0  0  0
 19 41  1  0  0  0  0
 20 21  1  0  0  0  0
 20 42  1  0  0  0  0
 21 22  2  0  0  0  0
 21 43  1  0  0  0  0
 22 23  1  0  0  0  0
 22 44  1  0  0  0  0
 24 45  1  0  0  0  0
M  CHG  1  17   1
M  END
> <s_m_source_file>
AV-unprocessed.smi

> <i_m_source_file_index>
1852

> <i_lp_mmshare_version>
43012

> <i_f3d_flags>
0

> <s_epik_input>
W0NIM11jMVtjSF1bY0hdYyhbQ0gzXSljKFtjSF0xKU9bQ0gyXVtDSDJdbihjKG4yKVtDSDJdW05IXVtDSF09TyljKGMyMylbY0hdW2NIXVtjSF1bY0hdMw==

> <s_epik_cmdline>
J2VwaWtfcHl0aG9uJywgJy1waCcsICc3LjAnLCAnLXRuJywgJzgnLCAnLW1hJywgJzIwMCcsICctbWV0YWxfYmluZGluZycsICctaW1hZScsICc8aW5maWxlLm1hZT4nLCAnLW9tYWUnLCAnPG91dGZpbGUubWFlPic=

> <r_lp_tautomer_probability>
1

> <r_epik_Ionization_Penalty>
1.39865

> <r_epik_Ionization_Penalty_Charging>
1.39865

> <r_epik_Ionization_Penalty_Neutral>
7.38905e-08

> <r_epik_State_Penalty>
1.48061

> <r_epik_Charging_Adjusted_Penalty>
2.87925

> <i_epik_Tot_Q>
1

> <i_epik_Tot_abs_Q>
1

> <r_epik_Metal_State_Penalty>
1.53473

> <b_epik_Metal_Only>
0

> <s_lp_Force_Field>
OPLS_2005

> <r_lp_Energy>
13.537

> <b_lp_Chiralities_Consistent>
1

> <s_lp_Variant>
AV-unprocessed.smi:1852-2

> <Gold.Version>
5.8.1

> <Gold.Id.Protein>
6NUR|6NUR_protein|mol2

> <Gold.PLP.Fitness>
54.9628

> <Gold.PLP.PLP>
-43.2761

> <Gold.PLP.part.hbond>
-3.5474

> <Gold.PLP.part.metal>
0.0000

> <Gold.PLP.part.buried>
-2.5615

> <Gold.PLP.part.nonpolar>
-36.0019

> <Gold.PLP.part.repulsive>
0.1696

> <Gold.PLP.ligand.clash>
0.0000

> <Gold.PLP.ligand.torsion>
0.1913

> <Gold.PLP.Chemscore.Hbond>
4.0000

> <Gold.PLP.Chemscore.CHOScore>
0.0000

> <Gold.PLP.Chemscore.Metal>
0.0000

> <Gold.Chemscore.Hbonds>
donor molecule, donor type, donor heavy atom, donor atom, acceptor molecule, acceptor atom, score
      L1  H    14    39       P1  7948  1.00
      L1  H    17    46       P1  7948  2.00
      P1  H 10752 10765       L1    16  0.95

> <Gold.PLP.Chemscore.Internal.Correction>
0.0693

> <Gold.Rescore>
     Score         DG    S(hbond)    S(metal)    S(lipo)     H(rot)  DE(clash)    DE(int)     intcor
     17.99     -18.25       2.24        0.00      98.63       2.44       0.03       0.22       ----

> <Gold.Chemscore.Fitness>
17.9919

> <Gold.Chemscore.DG>
-18.2454

> <Gold.Chemscore.ZeroCoef>
-5.4800

> <Gold.Chemscore.Hbond>
2.2379

> <Gold.Chemscore.Metal>
0.0000

> <Gold.Chemscore.Lipo>
98.6343

> <Gold.Chemscore.Internal_Hbond>
0.0000

> <Gold.Chemscore.DEClash>
0.0328

> <Gold.Chemscore.DEInternal>
0.2207

> <Gold.Chemscore.Rot>
2.4411

> <Gold.Chemscore.Internal.Correction>
   9.000000E+99

> <Gold.Chemscore.Hbonds>
donor molecule, donor type, donor heavy atom, donor atom, acceptor molecule, acceptor atom, score
      L1  H    14    39       P1  7948  0.30
      L1  H    17    46       P1  7948  0.44
      P1  H 10752 10765       L1    16  0.22

> <Gold.Chemscore.Hbond.Weighted>
-7.4745

> <Gold.Chemscore.Metal.Weighted>
-0.0000

> <Gold.Chemscore.Lipo.Weighted>
-11.5402

> <Gold.Chemscore.Internal_Hbond.Weighted>
0.0000

> <Gold.Chemscore.DEClash.Weighted>
0.0328

> <Gold.Chemscore.DEInternal.Weighted>
0.2207

> <Gold.Chemscore.Rot.Weighted>
6.2493

> <Gold.Chemscore.Internal.Correction.Weighted>
   9.000000E+99

> <Gold.Protein.RotatedTorsions>
[ 6907 6896 6895 6894 ] final   21.14 input  -60.11 | X-H torsion
[ 7974 7965 7964 7962 ] final  133.61 input  175.53 | X-H torsion
[ 8008 7997 7996 7995 ] final  -16.27 input   59.86 | X-H torsion
[ 10167 10162 10161 10158 ] final   64.21 input  -65.29 | X-H torsion
[ 10718 10713 10712 10709 ] final  -21.25 input   66.30 | X-H torsion
[ 10763 10752 10751 10750 ] final -164.00 input  -60.55 | X-H torsion
[ 11005 11000 10999 10996 ] final  116.62 input  -57.11 | X-H torsion

> <Gold.Protein.ActiveResidues>
 VAL166  LYS551  ARG553  GLY616  TRP617  ASP618  TYR619  PRO620  LYS621  CYS622 
 ASP623  PHE694  ASN695  SER759  ASP760  ASP761  ALA762  ILE779  LEU786  VAL792 
 PHE793  MET794  SER795  GLU796  ALA797  LYS798  CYS799  TRP800  GLU811  SER814 

> <Gold.Protein.RotatedAtoms>
  151.9071  135.0354  160.0511 H   0  0  0  0  0  0  0  0  0  0  0  0  # atno 6907 bound_to 6896
  152.2310  133.5053  159.5224 H   0  0  0  0  0  0  0  0  0  0  0  0  # atno 6908 bound_to 6896
  150.7025  134.1133  159.4051 H   0  0  0  0  0  0  0  0  0  0  0  0  # atno 6909 bound_to 6896
  144.9848  139.4467  143.5368 H   0  0  0  0  0  0  0  0  0  0  0  0  # atno 7974 bound_to 7965
  154.5065  140.2174  155.9240 H   0  0  0  0  0  0  0  0  0  0  0  0  # atno 8008 bound_to 7997
  156.1500  140.3163  155.8600 H   0  0  0  0  0  0  0  0  0  0  0  0  # atno 8009 bound_to 7997
  155.3956  140.0481  157.3029 H   0  0  0  0  0  0  0  0  0  0  0  0  # atno 8010 bound_to 7997
  140.1246  144.4700  150.6900 H   0  0  0  0  0  0  0  0  0  0  0  0  # atno 10167 bound_to 10162
  156.5207  130.4631  149.6598 H   0  0  0  0  0  0  0  0  0  0  0  0  # atno 10718 bound_to 10713
  154.7069  135.2998  154.9256 H   0  0  0  0  0  0  0  0  0  0  0  0  # atno 10763 bound_to 10752
  154.0170  135.6687  153.4773 H   0  0  0  0  0  0  0  0  0  0  0  0  # atno 10764 bound_to 10752
  153.0724  135.5053  154.8245 H   0  0  0  0  0  0  0  0  0  0  0  0  # atno 10765 bound_to 10752
  139.9047  134.9600  156.7225 H   0  0  0  0  0  0  0  0  0  0  0  0  # atno 11005 bound_to 11000
  146.3417  139.9143  142.8776 LP  0  0  0  0  0  0  0  0  0  0  0  0  # atno 17320 bound_to 7965
  145.2369  140.9994  143.3958 LP  0  0  0  0  0  0  0  0  0  0  0  0  # atno 17321 bound_to 7965
  140.6852  143.2346  151.5279 LP  0  0  0  0  0  0  0  0  0  0  0  0  # atno 17342 bound_to 10162
  139.5551  144.2297  152.1598 LP  0  0  0  0  0  0  0  0  0  0  0  0  # atno 17343 bound_to 10162
  156.3152  130.7251  151.2151 LP  0  0  0  0  0  0  0  0  0  0  0  0  # atno 17370 bound_to 10713
  157.7437  131.0470  150.4924 LP  0  0  0  0  0  0  0  0  0  0  0  0  # atno 17371 bound_to 10713
  140.6989  133.9324  155.8012 LP  0  0  0  0  0  0  0  0  0  0  0  0  # atno 17394 bound_to 11000
  141.0386  134.0653  157.3929 LP  0  0  0  0  0  0  0  0  0  0  0  0  # atno 17395 bound_to 11000

$$$$
