AV-unprocessed.smi:213|AV-procd|sdf|1638|dock10
  -GOLD-   2262020 03D 1   1.00000     0.00000
 Structure written by MMmdl.
 59 62  0  0  0  0  0  0  0  0  2 V2000
  145.4933  136.8329  154.8067 C   0  0  0  0  0  0  0  0  0  0  0  0
  146.1808  136.7680  153.4304 C   0  0  1  0  0  0  0  0  0  0  0  0
  145.1965  136.4072  152.2951 C   0  0  0  0  0  0  0  0  0  0  0  0
  145.0503  134.9417  152.1013 N   0  3  0  0  0  0  0  0  0  0  0  0
  143.7788  134.5827  151.4287 C   0  0  0  0  0  0  0  0  0  0  0  0
  143.6462  133.0552  151.3063 C   0  0  0  0  0  0  0  0  0  0  0  0
  144.7668  132.5340  150.6030 O   0  0  0  0  0  0  0  0  0  0  0  0
  145.9889  132.7952  151.2814 C   0  0  0  0  0  0  0  0  0  0  0  0
  146.1993  134.3141  151.4019 C   0  0  0  0  0  0  0  0  0  0  0  0
  146.8888  138.0219  153.1434 N   0  0  0  0  0  0  0  0  0  0  0  0
  146.2738  139.0520  152.3108 C   0  0  0  0  0  0  0  0  0  0  0  0
  147.8775  138.3984  153.9956 C   0  0  0  0  0  0  0  0  0  0  0  0
  148.4664  137.4325  154.7487 N   0  0  0  0  0  0  0  0  0  0  0  0
  149.4510  137.7411  155.5975 C   0  0  0  0  0  0  0  0  0  0  0  0
  149.9920  138.9339  155.8487 N   0  0  0  0  0  0  0  0  0  0  0  0
  149.4038  139.9102  155.1008 C   0  0  0  0  0  0  0  0  0  0  0  0
  148.3515  139.7345  154.1567 C   0  0  0  0  0  0  0  0  0  0  0  0
  148.0118  140.9656  153.6043 N   0  0  0  0  0  0  0  0  0  0  0  0
  148.8184  141.8139  154.1812 C   0  0  0  0  0  0  0  0  0  0  0  0
  149.6856  141.2642  155.0968 N   0  0  0  0  0  0  0  0  0  0  0  0
  150.6806  141.9656  155.8887 C   0  0  0  0  0  0  0  0  0  0  0  0
  150.3618  141.9286  157.3964 C   0  0  2  0  0  0  0  0  0  0  0  0
  149.2018  142.7004  157.6449 O   0  0  0  0  0  0  0  0  0  0  0  0
  151.5175  142.4770  158.2534 C   0  0  1  0  0  0  0  0  0  0  0  0
  151.8664  143.9431  157.9844 C   0  0  0  0  0  0  0  0  0  0  0  0
  152.4551  144.4280  159.3012 C   0  0  0  0  0  0  0  0  0  0  0  0
  152.1104  143.3176  160.2962 C   0  0  0  0  0  0  0  0  0  0  0  0
  151.1538  142.5111  159.6249 O   0  0  0  0  0  0  0  0  0  0  0  0
  145.0574  135.8714  155.0778 H   0  0  0  0  0  0  0  0  0  0  0  0
  144.6940  137.5740  154.8234 H   0  0  0  0  0  0  0  0  0  0  0  0
  146.2077  137.0958  155.5878 H   0  0  0  0  0  0  0  0  0  0  0  0
  146.9151  135.9671  153.4956 H   0  0  0  0  0  0  0  0  0  0  0  0
  144.2184  136.8284  152.5292 H   0  0  0  0  0  0  0  0  0  0  0  0
  145.5107  136.8645  151.3552 H   0  0  0  0  0  0  0  0  0  0  0  0
  142.9341  134.9773  151.9946 H   0  0  0  0  0  0  0  0  0  0  0  0
  143.7457  135.0417  150.4392 H   0  0  0  0  0  0  0  0  0  0  0  0
  143.5699  132.5901  152.2907 H   0  0  0  0  0  0  0  0  0  0  0  0
  142.7370  132.7992  150.7620 H   0  0  0  0  0  0  0  0  0  0  0  0
  145.9816  132.3231  152.2653 H   0  0  0  0  0  0  0  0  0  0  0  0
  146.8075  132.3458  150.7191 H   0  0  0  0  0  0  0  0  0  0  0  0
  146.3089  134.7535  150.4092 H   0  0  0  0  0  0  0  0  0  0  0  0
  147.1278  134.5039  151.9388 H   0  0  0  0  0  0  0  0  0  0  0  0
  147.0110  139.7911  151.9951 H   0  0  0  0  0  0  0  0  0  0  0  0
  145.4809  139.5663  152.8541 H   0  0  0  0  0  0  0  0  0  0  0  0
  145.8412  138.6237  151.4079 H   0  0  0  0  0  0  0  0  0  0  0  0
  149.8654  136.9136  156.1544 H   0  0  0  0  0  0  0  0  0  0  0  0
  148.7974  142.8708  153.9583 H   0  0  0  0  0  0  0  0  0  0  0  0
  151.6502  141.5055  155.6942 H   0  0  0  0  0  0  0  0  0  0  0  0
  150.7483  142.9956  155.5357 H   0  0  0  0  0  0  0  0  0  0  0  0
  150.1514  140.9005  157.6946 H   0  0  0  0  0  0  0  0  0  0  0  0
  148.9540  143.1356  156.8436 H   0  0  0  0  0  0  0  0  0  0  0  0
  152.4078  141.8547  158.1410 H   0  0  0  0  0  0  0  0  0  0  0  0
  152.5527  144.0618  157.1455 H   0  0  0  0  0  0  0  0  0  0  0  0
  150.9633  144.5123  157.7599 H   0  0  0  0  0  0  0  0  0  0  0  0
  153.5345  144.5685  159.2356 H   0  0  0  0  0  0  0  0  0  0  0  0
  152.0093  145.3793  159.5937 H   0  0  0  0  0  0  0  0  0  0  0  0
  152.9925  142.7157  160.5198 H   0  0  0  0  0  0  0  0  0  0  0  0
  151.7142  143.7028  161.2359 H   0  0  0  0  0  0  0  0  0  0  0  0
  145.0062  134.5339  153.0244 H   0  0  0  0  0  0  0  0  0  0  0  0
  1  2  1  0  0  0  0
  1 29  1  0  0  0  0
  1 30  1  0  0  0  0
  1 31  1  0  0  0  0
  2  3  1  0  0  0  0
  2 10  1  0  0  0  0
  2 32  1  0  0  0  0
  3  4  1  0  0  0  0
  3 33  1  0  0  0  0
  3 34  1  0  0  0  0
  4  9  1  0  0  0  0
  4  5  1  0  0  0  0
  4 59  1  0  0  0  0
  5  6  1  0  0  0  0
  5 35  1  0  0  0  0
  5 36  1  0  0  0  0
  6  7  1  0  0  0  0
  6 37  1  0  0  0  0
  6 38  1  0  0  0  0
  7  8  1  0  0  0  0
  8  9  1  0  0  0  0
  8 39  1  0  0  0  0
  8 40  1  0  0  0  0
  9 41  1  0  0  0  0
  9 42  1  0  0  0  0
 10 11  1  0  0  0  0
 10 12  1  0  0  0  0
 11 43  1  0  0  0  0
 11 44  1  0  0  0  0
 11 45  1  0  0  0  0
 12 17  1  0  0  0  0
 12 13  2  0  0  0  0
 13 14  1  0  0  0  0
 14 15  2  0  0  0  0
 14 46  1  0  0  0  0
 15 16  1  0  0  0  0
 16 20  1  0  0  0  0
 16 17  2  0  0  0  0
 17 18  1  0  0  0  0
 18 19  2  0  0  0  0
 19 20  1  0  0  0  0
 19 47  1  0  0  0  0
 20 21  1  0  0  0  0
 21 22  1  0  0  0  0
 21 48  1  0  0  0  0
 21 49  1  0  0  0  0
 22 23  1  0  0  0  0
 22 24  1  0  0  0  0
 22 50  1  0  0  0  0
 23 51  1  0  0  0  0
 24 28  1  0  0  0  0
 24 25  1  0  0  0  0
 24 52  1  0  0  0  0
 25 26  1  0  0  0  0
 25 53  1  0  0  0  0
 25 54  1  0  0  0  0
 26 27  1  0  0  0  0
 26 55  1  0  0  0  0
 26 56  1  0  0  0  0
 27 28  1  0  0  0  0
 27 57  1  0  0  0  0
 27 58  1  0  0  0  0
M  CHG  1   4   1
M  END
> <s_m_source_file>
AV-unprocessed.smi

> <i_m_source_file_index>
213

> <i_lp_mmshare_version>
43012

> <i_f3d_flags>
0

> <s_epik_input>
W0NIMl0xW0NIMl1PW0NIMl1bQ0gyXU4xW0NIMl1bQ0BASF0oW0NIM10pTihbQ0gzXSljKG5bY0hdbjIpYyhjMjMpbltjSF1uM1tDSDJdW0NASF0oW09IXSlbQ0BASF00W0NIMl1bQ0gyXVtDSDJdTzQ=

> <s_epik_cmdline>
J2VwaWtfcHl0aG9uJywgJy1waCcsICc3LjAnLCAnLXRuJywgJzgnLCAnLW1hJywgJzIwMCcsICctbWV0YWxfYmluZGluZycsICctaW1hZScsICc8aW5maWxlLm1hZT4nLCAnLW9tYWUnLCAnPG91dGZpbGUubWFlPic=

> <r_lp_tautomer_probability>
1

> <r_epik_Ionization_Penalty>
0.399679

> <r_epik_Ionization_Penalty_Charging>
0.399433

> <r_epik_Ionization_Penalty_Neutral>
0.000246213

> <r_epik_State_Penalty>
0.286032

> <r_epik_Charging_Adjusted_Penalty>
0.685465

> <i_epik_Tot_Q>
1

> <i_epik_Tot_abs_Q>
1

> <r_epik_Metal_State_Penalty>
0.286072

> <b_epik_Metal_Only>
0

> <s_lp_Force_Field>
OPLS_2005

> <r_lp_Energy>
45.5564

> <b_lp_Chiralities_Consistent>
1

> <s_lp_Variant>
AV-unprocessed.smi:213-6

> <Gold.Version>
5.8.1

> <Gold.Id.Protein>
6NUR|6NUR_protein|mol2

> <Gold.PLP.Fitness>
47.0242

> <Gold.PLP.PLP>
-42.4955

> <Gold.PLP.part.hbond>
-1.8690

> <Gold.PLP.part.metal>
0.0000

> <Gold.PLP.part.buried>
-0.0319

> <Gold.PLP.part.nonpolar>
-41.3385

> <Gold.PLP.part.repulsive>
0.9210

> <Gold.PLP.ligand.clash>
0.0000

> <Gold.PLP.ligand.torsion>
1.1085

> <Gold.PLP.Chemscore.Hbond>
1.0000

> <Gold.PLP.Chemscore.CHOScore>
0.9516

> <Gold.PLP.Chemscore.Metal>
0.0000

> <Gold.Chemscore.Hbonds>
donor molecule, donor type, donor heavy atom, donor atom, acceptor molecule, acceptor atom, score
      L1  H    23    51       P1  8028  1.00
      L1  C    19    47       P1  8028  0.93

> <Gold.PLP.Chemscore.Internal.Correction>
0.8909

> <Gold.Rescore>
     Score         DG    S(hbond)    S(metal)    S(lipo)     H(rot)  DE(clash)    DE(int)     intcor
      8.67     -13.08       0.80        0.00     104.01       2.83       1.08       3.32       ----

> <Gold.Chemscore.Fitness>
8.6735

> <Gold.Chemscore.DG>
-13.0753

> <Gold.Chemscore.ZeroCoef>
-5.4800

> <Gold.Chemscore.Hbond>
0.7960

> <Gold.Chemscore.Metal>
0.0000

> <Gold.Chemscore.Lipo>
104.0137

> <Gold.Chemscore.Internal_Hbond>
0.0000

> <Gold.Chemscore.DEClash>
1.0792

> <Gold.Chemscore.DEInternal>
3.3226

> <Gold.Chemscore.Rot>
2.8254

> <Gold.Chemscore.Internal.Correction>
   9.000000E+99

> <Gold.Chemscore.Hbonds>
donor molecule, donor type, donor heavy atom, donor atom, acceptor molecule, acceptor atom, score
      L1  H    23    51       P1  8028  0.83

> <Gold.Chemscore.Hbond.Weighted>
-2.6587

> <Gold.Chemscore.Metal.Weighted>
-0.0000

> <Gold.Chemscore.Lipo.Weighted>
-12.1696

> <Gold.Chemscore.Internal_Hbond.Weighted>
0.0000

> <Gold.Chemscore.DEClash.Weighted>
1.0792

> <Gold.Chemscore.DEInternal.Weighted>
3.3226

> <Gold.Chemscore.Rot.Weighted>
7.2330

> <Gold.Chemscore.Internal.Correction.Weighted>
   9.000000E+99

> <Gold.Protein.RotatedTorsions>
[ 6907 6896 6895 6894 ] final   27.74 input  -60.11 | X-H torsion
[ 7974 7965 7964 7962 ] final  -28.96 input  175.53 | X-H torsion
[ 8008 7997 7996 7995 ] final -162.28 input   59.86 | X-H torsion
[ 10167 10162 10161 10158 ] final   13.74 input  -65.29 | X-H torsion
[ 10718 10713 10712 10709 ] final  -26.14 input   66.30 | X-H torsion
[ 10763 10752 10751 10750 ] final -121.52 input  -60.55 | X-H torsion
[ 11005 11000 10999 10996 ] final -129.58 input  -57.11 | X-H torsion

> <Gold.Protein.ActiveResidues>
 VAL166  LYS551  ARG553  GLY616  TRP617  ASP618  TYR619  PRO620  LYS621  CYS622 
 ASP623  PHE694  ASN695  SER759  ASP760  ASP761  ALA762  ILE779  LEU786  VAL792 
 PHE793  MET794  SER795  GLU796  ALA797  LYS798  CYS799  TRP800  GLU811  SER814 

> <Gold.Protein.RotatedAtoms>
  152.0068  134.9898  160.0566 H   0  0  0  0  0  0  0  0  0  0  0  0  # atno 6907 bound_to 6896
  152.1467  133.4492  159.4801 H   0  0  0  0  0  0  0  0  0  0  0  0  # atno 6908 bound_to 6896
  150.6871  134.2157  159.4420 H   0  0  0  0  0  0  0  0  0  0  0  0  # atno 6909 bound_to 6896
  146.1251  140.5351  142.8718 H   0  0  0  0  0  0  0  0  0  0  0  0  # atno 7974 bound_to 7965
  155.8045  140.0896  157.1939 H   0  0  0  0  0  0  0  0  0  0  0  0  # atno 8008 bound_to 7997
  154.3981  140.1466  156.3372 H   0  0  0  0  0  0  0  0  0  0  0  0  # atno 8009 bound_to 7997
  155.8429  140.3438  155.5646 H   0  0  0  0  0  0  0  0  0  0  0  0  # atno 8010 bound_to 7997
  140.5982  143.8657  150.6939 H   0  0  0  0  0  0  0  0  0  0  0  0  # atno 10167 bound_to 10162
  156.4551  130.4492  149.6965 H   0  0  0  0  0  0  0  0  0  0  0  0  # atno 10718 bound_to 10713
  154.8670  135.4165  154.2633 H   0  0  0  0  0  0  0  0  0  0  0  0  # atno 10763 bound_to 10752
  153.3557  135.7001  153.6758 H   0  0  0  0  0  0  0  0  0  0  0  0  # atno 10764 bound_to 10752
  153.5680  135.3597  155.2798 H   0  0  0  0  0  0  0  0  0  0  0  0  # atno 10765 bound_to 10752
  140.9420  134.1181  157.4142 H   0  0  0  0  0  0  0  0  0  0  0  0  # atno 11005 bound_to 11000
  144.7634  140.5475  143.6720 LP  0  0  0  0  0  0  0  0  0  0  0  0  # atno 17320 bound_to 7965
  145.5383  139.1475  143.3461 LP  0  0  0  0  0  0  0  0  0  0  0  0  # atno 17321 bound_to 7965
  140.2197  143.3818  152.1652 LP  0  0  0  0  0  0  0  0  0  0  0  0  # atno 17342 bound_to 10162
  139.5273  144.7117  151.5183 LP  0  0  0  0  0  0  0  0  0  0  0  0  # atno 17343 bound_to 10162
  156.3775  130.7562  151.2552 LP  0  0  0  0  0  0  0  0  0  0  0  0  # atno 17370 bound_to 10713
  157.7501  131.0305  150.4140 LP  0  0  0  0  0  0  0  0  0  0  0  0  # atno 17371 bound_to 10713
  139.8823  135.0039  156.6218 LP  0  0  0  0  0  0  0  0  0  0  0  0  # atno 17394 bound_to 11000
  140.7721  133.8729  155.8500 LP  0  0  0  0  0  0  0  0  0  0  0  0  # atno 17395 bound_to 11000

$$$$
