AV-unprocessed.smi:1044|AV-procd|sdf|4542|dock8
  -GOLD-   22720 2563D 1   1.00000     0.00000
 Structure written by MMmdl.
 45 46  0  0  0  0  0  0  0  0  1 V2000
  144.3878  133.3610  150.4477 C   0  0  0  0  0  0  0  0  0  0  0  0
  145.7647  133.7564  149.9093 C   0  0  0  0  0  0  0  0  0  0  0  0
  146.6985  133.7282  150.9847 O   0  0  0  0  0  0  0  0  0  0  0  0
  146.9048  132.5373  151.6547 C   0  0  0  0  0  0  0  0  0  0  0  0
  146.2797  131.4229  151.1985 N   0  0  0  0  0  0  0  0  0  0  0  0
  146.4776  130.2607  151.8540 C   0  0  0  0  0  0  0  0  0  0  0  0
  147.2956  130.1483  152.9932 C   0  0  0  0  0  0  0  0  0  0  0  0
  147.9452  131.3025  153.4681 C   0  0  0  0  0  0  0  0  0  0  0  0
  147.7599  132.5266  152.7811 C   0  0  0  0  0  0  0  0  0  0  0  0
  148.3518  133.7521  153.1922 N   0  0  0  0  0  0  0  0  0  0  0  0
  148.6871  134.1375  154.4348 C   0  0  0  0  0  0  0  0  0  0  0  0
  148.5513  133.4537  155.4492 O   0  0  0  0  0  0  0  0  0  0  0  0
  149.2187  135.3684  154.4308 N   0  0  0  0  0  0  0  0  0  0  0  0
  149.7272  136.0846  155.5974 C   0  0  2  0  0  0  0  0  0  0  0  0
  148.6814  136.0743  156.7192 C   0  0  0  0  0  0  0  0  0  0  0  0
  149.2160  136.8703  157.9130 C   0  0  0  0  0  0  0  0  0  0  0  0
  149.5993  138.3033  157.5069 C   0  0  0  0  0  0  0  0  0  0  0  0
  150.5415  138.3113  156.3689 N   0  0  0  0  0  0  0  0  0  0  0  0
  151.4135  139.7767  156.0535 S   0  0  0  0  0  0  0  0  0  0  0  0
  150.7870  140.9242  157.3490 C   0  0  0  0  0  0  0  0  0  0  0  0
  152.8401  139.5104  156.2931 O   0  0  0  0  0  0  0  0  0  0  0  0
  150.9720  140.2945  154.7494 O   0  0  0  0  0  0  0  0  0  0  0  0
  150.0896  137.5273  155.2027 C   0  0  0  0  0  0  0  0  0  0  0  0
  143.6433  133.3644  149.6514 H   0  0  0  0  0  0  0  0  0  0  0  0
  144.0555  134.0555  151.2197 H   0  0  0  0  0  0  0  0  0  0  0  0
  144.4095  132.3611  150.8819 H   0  0  0  0  0  0  0  0  0  0  0  0
  146.0655  133.0601  149.1247 H   0  0  0  0  0  0  0  0  0  0  0  0
  145.7128  134.7553  149.4735 H   0  0  0  0  0  0  0  0  0  0  0  0
  145.9624  129.3960  151.4628 H   0  0  0  0  0  0  0  0  0  0  0  0
  147.4176  129.1997  153.4948 H   0  0  0  0  0  0  0  0  0  0  0  0
  148.5572  131.2312  154.3539 H   0  0  0  0  0  0  0  0  0  0  0  0
  148.6150  134.3768  152.4439 H   0  0  0  0  0  0  0  0  0  0  0  0
  149.2890  135.8468  153.5446 H   0  0  0  0  0  0  0  0  0  0  0  0
  150.6317  135.6018  155.9726 H   0  0  0  0  0  0  0  0  0  0  0  0
  147.7449  136.5126  156.3708 H   0  0  0  0  0  0  0  0  0  0  0  0
  148.4588  135.0507  157.0225 H   0  0  0  0  0  0  0  0  0  0  0  0
  148.4698  136.8968  158.7074 H   0  0  0  0  0  0  0  0  0  0  0  0
  150.0891  136.3644  158.3280 H   0  0  0  0  0  0  0  0  0  0  0  0
  148.7104  138.8727  157.2333 H   0  0  0  0  0  0  0  0  0  0  0  0
  150.0471  138.8063  158.3637 H   0  0  0  0  0  0  0  0  0  0  0  0
  151.2190  141.9122  157.1918 H   0  0  0  0  0  0  0  0  0  0  0  0
  151.0706  140.5671  158.3377 H   0  0  0  0  0  0  0  0  0  0  0  0
  149.7013  140.9909  157.2822 H   0  0  0  0  0  0  0  0  0  0  0  0
  150.8730  137.5102  154.4460 H   0  0  0  0  0  0  0  0  0  0  0  0
  149.2317  138.0300  154.7538 H   0  0  0  0  0  0  0  0  0  0  0  0
  1  2  1  0  0  0  0
  1 24  1  0  0  0  0
  1 25  1  0  0  0  0
  1 26  1  0  0  0  0
  2  3  1  0  0  0  0
  2 27  1  0  0  0  0
  2 28  1  0  0  0  0
  3  4  1  0  0  0  0
  4  9  1  0  0  0  0
  4  5  2  0  0  0  0
  5  6  1  0  0  0  0
  6  7  2  0  0  0  0
  6 29  1  0  0  0  0
  7  8  1  0  0  0  0
  7 30  1  0  0  0  0
  8  9  2  0  0  0  0
  8 31  1  0  0  0  0
  9 10  1  0  0  0  0
 10 11  1  0  0  0  0
 10 32  1  0  0  0  0
 11 12  2  0  0  0  0
 11 13  1  0  0  0  0
 13 14  1  0  0  0  0
 13 33  1  0  0  0  0
 14 23  1  0  0  0  0
 14 15  1  0  0  0  0
 14 34  1  0  0  0  0
 15 16  1  0  0  0  0
 15 35  1  0  0  0  0
 15 36  1  0  0  0  0
 16 17  1  0  0  0  0
 16 37  1  0  0  0  0
 16 38  1  0  0  0  0
 17 18  1  0  0  0  0
 17 39  1  0  0  0  0
 17 40  1  0  0  0  0
 18 19  1  0  0  0  0
 18 23  1  0  0  0  0
 19 20  1  0  0  0  0
 19 21  2  0  0  0  0
 19 22  2  0  0  0  0
 20 41  1  0  0  0  0
 20 42  1  0  0  0  0
 20 43  1  0  0  0  0
 23 44  1  0  0  0  0
 23 45  1  0  0  0  0
M  END
> <s_m_source_file>
AV-unprocessed.smi

> <i_m_source_file_index>
1044

> <i_lp_mmshare_version>
43012

> <i_f3d_flags>
0

> <s_epik_input>
W0NIM11bQ0gyXU9jMW5bY0hdW2NIXVtjSF1jMVtOSF1DKD1PKVtOSF1bQ0BASF0yW0NIMl1bQ0gyXVtDSDJdTihbQ0gyXTIpUyg9TykoPU8pW0NIM10=

> <s_epik_cmdline>
J2VwaWtfcHl0aG9uJywgJy1waCcsICc3LjAnLCAnLXRuJywgJzgnLCAnLW1hJywgJzIwMCcsICctbWV0YWxfYmluZGluZycsICctaW1hZScsICc8aW5maWxlLm1hZT4nLCAnLW9tYWUnLCAnPG91dGZpbGUubWFlPic=

> <r_lp_tautomer_probability>
1

> <r_epik_Ionization_Penalty>
0.000106941

> <r_epik_Ionization_Penalty_Charging>
0

> <r_epik_Ionization_Penalty_Neutral>
0.000106941

> <r_epik_State_Penalty>
-0

> <r_epik_Charging_Adjusted_Penalty>
0

> <i_epik_Tot_Q>
0

> <i_epik_Tot_abs_Q>
0

> <r_epik_Metal_State_Penalty>
-0

> <b_epik_Metal_Only>
0

> <s_lp_Force_Field>
OPLS_2005

> <r_lp_Energy>
2.99573

> <b_lp_Chiralities_Consistent>
1

> <s_lp_Variant>
AV-unprocessed.smi:1044-1

> <Gold.Version>
5.8.1

> <Gold.Id.Protein>
6NUR|6NUR_protein|mol2

> <Gold.PLP.Fitness>
43.2348

> <Gold.PLP.PLP>
-32.0011

> <Gold.PLP.part.hbond>
-4.0000

> <Gold.PLP.part.metal>
0.0000

> <Gold.PLP.part.buried>
-5.8701

> <Gold.PLP.part.nonpolar>
-22.6860

> <Gold.PLP.part.repulsive>
0.4080

> <Gold.PLP.ligand.clash>
0.0000

> <Gold.PLP.ligand.torsion>
0.7531

> <Gold.PLP.Chemscore.Hbond>
3.9920

> <Gold.PLP.Chemscore.CHOScore>
0.0000

> <Gold.PLP.Chemscore.Metal>
0.0000

> <Gold.Chemscore.Hbonds>
donor molecule, donor type, donor heavy atom, donor atom, acceptor molecule, acceptor atom, score
      L1  H    10    32       P1  7948  0.45
      L1  H    13    33       P1  7948  1.00
      P1  H  7989  7998       L1    22  0.99
      P1  H  7997  8008       L1    21  1.00

> <Gold.PLP.Chemscore.Internal.Correction>
0.7640

> <Gold.Rescore>
     Score         DG    S(hbond)    S(metal)    S(lipo)     H(rot)  DE(clash)    DE(int)     intcor
     15.56     -19.60       3.64        0.00      55.44       1.77       0.01       4.03       ----

> <Gold.Chemscore.Fitness>
15.5601

> <Gold.Chemscore.DG>
-19.6018

> <Gold.Chemscore.ZeroCoef>
-5.4800

> <Gold.Chemscore.Hbond>
3.6435

> <Gold.Chemscore.Metal>
0.0000

> <Gold.Chemscore.Lipo>
55.4413

> <Gold.Chemscore.Internal_Hbond>
0.0000

> <Gold.Chemscore.DEClash>
0.0126

> <Gold.Chemscore.DEInternal>
4.0291

> <Gold.Chemscore.Rot>
1.7711

> <Gold.Chemscore.Internal.Correction>
   9.000000E+99

> <Gold.Chemscore.Hbonds>
donor molecule, donor type, donor heavy atom, donor atom, acceptor molecule, acceptor atom, score
      L1  H    10    32       P1  7948  0.01
      L1  H    13    33       P1  7948  0.60
      P1  H  7989  7998       L1    22  0.92
      P1  H  7997  8008       L1    21  0.99

> <Gold.Chemscore.Hbond.Weighted>
-12.1692

> <Gold.Chemscore.Metal.Weighted>
-0.0000

> <Gold.Chemscore.Lipo.Weighted>
-6.4866

> <Gold.Chemscore.Internal_Hbond.Weighted>
0.0000

> <Gold.Chemscore.DEClash.Weighted>
0.0126

> <Gold.Chemscore.DEInternal.Weighted>
4.0291

> <Gold.Chemscore.Rot.Weighted>
4.5340

> <Gold.Chemscore.Internal.Correction.Weighted>
   9.000000E+99

> <Gold.Protein.RotatedTorsions>
[ 6907 6896 6895 6894 ] final  145.67 input  -60.11 | X-H torsion
[ 7974 7965 7964 7962 ] final   18.24 input  175.53 | X-H torsion
[ 8008 7997 7996 7995 ] final  -40.37 input   59.86 | X-H torsion
[ 10167 10162 10161 10158 ] final  -78.65 input  -65.29 | X-H torsion
[ 10718 10713 10712 10709 ] final   18.16 input   66.30 | X-H torsion
[ 10763 10752 10751 10750 ] final   65.40 input  -60.55 | X-H torsion
[ 11005 11000 10999 10996 ] final   83.77 input  -57.11 | X-H torsion

> <Gold.Protein.ActiveResidues>
 VAL166  LYS551  ARG553  GLY616  TRP617  ASP618  TYR619  PRO620  LYS621  CYS622 
 ASP623  PHE694  ASN695  SER759  ASP760  ASP761  ALA762  ILE779  LEU786  VAL792 
 PHE793  MET794  SER795  GLU796  ALA797  LYS798  CYS799  TRP800  GLU811  SER814 

> <Gold.Protein.RotatedAtoms>
  152.1778  133.4687  159.4942 H   0  0  0  0  0  0  0  0  0  0  0  0  # atno 6907 bound_to 6896
  150.6929  134.1871  159.4280 H   0  0  0  0  0  0  0  0  0  0  0  0  # atno 6908 bound_to 6896
  151.9781  135.0042  160.0607 H   0  0  0  0  0  0  0  0  0  0  0  0  # atno 6909 bound_to 6896
  146.2192  139.8486  142.8627 H   0  0  0  0  0  0  0  0  0  0  0  0  # atno 7974 bound_to 7965
  154.4013  140.1527  156.3016 H   0  0  0  0  0  0  0  0  0  0  0  0  # atno 8008 bound_to 7997
  155.8696  140.3449  155.5790 H   0  0  0  0  0  0  0  0  0  0  0  0  # atno 8009 bound_to 7997
  155.7789  140.0840  157.2060 H   0  0  0  0  0  0  0  0  0  0  0  0  # atno 8010 bound_to 7997
  140.4663  143.2439  151.8272 H   0  0  0  0  0  0  0  0  0  0  0  0  # atno 10167 bound_to 10162
  157.0924  130.6433  149.5852 H   0  0  0  0  0  0  0  0  0  0  0  0  # atno 10718 bound_to 10713
  153.0095  135.5358  154.6661 H   0  0  0  0  0  0  0  0  0  0  0  0  # atno 10763 bound_to 10752
  154.5857  135.2854  155.0689 H   0  0  0  0  0  0  0  0  0  0  0  0  # atno 10764 bound_to 10752
  154.1801  135.6517  153.5084 H   0  0  0  0  0  0  0  0  0  0  0  0  # atno 10765 bound_to 10752
  139.9021  134.8168  156.2354 H   0  0  0  0  0  0  0  0  0  0  0  0  # atno 11005 bound_to 11000
  145.2825  141.0143  143.3709 LP  0  0  0  0  0  0  0  0  0  0  0  0  # atno 17320 bound_to 7965
  144.9139  139.4494  143.6573 LP  0  0  0  0  0  0  0  0  0  0  0  0  # atno 17321 bound_to 7965
  139.4812  144.4946  151.9140 LP  0  0  0  0  0  0  0  0  0  0  0  0  # atno 17342 bound_to 10162
  140.4031  144.2467  150.5892 LP  0  0  0  0  0  0  0  0  0  0  0  0  # atno 17343 bound_to 10162
  155.9894  130.4942  150.7214 LP  0  0  0  0  0  0  0  0  0  0  0  0  # atno 17370 bound_to 10713
  157.4710  131.0893  151.0643 LP  0  0  0  0  0  0  0  0  0  0  0  0  # atno 17371 bound_to 10713
  141.0319  133.6984  156.1444 LP  0  0  0  0  0  0  0  0  0  0  0  0  # atno 17394 bound_to 11000
  140.7084  134.4488  157.5583 LP  0  0  0  0  0  0  0  0  0  0  0  0  # atno 17395 bound_to 11000

$$$$
