AV-unprocessed.smi:2330|AV-procd|sdf|9313|dock6
  -GOLD-   2272012533D 1   1.00000     0.00000
 Structure written by MMmdl.
 42 43  0  0  0  0  0  0  0  0  1 V2000
  145.7140  133.2865  151.2417 C   0  0  0  0  0  0  0  0  0  0  0  0
  146.1695  133.2414  152.7069 C   0  0  2  0  0  0  0  0  0  0  0  0
  145.9023  134.5796  153.4221 C   0  0  0  0  0  0  0  0  0  0  0  0
  146.3539  134.5371  154.8929 C   0  0  0  0  0  0  0  0  0  0  0  0
  147.8311  134.1240  155.0407 C   0  0  2  0  0  0  0  0  0  0  0  0
  148.7078  135.1913  154.5604 N   0  0  0  0  0  0  0  0  0  0  0  0
  149.5436  135.9225  155.3107 C   0  0  0  0  0  0  0  0  0  0  0  0
  149.7038  135.7738  156.5222 O   0  0  0  0  0  0  0  0  0  0  0  0
  150.1726  136.8541  154.5818 N   0  0  0  0  0  0  0  0  0  0  0  0
  151.0848  137.8616  155.1161 C   0  0  0  0  0  0  0  0  0  0  0  0
  150.6681  139.3036  154.7487 C   0  0  1  0  0  0  0  0  0  0  0  0
  149.1907  139.4156  154.3469 C   0  0  0  0  0  0  0  0  0  0  0  0
  151.0501  140.3117  155.7904 C   0  0  0  0  0  0  0  0  0  0  0  0
  150.8219  141.6239  155.6738 N   0  0  0  0  0  0  0  0  0  0  0  0
  151.2543  142.3436  156.7902 C   0  0  0  0  0  0  0  0  0  0  0  0
  151.8135  141.5578  157.7654 C   0  0  0  0  0  0  0  0  0  0  0  0
  151.8187  139.8754  157.3141 S   0  0  0  0  0  0  0  0  0  0  0  0
  148.1176  132.8080  154.2914 C   0  0  0  0  0  0  0  0  0  0  0  0
  147.6571  132.8579  152.8236 C   0  0  0  0  0  0  0  0  0  0  0  0
  146.2643  134.0405  150.6779 H   0  0  0  0  0  0  0  0  0  0  0  0
  144.6524  133.5237  151.1678 H   0  0  0  0  0  0  0  0  0  0  0  0
  145.8703  132.3246  150.7525 H   0  0  0  0  0  0  0  0  0  0  0  0
  145.5834  132.4700  153.2087 H   0  0  0  0  0  0  0  0  0  0  0  0
  146.4204  135.3865  152.9022 H   0  0  0  0  0  0  0  0  0  0  0  0
  144.8394  134.8201  153.3768 H   0  0  0  0  0  0  0  0  0  0  0  0
  146.1841  135.5058  155.3648 H   0  0  0  0  0  0  0  0  0  0  0  0
  145.7296  133.8246  155.4338 H   0  0  0  0  0  0  0  0  0  0  0  0
  148.0193  133.9503  156.1016 H   0  0  0  0  0  0  0  0  0  0  0  0
  148.6561  135.4025  153.5746 H   0  0  0  0  0  0  0  0  0  0  0  0
  149.9769  136.8979  153.5924 H   0  0  0  0  0  0  0  0  0  0  0  0
  151.1751  137.7510  156.1978 H   0  0  0  0  0  0  0  0  0  0  0  0
  152.0715  137.6518  154.7023 H   0  0  0  0  0  0  0  0  0  0  0  0
  151.2360  139.5699  153.8563 H   0  0  0  0  0  0  0  0  0  0  0  0
  148.9543  140.4209  153.9970 H   0  0  0  0  0  0  0  0  0  0  0  0
  148.5331  139.1921  155.1875 H   0  0  0  0  0  0  0  0  0  0  0  0
  148.9493  138.7205  153.5423 H   0  0  0  0  0  0  0  0  0  0  0  0
  151.1233  143.4154  156.8076 H   0  0  0  0  0  0  0  0  0  0  0  0
  152.2205  141.8650  158.7173 H   0  0  0  0  0  0  0  0  0  0  0  0
  149.1806  132.5688  154.3423 H   0  0  0  0  0  0  0  0  0  0  0  0
  147.6001  131.9913  154.7963 H   0  0  0  0  0  0  0  0  0  0  0  0
  147.8286  131.8873  152.3571 H   0  0  0  0  0  0  0  0  0  0  0  0
  148.2680  133.5739  152.2719 H   0  0  0  0  0  0  0  0  0  0  0  0
  1  2  1  0  0  0  0
  1 20  1  0  0  0  0
  1 21  1  0  0  0  0
  1 22  1  0  0  0  0
  2 19  1  0  0  0  0
  2  3  1  0  0  0  0
  2 23  1  0  0  0  0
  3  4  1  0  0  0  0
  3 24  1  0  0  0  0
  3 25  1  0  0  0  0
  4  5  1  0  0  0  0
  4 26  1  0  0  0  0
  4 27  1  0  0  0  0
  5  6  1  0  0  0  0
  5 18  1  0  0  0  0
  5 28  1  0  0  0  0
  6  7  1  0  0  0  0
  6 29  1  0  0  0  0
  7  8  2  0  0  0  0
  7  9  1  0  0  0  0
  9 10  1  0  0  0  0
  9 30  1  0  0  0  0
 10 11  1  0  0  0  0
 10 31  1  0  0  0  0
 10 32  1  0  0  0  0
 11 12  1  0  0  0  0
 11 13  1  0  0  0  0
 11 33  1  0  0  0  0
 12 34  1  0  0  0  0
 12 35  1  0  0  0  0
 12 36  1  0  0  0  0
 13 17  1  0  0  0  0
 13 14  2  0  0  0  0
 14 15  1  0  0  0  0
 15 16  2  0  0  0  0
 15 37  1  0  0  0  0
 16 17  1  0  0  0  0
 16 38  1  0  0  0  0
 18 19  1  0  0  0  0
 18 39  1  0  0  0  0
 18 40  1  0  0  0  0
 19 41  1  0  0  0  0
 19 42  1  0  0  0  0
M  END
> <s_m_source_file>
AV-unprocessed.smi

> <i_m_source_file_index>
2330

> <i_lp_mmshare_version>
43012

> <i_f3d_flags>
0

> <s_epik_input>
W0NIM11bQ0BASF0xW0NIMl1bQ0gyXVtDQEhdKFtDSDJdW0NIMl0xKVtOSF1DKD1PKVtOSF1bQ0gyXVtDQEhdKFtDSDNdKWMybltjSF1bY0hdczI=

> <s_epik_cmdline>
J2VwaWtfcHl0aG9uJywgJy1waCcsICc3LjAnLCAnLXRuJywgJzgnLCAnLW1hJywgJzIwMCcsICctbWV0YWxfYmluZGluZycsICctaW1hZScsICc8aW5maWxlLm1hZT4nLCAnLW9tYWUnLCAnPG91dGZpbGUubWFlPic=

> <r_lp_tautomer_probability>
1

> <r_epik_Ionization_Penalty>
0.000331107

> <r_epik_Ionization_Penalty_Charging>
0

> <r_epik_Ionization_Penalty_Neutral>
0.000331107

> <r_epik_State_Penalty>
-0

> <r_epik_Charging_Adjusted_Penalty>
0

> <i_epik_Tot_Q>
0

> <i_epik_Tot_abs_Q>
0

> <r_epik_Metal_State_Penalty>
-0

> <b_epik_Metal_Only>
0

> <s_lp_Force_Field>
OPLS_2005

> <r_lp_Energy>
-2.32189

> <b_lp_Chiralities_Consistent>
1

> <s_lp_Variant>
AV-unprocessed.smi:2330-4

> <Gold.Version>
5.8.1

> <Gold.Id.Protein>
6NUR|6NUR_protein|mol2

> <Gold.PLP.Fitness>
39.7973

> <Gold.PLP.PLP>
-32.3167

> <Gold.PLP.part.hbond>
-2.8482

> <Gold.PLP.part.metal>
0.0000

> <Gold.PLP.part.buried>
-2.5019

> <Gold.PLP.part.nonpolar>
-28.7501

> <Gold.PLP.part.repulsive>
0.1805

> <Gold.PLP.ligand.clash>
0.0000

> <Gold.PLP.ligand.torsion>
0.5729

> <Gold.PLP.Chemscore.Hbond>
1.8432

> <Gold.PLP.Chemscore.CHOScore>
0.9934

> <Gold.PLP.Chemscore.Metal>
0.0000

> <Gold.Chemscore.Hbonds>
donor molecule, donor type, donor heavy atom, donor atom, acceptor molecule, acceptor atom, score
      L1  H     6    29       P1  7948  1.00
      L1  H     9    30       P1  7948  0.88
      L1  C    15    37       P1  8028  0.25

> <Gold.PLP.Chemscore.Internal.Correction>
0.1165

> <Gold.Rescore>
     Score         DG    S(hbond)    S(metal)    S(lipo)     H(rot)  DE(clash)    DE(int)     intcor
     14.77     -15.56       1.71        0.00      69.23       1.45       0.04       0.75       ----

> <Gold.Chemscore.Fitness>
14.7667

> <Gold.Chemscore.DG>
-15.5602

> <Gold.Chemscore.ZeroCoef>
-5.4800

> <Gold.Chemscore.Hbond>
1.7070

> <Gold.Chemscore.Metal>
0.0000

> <Gold.Chemscore.Lipo>
69.2295

> <Gold.Chemscore.Internal_Hbond>
0.0000

> <Gold.Chemscore.DEClash>
0.0427

> <Gold.Chemscore.DEInternal>
0.7507

> <Gold.Chemscore.Rot>
1.4536

> <Gold.Chemscore.Internal.Correction>
   9.000000E+99

> <Gold.Chemscore.Hbonds>
donor molecule, donor type, donor heavy atom, donor atom, acceptor molecule, acceptor atom, score
      L1  H     6    29       P1  7948  0.94
      L1  H     9    30       P1  7948  0.25

> <Gold.Chemscore.Hbond.Weighted>
-5.7015

> <Gold.Chemscore.Metal.Weighted>
-0.0000

> <Gold.Chemscore.Lipo.Weighted>
-8.0998

> <Gold.Chemscore.Internal_Hbond.Weighted>
0.0000

> <Gold.Chemscore.DEClash.Weighted>
0.0427

> <Gold.Chemscore.DEInternal.Weighted>
0.7507

> <Gold.Chemscore.Rot.Weighted>
3.7212

> <Gold.Chemscore.Internal.Correction.Weighted>
   9.000000E+99

> <Gold.Protein.RotatedTorsions>
[ 6907 6896 6895 6894 ] final   75.42 input  -60.11 | X-H torsion
[ 7974 7965 7964 7962 ] final   71.40 input  175.53 | X-H torsion
[ 8008 7997 7996 7995 ] final   73.45 input   59.86 | X-H torsion
[ 10167 10162 10161 10158 ] final   18.68 input  -65.29 | X-H torsion
[ 10718 10713 10712 10709 ] final -155.29 input   66.30 | X-H torsion
[ 10763 10752 10751 10750 ] final -171.44 input  -60.55 | X-H torsion
[ 11005 11000 10999 10996 ] final  -72.30 input  -57.11 | X-H torsion

> <Gold.Protein.ActiveResidues>
 VAL166  LYS551  ARG553  GLY616  TRP617  ASP618  TYR619  PRO620  LYS621  CYS622 
 ASP623  PHE694  ASN695  SER759  ASP760  ASP761  ALA762  ILE779  LEU786  VAL792 
 PHE793  MET794  SER795  GLU796  ALA797  LYS798  CYS799  TRP800  GLU811  SER814 

> <Gold.Protein.RotatedAtoms>
  152.5025  134.4123  159.9452 H   0  0  0  0  0  0  0  0  0  0  0  0  # atno 6907 bound_to 6896
  151.4092  133.3727  159.2749 H   0  0  0  0  0  0  0  0  0  0  0  0  # atno 6908 bound_to 6896
  150.9304  134.8741  159.7607 H   0  0  0  0  0  0  0  0  0  0  0  0  # atno 6909 bound_to 6896
  145.7662  139.2822  143.1347 H   0  0  0  0  0  0  0  0  0  0  0  0  # atno 7974 bound_to 7965
  155.7839  140.3481  155.5312 H   0  0  0  0  0  0  0  0  0  0  0  0  # atno 8008 bound_to 7997
  155.8701  140.0985  157.1576 H   0  0  0  0  0  0  0  0  0  0  0  0  # atno 8009 bound_to 7997
  154.4017  140.1342  156.4055 H   0  0  0  0  0  0  0  0  0  0  0  0  # atno 8010 bound_to 7997
  140.5635  143.9294  150.6659 H   0  0  0  0  0  0  0  0  0  0  0  0  # atno 10167 bound_to 10162
  156.5108  130.8434  151.2646 H   0  0  0  0  0  0  0  0  0  0  0  0  # atno 10718 bound_to 10713
  154.6304  135.2886  155.0223 H   0  0  0  0  0  0  0  0  0  0  0  0  # atno 10763 bound_to 10752
  154.1385  135.6522  153.4941 H   0  0  0  0  0  0  0  0  0  0  0  0  # atno 10764 bound_to 10752
  153.0277  135.5327  154.7129 H   0  0  0  0  0  0  0  0  0  0  0  0  # atno 10765 bound_to 10752
  141.1606  133.6843  156.7038 H   0  0  0  0  0  0  0  0  0  0  0  0  # atno 11005 bound_to 11000
  146.0215  140.8343  142.9921 LP  0  0  0  0  0  0  0  0  0  0  0  0  # atno 17320 bound_to 7965
  144.6821  140.2636  143.7315 LP  0  0  0  0  0  0  0  0  0  0  0  0  # atno 17321 bound_to 7965
  140.2751  143.3429  152.1203 LP  0  0  0  0  0  0  0  0  0  0  0  0  # atno 17342 bound_to 10162
  139.5081  144.6844  151.5924 LP  0  0  0  0  0  0  0  0  0  0  0  0  # atno 17343 bound_to 10162
  157.7451  130.9950  150.2728 LP  0  0  0  0  0  0  0  0  0  0  0  0  # atno 17370 bound_to 10713
  156.3242  130.3790  149.7548 LP  0  0  0  0  0  0  0  0  0  0  0  0  # atno 17371 bound_to 10713
  140.2938  134.8219  157.4040 LP  0  0  0  0  0  0  0  0  0  0  0  0  # atno 17394 bound_to 11000
  140.1323  134.5080  155.8096 LP  0  0  0  0  0  0  0  0  0  0  0  0  # atno 17395 bound_to 11000

$$$$
