AV-unprocessed.smi:438|AV-procd|sdf|2568|dock2
  -GOLD-   2262022543D 1   1.00000     0.00000
 Structure written by MMmdl.
 48 49  0  0  0  0  0  0  0  0  1 V2000
  151.0395  137.9541  159.1814 C   0  0  0  0  0  0  0  0  0  0  0  0
  150.9713  138.1711  157.6803 C   0  0  0  0  0  0  0  0  0  0  0  0
  150.2630  139.2947  157.2949 N   0  0  0  0  0  0  0  0  0  0  0  0
  150.1943  139.6163  155.9484 C   0  0  0  0  0  0  0  0  0  0  0  0
  149.2941  141.1831  155.7319 S   0  0  0  0  0  0  0  0  0  0  0  0
  149.4752  141.9778  157.3581 C   0  0  0  0  0  0  0  0  0  0  0  0
  150.8497  142.6222  157.5342 C   0  0  0  0  0  0  0  0  0  0  0  0
  151.2800  143.3964  156.6800 O   0  0  0  0  0  0  0  0  0  0  0  0
  151.5148  142.3161  158.6584 N   0  0  0  0  0  0  0  0  0  0  0  0
  152.7868  142.8985  159.0843 C   0  0  1  0  0  0  0  0  0  0  0  0
  152.6688  144.4342  159.2061 C   0  0  0  0  0  0  0  0  0  0  0  0
  151.7813  144.8566  160.3897 C   0  0  0  0  0  0  0  0  0  0  0  0
  152.2844  144.2412  161.7031 C   0  0  0  0  0  0  0  0  0  0  0  0
  152.3885  142.7113  161.6014 C   0  0  0  0  0  0  0  0  0  0  0  0
  153.2728  142.2728  160.4156 C   0  0  1  0  0  0  0  0  0  0  0  0
  153.3975  140.7411  160.3440 C   0  0  0  0  0  0  0  0  0  0  0  0
  150.7176  138.8860  155.0081 N   0  0  0  0  0  0  0  0  0  0  0  0
  151.4047  137.7072  155.3326 C   0  0  0  0  0  0  0  0  0  0  0  0
  151.8717  136.9930  154.4465 O   0  0  0  0  0  0  0  0  0  0  0  0
  151.5572  137.3654  156.7621 C   0  0  0  0  0  0  0  0  0  0  0  0
  152.3562  136.1185  157.1296 C   0  0  0  0  0  0  0  0  0  0  0  0
  153.6517  136.4640  157.8783 C   0  0  0  0  0  0  0  0  0  0  0  0
  154.7214  136.5629  156.9640 O   0  0  0  0  0  0  0  0  0  0  0  0
  152.0778  137.8996  159.5100 H   0  0  0  0  0  0  0  0  0  0  0  0
  150.5407  137.0237  159.4540 H   0  0  0  0  0  0  0  0  0  0  0  0
  150.5567  138.7651  159.7281 H   0  0  0  0  0  0  0  0  0  0  0  0
  149.3539  141.2104  158.1231 H   0  0  0  0  0  0  0  0  0  0  0  0
  148.6799  142.7054  157.5239 H   0  0  0  0  0  0  0  0  0  0  0  0
  151.0783  141.6693  159.2997 H   0  0  0  0  0  0  0  0  0  0  0  0
  153.5338  142.6738  158.3208 H   0  0  0  0  0  0  0  0  0  0  0  0
  153.6648  144.8579  159.3406 H   0  0  0  0  0  0  0  0  0  0  0  0
  152.2833  144.8635  158.2806 H   0  0  0  0  0  0  0  0  0  0  0  0
  151.7654  145.9435  160.4722 H   0  0  0  0  0  0  0  0  0  0  0  0
  150.7508  144.5491  160.2105 H   0  0  0  0  0  0  0  0  0  0  0  0
  153.2621  144.6571  161.9493 H   0  0  0  0  0  0  0  0  0  0  0  0
  151.6179  144.5154  162.5205 H   0  0  0  0  0  0  0  0  0  0  0  0
  152.7906  142.3127  162.5333 H   0  0  0  0  0  0  0  0  0  0  0  0
  151.3920  142.2849  161.4933 H   0  0  0  0  0  0  0  0  0  0  0  0
  154.2754  142.6607  160.6024 H   0  0  0  0  0  0  0  0  0  0  0  0
  152.4264  140.2619  160.2165 H   0  0  0  0  0  0  0  0  0  0  0  0
  153.8412  140.3434  161.2569 H   0  0  0  0  0  0  0  0  0  0  0  0
  154.0314  140.4371  159.5111 H   0  0  0  0  0  0  0  0  0  0  0  0
  149.8532  139.8696  158.0172 H   0  0  0  0  0  0  0  0  0  0  0  0
  152.5833  135.5530  156.2244 H   0  0  0  0  0  0  0  0  0  0  0  0
  151.7514  135.4497  157.7415 H   0  0  0  0  0  0  0  0  0  0  0  0
  153.5535  137.4124  158.4069 H   0  0  0  0  0  0  0  0  0  0  0  0
  153.8853  135.6990  158.6197 H   0  0  0  0  0  0  0  0  0  0  0  0
  154.9038  137.4776  156.8115 H   0  0  0  0  0  0  0  0  0  0  0  0
  1 24  1  0  0  0  0
  1 25  1  0  0  0  0
  1 26  1  0  0  0  0
  1  2  1  0  0  0  0
  2 20  2  0  0  0  0
  2  3  1  0  0  0  0
  3  4  1  0  0  0  0
  3 43  1  0  0  0  0
  4  5  1  0  0  0  0
  4 17  2  0  0  0  0
  5  6  1  0  0  0  0
  6  7  1  0  0  0  0
  6 27  1  0  0  0  0
  6 28  1  0  0  0  0
  7  8  2  0  0  0  0
  7  9  1  0  0  0  0
  9 10  1  0  0  0  0
  9 29  1  0  0  0  0
 10 15  1  0  0  0  0
 10 11  1  0  0  0  0
 10 30  1  0  0  0  0
 11 12  1  0  0  0  0
 11 31  1  0  0  0  0
 11 32  1  0  0  0  0
 12 13  1  0  0  0  0
 12 33  1  0  0  0  0
 12 34  1  0  0  0  0
 13 14  1  0  0  0  0
 13 35  1  0  0  0  0
 13 36  1  0  0  0  0
 14 15  1  0  0  0  0
 14 37  1  0  0  0  0
 14 38  1  0  0  0  0
 15 16  1  0  0  0  0
 15 39  1  0  0  0  0
 16 40  1  0  0  0  0
 16 41  1  0  0  0  0
 16 42  1  0  0  0  0
 17 18  1  0  0  0  0
 18 19  2  0  0  0  0
 18 20  1  0  0  0  0
 20 21  1  0  0  0  0
 21 22  1  0  0  0  0
 21 44  1  0  0  0  0
 21 45  1  0  0  0  0
 22 23  1  0  0  0  0
 22 46  1  0  0  0  0
 22 47  1  0  0  0  0
 23 48  1  0  0  0  0
M  END
> <s_m_source_file>
AV-unprocessed.smi

> <i_m_source_file_index>
438

> <i_lp_mmshare_version>
43012

> <i_f3d_flags>
0

> <s_epik_input>
W09IXVtDSDJdW0NIMl1jMWMoW09IXSluYyhuYzFbQ0gzXSlTW0NIMl1DKD1PKVtOSF1bQ0BASF0yW0NIMl1bQ0gyXVtDSDJdW0NIMl1bQ0BIXTJbQ0gzXQ==

> <s_epik_cmdline>
J2VwaWtfcHl0aG9uJywgJy1waCcsICc3LjAnLCAnLXRuJywgJzgnLCAnLW1hJywgJzIwMCcsICctbWV0YWxfYmluZGluZycsICctaW1hZScsICc8aW5maWxlLm1hZT4nLCAnLW9tYWUnLCAnPG91dGZpbGUubWFlPic=

> <r_lp_tautomer_probability>
0.273662

> <r_epik_Ionization_Penalty>
0.0875285

> <r_epik_Ionization_Penalty_Charging>
0.0875254

> <r_epik_Ionization_Penalty_Neutral>
3.01536e-06

> <r_epik_State_Penalty>
0.985796

> <r_epik_Charging_Adjusted_Penalty>
1.07332

> <i_epik_Tot_Q>
0

> <i_epik_Tot_abs_Q>
0

> <r_epik_Metal_State_Penalty>
1.58101

> <b_epik_Metal_Only>
0

> <s_lp_Force_Field>
OPLS_2005

> <r_lp_Energy>
13.0189

> <b_lp_Chiralities_Consistent>
1

> <s_lp_Variant>
AV-unprocessed.smi:438-6

> <Gold.Version>
5.8.1

> <Gold.Id.Protein>
6NUR|6NUR_protein|mol2

> <Gold.PLP.Fitness>
44.7909

> <Gold.PLP.PLP>
-40.2771

> <Gold.PLP.part.hbond>
-2.0000

> <Gold.PLP.part.metal>
0.0000

> <Gold.PLP.part.buried>
-5.5837

> <Gold.PLP.part.nonpolar>
-33.5277

> <Gold.PLP.part.repulsive>
1.4205

> <Gold.PLP.ligand.clash>
0.0000

> <Gold.PLP.ligand.torsion>
0.7591

> <Gold.PLP.Chemscore.Hbond>
2.0000

> <Gold.PLP.Chemscore.CHOScore>
0.0000

> <Gold.PLP.Chemscore.Metal>
0.0000

> <Gold.Chemscore.Hbonds>
donor molecule, donor type, donor heavy atom, donor atom, acceptor molecule, acceptor atom, score
      P1  H 10752 10764       L1    19  1.00
      P1  H 10752 10765       L1    23  0.84

> <Gold.PLP.Chemscore.Internal.Correction>
0.0320

> <Gold.Rescore>
     Score         DG    S(hbond)    S(metal)    S(lipo)     H(rot)  DE(clash)    DE(int)     intcor
     15.77     -17.44       1.88        0.00     111.36       2.86       0.89       0.79       ----

> <Gold.Chemscore.Fitness>
15.7655

> <Gold.Chemscore.DG>
-17.4411

> <Gold.Chemscore.ZeroCoef>
-5.4800

> <Gold.Chemscore.Hbond>
1.8759

> <Gold.Chemscore.Metal>
0.0000

> <Gold.Chemscore.Lipo>
111.3554

> <Gold.Chemscore.Internal_Hbond>
0.0000

> <Gold.Chemscore.DEClash>
0.8884

> <Gold.Chemscore.DEInternal>
0.7872

> <Gold.Chemscore.Rot>
2.8645

> <Gold.Chemscore.Internal.Correction>
   9.000000E+99

> <Gold.Chemscore.Hbonds>
donor molecule, donor type, donor heavy atom, donor atom, acceptor molecule, acceptor atom, score
      P1  H 10752 10764       L1    19  0.96
      P1  H 10752 10765       L1    23  0.38

> <Gold.Chemscore.Hbond.Weighted>
-6.2656

> <Gold.Chemscore.Metal.Weighted>
-0.0000

> <Gold.Chemscore.Lipo.Weighted>
-13.0286

> <Gold.Chemscore.Internal_Hbond.Weighted>
0.0000

> <Gold.Chemscore.DEClash.Weighted>
0.8884

> <Gold.Chemscore.DEInternal.Weighted>
0.7872

> <Gold.Chemscore.Rot.Weighted>
7.3331

> <Gold.Chemscore.Internal.Correction.Weighted>
   9.000000E+99

> <Gold.Protein.RotatedTorsions>
[ 6907 6896 6895 6894 ] final -161.37 input  -60.11 | X-H torsion
[ 7974 7965 7964 7962 ] final  -17.26 input  175.53 | X-H torsion
[ 8008 7997 7996 7995 ] final -139.35 input   59.86 | X-H torsion
[ 10167 10162 10161 10158 ] final -151.90 input  -65.29 | X-H torsion
[ 10718 10713 10712 10709 ] final -131.40 input   66.30 | X-H torsion
[ 10763 10752 10751 10750 ] final  -84.17 input  -60.55 | X-H torsion
[ 11005 11000 10999 10996 ] final  -26.23 input  -57.11 | X-H torsion

> <Gold.Protein.ActiveResidues>
 VAL166  LYS551  ARG553  GLY616  TRP617  ASP618  TYR619  PRO620  LYS621  CYS622 
 ASP623  PHE694  ASN695  SER759  ASP760  ASP761  ALA762  ILE779  LEU786  VAL792 
 PHE793  MET794  SER795  GLU796  ALA797  LYS798  CYS799  TRP800  GLU811  SER814 

> <Gold.Protein.RotatedAtoms>
  151.3637  133.3880  159.2692 H   0  0  0  0  0  0  0  0  0  0  0  0  # atno 6907 bound_to 6896
  150.9705  134.9080  159.7796 H   0  0  0  0  0  0  0  0  0  0  0  0  # atno 6908 bound_to 6896
  152.5183  134.3598  159.9333 H   0  0  0  0  0  0  0  0  0  0  0  0  # atno 6909 bound_to 6896
  146.1949  140.3754  142.8444 H   0  0  0  0  0  0  0  0  0  0  0  0  # atno 7974 bound_to 7965
  155.4434  140.0533  157.3008 H   0  0  0  0  0  0  0  0  0  0  0  0  # atno 8008 bound_to 7997
  154.4808  140.2080  155.9725 H   0  0  0  0  0  0  0  0  0  0  0  0  # atno 8009 bound_to 7997
  156.1203  140.3189  155.8203 H   0  0  0  0  0  0  0  0  0  0  0  0  # atno 8010 bound_to 7997
  139.7228  143.8931  152.2509 H   0  0  0  0  0  0  0  0  0  0  0  0  # atno 10167 bound_to 10162
  156.2240  130.6996  151.0787 H   0  0  0  0  0  0  0  0  0  0  0  0  # atno 10718 bound_to 10713
  154.5964  135.5530  153.7329 H   0  0  0  0  0  0  0  0  0  0  0  0  # atno 10763 bound_to 10752
  153.0137  135.6355  154.1777 H   0  0  0  0  0  0  0  0  0  0  0  0  # atno 10764 bound_to 10752
  154.1717  135.2891  155.3059 H   0  0  0  0  0  0  0  0  0  0  0  0  # atno 10765 bound_to 10752
  140.9010  133.7524  156.0544 H   0  0  0  0  0  0  0  0  0  0  0  0  # atno 11005 bound_to 11000
  144.8560  140.7071  143.6137 LP  0  0  0  0  0  0  0  0  0  0  0  0  # atno 17320 bound_to 7965
  145.3675  139.1666  143.4350 LP  0  0  0  0  0  0  0  0  0  0  0  0  # atno 17321 bound_to 7965
  139.8831  144.7006  150.8855 LP  0  0  0  0  0  0  0  0  0  0  0  0  # atno 17342 bound_to 10162
  140.7757  143.3645  151.1765 LP  0  0  0  0  0  0  0  0  0  0  0  0  # atno 17343 bound_to 10162
  157.7101  131.0738  150.6530 LP  0  0  0  0  0  0  0  0  0  0  0  0  # atno 17370 bound_to 10713
  156.6594  130.4508  149.5693 LP  0  0  0  0  0  0  0  0  0  0  0  0  # atno 17371 bound_to 10713
  140.8229  134.3268  157.5375 LP  0  0  0  0  0  0  0  0  0  0  0  0  # atno 17394 bound_to 11000
  139.8742  134.9320  156.3542 LP  0  0  0  0  0  0  0  0  0  0  0  0  # atno 17395 bound_to 11000

$$$$
