AV-unprocessed.smi:1219|AV-procd|sdf|5112|dock3
  -GOLD-   22720 4163D 1   1.00000     0.00000
 Structure written by MMmdl.
 43 44  0  0  0  0  0  0  0  0  2 V2000
  147.7300  137.6238  154.4341 O   0  0  0  0  0  0  0  0  0  0  0  0
  148.1919  138.3042  153.5179 C   0  0  0  0  0  0  0  0  0  0  0  0
  147.5073  138.6012  152.4042 N   0  0  0  0  0  0  0  0  0  0  0  0
  146.1552  138.1416  152.1034 C   0  0  0  0  0  0  0  0  0  0  0  0
  146.1517  136.8296  151.2904 C   0  0  2  0  0  0  0  0  0  0  0  0
  145.9751  137.1494  149.9242 O   0  0  0  0  0  0  0  0  0  0  0  0
  144.9734  135.9201  151.6959 C   0  0  0  0  0  0  0  0  0  0  0  0
  144.9714  134.6224  150.9720 N   0  3  0  0  0  0  0  0  0  0  0  0
  143.8131  133.7711  151.3493 C   0  0  0  0  0  0  0  0  0  0  0  0
  143.7499  132.5010  150.4845 C   0  0  0  0  0  0  0  0  0  0  0  0
  145.0595  131.7076  150.5759 C   0  0  0  0  0  0  0  0  0  0  0  0
  146.2450  132.6123  150.2161 C   0  0  0  0  0  0  0  0  0  0  0  0
  146.2560  133.8804  151.0864 C   0  0  0  0  0  0  0  0  0  0  0  0
  149.4239  138.8423  153.4913 N   0  0  0  0  0  0  0  0  0  0  0  0
  150.4495  138.7347  154.4681 C   0  0  0  0  0  0  0  0  0  0  0  0
  150.5771  137.4596  155.0640 C   0  0  0  0  0  0  0  0  0  0  0  0
  151.5619  137.2505  156.0489 C   0  0  0  0  0  0  0  0  0  0  0  0
  152.3958  138.3228  156.4120 C   0  0  0  0  0  0  0  0  0  0  0  0
  152.2041  139.5591  155.7684 C   0  0  0  0  0  0  0  0  0  0  0  0
  151.2605  139.7620  154.8246 N   0  0  0  0  0  0  0  0  0  0  0  0
  147.9631  139.1657  151.7022 H   0  0  0  0  0  0  0  0  0  0  0  0
  145.6814  137.9702  153.0701 H   0  0  0  0  0  0  0  0  0  0  0  0
  145.5670  138.9220  151.6166 H   0  0  0  0  0  0  0  0  0  0  0  0
  147.1010  136.3114  151.4241 H   0  0  0  0  0  0  0  0  0  0  0  0
  145.0823  137.4363  149.7955 H   0  0  0  0  0  0  0  0  0  0  0  0
  144.9857  135.7286  152.7700 H   0  0  0  0  0  0  0  0  0  0  0  0
  144.0433  136.4551  151.4960 H   0  0  0  0  0  0  0  0  0  0  0  0
  143.8840  133.5061  152.4055 H   0  0  0  0  0  0  0  0  0  0  0  0
  142.8861  134.3320  151.2242 H   0  0  0  0  0  0  0  0  0  0  0  0
  142.9136  131.8764  150.7996 H   0  0  0  0  0  0  0  0  0  0  0  0
  143.5579  132.7747  149.4461 H   0  0  0  0  0  0  0  0  0  0  0  0
  145.1857  131.3171  151.5866 H   0  0  0  0  0  0  0  0  0  0  0  0
  145.0260  130.8453  149.9092 H   0  0  0  0  0  0  0  0  0  0  0  0
  147.1804  132.0660  150.3410 H   0  0  0  0  0  0  0  0  0  0  0  0
  146.1879  132.8912  149.1631 H   0  0  0  0  0  0  0  0  0  0  0  0
  147.0893  134.5107  150.7782 H   0  0  0  0  0  0  0  0  0  0  0  0
  146.4319  133.6151  152.1302 H   0  0  0  0  0  0  0  0  0  0  0  0
  149.6628  139.3780  152.6702 H   0  0  0  0  0  0  0  0  0  0  0  0
  149.9274  136.6465  154.7739 H   0  0  0  0  0  0  0  0  0  0  0  0
  151.6741  136.2841  156.5177 H   0  0  0  0  0  0  0  0  0  0  0  0
  153.1620  138.2013  157.1634 H   0  0  0  0  0  0  0  0  0  0  0  0
  152.8228  140.4083  156.0184 H   0  0  0  0  0  0  0  0  0  0  0  0
  144.8459  134.8498  149.9953 H   0  0  0  0  0  0  0  0  0  0  0  0
  1  2  2  0  0  0  0
  2  3  1  0  0  0  0
  2 14  1  0  0  0  0
  3  4  1  0  0  0  0
  3 21  1  0  0  0  0
  4  5  1  0  0  0  0
  4 22  1  0  0  0  0
  4 23  1  0  0  0  0
  5  6  1  0  0  0  0
  5  7  1  0  0  0  0
  5 24  1  0  0  0  0
  6 25  1  0  0  0  0
  7  8  1  0  0  0  0
  7 26  1  0  0  0  0
  7 27  1  0  0  0  0
  8 13  1  0  0  0  0
  8  9  1  0  0  0  0
  8 43  1  0  0  0  0
  9 10  1  0  0  0  0
  9 28  1  0  0  0  0
  9 29  1  0  0  0  0
 10 11  1  0  0  0  0
 10 30  1  0  0  0  0
 10 31  1  0  0  0  0
 11 12  1  0  0  0  0
 11 32  1  0  0  0  0
 11 33  1  0  0  0  0
 12 13  1  0  0  0  0
 12 34  1  0  0  0  0
 12 35  1  0  0  0  0
 13 36  1  0  0  0  0
 13 37  1  0  0  0  0
 14 15  1  0  0  0  0
 14 38  1  0  0  0  0
 15 20  1  0  0  0  0
 15 16  2  0  0  0  0
 16 17  1  0  0  0  0
 16 39  1  0  0  0  0
 17 18  2  0  0  0  0
 17 40  1  0  0  0  0
 18 19  1  0  0  0  0
 18 41  1  0  0  0  0
 19 20  2  0  0  0  0
 19 42  1  0  0  0  0
M  CHG  1   8   1
M  END
> <s_m_source_file>
AV-unprocessed.smi

> <i_m_source_file_index>
1219

> <i_lp_mmshare_version>
43012

> <i_f3d_flags>
0

> <s_epik_input>
bjFbY0hdW2NIXVtjSF1bY0hdYzFbTkhdQyg9TylbTkhdW0NIMl1bQ0BIXShbT0hdKVtDSDJdTjJbQ0gyXVtDSDJdW0NIMl1bQ0gyXVtDSDJdMg==

> <s_epik_cmdline>
J2VwaWtfcHl0aG9uJywgJy1waCcsICc3LjAnLCAnLXRuJywgJzgnLCAnLW1hJywgJzIwMCcsICctbWV0YWxfYmluZGluZycsICctaW1hZScsICc8aW5maWxlLm1hZT4nLCAnLW9tYWUnLCAnPG91dGZpbGUubWFlPic=

> <r_epik_Ionization_Penalty>
0.00510026

> <r_epik_Ionization_Penalty_Charging>
0.00506051

> <r_epik_Ionization_Penalty_Neutral>
3.97538e-05

> <r_epik_State_Penalty>
0.00368188

> <r_epik_Charging_Adjusted_Penalty>
0.0087424

> <i_epik_Tot_Q>
1

> <i_epik_Tot_abs_Q>
1

> <r_epik_Metal_State_Penalty>
-0

> <b_epik_Metal_Only>
0

> <s_lp_Force_Field>
OPLS_2005

> <r_lp_Energy>
20.5821

> <b_lp_Chiralities_Consistent>
1

> <s_lp_Variant>
AV-unprocessed.smi:1219-1

> <Gold.Version>
5.8.1

> <Gold.Id.Protein>
6NUR|6NUR_protein|mol2

> <Gold.PLP.Fitness>
48.0059

> <Gold.PLP.PLP>
-37.9576

> <Gold.PLP.part.hbond>
-6.4469

> <Gold.PLP.part.metal>
0.0000

> <Gold.PLP.part.buried>
-0.5784

> <Gold.PLP.part.nonpolar>
-32.3739

> <Gold.PLP.part.repulsive>
0.4051

> <Gold.PLP.ligand.clash>
0.0000

> <Gold.PLP.ligand.torsion>
1.0106

> <Gold.PLP.Chemscore.Hbond>
3.9797

> <Gold.PLP.Chemscore.CHOScore>
0.0000

> <Gold.PLP.Chemscore.Metal>
0.0000

> <Gold.Chemscore.Hbonds>
donor molecule, donor type, donor heavy atom, donor atom, acceptor molecule, acceptor atom, score
      L1  H     3    21       P1  7957  0.94
      L1  H     6    25       P1 10171  1.00
      L1  H    14    38       P1  7957  1.00
      P1  H  7954  7966       L1     6  0.09
      P1  H  7989  7998       L1    20  1.00

> <Gold.PLP.Chemscore.Internal.Correction>
0.1303

> <Gold.Rescore>
     Score         DG    S(hbond)    S(metal)    S(lipo)     H(rot)  DE(clash)    DE(int)     intcor
     18.01     -21.20       3.74        0.00      80.28       2.41       0.94       2.25       ----

> <Gold.Chemscore.Fitness>
18.0147

> <Gold.Chemscore.DG>
-21.2004

> <Gold.Chemscore.ZeroCoef>
-5.4800

> <Gold.Chemscore.Hbond>
3.7393

> <Gold.Chemscore.Metal>
0.0000

> <Gold.Chemscore.Lipo>
80.2776

> <Gold.Chemscore.Internal_Hbond>
0.0000

> <Gold.Chemscore.DEClash>
0.9400

> <Gold.Chemscore.DEInternal>
2.2457

> <Gold.Chemscore.Rot>
2.4067

> <Gold.Chemscore.Internal.Correction>
   9.000000E+99

> <Gold.Chemscore.Hbonds>
donor molecule, donor type, donor heavy atom, donor atom, acceptor molecule, acceptor atom, score
      L1  H     3    21       P1  7957  0.88
      L1  H     6    25       P1 10171  0.97
      L1  H    14    38       P1  7957  0.99
      P1  H  7989  7998       L1    20  0.84

> <Gold.Chemscore.Hbond.Weighted>
-12.4891

> <Gold.Chemscore.Metal.Weighted>
-0.0000

> <Gold.Chemscore.Lipo.Weighted>
-9.3925

> <Gold.Chemscore.Internal_Hbond.Weighted>
0.0000

> <Gold.Chemscore.DEClash.Weighted>
0.9400

> <Gold.Chemscore.DEInternal.Weighted>
2.2457

> <Gold.Chemscore.Rot.Weighted>
6.1612

> <Gold.Chemscore.Internal.Correction.Weighted>
   9.000000E+99

> <Gold.Protein.RotatedTorsions>
[ 6907 6896 6895 6894 ] final  168.62 input  -60.11 | X-H torsion
[ 7974 7965 7964 7962 ] final  136.16 input  175.53 | X-H torsion
[ 8008 7997 7996 7995 ] final  115.40 input   59.86 | X-H torsion
[ 10167 10162 10161 10158 ] final -141.68 input  -65.29 | X-H torsion
[ 10718 10713 10712 10709 ] final -177.45 input   66.30 | X-H torsion
[ 10763 10752 10751 10750 ] final -151.90 input  -60.55 | X-H torsion
[ 11005 11000 10999 10996 ] final   45.72 input  -57.11 | X-H torsion

> <Gold.Protein.ActiveResidues>
 VAL166  LYS551  ARG553  GLY616  TRP617  ASP618  TYR619  PRO620  LYS621  CYS622 
 ASP623  PHE694  ASN695  SER759  ASP760  ASP761  ALA762  ILE779  LEU786  VAL792 
 PHE793  MET794  SER795  GLU796  ALA797  LYS798  CYS799  TRP800  GLU811  SER814 

> <Gold.Protein.RotatedAtoms>
  151.8447  133.3429  159.3654 H   0  0  0  0  0  0  0  0  0  0  0  0  # atno 6907 bound_to 6896
  150.7224  134.5357  159.5731 H   0  0  0  0  0  0  0  0  0  0  0  0  # atno 6908 bound_to 6896
  152.2838  134.7800  160.0442 H   0  0  0  0  0  0  0  0  0  0  0  0  # atno 6909 bound_to 6896
  144.9592  139.4729  143.5488 H   0  0  0  0  0  0  0  0  0  0  0  0  # atno 7974 bound_to 7965
  156.2379  140.2939  156.0364 H   0  0  0  0  0  0  0  0  0  0  0  0  # atno 8008 bound_to 7997
  155.2037  140.0410  157.2939 H   0  0  0  0  0  0  0  0  0  0  0  0  # atno 8009 bound_to 7997
  154.6113  140.2452  155.7672 H   0  0  0  0  0  0  0  0  0  0  0  0  # atno 8010 bound_to 7997
  139.8161  143.7637  152.2665 H   0  0  0  0  0  0  0  0  0  0  0  0  # atno 10167 bound_to 10162
  156.8297  130.9649  151.3107 H   0  0  0  0  0  0  0  0  0  0  0  0  # atno 10718 bound_to 10713
  154.8028  135.3249  154.7506 H   0  0  0  0  0  0  0  0  0  0  0  0  # atno 10763 bound_to 10752
  153.8171  135.6891  153.4837 H   0  0  0  0  0  0  0  0  0  0  0  0  # atno 10764 bound_to 10752
  153.1755  135.4606  154.9903 H   0  0  0  0  0  0  0  0  0  0  0  0  # atno 10765 bound_to 10752
  140.1433  134.4554  155.8433 H   0  0  0  0  0  0  0  0  0  0  0  0  # atno 11005 bound_to 11000
  146.3347  139.8731  142.8836 LP  0  0  0  0  0  0  0  0  0  0  0  0  # atno 17320 bound_to 7965
  145.2725  141.0113  143.3764 LP  0  0  0  0  0  0  0  0  0  0  0  0  # atno 17321 bound_to 7965
  139.7801  144.7447  151.0101 LP  0  0  0  0  0  0  0  0  0  0  0  0  # atno 17342 bound_to 10162
  140.7815  143.4552  151.0356 LP  0  0  0  0  0  0  0  0  0  0  0  0  # atno 17343 bound_to 10162
  157.6413  130.8808  149.9454 LP  0  0  0  0  0  0  0  0  0  0  0  0  # atno 17370 bound_to 10713
  156.0941  130.3661  150.0339 LP  0  0  0  0  0  0  0  0  0  0  0  0  # atno 17371 bound_to 10713
  141.2189  133.6842  156.7288 LP  0  0  0  0  0  0  0  0  0  0  0  0  # atno 17394 bound_to 11000
  140.2694  134.8404  157.3833 LP  0  0  0  0  0  0  0  0  0  0  0  0  # atno 17395 bound_to 11000

$$$$
