AV-unprocessed.smi:213|AV-procd|sdf|1633|dock3
  -GOLD-   2262019593D 1   1.00000     0.00000
 Structure written by MMmdl.
 59 62  0  0  0  0  0  0  0  0  2 V2000
  148.5939  132.6478  156.3245 C   0  0  0  0  0  0  0  0  0  0  0  0
  148.9762  133.9510  155.6039 C   0  0  2  0  0  0  0  0  0  0  0  0
  149.1404  133.7229  154.0808 C   0  0  0  0  0  0  0  0  0  0  0  0
  147.9572  134.1586  153.2955 N   0  3  0  0  0  0  0  0  0  0  0  0
  147.4106  133.0928  152.4257 C   0  0  0  0  0  0  0  0  0  0  0  0
  146.2593  133.6493  151.5710 C   0  0  0  0  0  0  0  0  0  0  0  0
  145.2535  134.1917  152.4182 O   0  0  0  0  0  0  0  0  0  0  0  0
  145.7439  135.2680  153.2089 C   0  0  0  0  0  0  0  0  0  0  0  0
  146.8795  134.7649  154.1153 C   0  0  0  0  0  0  0  0  0  0  0  0
  150.1574  134.5794  156.2169 N   0  0  0  0  0  0  0  0  0  0  0  0
  151.3486  133.7700  156.4742 C   0  0  0  0  0  0  0  0  0  0  0  0
  150.3635  135.8897  155.9181 C   0  0  0  0  0  0  0  0  0  0  0  0
  150.7898  136.2297  154.6713 N   0  0  0  0  0  0  0  0  0  0  0  0
  150.9373  137.5132  154.3323 C   0  0  0  0  0  0  0  0  0  0  0  0
  150.7076  138.6003  155.0695 N   0  0  0  0  0  0  0  0  0  0  0  0
  150.2946  138.2686  156.3257 C   0  0  0  0  0  0  0  0  0  0  0  0
  150.1038  136.9516  156.8310 C   0  0  0  0  0  0  0  0  0  0  0  0
  149.6819  137.0119  158.1543 N   0  0  0  0  0  0  0  0  0  0  0  0
  149.6170  138.2894  158.4129 C   0  0  0  0  0  0  0  0  0  0  0  0
  149.9561  139.1152  157.3660 N   0  0  0  0  0  0  0  0  0  0  0  0
  149.9546  140.5683  157.3708 C   0  0  0  0  0  0  0  0  0  0  0  0
  151.2891  141.1592  157.8763 C   0  0  2  0  0  0  0  0  0  0  0  0
  151.5804  140.5862  159.1375 O   0  0  0  0  0  0  0  0  0  0  0  0
  151.2449  142.6905  158.0520 C   0  0  2  0  0  0  0  0  0  0  0  0
  152.5409  143.3178  158.5673 C   0  0  0  0  0  0  0  0  0  0  0  0
  152.0743  144.6310  159.1696 C   0  0  0  0  0  0  0  0  0  0  0  0
  150.5957  144.3833  159.4776 C   0  0  0  0  0  0  0  0  0  0  0  0
  150.3491  143.0346  159.0992 O   0  0  0  0  0  0  0  0  0  0  0  0
  147.6481  132.2598  155.9455 H   0  0  0  0  0  0  0  0  0  0  0  0
  148.4730  132.8132  157.3955 H   0  0  0  0  0  0  0  0  0  0  0  0
  149.3419  131.8670  156.1864 H   0  0  0  0  0  0  0  0  0  0  0  0
  148.1194  134.6075  155.7392 H   0  0  0  0  0  0  0  0  0  0  0  0
  150.0196  134.2712  153.7396 H   0  0  0  0  0  0  0  0  0  0  0  0
  149.3425  132.6714  153.8712 H   0  0  0  0  0  0  0  0  0  0  0  0
  148.1953  132.7069  151.7740 H   0  0  0  0  0  0  0  0  0  0  0  0
  147.0603  132.2608  153.0385 H   0  0  0  0  0  0  0  0  0  0  0  0
  146.6216  134.4142  150.8818 H   0  0  0  0  0  0  0  0  0  0  0  0
  145.8216  132.8555  150.9655 H   0  0  0  0  0  0  0  0  0  0  0  0
  146.0880  136.0806  152.5674 H   0  0  0  0  0  0  0  0  0  0  0  0
  144.9282  135.6653  153.8130 H   0  0  0  0  0  0  0  0  0  0  0  0
  146.4960  134.0274  154.8220 H   0  0  0  0  0  0  0  0  0  0  0  0
  147.2642  135.5982  154.7017 H   0  0  0  0  0  0  0  0  0  0  0  0
  152.0576  134.3113  157.1020 H   0  0  0  0  0  0  0  0  0  0  0  0
  151.8495  133.5045  155.5429 H   0  0  0  0  0  0  0  0  0  0  0  0
  151.0950  132.8496  156.9986 H   0  0  0  0  0  0  0  0  0  0  0  0
  151.2778  137.6958  153.3237 H   0  0  0  0  0  0  0  0  0  0  0  0
  149.3095  138.6675  159.3774 H   0  0  0  0  0  0  0  0  0  0  0  0
  149.7454  140.9042  156.3548 H   0  0  0  0  0  0  0  0  0  0  0  0
  149.1273  140.9176  157.9900 H   0  0  0  0  0  0  0  0  0  0  0  0
  152.0850  140.8927  157.1794 H   0  0  0  0  0  0  0  0  0  0  0  0
  151.6645  141.2839  159.7685 H   0  0  0  0  0  0  0  0  0  0  0  0
  150.9413  143.1845  157.1266 H   0  0  0  0  0  0  0  0  0  0  0  0
  152.9775  142.6926  159.3475 H   0  0  0  0  0  0  0  0  0  0  0  0
  153.2877  143.4558  157.7848 H   0  0  0  0  0  0  0  0  0  0  0  0
  152.6464  144.8922  160.0602 H   0  0  0  0  0  0  0  0  0  0  0  0
  152.1779  145.4448  158.4511 H   0  0  0  0  0  0  0  0  0  0  0  0
  150.3613  144.5329  160.5317 H   0  0  0  0  0  0  0  0  0  0  0  0
  149.9624  145.0488  158.8896 H   0  0  0  0  0  0  0  0  0  0  0  0
  148.2889  134.8802  152.6703 H   0  0  0  0  0  0  0  0  0  0  0  0
  1  2  1  0  0  0  0
  1 29  1  0  0  0  0
  1 30  1  0  0  0  0
  1 31  1  0  0  0  0
  2  3  1  0  0  0  0
  2 10  1  0  0  0  0
  2 32  1  0  0  0  0
  3  4  1  0  0  0  0
  3 33  1  0  0  0  0
  3 34  1  0  0  0  0
  4  9  1  0  0  0  0
  4  5  1  0  0  0  0
  4 59  1  0  0  0  0
  5  6  1  0  0  0  0
  5 35  1  0  0  0  0
  5 36  1  0  0  0  0
  6  7  1  0  0  0  0
  6 37  1  0  0  0  0
  6 38  1  0  0  0  0
  7  8  1  0  0  0  0
  8  9  1  0  0  0  0
  8 39  1  0  0  0  0
  8 40  1  0  0  0  0
  9 41  1  0  0  0  0
  9 42  1  0  0  0  0
 10 11  1  0  0  0  0
 10 12  1  0  0  0  0
 11 43  1  0  0  0  0
 11 44  1  0  0  0  0
 11 45  1  0  0  0  0
 12 17  1  0  0  0  0
 12 13  2  0  0  0  0
 13 14  1  0  0  0  0
 14 15  2  0  0  0  0
 14 46  1  0  0  0  0
 15 16  1  0  0  0  0
 16 20  1  0  0  0  0
 16 17  2  0  0  0  0
 17 18  1  0  0  0  0
 18 19  2  0  0  0  0
 19 20  1  0  0  0  0
 19 47  1  0  0  0  0
 20 21  1  0  0  0  0
 21 22  1  0  0  0  0
 21 48  1  0  0  0  0
 21 49  1  0  0  0  0
 22 23  1  0  0  0  0
 22 24  1  0  0  0  0
 22 50  1  0  0  0  0
 23 51  1  0  0  0  0
 24 28  1  0  0  0  0
 24 25  1  0  0  0  0
 24 52  1  0  0  0  0
 25 26  1  0  0  0  0
 25 53  1  0  0  0  0
 25 54  1  0  0  0  0
 26 27  1  0  0  0  0
 26 55  1  0  0  0  0
 26 56  1  0  0  0  0
 27 28  1  0  0  0  0
 27 57  1  0  0  0  0
 27 58  1  0  0  0  0
M  CHG  1   4   1
M  END
> <s_m_source_file>
AV-unprocessed.smi

> <i_m_source_file_index>
213

> <i_lp_mmshare_version>
43012

> <i_f3d_flags>
0

> <s_epik_input>
W0NIMl0xW0NIMl1PW0NIMl1bQ0gyXU4xW0NIMl1bQ0BASF0oW0NIM10pTihbQ0gzXSljKG5bY0hdbjIpYyhjMjMpbltjSF1uM1tDSDJdW0NASF0oW09IXSlbQ0BASF00W0NIMl1bQ0gyXVtDSDJdTzQ=

> <s_epik_cmdline>
J2VwaWtfcHl0aG9uJywgJy1waCcsICc3LjAnLCAnLXRuJywgJzgnLCAnLW1hJywgJzIwMCcsICctbWV0YWxfYmluZGluZycsICctaW1hZScsICc8aW5maWxlLm1hZT4nLCAnLW9tYWUnLCAnPG91dGZpbGUubWFlPic=

> <r_lp_tautomer_probability>
1

> <r_epik_Ionization_Penalty>
0.399679

> <r_epik_Ionization_Penalty_Charging>
0.399433

> <r_epik_Ionization_Penalty_Neutral>
0.000246213

> <r_epik_State_Penalty>
0.286032

> <r_epik_Charging_Adjusted_Penalty>
0.685465

> <i_epik_Tot_Q>
1

> <i_epik_Tot_abs_Q>
1

> <r_epik_Metal_State_Penalty>
0.286072

> <b_epik_Metal_Only>
0

> <s_lp_Force_Field>
OPLS_2005

> <r_lp_Energy>
46.7886

> <b_lp_Chiralities_Consistent>
1

> <s_lp_Variant>
AV-unprocessed.smi:213-1

> <Gold.Version>
5.8.1

> <Gold.Id.Protein>
6NUR|6NUR_protein|mol2

> <Gold.PLP.Fitness>
43.7828

> <Gold.PLP.PLP>
-39.9495

> <Gold.PLP.part.hbond>
-2.3351

> <Gold.PLP.part.metal>
0.0000

> <Gold.PLP.part.buried>
-6.5835

> <Gold.PLP.part.nonpolar>
-31.4190

> <Gold.PLP.part.repulsive>
0.4296

> <Gold.PLP.ligand.clash>
1.9053

> <Gold.PLP.ligand.torsion>
3.5048

> <Gold.PLP.Chemscore.Hbond>
3.0000

> <Gold.PLP.Chemscore.CHOScore>
0.8401

> <Gold.PLP.Chemscore.Metal>
0.0000

> <Gold.Chemscore.Hbonds>
donor molecule, donor type, donor heavy atom, donor atom, acceptor molecule, acceptor atom, score
      L1  H     4    59       P1  7948  2.00
      P1  H 10752 10765       L1    13  0.46
      L1  C    14    46       P1  7949  0.88

> <Gold.PLP.Chemscore.Internal.Correction>
1.2279

> <Gold.Rescore>
     Score         DG    S(hbond)    S(metal)    S(lipo)     H(rot)  DE(clash)    DE(int)     intcor
      9.05     -13.31       1.24        0.00      93.47       2.83       0.01       4.25       ----

> <Gold.Chemscore.Fitness>
9.0508

> <Gold.Chemscore.DG>
-13.3133

> <Gold.Chemscore.ZeroCoef>
-5.4800

> <Gold.Chemscore.Hbond>
1.2366

> <Gold.Chemscore.Metal>
0.0000

> <Gold.Chemscore.Lipo>
93.4712

> <Gold.Chemscore.Internal_Hbond>
0.0000

> <Gold.Chemscore.DEClash>
0.0095

> <Gold.Chemscore.DEInternal>
4.2530

> <Gold.Chemscore.Rot>
2.8254

> <Gold.Chemscore.Internal.Correction>
   9.000000E+99

> <Gold.Chemscore.Hbonds>
donor molecule, donor type, donor heavy atom, donor atom, acceptor molecule, acceptor atom, score
      L1  H     4    59       P1  7948  0.60
      P1  H 10752 10765       L1    13  0.06

> <Gold.Chemscore.Hbond.Weighted>
-4.1301

> <Gold.Chemscore.Metal.Weighted>
-0.0000

> <Gold.Chemscore.Lipo.Weighted>
-10.9361

> <Gold.Chemscore.Internal_Hbond.Weighted>
0.0000

> <Gold.Chemscore.DEClash.Weighted>
0.0095

> <Gold.Chemscore.DEInternal.Weighted>
4.2530

> <Gold.Chemscore.Rot.Weighted>
7.2330

> <Gold.Chemscore.Internal.Correction.Weighted>
   9.000000E+99

> <Gold.Protein.RotatedTorsions>
[ 6907 6896 6895 6894 ] final -161.84 input  -60.11 | X-H torsion
[ 7974 7965 7964 7962 ] final   26.48 input  175.53 | X-H torsion
[ 8008 7997 7996 7995 ] final -130.35 input   59.86 | X-H torsion
[ 10167 10162 10161 10158 ] final -129.37 input  -65.29 | X-H torsion
[ 10718 10713 10712 10709 ] final   81.46 input   66.30 | X-H torsion
[ 10763 10752 10751 10750 ] final  179.51 input  -60.55 | X-H torsion
[ 11005 11000 10999 10996 ] final   64.68 input  -57.11 | X-H torsion

> <Gold.Protein.ActiveResidues>
 VAL166  LYS551  ARG553  GLY616  TRP617  ASP618  TYR619  PRO620  LYS621  CYS622 
 ASP623  PHE694  ASN695  SER759  ASP760  ASP761  ALA762  ILE779  LEU786  VAL792 
 PHE793  MET794  SER795  GLU796  ALA797  LYS798  CYS799  TRP800  GLU811  SER814 

> <Gold.Protein.RotatedAtoms>
  151.3709  133.3855  159.2699 H   0  0  0  0  0  0  0  0  0  0  0  0  # atno 6907 bound_to 6896
  150.9652  134.9035  159.7765 H   0  0  0  0  0  0  0  0  0  0  0  0  # atno 6908 bound_to 6896
  152.5164  134.3669  159.9357 H   0  0  0  0  0  0  0  0  0  0  0  0  # atno 6909 bound_to 6896
  146.1835  139.7322  142.8883 H   0  0  0  0  0  0  0  0  0  0  0  0  # atno 7974 bound_to 7965
  155.2942  140.0450  157.3025 H   0  0  0  0  0  0  0  0  0  0  0  0  # atno 8008 bound_to 7997
  154.5523  140.2321  155.8432 H   0  0  0  0  0  0  0  0  0  0  0  0  # atno 8009 bound_to 7997
  156.1978  140.3034  155.9470 H   0  0  0  0  0  0  0  0  0  0  0  0  # atno 8010 bound_to 7997
  139.9405  143.6168  152.2505 H   0  0  0  0  0  0  0  0  0  0  0  0  # atno 10167 bound_to 10162
  157.6833  131.0005  150.2230 H   0  0  0  0  0  0  0  0  0  0  0  0  # atno 10718 bound_to 10713
  154.5216  135.2794  155.1257 H   0  0  0  0  0  0  0  0  0  0  0  0  # atno 10763 bound_to 10752
  154.2812  135.6285  153.5351 H   0  0  0  0  0  0  0  0  0  0  0  0  # atno 10764 bound_to 10752
  152.9938  135.5651  154.5707 H   0  0  0  0  0  0  0  0  0  0  0  0  # atno 10765 bound_to 10752
  139.9943  134.6542  156.0037 H   0  0  0  0  0  0  0  0  0  0  0  0  # atno 11005 bound_to 11000
  145.4007  141.0384  143.3072 LP  0  0  0  0  0  0  0  0  0  0  0  0  # atno 17320 bound_to 7965
  144.8356  139.5556  143.6924 LP  0  0  0  0  0  0  0  0  0  0  0  0  # atno 17321 bound_to 7965
  139.6708  144.7661  151.1787 LP  0  0  0  0  0  0  0  0  0  0  0  0  # atno 17342 bound_to 10162
  140.7612  143.5868  150.8837 LP  0  0  0  0  0  0  0  0  0  0  0  0  # atno 17343 bound_to 10162
  156.2878  130.3741  149.7871 LP  0  0  0  0  0  0  0  0  0  0  0  0  # atno 17370 bound_to 10713
  156.5540  130.8354  151.3308 LP  0  0  0  0  0  0  0  0  0  0  0  0  # atno 17371 bound_to 10713
  141.1591  133.6540  156.4260 LP  0  0  0  0  0  0  0  0  0  0  0  0  # atno 17394 bound_to 11000
  140.4849  134.6630  157.5186 LP  0  0  0  0  0  0  0  0  0  0  0  0  # atno 17395 bound_to 11000

$$$$
