AV-unprocessed.smi:2061|AV-procd|sdf|8393|dock6
  -GOLD-   2272011 73D 1   1.00000     0.00000
 Structure written by MMmdl.
 45 46  0  0  0  0  0  0  0  0  3 V2000
  147.9279  135.7185  162.9911 C   0  0  0  0  0  0  0  0  0  0  0  0
  147.8563  135.6582  161.5033 C   0  0  0  0  0  0  0  0  0  0  0  0
  147.7673  134.6184  160.6215 C   0  0  0  0  0  0  0  0  0  0  0  0
  147.7414  135.2689  159.3592 C   0  0  0  0  0  0  0  0  0  0  0  0
  147.6372  134.5177  158.1591 N   0  0  0  0  0  0  0  0  0  0  0  0
  148.4328  133.5276  157.7176 C   0  0  0  0  0  0  0  0  0  0  0  0
  149.3378  133.0868  158.4360 O   0  0  0  0  0  0  0  0  0  0  0  0
  148.1135  133.1316  156.4547 N   0  5  0  0  0  0  0  0  0  0  0  0
  147.3119  133.9139  155.5087 C   0  0  0  0  0  0  0  0  0  0  0  0
  148.0856  134.1753  154.1875 C   0  0  1  0  0  0  0  0  0  0  0  0
  148.9763  132.9924  153.7306 C   0  0  0  0  0  0  0  0  0  0  0  0
  147.1821  134.7209  153.1219 N   0  3  1  0  0  0  0  0  0  0  0  0
  146.4779  133.6764  152.3410 C   0  0  0  0  0  0  0  0  0  0  0  0
  145.7700  134.3047  151.1272 C   0  0  1  0  0  0  0  0  0  0  0  0
  144.9575  133.2720  150.3386 C   0  0  0  0  0  0  0  0  0  0  0  0
  144.8740  135.3224  151.5676 O   0  0  0  0  0  0  0  0  0  0  0  0
  145.4814  136.3697  152.3240 C   0  0  2  0  0  0  0  0  0  0  0  0
  146.3431  137.2990  151.4515 C   0  0  0  0  0  0  0  0  0  0  0  0
  146.2251  135.7824  153.5386 C   0  0  0  0  0  0  0  0  0  0  0  0
  147.8009  136.5886  159.4626 N   0  0  0  0  0  0  0  0  0  0  0  0
  147.8781  136.8443  160.8366 O   0  0  0  0  0  0  0  0  0  0  0  0
  147.0354  135.2805  163.4379 H   0  0  0  0  0  0  0  0  0  0  0  0
  148.0093  136.7481  163.3405 H   0  0  0  0  0  0  0  0  0  0  0  0
  148.7949  135.1686  163.3577 H   0  0  0  0  0  0  0  0  0  0  0  0
  147.7280  133.5627  160.8452 H   0  0  0  0  0  0  0  0  0  0  0  0
  146.8916  134.7919  157.5365 H   0  0  0  0  0  0  0  0  0  0  0  0
  146.3672  133.4254  155.2654 H   0  0  0  0  0  0  0  0  0  0  0  0
  147.0267  134.8726  155.9419 H   0  0  0  0  0  0  0  0  0  0  0  0
  148.7904  134.9675  154.4443 H   0  0  0  0  0  0  0  0  0  0  0  0
  149.7011  132.7129  154.4975 H   0  0  0  0  0  0  0  0  0  0  0  0
  149.5536  133.2618  152.8457 H   0  0  0  0  0  0  0  0  0  0  0  0
  148.4018  132.0964  153.4898 H   0  0  0  0  0  0  0  0  0  0  0  0
  147.1921  132.9300  151.9903 H   0  0  0  0  0  0  0  0  0  0  0  0
  145.7613  133.1624  152.9837 H   0  0  0  0  0  0  0  0  0  0  0  0
  146.5128  134.7333  150.4541 H   0  0  0  0  0  0  0  0  0  0  0  0
  145.5963  132.4718  149.9645 H   0  0  0  0  0  0  0  0  0  0  0  0
  144.4691  133.7343  149.4803 H   0  0  0  0  0  0  0  0  0  0  0  0
  144.1828  132.8206  150.9593 H   0  0  0  0  0  0  0  0  0  0  0  0
  144.6610  136.9776  152.7067 H   0  0  0  0  0  0  0  0  0  0  0  0
  146.7117  138.1437  152.0339 H   0  0  0  0  0  0  0  0  0  0  0  0
  145.7624  137.7013  150.6213 H   0  0  0  0  0  0  0  0  0  0  0  0
  147.2111  136.7909  151.0343 H   0  0  0  0  0  0  0  0  0  0  0  0
  145.4906  135.3612  154.2258 H   0  0  0  0  0  0  0  0  0  0  0  0
  146.7408  136.5804  154.0732 H   0  0  0  0  0  0  0  0  0  0  0  0
  147.8131  135.1657  152.4690 H   0  0  0  0  0  0  0  0  0  0  0  0
  1  2  1  0  0  0  0
  1 22  1  0  0  0  0
  1 23  1  0  0  0  0
  1 24  1  0  0  0  0
  2 21  1  0  0  0  0
  2  3  2  0  0  0  0
  3  4  1  0  0  0  0
  3 25  1  0  0  0  0
  4  5  1  0  0  0  0
  4 20  2  0  0  0  0
  5  6  1  0  0  0  0
  5 26  1  0  0  0  0
  6  7  2  0  0  0  0
  6  8  1  0  0  0  0
  8  9  1  0  0  0  0
  9 10  1  0  0  0  0
  9 27  1  0  0  0  0
  9 28  1  0  0  0  0
 10 11  1  0  0  0  0
 10 12  1  0  0  0  0
 10 29  1  0  0  0  0
 11 30  1  0  0  0  0
 11 31  1  0  0  0  0
 11 32  1  0  0  0  0
 12 19  1  0  0  0  0
 12 13  1  0  0  0  0
 12 45  1  0  0  0  0
 13 14  1  0  0  0  0
 13 33  1  0  0  0  0
 13 34  1  0  0  0  0
 14 15  1  0  0  0  0
 14 16  1  0  0  0  0
 14 35  1  0  0  0  0
 15 36  1  0  0  0  0
 15 37  1  0  0  0  0
 15 38  1  0  0  0  0
 16 17  1  0  0  0  0
 17 18  1  0  0  0  0
 17 19  1  0  0  0  0
 17 39  1  0  0  0  0
 18 40  1  0  0  0  0
 18 41  1  0  0  0  0
 18 42  1  0  0  0  0
 19 43  1  0  0  0  0
 19 44  1  0  0  0  0
 20 21  1  0  0  0  0
M  CHG  1   8  -1
M  CHG  1  12   1
M  END
> <s_m_source_file>
AV-unprocessed.smi

> <i_m_source_file_index>
2061

> <i_lp_mmshare_version>
43012

> <i_f3d_flags>
0

> <s_epik_input>
W0NIM11jMVtjSF1jKG5vMSlbTkhdQyg9TylbTkhdW0NIMl1bQ0BIXShbQ0gzXSlOMltDSDJdW0NAQEhdKFtDSDNdKU9bQ0BASF0oW0NIM10pW0NIMl0y

> <s_epik_cmdline>
J2VwaWtfcHl0aG9uJywgJy1waCcsICc3LjAnLCAnLXRuJywgJzgnLCAnLW1hJywgJzIwMCcsICctbWV0YWxfYmluZGluZycsICctaW1hZScsICc8aW5maWxlLm1hZT4nLCAnLW9tYWUnLCAnPG91dGZpbGUubWFlPic=

> <r_epik_Ionization_Penalty>
6.8073

> <r_epik_Ionization_Penalty_Charging>
6.80729

> <r_epik_Ionization_Penalty_Neutral>
5.65391e-06

> <r_epik_State_Penalty>
7.47323

> <r_epik_Charging_Adjusted_Penalty>
14.2805

> <i_epik_Tot_Q>
0

> <i_epik_Tot_abs_Q>
2

> <r_epik_Metal_State_Penalty>
3.40035

> <b_epik_Metal_Only>
1

> <s_lp_Force_Field>
OPLS_2005

> <r_lp_Energy>
16.8806

> <b_lp_Chiralities_Consistent>
1

> <s_lp_Variant>
AV-unprocessed.smi:2061-34

> <Gold.Version>
5.8.1

> <Gold.Id.Protein>
6NUR|6NUR_protein|mol2

> <Gold.PLP.Fitness>
41.2578

> <Gold.PLP.PLP>
-29.1989

> <Gold.PLP.part.hbond>
-4.0000

> <Gold.PLP.part.metal>
0.0000

> <Gold.PLP.part.buried>
-0.4361

> <Gold.PLP.part.nonpolar>
-24.6959

> <Gold.PLP.part.repulsive>
0.2078

> <Gold.PLP.ligand.clash>
0.4451

> <Gold.PLP.ligand.torsion>
1.0204

> <Gold.PLP.Chemscore.Hbond>
4.7440

> <Gold.PLP.Chemscore.CHOScore>
0.0000

> <Gold.PLP.Chemscore.Metal>
0.0000

> <Gold.Chemscore.Hbonds>
donor molecule, donor type, donor heavy atom, donor atom, acceptor molecule, acceptor atom, score
      L1  H    12    45       P1  7948  2.00
      P1  H  6896  6909       L1     7  1.00
      P1  H  6931  6943       L1    21  0.81
      P1  H  6934  6947       L1    21  0.31

> <Gold.PLP.Chemscore.Internal.Correction>
0.3128

> <Gold.Rescore>
     Score         DG    S(hbond)    S(metal)    S(lipo)     H(rot)  DE(clash)    DE(int)     intcor
     18.20     -19.30       2.83        0.00      71.38       1.56       0.06       1.04       ----

> <Gold.Chemscore.Fitness>
18.1985

> <Gold.Chemscore.DG>
-19.2958

> <Gold.Chemscore.ZeroCoef>
-5.4800

> <Gold.Chemscore.Hbond>
2.8279

> <Gold.Chemscore.Metal>
0.0000

> <Gold.Chemscore.Lipo>
71.3813

> <Gold.Chemscore.Internal_Hbond>
0.0000

> <Gold.Chemscore.DEClash>
0.0585

> <Gold.Chemscore.DEInternal>
1.0389

> <Gold.Chemscore.Rot>
1.5550

> <Gold.Chemscore.Internal.Correction>
   9.000000E+99

> <Gold.Chemscore.Hbonds>
donor molecule, donor type, donor heavy atom, donor atom, acceptor molecule, acceptor atom, score
      L1  H    12    45       P1  7948  0.98
      P1  H  6896  6909       L1     7  1.00
      P1  H  6931  6943       L1    21  0.56
      P1  H  6934  6947       L1    21  0.10

> <Gold.Chemscore.Hbond.Weighted>
-9.4451

> <Gold.Chemscore.Metal.Weighted>
-0.0000

> <Gold.Chemscore.Lipo.Weighted>
-8.3516

> <Gold.Chemscore.Internal_Hbond.Weighted>
0.0000

> <Gold.Chemscore.DEClash.Weighted>
0.0585

> <Gold.Chemscore.DEInternal.Weighted>
1.0389

> <Gold.Chemscore.Rot.Weighted>
3.9809

> <Gold.Chemscore.Internal.Correction.Weighted>
   9.000000E+99

> <Gold.Protein.RotatedTorsions>
[ 6907 6896 6895 6894 ] final    4.31 input  -60.11 | X-H torsion
[ 7974 7965 7964 7962 ] final   71.55 input  175.53 | X-H torsion
[ 8008 7997 7996 7995 ] final  172.35 input   59.86 | X-H torsion
[ 10167 10162 10161 10158 ] final  -27.31 input  -65.29 | X-H torsion
[ 10718 10713 10712 10709 ] final   60.41 input   66.30 | X-H torsion
[ 10763 10752 10751 10750 ] final   86.85 input  -60.55 | X-H torsion
[ 11005 11000 10999 10996 ] final  148.09 input  -57.11 | X-H torsion

> <Gold.Protein.ActiveResidues>
 VAL166  LYS551  ARG553  GLY616  TRP617  ASP618  TYR619  PRO620  LYS621  CYS622 
 ASP623  PHE694  ASN695  SER759  ASP760  ASP761  ALA762  ILE779  LEU786  VAL792 
 PHE793  MET794  SER795  GLU796  ALA797  LYS798  CYS799  TRP800  GLU811  SER814 

> <Gold.Protein.RotatedAtoms>
  151.6392  135.1014  160.0137 H   0  0  0  0  0  0  0  0  0  0  0  0  # atno 6907 bound_to 6896
  152.4063  133.6890  159.6368 H   0  0  0  0  0  0  0  0  0  0  0  0  # atno 6908 bound_to 6896
  150.7957  133.8620  159.3275 H   0  0  0  0  0  0  0  0  0  0  0  0  # atno 6909 bound_to 6896
  145.7645  139.2815  143.1357 H   0  0  0  0  0  0  0  0  0  0  0  0  # atno 7974 bound_to 7965
  156.1183  140.1488  156.9241 H   0  0  0  0  0  0  0  0  0  0  0  0  # atno 8008 bound_to 7997
  154.4816  140.0877  156.7433 H   0  0  0  0  0  0  0  0  0  0  0  0  # atno 8009 bound_to 7997
  155.4475  140.3433  155.4299 H   0  0  0  0  0  0  0  0  0  0  0  0  # atno 8010 bound_to 7997
  140.7278  143.4104  151.1115 H   0  0  0  0  0  0  0  0  0  0  0  0  # atno 10167 bound_to 10162
  157.5750  130.8937  149.9332 H   0  0  0  0  0  0  0  0  0  0  0  0  # atno 10718 bound_to 10713
  153.1611  135.4565  154.9773 H   0  0  0  0  0  0  0  0  0  0  0  0  # atno 10763 bound_to 10752
  154.7898  135.3216  154.7806 H   0  0  0  0  0  0  0  0  0  0  0  0  # atno 10764 bound_to 10752
  153.8296  135.6940  153.4871 H   0  0  0  0  0  0  0  0  0  0  0  0  # atno 10765 bound_to 10752
  140.0930  134.9029  157.1680 H   0  0  0  0  0  0  0  0  0  0  0  0  # atno 11005 bound_to 11000
  146.0231  140.8329  142.9913 LP  0  0  0  0  0  0  0  0  0  0  0  0  # atno 17320 bound_to 7965
  144.6824  140.2658  143.7312 LP  0  0  0  0  0  0  0  0  0  0  0  0  # atno 17321 bound_to 7965
  139.7737  143.8457  152.3125 LP  0  0  0  0  0  0  0  0  0  0  0  0  # atno 17342 bound_to 10162
  139.8384  144.7221  150.9362 LP  0  0  0  0  0  0  0  0  0  0  0  0  # atno 17343 bound_to 10162
  156.0795  130.3675  150.0609 LP  0  0  0  0  0  0  0  0  0  0  0  0  # atno 17370 bound_to 10713
  156.8757  130.9539  151.3605 LP  0  0  0  0  0  0  0  0  0  0  0  0  # atno 17371 bound_to 10713
  140.3325  134.2794  155.7225 LP  0  0  0  0  0  0  0  0  0  0  0  0  # atno 17394 bound_to 11000
  141.2083  133.7780  157.0063 LP  0  0  0  0  0  0  0  0  0  0  0  0  # atno 17395 bound_to 11000

$$$$
