AV-unprocessed.smi:2021|AV-procd|sdf|8177|dock1
  -GOLD-   2272010423D 1   1.00000     0.00000
 Structure written by MMmdl.
 42 43  0  0  0  0  0  0  0  0  2 V2000
  145.6883  132.4467  150.8745 C   0  0  0  0  0  0  0  0  0  0  0  0
  144.3798  133.1407  150.4606 C   0  0  0  0  0  0  0  0  0  0  0  0
  144.0066  132.7637  149.0191 C   0  0  0  0  0  0  0  0  0  0  0  0
  144.4650  134.6754  150.6139 C   0  0  0  0  0  0  0  0  0  0  0  0
  144.1606  135.1470  151.9929 N   0  3  1  0  0  0  0  0  0  0  0  0
  144.7864  134.3194  153.0525 C   0  0  0  0  0  0  0  0  0  0  0  0
  146.2794  134.6580  153.2110 C   0  0  0  0  0  0  0  0  0  0  0  0
  146.4202  136.0456  153.4856 O   0  0  0  0  0  0  0  0  0  0  0  0
  145.9357  136.8695  152.4292 C   0  0  2  0  0  0  0  0  0  0  0  0
  146.1936  138.3434  152.7907 C   0  0  0  0  0  0  0  0  0  0  0  0
  147.6183  138.6584  152.8073 N   0  0  0  0  0  0  0  0  0  0  0  0
  148.4346  138.4931  153.8579 C   0  0  0  0  0  0  0  0  0  0  0  0
  148.0632  138.0402  154.9408 O   0  0  0  0  0  0  0  0  0  0  0  0
  149.6875  138.8835  153.5652 N   0  0  0  0  0  0  0  0  0  0  0  0
  150.8312  138.8779  154.4066 C   0  0  0  0  0  0  0  0  0  0  0  0
  151.5278  139.9804  154.7243 N   0  0  0  0  0  0  0  0  0  0  0  0
  152.5998  139.6943  155.5598 N   0  0  0  0  0  0  0  0  0  0  0  0
  152.6688  138.3896  155.8393 C   0  0  0  0  0  0  0  0  0  0  0  0
  151.4298  137.3826  155.1106 S   0  0  0  0  0  0  0  0  0  0  0  0
  144.4284  136.5880  152.2392 C   0  0  0  0  0  0  0  0  0  0  0  0
  146.5264  132.7818  150.2626 H   0  0  0  0  0  0  0  0  0  0  0  0
  145.6092  131.3648  150.7631 H   0  0  0  0  0  0  0  0  0  0  0  0
  145.9352  132.6465  151.9173 H   0  0  0  0  0  0  0  0  0  0  0  0
  143.5827  132.7584  151.0973 H   0  0  0  0  0  0  0  0  0  0  0  0
  144.7638  133.1016  148.3108 H   0  0  0  0  0  0  0  0  0  0  0  0
  143.0556  133.2112  148.7289 H   0  0  0  0  0  0  0  0  0  0  0  0
  143.9065  131.6835  148.9079 H   0  0  0  0  0  0  0  0  0  0  0  0
  145.4761  134.9847  150.3445 H   0  0  0  0  0  0  0  0  0  0  0  0
  143.8051  135.1648  149.8977 H   0  0  0  0  0  0  0  0  0  0  0  0
  144.2711  134.5192  153.9930 H   0  0  0  0  0  0  0  0  0  0  0  0
  144.6471  133.2572  152.8483 H   0  0  0  0  0  0  0  0  0  0  0  0
  146.7053  134.0920  154.0395 H   0  0  0  0  0  0  0  0  0  0  0  0
  146.8459  134.3883  152.3187 H   0  0  0  0  0  0  0  0  0  0  0  0
  146.4778  136.6390  151.5109 H   0  0  0  0  0  0  0  0  0  0  0  0
  145.7312  138.9893  152.0439 H   0  0  0  0  0  0  0  0  0  0  0  0
  145.7272  138.5961  153.7446 H   0  0  0  0  0  0  0  0  0  0  0  0
  148.0091  139.0389  151.9578 H   0  0  0  0  0  0  0  0  0  0  0  0
  149.8407  139.2362  152.6321 H   0  0  0  0  0  0  0  0  0  0  0  0
  153.4550  138.0172  156.4791 H   0  0  0  0  0  0  0  0  0  0  0  0
  144.0194  137.2063  151.4415 H   0  0  0  0  0  0  0  0  0  0  0  0
  143.8934  136.8762  153.1452 H   0  0  0  0  0  0  0  0  0  0  0  0
  143.1641  135.0174  152.0972 H   0  0  0  0  0  0  0  0  0  0  0  0
  1  2  1  0  0  0  0
  1 21  1  0  0  0  0
  1 22  1  0  0  0  0
  1 23  1  0  0  0  0
  2  3  1  0  0  0  0
  2  4  1  0  0  0  0
  2 24  1  0  0  0  0
  3 25  1  0  0  0  0
  3 26  1  0  0  0  0
  3 27  1  0  0  0  0
  4  5  1  0  0  0  0
  4 28  1  0  0  0  0
  4 29  1  0  0  0  0
  5 20  1  0  0  0  0
  5  6  1  0  0  0  0
  5 42  1  0  0  0  0
  6  7  1  0  0  0  0
  6 30  1  0  0  0  0
  6 31  1  0  0  0  0
  7  8  1  0  0  0  0
  7 32  1  0  0  0  0
  7 33  1  0  0  0  0
  8  9  1  0  0  0  0
  9 10  1  0  0  0  0
  9 20  1  0  0  0  0
  9 34  1  0  0  0  0
 10 11  1  0  0  0  0
 10 35  1  0  0  0  0
 10 36  1  0  0  0  0
 11 12  1  0  0  0  0
 11 37  1  0  0  0  0
 12 13  2  0  0  0  0
 12 14  1  0  0  0  0
 14 15  1  0  0  0  0
 14 38  1  0  0  0  0
 15 19  1  0  0  0  0
 15 16  2  0  0  0  0
 16 17  1  0  0  0  0
 17 18  2  0  0  0  0
 18 19  1  0  0  0  0
 18 39  1  0  0  0  0
 20 40  1  0  0  0  0
 20 41  1  0  0  0  0
M  CHG  1   5   1
M  END
> <s_m_source_file>
AV-unprocessed.smi

> <i_m_source_file_index>
2021

> <i_lp_mmshare_version>
43012

> <i_f3d_flags>
0

> <s_epik_input>
W0NIM11bQ0hdKFtDSDNdKVtDSDJdTjFbQ0gyXVtDSDJdT1tDQEhdKFtDSDJdMSlbQ0gyXVtOSF1DKD1PKVtOSF1jMm5uW2NIXXMy

> <s_epik_cmdline>
J2VwaWtfcHl0aG9uJywgJy1waCcsICc3LjAnLCAnLXRuJywgJzgnLCAnLW1hJywgJzIwMCcsICctbWV0YWxfYmluZGluZycsICctaW1hZScsICc8aW5maWxlLm1hZT4nLCAnLW9tYWUnLCAnPG91dGZpbGUubWFlPic=

> <r_lp_tautomer_probability>
1

> <r_epik_Ionization_Penalty>
0.102019

> <r_epik_Ionization_Penalty_Charging>
0.098413

> <r_epik_Ionization_Penalty_Neutral>
0.00360555

> <r_epik_State_Penalty>
0.0884988

> <r_epik_Charging_Adjusted_Penalty>
0.186912

> <i_epik_Tot_Q>
1

> <i_epik_Tot_abs_Q>
1

> <r_epik_Metal_State_Penalty>
0.454709

> <b_epik_Metal_Only>
0

> <s_lp_Force_Field>
OPLS_2005

> <r_lp_Energy>
19.4379

> <b_lp_Chiralities_Consistent>
1

> <s_lp_Variant>
AV-unprocessed.smi:2021-3

> <Gold.Version>
5.8.1

> <Gold.Id.Protein>
6NUR|6NUR_protein|mol2

> <Gold.PLP.Fitness>
42.7361

> <Gold.PLP.PLP>
-33.1178

> <Gold.PLP.part.hbond>
-5.5159

> <Gold.PLP.part.metal>
0.0000

> <Gold.PLP.part.buried>
-4.0026

> <Gold.PLP.part.nonpolar>
-25.0905

> <Gold.PLP.part.repulsive>
1.0639

> <Gold.PLP.ligand.clash>
0.0000

> <Gold.PLP.ligand.torsion>
1.1631

> <Gold.PLP.Chemscore.Hbond>
3.9280

> <Gold.PLP.Chemscore.CHOScore>
0.0000

> <Gold.PLP.Chemscore.Metal>
0.0000

> <Gold.Chemscore.Hbonds>
donor molecule, donor type, donor heavy atom, donor atom, acceptor molecule, acceptor atom, score
      L1  H    11    37       P1  7957  0.93
      L1  H    14    38       P1  7957  1.00
      P1  H  7989  7998       L1    16  0.96
      P1  H  7997  8009       L1    17  0.95

> <Gold.PLP.Chemscore.Internal.Correction>
0.1606

> <Gold.Rescore>
     Score         DG    S(hbond)    S(metal)    S(lipo)     H(rot)  DE(clash)    DE(int)     intcor
     16.83     -19.84       3.36        0.00      67.91       1.88       0.48       2.54       ----

> <Gold.Chemscore.Fitness>
16.8305

> <Gold.Chemscore.DG>
-19.8422

> <Gold.Chemscore.ZeroCoef>
-5.4800

> <Gold.Chemscore.Hbond>
3.3632

> <Gold.Chemscore.Metal>
0.0000

> <Gold.Chemscore.Lipo>
67.9058

> <Gold.Chemscore.Internal_Hbond>
0.0000

> <Gold.Chemscore.DEClash>
0.4766

> <Gold.Chemscore.DEInternal>
2.5351

> <Gold.Chemscore.Rot>
1.8812

> <Gold.Chemscore.Internal.Correction>
   9.000000E+99

> <Gold.Chemscore.Hbonds>
donor molecule, donor type, donor heavy atom, donor atom, acceptor molecule, acceptor atom, score
      L1  H    11    37       P1  7957  0.83
      L1  H    14    38       P1  7957  0.92
      P1  H  7989  7998       L1    16  0.62
      P1  H  7997  8009       L1    17  0.21

> <Gold.Chemscore.Hbond.Weighted>
-11.2332

> <Gold.Chemscore.Metal.Weighted>
-0.0000

> <Gold.Chemscore.Lipo.Weighted>
-7.9450

> <Gold.Chemscore.Internal_Hbond.Weighted>
0.0000

> <Gold.Chemscore.DEClash.Weighted>
0.4766

> <Gold.Chemscore.DEInternal.Weighted>
2.5351

> <Gold.Chemscore.Rot.Weighted>
4.8159

> <Gold.Chemscore.Internal.Correction.Weighted>
   9.000000E+99

> <Gold.Protein.RotatedTorsions>
[ 6907 6896 6895 6894 ] final   14.59 input  -60.11 | X-H torsion
[ 7974 7965 7964 7962 ] final   -6.14 input  175.53 | X-H torsion
[ 8008 7997 7996 7995 ] final -143.14 input   59.86 | X-H torsion
[ 10167 10162 10161 10158 ] final  -39.72 input  -65.29 | X-H torsion
[ 10718 10713 10712 10709 ] final   31.24 input   66.30 | X-H torsion
[ 10763 10752 10751 10750 ] final   49.67 input  -60.55 | X-H torsion
[ 11005 11000 10999 10996 ] final -158.23 input  -57.11 | X-H torsion

> <Gold.Protein.ActiveResidues>
 VAL166  LYS551  ARG553  GLY616  TRP617  ASP618  TYR619  PRO620  LYS621  CYS622 
 ASP623  PHE694  ASN695  SER759  ASP760  ASP761  ALA762  ILE779  LEU786  VAL792 
 PHE793  MET794  SER795  GLU796  ALA797  LYS798  CYS799  TRP800  GLU811  SER814 

> <Gold.Protein.RotatedAtoms>
  151.8046  135.0699  160.0404 H   0  0  0  0  0  0  0  0  0  0  0  0  # atno 6907 bound_to 6896
  152.3064  133.5703  159.5660 H   0  0  0  0  0  0  0  0  0  0  0  0  # atno 6908 bound_to 6896
  150.7298  134.0132  159.3718 H   0  0  0  0  0  0  0  0  0  0  0  0  # atno 6909 bound_to 6896
  146.2338  140.2125  142.8335 H   0  0  0  0  0  0  0  0  0  0  0  0  # atno 7974 bound_to 7965
  155.5058  140.0579  157.2932 H   0  0  0  0  0  0  0  0  0  0  0  0  # atno 8008 bound_to 7997
  154.4570  140.1978  156.0300 H   0  0  0  0  0  0  0  0  0  0  0  0  # atno 8009 bound_to 7997
  156.0818  140.3246  155.7707 H   0  0  0  0  0  0  0  0  0  0  0  0  # atno 8010 bound_to 7997
  140.7056  143.3197  151.2823 H   0  0  0  0  0  0  0  0  0  0  0  0  # atno 10167 bound_to 10162
  157.2699  130.7203  149.6499 H   0  0  0  0  0  0  0  0  0  0  0  0  # atno 10718 bound_to 10713
  152.9786  135.5904  154.4127 H   0  0  0  0  0  0  0  0  0  0  0  0  # atno 10763 bound_to 10752
  154.3761  135.2767  155.2240 H   0  0  0  0  0  0  0  0  0  0  0  0  # atno 10764 bound_to 10752
  154.4175  135.6067  153.6044 H   0  0  0  0  0  0  0  0  0  0  0  0  # atno 10765 bound_to 10752
  140.6559  134.4401  157.5235 H   0  0  0  0  0  0  0  0  0  0  0  0  # atno 11005 bound_to 11000
  144.9695  140.8355  143.5464 LP  0  0  0  0  0  0  0  0  0  0  0  0  # atno 17320 bound_to 7965
  145.2105  139.2207  143.5145 LP  0  0  0  0  0  0  0  0  0  0  0  0  # atno 17321 bound_to 7965
  139.6647  144.0127  152.2715 LP  0  0  0  0  0  0  0  0  0  0  0  0  # atno 17342 bound_to 10162
  139.9706  144.6496  150.7993 LP  0  0  0  0  0  0  0  0  0  0  0  0  # atno 17343 bound_to 10162
  155.9663  130.4371  150.5160 LP  0  0  0  0  0  0  0  0  0  0  0  0  # atno 17370 bound_to 10713
  157.3083  131.0658  151.2019 LP  0  0  0  0  0  0  0  0  0  0  0  0  # atno 17371 bound_to 10713
  139.9030  134.8513  156.1820 LP  0  0  0  0  0  0  0  0  0  0  0  0  # atno 17394 bound_to 11000
  141.0502  133.6892  156.1758 LP  0  0  0  0  0  0  0  0  0  0  0  0  # atno 17395 bound_to 11000

$$$$
