AV-unprocessed.smi:2922|AV-procd|sdf|11200|dock6
  -GOLD-   2272016 93D 1   1.00000     0.00000
 Structure written by MMmdl.
 30 31  0  0  0  0  0  0  0  0  1 V2000
  144.7239  135.9628  149.7579 N   0  0  0  0  0  0  0  0  0  0  0  0
  144.5957  134.9744  150.6478 C   0  0  0  0  0  0  0  0  0  0  0  0
  144.1362  135.1699  151.7714 O   0  0  0  0  0  0  0  0  0  0  0  0
  145.0205  133.5638  150.2115 C   0  0  2  0  0  0  0  0  0  0  0  0
  143.8901  132.5172  150.2436 C   0  0  0  0  0  0  0  0  0  0  0  0
  144.3932  131.4649  151.2153 C   0  0  0  0  0  0  0  0  0  0  0  0
  145.9066  131.6505  151.1558 C   0  0  2  0  0  0  0  0  0  0  0  0
  146.6627  131.1087  152.3759 C   0  0  0  0  0  0  0  0  0  0  0  0
  148.1042  131.1735  152.1887 N   0  0  0  0  0  0  0  0  0  0  0  0
  148.9511  131.9564  152.9499 C   0  0  0  0  0  0  0  0  0  0  0  0
  149.7652  131.3473  153.8213 N   0  0  0  0  0  0  0  0  0  0  0  0
  150.5820  132.1357  154.5538 C   0  0  0  0  0  0  0  0  0  0  0  0
  150.5776  133.5374  154.4087 C   0  0  0  0  0  0  0  0  0  0  0  0
  151.6165  134.5504  155.3418 Cl  0  0  0  0  0  0  0  0  0  0  0  0
  149.6796  134.0686  153.4614 C   0  0  0  0  0  0  0  0  0  0  0  0
  148.8669  133.2719  152.7324 N   0  0  0  0  0  0  0  0  0  0  0  0
  146.0244  133.0620  151.0939 O   0  0  0  0  0  0  0  0  0  0  0  0
  144.4586  136.9040  150.0087 H   0  0  0  0  0  0  0  0  0  0  0  0
  145.0898  135.7622  148.8383 H   0  0  0  0  0  0  0  0  0  0  0  0
  145.4403  133.6198  149.2062 H   0  0  0  0  0  0  0  0  0  0  0  0
  142.9225  132.9108  150.5580 H   0  0  0  0  0  0  0  0  0  0  0  0
  143.7598  132.0848  149.2507 H   0  0  0  0  0  0  0  0  0  0  0  0
  144.0253  131.6850  152.2186 H   0  0  0  0  0  0  0  0  0  0  0  0
  144.0765  130.4555  150.9514 H   0  0  0  0  0  0  0  0  0  0  0  0
  146.3077  131.2261  150.2332 H   0  0  0  0  0  0  0  0  0  0  0  0
  146.4019  131.6952  153.2575 H   0  0  0  0  0  0  0  0  0  0  0  0
  146.3652  130.0789  152.5777 H   0  0  0  0  0  0  0  0  0  0  0  0
  148.5173  130.6305  151.4446 H   0  0  0  0  0  0  0  0  0  0  0  0
  151.2389  131.6454  155.2569 H   0  0  0  0  0  0  0  0  0  0  0  0
  149.6116  135.1324  153.2872 H   0  0  0  0  0  0  0  0  0  0  0  0
  1  2  1  0  0  0  0
  1 18  1  0  0  0  0
  1 19  1  0  0  0  0
  2  3  2  0  0  0  0
  2  4  1  0  0  0  0
  4 17  1  0  0  0  0
  4  5  1  0  0  0  0
  4 20  1  0  0  0  0
  5  6  1  0  0  0  0
  5 21  1  0  0  0  0
  5 22  1  0  0  0  0
  6  7  1  0  0  0  0
  6 23  1  0  0  0  0
  6 24  1  0  0  0  0
  7  8  1  0  0  0  0
  7 17  1  0  0  0  0
  7 25  1  0  0  0  0
  8  9  1  0  0  0  0
  8 26  1  0  0  0  0
  8 27  1  0  0  0  0
  9 10  1  0  0  0  0
  9 28  1  0  0  0  0
 10 16  1  0  0  0  0
 10 11  2  0  0  0  0
 11 12  1  0  0  0  0
 12 13  2  0  0  0  0
 12 29  1  0  0  0  0
 13 14  1  0  0  0  0
 13 15  1  0  0  0  0
 15 16  2  0  0  0  0
 15 30  1  0  0  0  0
M  END
> <s_m_source_file>
AV-unprocessed.smi

> <i_m_source_file_index>
2922

> <i_lp_mmshare_version>
43012

> <i_f3d_flags>
0

> <s_epik_input>
W05IMl1DKD1PKVtDQEBIXTFbQ0gyXVtDSDJdW0NASF0oTzEpW0NIMl1bTkhdYzJuW2NIXWMoQ2wpW2NIXW4y

> <s_epik_cmdline>
J2VwaWtfcHl0aG9uJywgJy1waCcsICc3LjAnLCAnLXRuJywgJzgnLCAnLW1hJywgJzIwMCcsICctbWV0YWxfYmluZGluZycsICctaW1hZScsICc8aW5maWxlLm1hZT4nLCAnLW9tYWUnLCAnPG91dGZpbGUubWFlPic=

> <r_lp_tautomer_probability>
1

> <r_epik_Ionization_Penalty>
6.13883e-06

> <r_epik_Ionization_Penalty_Charging>
0

> <r_epik_Ionization_Penalty_Neutral>
6.13883e-06

> <r_epik_State_Penalty>
-0

> <r_epik_Charging_Adjusted_Penalty>
0

> <i_epik_Tot_Q>
0

> <i_epik_Tot_abs_Q>
0

> <r_epik_Metal_State_Penalty>
-0

> <b_epik_Metal_Only>
0

> <s_lp_Force_Field>
OPLS_2005

> <r_lp_Energy>
9.86342

> <b_lp_Chiralities_Consistent>
1

> <s_lp_Variant>
AV-unprocessed.smi:2922-3

> <Gold.Version>
5.8.1

> <Gold.Id.Protein>
6NUR|6NUR_protein|mol2

> <Gold.PLP.Fitness>
41.4830

> <Gold.PLP.PLP>
-31.9052

> <Gold.PLP.part.hbond>
-3.0000

> <Gold.PLP.part.metal>
0.0000

> <Gold.PLP.part.buried>
-5.2696

> <Gold.PLP.part.nonpolar>
-24.2046

> <Gold.PLP.part.repulsive>
0.6647

> <Gold.PLP.ligand.clash>
0.0000

> <Gold.PLP.ligand.torsion>
0.7399

> <Gold.PLP.Chemscore.Hbond>
2.7520

> <Gold.PLP.Chemscore.CHOScore>
0.9278

> <Gold.PLP.Chemscore.Metal>
0.0000

> <Gold.Chemscore.Hbonds>
donor molecule, donor type, donor heavy atom, donor atom, acceptor molecule, acceptor atom, score
      L1  H     1    18       P1 10171  1.00
      L1  H     1    19       P1  7921  1.00
      L1  H     9    28       P1 10747  0.24
      L1  C    15    30       P1  7948  0.20

> <Gold.PLP.Chemscore.Internal.Correction>
0.0182

> <Gold.Rescore>
     Score         DG    S(hbond)    S(metal)    S(lipo)     H(rot)  DE(clash)    DE(int)     intcor
     17.07     -17.86       2.93        0.00      64.19       1.91       0.06       0.74       ----

> <Gold.Chemscore.Fitness>
17.0690

> <Gold.Chemscore.DG>
-17.8630

> <Gold.Chemscore.ZeroCoef>
-5.4800

> <Gold.Chemscore.Hbond>
2.9261

> <Gold.Chemscore.Metal>
0.0000

> <Gold.Chemscore.Lipo>
64.1904

> <Gold.Chemscore.Internal_Hbond>
0.0000

> <Gold.Chemscore.DEClash>
0.0580

> <Gold.Chemscore.DEInternal>
0.7361

> <Gold.Chemscore.Rot>
1.9142

> <Gold.Chemscore.Internal.Correction>
   9.000000E+99

> <Gold.Chemscore.Hbonds>
donor molecule, donor type, donor heavy atom, donor atom, acceptor molecule, acceptor atom, score
      L1  H     1    18       P1 10171  0.99
      L1  H     1    19       P1  7921  0.98
      L1  H     9    28       P1 10747  0.23

> <Gold.Chemscore.Hbond.Weighted>
-9.7730

> <Gold.Chemscore.Metal.Weighted>
-0.0000

> <Gold.Chemscore.Lipo.Weighted>
-7.5103

> <Gold.Chemscore.Internal_Hbond.Weighted>
0.0000

> <Gold.Chemscore.DEClash.Weighted>
0.0580

> <Gold.Chemscore.DEInternal.Weighted>
0.7361

> <Gold.Chemscore.Rot.Weighted>
4.9002

> <Gold.Chemscore.Internal.Correction.Weighted>
   9.000000E+99

> <Gold.Protein.RotatedTorsions>
[ 6907 6896 6895 6894 ] final -102.58 input  -60.11 | X-H torsion
[ 7974 7965 7964 7962 ] final   94.53 input  175.53 | X-H torsion
[ 8008 7997 7996 7995 ] final -135.74 input   59.86 | X-H torsion
[ 10167 10162 10161 10158 ] final   41.50 input  -65.29 | X-H torsion
[ 10718 10713 10712 10709 ] final -121.97 input   66.30 | X-H torsion
[ 10763 10752 10751 10750 ] final  -62.04 input  -60.55 | X-H torsion
[ 11005 11000 10999 10996 ] final  178.94 input  -57.11 | X-H torsion

> <Gold.Protein.ActiveResidues>
 VAL166  LYS551  ARG553  GLY616  TRP617  ASP618  TYR619  PRO620  LYS621  CYS622 
 ASP623  PHE694  ASN695  SER759  ASP760  ASP761  ALA762  ILE779  LEU786  VAL792 
 PHE793  MET794  SER795  GLU796  ALA797  LYS798  CYS799  TRP800  GLU811  SER814 

> <Gold.Protein.RotatedAtoms>
  150.7202  134.0559  159.3814 H   0  0  0  0  0  0  0  0  0  0  0  0  # atno 6907 bound_to 6896
  151.8538  135.0546  160.0471 H   0  0  0  0  0  0  0  0  0  0  0  0  # atno 6908 bound_to 6896
  152.2770  133.5399  159.5511 H   0  0  0  0  0  0  0  0  0  0  0  0  # atno 6909 bound_to 6896
  145.4643  139.2285  143.2970 H   0  0  0  0  0  0  0  0  0  0  0  0  # atno 7974 bound_to 7965
  155.3836  140.0495  157.3043 H   0  0  0  0  0  0  0  0  0  0  0  0  # atno 8008 bound_to 7997
  154.5070  140.2178  155.9193 H   0  0  0  0  0  0  0  0  0  0  0  0  # atno 8009 bound_to 7997
  156.1537  140.3130  155.8696 H   0  0  0  0  0  0  0  0  0  0  0  0  # atno 8010 bound_to 7997
  140.3637  144.2195  150.6136 H   0  0  0  0  0  0  0  0  0  0  0  0  # atno 10167 bound_to 10162
  156.1380  130.6445  150.9727 H   0  0  0  0  0  0  0  0  0  0  0  0  # atno 10718 bound_to 10713
  154.2938  135.6248  153.5396 H   0  0  0  0  0  0  0  0  0  0  0  0  # atno 10763 bound_to 10752
  152.9849  135.5662  154.5361 H   0  0  0  0  0  0  0  0  0  0  0  0  # atno 10764 bound_to 10752
  154.4977  135.2870  155.1422 H   0  0  0  0  0  0  0  0  0  0  0  0  # atno 10765 bound_to 10752
  140.4006  134.6780  157.4560 H   0  0  0  0  0  0  0  0  0  0  0  0  # atno 11005 bound_to 11000
  146.2433  140.5415  142.8924 LP  0  0  0  0  0  0  0  0  0  0  0  0  # atno 17320 bound_to 7965
  144.7984  140.6166  143.6495 LP  0  0  0  0  0  0  0  0  0  0  0  0  # atno 17321 bound_to 7965
  140.5101  143.2293  151.8548 LP  0  0  0  0  0  0  0  0  0  0  0  0  # atno 17342 bound_to 10162
  139.4811  144.4959  151.9124 LP  0  0  0  0  0  0  0  0  0  0  0  0  # atno 17343 bound_to 10162
  157.6550  131.0891  150.7967 LP  0  0  0  0  0  0  0  0  0  0  0  0  # atno 17370 bound_to 10713
  156.8045  130.4932  149.5365 LP  0  0  0  0  0  0  0  0  0  0  0  0  # atno 17371 bound_to 10713
  140.0339  134.6366  155.9070 LP  0  0  0  0  0  0  0  0  0  0  0  0  # atno 17394 bound_to 11000
  141.1858  133.6556  156.5212 LP  0  0  0  0  0  0  0  0  0  0  0  0  # atno 17395 bound_to 11000

$$$$
