AV-unprocessed.smi:2328|AV-procd|sdf|9300|dock1
  -GOLD-   2272012523D 1   1.00000     0.00000
 Structure written by MMmdl.
 40 40  0  0  0  0  0  0  0  0  1 V2000
  151.2547  135.7207  156.4122 C   0  0  0  0  0  0  0  0  0  0  0  0
  151.1228  136.7966  155.3186 C   0  0  0  0  0  0  0  0  0  0  0  0
  150.2663  138.0563  155.6866 C   0  0  1  0  0  0  0  0  0  0  0  0
  150.7812  138.6701  156.9312 N   0  0  0  0  0  0  0  0  0  0  0  0
  151.8694  139.4171  157.2152 C   0  0  0  0  0  0  0  0  0  0  0  0
  152.6581  139.7036  156.3159 O   0  0  0  0  0  0  0  0  0  0  0  0
  152.1424  139.9228  158.6434 C   0  0  0  0  0  0  0  0  0  0  0  0
  151.9548  141.4271  158.7475 C   0  0  0  0  0  0  0  0  0  0  0  0
  152.5207  142.1592  159.8119 C   0  0  0  0  0  0  0  0  0  0  0  0
  152.3125  143.5509  159.8636 C   0  0  0  0  0  0  0  0  0  0  0  0
  151.5463  144.1527  158.8455 C   0  0  0  0  0  0  0  0  0  0  0  0
  151.0015  143.4624  157.8206 N   0  0  0  0  0  0  0  0  0  0  0  0
  151.2055  142.1284  157.7787 C   0  0  0  0  0  0  0  0  0  0  0  0
  150.2882  139.0666  154.5004 C   0  0  0  0  0  0  0  0  0  0  0  0
  149.9025  138.6465  153.2896 N   0  0  0  0  0  0  0  0  0  0  0  0
  150.6482  140.2296  154.6754 O   0  0  0  0  0  0  0  0  0  0  0  0
  148.7772  137.6377  155.9886 C   0  0  0  0  0  0  0  0  0  0  0  0
  148.5489  136.9299  157.3433 C   0  0  0  0  0  0  0  0  0  0  0  0
  148.1120  136.7990  154.8716 C   0  0  0  0  0  0  0  0  0  0  0  0
  151.8964  134.9091  156.0688 H   0  0  0  0  0  0  0  0  0  0  0  0
  150.2916  135.2800  156.6662 H   0  0  0  0  0  0  0  0  0  0  0  0
  151.6976  136.1172  157.3254 H   0  0  0  0  0  0  0  0  0  0  0  0
  152.1279  137.0928  155.0244 H   0  0  0  0  0  0  0  0  0  0  0  0
  150.7301  136.3172  154.4228 H   0  0  0  0  0  0  0  0  0  0  0  0
  150.2041  138.4724  157.7355 H   0  0  0  0  0  0  0  0  0  0  0  0
  151.4635  139.4206  159.3330 H   0  0  0  0  0  0  0  0  0  0  0  0
  153.1544  139.6982  158.9715 H   0  0  0  0  0  0  0  0  0  0  0  0
  153.1006  141.6649  160.5775 H   0  0  0  0  0  0  0  0  0  0  0  0
  152.7288  144.1429  160.6654 H   0  0  0  0  0  0  0  0  0  0  0  0
  151.3668  145.2176  158.8546 H   0  0  0  0  0  0  0  0  0  0  0  0
  150.7551  141.6043  156.9485 H   0  0  0  0  0  0  0  0  0  0  0  0
  149.9088  139.2879  152.5097 H   0  0  0  0  0  0  0  0  0  0  0  0
  149.6052  137.6901  153.1608 H   0  0  0  0  0  0  0  0  0  0  0  0
  148.1910  138.5557  156.0306 H   0  0  0  0  0  0  0  0  0  0  0  0
  149.1028  135.9943  157.4182 H   0  0  0  0  0  0  0  0  0  0  0  0
  147.4944  136.6875  157.4774 H   0  0  0  0  0  0  0  0  0  0  0  0
  148.8268  137.5566  158.1895 H   0  0  0  0  0  0  0  0  0  0  0  0
  148.5625  135.8106  154.7824 H   0  0  0  0  0  0  0  0  0  0  0  0
  148.1712  137.2828  153.8969 H   0  0  0  0  0  0  0  0  0  0  0  0
  147.0526  136.6487  155.0814 H   0  0  0  0  0  0  0  0  0  0  0  0
  1  2  1  0  0  0  0
  1 20  1  0  0  0  0
  1 21  1  0  0  0  0
  1 22  1  0  0  0  0
  2  3  1  0  0  0  0
  2 23  1  0  0  0  0
  2 24  1  0  0  0  0
  3  4  1  0  0  0  0
  3 14  1  0  0  0  0
  3 17  1  0  0  0  0
  4  5  1  0  0  0  0
  4 25  1  0  0  0  0
  5  6  2  0  0  0  0
  5  7  1  0  0  0  0
  7  8  1  0  0  0  0
  7 26  1  0  0  0  0
  7 27  1  0  0  0  0
  8 13  1  0  0  0  0
  8  9  2  0  0  0  0
  9 10  1  0  0  0  0
  9 28  1  0  0  0  0
 10 11  2  0  0  0  0
 10 29  1  0  0  0  0
 11 12  1  0  0  0  0
 11 30  1  0  0  0  0
 12 13  2  0  0  0  0
 13 31  1  0  0  0  0
 14 15  1  0  0  0  0
 14 16  2  0  0  0  0
 15 32  1  0  0  0  0
 15 33  1  0  0  0  0
 17 18  1  0  0  0  0
 17 19  1  0  0  0  0
 17 34  1  0  0  0  0
 18 35  1  0  0  0  0
 18 36  1  0  0  0  0
 18 37  1  0  0  0  0
 19 38  1  0  0  0  0
 19 39  1  0  0  0  0
 19 40  1  0  0  0  0
M  END
> <s_m_source_file>
AV-unprocessed.smi

> <i_m_source_file_index>
2328

> <i_lp_mmshare_version>
43012

> <i_f3d_flags>
0

> <s_epik_input>
W0NIM11bQ0gyXVtDQEBdKEMoPU8pW05IMl0pKFtDSF0oW0NIM10pW0NIM10pW05IXUMoPU8pW0NIMl1jMVtjSF1bY0hdW2NIXW5bY0hdMQ==

> <s_epik_cmdline>
J2VwaWtfcHl0aG9uJywgJy1waCcsICc3LjAnLCAnLXRuJywgJzgnLCAnLW1hJywgJzIwMCcsICctbWV0YWxfYmluZGluZycsICctaW1hZScsICc8aW5maWxlLm1hZT4nLCAnLW9tYWUnLCAnPG91dGZpbGUubWFlPic=

> <r_epik_Ionization_Penalty>
0.00378489

> <r_epik_Ionization_Penalty_Charging>
0

> <r_epik_Ionization_Penalty_Neutral>
0.00378489

> <r_epik_State_Penalty>
0.00269972

> <r_epik_Charging_Adjusted_Penalty>
0.00269972

> <i_epik_Tot_Q>
0

> <i_epik_Tot_abs_Q>
0

> <r_epik_Metal_State_Penalty>
-0

> <b_epik_Metal_Only>
0

> <s_lp_Force_Field>
OPLS_2005

> <r_lp_Energy>
14.3821

> <b_lp_Chiralities_Consistent>
1

> <s_lp_Variant>
AV-unprocessed.smi:2328-1

> <Gold.Version>
5.8.1

> <Gold.Id.Protein>
6NUR|6NUR_protein|mol2

> <Gold.PLP.Fitness>
42.2748

> <Gold.PLP.PLP>
-32.1371

> <Gold.PLP.part.hbond>
-4.0000

> <Gold.PLP.part.metal>
0.0000

> <Gold.PLP.part.buried>
-5.5215

> <Gold.PLP.part.nonpolar>
-23.0755

> <Gold.PLP.part.repulsive>
0.3184

> <Gold.PLP.ligand.clash>
0.0000

> <Gold.PLP.ligand.torsion>
0.8786

> <Gold.PLP.Chemscore.Hbond>
3.8723

> <Gold.PLP.Chemscore.CHOScore>
0.0000

> <Gold.PLP.Chemscore.Metal>
0.0000

> <Gold.Chemscore.Hbonds>
donor molecule, donor type, donor heavy atom, donor atom, acceptor molecule, acceptor atom, score
      L1  H    15    32       P1  7957  1.00
      L1  H    15    33       P1  7948  0.93
      P1  H  7989  7998       L1    16  1.00
      P1  H  7997  8010       L1     6  1.00

> <Gold.PLP.Chemscore.Internal.Correction>
0.2778

> <Gold.Rescore>
     Score         DG    S(hbond)    S(metal)    S(lipo)     H(rot)  DE(clash)    DE(int)     intcor
     15.77     -20.41       3.62        0.00      74.51       2.29       0.05       4.59       ----

> <Gold.Chemscore.Fitness>
15.7711

> <Gold.Chemscore.DG>
-20.4132

> <Gold.Chemscore.ZeroCoef>
-5.4800

> <Gold.Chemscore.Hbond>
3.6176

> <Gold.Chemscore.Metal>
0.0000

> <Gold.Chemscore.Lipo>
74.5128

> <Gold.Chemscore.Internal_Hbond>
0.0000

> <Gold.Chemscore.DEClash>
0.0494

> <Gold.Chemscore.DEInternal>
4.5927

> <Gold.Chemscore.Rot>
2.2921

> <Gold.Chemscore.Internal.Correction>
   9.000000E+99

> <Gold.Chemscore.Hbonds>
donor molecule, donor type, donor heavy atom, donor atom, acceptor molecule, acceptor atom, score
      L1  H    15    32       P1  7957  0.85
      L1  H    15    33       P1  7948  0.67
      P1  H  7989  7998       L1    16  0.92
      P1  H  7997  8010       L1     6  1.00

> <Gold.Chemscore.Hbond.Weighted>
-12.0829

> <Gold.Chemscore.Metal.Weighted>
-0.0000

> <Gold.Chemscore.Lipo.Weighted>
-8.7180

> <Gold.Chemscore.Internal_Hbond.Weighted>
0.0000

> <Gold.Chemscore.DEClash.Weighted>
0.0494

> <Gold.Chemscore.DEInternal.Weighted>
4.5927

> <Gold.Chemscore.Rot.Weighted>
5.8677

> <Gold.Chemscore.Internal.Correction.Weighted>
   9.000000E+99

> <Gold.Protein.RotatedTorsions>
[ 6907 6896 6895 6894 ] final  -80.51 input  -60.11 | X-H torsion
[ 7974 7965 7964 7962 ] final -171.14 input  175.53 | X-H torsion
[ 8008 7997 7996 7995 ] final   69.09 input   59.86 | X-H torsion
[ 10167 10162 10161 10158 ] final   -8.61 input  -65.29 | X-H torsion
[ 10718 10713 10712 10709 ] final  -53.84 input   66.30 | X-H torsion
[ 10763 10752 10751 10750 ] final  121.27 input  -60.55 | X-H torsion
[ 11005 11000 10999 10996 ] final -155.27 input  -57.11 | X-H torsion

> <Gold.Protein.ActiveResidues>
 VAL166  LYS551  ARG553  GLY616  TRP617  ASP618  TYR619  PRO620  LYS621  CYS622 
 ASP623  PHE694  ASN695  SER759  ASP760  ASP761  ALA762  ILE779  LEU786  VAL792 
 PHE793  MET794  SER795  GLU796  ALA797  LYS798  CYS799  TRP800  GLU811  SER814 

> <Gold.Protein.RotatedAtoms>
  150.6928  134.3958  159.5096 H   0  0  0  0  0  0  0  0  0  0  0  0  # atno 6907 bound_to 6896
  152.1739  134.8808  160.0541 H   0  0  0  0  0  0  0  0  0  0  0  0  # atno 6908 bound_to 6896
  151.9824  133.3727  159.4149 H   0  0  0  0  0  0  0  0  0  0  0  0  # atno 6909 bound_to 6896
  144.7161  140.1966  143.6343 H   0  0  0  0  0  0  0  0  0  0  0  0  # atno 7974 bound_to 7965
  155.7183  140.3493  155.5004 H   0  0  0  0  0  0  0  0  0  0  0  0  # atno 8008 bound_to 7997
  155.9293  140.1081  157.1167 H   0  0  0  0  0  0  0  0  0  0  0  0  # atno 8009 bound_to 7997
  154.4082  140.1234  156.4768 H   0  0  0  0  0  0  0  0  0  0  0  0  # atno 8010 bound_to 7997
  140.7064  143.5949  150.8856 H   0  0  0  0  0  0  0  0  0  0  0  0  # atno 10167 bound_to 10162
  156.1501  130.4151  149.9959 H   0  0  0  0  0  0  0  0  0  0  0  0  # atno 10718 bound_to 10713
  153.6115  135.3429  155.2980 H   0  0  0  0  0  0  0  0  0  0  0  0  # atno 10763 bound_to 10752
  154.8617  135.4251  154.2304 H   0  0  0  0  0  0  0  0  0  0  0  0  # atno 10764 bound_to 10752
  153.3156  135.7034  153.7148 H   0  0  0  0  0  0  0  0  0  0  0  0  # atno 10765 bound_to 10752
  140.6883  134.4070  157.5221 H   0  0  0  0  0  0  0  0  0  0  0  0  # atno 11005 bound_to 11000
  145.8719  139.2276  143.1656 LP  0  0  0  0  0  0  0  0  0  0  0  0  # atno 17320 bound_to 7965
  146.0077  140.8464  142.9987 LP  0  0  0  0  0  0  0  0  0  0  0  0  # atno 17321 bound_to 7965
  139.9674  143.6095  152.2984 LP  0  0  0  0  0  0  0  0  0  0  0  0  # atno 17342 bound_to 10162
  139.6669  144.7662  151.1856 LP  0  0  0  0  0  0  0  0  0  0  0  0  # atno 17343 bound_to 10162
  156.7819  130.9224  151.3646 LP  0  0  0  0  0  0  0  0  0  0  0  0  # atno 17370 bound_to 10713
  157.6649  130.8999  149.9911 LP  0  0  0  0  0  0  0  0  0  0  0  0  # atno 17371 bound_to 10713
  139.8931  134.8739  156.2239 LP  0  0  0  0  0  0  0  0  0  0  0  0  # atno 17394 bound_to 11000
  141.0262  133.7013  156.1352 LP  0  0  0  0  0  0  0  0  0  0  0  0  # atno 17395 bound_to 11000

$$$$
