AV-unprocessed.smi:155|AV-procd|sdf|1267|dock2
  -GOLD-   2262018523D 1   1.00000     0.00000
 Structure written by MMmdl.
 63 66  0  0  0  0  0  0  0  0  2 V2000
  143.6074  137.0104  162.2490 C   0  0  0  0  0  0  0  0  0  0  0  0
  143.7042  135.6372  161.7659 N   0  0  0  0  0  0  0  0  0  0  0  0
  144.4675  134.8653  162.7377 C   0  0  0  0  0  0  0  0  0  0  0  0
  144.3711  135.5632  160.4660 C   0  0  0  0  0  0  0  0  0  0  0  0
  145.7763  136.2151  160.4419 C   0  0  0  0  0  0  0  0  0  0  0  0
  146.5549  135.9957  159.1933 N   0  3  2  0  0  0  0  0  0  0  0  0
  145.7758  136.2042  157.9411 C   0  0  0  0  0  0  0  0  0  0  0  0
  146.5901  135.9812  156.6491 C   0  0  0  0  0  0  0  0  0  0  0  0
  147.9656  136.6771  156.6243 C   0  0  0  0  0  0  0  0  0  0  0  0
  148.8362  136.2612  157.7272 N   0  0  0  0  0  0  0  0  0  0  0  0
  149.7636  137.1323  158.2039 C   0  0  0  0  0  0  0  0  0  0  0  0
  150.4503  136.7895  159.3254 N   0  0  0  0  0  0  0  0  0  0  0  0
  151.3670  137.6145  159.8394 C   0  0  0  0  0  0  0  0  0  0  0  0
  151.7535  138.8110  159.3951 N   0  0  0  0  0  0  0  0  0  0  0  0
  151.0802  139.1572  158.2616 C   0  0  0  0  0  0  0  0  0  0  0  0
  150.0808  138.3860  157.6015 C   0  0  0  0  0  0  0  0  0  0  0  0
  149.6463  139.0617  156.4656 N   0  0  0  0  0  0  0  0  0  0  0  0
  150.3301  140.1733  156.4681 C   0  0  0  0  0  0  0  0  0  0  0  0
  151.2131  140.3123  157.5133 N   0  0  0  0  0  0  0  0  0  0  0  0
  152.0952  141.4382  157.7688 C   0  0  0  0  0  0  0  0  0  0  0  0
  151.3298  142.7794  157.8428 C   0  0  2  0  0  0  0  0  0  0  0  0
  150.9314  143.1120  156.5256 O   0  0  0  0  0  0  0  0  0  0  0  0
  152.1694  143.9633  158.3756 C   0  0  2  0  0  0  0  0  0  0  0  0
  152.6781  143.8122  159.8218 C   0  0  0  0  0  0  0  0  0  0  0  0
  151.6630  144.5757  160.6413 C   0  0  0  0  0  0  0  0  0  0  0  0
  151.3301  145.7180  159.6978 C   0  0  0  0  0  0  0  0  0  0  0  0
  151.3069  145.1054  158.4161 O   0  0  0  0  0  0  0  0  0  0  0  0
  148.6882  134.9322  158.3248 C   0  0  0  0  0  0  0  0  0  0  0  0
  147.4233  134.7865  159.2085 C   0  0  0  0  0  0  0  0  0  0  0  0
  142.9782  137.6201  161.6023 H   0  0  0  0  0  0  0  0  0  0  0  0
  144.5898  137.4804  162.3147 H   0  0  0  0  0  0  0  0  0  0  0  0
  143.1564  137.0320  163.2420 H   0  0  0  0  0  0  0  0  0  0  0  0
  144.5389  133.8215  162.4304 H   0  0  0  0  0  0  0  0  0  0  0  0
  143.9798  134.8870  163.7132 H   0  0  0  0  0  0  0  0  0  0  0  0
  145.4792  135.2576  162.8532 H   0  0  0  0  0  0  0  0  0  0  0  0
  144.4581  134.5130  160.1825 H   0  0  0  0  0  0  0  0  0  0  0  0
  143.7420  136.0211  159.7024 H   0  0  0  0  0  0  0  0  0  0  0  0
  145.7434  137.2788  160.6737 H   0  0  0  0  0  0  0  0  0  0  0  0
  146.3601  135.7734  161.2504 H   0  0  0  0  0  0  0  0  0  0  0  0
  144.9159  135.5370  157.9161 H   0  0  0  0  0  0  0  0  0  0  0  0
  145.3831  137.2217  157.9500 H   0  0  0  0  0  0  0  0  0  0  0  0
  146.7132  134.9124  156.4725 H   0  0  0  0  0  0  0  0  0  0  0  0
  146.0024  136.3377  155.8026 H   0  0  0  0  0  0  0  0  0  0  0  0
  148.4702  136.4658  155.6810 H   0  0  0  0  0  0  0  0  0  0  0  0
  147.8101  137.7563  156.6641 H   0  0  0  0  0  0  0  0  0  0  0  0
  151.8602  137.2663  160.7351 H   0  0  0  0  0  0  0  0  0  0  0  0
  150.2069  140.9289  155.7057 H   0  0  0  0  0  0  0  0  0  0  0  0
  152.6210  141.2286  158.6987 H   0  0  0  0  0  0  0  0  0  0  0  0
  152.8519  141.4746  156.9837 H   0  0  0  0  0  0  0  0  0  0  0  0
  150.4370  142.6553  158.4573 H   0  0  0  0  0  0  0  0  0  0  0  0
  150.4837  143.9443  156.5535 H   0  0  0  0  0  0  0  0  0  0  0  0
  153.0130  144.1575  157.7112 H   0  0  0  0  0  0  0  0  0  0  0  0
  152.8020  142.7878  160.1659 H   0  0  0  0  0  0  0  0  0  0  0  0
  153.6498  144.2996  159.9142 H   0  0  0  0  0  0  0  0  0  0  0  0
  150.7800  143.9603  160.8198 H   0  0  0  0  0  0  0  0  0  0  0  0
  152.0514  144.9127  161.6027 H   0  0  0  0  0  0  0  0  0  0  0  0
  150.3791  146.1974  159.9316 H   0  0  0  0  0  0  0  0  0  0  0  0
  152.1137  146.4769  159.7190 H   0  0  0  0  0  0  0  0  0  0  0  0
  148.6420  134.2075  157.5114 H   0  0  0  0  0  0  0  0  0  0  0  0
  149.5804  134.6559  158.8874 H   0  0  0  0  0  0  0  0  0  0  0  0
  147.7538  134.6022  160.2313 H   0  0  0  0  0  0  0  0  0  0  0  0
  146.8492  133.9072  158.9135 H   0  0  0  0  0  0  0  0  0  0  0  0
  147.2176  136.7581  159.1940 H   0  0  0  0  0  0  0  0  0  0  0  0
  1  2  1  0  0  0  0
  1 30  1  0  0  0  0
  1 31  1  0  0  0  0
  1 32  1  0  0  0  0
  2  3  1  0  0  0  0
  2  4  1  0  0  0  0
  3 33  1  0  0  0  0
  3 34  1  0  0  0  0
  3 35  1  0  0  0  0
  4  5  1  0  0  0  0
  4 36  1  0  0  0  0
  4 37  1  0  0  0  0
  5  6  1  0  0  0  0
  5 38  1  0  0  0  0
  5 39  1  0  0  0  0
  6 29  1  0  0  0  0
  6  7  1  0  0  0  0
  6 63  1  0  0  0  0
  7  8  1  0  0  0  0
  7 40  1  0  0  0  0
  7 41  1  0  0  0  0
  8  9  1  0  0  0  0
  8 42  1  0  0  0  0
  8 43  1  0  0  0  0
  9 10  1  0  0  0  0
  9 44  1  0  0  0  0
  9 45  1  0  0  0  0
 10 11  1  0  0  0  0
 10 28  1  0  0  0  0
 11 16  1  0  0  0  0
 11 12  2  0  0  0  0
 12 13  1  0  0  0  0
 13 14  2  0  0  0  0
 13 46  1  0  0  0  0
 14 15  1  0  0  0  0
 15 19  1  0  0  0  0
 15 16  2  0  0  0  0
 16 17  1  0  0  0  0
 17 18  2  0  0  0  0
 18 19  1  0  0  0  0
 18 47  1  0  0  0  0
 19 20  1  0  0  0  0
 20 21  1  0  0  0  0
 20 48  1  0  0  0  0
 20 49  1  0  0  0  0
 21 22  1  0  0  0  0
 21 23  1  0  0  0  0
 21 50  1  0  0  0  0
 22 51  1  0  0  0  0
 23 27  1  0  0  0  0
 23 24  1  0  0  0  0
 23 52  1  0  0  0  0
 24 25  1  0  0  0  0
 24 53  1  0  0  0  0
 24 54  1  0  0  0  0
 25 26  1  0  0  0  0
 25 55  1  0  0  0  0
 25 56  1  0  0  0  0
 26 27  1  0  0  0  0
 26 57  1  0  0  0  0
 26 58  1  0  0  0  0
 28 29  1  0  0  0  0
 28 59  1  0  0  0  0
 28 60  1  0  0  0  0
 29 61  1  0  0  0  0
 29 62  1  0  0  0  0
M  CHG  1   6   1
M  END
> <s_m_source_file>
AV-unprocessed.smi

> <i_m_source_file_index>
155

> <i_lp_mmshare_version>
43012

> <i_f3d_flags>
0

> <s_epik_input>
W0NIM11OKFtDSDNdKVtDSDJdW0NIMl1OMVtDSDJdW0NIMl1bQ0gyXU4oW0NIMl1bQ0gyXTEpYyhuW2NIXW4yKWMoYzIzKW5bY0hdbjNbQ0gyXVtDQEhdKFtPSF0pW0NAQEhdNFtDSDJdW0NIMl1bQ0gyXU80

> <s_epik_cmdline>
J2VwaWtfcHl0aG9uJywgJy1waCcsICc3LjAnLCAnLXRuJywgJzgnLCAnLW1hJywgJzIwMCcsICctbWV0YWxfYmluZGluZycsICctaW1hZScsICc8aW5maWxlLm1hZT4nLCAnLW9tYWUnLCAnPG91dGZpbGUubWFlPic=

> <r_epik_Ionization_Penalty>
0.0619615

> <r_epik_Ionization_Penalty_Charging>
0.0161638

> <r_epik_Ionization_Penalty_Neutral>
0.0457976

> <r_epik_State_Penalty>
0.403408

> <r_epik_Charging_Adjusted_Penalty>
0.419572

> <i_epik_Tot_Q>
1

> <i_epik_Tot_abs_Q>
1

> <r_epik_Metal_State_Penalty>
0.404222

> <b_epik_Metal_Only>
0

> <s_lp_Force_Field>
OPLS_2005

> <r_lp_Energy>
58.592

> <b_lp_Chiralities_Consistent>
1

> <s_lp_Variant>
AV-unprocessed.smi:155-1

> <Gold.Version>
5.8.1

> <Gold.Id.Protein>
6NUR|6NUR_protein|mol2

> <Gold.PLP.Fitness>
42.4199

> <Gold.PLP.PLP>
-38.3546

> <Gold.PLP.part.hbond>
-2.0000

> <Gold.PLP.part.metal>
0.0000

> <Gold.PLP.part.buried>
-7.5635

> <Gold.PLP.part.nonpolar>
-28.6107

> <Gold.PLP.part.repulsive>
0.1609

> <Gold.PLP.ligand.clash>
0.0000

> <Gold.PLP.ligand.torsion>
0.3936

> <Gold.PLP.Chemscore.Hbond>
1.5440

> <Gold.PLP.Chemscore.CHOScore>
0.0000

> <Gold.PLP.Chemscore.Metal>
0.0000

> <Gold.Chemscore.Hbonds>
donor molecule, donor type, donor heavy atom, donor atom, acceptor molecule, acceptor atom, score
      L1  H    22    51       P1  8028  0.74
      P1  H  6896  6909       L1    12  1.00

> <Gold.PLP.Chemscore.Internal.Correction>
0.2205

> <Gold.Rescore>
     Score         DG    S(hbond)    S(metal)    S(lipo)     H(rot)  DE(clash)    DE(int)     intcor
     11.97     -14.64       1.56        0.00      91.31       2.63       0.08       2.58       ----

> <Gold.Chemscore.Fitness>
11.9722

> <Gold.Chemscore.DG>
-14.6388

> <Gold.Chemscore.ZeroCoef>
-5.4800

> <Gold.Chemscore.Hbond>
1.5611

> <Gold.Chemscore.Metal>
0.0000

> <Gold.Chemscore.Lipo>
91.3138

> <Gold.Chemscore.Internal_Hbond>
0.0000

> <Gold.Chemscore.DEClash>
0.0840

> <Gold.Chemscore.DEInternal>
2.5826

> <Gold.Chemscore.Rot>
2.6324

> <Gold.Chemscore.Internal.Correction>
   9.000000E+99

> <Gold.Chemscore.Hbonds>
donor molecule, donor type, donor heavy atom, donor atom, acceptor molecule, acceptor atom, score
      L1  H    22    51       P1  8028  0.73
      P1  H  6896  6909       L1    12  0.75

> <Gold.Chemscore.Hbond.Weighted>
-5.2139

> <Gold.Chemscore.Metal.Weighted>
-0.0000

> <Gold.Chemscore.Lipo.Weighted>
-10.6837

> <Gold.Chemscore.Internal_Hbond.Weighted>
0.0000

> <Gold.Chemscore.DEClash.Weighted>
0.0840

> <Gold.Chemscore.DEInternal.Weighted>
2.5826

> <Gold.Chemscore.Rot.Weighted>
6.7389

> <Gold.Chemscore.Internal.Correction.Weighted>
   9.000000E+99

> <Gold.Protein.RotatedTorsions>
[ 6907 6896 6895 6894 ] final   73.78 input  -60.11 | X-H torsion
[ 7974 7965 7964 7962 ] final   74.56 input  175.53 | X-H torsion
[ 8008 7997 7996 7995 ] final -133.78 input   59.86 | X-H torsion
[ 10167 10162 10161 10158 ] final   32.84 input  -65.29 | X-H torsion
[ 10718 10713 10712 10709 ] final    9.38 input   66.30 | X-H torsion
[ 10763 10752 10751 10750 ] final  -53.32 input  -60.55 | X-H torsion
[ 11005 11000 10999 10996 ] final   93.27 input  -57.11 | X-H torsion

> <Gold.Protein.ActiveResidues>
 VAL166  LYS551  ARG553  GLY616  TRP617  ASP618  TYR619  PRO620  LYS621  CYS622 
 ASP623  PHE694  ASN695  SER759  ASP760  ASP761  ALA762  ILE779  LEU786  VAL792 
 PHE793  MET794  SER795  GLU796  ALA797  LYS798  CYS799  TRP800  GLU811  SER814 

> <Gold.Protein.RotatedAtoms>
  152.4941  134.4370  159.9530 H   0  0  0  0  0  0  0  0  0  0  0  0  # atno 6907 bound_to 6896
  151.4352  133.3653  159.2782 H   0  0  0  0  0  0  0  0  0  0  0  0  # atno 6908 bound_to 6896
  150.9126  134.8566  159.7495 H   0  0  0  0  0  0  0  0  0  0  0  0  # atno 6909 bound_to 6896
  145.7267  139.2668  143.1565 H   0  0  0  0  0  0  0  0  0  0  0  0  # atno 7974 bound_to 7965
  155.3512  140.0477  157.3046 H   0  0  0  0  0  0  0  0  0  0  0  0  # atno 8008 bound_to 7997
  154.5226  140.2230  155.8912 H   0  0  0  0  0  0  0  0  0  0  0  0  # atno 8009 bound_to 7997
  156.1706  140.3096  155.8972 H   0  0  0  0  0  0  0  0  0  0  0  0  # atno 8010 bound_to 7997
  140.4462  144.1116  150.6183 H   0  0  0  0  0  0  0  0  0  0  0  0  # atno 10167 bound_to 10162
  156.9655  130.5949  149.5665 H   0  0  0  0  0  0  0  0  0  0  0  0  # atno 10718 bound_to 10713
  154.1569  135.6481  153.4976 H   0  0  0  0  0  0  0  0  0  0  0  0  # atno 10763 bound_to 10752
  153.0122  135.5351  154.6751 H   0  0  0  0  0  0  0  0  0  0  0  0  # atno 10764 bound_to 10752
  154.6054  135.2948  155.0462 H   0  0  0  0  0  0  0  0  0  0  0  0  # atno 10765 bound_to 10752
  139.8812  134.8780  156.3694 H   0  0  0  0  0  0  0  0  0  0  0  0  # atno 11005 bound_to 11000
  146.0575  140.8005  142.9751 LP  0  0  0  0  0  0  0  0  0  0  0  0  # atno 17320 bound_to 7965
  144.6903  140.3146  143.7242 LP  0  0  0  0  0  0  0  0  0  0  0  0  # atno 17321 bound_to 7965
  140.4261  143.2589  151.9654 LP  0  0  0  0  0  0  0  0  0  0  0  0  # atno 17342 bound_to 10162
  139.4793  144.5787  151.7969 LP  0  0  0  0  0  0  0  0  0  0  0  0  # atno 17343 bound_to 10162
  156.0304  130.5396  150.8519 LP  0  0  0  0  0  0  0  0  0  0  0  0  # atno 17370 bound_to 10713
  157.5628  131.0946  150.9533 LP  0  0  0  0  0  0  0  0  0  0  0  0  # atno 17371 bound_to 10713
  140.9475  133.7473  156.0227 LP  0  0  0  0  0  0  0  0  0  0  0  0  # atno 17394 bound_to 11000
  140.8146  134.3360  157.5401 LP  0  0  0  0  0  0  0  0  0  0  0  0  # atno 17395 bound_to 11000

$$$$
