AV-unprocessed.smi:1764|AV-procd|sdf|7132|dock9
  -GOLD-   22720 8373D 1   1.00000     0.00000
 Structure written by MMmdl.
 31 32  0  0  0  0  0  0  0  0  1 V2000
  144.7751  137.2081  152.2461 O   0  0  0  0  0  0  0  0  0  0  0  0
  145.9641  136.9272  152.0922 C   0  0  0  0  0  0  0  0  0  0  0  0
  146.9637  137.7940  152.3114 N   0  0  0  0  0  0  0  0  0  0  0  0
  146.7955  139.1775  152.7424 C   0  0  0  0  0  0  0  0  0  0  0  0
  147.7231  139.5177  153.9204 C   0  0  2  0  0  0  0  0  0  0  0  0
  148.1339  140.9885  153.9763 C   0  0  0  0  0  0  0  0  0  0  0  0
  149.4708  140.9652  154.7025 C   0  0  0  0  0  0  0  0  0  0  0  0
  149.8691  139.4869  154.7077 C   0  0  0  0  0  0  0  0  0  0  0  0
  148.9759  138.8633  153.7971 O   0  0  0  0  0  0  0  0  0  0  0  0
  146.4353  135.7340  151.6886 N   0  0  0  0  0  0  0  0  0  0  0  0
  145.7001  134.5596  151.3747 C   0  0  0  0  0  0  0  0  0  0  0  0
  146.4858  133.4311  151.0480 C   0  0  0  0  0  0  0  0  0  0  0  0
  145.8524  132.2157  150.7234 C   0  0  0  0  0  0  0  0  0  0  0  0
  144.4473  132.1596  150.7345 C   0  0  0  0  0  0  0  0  0  0  0  0
  143.7398  133.3284  151.0713 C   0  0  0  0  0  0  0  0  0  0  0  0
  144.3451  134.4941  151.3825 N   0  0  0  0  0  0  0  0  0  0  0  0
  147.9105  137.4774  152.1620 H   0  0  0  0  0  0  0  0  0  0  0  0
  146.9540  139.8678  151.9118 H   0  0  0  0  0  0  0  0  0  0  0  0
  145.7572  139.3010  153.0507 H   0  0  0  0  0  0  0  0  0  0  0  0
  147.2612  139.2279  154.8663 H   0  0  0  0  0  0  0  0  0  0  0  0
  148.2764  141.3796  152.9677 H   0  0  0  0  0  0  0  0  0  0  0  0
  147.3908  141.6114  154.4749 H   0  0  0  0  0  0  0  0  0  0  0  0
  150.2059  141.5756  154.1766 H   0  0  0  0  0  0  0  0  0  0  0  0
  149.3845  141.3461  155.7208 H   0  0  0  0  0  0  0  0  0  0  0  0
  150.9066  139.3302  154.4117 H   0  0  0  0  0  0  0  0  0  0  0  0
  149.7280  139.0552  155.6997 H   0  0  0  0  0  0  0  0  0  0  0  0
  147.4374  135.6551  151.5999 H   0  0  0  0  0  0  0  0  0  0  0  0
  147.5646  133.4913  151.0449 H   0  0  0  0  0  0  0  0  0  0  0  0
  146.4351  131.3423  150.4706 H   0  0  0  0  0  0  0  0  0  0  0  0
  143.9254  131.2458  150.4918 H   0  0  0  0  0  0  0  0  0  0  0  0
  142.6600  133.3280  151.0921 H   0  0  0  0  0  0  0  0  0  0  0  0
  1  2  2  0  0  0  0
  2  3  1  0  0  0  0
  2 10  1  0  0  0  0
  3  4  1  0  0  0  0
  3 17  1  0  0  0  0
  4  5  1  0  0  0  0
  4 18  1  0  0  0  0
  4 19  1  0  0  0  0
  5  9  1  0  0  0  0
  5  6  1  0  0  0  0
  5 20  1  0  0  0  0
  6  7  1  0  0  0  0
  6 21  1  0  0  0  0
  6 22  1  0  0  0  0
  7  8  1  0  0  0  0
  7 23  1  0  0  0  0
  7 24  1  0  0  0  0
  8  9  1  0  0  0  0
  8 25  1  0  0  0  0
  8 26  1  0  0  0  0
 10 11  1  0  0  0  0
 10 27  1  0  0  0  0
 11 16  1  0  0  0  0
 11 12  2  0  0  0  0
 12 13  1  0  0  0  0
 12 28  1  0  0  0  0
 13 14  2  0  0  0  0
 13 29  1  0  0  0  0
 14 15  1  0  0  0  0
 14 30  1  0  0  0  0
 15 16  2  0  0  0  0
 15 31  1  0  0  0  0
M  END
> <s_m_source_file>
AV-unprocessed.smi

> <i_m_source_file_index>
1764

> <i_lp_mmshare_version>
43012

> <i_f3d_flags>
0

> <s_epik_input>
bjFbY0hdW2NIXVtjSF1bY0hdYzFbTkhdQyg9TylbTkhdW0NIMl1bQ0BASF0yW0NIMl1bQ0gyXVtDSDJdTzI=

> <s_epik_cmdline>
J2VwaWtfcHl0aG9uJywgJy1waCcsICc3LjAnLCAnLXRuJywgJzgnLCAnLW1hJywgJzIwMCcsICctbWV0YWxfYmluZGluZycsICctaW1hZScsICc8aW5maWxlLm1hZT4nLCAnLW9tYWUnLCAnPG91dGZpbGUubWFlPic=

> <r_lp_tautomer_probability>
1

> <r_epik_Ionization_Penalty>
4.47751e-05

> <r_epik_Ionization_Penalty_Charging>
0

> <r_epik_Ionization_Penalty_Neutral>
4.47751e-05

> <r_epik_State_Penalty>
-0

> <r_epik_Charging_Adjusted_Penalty>
0

> <i_epik_Tot_Q>
0

> <i_epik_Tot_abs_Q>
0

> <r_epik_Metal_State_Penalty>
-0

> <b_epik_Metal_Only>
0

> <s_lp_Force_Field>
OPLS_2005

> <r_lp_Energy>
19.1165

> <b_lp_Chiralities_Consistent>
1

> <s_lp_Variant>
AV-unprocessed.smi:1764-1

> <Gold.Version>
5.8.1

> <Gold.Id.Protein>
6NUR|6NUR_protein|mol2

> <Gold.PLP.Fitness>
37.2827

> <Gold.PLP.PLP>
-29.0392

> <Gold.PLP.part.hbond>
-2.0000

> <Gold.PLP.part.metal>
0.0000

> <Gold.PLP.part.buried>
-5.2218

> <Gold.PLP.part.nonpolar>
-24.9095

> <Gold.PLP.part.repulsive>
2.9657

> <Gold.PLP.ligand.clash>
0.0000

> <Gold.PLP.ligand.torsion>
0.3702

> <Gold.PLP.Chemscore.Hbond>
1.9920

> <Gold.PLP.Chemscore.CHOScore>
1.0000

> <Gold.PLP.Chemscore.Metal>
0.0000

> <Gold.Chemscore.Hbonds>
donor molecule, donor type, donor heavy atom, donor atom, acceptor molecule, acceptor atom, score
      L1  H     3    17       P1  7948  0.99
      L1  H    10    27       P1  7948  1.00
      L1  C    15    31       P1 10186  1.00

> <Gold.PLP.Chemscore.Internal.Correction>
0.0079

> <Gold.Rescore>
     Score         DG    S(hbond)    S(metal)    S(lipo)     H(rot)  DE(clash)    DE(int)     intcor
     14.26     -16.19       1.93        0.00      64.16       1.27       0.28       1.65       ----

> <Gold.Chemscore.Fitness>
14.2592

> <Gold.Chemscore.DG>
-16.1919

> <Gold.Chemscore.ZeroCoef>
-5.4800

> <Gold.Chemscore.Hbond>
1.9312

> <Gold.Chemscore.Metal>
0.0000

> <Gold.Chemscore.Lipo>
64.1624

> <Gold.Chemscore.Internal_Hbond>
0.0000

> <Gold.Chemscore.DEClash>
0.2788

> <Gold.Chemscore.DEInternal>
1.6539

> <Gold.Chemscore.Rot>
1.2678

> <Gold.Chemscore.Internal.Correction>
   9.000000E+99

> <Gold.Chemscore.Hbonds>
donor molecule, donor type, donor heavy atom, donor atom, acceptor molecule, acceptor atom, score
      L1  H     3    17       P1  7948  0.94
      L1  H    10    27       P1  7948  0.95

> <Gold.Chemscore.Hbond.Weighted>
-6.4504

> <Gold.Chemscore.Metal.Weighted>
-0.0000

> <Gold.Chemscore.Lipo.Weighted>
-7.5070

> <Gold.Chemscore.Internal_Hbond.Weighted>
0.0000

> <Gold.Chemscore.DEClash.Weighted>
0.2788

> <Gold.Chemscore.DEInternal.Weighted>
1.6539

> <Gold.Chemscore.Rot.Weighted>
3.2455

> <Gold.Chemscore.Internal.Correction.Weighted>
   9.000000E+99

> <Gold.Protein.RotatedTorsions>
[ 6907 6896 6895 6894 ] final -145.41 input  -60.11 | X-H torsion
[ 7974 7965 7964 7962 ] final   39.60 input  175.53 | X-H torsion
[ 8008 7997 7996 7995 ] final   27.14 input   59.86 | X-H torsion
[ 10167 10162 10161 10158 ] final  -81.14 input  -65.29 | X-H torsion
[ 10718 10713 10712 10709 ] final -169.67 input   66.30 | X-H torsion
[ 10763 10752 10751 10750 ] final -143.44 input  -60.55 | X-H torsion
[ 11005 11000 10999 10996 ] final  -73.96 input  -57.11 | X-H torsion

> <Gold.Protein.ActiveResidues>
 VAL166  LYS551  ARG553  GLY616  TRP617  ASP618  TYR619  PRO620  LYS621  CYS622 
 ASP623  PHE694  ASN695  SER759  ASP760  ASP761  ALA762  ILE779  LEU786  VAL792 
 PHE793  MET794  SER795  GLU796  ALA797  LYS798  CYS799  TRP800  GLU811  SER814 

> <Gold.Protein.RotatedAtoms>
  151.1274  133.5060  159.2599 H   0  0  0  0  0  0  0  0  0  0  0  0  # atno 6907 bound_to 6896
  151.1794  135.0354  159.8796 H   0  0  0  0  0  0  0  0  0  0  0  0  # atno 6908 bound_to 6896
  152.5458  134.1128  159.8419 H   0  0  0  0  0  0  0  0  0  0  0  0  # atno 6909 bound_to 6896
  146.0971  139.5632  142.9438 H   0  0  0  0  0  0  0  0  0  0  0  0  # atno 7974 bound_to 7965
  155.0382  140.3166  155.4734 H   0  0  0  0  0  0  0  0  0  0  0  0  # atno 8008 bound_to 7997
  156.2860  140.2168  156.5448 H   0  0  0  0  0  0  0  0  0  0  0  0  # atno 8009 bound_to 7997
  154.7312  140.0481  157.0716 H   0  0  0  0  0  0  0  0  0  0  0  0  # atno 8010 bound_to 7997
  140.4439  143.2505  151.8586 H   0  0  0  0  0  0  0  0  0  0  0  0  # atno 10167 bound_to 10162
  156.7150  130.9248  151.3092 H   0  0  0  0  0  0  0  0  0  0  0  0  # atno 10718 bound_to 10713
  154.8470  135.3468  154.6187 H   0  0  0  0  0  0  0  0  0  0  0  0  # atno 10763 bound_to 10752
  153.6796  135.6981  153.5127 H   0  0  0  0  0  0  0  0  0  0  0  0  # atno 10764 bound_to 10752
  153.2679  135.4302  155.0915 H   0  0  0  0  0  0  0  0  0  0  0  0  # atno 10765 bound_to 10752
  141.1629  133.6895  156.7291 H   0  0  0  0  0  0  0  0  0  0  0  0  # atno 11005 bound_to 11000
  145.5926  141.0367  143.2062 LP  0  0  0  0  0  0  0  0  0  0  0  0  # atno 17320 bound_to 7965
  144.7404  139.7465  143.7313 LP  0  0  0  0  0  0  0  0  0  0  0  0  # atno 17321 bound_to 7965
  139.4791  144.5197  151.8818 LP  0  0  0  0  0  0  0  0  0  0  0  0  # atno 17342 bound_to 10162
  140.4286  144.2146  150.5887 LP  0  0  0  0  0  0  0  0  0  0  0  0  # atno 17343 bound_to 10162
  157.6921  130.9244  150.0542 LP  0  0  0  0  0  0  0  0  0  0  0  0  # atno 17370 bound_to 10713
  156.1634  130.3644  149.9266 LP  0  0  0  0  0  0  0  0  0  0  0  0  # atno 17371 bound_to 10713
  140.2758  134.8356  157.3889 LP  0  0  0  0  0  0  0  0  0  0  0  0  # atno 17394 bound_to 11000
  140.1478  134.4888  155.7983 LP  0  0  0  0  0  0  0  0  0  0  0  0  # atno 17395 bound_to 11000

$$$$
