AV-unprocessed.smi:1590|AV-procd|sdf|6395|dock9
  -GOLD-   22720 7 33D 1   1.00000     0.00000
 Structure written by MMmdl.
 35 36  0  0  0  0  0  0  0  0  1 V2000
  144.3769  131.3162  150.8331 C   0  0  0  0  0  0  0  0  0  0  0  0
  143.7122  132.5941  150.3005 C   0  0  0  0  0  0  0  0  0  0  0  0
  143.7510  132.6796  148.7681 C   0  0  0  0  0  0  0  0  0  0  0  0
  144.2723  133.8265  150.9418 C   0  0  0  0  0  0  0  0  0  0  0  0
  143.5349  134.6337  151.7156 N   0  0  0  0  0  0  0  0  0  0  0  0
  144.2612  135.7130  152.1982 N   0  0  0  0  0  0  0  0  0  0  0  0
  145.5305  135.6934  151.7699 C   0  0  0  0  0  0  0  0  0  0  0  0
  146.4968  136.6730  152.1208 N   0  0  0  0  0  0  0  0  0  0  0  0
  146.3413  137.7525  152.9073 C   0  0  0  0  0  0  0  0  0  0  0  0
  145.2868  138.1002  153.4395 O   0  0  0  0  0  0  0  0  0  0  0  0
  147.4938  138.4237  153.0431 N   0  0  0  0  0  0  0  0  0  0  0  0
  147.6664  139.6386  153.8310 C   0  0  0  0  0  0  0  0  0  0  0  0
  149.1427  139.9774  154.0196 C   0  0  0  0  0  0  0  0  0  0  0  0
  150.0844  138.9589  154.6808 C   0  0  0  0  0  0  0  0  0  0  0  0
  150.8256  140.1311  155.3287 C   0  0  0  0  0  0  0  0  0  0  0  0
  149.5562  140.9619  155.1230 C   0  0  0  0  0  0  0  0  0  0  0  0
  145.9442  134.3427  150.7287 S   0  0  0  0  0  0  0  0  0  0  0  0
  144.2787  131.2461  151.9168 H   0  0  0  0  0  0  0  0  0  0  0  0
  145.4397  131.2876  150.5913 H   0  0  0  0  0  0  0  0  0  0  0  0
  143.9168  130.4266  150.4027 H   0  0  0  0  0  0  0  0  0  0  0  0
  142.6600  132.5390  150.5842 H   0  0  0  0  0  0  0  0  0  0  0  0
  143.2120  133.5579  148.4112 H   0  0  0  0  0  0  0  0  0  0  0  0
  143.2880  131.8028  148.3148 H   0  0  0  0  0  0  0  0  0  0  0  0
  144.7747  132.7424  148.3978 H   0  0  0  0  0  0  0  0  0  0  0  0
  147.4191  136.5267  151.7382 H   0  0  0  0  0  0  0  0  0  0  0  0
  148.3118  138.0697  152.5690 H   0  0  0  0  0  0  0  0  0  0  0  0
  147.1380  140.4695  153.3611 H   0  0  0  0  0  0  0  0  0  0  0  0
  147.1864  139.4824  154.7975 H   0  0  0  0  0  0  0  0  0  0  0  0
  149.5895  140.3084  153.0794 H   0  0  0  0  0  0  0  0  0  0  0  0
  149.5793  138.3257  155.4121 H   0  0  0  0  0  0  0  0  0  0  0  0
  150.6804  138.3702  153.9827 H   0  0  0  0  0  0  0  0  0  0  0  0
  151.1056  139.9750  156.3708 H   0  0  0  0  0  0  0  0  0  0  0  0
  151.6662  140.4852  154.7296 H   0  0  0  0  0  0  0  0  0  0  0  0
  149.7278  141.9829  154.7809 H   0  0  0  0  0  0  0  0  0  0  0  0
  148.8910  140.9341  155.9877 H   0  0  0  0  0  0  0  0  0  0  0  0
  1  2  1  0  0  0  0
  1 18  1  0  0  0  0
  1 19  1  0  0  0  0
  1 20  1  0  0  0  0
  2  3  1  0  0  0  0
  2  4  1  0  0  0  0
  2 21  1  0  0  0  0
  3 22  1  0  0  0  0
  3 23  1  0  0  0  0
  3 24  1  0  0  0  0
  4 17  1  0  0  0  0
  4  5  2  0  0  0  0
  5  6  1  0  0  0  0
  6  7  2  0  0  0  0
  7  8  1  0  0  0  0
  7 17  1  0  0  0  0
  8  9  1  0  0  0  0
  8 25  1  0  0  0  0
  9 10  2  0  0  0  0
  9 11  1  0  0  0  0
 11 12  1  0  0  0  0
 11 26  1  0  0  0  0
 12 13  1  0  0  0  0
 12 27  1  0  0  0  0
 12 28  1  0  0  0  0
 13 16  1  0  0  0  0
 13 14  1  0  0  0  0
 13 29  1  0  0  0  0
 14 15  1  0  0  0  0
 14 30  1  0  0  0  0
 14 31  1  0  0  0  0
 15 16  1  0  0  0  0
 15 32  1  0  0  0  0
 15 33  1  0  0  0  0
 16 34  1  0  0  0  0
 16 35  1  0  0  0  0
M  END
> <s_m_source_file>
AV-unprocessed.smi

> <i_m_source_file_index>
1590

> <i_lp_mmshare_version>
43012

> <i_f3d_flags>
0

> <s_epik_input>
W0NIM11bQ0hdKFtDSDNdKWMxbm5jKHMxKVtOSF1DKD1PKVtOSF1bQ0gyXVtDSF0yW0NIMl1bQ0gyXVtDSDJdMg==

> <s_epik_cmdline>
J2VwaWtfcHl0aG9uJywgJy1waCcsICc3LjAnLCAnLXRuJywgJzgnLCAnLW1hJywgJzIwMCcsICctbWV0YWxfYmluZGluZycsICctaW1hZScsICc8aW5maWxlLm1hZT4nLCAnLW9tYWUnLCAnPG91dGZpbGUubWFlPic=

> <r_lp_tautomer_probability>
1

> <r_epik_Ionization_Penalty>
0.000374979

> <r_epik_Ionization_Penalty_Charging>
0

> <r_epik_Ionization_Penalty_Neutral>
0.000374979

> <r_epik_State_Penalty>
-0

> <r_epik_Charging_Adjusted_Penalty>
0

> <i_epik_Tot_Q>
0

> <i_epik_Tot_abs_Q>
0

> <r_epik_Metal_State_Penalty>
0.186879

> <b_epik_Metal_Only>
0

> <s_lp_Force_Field>
OPLS_2005

> <r_lp_Energy>
5.08701

> <b_lp_Chiralities_Consistent>
1

> <s_lp_Variant>
AV-unprocessed.smi:1590-1

> <Gold.Version>
5.8.1

> <Gold.Id.Protein>
6NUR|6NUR_protein|mol2

> <Gold.PLP.Fitness>
35.8117

> <Gold.PLP.PLP>
-30.8475

> <Gold.PLP.part.hbond>
-2.1160

> <Gold.PLP.part.metal>
0.0000

> <Gold.PLP.part.buried>
-1.6997

> <Gold.PLP.part.nonpolar>
-28.9800

> <Gold.PLP.part.repulsive>
1.3390

> <Gold.PLP.ligand.clash>
0.0000

> <Gold.PLP.ligand.torsion>
0.1675

> <Gold.PLP.Chemscore.Hbond>
1.7276

> <Gold.PLP.Chemscore.CHOScore>
0.0000

> <Gold.PLP.Chemscore.Metal>
0.0000

> <Gold.Chemscore.Hbonds>
donor molecule, donor type, donor heavy atom, donor atom, acceptor molecule, acceptor atom, score
      L1  H     8    25       P1  7948  1.00
      L1  H    11    26       P1  7948  0.72

> <Gold.PLP.Chemscore.Internal.Correction>
0.1164

> <Gold.Rescore>
     Score         DG    S(hbond)    S(metal)    S(lipo)     H(rot)  DE(clash)    DE(int)     intcor
     15.68     -17.31       1.91        0.00      76.81       1.39       0.16       1.47       ----

> <Gold.Chemscore.Fitness>
15.6831

> <Gold.Chemscore.DG>
-17.3102

> <Gold.Chemscore.ZeroCoef>
-5.4800

> <Gold.Chemscore.Hbond>
1.9150

> <Gold.Chemscore.Metal>
0.0000

> <Gold.Chemscore.Lipo>
76.8138

> <Gold.Chemscore.Internal_Hbond>
0.0000

> <Gold.Chemscore.DEClash>
0.1562

> <Gold.Chemscore.DEInternal>
1.4709

> <Gold.Chemscore.Rot>
1.3879

> <Gold.Chemscore.Internal.Correction>
   9.000000E+99

> <Gold.Chemscore.Hbonds>
donor molecule, donor type, donor heavy atom, donor atom, acceptor molecule, acceptor atom, score
      L1  H     8    25       P1  7948  0.93
      L1  H    11    26       P1  7948  0.69

> <Gold.Chemscore.Hbond.Weighted>
-6.3959

> <Gold.Chemscore.Metal.Weighted>
-0.0000

> <Gold.Chemscore.Lipo.Weighted>
-8.9872

> <Gold.Chemscore.Internal_Hbond.Weighted>
0.0000

> <Gold.Chemscore.DEClash.Weighted>
0.1562

> <Gold.Chemscore.DEInternal.Weighted>
1.4709

> <Gold.Chemscore.Rot.Weighted>
3.5529

> <Gold.Chemscore.Internal.Correction.Weighted>
   9.000000E+99

> <Gold.Protein.RotatedTorsions>
[ 6907 6896 6895 6894 ] final    8.08 input  -60.11 | X-H torsion
[ 7974 7965 7964 7962 ] final -169.18 input  175.53 | X-H torsion
[ 8008 7997 7996 7995 ] final  -30.30 input   59.86 | X-H torsion
[ 10167 10162 10161 10158 ] final  -63.02 input  -65.29 | X-H torsion
[ 10718 10713 10712 10709 ] final   -8.75 input   66.30 | X-H torsion
[ 10763 10752 10751 10750 ] final  -41.78 input  -60.55 | X-H torsion
[ 11005 11000 10999 10996 ] final  131.19 input  -57.11 | X-H torsion

> <Gold.Protein.ActiveResidues>
 VAL166  LYS551  ARG553  GLY616  TRP617  ASP618  TYR619  PRO620  LYS621  CYS622 
 ASP623  PHE694  ASN695  SER759  ASP760  ASP761  ALA762  ILE779  LEU786  VAL792 
 PHE793  MET794  SER795  GLU796  ALA797  LYS798  CYS799  TRP800  GLU811  SER814 

> <Gold.Protein.RotatedAtoms>
  151.7003  135.0931  160.0249 H   0  0  0  0  0  0  0  0  0  0  0  0  # atno 6907 bound_to 6896
  152.3724  133.6432  159.6106 H   0  0  0  0  0  0  0  0  0  0  0  0  # atno 6908 bound_to 6896
  150.7683  133.9164  159.3426 H   0  0  0  0  0  0  0  0  0  0  0  0  # atno 6909 bound_to 6896
  144.7190  140.2259  143.6310 H   0  0  0  0  0  0  0  0  0  0  0  0  # atno 7974 bound_to 7965
  154.4256  140.1795  156.1385 H   0  0  0  0  0  0  0  0  0  0  0  0  # atno 8008 bound_to 7997
  156.0010  140.3360  155.6821 H   0  0  0  0  0  0  0  0  0  0  0  0  # atno 8009 bound_to 7997
  155.6242  140.0663  157.2659 H   0  0  0  0  0  0  0  0  0  0  0  0  # atno 8010 bound_to 7997
  140.5899  143.2340  151.6162 H   0  0  0  0  0  0  0  0  0  0  0  0  # atno 10167 bound_to 10162
  156.6981  130.5085  149.5925 H   0  0  0  0  0  0  0  0  0  0  0  0  # atno 10718 bound_to 10713
  153.9681  135.6731  153.4746 H   0  0  0  0  0  0  0  0  0  0  0  0  # atno 10763 bound_to 10752
  153.0806  135.4925  154.8491 H   0  0  0  0  0  0  0  0  0  0  0  0  # atno 10764 bound_to 10752
  154.7235  135.3122  154.8970 H   0  0  0  0  0  0  0  0  0  0  0  0  # atno 10765 bound_to 10752
  139.9716  134.9576  156.9403 H   0  0  0  0  0  0  0  0  0  0  0  0  # atno 11005 bound_to 11000
  145.8457  139.2151  143.1801 LP  0  0  0  0  0  0  0  0  0  0  0  0  # atno 17320 bound_to 7965
  146.0306  140.8261  142.9878 LP  0  0  0  0  0  0  0  0  0  0  0  0  # atno 17321 bound_to 7965
  139.5221  144.3173  152.0941 LP  0  0  0  0  0  0  0  0  0  0  0  0  # atno 17342 bound_to 10162
  140.2336  144.4343  150.6289 LP  0  0  0  0  0  0  0  0  0  0  0  0  # atno 17343 bound_to 10162
  156.1749  130.6461  151.0882 LP  0  0  0  0  0  0  0  0  0  0  0  0  # atno 17370 bound_to 10713
  157.6984  131.0785  150.6899 LP  0  0  0  0  0  0  0  0  0  0  0  0  # atno 17371 bound_to 10713
  140.5282  134.0840  155.7309 LP  0  0  0  0  0  0  0  0  0  0  0  0  # atno 17394 bound_to 11000
  141.1395  133.9163  157.2358 LP  0  0  0  0  0  0  0  0  0  0  0  0  # atno 17395 bound_to 11000

$$$$
