AV-unprocessed.smi:2307|AV-procd|sdf|9250|dock10
  -GOLD-   2272012473D 1   1.00000     0.00000
 Structure written by MMmdl.
 38 39  0  0  0  0  0  0  0  0  1 V2000
  152.1282  143.4438  161.4452 C   0  0  0  0  0  0  0  0  0  0  0  0
  151.8677  143.0030  160.0156 C   0  0  0  0  0  0  0  0  0  0  0  0
  151.1112  143.8860  159.2401 N   0  0  0  0  0  0  0  0  0  0  0  0
  150.8362  143.5919  158.0117 C   0  0  0  0  0  0  0  0  0  0  0  0
  151.2757  142.3932  157.4224 N   0  0  0  0  0  0  0  0  0  0  0  0
  150.8807  142.1552  156.0213 C   0  0  0  0  0  0  0  0  0  0  0  0
  149.9446  140.9342  155.8553 C   0  0  2  0  0  0  0  0  0  0  0  0
  150.4815  140.0958  154.8532 O   0  0  0  0  0  0  0  0  0  0  0  0
  148.5014  141.3262  155.5668 C   0  0  0  0  0  0  0  0  0  0  0  0
  147.5144  141.2219  156.5687 C   0  0  0  0  0  0  0  0  0  0  0  0
  146.1783  141.5621  156.2853 C   0  0  0  0  0  0  0  0  0  0  0  0
  145.8009  142.0078  155.0022 C   0  0  0  0  0  0  0  0  0  0  0  0
  144.4679  142.3134  154.8160 O   0  0  0  0  0  0  0  0  0  0  0  0
  144.0587  143.5979  154.6300 C   0  0  0  0  0  0  0  0  0  0  0  0
  144.4333  144.3485  155.6939 F   0  0  0  0  0  0  0  0  0  0  0  0
  144.6281  144.1568  153.5327 F   0  0  0  0  0  0  0  0  0  0  0  0
  142.7081  143.6908  154.5382 F   0  0  0  0  0  0  0  0  0  0  0  0
  146.7969  142.1113  153.9985 C   0  0  0  0  0  0  0  0  0  0  0  0
  148.1343  141.7733  154.2810 C   0  0  0  0  0  0  0  0  0  0  0  0
  152.0270  141.4824  158.1059 C   0  0  0  0  0  0  0  0  0  0  0  0
  152.4136  140.4378  157.5786 O   0  0  0  0  0  0  0  0  0  0  0  0
  152.3315  141.8309  159.5029 C   0  0  0  0  0  0  0  0  0  0  0  0
  153.1610  140.8317  160.2993 C   0  0  0  0  0  0  0  0  0  0  0  0
  153.1988  143.5494  161.6221 H   0  0  0  0  0  0  0  0  0  0  0  0
  151.7276  142.7143  162.1496 H   0  0  0  0  0  0  0  0  0  0  0  0
  151.6587  144.4052  161.6571 H   0  0  0  0  0  0  0  0  0  0  0  0
  150.2457  144.2458  157.3680 H   0  0  0  0  0  0  0  0  0  0  0  0
  150.3953  143.0379  155.5997 H   0  0  0  0  0  0  0  0  0  0  0  0
  151.7757  142.0176  155.4115 H   0  0  0  0  0  0  0  0  0  0  0  0
  149.9583  140.3502  156.7762 H   0  0  0  0  0  0  0  0  0  0  0  0
  149.7694  139.6342  154.4370 H   0  0  0  0  0  0  0  0  0  0  0  0
  147.7772  140.8733  157.5569 H   0  0  0  0  0  0  0  0  0  0  0  0
  145.4327  141.4761  157.0623 H   0  0  0  0  0  0  0  0  0  0  0  0
  146.5597  142.4454  153.0004 H   0  0  0  0  0  0  0  0  0  0  0  0
  148.8774  141.8498  153.5007 H   0  0  0  0  0  0  0  0  0  0  0  0
  152.6423  139.8743  160.3558 H   0  0  0  0  0  0  0  0  0  0  0  0
  153.3634  141.1566  161.3185 H   0  0  0  0  0  0  0  0  0  0  0  0
  154.1226  140.6680  159.8117 H   0  0  0  0  0  0  0  0  0  0  0  0
  1  2  1  0  0  0  0
  1 24  1  0  0  0  0
  1 25  1  0  0  0  0
  1 26  1  0  0  0  0
  2 22  2  0  0  0  0
  2  3  1  0  0  0  0
  3  4  2  0  0  0  0
  4  5  1  0  0  0  0
  4 27  1  0  0  0  0
  5  6  1  0  0  0  0
  5 20  1  0  0  0  0
  6  7  1  0  0  0  0
  6 28  1  0  0  0  0
  6 29  1  0  0  0  0
  7  8  1  0  0  0  0
  7  9  1  0  0  0  0
  7 30  1  0  0  0  0
  8 31  1  0  0  0  0
  9 19  1  0  0  0  0
  9 10  2  0  0  0  0
 10 11  1  0  0  0  0
 10 32  1  0  0  0  0
 11 12  2  0  0  0  0
 11 33  1  0  0  0  0
 12 13  1  0  0  0  0
 12 18  1  0  0  0  0
 13 14  1  0  0  0  0
 14 15  1  0  0  0  0
 14 16  1  0  0  0  0
 14 17  1  0  0  0  0
 18 19  2  0  0  0  0
 18 34  1  0  0  0  0
 19 35  1  0  0  0  0
 20 21  2  0  0  0  0
 20 22  1  0  0  0  0
 22 23  1  0  0  0  0
 23 36  1  0  0  0  0
 23 37  1  0  0  0  0
 23 38  1  0  0  0  0
M  END
> <s_m_source_file>
AV-unprocessed.smi

> <i_m_source_file_index>
2307

> <i_lp_mmshare_version>
43012

> <i_f3d_flags>
0

> <s_epik_input>
W0NIM11jMW5bY0hdbihjKD1PKWMxW0NIM10pW0NIMl1bQ0BIXShbT0hdKWMyW2NIXVtjSF1jKE9DKEYpKEYpRilbY0hdW2NIXTI=

> <s_epik_cmdline>
J2VwaWtfcHl0aG9uJywgJy1waCcsICc3LjAnLCAnLXRuJywgJzgnLCAnLW1hJywgJzIwMCcsICctbWV0YWxfYmluZGluZycsICctaW1hZScsICc8aW5maWxlLm1hZT4nLCAnLW9tYWUnLCAnPG91dGZpbGUubWFlPic=

> <r_lp_tautomer_probability>
1

> <r_epik_Ionization_Penalty>
5.07003e-05

> <r_epik_Ionization_Penalty_Charging>
7.56727e-08

> <r_epik_Ionization_Penalty_Neutral>
5.06246e-05

> <r_epik_State_Penalty>
-0

> <r_epik_Charging_Adjusted_Penalty>
7.56727e-08

> <i_epik_Tot_Q>
0

> <i_epik_Tot_abs_Q>
0

> <r_epik_Metal_State_Penalty>
-0

> <b_epik_Metal_Only>
0

> <s_lp_Force_Field>
OPLS_2005

> <r_lp_Energy>
16.6377

> <b_lp_Chiralities_Consistent>
1

> <s_lp_Variant>
AV-unprocessed.smi:2307-1

> <Gold.Version>
5.8.1

> <Gold.Id.Protein>
6NUR|6NUR_protein|mol2

> <Gold.PLP.Fitness>
49.3021

> <Gold.PLP.PLP>
-42.4956

> <Gold.PLP.part.hbond>
-2.0000

> <Gold.PLP.part.metal>
0.0000

> <Gold.PLP.part.buried>
-7.4458

> <Gold.PLP.part.nonpolar>
-31.5649

> <Gold.PLP.part.repulsive>
0.1998

> <Gold.PLP.ligand.clash>
0.0000

> <Gold.PLP.ligand.torsion>
1.1301

> <Gold.PLP.Chemscore.Hbond>
2.0000

> <Gold.PLP.Chemscore.CHOScore>
1.0000

> <Gold.PLP.Chemscore.Metal>
0.0000

> <Gold.Chemscore.Hbonds>
donor molecule, donor type, donor heavy atom, donor atom, acceptor molecule, acceptor atom, score
      P1  H  7989  7998       L1     8  1.00
      P1  H  7997  8008       L1    21  0.55
      L1  C     4    27       P1  8028  1.00

> <Gold.PLP.Chemscore.Internal.Correction>
0.0667

> <Gold.Rescore>
     Score         DG    S(hbond)    S(metal)    S(lipo)     H(rot)  DE(clash)    DE(int)     intcor
     12.86     -14.58       1.71        0.00      87.64       2.69       0.54       1.18       ----

> <Gold.Chemscore.Fitness>
12.8592

> <Gold.Chemscore.DG>
-14.5802

> <Gold.Chemscore.ZeroCoef>
-5.4800

> <Gold.Chemscore.Hbond>
1.7130

> <Gold.Chemscore.Metal>
0.0000

> <Gold.Chemscore.Lipo>
87.6397

> <Gold.Chemscore.Internal_Hbond>
0.0000

> <Gold.Chemscore.DEClash>
0.5432

> <Gold.Chemscore.DEInternal>
1.1777

> <Gold.Chemscore.Rot>
2.6856

> <Gold.Chemscore.Internal.Correction>
   9.000000E+99

> <Gold.Chemscore.Hbonds>
donor molecule, donor type, donor heavy atom, donor atom, acceptor molecule, acceptor atom, score
      P1  H  7989  7998       L1     8  0.67
      P1  H  7997  8008       L1    21  0.54

> <Gold.Chemscore.Hbond.Weighted>
-5.7215

> <Gold.Chemscore.Metal.Weighted>
-0.0000

> <Gold.Chemscore.Lipo.Weighted>
-10.2538

> <Gold.Chemscore.Internal_Hbond.Weighted>
0.0000

> <Gold.Chemscore.DEClash.Weighted>
0.5432

> <Gold.Chemscore.DEInternal.Weighted>
1.1777

> <Gold.Chemscore.Rot.Weighted>
6.8751

> <Gold.Chemscore.Internal.Correction.Weighted>
   9.000000E+99

> <Gold.Protein.RotatedTorsions>
[ 6907 6896 6895 6894 ] final   -1.11 input  -60.11 | X-H torsion
[ 7974 7965 7964 7962 ] final -114.20 input  175.53 | X-H torsion
[ 8008 7997 7996 7995 ] final  -65.66 input   59.86 | X-H torsion
[ 10167 10162 10161 10158 ] final -132.03 input  -65.29 | X-H torsion
[ 10718 10713 10712 10709 ] final   55.68 input   66.30 | X-H torsion
[ 10763 10752 10751 10750 ] final   73.00 input  -60.55 | X-H torsion
[ 11005 11000 10999 10996 ] final -167.98 input  -57.11 | X-H torsion

> <Gold.Protein.ActiveResidues>
 VAL166  LYS551  ARG553  GLY616  TRP617  ASP618  TYR619  PRO620  LYS621  CYS622 
 ASP623  PHE694  ASN695  SER759  ASP760  ASP761  ALA762  ILE779  LEU786  VAL792 
 PHE793  MET794  SER795  GLU796  ALA797  LYS798  CYS799  TRP800  GLU811  SER814 

> <Gold.Protein.RotatedAtoms>
  151.5513  135.1067  159.9950 H   0  0  0  0  0  0  0  0  0  0  0  0  # atno 6907 bound_to 6896
  152.4490  133.7588  159.6745 H   0  0  0  0  0  0  0  0  0  0  0  0  # atno 6908 bound_to 6896
  150.8413  133.7865  159.3084 H   0  0  0  0  0  0  0  0  0  0  0  0  # atno 6909 bound_to 6896
  145.1230  140.8680  143.3803 H   0  0  0  0  0  0  0  0  0  0  0  0  # atno 7974 bound_to 7965
  154.4686  140.0928  156.7085 H   0  0  0  0  0  0  0  0  0  0  0  0  # atno 8008 bound_to 7997
  155.4788  140.3467  155.4318 H   0  0  0  0  0  0  0  0  0  0  0  0  # atno 8009 bound_to 7997
  156.0999  140.1419  156.9469 H   0  0  0  0  0  0  0  0  0  0  0  0  # atno 8010 bound_to 7997
  139.9127  143.6475  152.2572 H   0  0  0  0  0  0  0  0  0  0  0  0  # atno 10167 bound_to 10162
  157.5366  130.8667  149.8762 H   0  0  0  0  0  0  0  0  0  0  0  0  # atno 10718 bound_to 10713
  153.0494  135.5079  154.7829 H   0  0  0  0  0  0  0  0  0  0  0  0  # atno 10763 bound_to 10752
  154.6703  135.2952  154.9753 H   0  0  0  0  0  0  0  0  0  0  0  0  # atno 10764 bound_to 10752
  154.0574  135.6695  153.4860 H   0  0  0  0  0  0  0  0  0  0  0  0  # atno 10765 bound_to 10752
  140.5472  134.5464  157.5114 H   0  0  0  0  0  0  0  0  0  0  0  0  # atno 11005 bound_to 11000
  145.0720  139.3024  143.5827 LP  0  0  0  0  0  0  0  0  0  0  0  0  # atno 17320 bound_to 7965
  146.3519  140.0197  142.8659 LP  0  0  0  0  0  0  0  0  0  0  0  0  # atno 17321 bound_to 7965
  139.6928  144.7645  151.1408 LP  0  0  0  0  0  0  0  0  0  0  0  0  # atno 17342 bound_to 10162
  140.7681  143.5565  150.9147 LP  0  0  0  0  0  0  0  0  0  0  0  0  # atno 17343 bound_to 10162
  156.0463  130.3727  150.1309 LP  0  0  0  0  0  0  0  0  0  0  0  0  # atno 17370 bound_to 10713
  156.9491  130.9769  151.3501 LP  0  0  0  0  0  0  0  0  0  0  0  0  # atno 17371 bound_to 10713
  139.9474  134.7678  156.0530 LP  0  0  0  0  0  0  0  0  0  0  0  0  # atno 17394 bound_to 11000
  141.1193  133.6618  156.3174 LP  0  0  0  0  0  0  0  0  0  0  0  0  # atno 17395 bound_to 11000

$$$$
