AV-unprocessed.smi:2183|AV-procd|sdf|8868|dock3
  -GOLD-   2272012 63D 1   1.00000     0.00000
 Structure written by MMmdl.
 41 43  0  0  0  0  0  0  0  0  2 V2000
  145.6869  142.7538  155.1656 O   0  0  0  0  0  0  0  0  0  0  0  0
  146.5095  142.4695  154.0533 C   0  0  0  0  0  0  0  0  0  0  0  0
  147.7792  141.7694  154.4214 C   0  0  0  0  0  0  0  0  0  0  0  0
  148.7780  142.2655  155.2072 N   0  3  0  0  0  0  0  0  0  0  0  0
  149.8039  141.3264  155.3206 C   0  0  0  0  0  0  0  0  0  0  0  0
  151.0131  141.3742  156.0072 C   0  0  0  0  0  0  0  0  0  0  0  0
  151.8386  140.2341  155.9148 C   0  0  0  0  0  0  0  0  0  0  0  0
  151.4520  139.1067  155.1610 C   0  0  0  0  0  0  0  0  0  0  0  0
  150.2240  139.0708  154.4680 C   0  0  0  0  0  0  0  0  0  0  0  0
  149.4134  140.2012  154.5668 C   0  0  0  0  0  0  0  0  0  0  0  0
  148.1590  140.5174  154.0339 N   0  0  0  0  0  0  0  0  0  0  0  0
  147.4717  139.5311  153.1856 C   0  0  0  0  0  0  0  0  0  0  0  0
  146.3710  138.7531  153.9352 C   0  0  1  0  0  0  0  0  0  0  0  0
  145.4397  139.6758  154.4654 O   0  0  0  0  0  0  0  0  0  0  0  0
  145.6263  137.7786  153.0095 C   0  0  0  0  0  0  0  0  0  0  0  0
  146.1145  136.4633  153.2398 O   0  0  0  0  0  0  0  0  0  0  0  0
  145.7815  135.4748  152.3385 C   0  0  0  0  0  0  0  0  0  0  0  0
  144.8001  135.7908  151.3761 C   0  0  0  0  0  0  0  0  0  0  0  0
  144.3995  134.8422  150.4155 C   0  0  0  0  0  0  0  0  0  0  0  0
  144.9798  133.5602  150.4085 C   0  0  0  0  0  0  0  0  0  0  0  0
  144.4927  132.3964  149.2313 Cl  0  0  0  0  0  0  0  0  0  0  0  0
  145.9589  133.2303  151.3642 C   0  0  0  0  0  0  0  0  0  0  0  0
  146.3593  134.1797  152.3249 C   0  0  0  0  0  0  0  0  0  0  0  0
  146.1264  142.4551  155.9475 H   0  0  0  0  0  0  0  0  0  0  0  0
  145.9478  141.8531  153.3512 H   0  0  0  0  0  0  0  0  0  0  0  0
  146.7523  143.4024  153.5440 H   0  0  0  0  0  0  0  0  0  0  0  0
  151.3118  142.2369  156.5846 H   0  0  0  0  0  0  0  0  0  0  0  0
  152.7871  140.2243  156.4321 H   0  0  0  0  0  0  0  0  0  0  0  0
  152.1106  138.2516  155.1135 H   0  0  0  0  0  0  0  0  0  0  0  0
  149.9367  138.2025  153.8935 H   0  0  0  0  0  0  0  0  0  0  0  0
  147.0459  140.0634  152.3340 H   0  0  0  0  0  0  0  0  0  0  0  0
  148.2205  138.8513  152.7768 H   0  0  0  0  0  0  0  0  0  0  0  0
  146.8210  138.1978  154.7589 H   0  0  0  0  0  0  0  0  0  0  0  0
  144.8771  139.9691  153.7654 H   0  0  0  0  0  0  0  0  0  0  0  0
  144.5478  137.8442  153.1645 H   0  0  0  0  0  0  0  0  0  0  0  0
  145.8311  138.0424  151.9703 H   0  0  0  0  0  0  0  0  0  0  0  0
  144.3502  136.7728  151.3729 H   0  0  0  0  0  0  0  0  0  0  0  0
  143.6474  135.1000  149.6845 H   0  0  0  0  0  0  0  0  0  0  0  0
  146.4067  132.2475  151.3618 H   0  0  0  0  0  0  0  0  0  0  0  0
  147.1128  133.8892  153.0406 H   0  0  0  0  0  0  0  0  0  0  0  0
  148.7514  143.1830  155.6333 H   0  0  0  0  0  0  0  0  0  0  0  0
  1  2  1  0  0  0  0
  1 24  1  0  0  0  0
  2  3  1  0  0  0  0
  2 25  1  0  0  0  0
  2 26  1  0  0  0  0
  3 11  1  0  0  0  0
  3  4  2  0  0  0  0
  4  5  1  0  0  0  0
  4 41  1  0  0  0  0
  5 10  2  0  0  0  0
  5  6  1  0  0  0  0
  6  7  2  0  0  0  0
  6 27  1  0  0  0  0
  7  8  1  0  0  0  0
  7 28  1  0  0  0  0
  8  9  2  0  0  0  0
  8 29  1  0  0  0  0
  9 10  1  0  0  0  0
  9 30  1  0  0  0  0
 10 11  1  0  0  0  0
 11 12  1  0  0  0  0
 12 13  1  0  0  0  0
 12 31  1  0  0  0  0
 12 32  1  0  0  0  0
 13 14  1  0  0  0  0
 13 15  1  0  0  0  0
 13 33  1  0  0  0  0
 14 34  1  0  0  0  0
 15 16  1  0  0  0  0
 15 35  1  0  0  0  0
 15 36  1  0  0  0  0
 16 17  1  0  0  0  0
 17 23  1  0  0  0  0
 17 18  2  0  0  0  0
 18 19  1  0  0  0  0
 18 37  1  0  0  0  0
 19 20  2  0  0  0  0
 19 38  1  0  0  0  0
 20 21  1  0  0  0  0
 20 22  1  0  0  0  0
 22 23  2  0  0  0  0
 22 39  1  0  0  0  0
 23 40  1  0  0  0  0
M  CHG  1   4   1
M  END
> <s_m_source_file>
AV-unprocessed.smi

> <i_m_source_file_index>
2183

> <i_lp_mmshare_version>
43012

> <i_f3d_flags>
0

> <s_epik_input>
W2NIXTFbY0hdW2NIXVtjSF1jKGMxMiluKGMobjIpW0NIMl1bT0hdKVtDSDJdW0NASF0oW09IXSlbQ0gyXU9jM1tjSF1bY0hdYyhDbClbY0hdW2NIXTM=

> <s_epik_cmdline>
J2VwaWtfcHl0aG9uJywgJy1waCcsICc3LjAnLCAnLXRuJywgJzgnLCAnLW1hJywgJzIwMCcsICctbWV0YWxfYmluZGluZycsICctaW1hZScsICc8aW5maWxlLm1hZT4nLCAnLW9tYWUnLCAnPG91dGZpbGUubWFlPic=

> <r_lp_tautomer_probability>
1

> <r_epik_Ionization_Penalty>
1.40052

> <r_epik_Ionization_Penalty_Charging>
1.39966

> <r_epik_Ionization_Penalty_Neutral>
0.000858184

> <r_epik_State_Penalty>
1.4817

> <r_epik_Charging_Adjusted_Penalty>
2.88136

> <i_epik_Tot_Q>
1

> <i_epik_Tot_abs_Q>
1

> <r_epik_Metal_State_Penalty>
5.5238

> <b_epik_Metal_Only>
0

> <s_lp_Force_Field>
OPLS_2005

> <r_lp_Energy>
18.7235

> <b_lp_Chiralities_Consistent>
1

> <s_lp_Variant>
AV-unprocessed.smi:2183-4

> <Gold.Version>
5.8.1

> <Gold.Id.Protein>
6NUR|6NUR_protein|mol2

> <Gold.PLP.Fitness>
53.9373

> <Gold.PLP.PLP>
-48.5151

> <Gold.PLP.part.hbond>
-1.8614

> <Gold.PLP.part.metal>
0.0000

> <Gold.PLP.part.buried>
-5.1744

> <Gold.PLP.part.nonpolar>
-41.7211

> <Gold.PLP.part.repulsive>
0.3057

> <Gold.PLP.ligand.clash>
1.7241

> <Gold.PLP.ligand.torsion>
1.0155

> <Gold.PLP.Chemscore.Hbond>
3.0000

> <Gold.PLP.Chemscore.CHOScore>
0.0000

> <Gold.PLP.Chemscore.Metal>
0.0000

> <Gold.Chemscore.Hbonds>
donor molecule, donor type, donor heavy atom, donor atom, acceptor molecule, acceptor atom, score
      L1  H     4    41       P1  8028  2.00
      L1  H    14    34       P1 10175  1.00

> <Gold.PLP.Chemscore.Internal.Correction>
0.1775

> <Gold.Rescore>
     Score         DG    S(hbond)    S(metal)    S(lipo)     H(rot)  DE(clash)    DE(int)     intcor
     15.15     -16.93       1.97        0.00     109.99       3.13       0.64       1.15       ----

> <Gold.Chemscore.Fitness>
15.1460

> <Gold.Chemscore.DG>
-16.9303

> <Gold.Chemscore.ZeroCoef>
-5.4800

> <Gold.Chemscore.Hbond>
1.9748

> <Gold.Chemscore.Metal>
0.0000

> <Gold.Chemscore.Lipo>
109.9873

> <Gold.Chemscore.Internal_Hbond>
0.0000

> <Gold.Chemscore.DEClash>
0.6383

> <Gold.Chemscore.DEInternal>
1.1460

> <Gold.Chemscore.Rot>
3.1305

> <Gold.Chemscore.Internal.Correction>
   9.000000E+99

> <Gold.Chemscore.Hbonds>
donor molecule, donor type, donor heavy atom, donor atom, acceptor molecule, acceptor atom, score
      L1  H     4    41       P1  8028  0.92
      L1  H    14    34       P1 10175  1.00

> <Gold.Chemscore.Hbond.Weighted>
-6.5959

> <Gold.Chemscore.Metal.Weighted>
-0.0000

> <Gold.Chemscore.Lipo.Weighted>
-12.8685

> <Gold.Chemscore.Internal_Hbond.Weighted>
0.0000

> <Gold.Chemscore.DEClash.Weighted>
0.6383

> <Gold.Chemscore.DEInternal.Weighted>
1.1460

> <Gold.Chemscore.Rot.Weighted>
8.0141

> <Gold.Chemscore.Internal.Correction.Weighted>
   9.000000E+99

> <Gold.Protein.RotatedTorsions>
[ 6907 6896 6895 6894 ] final   27.43 input  -60.11 | X-H torsion
[ 7974 7965 7964 7962 ] final   13.67 input  175.53 | X-H torsion
[ 8008 7997 7996 7995 ] final   95.27 input   59.86 | X-H torsion
[ 10167 10162 10161 10158 ] final -157.02 input  -65.29 | X-H torsion
[ 10718 10713 10712 10709 ] final -132.68 input   66.30 | X-H torsion
[ 10763 10752 10751 10750 ] final -137.88 input  -60.55 | X-H torsion
[ 11005 11000 10999 10996 ] final -139.53 input  -57.11 | X-H torsion

> <Gold.Protein.ActiveResidues>
 VAL166  LYS551  ARG553  GLY616  TRP617  ASP618  TYR619  PRO620  LYS621  CYS622 
 ASP623  PHE694  ASN695  SER759  ASP760  ASP761  ALA762  ILE779  LEU786  VAL792 
 PHE793  MET794  SER795  GLU796  ALA797  LYS798  CYS799  TRP800  GLU811  SER814 

> <Gold.Protein.RotatedAtoms>
  152.0021  134.9922  160.0565 H   0  0  0  0  0  0  0  0  0  0  0  0  # atno 6907 bound_to 6896
  152.1509  133.4516  159.4821 H   0  0  0  0  0  0  0  0  0  0  0  0  # atno 6908 bound_to 6896
  150.6875  134.2108  159.4401 H   0  0  0  0  0  0  0  0  0  0  0  0  # atno 6909 bound_to 6896
  146.2324  139.9155  142.8518 H   0  0  0  0  0  0  0  0  0  0  0  0  # atno 7974 bound_to 7965
  156.0670  140.3289  155.7530 H   0  0  0  0  0  0  0  0  0  0  0  0  # atno 8008 bound_to 7997
  155.5365  140.0598  157.2896 H   0  0  0  0  0  0  0  0  0  0  0  0  # atno 8009 bound_to 7997
  154.4510  140.1918  156.0536 H   0  0  0  0  0  0  0  0  0  0  0  0  # atno 8010 bound_to 7997
  139.6803  143.9592  152.2333 H   0  0  0  0  0  0  0  0  0  0  0  0  # atno 10167 bound_to 10162
  156.2370  130.7073  151.0918 H   0  0  0  0  0  0  0  0  0  0  0  0  # atno 10718 bound_to 10713
  154.8651  135.3629  154.5294 H   0  0  0  0  0  0  0  0  0  0  0  0  # atno 10763 bound_to 10752
  153.5921  135.7015  153.5424 H   0  0  0  0  0  0  0  0  0  0  0  0  # atno 10764 bound_to 10752
  153.3364  135.4110  155.1499 H   0  0  0  0  0  0  0  0  0  0  0  0  # atno 10765 bound_to 10752
  140.8511  134.2285  157.4760 H   0  0  0  0  0  0  0  0  0  0  0  0  # atno 11005 bound_to 11000
  145.2188  140.9926  143.4057 LP  0  0  0  0  0  0  0  0  0  0  0  0  # atno 17320 bound_to 7965
  144.9628  139.3962  143.6347 LP  0  0  0  0  0  0  0  0  0  0  0  0  # atno 17321 bound_to 7965
  139.9380  144.6699  150.8295 LP  0  0  0  0  0  0  0  0  0  0  0  0  # atno 17342 bound_to 10162
  140.7650  143.3263  151.2508 LP  0  0  0  0  0  0  0  0  0  0  0  0  # atno 17343 bound_to 10162
  157.7159  131.0710  150.6329 LP  0  0  0  0  0  0  0  0  0  0  0  0  # atno 17370 bound_to 10713
  156.6400  130.4456  149.5756 LP  0  0  0  0  0  0  0  0  0  0  0  0  # atno 17371 bound_to 10713
  139.8704  134.9683  156.4628 LP  0  0  0  0  0  0  0  0  0  0  0  0  # atno 17394 bound_to 11000
  140.8789  133.7932  155.9445 LP  0  0  0  0  0  0  0  0  0  0  0  0  # atno 17395 bound_to 11000

$$$$
