AV-unprocessed.smi:2355|AV-procd|sdf|9387|dock10
  -GOLD-   2272013 23D 1   1.00000     0.00000
 Structure written by MMmdl.
 48 49  0  0  0  0  0  0  0  0  1 V2000
  151.3556  141.5197  156.8407 C   0  0  0  0  0  0  0  0  0  0  0  0
  151.8519  142.2746  158.0560 C   0  0  0  0  0  0  0  0  0  0  0  0
  151.3674  143.5624  158.3546 C   0  0  0  0  0  0  0  0  0  0  0  0
  151.8687  144.2127  159.4990 C   0  0  0  0  0  0  0  0  0  0  0  0
  151.3949  145.6007  159.8755 C   0  0  0  0  0  0  0  0  0  0  0  0
  152.7890  143.6589  160.3172 N   0  0  0  0  0  0  0  0  0  0  0  0
  153.2622  142.4187  160.0400 C   0  0  0  0  0  0  0  0  0  0  0  0
  154.2290  141.7490  160.8359 N   0  0  0  0  0  0  0  0  0  0  0  0
  155.0855  140.7818  160.4635 C   0  0  0  0  0  0  0  0  0  0  0  0
  155.1776  140.3074  159.3306 O   0  0  0  0  0  0  0  0  0  0  0  0
  155.8477  140.3875  161.4944 N   0  0  0  0  0  0  0  0  0  0  0  0
  156.8856  139.3590  161.4354 C   0  0  2  0  0  0  0  0  0  0  0  0
  156.6031  138.3046  162.5200 C   0  0  0  0  0  0  0  0  0  0  0  0
  158.3216  139.9726  161.5241 C   0  0  1  0  0  0  0  0  0  0  0  0
  159.3857  138.8495  161.4094 C   0  0  0  0  0  0  0  0  0  0  0  0
  158.5573  141.0922  160.5815 N   0  0  0  0  0  0  0  0  0  0  0  0
  158.1172  140.7825  159.2164 C   0  0  0  0  0  0  0  0  0  0  0  0
  158.3783  141.9340  158.2304 C   0  0  0  0  0  0  0  0  0  0  0  0
  159.7611  142.2609  158.2325 O   0  0  0  0  0  0  0  0  0  0  0  0
  160.2174  142.6406  159.5234 C   0  0  0  0  0  0  0  0  0  0  0  0
  159.9666  141.4969  160.5211 C   0  0  0  0  0  0  0  0  0  0  0  0
  152.8108  141.6968  158.9123 C   0  0  0  0  0  0  0  0  0  0  0  0
  150.6808  142.1324  156.2422 H   0  0  0  0  0  0  0  0  0  0  0  0
  150.8200  140.6211  157.1472 H   0  0  0  0  0  0  0  0  0  0  0  0
  152.1944  141.2234  156.2106 H   0  0  0  0  0  0  0  0  0  0  0  0
  150.6325  144.0399  157.7230 H   0  0  0  0  0  0  0  0  0  0  0  0
  150.4767  145.8592  159.3473 H   0  0  0  0  0  0  0  0  0  0  0  0
  152.1556  146.3394  159.6220 H   0  0  0  0  0  0  0  0  0  0  0  0
  151.1982  145.6626  160.9465 H   0  0  0  0  0  0  0  0  0  0  0  0
  154.2708  142.0383  161.8017 H   0  0  0  0  0  0  0  0  0  0  0  0
  155.7034  140.8321  162.3890 H   0  0  0  0  0  0  0  0  0  0  0  0
  156.7492  138.8709  160.4712 H   0  0  0  0  0  0  0  0  0  0  0  0
  157.3269  137.4904  162.4795 H   0  0  0  0  0  0  0  0  0  0  0  0
  155.6139  137.8652  162.3872 H   0  0  0  0  0  0  0  0  0  0  0  0
  156.6385  138.7324  163.5220 H   0  0  0  0  0  0  0  0  0  0  0  0
  158.4203  140.3781  162.5324 H   0  0  0  0  0  0  0  0  0  0  0  0
  159.1547  137.9878  162.0347 H   0  0  0  0  0  0  0  0  0  0  0  0
  160.3678  139.1868  161.7382 H   0  0  0  0  0  0  0  0  0  0  0  0
  159.4818  138.4942  160.3834 H   0  0  0  0  0  0  0  0  0  0  0  0
  158.6191  139.8813  158.8610 H   0  0  0  0  0  0  0  0  0  0  0  0
  157.0479  140.5785  159.1949 H   0  0  0  0  0  0  0  0  0  0  0  0
  158.0837  141.6431  157.2220 H   0  0  0  0  0  0  0  0  0  0  0  0
  157.7875  142.8122  158.4962 H   0  0  0  0  0  0  0  0  0  0  0  0
  161.2818  142.8698  159.4714 H   0  0  0  0  0  0  0  0  0  0  0  0
  159.7096  143.5513  159.8448 H   0  0  0  0  0  0  0  0  0  0  0  0
  160.3104  141.8473  161.4919 H   0  0  0  0  0  0  0  0  0  0  0  0
  160.5863  140.6398  160.2537 H   0  0  0  0  0  0  0  0  0  0  0  0
  153.1961  140.7090  158.7030 H   0  0  0  0  0  0  0  0  0  0  0  0
  1  2  1  0  0  0  0
  1 23  1  0  0  0  0
  1 24  1  0  0  0  0
  1 25  1  0  0  0  0
  2 22  1  0  0  0  0
  2  3  2  0  0  0  0
  3  4  1  0  0  0  0
  3 26  1  0  0  0  0
  4  5  1  0  0  0  0
  4  6  2  0  0  0  0
  5 27  1  0  0  0  0
  5 28  1  0  0  0  0
  5 29  1  0  0  0  0
  6  7  1  0  0  0  0
  7  8  1  0  0  0  0
  7 22  2  0  0  0  0
  8  9  1  0  0  0  0
  8 30  1  0  0  0  0
  9 10  2  0  0  0  0
  9 11  1  0  0  0  0
 11 12  1  0  0  0  0
 11 31  1  0  0  0  0
 12 13  1  0  0  0  0
 12 14  1  0  0  0  0
 12 32  1  0  0  0  0
 13 33  1  0  0  0  0
 13 34  1  0  0  0  0
 13 35  1  0  0  0  0
 14 15  1  0  0  0  0
 14 16  1  0  0  0  0
 14 36  1  0  0  0  0
 15 37  1  0  0  0  0
 15 38  1  0  0  0  0
 15 39  1  0  0  0  0
 16 21  1  0  0  0  0
 16 17  1  0  0  0  0
 17 18  1  0  0  0  0
 17 40  1  0  0  0  0
 17 41  1  0  0  0  0
 18 19  1  0  0  0  0
 18 42  1  0  0  0  0
 18 43  1  0  0  0  0
 19 20  1  0  0  0  0
 20 21  1  0  0  0  0
 20 44  1  0  0  0  0
 20 45  1  0  0  0  0
 21 46  1  0  0  0  0
 21 47  1  0  0  0  0
 22 48  1  0  0  0  0
M  END
> <s_m_source_file>
AV-unprocessed.smi

> <i_m_source_file_index>
2355

> <i_lp_mmshare_version>
43012

> <i_f3d_flags>
0

> <s_epik_input>
W0NIM11jMVtjSF1jKFtDSDNdKW5jKFtjSF0xKVtOSF1DKD1PKVtOSF1bQ0BIXShbQ0gzXSlbQ0BIXShbQ0gzXSlOMltDSDJdW0NIMl1PW0NIMl1bQ0gyXTI=

> <s_epik_cmdline>
J2VwaWtfcHl0aG9uJywgJy1waCcsICc3LjAnLCAnLXRuJywgJzgnLCAnLW1hJywgJzIwMCcsICctbWV0YWxfYmluZGluZycsICctaW1hZScsICc8aW5maWxlLm1hZT4nLCAnLW9tYWUnLCAnPG91dGZpbGUubWFlPic=

> <r_epik_Ionization_Penalty>
0.266238

> <r_epik_Ionization_Penalty_Charging>
0

> <r_epik_Ionization_Penalty_Neutral>
0.266238

> <r_epik_State_Penalty>
0.257924

> <r_epik_Charging_Adjusted_Penalty>
0.257924

> <i_epik_Tot_Q>
0

> <i_epik_Tot_abs_Q>
0

> <r_epik_Metal_State_Penalty>
0.257904

> <b_epik_Metal_Only>
0

> <s_lp_Force_Field>
OPLS_2005

> <r_lp_Energy>
33.2304

> <b_lp_Chiralities_Consistent>
1

> <s_lp_Variant>
AV-unprocessed.smi:2355-3

> <Gold.Version>
5.8.1

> <Gold.Id.Protein>
6NUR|6NUR_protein|mol2

> <Gold.PLP.Fitness>
41.8781

> <Gold.PLP.PLP>
-39.8699

> <Gold.PLP.part.hbond>
-4.1848

> <Gold.PLP.part.metal>
0.0000

> <Gold.PLP.part.buried>
-4.9052

> <Gold.PLP.part.nonpolar>
-31.5476

> <Gold.PLP.part.repulsive>
0.2701

> <Gold.PLP.ligand.clash>
0.0000

> <Gold.PLP.ligand.torsion>
0.4565

> <Gold.PLP.Chemscore.Hbond>
0.9440

> <Gold.PLP.Chemscore.CHOScore>
0.0000

> <Gold.PLP.Chemscore.Metal>
0.0000

> <Gold.Chemscore.Hbonds>
donor molecule, donor type, donor heavy atom, donor atom, acceptor molecule, acceptor atom, score
      P1  H  7997  8008       L1    10  0.88

> <Gold.PLP.Chemscore.Internal.Correction>
0.0891

> <Gold.Rescore>
     Score         DG    S(hbond)    S(metal)    S(lipo)     H(rot)  DE(clash)    DE(int)     intcor
     15.00     -17.12       0.95        0.00     102.97       1.40       0.38       1.74       ----

> <Gold.Chemscore.Fitness>
14.9991

> <Gold.Chemscore.DG>
-17.1246

> <Gold.Chemscore.ZeroCoef>
-5.4800

> <Gold.Chemscore.Hbond>
0.9537

> <Gold.Chemscore.Metal>
0.0000

> <Gold.Chemscore.Lipo>
102.9660

> <Gold.Chemscore.Internal_Hbond>
0.0000

> <Gold.Chemscore.DEClash>
0.3839

> <Gold.Chemscore.DEInternal>
1.7416

> <Gold.Chemscore.Rot>
1.4015

> <Gold.Chemscore.Internal.Correction>
   9.000000E+99

> <Gold.Chemscore.Hbonds>
donor molecule, donor type, donor heavy atom, donor atom, acceptor molecule, acceptor atom, score
      P1  H  7997  8008       L1    10  0.85

> <Gold.Chemscore.Hbond.Weighted>
-3.1854

> <Gold.Chemscore.Metal.Weighted>
-0.0000

> <Gold.Chemscore.Lipo.Weighted>
-12.0470

> <Gold.Chemscore.Internal_Hbond.Weighted>
0.0000

> <Gold.Chemscore.DEClash.Weighted>
0.3839

> <Gold.Chemscore.DEInternal.Weighted>
1.7416

> <Gold.Chemscore.Rot.Weighted>
3.5878

> <Gold.Chemscore.Internal.Correction.Weighted>
   9.000000E+99

> <Gold.Protein.RotatedTorsions>
[ 6907 6896 6895 6894 ] final   80.70 input  -60.11 | X-H torsion
[ 7974 7965 7964 7962 ] final  102.31 input  175.53 | X-H torsion
[ 8008 7997 7996 7995 ] final -129.63 input   59.86 | X-H torsion
[ 10167 10162 10161 10158 ] final   -1.57 input  -65.29 | X-H torsion
[ 10718 10713 10712 10709 ] final   55.94 input   66.30 | X-H torsion
[ 10763 10752 10751 10750 ] final  145.89 input  -60.55 | X-H torsion
[ 11005 11000 10999 10996 ] final  -69.71 input  -57.11 | X-H torsion

> <Gold.Protein.ActiveResidues>
 VAL166  LYS551  ARG553  GLY616  TRP617  ASP618  TYR619  PRO620  LYS621  CYS622 
 ASP623  PHE694  ASN695  SER759  ASP760  ASP761  ALA762  ILE779  LEU786  VAL792 
 PHE793  MET794  SER795  GLU796  ALA797  LYS798  CYS799  TRP800  GLU811  SER814 

> <Gold.Protein.RotatedAtoms>
  152.5244  134.3318  159.9185 H   0  0  0  0  0  0  0  0  0  0  0  0  # atno 6907 bound_to 6896
  151.3267  133.4011  159.2667 H   0  0  0  0  0  0  0  0  0  0  0  0  # atno 6908 bound_to 6896
  150.9914  134.9266  159.7959 H   0  0  0  0  0  0  0  0  0  0  0  0  # atno 6909 bound_to 6896
  145.3608  139.2418  143.3507 H   0  0  0  0  0  0  0  0  0  0  0  0  # atno 7974 bound_to 7965
  155.2825  140.0444  157.3016 H   0  0  0  0  0  0  0  0  0  0  0  0  # atno 8008 bound_to 7997
  154.5589  140.2340  155.8335 H   0  0  0  0  0  0  0  0  0  0  0  0  # atno 8009 bound_to 7997
  156.2030  140.3020  155.9574 H   0  0  0  0  0  0  0  0  0  0  0  0  # atno 8010 bound_to 7997
  140.6816  143.6759  150.8146 H   0  0  0  0  0  0  0  0  0  0  0  0  # atno 10167 bound_to 10162
  157.5388  130.8683  149.8793 H   0  0  0  0  0  0  0  0  0  0  0  0  # atno 10718 bound_to 10713
  154.0129  135.2913  155.3390 H   0  0  0  0  0  0  0  0  0  0  0  0  # atno 10763 bound_to 10752
  154.7092  135.5156  153.8644 H   0  0  0  0  0  0  0  0  0  0  0  0  # atno 10764 bound_to 10752
  153.0715  135.6649  154.0359 H   0  0  0  0  0  0  0  0  0  0  0  0  # atno 10765 bound_to 10752
  141.1559  133.6771  156.6642 H   0  0  0  0  0  0  0  0  0  0  0  0  # atno 11005 bound_to 11000
  146.2928  140.4242  142.8733 LP  0  0  0  0  0  0  0  0  0  0  0  0  # atno 17320 bound_to 7965
  144.8648  140.7190  143.6084 LP  0  0  0  0  0  0  0  0  0  0  0  0  # atno 17321 bound_to 7965
  140.0460  143.5298  152.2696 LP  0  0  0  0  0  0  0  0  0  0  0  0  # atno 17342 bound_to 10162
  139.6142  144.7616  151.2883 LP  0  0  0  0  0  0  0  0  0  0  0  0  # atno 17343 bound_to 10162
  156.0480  130.3723  150.1270 LP  0  0  0  0  0  0  0  0  0  0  0  0  # atno 17370 bound_to 10713
  156.9450  130.9756  151.3509 LP  0  0  0  0  0  0  0  0  0  0  0  0  # atno 17371 bound_to 10713
  140.3224  134.7996  157.4263 LP  0  0  0  0  0  0  0  0  0  0  0  0  # atno 17394 bound_to 11000
  140.1085  134.5377  155.8287 LP  0  0  0  0  0  0  0  0  0  0  0  0  # atno 17395 bound_to 11000

$$$$
