AV-unprocessed.smi:218|AV-procd|sdf|1669|dock5
  -GOLD-   2262020 83D 1   1.00000     0.00000
 Structure written by MMmdl.
 54 57  0  0  0  0  0  0  0  0  1 V2000
  151.8072  145.9410  160.3343 C   0  0  0  0  0  0  0  0  0  0  0  0
  151.9158  144.5743  159.6477 C   0  0  0  0  0  0  0  0  0  0  0  0
  150.5951  144.1914  158.9577 C   0  0  0  0  0  0  0  0  0  0  0  0
  152.2408  143.6238  160.6644 O   0  0  0  0  0  0  0  0  0  0  0  0
  152.7887  142.4021  160.3231 C   0  0  0  0  0  0  0  0  0  0  0  0
  152.1773  141.6597  159.2920 C   0  0  0  0  0  0  0  0  0  0  0  0
  152.7215  140.4082  158.9385 C   0  0  0  0  0  0  0  0  0  0  0  0
  152.0977  139.5809  157.8347 C   0  0  0  0  0  0  0  0  0  0  0  0
  151.9814  140.3094  156.5794 N   0  0  0  0  0  0  0  0  0  0  0  0
  150.8348  140.2524  155.8692 C   0  0  0  0  0  0  0  0  0  0  0  0
  150.7797  139.5973  154.6795 N   0  0  0  0  0  0  0  0  0  0  0  0
  149.6329  139.5526  153.9946 C   0  0  0  0  0  0  0  0  0  0  0  0
  148.4507  140.0839  154.3126 N   0  0  0  0  0  0  0  0  0  0  0  0
  148.5021  140.7448  155.5049 C   0  0  0  0  0  0  0  0  0  0  0  0
  149.6476  140.8719  156.3384 C   0  0  0  0  0  0  0  0  0  0  0  0
  149.3249  141.6071  157.4716 N   0  0  0  0  0  0  0  0  0  0  0  0
  148.0607  141.8951  157.3124 C   0  0  0  0  0  0  0  0  0  0  0  0
  147.4852  141.4102  156.1587 N   0  0  0  0  0  0  0  0  0  0  0  0
  146.0710  141.5812  155.6951 C   0  0  1  0  0  0  0  0  0  0  0  0
  145.3532  142.1558  156.7422 O   0  0  0  0  0  0  0  0  0  0  0  0
  144.4440  143.1036  156.2084 C   0  0  1  0  0  0  0  0  0  0  0  0
  143.9642  144.0847  157.2937 C   0  0  0  0  0  0  0  0  0  0  0  0
  145.0353  144.6327  158.0338 O   0  0  0  0  0  0  0  0  0  0  0  0
  145.1637  143.6998  154.9941 C   0  0  2  0  0  0  0  0  0  0  0  0
  144.2257  144.1603  154.0422 O   0  0  0  0  0  0  0  0  0  0  0  0
  145.9365  142.5005  154.4541 C   0  0  1  0  0  0  0  0  0  0  0  0
  147.1674  142.9052  153.8819 O   0  0  0  0  0  0  0  0  0  0  0  0
  153.8604  139.9473  159.6284 C   0  0  0  0  0  0  0  0  0  0  0  0
  154.4005  140.7588  160.6445 C   0  0  0  0  0  0  0  0  0  0  0  0
  153.8826  141.9564  160.9900 N   0  0  0  0  0  0  0  0  0  0  0  0
  145.7177  140.5668  155.5051 H   0  0  0  0  0  0  0  0  0  0  0  0
  143.5835  142.5256  155.8650 H   0  0  0  0  0  0  0  0  0  0  0  0
  145.8445  144.5007  155.2846 H   0  0  0  0  0  0  0  0  0  0  0  0
  145.3502  141.9602  153.7091 H   0  0  0  0  0  0  0  0  0  0  0  0
  151.5668  146.7246  159.6152 H   0  0  0  0  0  0  0  0  0  0  0  0
  152.7478  146.2106  160.8153 H   0  0  0  0  0  0  0  0  0  0  0  0
  151.0307  145.9390  161.0997 H   0  0  0  0  0  0  0  0  0  0  0  0
  152.7152  144.6486  158.9089 H   0  0  0  0  0  0  0  0  0  0  0  0
  150.3193  144.9318  158.2064 H   0  0  0  0  0  0  0  0  0  0  0  0
  149.7791  144.1284  159.6779 H   0  0  0  0  0  0  0  0  0  0  0  0
  150.6657  143.2278  158.4538 H   0  0  0  0  0  0  0  0  0  0  0  0
  151.3054  142.0445  158.7834 H   0  0  0  0  0  0  0  0  0  0  0  0
  152.6927  138.6802  157.6777 H   0  0  0  0  0  0  0  0  0  0  0  0
  151.1078  139.2598  158.1616 H   0  0  0  0  0  0  0  0  0  0  0  0
  152.8023  140.8145  156.2775 H   0  0  0  0  0  0  0  0  0  0  0  0
  149.6655  139.0152  153.0583 H   0  0  0  0  0  0  0  0  0  0  0  0
  147.5087  142.4726  158.0395 H   0  0  0  0  0  0  0  0  0  0  0  0
  143.4275  144.9108  156.8270 H   0  0  0  0  0  0  0  0  0  0  0  0
  143.2653  143.5940  157.9715 H   0  0  0  0  0  0  0  0  0  0  0  0
  145.6857  144.9534  157.4279 H   0  0  0  0  0  0  0  0  0  0  0  0
  143.8238  143.4084  153.6340 H   0  0  0  0  0  0  0  0  0  0  0  0
  147.6459  143.4000  154.5302 H   0  0  0  0  0  0  0  0  0  0  0  0
  154.3125  138.9964  159.3873 H   0  0  0  0  0  0  0  0  0  0  0  0
  155.2724  140.4378  161.1947 H   0  0  0  0  0  0  0  0  0  0  0  0
  1  2  1  0  0  0  0
  1 35  1  0  0  0  0
  1 36  1  0  0  0  0
  1 37  1  0  0  0  0
  2  3  1  0  0  0  0
  2  4  1  0  0  0  0
  2 38  1  0  0  0  0
  3 39  1  0  0  0  0
  3 40  1  0  0  0  0
  3 41  1  0  0  0  0
  4  5  1  0  0  0  0
  5 30  1  0  0  0  0
  5  6  2  0  0  0  0
  6  7  1  0  0  0  0
  6 42  1  0  0  0  0
  7  8  1  0  0  0  0
  7 28  2  0  0  0  0
  8  9  1  0  0  0  0
  8 43  1  0  0  0  0
  8 44  1  0  0  0  0
  9 10  1  0  0  0  0
  9 45  1  0  0  0  0
 10 15  1  0  0  0  0
 10 11  2  0  0  0  0
 11 12  1  0  0  0  0
 12 13  2  0  0  0  0
 12 46  1  0  0  0  0
 13 14  1  0  0  0  0
 14 18  1  0  0  0  0
 14 15  2  0  0  0  0
 15 16  1  0  0  0  0
 16 17  2  0  0  0  0
 17 18  1  0  0  0  0
 17 47  1  0  0  0  0
 18 19  1  0  0  0  0
 19 31  1  0  0  0  0
 19 26  1  0  0  0  0
 19 20  1  0  0  0  0
 20 21  1  0  0  0  0
 21 32  1  0  0  0  0
 21 22  1  0  0  0  0
 21 24  1  0  0  0  0
 22 23  1  0  0  0  0
 22 48  1  0  0  0  0
 22 49  1  0  0  0  0
 23 50  1  0  0  0  0
 24 33  1  0  0  0  0
 24 25  1  0  0  0  0
 24 26  1  0  0  0  0
 25 51  1  0  0  0  0
 26 34  1  0  0  0  0
 26 27  1  0  0  0  0
 27 52  1  0  0  0  0
 28 29  1  0  0  0  0
 28 53  1  0  0  0  0
 29 30  2  0  0  0  0
 29 54  1  0  0  0  0
M  END
> <s_m_source_file>
AV-unprocessed.smi

> <i_m_source_file_index>
218

> <i_lp_mmshare_version>
43012

> <i_f3d_flags>
0

> <s_epik_input>
W0NIM11bQ0hdKFtDSDNdKU9jMVtjSF1jKFtjSF1bY0hdbjEpW0NIMl1bTkhdYyhuW2NIXW4yKWMoYzIzKW5bY0hdbjNbQ0BASF00T1tDQEhdKFtDSDJdW09IXSlbQ0BASF0oW09IXSlbQ0BIXTRbT0hd

> <s_epik_cmdline>
J2VwaWtfcHl0aG9uJywgJy1waCcsICc3LjAnLCAnLXRuJywgJzgnLCAnLW1hJywgJzIwMCcsICctbWV0YWxfYmluZGluZycsICctaW1hZScsICc8aW5maWxlLm1hZT4nLCAnLW9tYWUnLCAnPG91dGZpbGUubWFlPic=

> <r_lp_tautomer_probability>
1

> <r_epik_Ionization_Penalty>
0.00457014

> <r_epik_Ionization_Penalty_Charging>
0

> <r_epik_Ionization_Penalty_Neutral>
0.00457014

> <r_epik_State_Penalty>
-0

> <r_epik_Charging_Adjusted_Penalty>
0

> <i_epik_Tot_Q>
0

> <i_epik_Tot_abs_Q>
0

> <r_epik_Metal_State_Penalty>
-0

> <b_epik_Metal_Only>
0

> <s_epik_Chemistry_Notes>
This compound contains an acetal/aminal-like group ( X-CH(R)-Y where X, Y are N, S, or O) that may be acid/base labile, releasing an aldehyde.

> <s_lp_Force_Field>
OPLS_2005

> <r_lp_Energy>
42.4644

> <b_lp_Chiralities_Consistent>
1

> <s_lp_Variant>
AV-unprocessed.smi:218-8

> <Gold.Version>
5.8.1

> <Gold.Id.Protein>
6NUR|6NUR_protein|mol2

> <Gold.PLP.Fitness>
55.3586

> <Gold.PLP.PLP>
-46.9518

> <Gold.PLP.part.hbond>
-5.5008

> <Gold.PLP.part.metal>
0.0000

> <Gold.PLP.part.buried>
-3.6232

> <Gold.PLP.part.nonpolar>
-38.1277

> <Gold.PLP.part.repulsive>
0.5981

> <Gold.PLP.ligand.clash>
0.0000

> <Gold.PLP.ligand.torsion>
1.2800

> <Gold.PLP.Chemscore.Hbond>
2.8017

> <Gold.PLP.Chemscore.CHOScore>
0.8158

> <Gold.PLP.Chemscore.Metal>
0.0000

> <Gold.Chemscore.Hbonds>
donor molecule, donor type, donor heavy atom, donor atom, acceptor molecule, acceptor atom, score
      L1  H    23    50       P1  8029  0.13
      L1  H    25    51       P1 10174  0.83
      L1  H    27    52       P1  8028  0.86
      P1  H  7989  7998       L1    11  0.75
      L1  C    12    46       P1  7957  0.85

> <Gold.PLP.Chemscore.Internal.Correction>
0.1143

> <Gold.Rescore>
     Score         DG    S(hbond)    S(metal)    S(lipo)     H(rot)  DE(clash)    DE(int)     intcor
      3.21      -6.69       0.95        0.00      90.57       4.90       0.24       3.24       ----

> <Gold.Chemscore.Fitness>
3.2144

> <Gold.Chemscore.DG>
-6.6927

> <Gold.Chemscore.ZeroCoef>
-5.4800

> <Gold.Chemscore.Hbond>
0.9482

> <Gold.Chemscore.Metal>
0.0000

> <Gold.Chemscore.Lipo>
90.5741

> <Gold.Chemscore.Internal_Hbond>
0.0000

> <Gold.Chemscore.DEClash>
0.2418

> <Gold.Chemscore.DEInternal>
3.2365

> <Gold.Chemscore.Rot>
4.9029

> <Gold.Chemscore.Internal.Correction>
   9.000000E+99

> <Gold.Chemscore.Hbonds>
donor molecule, donor type, donor heavy atom, donor atom, acceptor molecule, acceptor atom, score
      L1  H    23    50       P1  8029  0.02
      L1  H    25    51       P1 10174  0.39
      L1  H    27    52       P1  8028  0.38
      P1  H  7989  7998       L1    11  0.03

> <Gold.Chemscore.Hbond.Weighted>
-3.1671

> <Gold.Chemscore.Metal.Weighted>
-0.0000

> <Gold.Chemscore.Lipo.Weighted>
-10.5972

> <Gold.Chemscore.Internal_Hbond.Weighted>
0.0000

> <Gold.Chemscore.DEClash.Weighted>
0.2418

> <Gold.Chemscore.DEInternal.Weighted>
3.2365

> <Gold.Chemscore.Rot.Weighted>
12.5515

> <Gold.Chemscore.Internal.Correction.Weighted>
   9.000000E+99

> <Gold.Protein.RotatedTorsions>
[ 6907 6896 6895 6894 ] final -103.57 input  -60.11 | X-H torsion
[ 7974 7965 7964 7962 ] final  136.60 input  175.53 | X-H torsion
[ 8008 7997 7996 7995 ] final   51.50 input   59.86 | X-H torsion
[ 10167 10162 10161 10158 ] final -155.71 input  -65.29 | X-H torsion
[ 10718 10713 10712 10709 ] final  -14.36 input   66.30 | X-H torsion
[ 10763 10752 10751 10750 ] final  162.16 input  -60.55 | X-H torsion
[ 11005 11000 10999 10996 ] final  -36.30 input  -57.11 | X-H torsion

> <Gold.Protein.ActiveResidues>
 VAL166  LYS551  ARG553  GLY616  TRP617  ASP618  TYR619  PRO620  LYS621  CYS622 
 ASP623  PHE694  ASN695  SER759  ASP760  ASP761  ALA762  ILE779  LEU786  VAL792 
 PHE793  MET794  SER795  GLU796  ALA797  LYS798  CYS799  TRP800  GLU811  SER814 

> <Gold.Protein.RotatedAtoms>
  150.7246  134.0409  159.3764 H   0  0  0  0  0  0  0  0  0  0  0  0  # atno 6907 bound_to 6896
  151.8382  135.0597  160.0454 H   0  0  0  0  0  0  0  0  0  0  0  0  # atno 6908 bound_to 6896
  152.2882  133.5500  159.5577 H   0  0  0  0  0  0  0  0  0  0  0  0  # atno 6909 bound_to 6896
  144.9549  139.4776  143.5508 H   0  0  0  0  0  0  0  0  0  0  0  0  # atno 7974 bound_to 7965
  155.4363  140.3452  155.4285 H   0  0  0  0  0  0  0  0  0  0  0  0  # atno 8008 bound_to 7997
  156.1306  140.1513  156.9102 H   0  0  0  0  0  0  0  0  0  0  0  0  # atno 8009 bound_to 7997
  154.4891  140.0846  156.7535 H   0  0  0  0  0  0  0  0  0  0  0  0  # atno 8010 bound_to 7997
  139.6909  143.9422  152.2384 H   0  0  0  0  0  0  0  0  0  0  0  0  # atno 10167 bound_to 10162
  156.6171  130.4865  149.6179 H   0  0  0  0  0  0  0  0  0  0  0  0  # atno 10718 bound_to 10713
  154.2740  135.2765  155.2726 H   0  0  0  0  0  0  0  0  0  0  0  0  # atno 10763 bound_to 10752
  154.5276  135.5739  153.6736 H   0  0  0  0  0  0  0  0  0  0  0  0  # atno 10764 bound_to 10752
  152.9940  135.6220  154.2896 H   0  0  0  0  0  0  0  0  0  0  0  0  # atno 10765 bound_to 10752
  140.9864  133.7028  156.1773 H   0  0  0  0  0  0  0  0  0  0  0  0  # atno 11005 bound_to 11000
  146.3334  139.8659  142.8848 LP  0  0  0  0  0  0  0  0  0  0  0  0  # atno 17320 bound_to 7965
  145.2788  141.0132  143.3729 LP  0  0  0  0  0  0  0  0  0  0  0  0  # atno 17321 bound_to 7965
  139.9238  144.6783  150.8434 LP  0  0  0  0  0  0  0  0  0  0  0  0  # atno 17342 bound_to 10162
  140.7682  143.3356  151.2316 LP  0  0  0  0  0  0  0  0  0  0  0  0  # atno 17343 bound_to 10162
  156.2342  130.6813  151.1493 LP  0  0  0  0  0  0  0  0  0  0  0  0  # atno 17370 bound_to 10713
  157.7238  131.0664  150.6021 LP  0  0  0  0  0  0  0  0  0  0  0  0  # atno 17371 bound_to 10713
  140.7108  134.4464  157.5581 LP  0  0  0  0  0  0  0  0  0  0  0  0  # atno 17394 bound_to 11000
  139.8972  134.8641  156.2053 LP  0  0  0  0  0  0  0  0  0  0  0  0  # atno 17395 bound_to 11000

$$$$
