AV-unprocessed.smi:2842|AV-procd|sdf|10936|dock5
  -GOLD-   2272015383D 1   1.00000     0.00000
 Structure written by MMmdl.
 35 37  0  0  0  0  0  0  0  0  1 V2000
  147.4206  141.0488  155.6273 O   0  0  0  0  0  0  0  0  0  0  0  0
  148.2001  140.9780  154.6761 C   0  0  0  0  0  0  0  0  0  0  0  0
  149.5626  141.6861  154.7258 C   0  0  0  0  0  0  0  0  0  0  0  0
  150.3326  141.3825  155.9463 N   0  0  0  0  0  0  0  0  0  0  0  0
  149.9857  142.0989  157.1089 C   0  0  0  0  0  0  0  0  0  0  0  0
  150.5978  141.9099  158.2344 N   0  0  0  0  0  0  0  0  0  0  0  0
  151.6381  140.9766  158.3129 C   0  0  0  0  0  0  0  0  0  0  0  0
  152.3463  140.8128  159.6506 C   0  0  0  0  0  0  0  0  0  0  0  0
  153.0135  142.0708  160.2327 C   0  0  0  0  0  0  0  0  0  0  0  0
  154.1599  141.1660  160.6979 C   0  0  0  0  0  0  0  0  0  0  0  0
  153.7507  140.1909  159.5883 C   0  0  0  0  0  0  0  0  0  0  0  0
  152.0132  140.2696  157.2207 C   0  0  0  0  0  0  0  0  0  0  0  0
  151.3345  140.4543  155.9384 C   0  0  0  0  0  0  0  0  0  0  0  0
  151.6423  139.8220  154.9277 O   0  0  0  0  0  0  0  0  0  0  0  0
  147.9406  140.2827  153.5594 N   0  0  0  0  0  0  0  0  0  0  0  0
  146.7417  139.5549  153.2954 C   0  0  0  0  0  0  0  0  0  0  0  0
  146.7883  138.0482  153.4292 C   0  0  0  0  0  0  0  0  0  0  0  0
  146.7132  138.6751  152.0644 C   0  0  0  0  0  0  0  0  0  0  0  0
  150.1151  141.4171  153.8237 H   0  0  0  0  0  0  0  0  0  0  0  0
  149.4120  142.7651  154.6520 H   0  0  0  0  0  0  0  0  0  0  0  0
  149.1747  142.8195  156.9927 H   0  0  0  0  0  0  0  0  0  0  0  0
  151.7129  140.3117  160.3848 H   0  0  0  0  0  0  0  0  0  0  0  0
  153.3355  142.7882  159.4756 H   0  0  0  0  0  0  0  0  0  0  0  0
  152.4564  142.5530  161.0364 H   0  0  0  0  0  0  0  0  0  0  0  0
  155.1560  141.5954  160.5871 H   0  0  0  0  0  0  0  0  0  0  0  0
  154.0011  140.7603  161.6984 H   0  0  0  0  0  0  0  0  0  0  0  0
  153.7973  139.1371  159.8643 H   0  0  0  0  0  0  0  0  0  0  0  0
  154.2705  140.3864  158.6483 H   0  0  0  0  0  0  0  0  0  0  0  0
  152.8230  139.5578  157.2884 H   0  0  0  0  0  0  0  0  0  0  0  0
  148.6435  140.2766  152.8345 H   0  0  0  0  0  0  0  0  0  0  0  0
  145.7987  140.0292  153.5642 H   0  0  0  0  0  0  0  0  0  0  0  0
  147.7321  137.5911  153.7205 H   0  0  0  0  0  0  0  0  0  0  0  0
  145.8958  137.5504  153.8029 H   0  0  0  0  0  0  0  0  0  0  0  0
  145.7704  138.5981  151.5263 H   0  0  0  0  0  0  0  0  0  0  0  0
  147.6069  138.6376  151.4443 H   0  0  0  0  0  0  0  0  0  0  0  0
  1  2  2  0  0  0  0
  2  3  1  0  0  0  0
  2 15  1  0  0  0  0
  3  4  1  0  0  0  0
  3 19  1  0  0  0  0
  3 20  1  0  0  0  0
  4 13  1  0  0  0  0
  4  5  1  0  0  0  0
  5  6  2  0  0  0  0
  5 21  1  0  0  0  0
  6  7  1  0  0  0  0
  7  8  1  0  0  0  0
  7 12  2  0  0  0  0
  8 11  1  0  0  0  0
  8  9  1  0  0  0  0
  8 22  1  0  0  0  0
  9 10  1  0  0  0  0
  9 23  1  0  0  0  0
  9 24  1  0  0  0  0
 10 11  1  0  0  0  0
 10 25  1  0  0  0  0
 10 26  1  0  0  0  0
 11 27  1  0  0  0  0
 11 28  1  0  0  0  0
 12 13  1  0  0  0  0
 12 29  1  0  0  0  0
 13 14  2  0  0  0  0
 15 16  1  0  0  0  0
 15 30  1  0  0  0  0
 16 18  1  0  0  0  0
 16 17  1  0  0  0  0
 16 31  1  0  0  0  0
 17 18  1  0  0  0  0
 17 32  1  0  0  0  0
 17 33  1  0  0  0  0
 18 34  1  0  0  0  0
 18 35  1  0  0  0  0
M  END
> <s_m_source_file>
AV-unprocessed.smi

> <i_m_source_file_index>
2842

> <i_lp_mmshare_version>
43012

> <i_f3d_flags>
0

> <s_epik_input>
W0NIMl0xW0NIMl1bQ0hdMVtOSF1DKD1PKVtDSDJdbjJbY0hdbmMoW2NIXWMyPU8pW0NIXTNbQ0gyXVtDSDJdW0NIMl0z

> <s_epik_cmdline>
J2VwaWtfcHl0aG9uJywgJy1waCcsICc3LjAnLCAnLXRuJywgJzgnLCAnLW1hJywgJzIwMCcsICctbWV0YWxfYmluZGluZycsICctaW1hZScsICc8aW5maWxlLm1hZT4nLCAnLW9tYWUnLCAnPG91dGZpbGUubWFlPic=

> <r_lp_tautomer_probability>
1

> <r_epik_Ionization_Penalty>
7.30946e-06

> <r_epik_Ionization_Penalty_Charging>
8.23701e-09

> <r_epik_Ionization_Penalty_Neutral>
7.30122e-06

> <r_epik_State_Penalty>
-0

> <r_epik_Charging_Adjusted_Penalty>
8.23701e-09

> <i_epik_Tot_Q>
0

> <i_epik_Tot_abs_Q>
0

> <r_epik_Metal_State_Penalty>
-0

> <b_epik_Metal_Only>
0

> <s_lp_Force_Field>
OPLS_2005

> <r_lp_Energy>
30.4853

> <b_lp_Chiralities_Consistent>
1

> <s_lp_Variant>
AV-unprocessed.smi:2842-1

> <Gold.Version>
5.8.1

> <Gold.Id.Protein>
6NUR|6NUR_protein|mol2

> <Gold.PLP.Fitness>
43.5193

> <Gold.PLP.PLP>
-35.6814

> <Gold.PLP.part.hbond>
-2.0000

> <Gold.PLP.part.metal>
0.0000

> <Gold.PLP.part.buried>
-0.2736

> <Gold.PLP.part.nonpolar>
-32.1262

> <Gold.PLP.part.repulsive>
0.2412

> <Gold.PLP.ligand.clash>
0.0000

> <Gold.PLP.ligand.torsion>
0.7865

> <Gold.PLP.Chemscore.Hbond>
2.0000

> <Gold.PLP.Chemscore.CHOScore>
1.0000

> <Gold.PLP.Chemscore.Metal>
0.0000

> <Gold.Chemscore.Hbonds>
donor molecule, donor type, donor heavy atom, donor atom, acceptor molecule, acceptor atom, score
      L1  H    15    30       P1  7957  1.00
      P1  H  7989  7998       L1    14  1.00
      L1  C     5    21       P1  8028  1.00

> <Gold.PLP.Chemscore.Internal.Correction>
0.4108

> <Gold.Rescore>
     Score         DG    S(hbond)    S(metal)    S(lipo)     H(rot)  DE(clash)    DE(int)     intcor
     15.41     -16.17       1.88        0.00      75.62       1.73       0.02       0.75       ----

> <Gold.Chemscore.Fitness>
15.4055

> <Gold.Chemscore.DG>
-16.1724

> <Gold.Chemscore.ZeroCoef>
-5.4800

> <Gold.Chemscore.Hbond>
1.8786

> <Gold.Chemscore.Metal>
0.0000

> <Gold.Chemscore.Lipo>
75.6228

> <Gold.Chemscore.Internal_Hbond>
0.0000

> <Gold.Chemscore.DEClash>
0.0174

> <Gold.Chemscore.DEInternal>
0.7495

> <Gold.Chemscore.Rot>
1.7305

> <Gold.Chemscore.Internal.Correction>
   9.000000E+99

> <Gold.Chemscore.Hbonds>
donor molecule, donor type, donor heavy atom, donor atom, acceptor molecule, acceptor atom, score
      L1  H    15    30       P1  7957  0.99
      P1  H  7989  7998       L1    14  0.77

> <Gold.Chemscore.Hbond.Weighted>
-6.2745

> <Gold.Chemscore.Metal.Weighted>
-0.0000

> <Gold.Chemscore.Lipo.Weighted>
-8.8479

> <Gold.Chemscore.Internal_Hbond.Weighted>
0.0000

> <Gold.Chemscore.DEClash.Weighted>
0.0174

> <Gold.Chemscore.DEInternal.Weighted>
0.7495

> <Gold.Chemscore.Rot.Weighted>
4.4300

> <Gold.Chemscore.Internal.Correction.Weighted>
   9.000000E+99

> <Gold.Protein.RotatedTorsions>
[ 6907 6896 6895 6894 ] final  140.75 input  -60.11 | X-H torsion
[ 7974 7965 7964 7962 ] final   99.99 input  175.53 | X-H torsion
[ 8008 7997 7996 7995 ] final   77.58 input   59.86 | X-H torsion
[ 10167 10162 10161 10158 ] final   97.57 input  -65.29 | X-H torsion
[ 10718 10713 10712 10709 ] final  -32.96 input   66.30 | X-H torsion
[ 10763 10752 10751 10750 ] final  123.55 input  -60.55 | X-H torsion
[ 11005 11000 10999 10996 ] final  -40.72 input  -57.11 | X-H torsion

> <Gold.Protein.ActiveResidues>
 VAL166  LYS551  ARG553  GLY616  TRP617  ASP618  TYR619  PRO620  LYS621  CYS622 
 ASP623  PHE694  ASN695  SER759  ASP760  ASP761  ALA762  ILE779  LEU786  VAL792 
 PHE793  MET794  SER795  GLU796  ALA797  LYS798  CYS799  TRP800  GLU811  SER814 

> <Gold.Protein.RotatedAtoms>
  152.2392  133.5121  159.5260 H   0  0  0  0  0  0  0  0  0  0  0  0  # atno 6907 bound_to 6896
  150.7059  134.1111  159.4009 H   0  0  0  0  0  0  0  0  0  0  0  0  # atno 6908 bound_to 6896
  151.9032  135.0369  160.0559 H   0  0  0  0  0  0  0  0  0  0  0  0  # atno 6909 bound_to 6896
  145.3915  139.2362  143.3349 H   0  0  0  0  0  0  0  0  0  0  0  0  # atno 7974 bound_to 7965
  155.8436  140.3461  155.5647 H   0  0  0  0  0  0  0  0  0  0  0  0  # atno 8008 bound_to 7997
  155.8114  140.0899  157.1921 H   0  0  0  0  0  0  0  0  0  0  0  0  # atno 8009 bound_to 7997
  154.4005  140.1447  156.3379 H   0  0  0  0  0  0  0  0  0  0  0  0  # atno 8010 bound_to 7997
  139.7788  144.6896  151.0051 H   0  0  0  0  0  0  0  0  0  0  0  0  # atno 10167 bound_to 10162
  156.3685  130.4335  149.7565 H   0  0  0  0  0  0  0  0  0  0  0  0  # atno 10718 bound_to 10713
  153.6473  135.3369  155.3089 H   0  0  0  0  0  0  0  0  0  0  0  0  # atno 10763 bound_to 10752
  154.8546  135.4332  154.1941 H   0  0  0  0  0  0  0  0  0  0  0  0  # atno 10764 bound_to 10752
  153.2875  135.7014  153.7400 H   0  0  0  0  0  0  0  0  0  0  0  0  # atno 10765 bound_to 10752
  141.0195  133.6869  156.2360 H   0  0  0  0  0  0  0  0  0  0  0  0  # atno 11005 bound_to 11000
  146.2795  140.4599  142.8782 LP  0  0  0  0  0  0  0  0  0  0  0  0  # atno 17320 bound_to 7965
  144.8437  140.6896  143.6213 LP  0  0  0  0  0  0  0  0  0  0  0  0  # atno 17321 bound_to 7965
  140.7817  143.4506  151.0419 LP  0  0  0  0  0  0  0  0  0  0  0  0  # atno 17342 bound_to 10162
  139.8187  143.7850  152.3176 LP  0  0  0  0  0  0  0  0  0  0  0  0  # atno 17343 bound_to 10162
  156.4702  130.7993  151.3011 LP  0  0  0  0  0  0  0  0  0  0  0  0  # atno 17370 bound_to 10713
  157.7481  131.0038  150.3053 LP  0  0  0  0  0  0  0  0  0  0  0  0  # atno 17371 bound_to 10713
  140.6597  134.4980  157.5582 LP  0  0  0  0  0  0  0  0  0  0  0  0  # atno 17394 bound_to 11000
  139.9137  134.8290  156.1438 LP  0  0  0  0  0  0  0  0  0  0  0  0  # atno 17395 bound_to 11000

$$$$
