AV-unprocessed.smi:297|AV-procd|sdf|2259|dock9
  -GOLD-   2262022143D 1   1.00000     0.00000
 Structure written by MMmdl.
 29 30  0  0  0  0  0  0  0  0  1 V2000
  154.9112  139.7623  160.7168 N   0  0  0  0  0  0  0  0  0  0  0  0
  154.1064  140.2681  160.0565 C   0  0  0  0  0  0  0  0  0  0  0  0
  153.0952  140.9042  159.2261 C   0  0  0  0  0  0  0  0  0  0  0  0
  152.8260  140.3116  158.0416 N   0  0  0  0  0  0  0  0  0  0  0  0
  151.8897  140.8605  157.2319 C   0  0  0  0  0  0  0  0  0  0  0  0
  151.6158  140.2327  156.0088 N   0  0  0  0  0  0  0  0  0  0  0  0
  152.3850  139.0141  155.7942 C   0  0  0  0  0  0  0  0  0  0  0  0
  152.1130  138.4662  154.3843 C   0  0  0  0  0  0  0  0  0  0  0  0
  150.7141  138.2557  154.2181 O   0  0  0  0  0  0  0  0  0  0  0  0
  149.9586  139.4615  154.3529 C   0  0  1  0  0  0  0  0  0  0  0  0
  148.4770  139.1566  154.0864 C   0  0  0  0  0  0  0  0  0  0  0  0
  148.1023  138.9906  152.8146 N   0  0  0  0  0  0  0  0  0  0  0  0
  147.6705  139.0875  155.0124 O   0  0  0  0  0  0  0  0  0  0  0  0
  150.1905  140.0457  155.7650 C   0  0  0  0  0  0  0  0  0  0  0  0
  151.1824  142.0299  157.5754 C   0  0  0  0  0  0  0  0  0  0  0  0
  151.4628  142.6497  158.8072 C   0  0  0  0  0  0  0  0  0  0  0  0
  152.4353  142.0828  159.6538 C   0  0  0  0  0  0  0  0  0  0  0  0
  152.7837  142.8396  161.1709 Cl  0  0  0  0  0  0  0  0  0  0  0  0
  153.4486  139.2220  155.9172 H   0  0  0  0  0  0  0  0  0  0  0  0
  152.1123  138.2663  156.5404 H   0  0  0  0  0  0  0  0  0  0  0  0
  152.4826  139.1523  153.6205 H   0  0  0  0  0  0  0  0  0  0  0  0
  152.6341  137.5195  154.2421 H   0  0  0  0  0  0  0  0  0  0  0  0
  150.2886  140.1766  153.5973 H   0  0  0  0  0  0  0  0  0  0  0  0
  147.1356  138.7943  152.5987 H   0  0  0  0  0  0  0  0  0  0  0  0
  148.7856  139.0675  152.0754 H   0  0  0  0  0  0  0  0  0  0  0  0
  149.7735  139.3774  156.5204 H   0  0  0  0  0  0  0  0  0  0  0  0
  149.6808  141.0052  155.8662 H   0  0  0  0  0  0  0  0  0  0  0  0
  150.4394  142.4452  156.9102 H   0  0  0  0  0  0  0  0  0  0  0  0
  150.9377  143.5477  159.0979 H   0  0  0  0  0  0  0  0  0  0  0  0
  1  2  3  0  0  0  0
  2  3  1  0  0  0  0
  3 17  1  0  0  0  0
  3  4  2  0  0  0  0
  4  5  1  0  0  0  0
  5  6  1  0  0  0  0
  5 15  2  0  0  0  0
  6 14  1  0  0  0  0
  6  7  1  0  0  0  0
  7  8  1  0  0  0  0
  7 19  1  0  0  0  0
  7 20  1  0  0  0  0
  8  9  1  0  0  0  0
  8 21  1  0  0  0  0
  8 22  1  0  0  0  0
  9 10  1  0  0  0  0
 10 11  1  0  0  0  0
 10 14  1  0  0  0  0
 10 23  1  0  0  0  0
 11 12  1  0  0  0  0
 11 13  2  0  0  0  0
 12 24  1  0  0  0  0
 12 25  1  0  0  0  0
 14 26  1  0  0  0  0
 14 27  1  0  0  0  0
 15 16  1  0  0  0  0
 15 28  1  0  0  0  0
 16 17  2  0  0  0  0
 16 29  1  0  0  0  0
 17 18  1  0  0  0  0
M  END
> <s_m_source_file>
AV-unprocessed.smi

> <i_m_source_file_index>
297

> <i_lp_mmshare_version>
43012

> <i_f3d_flags>
0

> <s_epik_input>
TiNDYzFuYyhbY0hdW2NIXWMxQ2wpTjJbQ0gyXVtDSDJdT1tDQEhdKFtDSDJdMilDKD1PKVtOSDJd

> <s_epik_cmdline>
J2VwaWtfcHl0aG9uJywgJy1waCcsICc3LjAnLCAnLXRuJywgJzgnLCAnLW1hJywgJzIwMCcsICctbWV0YWxfYmluZGluZycsICctaW1hZScsICc8aW5maWxlLm1hZT4nLCAnLW9tYWUnLCAnPG91dGZpbGUubWFlPic=

> <r_lp_tautomer_probability>
1

> <r_epik_Ionization_Penalty>
8.82403e-08

> <r_epik_Ionization_Penalty_Charging>
0

> <r_epik_Ionization_Penalty_Neutral>
8.82403e-08

> <r_epik_State_Penalty>
-0

> <r_epik_Charging_Adjusted_Penalty>
0

> <i_epik_Tot_Q>
0

> <i_epik_Tot_abs_Q>
0

> <r_epik_Metal_State_Penalty>
-0

> <b_epik_Metal_Only>
0

> <s_lp_Force_Field>
OPLS_2005

> <r_lp_Energy>
18.8034

> <b_lp_Chiralities_Consistent>
1

> <s_lp_Variant>
AV-unprocessed.smi:297-1

> <Gold.Version>
5.8.1

> <Gold.Id.Protein>
6NUR|6NUR_protein|mol2

> <Gold.PLP.Fitness>
38.4266

> <Gold.PLP.PLP>
-33.8927

> <Gold.PLP.part.hbond>
-2.9309

> <Gold.PLP.part.metal>
0.0000

> <Gold.PLP.part.buried>
-5.3438

> <Gold.PLP.part.nonpolar>
-25.2735

> <Gold.PLP.part.repulsive>
0.3399

> <Gold.PLP.ligand.clash>
0.0000

> <Gold.PLP.ligand.torsion>
0.5580

> <Gold.PLP.Chemscore.Hbond>
1.8488

> <Gold.PLP.Chemscore.CHOScore>
0.0000

> <Gold.PLP.Chemscore.Metal>
0.0000

> <Gold.Chemscore.Hbonds>
donor molecule, donor type, donor heavy atom, donor atom, acceptor molecule, acceptor atom, score
      L1  H    12    25       P1  7957  0.94
      P1  H  7997  8008       L1     4  0.92

> <Gold.PLP.Chemscore.Internal.Correction>
0.1034

> <Gold.Rescore>
     Score         DG    S(hbond)    S(metal)    S(lipo)     H(rot)  DE(clash)    DE(int)     intcor
     14.76     -15.45       1.43        0.00      77.30       1.50       0.11       0.58       ----

> <Gold.Chemscore.Fitness>
14.7564

> <Gold.Chemscore.DG>
-15.4496

> <Gold.Chemscore.ZeroCoef>
-5.4800

> <Gold.Chemscore.Hbond>
1.4274

> <Gold.Chemscore.Metal>
0.0000

> <Gold.Chemscore.Lipo>
77.2976

> <Gold.Chemscore.Internal_Hbond>
0.0000

> <Gold.Chemscore.DEClash>
0.1139

> <Gold.Chemscore.DEInternal>
0.5793

> <Gold.Chemscore.Rot>
1.5006

> <Gold.Chemscore.Internal.Correction>
   9.000000E+99

> <Gold.Chemscore.Hbonds>
donor molecule, donor type, donor heavy atom, donor atom, acceptor molecule, acceptor atom, score
      L1  H    12    25       P1  7957  0.85
      P1  H  7997  8008       L1     4  0.39

> <Gold.Chemscore.Hbond.Weighted>
-4.7674

> <Gold.Chemscore.Metal.Weighted>
-0.0000

> <Gold.Chemscore.Lipo.Weighted>
-9.0438

> <Gold.Chemscore.Internal_Hbond.Weighted>
0.0000

> <Gold.Chemscore.DEClash.Weighted>
0.1139

> <Gold.Chemscore.DEInternal.Weighted>
0.5793

> <Gold.Chemscore.Rot.Weighted>
3.8416

> <Gold.Chemscore.Internal.Correction.Weighted>
   9.000000E+99

> <Gold.Protein.RotatedTorsions>
[ 6907 6896 6895 6894 ] final  -97.07 input  -60.11 | X-H torsion
[ 7974 7965 7964 7962 ] final -135.01 input  175.53 | X-H torsion
[ 8008 7997 7996 7995 ] final  -75.03 input   59.86 | X-H torsion
[ 10167 10162 10161 10158 ] final   47.29 input  -65.29 | X-H torsion
[ 10718 10713 10712 10709 ] final   21.53 input   66.30 | X-H torsion
[ 10763 10752 10751 10750 ] final  151.10 input  -60.55 | X-H torsion
[ 11005 11000 10999 10996 ] final  -95.77 input  -57.11 | X-H torsion

> <Gold.Protein.ActiveResidues>
 VAL166  LYS551  ARG553  GLY616  TRP617  ASP618  TYR619  PRO620  LYS621  CYS622 
 ASP623  PHE694  ASN695  SER759  ASP760  ASP761  ALA762  ILE779  LEU786  VAL792 
 PHE793  MET794  SER795  GLU796  ALA797  LYS798  CYS799  TRP800  GLU811  SER814 

> <Gold.Protein.RotatedAtoms>
  150.7006  134.1406  159.4103 H   0  0  0  0  0  0  0  0  0  0  0  0  # atno 6907 bound_to 6896
  151.9390  135.0219  160.0544 H   0  0  0  0  0  0  0  0  0  0  0  0  # atno 6908 bound_to 6896
  152.2110  133.4876  159.5146 H   0  0  0  0  0  0  0  0  0  0  0  0  # atno 6909 bound_to 6896
  144.9052  140.6823  143.5060 H   0  0  0  0  0  0  0  0  0  0  0  0  # atno 7974 bound_to 7965
  154.5381  140.0751  156.8463 H   0  0  0  0  0  0  0  0  0  0  0  0  # atno 8008 bound_to 7997
  155.3236  140.3397  155.4222 H   0  0  0  0  0  0  0  0  0  0  0  0  # atno 8009 bound_to 7997
  156.1848  140.1665  156.8192 H   0  0  0  0  0  0  0  0  0  0  0  0  # atno 8010 bound_to 7997
  140.3052  144.2887  150.6211 H   0  0  0  0  0  0  0  0  0  0  0  0  # atno 10167 bound_to 10162
  157.1397  130.6627  149.5977 H   0  0  0  0  0  0  0  0  0  0  0  0  # atno 10718 bound_to 10713
  154.0983  135.2847  155.3257 H   0  0  0  0  0  0  0  0  0  0  0  0  # atno 10763 bound_to 10752
  154.6573  135.5347  153.7978 H   0  0  0  0  0  0  0  0  0  0  0  0  # atno 10764 bound_to 10752
  153.0388  135.6525  154.1148 H   0  0  0  0  0  0  0  0  0  0  0  0  # atno 10765 bound_to 10752
  141.1432  133.8050  157.0481 H   0  0  0  0  0  0  0  0  0  0  0  0  # atno 11005 bound_to 11000
  145.3548  139.1697  143.4415 LP  0  0  0  0  0  0  0  0  0  0  0  0  # atno 17320 bound_to 7965
  146.3130  140.3604  142.8664 LP  0  0  0  0  0  0  0  0  0  0  0  0  # atno 17321 bound_to 7965
  140.5616  143.2191  151.7754 LP  0  0  0  0  0  0  0  0  0  0  0  0  # atno 17342 bound_to 10162
  139.4906  144.4340  151.9840 LP  0  0  0  0  0  0  0  0  0  0  0  0  # atno 17343 bound_to 10162
  155.9791  130.4782  150.6695 LP  0  0  0  0  0  0  0  0  0  0  0  0  # atno 17370 bound_to 10713
  157.4318  131.0850  151.1031 LP  0  0  0  0  0  0  0  0  0  0  0  0  # atno 17371 bound_to 10713
  140.0649  134.9734  157.1369 LP  0  0  0  0  0  0  0  0  0  0  0  0  # atno 17394 bound_to 11000
  140.3794  134.2304  155.7172 LP  0  0  0  0  0  0  0  0  0  0  0  0  # atno 17395 bound_to 11000

$$$$
