AV-unprocessed.smi:1444|AV-procd|sdf|5882|dock1
  -GOLD-   22720 5563D 1   1.00000     0.00000
 Structure written by MMmdl.
 43 44  0  0  0  0  0  0  0  0  1 V2000
  151.1516  140.3176  155.4556 C   0  0  0  0  0  0  0  0  0  0  0  0
  151.9197  140.2470  156.6520 O   0  0  0  0  0  0  0  0  0  0  0  0
  151.9587  141.3543  157.4779 C   0  0  0  0  0  0  0  0  0  0  0  0
  151.1922  142.4266  157.1559 N   0  0  0  0  0  0  0  0  0  0  0  0
  151.2265  143.5072  157.9627 C   0  0  0  0  0  0  0  0  0  0  0  0
  152.0131  143.5745  159.1270 C   0  0  0  0  0  0  0  0  0  0  0  0
  152.8091  142.4639  159.4631 C   0  0  0  0  0  0  0  0  0  0  0  0
  152.7962  141.3282  158.6175 C   0  0  0  0  0  0  0  0  0  0  0  0
  153.5463  140.1481  158.8762 N   0  0  0  0  0  0  0  0  0  0  0  0
  154.1188  139.7589  160.0278 C   0  0  0  0  0  0  0  0  0  0  0  0
  154.0980  140.3933  161.0824 O   0  0  0  0  0  0  0  0  0  0  0  0
  154.7500  138.5849  159.8813 N   0  0  0  0  0  0  0  0  0  0  0  0
  155.4938  137.8829  160.9249 C   0  0  1  0  0  0  0  0  0  0  0  0
  156.4556  138.8932  161.5698 C   0  0  0  0  0  0  0  0  0  0  0  0
  154.4869  137.2204  161.8983 C   0  0  0  0  0  0  0  0  0  0  0  0
  154.5859  135.7662  162.0554 N   0  0  0  0  0  0  0  0  0  0  0  0
  153.6555  135.2406  163.0552 C   0  0  0  0  0  0  0  0  0  0  0  0
  153.7492  133.7101  163.1839 C   0  0  0  0  0  0  0  0  0  0  0  0
  153.5085  133.1074  161.9174 O   0  0  0  0  0  0  0  0  0  0  0  0
  154.4157  133.5582  160.9180 C   0  0  0  0  0  0  0  0  0  0  0  0
  154.3184  135.0882  160.7891 C   0  0  0  0  0  0  0  0  0  0  0  0
  151.2330  139.3727  154.9187 H   0  0  0  0  0  0  0  0  0  0  0  0
  151.5137  141.1055  154.7935 H   0  0  0  0  0  0  0  0  0  0  0  0
  150.0952  140.4864  155.6695 H   0  0  0  0  0  0  0  0  0  0  0  0
  150.6028  144.3406  157.6751 H   0  0  0  0  0  0  0  0  0  0  0  0
  152.0026  144.4558  159.7511 H   0  0  0  0  0  0  0  0  0  0  0  0
  153.3993  142.4988  160.3657 H   0  0  0  0  0  0  0  0  0  0  0  0
  153.7288  139.5687  158.0697 H   0  0  0  0  0  0  0  0  0  0  0  0
  154.7159  138.1403  158.9755 H   0  0  0  0  0  0  0  0  0  0  0  0
  156.0960  137.1031  160.4548 H   0  0  0  0  0  0  0  0  0  0  0  0
  157.2327  138.3942  162.1460 H   0  0  0  0  0  0  0  0  0  0  0  0
  155.9284  139.5884  162.2240 H   0  0  0  0  0  0  0  0  0  0  0  0
  156.9731  139.4806  160.8102 H   0  0  0  0  0  0  0  0  0  0  0  0
  154.5235  137.7082  162.8736 H   0  0  0  0  0  0  0  0  0  0  0  0
  153.4931  137.4474  161.5087 H   0  0  0  0  0  0  0  0  0  0  0  0
  153.8420  135.6765  164.0315 H   0  0  0  0  0  0  0  0  0  0  0  0
  152.6332  135.5130  162.7880 H   0  0  0  0  0  0  0  0  0  0  0  0
  154.7306  133.4127  163.5565 H   0  0  0  0  0  0  0  0  0  0  0  0
  153.0105  133.3443  163.8972 H   0  0  0  0  0  0  0  0  0  0  0  0
  155.4321  133.2556  161.1748 H   0  0  0  0  0  0  0  0  0  0  0  0
  154.1681  133.0804  159.9701 H   0  0  0  0  0  0  0  0  0  0  0  0
  153.3248  135.3573  160.4272 H   0  0  0  0  0  0  0  0  0  0  0  0
  155.0277  135.4242  160.0315 H   0  0  0  0  0  0  0  0  0  0  0  0
  1  2  1  0  0  0  0
  1 22  1  0  0  0  0
  1 23  1  0  0  0  0
  1 24  1  0  0  0  0
  2  3  1  0  0  0  0
  3  8  1  0  0  0  0
  3  4  2  0  0  0  0
  4  5  1  0  0  0  0
  5  6  2  0  0  0  0
  5 25  1  0  0  0  0
  6  7  1  0  0  0  0
  6 26  1  0  0  0  0
  7  8  2  0  0  0  0
  7 27  1  0  0  0  0
  8  9  1  0  0  0  0
  9 10  1  0  0  0  0
  9 28  1  0  0  0  0
 10 11  2  0  0  0  0
 10 12  1  0  0  0  0
 12 13  1  0  0  0  0
 12 29  1  0  0  0  0
 13 14  1  0  0  0  0
 13 15  1  0  0  0  0
 13 30  1  0  0  0  0
 14 31  1  0  0  0  0
 14 32  1  0  0  0  0
 14 33  1  0  0  0  0
 15 16  1  0  0  0  0
 15 34  1  0  0  0  0
 15 35  1  0  0  0  0
 16 21  1  0  0  0  0
 16 17  1  0  0  0  0
 17 18  1  0  0  0  0
 17 36  1  0  0  0  0
 17 37  1  0  0  0  0
 18 19  1  0  0  0  0
 18 38  1  0  0  0  0
 18 39  1  0  0  0  0
 19 20  1  0  0  0  0
 20 21  1  0  0  0  0
 20 40  1  0  0  0  0
 20 41  1  0  0  0  0
 21 42  1  0  0  0  0
 21 43  1  0  0  0  0
M  END
> <s_m_source_file>
AV-unprocessed.smi

> <i_m_source_file_index>
1444

> <i_lp_mmshare_version>
43012

> <i_f3d_flags>
0

> <s_epik_input>
W0NIM11PYzFuW2NIXVtjSF1bY0hdYzFbTkhdQyg9TylbTkhdW0NASF0oW0NIM10pW0NIMl1OMltDSDJdW0NIMl1PW0NIMl1bQ0gyXTI=

> <s_epik_cmdline>
J2VwaWtfcHl0aG9uJywgJy1waCcsICc3LjAnLCAnLXRuJywgJzgnLCAnLW1hJywgJzIwMCcsICctbWV0YWxfYmluZGluZycsICctaW1hZScsICc8aW5maWxlLm1hZT4nLCAnLW9tYWUnLCAnPG91dGZpbGUubWFlPic=

> <r_lp_tautomer_probability>
1

> <r_epik_Ionization_Penalty>
0.266086

> <r_epik_Ionization_Penalty_Charging>
0

> <r_epik_Ionization_Penalty_Neutral>
0.266086

> <r_epik_State_Penalty>
0.257924

> <r_epik_Charging_Adjusted_Penalty>
0.257924

> <i_epik_Tot_Q>
0

> <i_epik_Tot_abs_Q>
0

> <r_epik_Metal_State_Penalty>
0.25792

> <b_epik_Metal_Only>
0

> <s_lp_Force_Field>
OPLS_2005

> <r_lp_Energy>
29.2348

> <b_lp_Chiralities_Consistent>
1

> <s_lp_Variant>
AV-unprocessed.smi:1444-2

> <Gold.Version>
5.8.1

> <Gold.Id.Protein>
6NUR|6NUR_protein|mol2

> <Gold.PLP.Fitness>
38.3398

> <Gold.PLP.PLP>
-34.2929

> <Gold.PLP.part.hbond>
-1.0000

> <Gold.PLP.part.metal>
0.0000

> <Gold.PLP.part.buried>
-3.3802

> <Gold.PLP.part.nonpolar>
-28.6741

> <Gold.PLP.part.repulsive>
0.1934

> <Gold.PLP.ligand.clash>
0.0000

> <Gold.PLP.ligand.torsion>
0.9967

> <Gold.PLP.Chemscore.Hbond>
1.0000

> <Gold.PLP.Chemscore.CHOScore>
1.0000

> <Gold.PLP.Chemscore.Metal>
0.0000

> <Gold.Chemscore.Hbonds>
donor molecule, donor type, donor heavy atom, donor atom, acceptor molecule, acceptor atom, score
      L1  C     5    25       P1  8028  0.72

> <Gold.PLP.Chemscore.Internal.Correction>
0.0403

> <Gold.Rescore>
     Score         DG    S(hbond)    S(metal)    S(lipo)     H(rot)  DE(clash)    DE(int)     intcor
      9.57     -12.94       0.27        0.00      93.61       1.72       0.13       3.24       ----

> <Gold.Chemscore.Fitness>
9.5682

> <Gold.Chemscore.DG>
-12.9405

> <Gold.Chemscore.ZeroCoef>
-5.4800

> <Gold.Chemscore.Hbond>
0.2721

> <Gold.Chemscore.Metal>
0.0000

> <Gold.Chemscore.Lipo>
93.6084

> <Gold.Chemscore.Internal_Hbond>
0.0000

> <Gold.Chemscore.DEClash>
0.1337

> <Gold.Chemscore.DEInternal>
3.2386

> <Gold.Chemscore.Rot>
1.7189

> <Gold.Chemscore.Internal.Correction>
   9.000000E+99

> <Gold.Chemscore.Hbond.Weighted>
-0.9088

> <Gold.Chemscore.Metal.Weighted>
-0.0000

> <Gold.Chemscore.Lipo.Weighted>
-10.9522

> <Gold.Chemscore.Internal_Hbond.Weighted>
0.0000

> <Gold.Chemscore.DEClash.Weighted>
0.1337

> <Gold.Chemscore.DEInternal.Weighted>
3.2386

> <Gold.Chemscore.Rot.Weighted>
4.4004

> <Gold.Chemscore.Internal.Correction.Weighted>
   9.000000E+99

> <Gold.Protein.RotatedTorsions>
[ 6907 6896 6895 6894 ] final  155.61 input  -60.11 | X-H torsion
[ 7974 7965 7964 7962 ] final  -26.33 input  175.53 | X-H torsion
[ 8008 7997 7996 7995 ] final   53.43 input   59.86 | X-H torsion
[ 10167 10162 10161 10158 ] final  118.94 input  -65.29 | X-H torsion
[ 10718 10713 10712 10709 ] final -131.56 input   66.30 | X-H torsion
[ 10763 10752 10751 10750 ] final -124.45 input  -60.55 | X-H torsion
[ 11005 11000 10999 10996 ] final   12.95 input  -57.11 | X-H torsion

> <Gold.Protein.ActiveResidues>
 VAL166  LYS551  ARG553  GLY616  TRP617  ASP618  TYR619  PRO620  LYS621  CYS622 
 ASP623  PHE694  ASN695  SER759  ASP760  ASP761  ALA762  ILE779  LEU786  VAL792 
 PHE793  MET794  SER795  GLU796  ALA797  LYS798  CYS799  TRP800  GLU811  SER814 

> <Gold.Protein.RotatedAtoms>
  152.0417  133.3980  159.4339 H   0  0  0  0  0  0  0  0  0  0  0  0  # atno 6907 bound_to 6896
  150.6875  134.3407  159.4876 H   0  0  0  0  0  0  0  0  0  0  0  0  # atno 6908 bound_to 6896
  152.1206  134.9207  160.0614 H   0  0  0  0  0  0  0  0  0  0  0  0  # atno 6909 bound_to 6896
  146.1433  140.5005  142.8643 H   0  0  0  0  0  0  0  0  0  0  0  0  # atno 7974 bound_to 7965
  155.4681  140.3464  155.4322 H   0  0  0  0  0  0  0  0  0  0  0  0  # atno 8008 bound_to 7997
  156.1118  140.1463  156.9357 H   0  0  0  0  0  0  0  0  0  0  0  0  # atno 8009 bound_to 7997
  154.4761  140.0884  156.7245 H   0  0  0  0  0  0  0  0  0  0  0  0  # atno 8010 bound_to 7997
  139.6079  144.7074  151.2912 H   0  0  0  0  0  0  0  0  0  0  0  0  # atno 10167 bound_to 10162
  156.2257  130.7006  151.0804 H   0  0  0  0  0  0  0  0  0  0  0  0  # atno 10718 bound_to 10713
  154.8723  135.4063  154.3107 H   0  0  0  0  0  0  0  0  0  0  0  0  # atno 10763 bound_to 10752
  153.3951  135.7016  153.6472 H   0  0  0  0  0  0  0  0  0  0  0  0  # atno 10764 bound_to 10752
  153.5238  135.3682  155.2615 H   0  0  0  0  0  0  0  0  0  0  0  0  # atno 10765 bound_to 10752
  140.4862  134.0886  155.7761 H   0  0  0  0  0  0  0  0  0  0  0  0  # atno 11005 bound_to 11000
  144.7817  140.5853  143.6601 LP  0  0  0  0  0  0  0  0  0  0  0  0  # atno 17320 bound_to 7965
  145.4997  139.1484  143.3664 LP  0  0  0  0  0  0  0  0  0  0  0  0  # atno 17321 bound_to 7965
  140.7298  143.6898  150.7931 LP  0  0  0  0  0  0  0  0  0  0  0  0  # atno 17342 bound_to 10162
  140.0487  143.5271  152.2684 LP  0  0  0  0  0  0  0  0  0  0  0  0  # atno 17343 bound_to 10162
  157.7109  131.0734  150.6503 LP  0  0  0  0  0  0  0  0  0  0  0  0  # atno 17370 bound_to 10713
  156.6568  130.4501  149.5701 LP  0  0  0  0  0  0  0  0  0  0  0  0  # atno 17371 bound_to 10713
  141.1507  133.8974  157.2106 LP  0  0  0  0  0  0  0  0  0  0  0  0  # atno 17394 bound_to 11000
  139.9796  135.0102  156.9718 LP  0  0  0  0  0  0  0  0  0  0  0  0  # atno 17395 bound_to 11000

$$$$
