AV-unprocessed.smi:45|AV-procd|sdf|408|dock1
  -GOLD-   2262016263D 1   1.00000     0.00000
 Structure written by MMmdl.
 60 63  0  0  0  0  0  0  0  0  1 V2000
  154.9123  127.5509  155.0936 C   0  0  0  0  0  0  0  0  0  0  0  0
  154.4681  128.6728  155.8425 O   0  0  0  0  0  0  0  0  0  0  0  0
  153.1778  129.1198  155.6455 C   0  0  0  0  0  0  0  0  0  0  0  0
  152.2253  128.4497  154.8360 C   0  0  0  0  0  0  0  0  0  0  0  0
  150.9253  128.9683  154.6818 C   0  0  0  0  0  0  0  0  0  0  0  0
  150.5532  130.1613  155.3333 C   0  0  0  0  0  0  0  0  0  0  0  0
  149.1562  130.7266  155.1630 C   0  0  0  0  0  0  0  0  0  0  0  0
  148.9173  131.9295  155.9483 N   0  0  0  0  0  0  0  0  0  0  0  0
  148.2524  133.0368  155.3949 C   0  0  0  0  0  0  0  0  0  0  0  0
  147.6812  132.8824  154.1769 N   0  0  0  0  0  0  0  0  0  0  0  0
  147.0509  133.9259  153.6288 C   0  0  0  0  0  0  0  0  0  0  0  0
  146.4767  133.7473  152.3700 N   0  0  0  0  0  0  0  0  0  0  0  0
  146.4751  132.4453  151.7108 C   0  0  0  0  0  0  0  0  0  0  0  0
  145.1953  132.3954  150.8786 C   0  0  0  0  0  0  0  0  0  0  0  0
  144.9502  133.8602  150.5435 C   0  0  0  0  0  0  0  0  0  0  0  0
  145.4287  134.5983  151.8019 C   0  0  2  0  0  0  0  0  0  0  0  0
  145.9049  136.0352  151.5005 C   0  0  0  0  0  0  0  0  0  0  0  0
  144.7954  136.8709  151.2497 O   0  0  0  0  0  0  0  0  0  0  0  0
  146.9353  135.1362  154.1838 N   0  0  0  0  0  0  0  0  0  0  0  0
  147.4972  135.3176  155.3966 C   0  0  0  0  0  0  0  0  0  0  0  0
  148.1928  134.2869  156.0697 C   0  0  0  0  0  0  0  0  0  0  0  0
  148.7838  134.5245  157.4338 C   0  0  0  0  0  0  0  0  0  0  0  0
  149.2820  133.6065  158.0859 O   0  0  0  0  0  0  0  0  0  0  0  0
  148.7499  135.7987  157.8557 N   0  0  0  0  0  0  0  0  0  0  0  0
  149.2418  136.2643  159.1468 C   0  0  0  0  0  0  0  0  0  0  0  0
  148.4488  135.6964  160.3107 C   0  0  0  0  0  0  0  0  0  0  0  0
  148.4550  136.4076  161.4434 N   0  0  0  0  0  0  0  0  0  0  0  0
  147.7443  135.9115  162.4794 C   0  0  0  0  0  0  0  0  0  0  0  0
  147.0282  134.7019  162.3762 C   0  0  0  0  0  0  0  0  0  0  0  0
  147.0965  134.0411  161.1332 C   0  0  0  0  0  0  0  0  0  0  0  0
  147.8094  134.5412  160.1007 N   0  0  0  0  0  0  0  0  0  0  0  0
  151.4949  130.8334  156.1369 C   0  0  0  0  0  0  0  0  0  0  0  0
  152.7958  130.3161  156.2926 C   0  0  0  0  0  0  0  0  0  0  0  0
  153.9249  131.1654  157.2868 Cl  0  0  0  0  0  0  0  0  0  0  0  0
  144.6101  134.6302  152.5228 H   0  0  0  0  0  0  0  0  0  0  0  0
  155.9459  127.3289  155.3581 H   0  0  0  0  0  0  0  0  0  0  0  0
  154.8826  127.7498  154.0216 H   0  0  0  0  0  0  0  0  0  0  0  0
  154.3178  126.6634  155.3145 H   0  0  0  0  0  0  0  0  0  0  0  0
  152.4681  127.5339  154.3191 H   0  0  0  0  0  0  0  0  0  0  0  0
  150.2134  128.4463  154.0589 H   0  0  0  0  0  0  0  0  0  0  0  0
  148.9801  130.9478  154.1095 H   0  0  0  0  0  0  0  0  0  0  0  0
  148.4377  129.9591  155.4533 H   0  0  0  0  0  0  0  0  0  0  0  0
  149.1234  131.9151  156.9373 H   0  0  0  0  0  0  0  0  0  0  0  0
  147.3551  132.3775  151.0701 H   0  0  0  0  0  0  0  0  0  0  0  0
  146.5083  131.6190  152.4219 H   0  0  0  0  0  0  0  0  0  0  0  0
  145.2859  131.7615  149.9960 H   0  0  0  0  0  0  0  0  0  0  0  0
  144.3730  132.0152  151.4865 H   0  0  0  0  0  0  0  0  0  0  0  0
  145.5584  134.1386  149.6813 H   0  0  0  0  0  0  0  0  0  0  0  0
  143.9085  134.0716  150.3010 H   0  0  0  0  0  0  0  0  0  0  0  0
  146.4571  136.4628  152.3361 H   0  0  0  0  0  0  0  0  0  0  0  0
  146.5713  136.0518  150.6376 H   0  0  0  0  0  0  0  0  0  0  0  0
  145.0499  137.5261  150.6181 H   0  0  0  0  0  0  0  0  0  0  0  0
  147.3815  136.2995  155.8321 H   0  0  0  0  0  0  0  0  0  0  0  0
  148.3324  136.4925  157.2528 H   0  0  0  0  0  0  0  0  0  0  0  0
  150.3020  136.0270  159.2537 H   0  0  0  0  0  0  0  0  0  0  0  0
  149.1697  137.3522  159.1687 H   0  0  0  0  0  0  0  0  0  0  0  0
  147.7466  136.4830  163.3957 H   0  0  0  0  0  0  0  0  0  0  0  0
  146.4593  134.3038  163.2035 H   0  0  0  0  0  0  0  0  0  0  0  0
  146.5773  133.1090  160.9665 H   0  0  0  0  0  0  0  0  0  0  0  0
  151.2217  131.7502  156.6385 H   0  0  0  0  0  0  0  0  0  0  0  0
  1  2  1  0  0  0  0
  1 36  1  0  0  0  0
  1 37  1  0  0  0  0
  1 38  1  0  0  0  0
  2  3  1  0  0  0  0
  3 33  1  0  0  0  0
  3  4  2  0  0  0  0
  4  5  1  0  0  0  0
  4 39  1  0  0  0  0
  5  6  2  0  0  0  0
  5 40  1  0  0  0  0
  6  7  1  0  0  0  0
  6 32  1  0  0  0  0
  7  8  1  0  0  0  0
  7 41  1  0  0  0  0
  7 42  1  0  0  0  0
  8  9  1  0  0  0  0
  8 43  1  0  0  0  0
  9 21  1  0  0  0  0
  9 10  2  0  0  0  0
 10 11  1  0  0  0  0
 11 12  1  0  0  0  0
 11 19  2  0  0  0  0
 12 16  1  0  0  0  0
 12 13  1  0  0  0  0
 13 14  1  0  0  0  0
 13 44  1  0  0  0  0
 13 45  1  0  0  0  0
 14 15  1  0  0  0  0
 14 46  1  0  0  0  0
 14 47  1  0  0  0  0
 15 16  1  0  0  0  0
 15 48  1  0  0  0  0
 15 49  1  0  0  0  0
 16 35  1  0  0  0  0
 16 17  1  0  0  0  0
 17 18  1  0  0  0  0
 17 50  1  0  0  0  0
 17 51  1  0  0  0  0
 18 52  1  0  0  0  0
 19 20  1  0  0  0  0
 20 21  2  0  0  0  0
 20 53  1  0  0  0  0
 21 22  1  0  0  0  0
 22 23  2  0  0  0  0
 22 24  1  0  0  0  0
 24 25  1  0  0  0  0
 24 54  1  0  0  0  0
 25 26  1  0  0  0  0
 25 55  1  0  0  0  0
 25 56  1  0  0  0  0
 26 31  1  0  0  0  0
 26 27  2  0  0  0  0
 27 28  1  0  0  0  0
 28 29  2  0  0  0  0
 28 57  1  0  0  0  0
 29 30  1  0  0  0  0
 29 58  1  0  0  0  0
 30 31  2  0  0  0  0
 30 59  1  0  0  0  0
 32 33  2  0  0  0  0
 32 60  1  0  0  0  0
 33 34  1  0  0  0  0
M  END
> <s_m_source_file>
AV-unprocessed.smi

> <i_m_source_file_index>
45

> <i_lp_mmshare_version>
43012

> <i_f3d_flags>
0

> <s_epik_input>
W0NIM11PYzFbY0hdW2NIXWMoW2NIXWMxQ2wpW0NIMl1bTkhdYzJuYyhOM1tDSDJdW0NIMl1bQ0gyXVtDQEhdM1tDSDJdW09IXSluW2NIXWMyQyg9TylbTkhdW0NIMl1jNG5bY0hdW2NIXVtjSF1uNA==

> <s_epik_cmdline>
J2VwaWtfcHl0aG9uJywgJy1waCcsICc3LjAnLCAnLXRuJywgJzgnLCAnLW1hJywgJzIwMCcsICctbWV0YWxfYmluZGluZycsICctaW1hZScsICc8aW5maWxlLm1hZT4nLCAnLW9tYWUnLCAnPG91dGZpbGUubWFlPic=

> <r_lp_tautomer_probability>
1

> <r_epik_Ionization_Penalty>
0.0522664

> <r_epik_Ionization_Penalty_Charging>
0

> <r_epik_Ionization_Penalty_Neutral>
0.0522664

> <r_epik_State_Penalty>
0.0369431

> <r_epik_Charging_Adjusted_Penalty>
0.0369431

> <i_epik_Tot_Q>
0

> <i_epik_Tot_abs_Q>
0

> <r_epik_Metal_State_Penalty>
0.0404664

> <b_epik_Metal_Only>
0

> <s_epik_Chemistry_Notes>
This compound contains an electron-poor aromatic ring that is susceptible to covalent hydrolysis at low pH, typically resulting in measured values for nitrogen ring protonation that are around two units higher than predicted values.

> <s_lp_Force_Field>
OPLS_2005

> <r_lp_Energy>
32.9916

> <b_lp_Chiralities_Consistent>
1

> <s_lp_Variant>
AV-unprocessed.smi:45-2

> <Gold.Version>
5.8.1

> <Gold.Id.Protein>
6NUR|6NUR_protein|mol2

> <Gold.PLP.Fitness>
59.7179

> <Gold.PLP.PLP>
-51.5100

> <Gold.PLP.part.hbond>
-2.8863

> <Gold.PLP.part.metal>
0.0000

> <Gold.PLP.part.buried>
-9.0286

> <Gold.PLP.part.nonpolar>
-40.9657

> <Gold.PLP.part.repulsive>
0.1870

> <Gold.PLP.ligand.clash>
0.0000

> <Gold.PLP.ligand.torsion>
0.7378

> <Gold.PLP.Chemscore.Hbond>
3.0000

> <Gold.PLP.Chemscore.CHOScore>
0.0000

> <Gold.PLP.Chemscore.Metal>
0.0000

> <Gold.Chemscore.Hbonds>
donor molecule, donor type, donor heavy atom, donor atom, acceptor molecule, acceptor atom, score
      L1  H    18    52       P1 10171  0.46
      P1  H  6896  6909       L1    23  1.00
      P1  H  6931  6943       L1    27  1.00

> <Gold.PLP.Chemscore.Internal.Correction>
0.6834

> <Gold.Rescore>
     Score         DG    S(hbond)    S(metal)    S(lipo)     H(rot)  DE(clash)    DE(int)     intcor
     14.49     -20.81       2.93        0.00     110.73       2.90       0.00       6.32       ----

> <Gold.Chemscore.Fitness>
14.4884

> <Gold.Chemscore.DG>
-20.8115

> <Gold.Chemscore.ZeroCoef>
-5.4800

> <Gold.Chemscore.Hbond>
2.9332

> <Gold.Chemscore.Metal>
0.0000

> <Gold.Chemscore.Lipo>
110.7315

> <Gold.Chemscore.Internal_Hbond>
0.0000

> <Gold.Chemscore.DEClash>
0.0000

> <Gold.Chemscore.DEInternal>
6.3230

> <Gold.Chemscore.Rot>
2.8988

> <Gold.Chemscore.Internal.Correction>
   9.000000E+99

> <Gold.Chemscore.Hbonds>
donor molecule, donor type, donor heavy atom, donor atom, acceptor molecule, acceptor atom, score
      L1  H    18    52       P1 10171  0.46
      P1  H  6896  6909       L1    23  0.98
      P1  H  6931  6943       L1    27  0.64

> <Gold.Chemscore.Hbond.Weighted>
-9.7968

> <Gold.Chemscore.Metal.Weighted>
-0.0000

> <Gold.Chemscore.Lipo.Weighted>
-12.9556

> <Gold.Chemscore.Internal_Hbond.Weighted>
0.0000

> <Gold.Chemscore.DEClash.Weighted>
0.0000

> <Gold.Chemscore.DEInternal.Weighted>
6.3230

> <Gold.Chemscore.Rot.Weighted>
7.4209

> <Gold.Chemscore.Internal.Correction.Weighted>
   9.000000E+99

> <Gold.Protein.RotatedTorsions>
[ 6907 6896 6895 6894 ] final    9.99 input  -60.11 | X-H torsion
[ 7974 7965 7964 7962 ] final  -10.70 input  175.53 | X-H torsion
[ 8008 7997 7996 7995 ] final   44.01 input   59.86 | X-H torsion
[ 10167 10162 10161 10158 ] final   34.34 input  -65.29 | X-H torsion
[ 10718 10713 10712 10709 ] final  112.12 input   66.30 | X-H torsion
[ 10763 10752 10751 10750 ] final -102.86 input  -60.55 | X-H torsion
[ 11005 11000 10999 10996 ] final -141.82 input  -57.11 | X-H torsion

> <Gold.Protein.ActiveResidues>
 VAL166  LYS551  ARG553  GLY616  TRP617  ASP618  TYR619  PRO620  LYS621  CYS622 
 ASP623  PHE694  ASN695  SER759  ASP760  ASP761  ALA762  ILE779  LEU786  VAL792 
 PHE793  MET794  SER795  GLU796  ALA797  LYS798  CYS799  TRP800  GLU811  SER814 

> <Gold.Protein.RotatedAtoms>
  151.7310  135.0874  160.0299 H   0  0  0  0  0  0  0  0  0  0  0  0  # atno 6907 bound_to 6896
  152.3541  133.6211  159.5975 H   0  0  0  0  0  0  0  0  0  0  0  0  # atno 6908 bound_to 6896
  150.7559  133.9444  159.3508 H   0  0  0  0  0  0  0  0  0  0  0  0  # atno 6909 bound_to 6896
  146.2212  140.2803  142.8362 H   0  0  0  0  0  0  0  0  0  0  0  0  # atno 7974 bound_to 7965
  155.3123  140.3392  155.4243 H   0  0  0  0  0  0  0  0  0  0  0  0  # atno 8008 bound_to 7997
  156.1950  140.1711  156.8055 H   0  0  0  0  0  0  0  0  0  0  0  0  # atno 8009 bound_to 7997
  154.5487  140.0710  156.8616 H   0  0  0  0  0  0  0  0  0  0  0  0  # atno 8010 bound_to 7997
  140.4324  144.1306  150.6161 H   0  0  0  0  0  0  0  0  0  0  0  0  # atno 10167 bound_to 10162
  157.6409  131.0962  150.6849 H   0  0  0  0  0  0  0  0  0  0  0  0  # atno 10718 bound_to 10713
  154.7765  135.4845  153.9755 H   0  0  0  0  0  0  0  0  0  0  0  0  # atno 10763 bound_to 10752
  153.1436  135.6777  153.8997 H   0  0  0  0  0  0  0  0  0  0  0  0  # atno 10764 bound_to 10752
  153.8663  135.3149  155.3418 H   0  0  0  0  0  0  0  0  0  0  0  0  # atno 10765 bound_to 10752
  140.8286  134.2544  157.4867 H   0  0  0  0  0  0  0  0  0  0  0  0  # atno 11005 bound_to 11000
  144.9202  140.7859  143.5753 LP  0  0  0  0  0  0  0  0  0  0  0  0  # atno 17320 bound_to 7965
  145.2739  139.1944  143.4827 LP  0  0  0  0  0  0  0  0  0  0  0  0  # atno 17321 bound_to 7965
  140.4412  143.2525  151.9470 LP  0  0  0  0  0  0  0  0  0  0  0  0  # atno 17342 bound_to 10162
  139.4785  144.5652  151.8176 LP  0  0  0  0  0  0  0  0  0  0  0  0  # atno 17343 bound_to 10162
  156.7173  130.4670  149.5532 LP  0  0  0  0  0  0  0  0  0  0  0  0  # atno 17370 bound_to 10713
  156.1689  130.6424  151.0813 LP  0  0  0  0  0  0  0  0  0  0  0  0  # atno 17371 bound_to 10713
  139.8705  134.9574  156.4267 LP  0  0  0  0  0  0  0  0  0  0  0  0  # atno 17394 bound_to 11000
  140.9022  133.7771  155.9694 LP  0  0  0  0  0  0  0  0  0  0  0  0  # atno 17395 bound_to 11000

$$$$
