AV-unprocessed.smi:653|AV-procd|sdf|3205|dock9
  -GOLD-   22720 0143D 1   1.00000     0.00000
 Structure written by MMmdl.
 44 45  0  0  0  0  0  0  0  0  1 V2000
  153.0947  142.8956  163.1446 C   0  0  0  0  0  0  0  0  0  0  0  0
  152.6521  143.0071  161.7005 C   0  0  0  0  0  0  0  0  0  0  0  0
  153.3785  142.3677  160.6741 C   0  0  0  0  0  0  0  0  0  0  0  0
  152.9221  142.4976  159.3485 C   0  0  0  0  0  0  0  0  0  0  0  0
  151.7607  143.2584  159.1003 C   0  0  0  0  0  0  0  0  0  0  0  0
  151.2258  143.4263  157.6901 C   0  0  0  0  0  0  0  0  0  0  0  0
  150.9420  142.0605  157.0641 C   0  0  0  0  0  0  0  0  0  0  0  0
  151.4007  141.0411  157.5800 O   0  0  0  0  0  0  0  0  0  0  0  0
  150.1864  142.0562  155.9549 N   0  0  0  0  0  0  0  0  0  0  0  0
  149.7756  140.8687  155.2111 C   0  0  0  0  0  0  0  0  0  0  0  0
  148.3307  140.4302  155.5570 C   0  0  1  0  0  0  0  0  0  0  0  0
  147.2696  141.1671  154.7512 C   0  0  0  0  0  0  0  0  0  0  0  0
  147.1947  140.3620  153.4529 C   0  0  0  0  0  0  0  0  0  0  0  0
  147.7573  139.0866  153.7499 O   0  0  0  0  0  0  0  0  0  0  0  0
  147.9928  138.9843  155.1496 C   0  0  1  0  0  0  0  0  0  0  0  0
  149.0327  137.8868  155.4720 C   0  0  0  0  0  0  0  0  0  0  0  0
  149.4709  137.9579  156.9438 C   0  0  0  0  0  0  0  0  0  0  0  0
  150.2648  137.9817  154.5560 C   0  0  0  0  0  0  0  0  0  0  0  0
  151.1077  143.8567  160.1989 C   0  0  0  0  0  0  0  0  0  0  0  0
  151.5378  143.7374  161.4732 N   0  0  0  0  0  0  0  0  0  0  0  0
  154.1675  142.7115  163.2085 H   0  0  0  0  0  0  0  0  0  0  0  0
  152.5750  142.0718  163.6343 H   0  0  0  0  0  0  0  0  0  0  0  0
  152.8771  143.8137  163.6919 H   0  0  0  0  0  0  0  0  0  0  0  0
  154.2634  141.7890  160.8948 H   0  0  0  0  0  0  0  0  0  0  0  0
  153.4531  142.0186  158.5390 H   0  0  0  0  0  0  0  0  0  0  0  0
  150.3211  144.0363  157.7079 H   0  0  0  0  0  0  0  0  0  0  0  0
  151.9536  143.9603  157.0779 H   0  0  0  0  0  0  0  0  0  0  0  0
  149.8575  142.9449  155.6062 H   0  0  0  0  0  0  0  0  0  0  0  0
  149.8900  141.0153  154.1358 H   0  0  0  0  0  0  0  0  0  0  0  0
  150.4801  140.0833  155.4813 H   0  0  0  0  0  0  0  0  0  0  0  0
  148.1646  140.5739  156.6255 H   0  0  0  0  0  0  0  0  0  0  0  0
  146.3128  141.1039  155.2714 H   0  0  0  0  0  0  0  0  0  0  0  0
  147.4741  142.2239  154.5851 H   0  0  0  0  0  0  0  0  0  0  0  0
  146.1681  140.2643  153.0995 H   0  0  0  0  0  0  0  0  0  0  0  0
  147.7831  140.8314  152.6640 H   0  0  0  0  0  0  0  0  0  0  0  0
  147.0436  138.7089  155.6143 H   0  0  0  0  0  0  0  0  0  0  0  0
  148.5720  136.9099  155.3241 H   0  0  0  0  0  0  0  0  0  0  0  0
  149.9367  138.9171  157.1734 H   0  0  0  0  0  0  0  0  0  0  0  0
  150.1918  137.1740  157.1775 H   0  0  0  0  0  0  0  0  0  0  0  0
  148.6234  137.8299  157.6176 H   0  0  0  0  0  0  0  0  0  0  0  0
  150.7687  138.9421  154.6711 H   0  0  0  0  0  0  0  0  0  0  0  0
  149.9985  137.8726  153.5052 H   0  0  0  0  0  0  0  0  0  0  0  0
  150.9871  137.1989  154.7891 H   0  0  0  0  0  0  0  0  0  0  0  0
  150.2143  144.4459  160.0518 H   0  0  0  0  0  0  0  0  0  0  0  0
  1  2  1  0  0  0  0
  1 21  1  0  0  0  0
  1 22  1  0  0  0  0
  1 23  1  0  0  0  0
  2 20  1  0  0  0  0
  2  3  2  0  0  0  0
  3  4  1  0  0  0  0
  3 24  1  0  0  0  0
  4  5  2  0  0  0  0
  4 25  1  0  0  0  0
  5  6  1  0  0  0  0
  5 19  1  0  0  0  0
  6  7  1  0  0  0  0
  6 26  1  0  0  0  0
  6 27  1  0  0  0  0
  7  8  2  0  0  0  0
  7  9  1  0  0  0  0
  9 10  1  0  0  0  0
  9 28  1  0  0  0  0
 10 11  1  0  0  0  0
 10 29  1  0  0  0  0
 10 30  1  0  0  0  0
 11 15  1  0  0  0  0
 11 12  1  0  0  0  0
 11 31  1  0  0  0  0
 12 13  1  0  0  0  0
 12 32  1  0  0  0  0
 12 33  1  0  0  0  0
 13 14  1  0  0  0  0
 13 34  1  0  0  0  0
 13 35  1  0  0  0  0
 14 15  1  0  0  0  0
 15 16  1  0  0  0  0
 15 36  1  0  0  0  0
 16 17  1  0  0  0  0
 16 18  1  0  0  0  0
 16 37  1  0  0  0  0
 17 38  1  0  0  0  0
 17 39  1  0  0  0  0
 17 40  1  0  0  0  0
 18 41  1  0  0  0  0
 18 42  1  0  0  0  0
 18 43  1  0  0  0  0
 19 20  2  0  0  0  0
 19 44  1  0  0  0  0
M  END
> <s_m_source_file>
AV-unprocessed.smi

> <i_m_source_file_index>
653

> <i_lp_mmshare_version>
43012

> <i_f3d_flags>
0

> <s_epik_input>
W0NIM11jMVtjSF1bY0hdYyhbY0hdbjEpW0NIMl1DKD1PKVtOSF1bQ0gyXVtDQEBIXTJbQ0gyXVtDSDJdT1tDQEhdMltDSF0oW0NIM10pW0NIM10=

> <s_epik_cmdline>
J2VwaWtfcHl0aG9uJywgJy1waCcsICc3LjAnLCAnLXRuJywgJzgnLCAnLW1hJywgJzIwMCcsICctbWV0YWxfYmluZGluZycsICctaW1hZScsICc8aW5maWxlLm1hZT4nLCAnLW9tYWUnLCAnPG91dGZpbGUubWFlPic=

> <r_epik_Ionization_Penalty>
0.0166429

> <r_epik_Ionization_Penalty_Charging>
0

> <r_epik_Ionization_Penalty_Neutral>
0.0166429

> <r_epik_State_Penalty>
0.0131478

> <r_epik_Charging_Adjusted_Penalty>
0.0131478

> <i_epik_Tot_Q>
0

> <i_epik_Tot_abs_Q>
0

> <r_epik_Metal_State_Penalty>
0.012786

> <b_epik_Metal_Only>
0

> <s_lp_Force_Field>
OPLS_2005

> <r_lp_Energy>
21.9695

> <b_lp_Chiralities_Consistent>
1

> <s_lp_Variant>
AV-unprocessed.smi:653-2

> <Gold.Version>
5.8.1

> <Gold.Id.Protein>
6NUR|6NUR_protein|mol2

> <Gold.PLP.Fitness>
45.1354

> <Gold.PLP.PLP>
-43.5843

> <Gold.PLP.part.hbond>
-1.0000

> <Gold.PLP.part.metal>
0.0000

> <Gold.PLP.part.buried>
-6.3812

> <Gold.PLP.part.nonpolar>
-36.7470

> <Gold.PLP.part.repulsive>
0.5188

> <Gold.PLP.ligand.clash>
0.0000

> <Gold.PLP.ligand.torsion>
0.6803

> <Gold.PLP.Chemscore.Hbond>
0.9600

> <Gold.PLP.Chemscore.CHOScore>
0.0000

> <Gold.PLP.Chemscore.Metal>
0.0000

> <Gold.Chemscore.Hbonds>
donor molecule, donor type, donor heavy atom, donor atom, acceptor molecule, acceptor atom, score
      L1  H     9    28       P1  8028  1.00

> <Gold.PLP.Chemscore.Internal.Correction>
0.0316

> <Gold.Rescore>
     Score         DG    S(hbond)    S(metal)    S(lipo)     H(rot)  DE(clash)    DE(int)     intcor
     16.83     -19.16       0.97        0.00     121.75       1.48       0.02       2.30       ----

> <Gold.Chemscore.Fitness>
16.8313

> <Gold.Chemscore.DG>
-19.1585

> <Gold.Chemscore.ZeroCoef>
-5.4800

> <Gold.Chemscore.Hbond>
0.9685

> <Gold.Chemscore.Metal>
0.0000

> <Gold.Chemscore.Lipo>
121.7536

> <Gold.Chemscore.Internal_Hbond>
0.0000

> <Gold.Chemscore.DEClash>
0.0228

> <Gold.Chemscore.DEInternal>
2.3044

> <Gold.Chemscore.Rot>
1.4850

> <Gold.Chemscore.Internal.Correction>
   9.000000E+99

> <Gold.Chemscore.Hbonds>
donor molecule, donor type, donor heavy atom, donor atom, acceptor molecule, acceptor atom, score
      L1  H     9    28       P1  8028  0.93

> <Gold.Chemscore.Hbond.Weighted>
-3.2349

> <Gold.Chemscore.Metal.Weighted>
-0.0000

> <Gold.Chemscore.Lipo.Weighted>
-14.2452

> <Gold.Chemscore.Internal_Hbond.Weighted>
0.0000

> <Gold.Chemscore.DEClash.Weighted>
0.0228

> <Gold.Chemscore.DEInternal.Weighted>
2.3044

> <Gold.Chemscore.Rot.Weighted>
3.8015

> <Gold.Chemscore.Internal.Correction.Weighted>
   9.000000E+99

> <Gold.Protein.RotatedTorsions>
[ 6907 6896 6895 6894 ] final    3.38 input  -60.11 | X-H torsion
[ 7974 7965 7964 7962 ] final    5.75 input  175.53 | X-H torsion
[ 8008 7997 7996 7995 ] final   46.40 input   59.86 | X-H torsion
[ 10167 10162 10161 10158 ] final  -96.42 input  -65.29 | X-H torsion
[ 10718 10713 10712 10709 ] final -165.69 input   66.30 | X-H torsion
[ 10763 10752 10751 10750 ] final   43.03 input  -60.55 | X-H torsion
[ 11005 11000 10999 10996 ] final  -35.68 input  -57.11 | X-H torsion

> <Gold.Protein.ActiveResidues>
 VAL166  LYS551  ARG553  GLY616  TRP617  ASP618  TYR619  PRO620  LYS621  CYS622 
 ASP623  PHE694  ASN695  SER759  ASP760  ASP761  ALA762  ILE779  LEU786  VAL792 
 PHE793  MET794  SER795  GLU796  ALA797  LYS798  CYS799  TRP800  GLU811  SER814 

> <Gold.Protein.RotatedAtoms>
  151.6242  135.1029  160.0107 H   0  0  0  0  0  0  0  0  0  0  0  0  # atno 6907 bound_to 6896
  152.4141  133.7006  159.6432 H   0  0  0  0  0  0  0  0  0  0  0  0  # atno 6908 bound_to 6896
  150.8030  133.8488  159.3240 H   0  0  0  0  0  0  0  0  0  0  0  0  # atno 6909 bound_to 6896
  146.2439  140.0337  142.8387 H   0  0  0  0  0  0  0  0  0  0  0  0  # atno 7974 bound_to 7965
  155.3518  140.3414  155.4239 H   0  0  0  0  0  0  0  0  0  0  0  0  # atno 8008 bound_to 7997
  156.1760  140.1647  156.8397 H   0  0  0  0  0  0  0  0  0  0  0  0  # atno 8009 bound_to 7997
  154.5282  140.0751  156.8280 H   0  0  0  0  0  0  0  0  0  0  0  0  # atno 8010 bound_to 7997
  140.2940  143.3204  152.0317 H   0  0  0  0  0  0  0  0  0  0  0  0  # atno 10167 bound_to 10162
  156.6571  130.9031  151.3023 H   0  0  0  0  0  0  0  0  0  0  0  0  # atno 10718 bound_to 10713
  152.9869  135.6114  154.3045 H   0  0  0  0  0  0  0  0  0  0  0  0  # atno 10763 bound_to 10752
  154.2764  135.2778  155.2718 H   0  0  0  0  0  0  0  0  0  0  0  0  # atno 10764 bound_to 10752
  154.5077  135.5849  153.6637 H   0  0  0  0  0  0  0  0  0  0  0  0  # atno 10765 bound_to 10752
  140.9815  133.7054  156.1692 H   0  0  0  0  0  0  0  0  0  0  0  0  # atno 11005 bound_to 11000
  145.1132  140.9418  143.4644 LP  0  0  0  0  0  0  0  0  0  0  0  0  # atno 17320 bound_to 7965
  145.0555  139.3147  143.5907 LP  0  0  0  0  0  0  0  0  0  0  0  0  # atno 17321 bound_to 7965
  139.4931  144.6504  151.6687 LP  0  0  0  0  0  0  0  0  0  0  0  0  # atno 17342 bound_to 10162
  140.5708  144.0112  150.6216 LP  0  0  0  0  0  0  0  0  0  0  0  0  # atno 17343 bound_to 10162
  157.7122  130.9453  150.1128 LP  0  0  0  0  0  0  0  0  0  0  0  0  # atno 17370 bound_to 10713
  156.2039  130.3662  149.8753 LP  0  0  0  0  0  0  0  0  0  0  0  0  # atno 17371 bound_to 10713
  140.7179  134.4390  157.5577 LP  0  0  0  0  0  0  0  0  0  0  0  0  # atno 17394 bound_to 11000
  139.8952  134.8688  156.2141 LP  0  0  0  0  0  0  0  0  0  0  0  0  # atno 17395 bound_to 11000

$$$$
