AV-unprocessed.smi:432|AV-procd|sdf|2549|dock4
  -GOLD-   2262022513D 1   1.00000     0.00000
 Structure written by MMmdl.
 31 32  0  0  0  0  0  0  0  0  1 V2000
  149.7636  141.2003  154.0899 O   0  0  0  0  0  0  0  0  0  0  0  0
  149.6856  140.5036  155.1031 C   0  0  0  0  0  0  0  0  0  0  0  0
  150.9416  140.1311  155.9054 C   0  0  0  0  0  0  0  0  0  0  0  0
  151.2336  141.0583  157.0095 N   0  0  0  0  0  0  0  0  0  0  0  0
  150.4542  142.2018  157.0059 N   0  0  0  0  0  0  0  0  0  0  0  0
  150.6139  143.0812  157.9338 C   0  0  0  0  0  0  0  0  0  0  0  0
  151.5882  142.9188  158.9902 C   0  0  0  0  0  0  0  0  0  0  0  0
  151.7550  144.1319  160.2099 Cl  0  0  0  0  0  0  0  0  0  0  0  0
  152.3516  141.7971  158.9810 C   0  0  0  0  0  0  0  0  0  0  0  0
  153.5391  141.5322  160.2116 Cl  0  0  0  0  0  0  0  0  0  0  0  0
  152.2004  140.7748  157.9363 C   0  0  0  0  0  0  0  0  0  0  0  0
  152.8782  139.7472  157.8891 O   0  0  0  0  0  0  0  0  0  0  0  0
  148.5270  140.0163  155.5719 N   0  0  0  0  0  0  0  0  0  0  0  0
  147.2125  140.2566  154.9820 C   0  0  0  0  0  0  0  0  0  0  0  0
  147.2487  140.0887  153.4500 C   0  0  0  0  0  0  0  0  0  0  0  0
  147.1242  141.4978  152.8697 C   0  0  0  0  0  0  0  0  0  0  0  0
  146.2804  142.2490  153.8943 C   0  0  0  0  0  0  0  0  0  0  0  0
  146.7492  141.7027  155.2441 C   0  0  0  0  0  0  0  0  0  0  0  0
  150.8346  139.1165  156.2940 H   0  0  0  0  0  0  0  0  0  0  0  0
  151.7841  140.0908  155.2126 H   0  0  0  0  0  0  0  0  0  0  0  0
  150.0225  143.9962  157.9722 H   0  0  0  0  0  0  0  0  0  0  0  0
  148.5542  139.4493  156.4070 H   0  0  0  0  0  0  0  0  0  0  0  0
  146.4843  139.5624  155.4056 H   0  0  0  0  0  0  0  0  0  0  0  0
  148.1417  139.5760  153.0889 H   0  0  0  0  0  0  0  0  0  0  0  0
  146.3907  139.4937  153.1345 H   0  0  0  0  0  0  0  0  0  0  0  0
  148.1118  141.9561  152.8005 H   0  0  0  0  0  0  0  0  0  0  0  0
  146.6819  141.5044  151.8731 H   0  0  0  0  0  0  0  0  0  0  0  0
  146.3900  143.3310  153.8183 H   0  0  0  0  0  0  0  0  0  0  0  0
  145.2265  142.0092  153.7468 H   0  0  0  0  0  0  0  0  0  0  0  0
  145.9622  141.7519  155.9974 H   0  0  0  0  0  0  0  0  0  0  0  0
  147.5777  142.3141  155.6054 H   0  0  0  0  0  0  0  0  0  0  0  0
  1  2  2  0  0  0  0
  2  3  1  0  0  0  0
  2 13  1  0  0  0  0
  3  4  1  0  0  0  0
  3 19  1  0  0  0  0
  3 20  1  0  0  0  0
  4 11  1  0  0  0  0
  4  5  1  0  0  0  0
  5  6  2  0  0  0  0
  6  7  1  0  0  0  0
  6 21  1  0  0  0  0
  7  8  1  0  0  0  0
  7  9  2  0  0  0  0
  9 10  1  0  0  0  0
  9 11  1  0  0  0  0
 11 12  2  0  0  0  0
 13 14  1  0  0  0  0
 13 22  1  0  0  0  0
 14 18  1  0  0  0  0
 14 15  1  0  0  0  0
 14 23  1  0  0  0  0
 15 16  1  0  0  0  0
 15 24  1  0  0  0  0
 15 25  1  0  0  0  0
 16 17  1  0  0  0  0
 16 26  1  0  0  0  0
 16 27  1  0  0  0  0
 17 18  1  0  0  0  0
 17 28  1  0  0  0  0
 17 29  1  0  0  0  0
 18 30  1  0  0  0  0
 18 31  1  0  0  0  0
M  END
> <s_m_source_file>
AV-unprocessed.smi

> <i_m_source_file_index>
432

> <i_lp_mmshare_version>
43012

> <i_f3d_flags>
0

> <s_epik_input>
W0NIMl0xW0NIMl1bQ0gyXVtDSDJdW0NIXTFbTkhdQyg9TylbQ0gyXW4ybltjSF1jKENsKWMoQ2wpYzI9Tw==

> <s_epik_cmdline>
J2VwaWtfcHl0aG9uJywgJy1waCcsICc3LjAnLCAnLXRuJywgJzgnLCAnLW1hJywgJzIwMCcsICctbWV0YWxfYmluZGluZycsICctaW1hZScsICc8aW5maWxlLm1hZT4nLCAnLW9tYWUnLCAnPG91dGZpbGUubWFlPic=

> <r_lp_tautomer_probability>
1

> <r_epik_Ionization_Penalty>
1.93318e-08

> <r_epik_Ionization_Penalty_Charging>
3.01013e-11

> <r_epik_Ionization_Penalty_Neutral>
1.93017e-08

> <r_epik_State_Penalty>
-0

> <r_epik_Charging_Adjusted_Penalty>
3.01013e-11

> <i_epik_Tot_Q>
0

> <i_epik_Tot_abs_Q>
0

> <r_epik_Metal_State_Penalty>
-0

> <b_epik_Metal_Only>
0

> <s_lp_Force_Field>
OPLS_2005

> <r_lp_Energy>
31.6968

> <b_lp_Chiralities_Consistent>
1

> <s_lp_Variant>
AV-unprocessed.smi:432-1

> <Gold.Version>
5.8.1

> <Gold.Id.Protein>
6NUR|6NUR_protein|mol2

> <Gold.PLP.Fitness>
40.7201

> <Gold.PLP.PLP>
-33.4980

> <Gold.PLP.part.hbond>
-3.0000

> <Gold.PLP.part.metal>
0.0000

> <Gold.PLP.part.buried>
-3.8364

> <Gold.PLP.part.nonpolar>
-27.1061

> <Gold.PLP.part.repulsive>
0.6235

> <Gold.PLP.ligand.clash>
0.0000

> <Gold.PLP.ligand.torsion>
0.6136

> <Gold.PLP.Chemscore.Hbond>
2.0560

> <Gold.PLP.Chemscore.CHOScore>
0.7593

> <Gold.PLP.Chemscore.Metal>
0.0000

> <Gold.Chemscore.Hbonds>
donor molecule, donor type, donor heavy atom, donor atom, acceptor molecule, acceptor atom, score
      P1  H  7989  7998       L1     1  0.38
      P1  H  7997  8008       L1    12  1.00
      P1  H  8011  8017       L1     1  0.56
      L1  C     6    21       P1  8028  0.51

> <Gold.PLP.Chemscore.Internal.Correction>
0.0035

> <Gold.Rescore>
     Score         DG    S(hbond)    S(metal)    S(lipo)     H(rot)  DE(clash)    DE(int)     intcor
     12.95     -18.07       1.87        0.00      87.67       1.53       2.31       2.81       ----

> <Gold.Chemscore.Fitness>
12.9496

> <Gold.Chemscore.DG>
-18.0654

> <Gold.Chemscore.ZeroCoef>
-5.4800

> <Gold.Chemscore.Hbond>
1.8699

> <Gold.Chemscore.Metal>
0.0000

> <Gold.Chemscore.Lipo>
87.6710

> <Gold.Chemscore.Internal_Hbond>
0.0000

> <Gold.Chemscore.DEClash>
2.3058

> <Gold.Chemscore.DEInternal>
2.8100

> <Gold.Chemscore.Rot>
1.5303

> <Gold.Chemscore.Internal.Correction>
   9.000000E+99

> <Gold.Chemscore.Hbonds>
donor molecule, donor type, donor heavy atom, donor atom, acceptor molecule, acceptor atom, score
      P1  H  7989  7998       L1     1  0.17
      P1  H  7997  8008       L1    12  0.78
      P1  H  8011  8017       L1     1  0.55

> <Gold.Chemscore.Hbond.Weighted>
-6.2455

> <Gold.Chemscore.Metal.Weighted>
-0.0000

> <Gold.Chemscore.Lipo.Weighted>
-10.2575

> <Gold.Chemscore.Internal_Hbond.Weighted>
0.0000

> <Gold.Chemscore.DEClash.Weighted>
2.3058

> <Gold.Chemscore.DEInternal.Weighted>
2.8100

> <Gold.Chemscore.Rot.Weighted>
3.9176

> <Gold.Chemscore.Internal.Correction.Weighted>
   9.000000E+99

> <Gold.Protein.RotatedTorsions>
[ 6907 6896 6895 6894 ] final   50.74 input  -60.11 | X-H torsion
[ 7974 7965 7964 7962 ] final  151.21 input  175.53 | X-H torsion
[ 8008 7997 7996 7995 ] final  -81.00 input   59.86 | X-H torsion
[ 10167 10162 10161 10158 ] final -111.79 input  -65.29 | X-H torsion
[ 10718 10713 10712 10709 ] final  167.76 input   66.30 | X-H torsion
[ 10763 10752 10751 10750 ] final  141.03 input  -60.55 | X-H torsion
[ 11005 11000 10999 10996 ] final -136.56 input  -57.11 | X-H torsion

> <Gold.Protein.ActiveResidues>
 VAL166  LYS551  ARG553  GLY616  TRP617  ASP618  TYR619  PRO620  LYS621  CYS622 
 ASP623  PHE694  ASN695  SER759  ASP760  ASP761  ALA762  ILE779  LEU786  VAL792 
 PHE793  MET794  SER795  GLU796  ALA797  LYS798  CYS799  TRP800  GLU811  SER814 

> <Gold.Protein.RotatedAtoms>
  152.3051  134.7564  160.0348 H   0  0  0  0  0  0  0  0  0  0  0  0  # atno 6907 bound_to 6896
  151.8064  133.3371  159.3550 H   0  0  0  0  0  0  0  0  0  0  0  0  # atno 6908 bound_to 6896
  150.7292  134.5635  159.5898 H   0  0  0  0  0  0  0  0  0  0  0  0  # atno 6909 bound_to 6896
  144.8308  139.6509  143.6059 H   0  0  0  0  0  0  0  0  0  0  0  0  # atno 7974 bound_to 7965
  154.5939  140.0654  156.9277 H   0  0  0  0  0  0  0  0  0  0  0  0  # atno 8008 bound_to 7997
  155.2247  140.3333  155.4292 H   0  0  0  0  0  0  0  0  0  0  0  0  # atno 8009 bound_to 7997
  156.2274  140.1825  156.7312 H   0  0  0  0  0  0  0  0  0  0  0  0  # atno 8010 bound_to 7997
  140.1298  143.4371  152.1635 H   0  0  0  0  0  0  0  0  0  0  0  0  # atno 10167 bound_to 10162
  157.0469  131.0302  151.2694 H   0  0  0  0  0  0  0  0  0  0  0  0  # atno 10718 bound_to 10713
  153.9325  135.2988  155.3445 H   0  0  0  0  0  0  0  0  0  0  0  0  # atno 10763 bound_to 10752
  154.7519  135.4976  153.9307 H   0  0  0  0  0  0  0  0  0  0  0  0  # atno 10764 bound_to 10752
  153.1084  135.6753  153.9650 H   0  0  0  0  0  0  0  0  0  0  0  0  # atno 10765 bound_to 10752
  140.8793  134.1952  157.4601 H   0  0  0  0  0  0  0  0  0  0  0  0  # atno 11005 bound_to 11000
  146.2611  139.6413  142.9361 LP  0  0  0  0  0  0  0  0  0  0  0  0  # atno 17320 bound_to 7965
  145.4899  141.0438  143.2599 LP  0  0  0  0  0  0  0  0  0  0  0  0  # atno 17321 bound_to 7965
  139.5525  144.7349  151.4391 LP  0  0  0  0  0  0  0  0  0  0  0  0  # atno 17342 bound_to 10162
  140.6824  143.8052  150.7139 LP  0  0  0  0  0  0  0  0  0  0  0  0  # atno 17343 bound_to 10162
  157.5061  130.7909  149.7655 LP  0  0  0  0  0  0  0  0  0  0  0  0  # atno 17370 bound_to 10713
  156.0020  130.3875  150.2570 LP  0  0  0  0  0  0  0  0  0  0  0  0  # atno 17371 bound_to 10713
  139.8718  134.9810  156.5098 LP  0  0  0  0  0  0  0  0  0  0  0  0  # atno 17394 bound_to 11000
  140.8480  133.8154  155.9140 LP  0  0  0  0  0  0  0  0  0  0  0  0  # atno 17395 bound_to 11000

$$$$
