AV-unprocessed.smi:153|AV-procd|sdf|1260|dock9
  -GOLD-   2262018503D 1   1.00000     0.00000
 Structure written by MMmdl.
 59 62  0  0  0  0  0  0  0  0  1 V2000
  145.9021  131.8908  152.1368 C   0  0  0  0  0  0  0  0  0  0  0  0
  144.9808  133.1181  152.2811 C   0  0  2  0  0  0  0  0  0  0  0  0
  144.0429  133.0776  151.2109 O   0  0  0  0  0  0  0  0  0  0  0  0
  144.5141  133.8455  150.1067 C   0  0  0  0  0  0  0  0  0  0  0  0
  145.7180  134.6449  150.6122 C   0  0  0  0  0  0  0  0  0  0  0  0
  145.6693  134.4910  152.1298 C   0  0  2  0  0  0  0  0  0  0  0  0
  146.9875  134.4775  152.6456 O   0  0  0  0  0  0  0  0  0  0  0  0
  144.9310  135.6466  152.8606 C   0  0  0  0  0  0  0  0  0  0  0  0
  145.6101  136.9328  152.8182 N   0  0  0  0  0  0  0  0  0  0  0  0
  146.0721  137.5826  151.6986 C   0  0  0  0  0  0  0  0  0  0  0  0
  146.6617  138.7219  151.9263 N   0  0  0  0  0  0  0  0  0  0  0  0
  146.5945  138.8895  153.3064 C   0  0  0  0  0  0  0  0  0  0  0  0
  147.0389  139.8929  154.2261 C   0  0  0  0  0  0  0  0  0  0  0  0
  147.7340  141.0226  153.8917 N   0  0  0  0  0  0  0  0  0  0  0  0
  147.0112  142.2906  153.8071 C   0  0  0  0  0  0  0  0  0  0  0  0
  149.1756  141.1008  154.1242 C   0  0  0  0  0  0  0  0  0  0  0  0
  149.5489  141.0407  155.6239 C   0  0  2  0  0  0  0  0  0  0  0  0
  148.8470  142.0336  156.3437 O   0  0  0  0  0  0  0  0  0  0  0  0
  151.0623  141.1824  155.9019 C   0  0  0  0  0  0  0  0  0  0  0  0
  151.8801  139.9759  155.7503 N   0  0  0  0  0  0  0  0  0  0  0  0
  151.3055  139.0828  154.7495 C   0  0  0  0  0  0  0  0  0  0  0  0
  152.1475  137.8094  154.5605 C   0  0  0  0  0  0  0  0  0  0  0  0
  152.2869  137.1419  155.8103 O   0  0  0  0  0  0  0  0  0  0  0  0
  152.8871  137.9633  156.8061 C   0  0  0  0  0  0  0  0  0  0  0  0
  152.0488  139.2388  157.0006 C   0  0  0  0  0  0  0  0  0  0  0  0
  146.7415  139.6853  155.5385 N   0  0  0  0  0  0  0  0  0  0  0  0
  146.0860  138.5925  155.9346 C   0  0  0  0  0  0  0  0  0  0  0  0
  145.6345  137.5805  155.1959 N   0  0  0  0  0  0  0  0  0  0  0  0
  145.9130  137.7727  153.8762 C   0  0  0  0  0  0  0  0  0  0  0  0
  146.6233  131.8372  152.9524 H   0  0  0  0  0  0  0  0  0  0  0  0
  146.4579  131.9066  151.1992 H   0  0  0  0  0  0  0  0  0  0  0  0
  145.3199  130.9695  152.1584 H   0  0  0  0  0  0  0  0  0  0  0  0
  144.4582  133.0413  153.2345 H   0  0  0  0  0  0  0  0  0  0  0  0
  144.7950  133.1906  149.2818 H   0  0  0  0  0  0  0  0  0  0  0  0
  143.7148  134.4994  149.7576 H   0  0  0  0  0  0  0  0  0  0  0  0
  146.6270  134.1914  150.2137 H   0  0  0  0  0  0  0  0  0  0  0  0
  145.7107  135.6831  150.2814 H   0  0  0  0  0  0  0  0  0  0  0  0
  147.4677  135.1949  152.2607 H   0  0  0  0  0  0  0  0  0  0  0  0
  143.9369  135.7810  152.4316 H   0  0  0  0  0  0  0  0  0  0  0  0
  144.7720  135.3844  153.9074 H   0  0  0  0  0  0  0  0  0  0  0  0
  145.9684  137.1792  150.7020 H   0  0  0  0  0  0  0  0  0  0  0  0
  146.2057  142.2307  153.0744 H   0  0  0  0  0  0  0  0  0  0  0  0
  147.6722  143.1012  153.5005 H   0  0  0  0  0  0  0  0  0  0  0  0
  146.5853  142.5566  154.7753 H   0  0  0  0  0  0  0  0  0  0  0  0
  149.6720  140.3136  153.5620 H   0  0  0  0  0  0  0  0  0  0  0  0
  149.5659  142.0194  153.6845 H   0  0  0  0  0  0  0  0  0  0  0  0
  149.2426  140.0826  156.0455 H   0  0  0  0  0  0  0  0  0  0  0  0
  148.7340  142.7847  155.7819 H   0  0  0  0  0  0  0  0  0  0  0  0
  151.4780  141.9983  155.3083 H   0  0  0  0  0  0  0  0  0  0  0  0
  151.1497  141.5112  156.9385 H   0  0  0  0  0  0  0  0  0  0  0  0
  150.2919  138.8034  155.0417 H   0  0  0  0  0  0  0  0  0  0  0  0
  151.2222  139.6021  153.7941 H   0  0  0  0  0  0  0  0  0  0  0  0
  151.6658  137.1382  153.8495 H   0  0  0  0  0  0  0  0  0  0  0  0
  153.1316  138.0526  154.1570 H   0  0  0  0  0  0  0  0  0  0  0  0
  152.9495  137.4044  157.7399 H   0  0  0  0  0  0  0  0  0  0  0  0
  153.9080  138.2137  156.5132 H   0  0  0  0  0  0  0  0  0  0  0  0
  152.5414  139.8632  157.7447 H   0  0  0  0  0  0  0  0  0  0  0  0
  151.0726  138.9726  157.4090 H   0  0  0  0  0  0  0  0  0  0  0  0
  145.9012  138.5170  156.9959 H   0  0  0  0  0  0  0  0  0  0  0  0
  1  2  1  0  0  0  0
  1 30  1  0  0  0  0
  1 31  1  0  0  0  0
  1 32  1  0  0  0  0
  2  6  1  0  0  0  0
  2  3  1  0  0  0  0
  2 33  1  0  0  0  0
  3  4  1  0  0  0  0
  4  5  1  0  0  0  0
  4 34  1  0  0  0  0
  4 35  1  0  0  0  0
  5  6  1  0  0  0  0
  5 36  1  0  0  0  0
  5 37  1  0  0  0  0
  6  7  1  0  0  0  0
  6  8  1  0  0  0  0
  7 38  1  0  0  0  0
  8  9  1  0  0  0  0
  8 39  1  0  0  0  0
  8 40  1  0  0  0  0
  9 29  1  0  0  0  0
  9 10  1  0  0  0  0
 10 11  2  0  0  0  0
 10 41  1  0  0  0  0
 11 12  1  0  0  0  0
 12 29  2  0  0  0  0
 12 13  1  0  0  0  0
 13 14  1  0  0  0  0
 13 26  2  0  0  0  0
 14 15  1  0  0  0  0
 14 16  1  0  0  0  0
 15 42  1  0  0  0  0
 15 43  1  0  0  0  0
 15 44  1  0  0  0  0
 16 17  1  0  0  0  0
 16 45  1  0  0  0  0
 16 46  1  0  0  0  0
 17 18  1  0  0  0  0
 17 19  1  0  0  0  0
 17 47  1  0  0  0  0
 18 48  1  0  0  0  0
 19 20  1  0  0  0  0
 19 49  1  0  0  0  0
 19 50  1  0  0  0  0
 20 25  1  0  0  0  0
 20 21  1  0  0  0  0
 21 22  1  0  0  0  0
 21 51  1  0  0  0  0
 21 52  1  0  0  0  0
 22 23  1  0  0  0  0
 22 53  1  0  0  0  0
 22 54  1  0  0  0  0
 23 24  1  0  0  0  0
 24 25  1  0  0  0  0
 24 55  1  0  0  0  0
 24 56  1  0  0  0  0
 25 57  1  0  0  0  0
 25 58  1  0  0  0  0
 26 27  1  0  0  0  0
 27 28  2  0  0  0  0
 27 59  1  0  0  0  0
 28 29  1  0  0  0  0
M  END
> <s_m_source_file>
AV-unprocessed.smi

> <i_m_source_file_index>
153

> <i_lp_mmshare_version>
43012

> <i_f3d_flags>
0

> <s_epik_input>
W0NIMl0xW0NIMl1PW0NAQEhdKFtDSDNdKVtDQEBdMShbT0hdKVtDSDJdbihbY0hdbjIpYyhjMjMpbltjSF1uYzNOKFtDSDNdKVtDSDJdW0NASF0oW09IXSlbQ0gyXU40W0NIMl1bQ0gyXU9bQ0gyXVtDSDJdNA==

> <s_epik_cmdline>
J2VwaWtfcHl0aG9uJywgJy1waCcsICc3LjAnLCAnLXRuJywgJzgnLCAnLW1hJywgJzIwMCcsICctbWV0YWxfYmluZGluZycsICctaW1hZScsICc8aW5maWxlLm1hZT4nLCAnLW9tYWUnLCAnPG91dGZpbGUubWFlPic=

> <r_lp_tautomer_probability>
1

> <r_epik_Ionization_Penalty>
0.424123

> <r_epik_Ionization_Penalty_Charging>
0

> <r_epik_Ionization_Penalty_Neutral>
0.424123

> <r_epik_State_Penalty>
0.421495

> <r_epik_Charging_Adjusted_Penalty>
0.421495

> <i_epik_Tot_Q>
0

> <i_epik_Tot_abs_Q>
0

> <r_epik_Metal_State_Penalty>
0.421223

> <b_epik_Metal_Only>
0

> <s_lp_Force_Field>
OPLS_2005

> <r_lp_Energy>
59.2369

> <b_lp_Chiralities_Consistent>
1

> <s_lp_Variant>
AV-unprocessed.smi:153-11

> <Gold.Version>
5.8.1

> <Gold.Id.Protein>
6NUR|6NUR_protein|mol2

> <Gold.PLP.Fitness>
47.4858

> <Gold.PLP.PLP>
-41.7847

> <Gold.PLP.part.hbond>
-3.4964

> <Gold.PLP.part.metal>
0.0000

> <Gold.PLP.part.buried>
-3.5303

> <Gold.PLP.part.nonpolar>
-35.1514

> <Gold.PLP.part.repulsive>
0.5630

> <Gold.PLP.ligand.clash>
0.0010

> <Gold.PLP.ligand.torsion>
2.4078

> <Gold.PLP.Chemscore.Hbond>
2.7680

> <Gold.PLP.Chemscore.CHOScore>
0.5671

> <Gold.PLP.Chemscore.Metal>
0.0000

> <Gold.Chemscore.Hbonds>
donor molecule, donor type, donor heavy atom, donor atom, acceptor molecule, acceptor atom, score
      L1  H     7    38       P1  7948  1.00
      L1  H    18    48       P1  8028  0.91
      P1  H 10752 10764       L1    23  0.48
      L1  C    10    41       P1 10171  0.28

> <Gold.PLP.Chemscore.Internal.Correction>
0.5125

> <Gold.Rescore>
     Score         DG    S(hbond)    S(metal)    S(lipo)     H(rot)  DE(clash)    DE(int)     intcor
     11.76     -14.23       2.17        0.00      89.74       3.52       0.25       2.22       ----

> <Gold.Chemscore.Fitness>
11.7603

> <Gold.Chemscore.DG>
-14.2329

> <Gold.Chemscore.ZeroCoef>
-5.4800

> <Gold.Chemscore.Hbond>
2.1728

> <Gold.Chemscore.Metal>
0.0000

> <Gold.Chemscore.Lipo>
89.7368

> <Gold.Chemscore.Internal_Hbond>
0.0000

> <Gold.Chemscore.DEClash>
0.2541

> <Gold.Chemscore.DEInternal>
2.2185

> <Gold.Chemscore.Rot>
3.5170

> <Gold.Chemscore.Internal.Correction>
   9.000000E+99

> <Gold.Chemscore.Hbonds>
donor molecule, donor type, donor heavy atom, donor atom, acceptor molecule, acceptor atom, score
      L1  H     7    38       P1  7948  0.98
      L1  H    18    48       P1  8028  0.89
      P1  H 10752 10764       L1    23  0.03

> <Gold.Chemscore.Hbond.Weighted>
-7.2572

> <Gold.Chemscore.Metal.Weighted>
-0.0000

> <Gold.Chemscore.Lipo.Weighted>
-10.4992

> <Gold.Chemscore.Internal_Hbond.Weighted>
0.0000

> <Gold.Chemscore.DEClash.Weighted>
0.2541

> <Gold.Chemscore.DEInternal.Weighted>
2.2185

> <Gold.Chemscore.Rot.Weighted>
9.0036

> <Gold.Chemscore.Internal.Correction.Weighted>
   9.000000E+99

> <Gold.Protein.RotatedTorsions>
[ 6907 6896 6895 6894 ] final   93.24 input  -60.11 | X-H torsion
[ 7974 7965 7964 7962 ] final   90.79 input  175.53 | X-H torsion
[ 8008 7997 7996 7995 ] final  -83.03 input   59.86 | X-H torsion
[ 10167 10162 10161 10158 ] final  162.29 input  -65.29 | X-H torsion
[ 10718 10713 10712 10709 ] final -139.83 input   66.30 | X-H torsion
[ 10763 10752 10751 10750 ] final  -40.07 input  -60.55 | X-H torsion
[ 11005 11000 10999 10996 ] final  -41.80 input  -57.11 | X-H torsion

> <Gold.Protein.ActiveResidues>
 VAL166  LYS551  ARG553  GLY616  TRP617  ASP618  TYR619  PRO620  LYS621  CYS622 
 ASP623  PHE694  ASN695  SER759  ASP760  ASP761  ALA762  ILE779  LEU786  VAL792 
 PHE793  MET794  SER795  GLU796  ALA797  LYS798  CYS799  TRP800  GLU811  SER814 

> <Gold.Protein.RotatedAtoms>
  152.5452  134.1379  159.8466 H   0  0  0  0  0  0  0  0  0  0  0  0  # atno 6907 bound_to 6896
  151.1418  133.4959  159.2604 H   0  0  0  0  0  0  0  0  0  0  0  0  # atno 6908 bound_to 6896
  151.1565  135.0263  159.8746 H   0  0  0  0  0  0  0  0  0  0  0  0  # atno 6909 bound_to 6896
  145.5143  139.2277  143.2707 H   0  0  0  0  0  0  0  0  0  0  0  0  # atno 7974 bound_to 7965
  154.6148  140.0624  156.9540 H   0  0  0  0  0  0  0  0  0  0  0  0  # atno 8008 bound_to 7997
  155.1914  140.3307  155.4339 H   0  0  0  0  0  0  0  0  0  0  0  0  # atno 8009 bound_to 7997
  156.2398  140.1880  156.7003 H   0  0  0  0  0  0  0  0  0  0  0  0  # atno 8010 bound_to 7997
  139.4859  144.4452  151.8901 H   0  0  0  0  0  0  0  0  0  0  0  0  # atno 10167 bound_to 10162
  156.3152  130.7504  151.1589 H   0  0  0  0  0  0  0  0  0  0  0  0  # atno 10718 bound_to 10713
  153.9399  135.6762  153.4744 H   0  0  0  0  0  0  0  0  0  0  0  0  # atno 10763 bound_to 10752
  153.0937  135.4862  154.8735 H   0  0  0  0  0  0  0  0  0  0  0  0  # atno 10764 bound_to 10752
  154.7383  135.3154  154.8731 H   0  0  0  0  0  0  0  0  0  0  0  0  # atno 10765 bound_to 10752
  141.0271  133.6836  156.2506 H   0  0  0  0  0  0  0  0  0  0  0  0  # atno 11005 bound_to 11000
  146.2147  140.5951  142.9044 LP  0  0  0  0  0  0  0  0  0  0  0  0  # atno 17320 bound_to 7965
  144.7710  140.5638  143.6670 LP  0  0  0  0  0  0  0  0  0  0  0  0  # atno 17321 bound_to 7965
  140.3906  144.2620  150.5900 LP  0  0  0  0  0  0  0  0  0  0  0  0  # atno 17342 bound_to 10162
  140.5150  143.2280  151.8478 LP  0  0  0  0  0  0  0  0  0  0  0  0  # atno 17343 bound_to 10162
  157.7400  131.0522  150.5195 LP  0  0  0  0  0  0  0  0  0  0  0  0  # atno 17370 bound_to 10713
  156.5340  130.4192  149.6187 LP  0  0  0  0  0  0  0  0  0  0  0  0  # atno 17371 bound_to 10713
  140.6472  134.5104  157.5574 LP  0  0  0  0  0  0  0  0  0  0  0  0  # atno 17394 bound_to 11000
  139.9183  134.8201  156.1294 LP  0  0  0  0  0  0  0  0  0  0  0  0  # atno 17395 bound_to 11000

$$$$
