AV-unprocessed.smi:2786|AV-procd|sdf|10751|dock8
  -GOLD-   2272015183D 1   1.00000     0.00000
 Structure written by MMmdl.
 28 29  0  0  0  0  0  0  0  0  3 V2000
  151.7758  139.6692  155.5900 C   0  0  0  0  0  0  0  0  0  0  0  0
  151.3189  140.8727  156.2881 N   0  0  0  0  0  0  0  0  0  0  0  0
  151.8766  141.4220  157.4142 C   0  0  0  0  0  0  0  0  0  0  0  0
  151.1285  142.5271  157.7245 C   0  0  0  0  0  0  0  0  0  0  0  0
  150.1468  142.6073  156.7747 N   0  3  0  0  0  0  0  0  0  0  0  0
  150.2641  141.6059  155.8926 C   0  0  0  0  0  0  0  0  0  0  0  0
  149.3622  141.3563  154.7175 C   0  0  1  0  0  0  0  0  0  0  0  0
  148.9176  139.8769  154.6546 C   0  0  0  0  0  0  0  0  0  0  0  0
  148.0661  139.6389  153.4704 N   0  3  0  0  0  0  0  0  0  0  0  0
  146.9120  140.5589  153.4508 C   0  0  0  0  0  0  0  0  0  0  0  0
  147.4014  142.0163  153.5236 C   0  0  0  0  0  0  0  0  0  0  0  0
  148.1802  142.2187  154.7420 N   0  0  0  0  0  0  0  0  0  0  0  0
  152.5788  139.1994  156.1594 H   0  0  0  0  0  0  0  0  0  0  0  0
  152.1475  139.9449  154.6027 H   0  0  0  0  0  0  0  0  0  0  0  0
  150.9472  138.9671  155.4930 H   0  0  0  0  0  0  0  0  0  0  0  0
  152.7422  140.9963  157.9019 H   0  0  0  0  0  0  0  0  0  0  0  0
  151.2182  143.2425  158.5291 H   0  0  0  0  0  0  0  0  0  0  0  0
  149.9453  141.6061  153.8303 H   0  0  0  0  0  0  0  0  0  0  0  0
  149.7848  139.2187  154.5964 H   0  0  0  0  0  0  0  0  0  0  0  0
  148.3679  139.6001  155.5556 H   0  0  0  0  0  0  0  0  0  0  0  0
  148.6151  139.7920  152.6365 H   0  0  0  0  0  0  0  0  0  0  0  0
  146.3412  140.3952  152.5364 H   0  0  0  0  0  0  0  0  0  0  0  0
  146.2490  140.3327  154.2873 H   0  0  0  0  0  0  0  0  0  0  0  0
  148.0034  142.2692  152.6495 H   0  0  0  0  0  0  0  0  0  0  0  0
  146.5493  142.6965  153.5323 H   0  0  0  0  0  0  0  0  0  0  0  0
  148.4655  143.1868  154.8001 H   0  0  0  0  0  0  0  0  0  0  0  0
  147.7353  138.6844  153.4774 H   0  0  0  0  0  0  0  0  0  0  0  0
  149.4339  143.3254  156.7373 H   0  0  0  0  0  0  0  0  0  0  0  0
  1  2  1  0  0  0  0
  1 13  1  0  0  0  0
  1 14  1  0  0  0  0
  1 15  1  0  0  0  0
  2  6  1  0  0  0  0
  2  3  1  0  0  0  0
  3  4  2  0  0  0  0
  3 16  1  0  0  0  0
  4  5  1  0  0  0  0
  4 17  1  0  0  0  0
  5  6  2  0  0  0  0
  5 28  1  0  0  0  0
  6  7  1  0  0  0  0
  7 12  1  0  0  0  0
  7  8  1  0  0  0  0
  7 18  1  0  0  0  0
  8  9  1  0  0  0  0
  8 19  1  0  0  0  0
  8 20  1  0  0  0  0
  9 10  1  0  0  0  0
  9 21  1  0  0  0  0
  9 27  1  0  0  0  0
 10 11  1  0  0  0  0
 10 22  1  0  0  0  0
 10 23  1  0  0  0  0
 11 12  1  0  0  0  0
 11 24  1  0  0  0  0
 11 25  1  0  0  0  0
 12 26  1  0  0  0  0
M  CHG  1   5   1
M  CHG  1   9   1
M  END
> <s_m_source_file>
AV-unprocessed.smi

> <i_m_source_file_index>
2786

> <i_lp_mmshare_version>
43012

> <i_f3d_flags>
0

> <s_epik_input>
W0NIM11uMVtjSF1bY0hdbmMxW0NAQEhdMltDSDJdW05IXVtDSDJdW0NIMl1bTkhdMg==

> <s_epik_cmdline>
J2VwaWtfcHl0aG9uJywgJy1waCcsICc3LjAnLCAnLXRuJywgJzgnLCAnLW1hJywgJzIwMCcsICctbWV0YWxfYmluZGluZycsICctaW1hZScsICc8aW5maWxlLm1hZT4nLCAnLW9tYWUnLCAnPG91dGZpbGUubWFlPic=

> <r_lp_tautomer_probability>
1

> <r_epik_Ionization_Penalty>
1.19986

> <r_epik_Ionization_Penalty_Charging>
0.069211

> <r_epik_Ionization_Penalty_Neutral>
1.13065

> <r_epik_State_Penalty>
0.776615

> <r_epik_Charging_Adjusted_Penalty>
0.845826

> <i_epik_Tot_Q>
2

> <i_epik_Tot_abs_Q>
2

> <r_epik_Metal_State_Penalty>
4.73559

> <b_epik_Metal_Only>
0

> <s_lp_Force_Field>
OPLS_2005

> <r_lp_Energy>
18.3539

> <b_lp_Chiralities_Consistent>
1

> <s_lp_Variant>
AV-unprocessed.smi:2786-4

> <Gold.Version>
5.8.1

> <Gold.Id.Protein>
6NUR|6NUR_protein|mol2

> <Gold.PLP.Fitness>
35.8438

> <Gold.PLP.PLP>
-25.1065

> <Gold.PLP.part.hbond>
-3.0000

> <Gold.PLP.part.metal>
0.0000

> <Gold.PLP.part.buried>
-4.1071

> <Gold.PLP.part.nonpolar>
-17.2613

> <Gold.PLP.part.repulsive>
0.1073

> <Gold.PLP.ligand.clash>
0.0000

> <Gold.PLP.ligand.torsion>
0.2285

> <Gold.PLP.Chemscore.Hbond>
3.7280

> <Gold.PLP.Chemscore.CHOScore>
0.0000

> <Gold.PLP.Chemscore.Metal>
0.0000

> <Gold.Chemscore.Hbonds>
donor molecule, donor type, donor heavy atom, donor atom, acceptor molecule, acceptor atom, score
      L1  H     5    28       P1  8028  1.63
      L1  H     9    21       P1  7957  1.00
      L1  H    12    26       P1  8028  1.00

> <Gold.PLP.Chemscore.Internal.Correction>
0.0103

> <Gold.Rescore>
     Score         DG    S(hbond)    S(metal)    S(lipo)     H(rot)  DE(clash)    DE(int)     intcor
     16.48     -18.18       2.70        0.00      53.36       1.00       1.65       0.06       ----

> <Gold.Chemscore.Fitness>
16.4769

> <Gold.Chemscore.DG>
-18.1850

> <Gold.Chemscore.ZeroCoef>
-5.4800

> <Gold.Chemscore.Hbond>
2.7011

> <Gold.Chemscore.Metal>
0.0000

> <Gold.Chemscore.Lipo>
53.3612

> <Gold.Chemscore.Internal_Hbond>
0.0000

> <Gold.Chemscore.DEClash>
1.6472

> <Gold.Chemscore.DEInternal>
0.0609

> <Gold.Chemscore.Rot>
1.0000

> <Gold.Chemscore.Internal.Correction>
   9.000000E+99

> <Gold.Chemscore.Hbonds>
donor molecule, donor type, donor heavy atom, donor atom, acceptor molecule, acceptor atom, score
      L1  H     5    28       P1  8028  0.81
      L1  H     9    21       P1  7957  1.00
      L1  H    12    26       P1  8028  0.98

> <Gold.Chemscore.Hbond.Weighted>
-9.0217

> <Gold.Chemscore.Metal.Weighted>
-0.0000

> <Gold.Chemscore.Lipo.Weighted>
-6.2433

> <Gold.Chemscore.Internal_Hbond.Weighted>
0.0000

> <Gold.Chemscore.DEClash.Weighted>
1.6472

> <Gold.Chemscore.DEInternal.Weighted>
0.0609

> <Gold.Chemscore.Rot.Weighted>
2.5600

> <Gold.Chemscore.Internal.Correction.Weighted>
   9.000000E+99

> <Gold.Protein.RotatedTorsions>
[ 6907 6896 6895 6894 ] final  -87.01 input  -60.11 | X-H torsion
[ 7974 7965 7964 7962 ] final  -29.90 input  175.53 | X-H torsion
[ 8008 7997 7996 7995 ] final   72.82 input   59.86 | X-H torsion
[ 10167 10162 10161 10158 ] final -120.66 input  -65.29 | X-H torsion
[ 10718 10713 10712 10709 ] final  -61.59 input   66.30 | X-H torsion
[ 10763 10752 10751 10750 ] final  -96.79 input  -60.55 | X-H torsion
[ 11005 11000 10999 10996 ] final   29.73 input  -57.11 | X-H torsion

> <Gold.Protein.ActiveResidues>
 VAL166  LYS551  ARG553  GLY616  TRP617  ASP618  TYR619  PRO620  LYS621  CYS622 
 ASP623  PHE694  ASN695  SER759  ASP760  ASP761  ALA762  ILE779  LEU786  VAL792 
 PHE793  MET794  SER795  GLU796  ALA797  LYS798  CYS799  TRP800  GLU811  SER814 

> <Gold.Protein.RotatedAtoms>
  150.6866  134.2963  159.4687 H   0  0  0  0  0  0  0  0  0  0  0  0  # atno 6907 bound_to 6896
  152.0863  134.9435  160.0582 H   0  0  0  0  0  0  0  0  0  0  0  0  # atno 6908 bound_to 6896
  152.0768  133.4098  159.4520 H   0  0  0  0  0  0  0  0  0  0  0  0  # atno 6909 bound_to 6896
  146.1182  140.5472  142.8747 H   0  0  0  0  0  0  0  0  0  0  0  0  # atno 7974 bound_to 7965
  155.7745  140.3483  155.5264 H   0  0  0  0  0  0  0  0  0  0  0  0  # atno 8008 bound_to 7997
  155.8789  140.0999  157.1520 H   0  0  0  0  0  0  0  0  0  0  0  0  # atno 8009 bound_to 7997
  154.4023  140.1326  156.4159 H   0  0  0  0  0  0  0  0  0  0  0  0  # atno 8010 bound_to 7997
  140.0334  143.5225  152.2165 H   0  0  0  0  0  0  0  0  0  0  0  0  # atno 10167 bound_to 10162
  156.0911  130.4200  150.1016 H   0  0  0  0  0  0  0  0  0  0  0  0  # atno 10718 bound_to 10713
  154.7270  135.5071  153.8903 H   0  0  0  0  0  0  0  0  0  0  0  0  # atno 10763 bound_to 10752
  153.0914  135.6660  153.9855 H   0  0  0  0  0  0  0  0  0  0  0  0  # atno 10764 bound_to 10752
  153.9665  135.3042  155.3409 H   0  0  0  0  0  0  0  0  0  0  0  0  # atno 10765 bound_to 10752
  140.3018  134.2748  155.7752 H   0  0  0  0  0  0  0  0  0  0  0  0  # atno 11005 bound_to 11000
  144.7573  140.5337  143.6760 LP  0  0  0  0  0  0  0  0  0  0  0  0  # atno 17320 bound_to 7965
  145.5521  139.1477  143.3388 LP  0  0  0  0  0  0  0  0  0  0  0  0  # atno 17321 bound_to 7965
  139.6061  144.7596  151.3059 LP  0  0  0  0  0  0  0  0  0  0  0  0  # atno 17342 bound_to 10162
  140.7292  143.6914  150.7919 LP  0  0  0  0  0  0  0  0  0  0  0  0  # atno 17343 bound_to 10162
  156.9026  130.9625  151.3574 LP  0  0  0  0  0  0  0  0  0  0  0  0  # atno 17370 bound_to 10713
  157.6060  130.8548  149.8877 LP  0  0  0  0  0  0  0  0  0  0  0  0  # atno 17371 bound_to 10713
  141.2126  133.7651  156.9778 LP  0  0  0  0  0  0  0  0  0  0  0  0  # atno 17394 bound_to 11000
  140.1102  134.9481  157.2054 LP  0  0  0  0  0  0  0  0  0  0  0  0  # atno 17395 bound_to 11000

$$$$
