AV-unprocessed.smi:170|AV-procd|sdf|1407|dock1
  -GOLD-   2262019163D 1   1.00000     0.00000
 Structure written by MMmdl.
 57 61  0  0  0  0  0  0  0  0  1 V2000
  149.8240  142.1615  156.3933 O   0  0  0  0  0  0  0  0  0  0  0  0
  150.2807  141.9240  157.7119 C   0  0  1  0  0  0  0  0  0  0  0  0
  151.4769  140.9524  157.7079 C   0  0  0  0  0  0  0  0  0  0  0  0
  151.0751  139.5823  157.9699 N   0  0  0  0  0  0  0  0  0  0  0  0
  151.7790  138.6347  158.6776 C   0  0  0  0  0  0  0  0  0  0  0  0
  151.1998  137.4689  158.7719 N   0  0  0  0  0  0  0  0  0  0  0  0
  150.0083  137.6241  158.0728 C   0  0  0  0  0  0  0  0  0  0  0  0
  148.9091  136.7701  157.7711 C   0  0  0  0  0  0  0  0  0  0  0  0
  148.8032  135.4770  158.1521 N   0  0  0  0  0  0  0  0  0  0  0  0
  148.7095  134.6040  156.9880 C   0  0  0  0  0  0  0  0  0  0  0  0
  148.7807  133.1338  157.4199 C   0  0  0  0  0  0  0  0  0  0  0  0
  147.7463  132.8792  158.3604 O   0  0  0  0  0  0  0  0  0  0  0  0
  147.8908  133.6666  159.5373 C   0  0  0  0  0  0  0  0  0  0  0  0
  147.8154  135.1736  159.1959 C   0  0  1  0  0  0  0  0  0  0  0  0
  148.0021  136.0550  160.4586 C   0  0  0  0  0  0  0  0  0  0  0  0
  146.7785  136.1070  161.3709 C   0  0  0  0  0  0  0  0  0  0  0  0
  146.7330  137.1116  162.5326 C   0  0  0  0  0  0  0  0  0  0  0  0
  145.9656  136.0653  163.3451 C   0  0  0  0  0  0  0  0  0  0  0  0
  146.5647  135.0038  162.4182 C   0  0  0  0  0  0  0  0  0  0  0  0
  147.8807  137.2857  157.0542 N   0  0  0  0  0  0  0  0  0  0  0  0
  147.9247  138.5562  156.6414 C   0  0  0  0  0  0  0  0  0  0  0  0
  148.8818  139.4660  156.8376 N   0  0  0  0  0  0  0  0  0  0  0  0
  149.9129  138.9506  157.5668 C   0  0  0  0  0  0  0  0  0  0  0  0
  150.5987  143.2573  158.4169 C   0  0  2  0  0  0  0  0  0  0  0  0
  151.5778  144.1956  157.6910 C   0  0  0  0  0  0  0  0  0  0  0  0
  152.5723  144.5931  158.7714 C   0  0  0  0  0  0  0  0  0  0  0  0
  151.8640  144.2110  160.0663 C   0  0  0  0  0  0  0  0  0  0  0  0
  151.1549  143.0373  159.7078 O   0  0  0  0  0  0  0  0  0  0  0  0
  149.5664  143.0684  156.3271 H   0  0  0  0  0  0  0  0  0  0  0  0
  149.4547  141.4532  158.2466 H   0  0  0  0  0  0  0  0  0  0  0  0
  151.9978  140.9851  156.7500 H   0  0  0  0  0  0  0  0  0  0  0  0
  152.2028  141.2452  158.4677 H   0  0  0  0  0  0  0  0  0  0  0  0
  152.7426  138.8363  159.1226 H   0  0  0  0  0  0  0  0  0  0  0  0
  147.7711  134.7910  156.4635 H   0  0  0  0  0  0  0  0  0  0  0  0
  149.5187  134.8221  156.2892 H   0  0  0  0  0  0  0  0  0  0  0  0
  148.6474  132.4810  156.5572 H   0  0  0  0  0  0  0  0  0  0  0  0
  149.7540  132.8986  157.8537 H   0  0  0  0  0  0  0  0  0  0  0  0
  147.0900  133.3834  160.2195 H   0  0  0  0  0  0  0  0  0  0  0  0
  148.8324  133.4243  160.0332 H   0  0  0  0  0  0  0  0  0  0  0  0
  146.8235  135.3635  158.7859 H   0  0  0  0  0  0  0  0  0  0  0  0
  148.8648  135.6981  161.0225 H   0  0  0  0  0  0  0  0  0  0  0  0
  148.2484  137.0756  160.1657 H   0  0  0  0  0  0  0  0  0  0  0  0
  145.8596  136.2016  160.7890 H   0  0  0  0  0  0  0  0  0  0  0  0
  147.7203  137.3257  162.9463 H   0  0  0  0  0  0  0  0  0  0  0  0
  146.1786  138.0267  162.3224 H   0  0  0  0  0  0  0  0  0  0  0  0
  146.2676  135.9844  164.3897 H   0  0  0  0  0  0  0  0  0  0  0  0
  144.8834  136.1575  163.2397 H   0  0  0  0  0  0  0  0  0  0  0  0
  145.8731  134.2163  162.1170 H   0  0  0  0  0  0  0  0  0  0  0  0
  147.5001  134.5922  162.8012 H   0  0  0  0  0  0  0  0  0  0  0  0
  147.0715  138.8915  156.0704 H   0  0  0  0  0  0  0  0  0  0  0  0
  149.6634  143.7992  158.5705 H   0  0  0  0  0  0  0  0  0  0  0  0
  152.0858  143.7247  156.8489 H   0  0  0  0  0  0  0  0  0  0  0  0
  151.0477  145.0673  157.3059 H   0  0  0  0  0  0  0  0  0  0  0  0
  153.4843  144.0044  158.6656 H   0  0  0  0  0  0  0  0  0  0  0  0
  152.8451  145.6481  158.7344 H   0  0  0  0  0  0  0  0  0  0  0  0
  152.5561  144.0292  160.8886 H   0  0  0  0  0  0  0  0  0  0  0  0
  151.1595  144.9865  160.3710 H   0  0  0  0  0  0  0  0  0  0  0  0
  1  2  1  0  0  0  0
  1 29  1  0  0  0  0
  2  3  1  0  0  0  0
  2 24  1  0  0  0  0
  2 30  1  0  0  0  0
  3  4  1  0  0  0  0
  3 31  1  0  0  0  0
  3 32  1  0  0  0  0
  4 23  1  0  0  0  0
  4  5  1  0  0  0  0
  5  6  2  0  0  0  0
  5 33  1  0  0  0  0
  6  7  1  0  0  0  0
  7 23  2  0  0  0  0
  7  8  1  0  0  0  0
  8  9  1  0  0  0  0
  8 20  2  0  0  0  0
  9 14  1  0  0  0  0
  9 10  1  0  0  0  0
 10 11  1  0  0  0  0
 10 34  1  0  0  0  0
 10 35  1  0  0  0  0
 11 12  1  0  0  0  0
 11 36  1  0  0  0  0
 11 37  1  0  0  0  0
 12 13  1  0  0  0  0
 13 14  1  0  0  0  0
 13 38  1  0  0  0  0
 13 39  1  0  0  0  0
 14 15  1  0  0  0  0
 14 40  1  0  0  0  0
 15 16  1  0  0  0  0
 15 41  1  0  0  0  0
 15 42  1  0  0  0  0
 16 19  1  0  0  0  0
 16 17  1  0  0  0  0
 16 43  1  0  0  0  0
 17 18  1  0  0  0  0
 17 44  1  0  0  0  0
 17 45  1  0  0  0  0
 18 19  1  0  0  0  0
 18 46  1  0  0  0  0
 18 47  1  0  0  0  0
 19 48  1  0  0  0  0
 19 49  1  0  0  0  0
 20 21  1  0  0  0  0
 21 22  2  0  0  0  0
 21 50  1  0  0  0  0
 22 23  1  0  0  0  0
 24 28  1  0  0  0  0
 24 25  1  0  0  0  0
 24 51  1  0  0  0  0
 25 26  1  0  0  0  0
 25 52  1  0  0  0  0
 25 53  1  0  0  0  0
 26 27  1  0  0  0  0
 26 54  1  0  0  0  0
 26 55  1  0  0  0  0
 27 28  1  0  0  0  0
 27 56  1  0  0  0  0
 27 57  1  0  0  0  0
M  END
> <s_m_source_file>
AV-unprocessed.smi

> <i_m_source_file_index>
170

> <i_lp_mmshare_version>
43012

> <i_f3d_flags>
0

> <s_epik_input>
TzFbQ0gyXVtDSDJdW0NIMl1bQ0BIXTFbQ0BIXShbT0hdKVtDSDJdbihbY0hdbjIpYyhjMjMpbltjSF1uYzNONFtDSDJdW0NIMl1PW0NIMl1bQ0BIXTRbQ0gyXVtDSF01W0NIMl1bQ0gyXVtDSDJdNQ==

> <s_epik_cmdline>
J2VwaWtfcHl0aG9uJywgJy1waCcsICc3LjAnLCAnLXRuJywgJzgnLCAnLW1hJywgJzIwMCcsICctbWV0YWxfYmluZGluZycsICctaW1hZScsICc8aW5maWxlLm1hZT4nLCAnLW9tYWUnLCAnPG91dGZpbGUubWFlPic=

> <r_lp_tautomer_probability>
1

> <r_epik_Ionization_Penalty>
4.98275e-05

> <r_epik_Ionization_Penalty_Charging>
0

> <r_epik_Ionization_Penalty_Neutral>
4.98275e-05

> <r_epik_State_Penalty>
-0

> <r_epik_Charging_Adjusted_Penalty>
0

> <i_epik_Tot_Q>
0

> <i_epik_Tot_abs_Q>
0

> <r_epik_Metal_State_Penalty>
-0

> <b_epik_Metal_Only>
0

> <s_lp_Force_Field>
OPLS_2005

> <r_lp_Energy>
52.7393

> <b_lp_Chiralities_Consistent>
1

> <s_lp_Variant>
AV-unprocessed.smi:170-2

> <Gold.Version>
5.8.1

> <Gold.Id.Protein>
6NUR|6NUR_protein|mol2

> <Gold.PLP.Fitness>
42.7775

> <Gold.PLP.PLP>
-40.7183

> <Gold.PLP.part.hbond>
-2.2231

> <Gold.PLP.part.metal>
0.0000

> <Gold.PLP.part.buried>
-6.6298

> <Gold.PLP.part.nonpolar>
-33.0009

> <Gold.PLP.part.repulsive>
0.0124

> <Gold.PLP.ligand.clash>
0.0000

> <Gold.PLP.ligand.torsion>
1.3580

> <Gold.PLP.Chemscore.Hbond>
1.4739

> <Gold.PLP.Chemscore.CHOScore>
0.0000

> <Gold.PLP.Chemscore.Metal>
0.0000

> <Gold.Chemscore.Hbonds>
donor molecule, donor type, donor heavy atom, donor atom, acceptor molecule, acceptor atom, score
      L1  H     1    29       P1  8028  1.00

> <Gold.PLP.Chemscore.Internal.Correction>
0.3535

> <Gold.Rescore>
     Score         DG    S(hbond)    S(metal)    S(lipo)     H(rot)  DE(clash)    DE(int)     intcor
     11.93     -15.28       0.95        0.00     113.83       2.61       0.29       3.06       ----

> <Gold.Chemscore.Fitness>
11.9334

> <Gold.Chemscore.DG>
-15.2804

> <Gold.Chemscore.ZeroCoef>
-5.4800

> <Gold.Chemscore.Hbond>
0.9505

> <Gold.Chemscore.Metal>
0.0000

> <Gold.Chemscore.Lipo>
113.8343

> <Gold.Chemscore.Internal_Hbond>
0.0000

> <Gold.Chemscore.DEClash>
0.2851

> <Gold.Chemscore.DEInternal>
3.0620

> <Gold.Chemscore.Rot>
2.6144

> <Gold.Chemscore.Internal.Correction>
   9.000000E+99

> <Gold.Chemscore.Hbonds>
donor molecule, donor type, donor heavy atom, donor atom, acceptor molecule, acceptor atom, score
      L1  H     1    29       P1  8028  1.00

> <Gold.Chemscore.Hbond.Weighted>
-3.1748

> <Gold.Chemscore.Metal.Weighted>
-0.0000

> <Gold.Chemscore.Lipo.Weighted>
-13.3186

> <Gold.Chemscore.Internal_Hbond.Weighted>
0.0000

> <Gold.Chemscore.DEClash.Weighted>
0.2851

> <Gold.Chemscore.DEInternal.Weighted>
3.0620

> <Gold.Chemscore.Rot.Weighted>
6.6929

> <Gold.Chemscore.Internal.Correction.Weighted>
   9.000000E+99

> <Gold.Protein.RotatedTorsions>
[ 6907 6896 6895 6894 ] final  168.55 input  -60.11 | X-H torsion
[ 7974 7965 7964 7962 ] final   32.26 input  175.53 | X-H torsion
[ 8008 7997 7996 7995 ] final   -4.27 input   59.86 | X-H torsion
[ 10167 10162 10161 10158 ] final  -51.92 input  -65.29 | X-H torsion
[ 10718 10713 10712 10709 ] final  -58.03 input   66.30 | X-H torsion
[ 10763 10752 10751 10750 ] final -108.34 input  -60.55 | X-H torsion
[ 11005 11000 10999 10996 ] final   44.78 input  -57.11 | X-H torsion

> <Gold.Protein.ActiveResidues>
 VAL166  LYS551  ARG553  GLY616  TRP617  ASP618  TYR619  PRO620  LYS621  CYS622 
 ASP623  PHE694  ASN695  SER759  ASP760  ASP761  ALA762  ILE779  LEU786  VAL792 
 PHE793  MET794  SER795  GLU796  ALA797  LYS798  CYS799  TRP800  GLU811  SER814 

> <Gold.Protein.RotatedAtoms>
  151.8458  133.3431  159.3657 H   0  0  0  0  0  0  0  0  0  0  0  0  # atno 6907 bound_to 6896
  150.7221  134.5347  159.5727 H   0  0  0  0  0  0  0  0  0  0  0  0  # atno 6908 bound_to 6896
  152.2830  134.7808  160.0444 H   0  0  0  0  0  0  0  0  0  0  0  0  # atno 6909 bound_to 6896
  146.1498  139.6550  142.9106 H   0  0  0  0  0  0  0  0  0  0  0  0  # atno 7974 bound_to 7965
  154.6161  140.2488  155.7607 H   0  0  0  0  0  0  0  0  0  0  0  0  # atno 8008 bound_to 7997
  156.2399  140.2936  156.0366 H   0  0  0  0  0  0  0  0  0  0  0  0  # atno 8009 bound_to 7997
  155.1973  140.0393  157.2901 H   0  0  0  0  0  0  0  0  0  0  0  0  # atno 8010 bound_to 7997
  140.6564  143.2602  151.4574 H   0  0  0  0  0  0  0  0  0  0  0  0  # atno 10167 bound_to 10162
  156.1165  130.4170  150.0522 H   0  0  0  0  0  0  0  0  0  0  0  0  # atno 10718 bound_to 10713
  154.8130  135.4641  154.0566 H   0  0  0  0  0  0  0  0  0  0  0  0  # atno 10763 bound_to 10752
  153.1982  135.6865  153.8272 H   0  0  0  0  0  0  0  0  0  0  0  0  # atno 10764 bound_to 10752
  153.7766  135.3262  155.3337 H   0  0  0  0  0  0  0  0  0  0  0  0  # atno 10765 bound_to 10752
  140.1520  134.4450  155.8375 H   0  0  0  0  0  0  0  0  0  0  0  0  # atno 11005 bound_to 11000
  145.4850  141.0438  143.2624 LP  0  0  0  0  0  0  0  0  0  0  0  0  # atno 17320 bound_to 7965
  144.7890  139.6367  143.7121 LP  0  0  0  0  0  0  0  0  0  0  0  0  # atno 17321 bound_to 7965
  139.5787  144.1759  152.1939 LP  0  0  0  0  0  0  0  0  0  0  0  0  # atno 17342 bound_to 10162
  140.1077  144.5484  150.6945 LP  0  0  0  0  0  0  0  0  0  0  0  0  # atno 17343 bound_to 10162
  156.8471  130.9446  151.3628 LP  0  0  0  0  0  0  0  0  0  0  0  0  # atno 17370 bound_to 10713
  157.6349  130.8758  149.9340 LP  0  0  0  0  0  0  0  0  0  0  0  0  # atno 17371 bound_to 10713
  141.2200  133.6876  156.7438 LP  0  0  0  0  0  0  0  0  0  0  0  0  # atno 17394 bound_to 11000
  140.2593  134.8479  157.3743 LP  0  0  0  0  0  0  0  0  0  0  0  0  # atno 17395 bound_to 11000

$$$$
