AV-unprocessed.smi:224|AV-procd|sdf|1720|dock2
  -GOLD-   2262020193D 1   1.00000     0.00000
 Structure written by MMmdl.
 56 59  0  0  0  0  0  0  0  0  2 V2000
  144.3248  132.3994  149.5807 C   0  0  0  0  0  0  0  0  0  0  0  0
  145.6274  132.7144  150.3275 C   0  0  1  0  0  0  0  0  0  0  0  0
  145.7236  134.1190  150.4542 O   0  0  0  0  0  0  0  0  0  0  0  0
  145.6529  132.0686  151.7276 C   0  0  0  0  0  0  0  0  0  0  0  0
  147.0294  131.9098  152.2666 N   0  3  2  0  0  0  0  0  0  0  0  0
  147.1150  131.0047  153.4446 C   0  0  0  0  0  0  0  0  0  0  0  0
  148.5805  130.7721  153.8543 C   0  0  0  0  0  0  0  0  0  0  0  0
  149.2830  132.0386  154.0508 N   0  0  0  0  0  0  0  0  0  0  0  0
  149.3247  132.5957  155.2913 C   0  0  0  0  0  0  0  0  0  0  0  0
  149.0093  131.8407  156.3776 N   0  0  0  0  0  0  0  0  0  0  0  0
  149.0223  132.3740  157.6023 C   0  0  0  0  0  0  0  0  0  0  0  0
  149.3230  133.6214  157.9641 N   0  0  0  0  0  0  0  0  0  0  0  0
  149.6609  134.3823  156.8844 C   0  0  0  0  0  0  0  0  0  0  0  0
  149.6848  133.9545  155.5261 C   0  0  0  0  0  0  0  0  0  0  0  0
  150.0819  135.0075  154.7097 N   0  0  0  0  0  0  0  0  0  0  0  0
  150.2685  136.0011  155.5348 C   0  0  0  0  0  0  0  0  0  0  0  0
  150.0504  135.7102  156.8621 N   0  0  0  0  0  0  0  0  0  0  0  0
  150.1884  136.6221  157.9872 C   0  0  0  0  0  0  0  0  0  0  0  0
  151.6056  137.2342  158.1313 C   0  0  2  0  0  0  0  0  0  0  0  0
  152.5313  136.2220  158.4778 O   0  0  0  0  0  0  0  0  0  0  0  0
  151.6488  138.3385  159.1749 C   0  0  0  0  0  0  0  0  0  0  0  0
  151.2104  139.5703  158.3855 C   0  0  0  0  0  0  0  0  0  0  0  0
  151.5821  139.3239  157.0323 O   0  0  0  0  0  0  0  0  0  0  0  0
  152.0924  138.0016  156.8953 C   0  0  0  0  0  0  0  0  0  0  0  0
  149.2100  132.9496  152.9096 C   0  0  0  0  0  0  0  0  0  0  0  0
  147.7512  133.2022  152.4670 C   0  0  2  0  0  0  0  0  0  0  0  0
  147.0141  134.1747  153.4134 C   0  0  0  0  0  0  0  0  0  0  0  0
  144.2074  131.3253  149.4344 H   0  0  0  0  0  0  0  0  0  0  0  0
  144.3125  132.8675  148.5956 H   0  0  0  0  0  0  0  0  0  0  0  0
  143.4530  132.7574  150.1298 H   0  0  0  0  0  0  0  0  0  0  0  0
  146.4611  132.3653  149.7195 H   0  0  0  0  0  0  0  0  0  0  0  0
  145.9456  134.4905  149.6147 H   0  0  0  0  0  0  0  0  0  0  0  0
  145.0615  132.6893  152.4030 H   0  0  0  0  0  0  0  0  0  0  0  0
  145.1646  131.0930  151.7040 H   0  0  0  0  0  0  0  0  0  0  0  0
  146.5489  131.4256  154.2759 H   0  0  0  0  0  0  0  0  0  0  0  0
  146.6590  130.0417  153.2196 H   0  0  0  0  0  0  0  0  0  0  0  0
  148.6402  130.1425  154.7430 H   0  0  0  0  0  0  0  0  0  0  0  0
  149.0953  130.2228  153.0652 H   0  0  0  0  0  0  0  0  0  0  0  0
  148.7531  131.7063  158.4074 H   0  0  0  0  0  0  0  0  0  0  0  0
  150.5817  136.9784  155.1966 H   0  0  0  0  0  0  0  0  0  0  0  0
  149.4433  137.4101  157.8724 H   0  0  0  0  0  0  0  0  0  0  0  0
  149.9194  136.0826  158.8964 H   0  0  0  0  0  0  0  0  0  0  0  0
  153.3966  136.5068  158.2267 H   0  0  0  0  0  0  0  0  0  0  0  0
  151.0224  138.1433  160.0461 H   0  0  0  0  0  0  0  0  0  0  0  0
  152.6706  138.4892  159.5281 H   0  0  0  0  0  0  0  0  0  0  0  0
  150.1279  139.6928  158.4321 H   0  0  0  0  0  0  0  0  0  0  0  0
  151.6687  140.4853  158.7614 H   0  0  0  0  0  0  0  0  0  0  0  0
  153.1812  138.0742  156.8975 H   0  0  0  0  0  0  0  0  0  0  0  0
  151.8031  137.5524  155.9462 H   0  0  0  0  0  0  0  0  0  0  0  0
  149.7038  133.9001  153.1035 H   0  0  0  0  0  0  0  0  0  0  0  0
  149.7618  132.4905  152.0887 H   0  0  0  0  0  0  0  0  0  0  0  0
  147.8023  133.6913  151.4933 H   0  0  0  0  0  0  0  0  0  0  0  0
  147.5881  135.0923  153.5456 H   0  0  0  0  0  0  0  0  0  0  0  0
  146.8533  133.7485  154.4028 H   0  0  0  0  0  0  0  0  0  0  0  0
  146.0405  134.4644  153.0183 H   0  0  0  0  0  0  0  0  0  0  0  0
  147.5468  131.4461  151.5337 H   0  0  0  0  0  0  0  0  0  0  0  0
  1  2  1  0  0  0  0
  1 28  1  0  0  0  0
  1 29  1  0  0  0  0
  1 30  1  0  0  0  0
  2  3  1  0  0  0  0
  2  4  1  0  0  0  0
  2 31  1  0  0  0  0
  3 32  1  0  0  0  0
  4  5  1  0  0  0  0
  4 33  1  0  0  0  0
  4 34  1  0  0  0  0
  5 26  1  0  0  0  0
  5  6  1  0  0  0  0
  5 56  1  0  0  0  0
  6  7  1  0  0  0  0
  6 35  1  0  0  0  0
  6 36  1  0  0  0  0
  7  8  1  0  0  0  0
  7 37  1  0  0  0  0
  7 38  1  0  0  0  0
  8  9  1  0  0  0  0
  8 25  1  0  0  0  0
  9 14  1  0  0  0  0
  9 10  2  0  0  0  0
 10 11  1  0  0  0  0
 11 12  2  0  0  0  0
 11 39  1  0  0  0  0
 12 13  1  0  0  0  0
 13 17  1  0  0  0  0
 13 14  2  0  0  0  0
 14 15  1  0  0  0  0
 15 16  2  0  0  0  0
 16 17  1  0  0  0  0
 16 40  1  0  0  0  0
 17 18  1  0  0  0  0
 18 19  1  0  0  0  0
 18 41  1  0  0  0  0
 18 42  1  0  0  0  0
 19 24  1  0  0  0  0
 19 20  1  0  0  0  0
 19 21  1  0  0  0  0
 20 43  1  0  0  0  0
 21 22  1  0  0  0  0
 21 44  1  0  0  0  0
 21 45  1  0  0  0  0
 22 23  1  0  0  0  0
 22 46  1  0  0  0  0
 22 47  1  0  0  0  0
 23 24  1  0  0  0  0
 24 48  1  0  0  0  0
 24 49  1  0  0  0  0
 25 26  1  0  0  0  0
 25 50  1  0  0  0  0
 25 51  1  0  0  0  0
 26 27  1  0  0  0  0
 26 52  1  0  0  0  0
 27 53  1  0  0  0  0
 27 54  1  0  0  0  0
 27 55  1  0  0  0  0
M  CHG  1   5   1
M  END
> <s_m_source_file>
AV-unprocessed.smi

> <i_m_source_file_index>
224

> <i_lp_mmshare_version>
43012

> <i_f3d_flags>
0

> <s_epik_input>
W0NIM11bQ0BIXShbT0hdKVtDSDJdTjFbQ0gyXVtDSDJdTihbQ0gyXVtDQEhdMVtDSDNdKWMobltjSF1uMiljKGMyMyluW2NIXW4zW0NIMl1bQ0BAXTQoW09IXSlbQ0gyXVtDSDJdT1tDSDJdNA==

> <s_epik_cmdline>
J2VwaWtfcHl0aG9uJywgJy1waCcsICc3LjAnLCAnLXRuJywgJzgnLCAnLW1hJywgJzIwMCcsICctbWV0YWxfYmluZGluZycsICctaW1hZScsICc8aW5maWxlLm1hZT4nLCAnLW9tYWUnLCAnPG91dGZpbGUubWFlPic=

> <r_lp_tautomer_probability>
1

> <r_epik_Ionization_Penalty>
0.00516958

> <r_epik_Ionization_Penalty_Charging>
0.00509693

> <r_epik_Ionization_Penalty_Neutral>
7.26542e-05

> <r_epik_State_Penalty>
-0

> <r_epik_Charging_Adjusted_Penalty>
0.00509693

> <i_epik_Tot_Q>
1

> <i_epik_Tot_abs_Q>
1

> <r_epik_Metal_State_Penalty>
-0

> <b_epik_Metal_Only>
0

> <s_lp_Force_Field>
OPLS_2005

> <r_lp_Energy>
52.1704

> <b_lp_Chiralities_Consistent>
1

> <s_lp_Variant>
AV-unprocessed.smi:224-14

> <Gold.Version>
5.8.1

> <Gold.Id.Protein>
6NUR|6NUR_protein|mol2

> <Gold.PLP.Fitness>
47.0177

> <Gold.PLP.PLP>
-36.9611

> <Gold.PLP.part.hbond>
-4.0000

> <Gold.PLP.part.metal>
0.0000

> <Gold.PLP.part.buried>
-6.4368

> <Gold.PLP.part.nonpolar>
-26.8847

> <Gold.PLP.part.repulsive>
0.1724

> <Gold.PLP.ligand.clash>
0.0000

> <Gold.PLP.ligand.torsion>
0.4414

> <Gold.PLP.Chemscore.Hbond>
3.5120

> <Gold.PLP.Chemscore.CHOScore>
0.0000

> <Gold.PLP.Chemscore.Metal>
0.0000

> <Gold.Chemscore.Hbonds>
donor molecule, donor type, donor heavy atom, donor atom, acceptor molecule, acceptor atom, score
      L1  H     3    32       P1  7921  1.00
      L1  H     5    56       P1 10747  1.00
      P1  H  6896  6908       L1    12  1.00
      P1  H  6896  6909       L1    20  0.46

> <Gold.PLP.Chemscore.Internal.Correction>
0.4034

> <Gold.Rescore>
     Score         DG    S(hbond)    S(metal)    S(lipo)     H(rot)  DE(clash)    DE(int)     intcor
     13.60     -16.50       2.81        0.00      80.03       3.02       0.41       2.49       ----

> <Gold.Chemscore.Fitness>
13.6016

> <Gold.Chemscore.DG>
-16.5048

> <Gold.Chemscore.ZeroCoef>
-5.4800

> <Gold.Chemscore.Hbond>
2.8144

> <Gold.Chemscore.Metal>
0.0000

> <Gold.Chemscore.Lipo>
80.0318

> <Gold.Chemscore.Internal_Hbond>
0.0000

> <Gold.Chemscore.DEClash>
0.4121

> <Gold.Chemscore.DEInternal>
2.4910

> <Gold.Chemscore.Rot>
3.0231

> <Gold.Chemscore.Internal.Correction>
   9.000000E+99

> <Gold.Chemscore.Hbonds>
donor molecule, donor type, donor heavy atom, donor atom, acceptor molecule, acceptor atom, score
      L1  H     3    32       P1  7921  0.53
      L1  H     5    56       P1 10747  0.97
      P1  H  6896  6908       L1    12  0.53
      P1  H  6896  6909       L1    20  0.28

> <Gold.Chemscore.Hbond.Weighted>
-9.4001

> <Gold.Chemscore.Metal.Weighted>
-0.0000

> <Gold.Chemscore.Lipo.Weighted>
-9.3637

> <Gold.Chemscore.Internal_Hbond.Weighted>
0.0000

> <Gold.Chemscore.DEClash.Weighted>
0.4121

> <Gold.Chemscore.DEInternal.Weighted>
2.4910

> <Gold.Chemscore.Rot.Weighted>
7.7391

> <Gold.Chemscore.Internal.Correction.Weighted>
   9.000000E+99

> <Gold.Protein.RotatedTorsions>
[ 6907 6896 6895 6894 ] final  128.82 input  -60.11 | X-H torsion
[ 7974 7965 7964 7962 ] final -175.06 input  175.53 | X-H torsion
[ 8008 7997 7996 7995 ] final  -80.73 input   59.86 | X-H torsion
[ 10167 10162 10161 10158 ] final   92.42 input  -65.29 | X-H torsion
[ 10718 10713 10712 10709 ] final -108.53 input   66.30 | X-H torsion
[ 10763 10752 10751 10750 ] final -129.94 input  -60.55 | X-H torsion
[ 11005 11000 10999 10996 ] final  -87.21 input  -57.11 | X-H torsion

> <Gold.Protein.ActiveResidues>
 VAL166  LYS551  ARG553  GLY616  TRP617  ASP618  TYR619  PRO620  LYS621  CYS622 
 ASP623  PHE694  ASN695  SER759  ASP760  ASP761  ALA762  ILE779  LEU786  VAL792 
 PHE793  MET794  SER795  GLU796  ALA797  LYS798  CYS799  TRP800  GLU811  SER814 

> <Gold.Protein.RotatedAtoms>
  152.3683  133.6386  159.6067 H   0  0  0  0  0  0  0  0  0  0  0  0  # atno 6907 bound_to 6896
  150.7650  133.9311  159.3436 H   0  0  0  0  0  0  0  0  0  0  0  0  # atno 6908 bound_to 6896
  151.7138  135.0908  160.0323 H   0  0  0  0  0  0  0  0  0  0  0  0  # atno 6909 bound_to 6896
  144.7129  140.1378  143.6394 H   0  0  0  0  0  0  0  0  0  0  0  0  # atno 7974 bound_to 7965
  154.5913  140.0658  156.9242 H   0  0  0  0  0  0  0  0  0  0  0  0  # atno 8008 bound_to 7997
  155.2291  140.3336  155.4287 H   0  0  0  0  0  0  0  0  0  0  0  0  # atno 8009 bound_to 7997
  156.2257  140.1818  156.7352 H   0  0  0  0  0  0  0  0  0  0  0  0  # atno 8010 bound_to 7997
  139.8279  144.6701  150.9436 H   0  0  0  0  0  0  0  0  0  0  0  0  # atno 10167 bound_to 10162
  156.0490  130.5717  150.7973 H   0  0  0  0  0  0  0  0  0  0  0  0  # atno 10718 bound_to 10713
  154.8756  135.3879  154.4002 H   0  0  0  0  0  0  0  0  0  0  0  0  # atno 10763 bound_to 10752
  153.4728  135.7030  153.5989 H   0  0  0  0  0  0  0  0  0  0  0  0  # atno 10764 bound_to 10752
  153.4438  135.3850  155.2212 H   0  0  0  0  0  0  0  0  0  0  0  0  # atno 10765 bound_to 10752
  141.1620  133.7498  156.9274 H   0  0  0  0  0  0  0  0  0  0  0  0  # atno 11005 bound_to 11000
  145.9229  139.2557  143.1371 LP  0  0  0  0  0  0  0  0  0  0  0  0  # atno 17320 bound_to 7965
  145.9602  140.8841  143.0214 LP  0  0  0  0  0  0  0  0  0  0  0  0  # atno 17321 bound_to 7965
  140.7809  143.4029  151.1119 LP  0  0  0  0  0  0  0  0  0  0  0  0  # atno 17342 bound_to 10162
  139.7685  143.8530  152.3115 LP  0  0  0  0  0  0  0  0  0  0  0  0  # atno 17343 bound_to 10162
  157.5396  131.0940  150.9845 LP  0  0  0  0  0  0  0  0  0  0  0  0  # atno 17370 bound_to 10713
  157.0131  130.5644  149.5323 LP  0  0  0  0  0  0  0  0  0  0  0  0  # atno 17371 bound_to 10713
  140.1410  134.9294  157.2466 LP  0  0  0  0  0  0  0  0  0  0  0  0  # atno 17394 bound_to 11000
  140.2837  134.3320  155.7335 LP  0  0  0  0  0  0  0  0  0  0  0  0  # atno 17395 bound_to 11000

$$$$
