AV-unprocessed.smi:2568|AV-procd|sdf|10091|dock7
  -GOLD-   2272014113D 1   1.00000     0.00000
 Structure written by MMmdl.
 24 25  0  0  0  0  0  0  0  0  1 V2000
  153.0439  142.1796  160.8962 C   0  0  0  0  0  0  0  0  0  0  0  0
  152.8092  141.4499  159.6172 C   0  0  0  0  0  0  0  0  0  0  0  0
  153.3296  140.2444  159.3822 N   0  0  0  0  0  0  0  0  0  0  0  0
  152.9482  139.8243  158.1574 N   0  0  0  0  0  0  0  0  0  0  0  0
  152.2171  140.8515  157.7250 C   0  0  0  0  0  0  0  0  0  0  0  0
  151.5422  140.8037  156.3889 C   0  0  1  0  0  0  0  0  0  0  0  0
  151.7776  139.4620  155.6674 C   0  0  0  0  0  0  0  0  0  0  0  0
  151.0216  139.4199  154.4162 N   0  0  0  0  0  0  0  0  0  0  0  0
  149.6015  139.6801  154.6482 C   0  0  0  0  0  0  0  0  0  0  0  0
  149.4158  141.0108  155.4001 C   0  0  0  0  0  0  0  0  0  0  0  0
  150.1461  140.9766  156.6214 O   0  0  0  0  0  0  0  0  0  0  0  0
  152.0769  141.8940  158.6020 N   0  0  0  0  0  0  0  0  0  0  0  0
  153.9136  139.6957  159.9970 H   0  0  0  0  0  0  0  0  0  0  0  0
  152.5928  143.1717  160.8578 H   0  0  0  0  0  0  0  0  0  0  0  0
  154.1138  142.2904  161.0741 H   0  0  0  0  0  0  0  0  0  0  0  0
  152.6039  141.6285  161.7275 H   0  0  0  0  0  0  0  0  0  0  0  0
  151.9126  141.6308  155.7793 H   0  0  0  0  0  0  0  0  0  0  0  0
  152.8403  139.3232  155.4673 H   0  0  0  0  0  0  0  0  0  0  0  0
  151.4692  138.6381  156.3123 H   0  0  0  0  0  0  0  0  0  0  0  0
  151.1341  138.5098  153.9812 H   0  0  0  0  0  0  0  0  0  0  0  0
  149.0664  139.7079  153.6989 H   0  0  0  0  0  0  0  0  0  0  0  0
  149.1655  138.8672  155.2303 H   0  0  0  0  0  0  0  0  0  0  0  0
  149.7419  141.8543  154.7893 H   0  0  0  0  0  0  0  0  0  0  0  0
  148.3611  141.1698  155.6252 H   0  0  0  0  0  0  0  0  0  0  0  0
  1 14  1  0  0  0  0
  1 15  1  0  0  0  0
  1 16  1  0  0  0  0
  1  2  1  0  0  0  0
  2 12  2  0  0  0  0
  2  3  1  0  0  0  0
  3  4  1  0  0  0  0
  3 13  1  0  0  0  0
  4  5  2  0  0  0  0
  5 12  1  0  0  0  0
  5  6  1  0  0  0  0
  6 11  1  0  0  0  0
  6  7  1  0  0  0  0
  6 17  1  0  0  0  0
  7  8  1  0  0  0  0
  7 18  1  0  0  0  0
  7 19  1  0  0  0  0
  8  9  1  0  0  0  0
  8 20  1  0  0  0  0
  9 10  1  0  0  0  0
  9 21  1  0  0  0  0
  9 22  1  0  0  0  0
 10 11  1  0  0  0  0
 10 23  1  0  0  0  0
 10 24  1  0  0  0  0
M  END
> <s_m_source_file>
AV-unprocessed.smi

> <i_m_source_file_index>
2568

> <i_lp_mmshare_version>
43012

> <i_f3d_flags>
0

> <s_epik_input>
W0NIM11jMW5bbkhdYyhuMSlbQ0BASF0yW0NIMl1bTkhdW0NIMl1bQ0gyXU8y

> <s_epik_cmdline>
J2VwaWtfcHl0aG9uJywgJy1waCcsICc3LjAnLCAnLXRuJywgJzgnLCAnLW1hJywgJzIwMCcsICctbWV0YWxfYmluZGluZycsICctaW1hZScsICc8aW5maWxlLm1hZT4nLCAnLW9tYWUnLCAnPG91dGZpbGUubWFlPic=

> <r_epik_Ionization_Penalty>
1.10101

> <r_epik_Ionization_Penalty_Charging>
0

> <r_epik_Ionization_Penalty_Neutral>
1.10101

> <r_epik_State_Penalty>
1.26524

> <r_epik_Charging_Adjusted_Penalty>
1.26524

> <i_epik_Tot_Q>
0

> <i_epik_Tot_abs_Q>
0

> <r_epik_Metal_State_Penalty>
1.56429

> <b_epik_Metal_Only>
0

> <s_lp_Force_Field>
OPLS_2005

> <r_lp_Energy>
12.1745

> <b_lp_Chiralities_Consistent>
1

> <s_lp_Variant>
AV-unprocessed.smi:2568-4

> <Gold.Version>
5.8.1

> <Gold.Id.Protein>
6NUR|6NUR_protein|mol2

> <Gold.PLP.Fitness>
27.3063

> <Gold.PLP.PLP>
-21.3493

> <Gold.PLP.part.hbond>
-2.0000

> <Gold.PLP.part.metal>
0.0000

> <Gold.PLP.part.buried>
-3.6852

> <Gold.PLP.part.nonpolar>
-15.4802

> <Gold.PLP.part.repulsive>
0.1390

> <Gold.PLP.ligand.clash>
0.0000

> <Gold.PLP.ligand.torsion>
0.0278

> <Gold.PLP.Chemscore.Hbond>
2.0000

> <Gold.PLP.Chemscore.CHOScore>
0.0000

> <Gold.PLP.Chemscore.Metal>
0.0000

> <Gold.Chemscore.Hbonds>
donor molecule, donor type, donor heavy atom, donor atom, acceptor molecule, acceptor atom, score
      P1  H  7989  7998       L1     8  1.00
      P1  H  7997  8010       L1     4  1.00

> <Gold.PLP.Chemscore.Internal.Correction>
0.0126

> <Gold.Rescore>
     Score         DG    S(hbond)    S(metal)    S(lipo)     H(rot)  DE(clash)    DE(int)     intcor
     10.97     -11.08       1.14        0.00      37.26       1.00       0.06       0.05       ----

> <Gold.Chemscore.Fitness>
10.9660

> <Gold.Chemscore.DG>
-11.0814

> <Gold.Chemscore.ZeroCoef>
-5.4800

> <Gold.Chemscore.Hbond>
1.1385

> <Gold.Chemscore.Metal>
0.0000

> <Gold.Chemscore.Lipo>
37.2556

> <Gold.Chemscore.Internal_Hbond>
0.0000

> <Gold.Chemscore.DEClash>
0.0640

> <Gold.Chemscore.DEInternal>
0.0515

> <Gold.Chemscore.Rot>
1.0000

> <Gold.Chemscore.Internal.Correction>
   9.000000E+99

> <Gold.Chemscore.Hbonds>
donor molecule, donor type, donor heavy atom, donor atom, acceptor molecule, acceptor atom, score
      P1  H  7989  7998       L1     8  0.23
      P1  H  7997  8010       L1     4  0.11

> <Gold.Chemscore.Hbond.Weighted>
-3.8025

> <Gold.Chemscore.Metal.Weighted>
-0.0000

> <Gold.Chemscore.Lipo.Weighted>
-4.3589

> <Gold.Chemscore.Internal_Hbond.Weighted>
0.0000

> <Gold.Chemscore.DEClash.Weighted>
0.0640

> <Gold.Chemscore.DEInternal.Weighted>
0.0515

> <Gold.Chemscore.Rot.Weighted>
2.5600

> <Gold.Chemscore.Internal.Correction.Weighted>
   9.000000E+99

> <Gold.Protein.RotatedTorsions>
[ 6907 6896 6895 6894 ] final   85.15 input  -60.11 | X-H torsion
[ 7974 7965 7964 7962 ] final  134.32 input  175.53 | X-H torsion
[ 8008 7997 7996 7995 ] final   35.03 input   59.86 | X-H torsion
[ 10167 10162 10161 10158 ] final -110.37 input  -65.29 | X-H torsion
[ 10718 10713 10712 10709 ] final  -60.15 input   66.30 | X-H torsion
[ 10763 10752 10751 10750 ] final   56.76 input  -60.55 | X-H torsion
[ 11005 11000 10999 10996 ] final  158.18 input  -57.11 | X-H torsion

> <Gold.Protein.ActiveResidues>
 VAL166  LYS551  ARG553  GLY616  TRP617  ASP618  TYR619  PRO620  LYS621  CYS622 
 ASP623  PHE694  ASN695  SER759  ASP760  ASP761  ALA762  ILE779  LEU786  VAL792 
 PHE793  MET794  SER795  GLU796  ALA797  LYS798  CYS799  TRP800  GLU811  SER814 

> <Gold.Protein.RotatedAtoms>
  152.5368  134.2631  159.8942 H   0  0  0  0  0  0  0  0  0  0  0  0  # atno 6907 bound_to 6896
  151.2590  133.4305  159.2623 H   0  0  0  0  0  0  0  0  0  0  0  0  # atno 6908 bound_to 6896
  151.0470  134.9661  159.8248 H   0  0  0  0  0  0  0  0  0  0  0  0  # atno 6909 bound_to 6896
  144.9776  139.4539  143.5402 H   0  0  0  0  0  0  0  0  0  0  0  0  # atno 7974 bound_to 7965
  155.1644  140.3286  155.4405 H   0  0  0  0  0  0  0  0  0  0  0  0  # atno 8008 bound_to 7997
  156.2531  140.1954  156.6701 H   0  0  0  0  0  0  0  0  0  0  0  0  # atno 8009 bound_to 7997
  154.6382  140.0573  156.9800 H   0  0  0  0  0  0  0  0  0  0  0  0  # atno 8010 bound_to 7997
  140.1452  143.4245  152.1534 H   0  0  0  0  0  0  0  0  0  0  0  0  # atno 10167 bound_to 10162
  156.1011  130.4186  150.0814 H   0  0  0  0  0  0  0  0  0  0  0  0  # atno 10718 bound_to 10713
  152.9837  135.5665  154.5282 H   0  0  0  0  0  0  0  0  0  0  0  0  # atno 10763 bound_to 10752
  154.4758  135.2786  155.1610 H   0  0  0  0  0  0  0  0  0  0  0  0  # atno 10764 bound_to 10752
  154.3139  135.6282  153.5531 H   0  0  0  0  0  0  0  0  0  0  0  0  # atno 10765 bound_to 10752
  140.1840  134.8455  157.2836 H   0  0  0  0  0  0  0  0  0  0  0  0  # atno 11005 bound_to 11000
  146.3399  139.9028  142.8792 LP  0  0  0  0  0  0  0  0  0  0  0  0  # atno 17320 bound_to 7965
  145.2468  141.0029  143.3904 LP  0  0  0  0  0  0  0  0  0  0  0  0  # atno 17321 bound_to 7965
  139.5452  144.7292  151.4605 LP  0  0  0  0  0  0  0  0  0  0  0  0  # atno 17342 bound_to 10162
  140.6736  143.8239  150.7030 LP  0  0  0  0  0  0  0  0  0  0  0  0  # atno 17343 bound_to 10162
  156.8801  130.9553  151.3600 LP  0  0  0  0  0  0  0  0  0  0  0  0  # atno 17370 bound_to 10713
  157.6181  130.8634  149.9062 LP  0  0  0  0  0  0  0  0  0  0  0  0  # atno 17371 bound_to 10713
  140.2235  134.3995  155.7555 LP  0  0  0  0  0  0  0  0  0  0  0  0  # atno 17394 bound_to 11000
  141.2224  133.7178  156.8527 LP  0  0  0  0  0  0  0  0  0  0  0  0  # atno 17395 bound_to 11000

$$$$
