AV-unprocessed.smi:283|AV-procd|sdf|2153|dock5
  -GOLD-   2262021493D 1   1.00000     0.00000
 Structure written by MMmdl.
 48 51  0  0  0  0  0  0  0  0  1 V2000
  151.2481  140.5297  155.9989 C   0  0  0  0  0  0  0  0  0  0  0  0
  150.3158  141.2345  156.9932 C   0  0  2  0  0  0  0  0  0  0  0  0
  149.3783  142.0943  156.2720 N   0  0  0  0  0  0  0  0  0  0  0  0
  148.1897  141.6222  155.8329 C   0  0  0  0  0  0  0  0  0  0  0  0
  147.0501  142.3503  155.9644 N   0  0  0  0  0  0  0  0  0  0  0  0
  145.8895  141.8611  155.5199 C   0  0  0  0  0  0  0  0  0  0  0  0
  145.6507  140.6873  154.9318 N   0  0  0  0  0  0  0  0  0  0  0  0
  146.7895  139.9466  154.8033 C   0  0  0  0  0  0  0  0  0  0  0  0
  148.0889  140.3429  155.2275 C   0  0  0  0  0  0  0  0  0  0  0  0
  149.0049  139.3399  154.9396 N   0  0  0  0  0  0  0  0  0  0  0  0
  148.2840  138.4053  154.3810 C   0  0  0  0  0  0  0  0  0  0  0  0
  146.9403  138.6841  154.2615 N   0  0  0  0  0  0  0  0  0  0  0  0
  145.8828  137.8016  153.6680 C   0  0  2  0  0  0  0  0  0  0  0  0
  146.0160  136.5082  154.1810 O   0  0  0  0  0  0  0  0  0  0  0  0
  146.2193  135.5693  153.1262 C   0  0  1  0  0  0  0  0  0  0  0  0
  145.5930  134.2239  153.5251 C   0  0  0  0  0  0  0  0  0  0  0  0
  144.2026  134.3603  153.7277 O   0  0  0  0  0  0  0  0  0  0  0  0
  145.5802  136.2499  151.9127 C   0  0  2  0  0  0  0  0  0  0  0  0
  146.0386  135.7495  150.6711 O   0  0  0  0  0  0  0  0  0  0  0  0
  145.9521  137.7101  152.1310 C   0  0  2  0  0  0  0  0  0  0  0  0
  147.2271  138.0359  151.5976 O   0  0  0  0  0  0  0  0  0  0  0  0
  151.1282  141.9494  158.0758 C   0  0  0  0  0  0  0  0  0  0  0  0
  151.0314  143.3536  158.2140 C   0  0  0  0  0  0  0  0  0  0  0  0
  151.7667  144.0300  159.2055 C   0  0  0  0  0  0  0  0  0  0  0  0
  152.6141  143.3093  160.0662 C   0  0  0  0  0  0  0  0  0  0  0  0
  152.7272  141.9134  159.9304 C   0  0  0  0  0  0  0  0  0  0  0  0
  151.9926  141.2308  158.9400 C   0  0  0  0  0  0  0  0  0  0  0  0
  152.1797  139.5165  158.8129 Cl  0  0  0  0  0  0  0  0  0  0  0  0
  144.9409  138.2227  154.0220 H   0  0  0  0  0  0  0  0  0  0  0  0
  147.2940  135.4587  152.9747 H   0  0  0  0  0  0  0  0  0  0  0  0
  144.4955  136.1434  151.9604 H   0  0  0  0  0  0  0  0  0  0  0  0
  145.2164  138.3846  151.6917 H   0  0  0  0  0  0  0  0  0  0  0  0
  151.8983  139.8179  156.5088 H   0  0  0  0  0  0  0  0  0  0  0  0
  151.8833  141.2442  155.4741 H   0  0  0  0  0  0  0  0  0  0  0  0
  150.6793  139.9764  155.2511 H   0  0  0  0  0  0  0  0  0  0  0  0
  149.7071  140.4628  157.4633 H   0  0  0  0  0  0  0  0  0  0  0  0
  149.6351  143.0690  156.2116 H   0  0  0  0  0  0  0  0  0  0  0  0
  145.0299  142.5008  155.6548 H   0  0  0  0  0  0  0  0  0  0  0  0
  148.7169  137.4763  154.0397 H   0  0  0  0  0  0  0  0  0  0  0  0
  145.7471  133.4929  152.7311 H   0  0  0  0  0  0  0  0  0  0  0  0
  146.0599  133.8240  154.4256 H   0  0  0  0  0  0  0  0  0  0  0  0
  143.7573  133.7166  153.1978 H   0  0  0  0  0  0  0  0  0  0  0  0
  146.9830  135.7159  150.6972 H   0  0  0  0  0  0  0  0  0  0  0  0
  147.7156  137.2356  151.4796 H   0  0  0  0  0  0  0  0  0  0  0  0
  150.3880  143.9223  157.5589 H   0  0  0  0  0  0  0  0  0  0  0  0
  151.6800  145.1018  159.3051 H   0  0  0  0  0  0  0  0  0  0  0  0
  153.1788  143.8265  160.8278 H   0  0  0  0  0  0  0  0  0  0  0  0
  153.3826  141.3637  160.5899 H   0  0  0  0  0  0  0  0  0  0  0  0
  1  2  1  0  0  0  0
  1 33  1  0  0  0  0
  1 34  1  0  0  0  0
  1 35  1  0  0  0  0
  2  3  1  0  0  0  0
  2 22  1  0  0  0  0
  2 36  1  0  0  0  0
  3  4  1  0  0  0  0
  3 37  1  0  0  0  0
  4  9  1  0  0  0  0
  4  5  2  0  0  0  0
  5  6  1  0  0  0  0
  6  7  2  0  0  0  0
  6 38  1  0  0  0  0
  7  8  1  0  0  0  0
  8 12  1  0  0  0  0
  8  9  2  0  0  0  0
  9 10  1  0  0  0  0
 10 11  2  0  0  0  0
 11 12  1  0  0  0  0
 11 39  1  0  0  0  0
 12 13  1  0  0  0  0
 13 29  1  0  0  0  0
 13 20  1  0  0  0  0
 13 14  1  0  0  0  0
 14 15  1  0  0  0  0
 15 30  1  0  0  0  0
 15 16  1  0  0  0  0
 15 18  1  0  0  0  0
 16 17  1  0  0  0  0
 16 40  1  0  0  0  0
 16 41  1  0  0  0  0
 17 42  1  0  0  0  0
 18 31  1  0  0  0  0
 18 19  1  0  0  0  0
 18 20  1  0  0  0  0
 19 43  1  0  0  0  0
 20 32  1  0  0  0  0
 20 21  1  0  0  0  0
 21 44  1  0  0  0  0
 22 27  1  0  0  0  0
 22 23  2  0  0  0  0
 23 24  1  0  0  0  0
 23 45  1  0  0  0  0
 24 25  2  0  0  0  0
 24 46  1  0  0  0  0
 25 26  1  0  0  0  0
 25 47  1  0  0  0  0
 26 27  2  0  0  0  0
 26 48  1  0  0  0  0
 27 28  1  0  0  0  0
M  END
> <s_m_source_file>
AV-unprocessed.smi

> <i_m_source_file_index>
283

> <i_lp_mmshare_version>
43012

> <i_f3d_flags>
0

> <s_epik_input>
Q2xjMVtjSF1bY0hdW2NIXVtjSF1jMVtDQEhdKFtDSDNdKVtOSF1jKG5bY0hdbjIpYyhjMjMpbltjSF1uM1tDQEBIXTRPW0NASF0oW0NIMl1bT0hdKVtDQEBIXShbT0hdKVtDQEhdNFtPSF0=

> <s_epik_cmdline>
J2VwaWtfcHl0aG9uJywgJy1waCcsICc3LjAnLCAnLXRuJywgJzgnLCAnLW1hJywgJzIwMCcsICctbWV0YWxfYmluZGluZycsICctaW1hZScsICc8aW5maWxlLm1hZT4nLCAnLW9tYWUnLCAnPG91dGZpbGUubWFlPic=

> <r_lp_tautomer_probability>
1

> <r_epik_Ionization_Penalty>
0.000266407

> <r_epik_Ionization_Penalty_Charging>
0

> <r_epik_Ionization_Penalty_Neutral>
0.000266407

> <r_epik_State_Penalty>
-0

> <r_epik_Charging_Adjusted_Penalty>
0

> <i_epik_Tot_Q>
0

> <i_epik_Tot_abs_Q>
0

> <r_epik_Metal_State_Penalty>
-0

> <b_epik_Metal_Only>
0

> <s_epik_Chemistry_Notes>
This compound contains an acetal/aminal-like group ( X-CH(R)-Y where X, Y are N, S, or O) that may be acid/base labile, releasing an aldehyde.

> <s_lp_Force_Field>
OPLS_2005

> <r_lp_Energy>
51.2739

> <b_lp_Chiralities_Consistent>
1

> <s_lp_Variant>
AV-unprocessed.smi:283-29

> <Gold.Version>
5.8.1

> <Gold.Id.Protein>
6NUR|6NUR_protein|mol2

> <Gold.PLP.Fitness>
47.1717

> <Gold.PLP.PLP>
-39.6456

> <Gold.PLP.part.hbond>
-5.1909

> <Gold.PLP.part.metal>
0.0000

> <Gold.PLP.part.buried>
-3.3185

> <Gold.PLP.part.nonpolar>
-34.0737

> <Gold.PLP.part.repulsive>
2.0606

> <Gold.PLP.ligand.clash>
0.0000

> <Gold.PLP.ligand.torsion>
1.0595

> <Gold.PLP.Chemscore.Hbond>
2.1871

> <Gold.PLP.Chemscore.CHOScore>
1.0000

> <Gold.PLP.Chemscore.Metal>
0.0000

> <Gold.Chemscore.Hbonds>
donor molecule, donor type, donor heavy atom, donor atom, acceptor molecule, acceptor atom, score
      L1  H     3    37       P1  8028  0.78
      L1  H    19    43       P1  7948  0.37
      L1  H    21    44       P1  7948  1.00
      L1  C    11    39       P1  7948  1.00

> <Gold.PLP.Chemscore.Internal.Correction>
0.0836

> <Gold.Rescore>
     Score         DG    S(hbond)    S(metal)    S(lipo)     H(rot)  DE(clash)    DE(int)     intcor
     13.31     -16.91       3.47        0.00      88.34       4.10       0.01       3.59       ----

> <Gold.Chemscore.Fitness>
13.3131

> <Gold.Chemscore.DG>
-16.9142

> <Gold.Chemscore.ZeroCoef>
-5.4800

> <Gold.Chemscore.Hbond>
3.4689

> <Gold.Chemscore.Metal>
0.0000

> <Gold.Chemscore.Lipo>
88.3420

> <Gold.Chemscore.Internal_Hbond>
0.0000

> <Gold.Chemscore.DEClash>
0.0106

> <Gold.Chemscore.DEInternal>
3.5904

> <Gold.Chemscore.Rot>
4.0968

> <Gold.Chemscore.Internal.Correction>
   9.000000E+99

> <Gold.Chemscore.Hbonds>
donor molecule, donor type, donor heavy atom, donor atom, acceptor molecule, acceptor atom, score
      L1  H     3    37       P1  8028  0.78
      L1  H    19    43       P1  7948  0.26
      L1  H    21    44       P1  7948  0.96

> <Gold.Chemscore.Hbond.Weighted>
-11.5861

> <Gold.Chemscore.Metal.Weighted>
-0.0000

> <Gold.Chemscore.Lipo.Weighted>
-10.3360

> <Gold.Chemscore.Internal_Hbond.Weighted>
0.0000

> <Gold.Chemscore.DEClash.Weighted>
0.0106

> <Gold.Chemscore.DEInternal.Weighted>
3.5904

> <Gold.Chemscore.Rot.Weighted>
10.4879

> <Gold.Chemscore.Internal.Correction.Weighted>
   9.000000E+99

> <Gold.Protein.RotatedTorsions>
[ 6907 6896 6895 6894 ] final   49.37 input  -60.11 | X-H torsion
[ 7974 7965 7964 7962 ] final -153.20 input  175.53 | X-H torsion
[ 8008 7997 7996 7995 ] final   21.60 input   59.86 | X-H torsion
[ 10167 10162 10161 10158 ] final   36.65 input  -65.29 | X-H torsion
[ 10718 10713 10712 10709 ] final -163.16 input   66.30 | X-H torsion
[ 10763 10752 10751 10750 ] final   29.78 input  -60.55 | X-H torsion
[ 11005 11000 10999 10996 ] final -122.20 input  -57.11 | X-H torsion

> <Gold.Protein.ActiveResidues>
 VAL166  LYS551  ARG553  GLY616  TRP617  ASP618  TYR619  PRO620  LYS621  CYS622 
 ASP623  PHE694  ASN695  SER759  ASP760  ASP761  ALA762  ILE779  LEU786  VAL792 
 PHE793  MET794  SER795  GLU796  ALA797  LYS798  CYS799  TRP800  GLU811  SER814 

> <Gold.Protein.RotatedAtoms>
  152.2900  134.7732  160.0379 H   0  0  0  0  0  0  0  0  0  0  0  0  # atno 6907 bound_to 6896
  151.8282  133.3399  159.3613 H   0  0  0  0  0  0  0  0  0  0  0  0  # atno 6908 bound_to 6896
  150.7226  134.5437  159.5804 H   0  0  0  0  0  0  0  0  0  0  0  0  # atno 6909 bound_to 6896
  144.7753  140.4558  143.5878 H   0  0  0  0  0  0  0  0  0  0  0  0  # atno 7974 bound_to 7965
  154.9531  140.3068  155.5066 H   0  0  0  0  0  0  0  0  0  0  0  0  # atno 8008 bound_to 7997
  156.2985  140.2315  156.4548 H   0  0  0  0  0  0  0  0  0  0  0  0  # atno 8009 bound_to 7997
  154.8036  140.0432  157.1279 H   0  0  0  0  0  0  0  0  0  0  0  0  # atno 8010 bound_to 7997
  140.4108  144.1595  150.6139 H   0  0  0  0  0  0  0  0  0  0  0  0  # atno 10167 bound_to 10162
  156.6207  130.8889  151.2957 H   0  0  0  0  0  0  0  0  0  0  0  0  # atno 10718 bound_to 10713
  153.0410  135.6480  154.0943 H   0  0  0  0  0  0  0  0  0  0  0  0  # atno 10763 bound_to 10752
  154.0649  135.2885  155.3320 H   0  0  0  0  0  0  0  0  0  0  0  0  # atno 10764 bound_to 10752
  154.6633  135.5383  153.8110 H   0  0  0  0  0  0  0  0  0  0  0  0  # atno 10765 bound_to 10752
  141.0013  134.0398  157.3533 H   0  0  0  0  0  0  0  0  0  0  0  0  # atno 11005 bound_to 11000
  145.6204  139.1523  143.3026 LP  0  0  0  0  0  0  0  0  0  0  0  0  # atno 17320 bound_to 7965
  146.1928  140.6314  142.9137 LP  0  0  0  0  0  0  0  0  0  0  0  0  # atno 17321 bound_to 7965
  140.4640  143.2438  151.9181 LP  0  0  0  0  0  0  0  0  0  0  0  0  # atno 17342 bound_to 10162
  139.4782  144.5438  151.8488 LP  0  0  0  0  0  0  0  0  0  0  0  0  # atno 17343 bound_to 10162
  157.7228  130.9582  150.1510 LP  0  0  0  0  0  0  0  0  0  0  0  0  # atno 17370 bound_to 10713
  156.2314  130.3682  149.8440 LP  0  0  0  0  0  0  0  0  0  0  0  0  # atno 17371 bound_to 10713
  139.9040  135.0174  156.7402 LP  0  0  0  0  0  0  0  0  0  0  0  0  # atno 17394 bound_to 11000
  140.6884  133.9412  155.7951 LP  0  0  0  0  0  0  0  0  0  0  0  0  # atno 17395 bound_to 11000

$$$$
