AV-unprocessed.smi:850|AV-procd|sdf|3947|dock5
  -GOLD-   22720 1413D 1   1.00000     0.00000
 Structure written by MMmdl.
 40 42  0  0  0  0  0  0  0  0  1 V2000
  150.7927  140.5990  157.1112 C   0  0  0  0  0  0  0  0  0  0  0  0
  151.6837  141.2269  158.0794 N   0  0  0  0  0  0  0  0  0  0  0  0
  152.7893  140.6860  158.6425 C   0  0  0  0  0  0  0  0  0  0  0  0
  153.2340  139.5581  158.4299 O   0  0  0  0  0  0  0  0  0  0  0  0
  153.3206  141.6021  159.4869 N   0  0  0  0  0  0  0  0  0  0  0  0
  154.5233  141.4385  160.3015 C   0  0  0  0  0  0  0  0  0  0  0  0
  154.2444  140.6152  161.5752 C   0  0  2  0  0  0  0  0  0  0  0  0
  155.1237  141.0476  162.5938 O   0  0  0  0  0  0  0  0  0  0  0  0
  154.4974  139.1154  161.3603 C   0  0  0  0  0  0  0  0  0  0  0  0
  154.2880  138.4358  162.5913 O   0  0  0  0  0  0  0  0  0  0  0  0
  154.4040  137.0628  162.6088 C   0  0  0  0  0  0  0  0  0  0  0  0
  154.1902  136.4193  163.8454 C   0  0  0  0  0  0  0  0  0  0  0  0
  154.2854  135.0186  163.9552 C   0  0  0  0  0  0  0  0  0  0  0  0
  154.5977  134.2442  162.8230 C   0  0  0  0  0  0  0  0  0  0  0  0
  154.8149  134.8730  161.5830 C   0  0  0  0  0  0  0  0  0  0  0  0
  154.7202  136.2742  161.4733 C   0  0  0  0  0  0  0  0  0  0  0  0
  152.5280  142.7589  159.4677 C   0  0  0  0  0  0  0  0  0  0  0  0
  152.6435  143.9750  160.1642 C   0  0  0  0  0  0  0  0  0  0  0  0
  151.6580  144.9588  159.9144 C   0  0  0  0  0  0  0  0  0  0  0  0
  150.6024  144.7153  158.9975 C   0  0  0  0  0  0  0  0  0  0  0  0
  150.5085  143.4813  158.3120 C   0  0  0  0  0  0  0  0  0  0  0  0
  151.4999  142.5219  158.5797 C   0  0  0  0  0  0  0  0  0  0  0  0
  151.0995  139.5805  156.8696 H   0  0  0  0  0  0  0  0  0  0  0  0
  150.7777  141.1747  156.1854 H   0  0  0  0  0  0  0  0  0  0  0  0
  149.7771  140.5597  157.5055 H   0  0  0  0  0  0  0  0  0  0  0  0
  155.2658  140.9256  159.6880 H   0  0  0  0  0  0  0  0  0  0  0  0
  154.9686  142.4038  160.5452 H   0  0  0  0  0  0  0  0  0  0  0  0
  153.2178  140.7558  161.9165 H   0  0  0  0  0  0  0  0  0  0  0  0
  155.9123  140.5287  162.5482 H   0  0  0  0  0  0  0  0  0  0  0  0
  153.8323  138.7317  160.5845 H   0  0  0  0  0  0  0  0  0  0  0  0
  155.5270  138.9566  161.0343 H   0  0  0  0  0  0  0  0  0  0  0  0
  153.9491  137.0065  164.7193 H   0  0  0  0  0  0  0  0  0  0  0  0
  154.1186  134.5391  164.9085 H   0  0  0  0  0  0  0  0  0  0  0  0
  154.6710  133.1697  162.9058 H   0  0  0  0  0  0  0  0  0  0  0  0
  155.0552  134.2798  160.7130 H   0  0  0  0  0  0  0  0  0  0  0  0
  154.8949  136.7201  160.5059 H   0  0  0  0  0  0  0  0  0  0  0  0
  153.4470  144.1557  160.8625 H   0  0  0  0  0  0  0  0  0  0  0  0
  151.7097  145.9074  160.4282 H   0  0  0  0  0  0  0  0  0  0  0  0
  149.8612  145.4810  158.8215 H   0  0  0  0  0  0  0  0  0  0  0  0
  149.7079  143.2871  157.6137 H   0  0  0  0  0  0  0  0  0  0  0  0
  1  2  1  0  0  0  0
  1 23  1  0  0  0  0
  1 24  1  0  0  0  0
  1 25  1  0  0  0  0
  2 22  1  0  0  0  0
  2  3  1  0  0  0  0
  3  4  2  0  0  0  0
  3  5  1  0  0  0  0
  5  6  1  0  0  0  0
  5 17  1  0  0  0  0
  6  7  1  0  0  0  0
  6 26  1  0  0  0  0
  6 27  1  0  0  0  0
  7  8  1  0  0  0  0
  7  9  1  0  0  0  0
  7 28  1  0  0  0  0
  8 29  1  0  0  0  0
  9 10  1  0  0  0  0
  9 30  1  0  0  0  0
  9 31  1  0  0  0  0
 10 11  1  0  0  0  0
 11 16  1  0  0  0  0
 11 12  2  0  0  0  0
 12 13  1  0  0  0  0
 12 32  1  0  0  0  0
 13 14  2  0  0  0  0
 13 33  1  0  0  0  0
 14 15  1  0  0  0  0
 14 34  1  0  0  0  0
 15 16  2  0  0  0  0
 15 35  1  0  0  0  0
 16 36  1  0  0  0  0
 17 22  2  0  0  0  0
 17 18  1  0  0  0  0
 18 19  2  0  0  0  0
 18 37  1  0  0  0  0
 19 20  1  0  0  0  0
 19 38  1  0  0  0  0
 20 21  2  0  0  0  0
 20 39  1  0  0  0  0
 21 22  1  0  0  0  0
 21 40  1  0  0  0  0
M  END
> <s_m_source_file>
AV-unprocessed.smi

> <i_m_source_file_index>
850

> <i_lp_mmshare_version>
43012

> <i_f3d_flags>
0

> <s_epik_input>
W2NIXTFbY0hdW2NIXVtjSF1jKGMxMiluKFtDSDNdKWMoPU8pbjJbQ0gyXVtDQEhdKFtPSF0pW0NIMl1PYzNbY0hdW2NIXVtjSF1bY0hdW2NIXTM=

> <s_epik_cmdline>
J2VwaWtfcHl0aG9uJywgJy1waCcsICc3LjAnLCAnLXRuJywgJzgnLCAnLW1hJywgJzIwMCcsICctbWV0YWxfYmluZGluZycsICctaW1hZScsICc8aW5maWxlLm1hZT4nLCAnLW9tYWUnLCAnPG91dGZpbGUubWFlPic=

> <r_lp_tautomer_probability>
1

> <r_epik_Ionization_Penalty>
2.40205e-06

> <r_epik_Ionization_Penalty_Charging>
2.75209e-09

> <r_epik_Ionization_Penalty_Neutral>
2.3993e-06

> <r_epik_State_Penalty>
-0

> <r_epik_Charging_Adjusted_Penalty>
2.75209e-09

> <i_epik_Tot_Q>
0

> <i_epik_Tot_abs_Q>
0

> <r_epik_Metal_State_Penalty>
-0

> <b_epik_Metal_Only>
0

> <s_lp_Force_Field>
OPLS_2005

> <r_lp_Energy>
46.059

> <b_lp_Chiralities_Consistent>
1

> <s_lp_Variant>
AV-unprocessed.smi:850-1

> <Gold.Version>
5.8.1

> <Gold.Id.Protein>
6NUR|6NUR_protein|mol2

> <Gold.PLP.Fitness>
49.9262

> <Gold.PLP.PLP>
-48.2086

> <Gold.PLP.part.hbond>
-2.0000

> <Gold.PLP.part.metal>
0.0000

> <Gold.PLP.part.buried>
-5.3571

> <Gold.PLP.part.nonpolar>
-40.7926

> <Gold.PLP.part.repulsive>
0.0000

> <Gold.PLP.ligand.clash>
0.0000

> <Gold.PLP.ligand.torsion>
0.6707

> <Gold.PLP.Chemscore.Hbond>
1.0000

> <Gold.PLP.Chemscore.CHOScore>
0.0000

> <Gold.PLP.Chemscore.Metal>
0.0000

> <Gold.Chemscore.Hbonds>
donor molecule, donor type, donor heavy atom, donor atom, acceptor molecule, acceptor atom, score
      P1  H  7997  8009       L1     4  1.00

> <Gold.PLP.Chemscore.Internal.Correction>
0.0591

> <Gold.Rescore>
     Score         DG    S(hbond)    S(metal)    S(lipo)     H(rot)  DE(clash)    DE(int)     intcor
     17.57     -18.65       0.92        0.00     132.52       2.12       0.39       0.69       ----

> <Gold.Chemscore.Fitness>
17.5692

> <Gold.Chemscore.DG>
-18.6470

> <Gold.Chemscore.ZeroCoef>
-5.4800

> <Gold.Chemscore.Hbond>
0.9238

> <Gold.Chemscore.Metal>
0.0000

> <Gold.Chemscore.Lipo>
132.5171

> <Gold.Chemscore.Internal_Hbond>
0.0000

> <Gold.Chemscore.DEClash>
0.3893

> <Gold.Chemscore.DEInternal>
0.6886

> <Gold.Chemscore.Rot>
2.1184

> <Gold.Chemscore.Internal.Correction>
   9.000000E+99

> <Gold.Chemscore.Hbonds>
donor molecule, donor type, donor heavy atom, donor atom, acceptor molecule, acceptor atom, score
      P1  H  7997  8009       L1     4  0.24

> <Gold.Chemscore.Hbond.Weighted>
-3.0856

> <Gold.Chemscore.Metal.Weighted>
-0.0000

> <Gold.Chemscore.Lipo.Weighted>
-15.5045

> <Gold.Chemscore.Internal_Hbond.Weighted>
0.0000

> <Gold.Chemscore.DEClash.Weighted>
0.3893

> <Gold.Chemscore.DEInternal.Weighted>
0.6886

> <Gold.Chemscore.Rot.Weighted>
5.4231

> <Gold.Chemscore.Internal.Correction.Weighted>
   9.000000E+99

> <Gold.Protein.RotatedTorsions>
[ 6907 6896 6895 6894 ] final  166.25 input  -60.11 | X-H torsion
[ 7974 7965 7964 7962 ] final  109.16 input  175.53 | X-H torsion
[ 8008 7997 7996 7995 ] final  140.87 input   59.86 | X-H torsion
[ 10167 10162 10161 10158 ] final   96.22 input  -65.29 | X-H torsion
[ 10718 10713 10712 10709 ] final -107.49 input   66.30 | X-H torsion
[ 10763 10752 10751 10750 ] final   79.31 input  -60.55 | X-H torsion
[ 11005 11000 10999 10996 ] final -108.38 input  -57.11 | X-H torsion

> <Gold.Protein.ActiveResidues>
 VAL166  LYS551  ARG553  GLY616  TRP617  ASP618  TYR619  PRO620  LYS621  CYS622 
 ASP623  PHE694  ASN695  SER759  ASP760  ASP761  ALA762  ILE779  LEU786  VAL792 
 PHE793  MET794  SER795  GLU796  ALA797  LYS798  CYS799  TRP800  GLU811  SER814 

> <Gold.Protein.RotatedAtoms>
  151.8818  133.3497  159.3768 H   0  0  0  0  0  0  0  0  0  0  0  0  # atno 6907 bound_to 6896
  150.7125  134.5011  159.5571 H   0  0  0  0  0  0  0  0  0  0  0  0  # atno 6908 bound_to 6896
  152.2564  134.8080  160.0488 H   0  0  0  0  0  0  0  0  0  0  0  0  # atno 6909 bound_to 6896
  145.2713  139.2666  143.3965 H   0  0  0  0  0  0  0  0  0  0  0  0  # atno 7974 bound_to 7965
  156.2973  140.2330  156.4472 H   0  0  0  0  0  0  0  0  0  0  0  0  # atno 8008 bound_to 7997
  154.8133  140.0442  157.1379 H   0  0  0  0  0  0  0  0  0  0  0  0  # atno 8009 bound_to 7997
  154.9398  140.3028  155.5130 H   0  0  0  0  0  0  0  0  0  0  0  0  # atno 8010 bound_to 7997
  139.7914  144.6850  150.9887 H   0  0  0  0  0  0  0  0  0  0  0  0  # atno 10167 bound_to 10162
  156.0439  130.5665  150.7828 H   0  0  0  0  0  0  0  0  0  0  0  0  # atno 10718 bound_to 10713
  153.0942  135.4844  154.8747 H   0  0  0  0  0  0  0  0  0  0  0  0  # atno 10763 bound_to 10752
  154.7305  135.3059  154.8901 H   0  0  0  0  0  0  0  0  0  0  0  0  # atno 10764 bound_to 10752
  153.9538  135.6820  153.4797 H   0  0  0  0  0  0  0  0  0  0  0  0  # atno 10765 bound_to 10752
  141.0904  133.9064  157.2088 H   0  0  0  0  0  0  0  0  0  0  0  0  # atno 11005 bound_to 11000
  146.3245  140.3156  142.8630 LP  0  0  0  0  0  0  0  0  0  0  0  0  # atno 17320 bound_to 7965
  144.9332  140.7998  143.5676 LP  0  0  0  0  0  0  0  0  0  0  0  0  # atno 17321 bound_to 7965
  140.7820  143.4376  151.0599 LP  0  0  0  0  0  0  0  0  0  0  0  0  # atno 17342 bound_to 10162
  139.8053  143.8027  152.3167 LP  0  0  0  0  0  0  0  0  0  0  0  0  # atno 17343 bound_to 10162
  157.5291  131.0935  150.9978 LP  0  0  0  0  0  0  0  0  0  0  0  0  # atno 17370 bound_to 10713
  157.0289  130.5703  149.5340 LP  0  0  0  0  0  0  0  0  0  0  0  0  # atno 17371 bound_to 10713
  139.9729  135.0122  156.9559 LP  0  0  0  0  0  0  0  0  0  0  0  0  # atno 17394 bound_to 11000
  140.5264  134.0856  155.7305 LP  0  0  0  0  0  0  0  0  0  0  0  0  # atno 17395 bound_to 11000

$$$$
