AV-unprocessed.smi:3163|AV-procd|sdf|12074|dock1
  -GOLD-   2272017503D 1   1.00000     0.00000
 Structure written by MMmdl.
 36 37  0  0  0  0  0  0  0  0  2 V2000
  150.2336  140.5780  155.0257 C   0  0  0  0  0  0  0  0  0  0  0  0
  149.2219  140.4262  153.9593 N   0  3  2  0  0  0  0  0  0  0  0  0
  148.1584  141.4584  153.9674 C   0  0  0  0  0  0  0  0  0  0  0  0
  146.8234  140.7177  153.8205 C   0  0  0  0  0  0  0  0  0  0  0  0
  147.2110  139.3466  153.2657 C   0  0  2  0  0  0  0  0  0  0  0  0
  146.1800  138.2301  153.5205 C   0  0  0  0  0  0  0  0  0  0  0  0
  146.4892  137.0158  152.7725 N   0  0  0  0  0  0  0  0  0  0  0  0
  145.5796  136.1682  152.2703 C   0  0  0  0  0  0  0  0  0  0  0  0
  144.3662  136.3361  152.3880 O   0  0  0  0  0  0  0  0  0  0  0  0
  146.1732  135.1438  151.6328 N   0  0  0  0  0  0  0  0  0  0  0  0
  145.5868  134.0270  150.9746 C   0  0  0  0  0  0  0  0  0  0  0  0
  146.4565  133.0158  150.5158 C   0  0  0  0  0  0  0  0  0  0  0  0
  145.9107  131.8888  149.8694 C   0  0  0  0  0  0  0  0  0  0  0  0
  144.5876  131.7189  149.6668 N   0  0  0  0  0  0  0  0  0  0  0  0
  143.7549  132.6823  150.1139 C   0  0  0  0  0  0  0  0  0  0  0  0
  144.1962  133.8474  150.7733 C   0  0  0  0  0  0  0  0  0  0  0  0
  148.5658  139.1030  153.9293 C   0  0  0  0  0  0  0  0  0  0  0  0
  149.7791  140.4925  156.0136 H   0  0  0  0  0  0  0  0  0  0  0  0
  150.7192  141.5518  154.9544 H   0  0  0  0  0  0  0  0  0  0  0  0
  151.0022  139.8100  154.9337 H   0  0  0  0  0  0  0  0  0  0  0  0
  148.1700  142.0614  154.8768 H   0  0  0  0  0  0  0  0  0  0  0  0
  148.3232  142.1305  153.1245 H   0  0  0  0  0  0  0  0  0  0  0  0
  146.3596  140.6057  154.8017 H   0  0  0  0  0  0  0  0  0  0  0  0
  146.1184  141.2478  153.1793 H   0  0  0  0  0  0  0  0  0  0  0  0
  147.3768  139.4462  152.1914 H   0  0  0  0  0  0  0  0  0  0  0  0
  146.1234  138.0034  154.5865 H   0  0  0  0  0  0  0  0  0  0  0  0
  145.1848  138.5627  153.2242 H   0  0  0  0  0  0  0  0  0  0  0  0
  147.4662  136.8078  152.6250 H   0  0  0  0  0  0  0  0  0  0  0  0
  147.1807  135.1834  151.5851 H   0  0  0  0  0  0  0  0  0  0  0  0
  147.5250  133.0980  150.6519 H   0  0  0  0  0  0  0  0  0  0  0  0
  146.5554  131.1017  149.5073 H   0  0  0  0  0  0  0  0  0  0  0  0
  142.7010  132.5181  149.9452 H   0  0  0  0  0  0  0  0  0  0  0  0
  143.4618  134.5609  151.1109 H   0  0  0  0  0  0  0  0  0  0  0  0
  149.1698  138.3699  153.3938 H   0  0  0  0  0  0  0  0  0  0  0  0
  148.4212  138.7402  154.9487 H   0  0  0  0  0  0  0  0  0  0  0  0
  149.7000  140.5255  153.0749 H   0  0  0  0  0  0  0  0  0  0  0  0
  1  2  1  0  0  0  0
  1 18  1  0  0  0  0
  1 19  1  0  0  0  0
  1 20  1  0  0  0  0
  2 17  1  0  0  0  0
  2  3  1  0  0  0  0
  2 36  1  0  0  0  0
  3  4  1  0  0  0  0
  3 21  1  0  0  0  0
  3 22  1  0  0  0  0
  4  5  1  0  0  0  0
  4 23  1  0  0  0  0
  4 24  1  0  0  0  0
  5  6  1  0  0  0  0
  5 17  1  0  0  0  0
  5 25  1  0  0  0  0
  6  7  1  0  0  0  0
  6 26  1  0  0  0  0
  6 27  1  0  0  0  0
  7  8  1  0  0  0  0
  7 28  1  0  0  0  0
  8  9  2  0  0  0  0
  8 10  1  0  0  0  0
 10 11  1  0  0  0  0
 10 29  1  0  0  0  0
 11 16  1  0  0  0  0
 11 12  2  0  0  0  0
 12 13  1  0  0  0  0
 12 30  1  0  0  0  0
 13 14  2  0  0  0  0
 13 31  1  0  0  0  0
 14 15  1  0  0  0  0
 15 16  2  0  0  0  0
 15 32  1  0  0  0  0
 16 33  1  0  0  0  0
 17 34  1  0  0  0  0
 17 35  1  0  0  0  0
M  CHG  1   2   1
M  END
> <s_m_source_file>
AV-unprocessed.smi

> <i_m_source_file_index>
3163

> <i_lp_mmshare_version>
43012

> <i_f3d_flags>
0

> <s_epik_input>
W0NIM11OMVtDSDJdW0NIMl1bQ0BIXShbQ0gyXTEpW0NIMl1bTkhdQyg9TylbTkhdYzJbY0hdW2NIXW5bY0hdW2NIXTI=

> <s_epik_cmdline>
J2VwaWtfcHl0aG9uJywgJy1waCcsICc3LjAnLCAnLXRuJywgJzgnLCAnLW1hJywgJzIwMCcsICctbWV0YWxfYmluZGluZycsICctaW1hZScsICc8aW5maWxlLm1hZT4nLCAnLW9tYWUnLCAnPG91dGZpbGUubWFlPic=

> <r_epik_Ionization_Penalty>
0.103936

> <r_epik_Ionization_Penalty_Charging>
0.0012301

> <r_epik_Ionization_Penalty_Neutral>
0.102706

> <r_epik_State_Penalty>
0.0926275

> <r_epik_Charging_Adjusted_Penalty>
0.0938576

> <i_epik_Tot_Q>
1

> <i_epik_Tot_abs_Q>
1

> <r_epik_Metal_State_Penalty>
0.0788376

> <b_epik_Metal_Only>
0

> <s_lp_Force_Field>
OPLS_2005

> <r_lp_Energy>
32.247

> <b_lp_Chiralities_Consistent>
1

> <s_lp_Variant>
AV-unprocessed.smi:3163-4

> <Gold.Version>
5.8.1

> <Gold.Id.Protein>
6NUR|6NUR_protein|mol2

> <Gold.PLP.Fitness>
46.0123

> <Gold.PLP.PLP>
-32.0263

> <Gold.PLP.part.hbond>
-4.0000

> <Gold.PLP.part.metal>
0.0000

> <Gold.PLP.part.buried>
-2.5264

> <Gold.PLP.part.nonpolar>
-26.9071

> <Gold.PLP.part.repulsive>
0.5705

> <Gold.PLP.ligand.clash>
0.0000

> <Gold.PLP.ligand.torsion>
0.2570

> <Gold.PLP.Chemscore.Hbond>
3.0374

> <Gold.PLP.Chemscore.CHOScore>
1.7948

> <Gold.PLP.Chemscore.Metal>
0.0000

> <Gold.Chemscore.Hbonds>
donor molecule, donor type, donor heavy atom, donor atom, acceptor molecule, acceptor atom, score
      L1  H     2    36       P1  7957  0.88
      L1  H     7    28       P1  7948  1.00
      L1  H    10    29       P1  7948  0.99
      P1  H 10785 10796       L1    14  0.17
      L1  C    13    31       P1 10747  0.87
      L1  C    15    32       P1 10186  0.79
      L1  C    15    32       P1 10952  0.11

> <Gold.PLP.Chemscore.Internal.Correction>
0.0032

> <Gold.Rescore>
     Score         DG    S(hbond)    S(metal)    S(lipo)     H(rot)  DE(clash)    DE(int)     intcor
     19.46     -21.25       2.80        0.00      82.30       1.26       0.43       1.37       ----

> <Gold.Chemscore.Fitness>
19.4560

> <Gold.Chemscore.DG>
-21.2532

> <Gold.Chemscore.ZeroCoef>
-5.4800

> <Gold.Chemscore.Hbond>
2.8023

> <Gold.Chemscore.Metal>
0.0000

> <Gold.Chemscore.Lipo>
82.2959

> <Gold.Chemscore.Internal_Hbond>
0.0000

> <Gold.Chemscore.DEClash>
0.4319

> <Gold.Chemscore.DEInternal>
1.3654

> <Gold.Chemscore.Rot>
1.2559

> <Gold.Chemscore.Internal.Correction>
   9.000000E+99

> <Gold.Chemscore.Hbonds>
donor molecule, donor type, donor heavy atom, donor atom, acceptor molecule, acceptor atom, score
      L1  H     2    36       P1  7957  0.85
      L1  H     7    28       P1  7948  1.00
      L1  H    10    29       P1  7948  0.83
      P1  H 10785 10796       L1    14  0.09

> <Gold.Chemscore.Hbond.Weighted>
-9.3597

> <Gold.Chemscore.Metal.Weighted>
-0.0000

> <Gold.Chemscore.Lipo.Weighted>
-9.6286

> <Gold.Chemscore.Internal_Hbond.Weighted>
0.0000

> <Gold.Chemscore.DEClash.Weighted>
0.4319

> <Gold.Chemscore.DEInternal.Weighted>
1.3654

> <Gold.Chemscore.Rot.Weighted>
3.2151

> <Gold.Chemscore.Internal.Correction.Weighted>
   9.000000E+99

> <Gold.Protein.RotatedTorsions>
[ 6907 6896 6895 6894 ] final   99.77 input  -60.11 | X-H torsion
[ 7974 7965 7964 7962 ] final  -58.51 input  175.53 | X-H torsion
[ 8008 7997 7996 7995 ] final  -36.76 input   59.86 | X-H torsion
[ 10167 10162 10161 10158 ] final  -87.68 input  -65.29 | X-H torsion
[ 10718 10713 10712 10709 ] final -127.80 input   66.30 | X-H torsion
[ 10763 10752 10751 10750 ] final  154.26 input  -60.55 | X-H torsion
[ 11005 11000 10999 10996 ] final  147.31 input  -57.11 | X-H torsion

> <Gold.Protein.ActiveResidues>
 VAL166  LYS551  ARG553  GLY616  TRP617  ASP618  TYR619  PRO620  LYS621  CYS622 
 ASP623  PHE694  ASN695  SER759  ASP760  ASP761  ALA762  ILE779  LEU786  VAL792 
 PHE793  MET794  SER795  GLU796  ALA797  LYS798  CYS799  TRP800  GLU811  SER814 

> <Gold.Protein.RotatedAtoms>
  152.5385  134.0378  159.8053 H   0  0  0  0  0  0  0  0  0  0  0  0  # atno 6907 bound_to 6896
  151.0539  133.5593  159.2647 H   0  0  0  0  0  0  0  0  0  0  0  0  # atno 6908 bound_to 6896
  151.2517  135.0632  159.9118 H   0  0  0  0  0  0  0  0  0  0  0  0  # atno 6909 bound_to 6896
  145.8384  140.8433  143.0047 H   0  0  0  0  0  0  0  0  0  0  0  0  # atno 7974 bound_to 7965
  154.4066  140.1622  156.2427 H   0  0  0  0  0  0  0  0  0  0  0  0  # atno 8008 bound_to 7997
  155.9187  140.3422  155.6133 H   0  0  0  0  0  0  0  0  0  0  0  0  # atno 8009 bound_to 7997
  155.7248  140.0773  157.2305 H   0  0  0  0  0  0  0  0  0  0  0  0  # atno 8010 bound_to 7997
  140.3821  143.2744  151.9371 H   0  0  0  0  0  0  0  0  0  0  0  0  # atno 10167 bound_to 10162
  156.1891  130.6783  151.0401 H   0  0  0  0  0  0  0  0  0  0  0  0  # atno 10718 bound_to 10713
  154.1495  135.2816  155.3139 H   0  0  0  0  0  0  0  0  0  0  0  0  # atno 10763 bound_to 10752
  154.6228  135.5461  153.7597 H   0  0  0  0  0  0  0  0  0  0  0  0  # atno 10764 bound_to 10752
  153.0225  135.6443  154.1639 H   0  0  0  0  0  0  0  0  0  0  0  0  # atno 10765 bound_to 10752
  140.0865  134.9066  157.1584 H   0  0  0  0  0  0  0  0  0  0  0  0  # atno 11005 bound_to 11000
  144.6735  140.0776  143.7470 LP  0  0  0  0  0  0  0  0  0  0  0  0  # atno 17320 bound_to 7965
  145.9493  139.2722  143.1222 LP  0  0  0  0  0  0  0  0  0  0  0  0  # atno 17321 bound_to 7965
  139.4794  144.5809  151.7934 LP  0  0  0  0  0  0  0  0  0  0  0  0  # atno 17342 bound_to 10162
  140.4927  144.1286  150.5953 LP  0  0  0  0  0  0  0  0  0  0  0  0  # atno 17343 bound_to 10162
  157.6917  131.0807  150.7087 LP  0  0  0  0  0  0  0  0  0  0  0  0  # atno 17370 bound_to 10713
  156.7143  130.4661  149.5539 LP  0  0  0  0  0  0  0  0  0  0  0  0  # atno 17371 bound_to 10713
  140.3412  134.2701  155.7212 LP  0  0  0  0  0  0  0  0  0  0  0  0  # atno 17394 bound_to 11000
  141.2064  133.7833  157.0178 LP  0  0  0  0  0  0  0  0  0  0  0  0  # atno 17395 bound_to 11000

$$$$
