AV-unprocessed.smi:709|AV-procd|sdf|3458|dock5
  -GOLD-   22720 0443D 1   1.00000     0.00000
 Structure written by MMmdl.
 48 50  0  0  0  0  0  0  0  0  1 V2000
  147.9565  136.9607  158.7043 C   0  0  0  0  0  0  0  0  0  0  0  0
  149.3908  136.4982  158.9675 C   0  0  0  0  0  0  0  0  0  0  0  0
  150.2308  136.9956  157.9394 O   0  0  0  0  0  0  0  0  0  0  0  0
  149.9548  136.4168  156.6734 C   0  0  2  0  0  0  0  0  0  0  0  0
  150.5692  135.0240  156.5210 C   0  0  0  0  0  0  0  0  0  0  0  0
  150.8895  135.4038  155.0715 C   0  0  1  0  0  0  0  0  0  0  0  0
  149.7921  135.0318  154.1760 N   0  0  0  0  0  0  0  0  0  0  0  0
  149.2786  133.7991  154.0688 C   0  0  0  0  0  0  0  0  0  0  0  0
  149.6806  132.8420  154.7300 O   0  0  0  0  0  0  0  0  0  0  0  0
  148.2842  133.7712  153.1628 N   0  0  0  0  0  0  0  0  0  0  0  0
  147.5187  132.6811  152.7136 C   0  0  0  0  0  0  0  0  0  0  0  0
  147.7702  131.3838  153.0222 C   0  0  0  0  0  0  0  0  0  0  0  0
  146.9387  130.3236  152.5052 C   0  0  0  0  0  0  0  0  0  0  0  0
  145.9152  130.6498  151.7039 C   0  0  0  0  0  0  0  0  0  0  0  0
  145.6419  131.9855  151.3635 N   0  0  0  0  0  0  0  0  0  0  0  0
  144.5018  132.2402  150.4792 C   0  0  0  0  0  0  0  0  0  0  0  0
  146.3949  133.0293  151.8223 C   0  0  0  0  0  0  0  0  0  0  0  0
  146.1368  134.1920  151.5009 O   0  0  0  0  0  0  0  0  0  0  0  0
  150.8638  136.8949  155.5092 C   0  0  0  0  0  0  0  0  0  0  0  0
  152.2204  137.4997  155.8820 C   0  0  0  0  0  0  0  0  0  0  0  0
  152.0512  139.0184  155.9002 C   0  0  0  0  0  0  0  0  0  0  0  0
  150.9016  139.3127  154.9345 C   0  0  0  0  0  0  0  0  0  0  0  0
  150.3000  137.9537  154.5563 C   0  0  0  0  0  0  0  0  0  0  0  0
  147.2819  136.5987  159.4803 H   0  0  0  0  0  0  0  0  0  0  0  0
  147.5959  136.5862  157.7460 H   0  0  0  0  0  0  0  0  0  0  0  0
  147.8927  138.0489  158.6857 H   0  0  0  0  0  0  0  0  0  0  0  0
  149.7319  136.8675  159.9355 H   0  0  0  0  0  0  0  0  0  0  0  0
  149.4280  135.4098  159.0024 H   0  0  0  0  0  0  0  0  0  0  0  0
  148.8917  136.4032  156.4210 H   0  0  0  0  0  0  0  0  0  0  0  0
  151.4650  134.8832  157.1283 H   0  0  0  0  0  0  0  0  0  0  0  0
  149.8681  134.1981  156.6465 H   0  0  0  0  0  0  0  0  0  0  0  0
  151.8700  135.0497  154.7482 H   0  0  0  0  0  0  0  0  0  0  0  0
  149.4026  135.7643  153.6010 H   0  0  0  0  0  0  0  0  0  0  0  0
  148.0234  134.6587  152.7578 H   0  0  0  0  0  0  0  0  0  0  0  0
  148.6026  131.0972  153.6442 H   0  0  0  0  0  0  0  0  0  0  0  0
  147.1369  129.2926  152.7585 H   0  0  0  0  0  0  0  0  0  0  0  0
  145.2482  129.9150  151.2770 H   0  0  0  0  0  0  0  0  0  0  0  0
  144.8328  132.7208  149.5574 H   0  0  0  0  0  0  0  0  0  0  0  0
  143.7786  132.8971  150.9647 H   0  0  0  0  0  0  0  0  0  0  0  0
  143.9734  131.3284  150.1990 H   0  0  0  0  0  0  0  0  0  0  0  0
  152.6030  137.1320  156.8347 H   0  0  0  0  0  0  0  0  0  0  0  0
  152.9617  137.2343  155.1270 H   0  0  0  0  0  0  0  0  0  0  0  0
  151.7845  139.3493  156.9043 H   0  0  0  0  0  0  0  0  0  0  0  0
  152.9697  139.5350  155.6205 H   0  0  0  0  0  0  0  0  0  0  0  0
  150.1584  139.9540  155.4091 H   0  0  0  0  0  0  0  0  0  0  0  0
  151.2576  139.8338  154.0453 H   0  0  0  0  0  0  0  0  0  0  0  0
  150.5830  137.7230  153.5289 H   0  0  0  0  0  0  0  0  0  0  0  0
  149.2104  137.9881  154.5789 H   0  0  0  0  0  0  0  0  0  0  0  0
  1  2  1  0  0  0  0
  1 24  1  0  0  0  0
  1 25  1  0  0  0  0
  1 26  1  0  0  0  0
  2  3  1  0  0  0  0
  2 27  1  0  0  0  0
  2 28  1  0  0  0  0
  3  4  1  0  0  0  0
  4 19  1  0  0  0  0
  4  5  1  0  0  0  0
  4 29  1  0  0  0  0
  5  6  1  0  0  0  0
  5 30  1  0  0  0  0
  5 31  1  0  0  0  0
  6  7  1  0  0  0  0
  6 19  1  0  0  0  0
  6 32  1  0  0  0  0
  7  8  1  0  0  0  0
  7 33  1  0  0  0  0
  8  9  2  0  0  0  0
  8 10  1  0  0  0  0
 10 11  1  0  0  0  0
 10 34  1  0  0  0  0
 11 17  1  0  0  0  0
 11 12  2  0  0  0  0
 12 13  1  0  0  0  0
 12 35  1  0  0  0  0
 13 14  2  0  0  0  0
 13 36  1  0  0  0  0
 14 15  1  0  0  0  0
 14 37  1  0  0  0  0
 15 16  1  0  0  0  0
 15 17  1  0  0  0  0
 16 38  1  0  0  0  0
 16 39  1  0  0  0  0
 16 40  1  0  0  0  0
 17 18  2  0  0  0  0
 19 23  1  0  0  0  0
 19 20  1  0  0  0  0
 20 21  1  0  0  0  0
 20 41  1  0  0  0  0
 20 42  1  0  0  0  0
 21 22  1  0  0  0  0
 21 43  1  0  0  0  0
 21 44  1  0  0  0  0
 22 23  1  0  0  0  0
 22 45  1  0  0  0  0
 22 46  1  0  0  0  0
 23 47  1  0  0  0  0
 23 48  1  0  0  0  0
M  END
> <s_m_source_file>
AV-unprocessed.smi

> <i_m_source_file_index>
709

> <i_lp_mmshare_version>
43012

> <i_f3d_flags>
0

> <s_epik_input>
W0NIMl0xW0NIMl1bQ0gyXVtDSDJdQzEyW0NASF0oT1tDSDJdW0NIM10pW0NIMl1bQ0BIXTJbTkhdQyg9TylbTkhdYzNbY0hdW2NIXVtjSF1uKFtDSDNdKWMzPU8=

> <s_epik_cmdline>
J2VwaWtfcHl0aG9uJywgJy1waCcsICc3LjAnLCAnLXRuJywgJzgnLCAnLW1hJywgJzIwMCcsICctbWV0YWxfYmluZGluZycsICctaW1hZScsICc8aW5maWxlLm1hZT4nLCAnLW9tYWUnLCAnPG91dGZpbGUubWFlPic=

> <r_lp_tautomer_probability>
1

> <r_epik_Ionization_Penalty>
2.50859e-05

> <r_epik_Ionization_Penalty_Charging>
5.10493e-06

> <r_epik_Ionization_Penalty_Neutral>
1.9981e-05

> <r_epik_State_Penalty>
-0

> <r_epik_Charging_Adjusted_Penalty>
5.10493e-06

> <i_epik_Tot_Q>
0

> <i_epik_Tot_abs_Q>
0

> <r_epik_Metal_State_Penalty>
-0

> <b_epik_Metal_Only>
0

> <s_lp_Force_Field>
OPLS_2005

> <r_lp_Energy>
50.6908

> <b_lp_Chiralities_Consistent>
1

> <s_lp_Variant>
AV-unprocessed.smi:709-1

> <Gold.Version>
5.8.1

> <Gold.Id.Protein>
6NUR|6NUR_protein|mol2

> <Gold.PLP.Fitness>
42.7255

> <Gold.PLP.PLP>
-37.0718

> <Gold.PLP.part.hbond>
-2.2451

> <Gold.PLP.part.metal>
0.0000

> <Gold.PLP.part.buried>
-3.7093

> <Gold.PLP.part.nonpolar>
-30.8915

> <Gold.PLP.part.repulsive>
0.2726

> <Gold.PLP.ligand.clash>
0.0000

> <Gold.PLP.ligand.torsion>
0.3084

> <Gold.PLP.Chemscore.Hbond>
1.9760

> <Gold.PLP.Chemscore.CHOScore>
0.0000

> <Gold.PLP.Chemscore.Metal>
0.0000

> <Gold.Chemscore.Hbonds>
donor molecule, donor type, donor heavy atom, donor atom, acceptor molecule, acceptor atom, score
      L1  H     7    33       P1  7948  0.85
      L1  H    10    34       P1  7948  0.74

> <Gold.PLP.Chemscore.Internal.Correction>
0.3425

> <Gold.Rescore>
     Score         DG    S(hbond)    S(metal)    S(lipo)     H(rot)  DE(clash)    DE(int)     intcor
     13.19     -16.01       1.28        0.00      83.16       1.36       0.21       2.60       ----

> <Gold.Chemscore.Fitness>
13.1913

> <Gold.Chemscore.DG>
-16.0065

> <Gold.Chemscore.ZeroCoef>
-5.4800

> <Gold.Chemscore.Hbond>
1.2810

> <Gold.Chemscore.Metal>
0.0000

> <Gold.Chemscore.Lipo>
83.1564

> <Gold.Chemscore.Internal_Hbond>
0.0000

> <Gold.Chemscore.DEClash>
0.2139

> <Gold.Chemscore.DEInternal>
2.6013

> <Gold.Chemscore.Rot>
1.3599

> <Gold.Chemscore.Internal.Correction>
   9.000000E+99

> <Gold.Chemscore.Hbonds>
donor molecule, donor type, donor heavy atom, donor atom, acceptor molecule, acceptor atom, score
      L1  H     7    33       P1  7948  0.38
      L1  H    10    34       P1  7948  0.49

> <Gold.Chemscore.Hbond.Weighted>
-4.2785

> <Gold.Chemscore.Metal.Weighted>
-0.0000

> <Gold.Chemscore.Lipo.Weighted>
-9.7293

> <Gold.Chemscore.Internal_Hbond.Weighted>
0.0000

> <Gold.Chemscore.DEClash.Weighted>
0.2139

> <Gold.Chemscore.DEInternal.Weighted>
2.6013

> <Gold.Chemscore.Rot.Weighted>
3.4813

> <Gold.Chemscore.Internal.Correction.Weighted>
   9.000000E+99

> <Gold.Protein.RotatedTorsions>
[ 6907 6896 6895 6894 ] final   -0.55 input  -60.11 | X-H torsion
[ 7974 7965 7964 7962 ] final   90.24 input  175.53 | X-H torsion
[ 8008 7997 7996 7995 ] final  -97.54 input   59.86 | X-H torsion
[ 10167 10162 10161 10158 ] final   76.52 input  -65.29 | X-H torsion
[ 10718 10713 10712 10709 ] final  138.31 input   66.30 | X-H torsion
[ 10763 10752 10751 10750 ] final -134.85 input  -60.55 | X-H torsion
[ 11005 11000 10999 10996 ] final -110.01 input  -57.11 | X-H torsion

> <Gold.Protein.ActiveResidues>
 VAL166  LYS551  ARG553  GLY616  TRP617  ASP618  TYR619  PRO620  LYS621  CYS622 
 ASP623  PHE694  ASN695  SER759  ASP760  ASP761  ALA762  ILE779  LEU786  VAL792 
 PHE793  MET794  SER795  GLU796  ALA797  LYS798  CYS799  TRP800  GLU811  SER814 

> <Gold.Protein.RotatedAtoms>
  151.5605  135.1065  159.9971 H   0  0  0  0  0  0  0  0  0  0  0  0  # atno 6907 bound_to 6896
  152.4449  133.7513  159.6706 H   0  0  0  0  0  0  0  0  0  0  0  0  # atno 6908 bound_to 6896
  150.8362  133.7942  159.3102 H   0  0  0  0  0  0  0  0  0  0  0  0  # atno 6909 bound_to 6896
  145.5216  139.2279  143.2668 H   0  0  0  0  0  0  0  0  0  0  0  0  # atno 7974 bound_to 7965
  154.7891  140.0462  157.1187 H   0  0  0  0  0  0  0  0  0  0  0  0  # atno 8008 bound_to 7997
  154.9613  140.3078  155.5010 H   0  0  0  0  0  0  0  0  0  0  0  0  # atno 8009 bound_to 7997
  156.2947  140.2270  156.4698 H   0  0  0  0  0  0  0  0  0  0  0  0  # atno 8010 bound_to 7997
  139.9914  144.5754  150.7815 H   0  0  0  0  0  0  0  0  0  0  0  0  # atno 10167 bound_to 10162
  157.4267  131.1044  151.0294 H   0  0  0  0  0  0  0  0  0  0  0  0  # atno 10718 bound_to 10713
  154.8713  135.3721  154.4803 H   0  0  0  0  0  0  0  0  0  0  0  0  # atno 10763 bound_to 10752
  153.5456  135.7025  153.5620 H   0  0  0  0  0  0  0  0  0  0  0  0  # atno 10764 bound_to 10752
  153.3762  135.4008  155.1788 H   0  0  0  0  0  0  0  0  0  0  0  0  # atno 10765 bound_to 10752
  141.0816  133.9211  157.2277 H   0  0  0  0  0  0  0  0  0  0  0  0  # atno 11005 bound_to 11000
  146.2102  140.6028  142.9063 LP  0  0  0  0  0  0  0  0  0  0  0  0  # atno 17320 bound_to 7965
  144.7673  140.5559  143.6694 LP  0  0  0  0  0  0  0  0  0  0  0  0  # atno 17321 bound_to 7965
  140.7453  143.2874  151.3425 LP  0  0  0  0  0  0  0  0  0  0  0  0  # atno 17342 bound_to 10162
  139.6337  144.0671  152.2498 LP  0  0  0  0  0  0  0  0  0  0  0  0  # atno 17343 bound_to 10162
  157.1205  130.6060  149.5504 LP  0  0  0  0  0  0  0  0  0  0  0  0  # atno 17370 bound_to 10713
  155.9899  130.4948  150.7234 LP  0  0  0  0  0  0  0  0  0  0  0  0  # atno 17371 bound_to 10713
  139.9630  135.0149  156.9312 LP  0  0  0  0  0  0  0  0  0  0  0  0  # atno 17394 bound_to 11000
  140.5456  134.0677  155.7354 LP  0  0  0  0  0  0  0  0  0  0  0  0  # atno 17395 bound_to 11000

$$$$
