AV-unprocessed.smi:1012|AV-procd|sdf|4425|dock1
  -GOLD-   22720 2373D 1   1.00000     0.00000
 Structure written by MMmdl.
 44 46  0  0  0  0  0  0  0  0  2 V2000
  147.2727  137.3086  163.1304 C   0  0  0  0  0  0  0  0  0  0  0  0
  147.8525  137.2929  161.8342 O   0  0  0  0  0  0  0  0  0  0  0  0
  147.7895  136.1234  161.1033 C   0  0  0  0  0  0  0  0  0  0  0  0
  146.9993  135.0061  161.4767 C   0  0  0  0  0  0  0  0  0  0  0  0
  146.9814  133.8434  160.6830 C   0  0  0  0  0  0  0  0  0  0  0  0
  147.7500  133.7798  159.5074 C   0  0  0  0  0  0  0  0  0  0  0  0
  148.5376  134.8809  159.1261 C   0  0  0  0  0  0  0  0  0  0  0  0
  148.5605  136.0483  159.9183 C   0  0  0  0  0  0  0  0  0  0  0  0
  149.4140  137.2268  159.4872 C   0  0  0  0  0  0  0  0  0  0  0  0
  149.3266  137.4449  158.0888 O   0  0  0  0  0  0  0  0  0  0  0  0
  149.9686  138.6397  157.6778 C   0  0  0  0  0  0  0  0  0  0  0  0
  151.2788  138.2825  156.9524 C   0  0  1  0  0  0  0  0  0  0  0  0
  151.0790  137.0842  156.2323 O   0  0  0  0  0  0  0  0  0  0  0  0
  151.7454  139.3487  155.9408 C   0  0  0  0  0  0  0  0  0  0  0  0
  151.2436  140.6943  156.2547 N   0  0  0  0  0  0  0  0  0  0  0  0
  150.3575  141.4650  155.5671 C   0  0  0  0  0  0  0  0  0  0  0  0
  150.2038  142.6298  156.2550 N   0  3  0  0  0  0  0  0  0  0  0  0
  151.0029  142.6041  157.3999 C   0  0  0  0  0  0  0  0  0  0  0  0
  151.1857  143.5503  158.4029 C   0  0  0  0  0  0  0  0  0  0  0  0
  152.0832  143.2144  159.4376 C   0  0  0  0  0  0  0  0  0  0  0  0
  152.3004  144.1005  160.4379 F   0  0  0  0  0  0  0  0  0  0  0  0
  152.7589  141.9757  159.4489 C   0  0  0  0  0  0  0  0  0  0  0  0
  153.6150  141.6938  160.4592 F   0  0  0  0  0  0  0  0  0  0  0  0
  152.5626  141.0228  158.4277 C   0  0  0  0  0  0  0  0  0  0  0  0
  151.6739  141.3628  157.4079 C   0  0  0  0  0  0  0  0  0  0  0  0
  147.4112  138.2946  163.5737 H   0  0  0  0  0  0  0  0  0  0  0  0
  147.7485  136.5816  163.7898 H   0  0  0  0  0  0  0  0  0  0  0  0
  146.2001  137.1138  163.0898 H   0  0  0  0  0  0  0  0  0  0  0  0
  146.3945  135.0146  162.3706 H   0  0  0  0  0  0  0  0  0  0  0  0
  146.3758  132.9990  160.9773 H   0  0  0  0  0  0  0  0  0  0  0  0
  147.7355  132.8877  158.8986 H   0  0  0  0  0  0  0  0  0  0  0  0
  149.1259  134.8243  158.2221 H   0  0  0  0  0  0  0  0  0  0  0  0
  149.1013  138.1267  160.0193 H   0  0  0  0  0  0  0  0  0  0  0  0
  150.4482  137.0311  159.7749 H   0  0  0  0  0  0  0  0  0  0  0  0
  149.3203  139.2459  157.0425 H   0  0  0  0  0  0  0  0  0  0  0  0
  150.1775  139.2225  158.5744 H   0  0  0  0  0  0  0  0  0  0  0  0
  152.0716  138.1191  157.6837 H   0  0  0  0  0  0  0  0  0  0  0  0
  150.7108  137.2956  155.3883 H   0  0  0  0  0  0  0  0  0  0  0  0
  152.8344  139.4133  155.9495 H   0  0  0  0  0  0  0  0  0  0  0  0
  151.4661  139.0792  154.9224 H   0  0  0  0  0  0  0  0  0  0  0  0
  149.8655  141.1999  154.6420 H   0  0  0  0  0  0  0  0  0  0  0  0
  150.6715  144.5001  158.3972 H   0  0  0  0  0  0  0  0  0  0  0  0
  153.0912  140.0817  158.4485 H   0  0  0  0  0  0  0  0  0  0  0  0
  149.5973  143.3850  155.9612 H   0  0  0  0  0  0  0  0  0  0  0  0
  1  2  1  0  0  0  0
  1 26  1  0  0  0  0
  1 27  1  0  0  0  0
  1 28  1  0  0  0  0
  2  3  1  0  0  0  0
  3  8  1  0  0  0  0
  3  4  2  0  0  0  0
  4  5  1  0  0  0  0
  4 29  1  0  0  0  0
  5  6  2  0  0  0  0
  5 30  1  0  0  0  0
  6  7  1  0  0  0  0
  6 31  1  0  0  0  0
  7  8  2  0  0  0  0
  7 32  1  0  0  0  0
  8  9  1  0  0  0  0
  9 10  1  0  0  0  0
  9 33  1  0  0  0  0
  9 34  1  0  0  0  0
 10 11  1  0  0  0  0
 11 12  1  0  0  0  0
 11 35  1  0  0  0  0
 11 36  1  0  0  0  0
 12 13  1  0  0  0  0
 12 14  1  0  0  0  0
 12 37  1  0  0  0  0
 13 38  1  0  0  0  0
 14 15  1  0  0  0  0
 14 39  1  0  0  0  0
 14 40  1  0  0  0  0
 15 25  1  0  0  0  0
 15 16  1  0  0  0  0
 16 17  2  0  0  0  0
 16 41  1  0  0  0  0
 17 18  1  0  0  0  0
 17 44  1  0  0  0  0
 18 25  2  0  0  0  0
 18 19  1  0  0  0  0
 19 20  2  0  0  0  0
 19 42  1  0  0  0  0
 20 21  1  0  0  0  0
 20 22  1  0  0  0  0
 22 23  1  0  0  0  0
 22 24  2  0  0  0  0
 24 25  1  0  0  0  0
 24 43  1  0  0  0  0
M  CHG  1  17   1
M  END
> <s_m_source_file>
AV-unprocessed.smi

> <i_m_source_file_index>
1012

> <i_lp_mmshare_version>
43012

> <i_f3d_flags>
0

> <s_epik_input>
W0NIM11PYzFbY0hdW2NIXVtjSF1bY0hdYzFbQ0gyXU9bQ0gyXVtDQEhdKFtPSF0pW0NIMl1uKFtjSF1uMiljKGMyMylbY0hdYyhGKWMoRilbY0hdMw==

> <s_epik_cmdline>
J2VwaWtfcHl0aG9uJywgJy1waCcsICc3LjAnLCAnLXRuJywgJzgnLCAnLW1hJywgJzIwMCcsICctbWV0YWxfYmluZGluZycsICctaW1hZScsICc8aW5maWxlLm1hZT4nLCAnLW9tYWUnLCAnPG91dGZpbGUubWFlPic=

> <r_lp_tautomer_probability>
1

> <r_epik_Ionization_Penalty>
2.14697

> <r_epik_Ionization_Penalty_Charging>
2.14697

> <r_epik_Ionization_Penalty_Neutral>
1.07667e-06

> <r_epik_State_Penalty>
2.28651

> <r_epik_Charging_Adjusted_Penalty>
4.43348

> <i_epik_Tot_Q>
1

> <i_epik_Tot_abs_Q>
1

> <r_epik_Metal_State_Penalty>
6.36664

> <b_epik_Metal_Only>
0

> <s_lp_Force_Field>
OPLS_2005

> <r_lp_Energy>
25.548

> <b_lp_Chiralities_Consistent>
1

> <s_lp_Variant>
AV-unprocessed.smi:1012-4

> <Gold.Version>
5.8.1

> <Gold.Id.Protein>
6NUR|6NUR_protein|mol2

> <Gold.PLP.Fitness>
57.1783

> <Gold.PLP.PLP>
-48.7103

> <Gold.PLP.part.hbond>
-3.0000

> <Gold.PLP.part.metal>
0.0000

> <Gold.PLP.part.buried>
-3.7155

> <Gold.PLP.part.nonpolar>
-40.9998

> <Gold.PLP.part.repulsive>
0.0976

> <Gold.PLP.ligand.clash>
0.0000

> <Gold.PLP.ligand.torsion>
1.5026

> <Gold.PLP.Chemscore.Hbond>
3.6864

> <Gold.PLP.Chemscore.CHOScore>
0.0000

> <Gold.PLP.Chemscore.Metal>
0.0000

> <Gold.Chemscore.Hbonds>
donor molecule, donor type, donor heavy atom, donor atom, acceptor molecule, acceptor atom, score
      L1  H    17    44       P1  8028  2.00
      P1  H  6931  6943       L1     2  0.96
      P1  H  6934  6947       L1     2  0.56

> <Gold.PLP.Chemscore.Internal.Correction>
0.4140

> <Gold.Rescore>
     Score         DG    S(hbond)    S(metal)    S(lipo)     H(rot)  DE(clash)    DE(int)     intcor
     16.81     -18.68       2.18        0.00     116.95       3.03       0.41       1.46       ----

> <Gold.Chemscore.Fitness>
16.8087

> <Gold.Chemscore.DG>
-18.6801

> <Gold.Chemscore.ZeroCoef>
-5.4800

> <Gold.Chemscore.Hbond>
2.1759

> <Gold.Chemscore.Metal>
0.0000

> <Gold.Chemscore.Lipo>
116.9549

> <Gold.Chemscore.Internal_Hbond>
0.0000

> <Gold.Chemscore.DEClash>
0.4138

> <Gold.Chemscore.DEInternal>
1.4575

> <Gold.Chemscore.Rot>
3.0278

> <Gold.Chemscore.Internal.Correction>
   9.000000E+99

> <Gold.Chemscore.Hbonds>
donor molecule, donor type, donor heavy atom, donor atom, acceptor molecule, acceptor atom, score
      L1  H    17    44       P1  8028  0.94
      P1  H  6931  6943       L1     2  0.44
      P1  H  6934  6947       L1     2  0.23

> <Gold.Chemscore.Hbond.Weighted>
-7.2675

> <Gold.Chemscore.Metal.Weighted>
-0.0000

> <Gold.Chemscore.Lipo.Weighted>
-13.6837

> <Gold.Chemscore.Internal_Hbond.Weighted>
0.0000

> <Gold.Chemscore.DEClash.Weighted>
0.4138

> <Gold.Chemscore.DEInternal.Weighted>
1.4575

> <Gold.Chemscore.Rot.Weighted>
7.7512

> <Gold.Chemscore.Internal.Correction.Weighted>
   9.000000E+99

> <Gold.Protein.RotatedTorsions>
[ 6907 6896 6895 6894 ] final  -57.39 input  -60.11 | X-H torsion
[ 7974 7965 7964 7962 ] final -174.26 input  175.53 | X-H torsion
[ 8008 7997 7996 7995 ] final -169.60 input   59.86 | X-H torsion
[ 10167 10162 10161 10158 ] final   -4.73 input  -65.29 | X-H torsion
[ 10718 10713 10712 10709 ] final   12.66 input   66.30 | X-H torsion
[ 10763 10752 10751 10750 ] final -175.22 input  -60.55 | X-H torsion
[ 11005 11000 10999 10996 ] final  135.11 input  -57.11 | X-H torsion

> <Gold.Protein.ActiveResidues>
 VAL166  LYS551  ARG553  GLY616  TRP617  ASP618  TYR619  PRO620  LYS621  CYS622 
 ASP623  PHE694  ASN695  SER759  ASP760  ASP761  ALA762  ILE779  LEU786  VAL792 
 PHE793  MET794  SER795  GLU796  ALA797  LYS798  CYS799  TRP800  GLU811  SER814 

> <Gold.Protein.RotatedAtoms>
  150.8090  134.7233  159.6670 H   0  0  0  0  0  0  0  0  0  0  0  0  # atno 6907 bound_to 6896
  152.4210  134.5952  159.9995 H   0  0  0  0  0  0  0  0  0  0  0  0  # atno 6908 bound_to 6896
  151.6168  133.3305  159.3115 H   0  0  0  0  0  0  0  0  0  0  0  0  # atno 6909 bound_to 6896
  144.7133  140.1499  143.6385 H   0  0  0  0  0  0  0  0  0  0  0  0  # atno 7974 bound_to 7965
  155.9072  140.1051  157.1306 H   0  0  0  0  0  0  0  0  0  0  0  0  # atno 8008 bound_to 7997
  154.4034  140.1281  156.4575 H   0  0  0  0  0  0  0  0  0  0  0  0  # atno 8009 bound_to 7997
  155.7353  140.3468  155.5081 H   0  0  0  0  0  0  0  0  0  0  0  0  # atno 8010 bound_to 7997
  140.6938  143.6389  150.8453 H   0  0  0  0  0  0  0  0  0  0  0  0  # atno 10167 bound_to 10162
  157.0133  130.6126  149.5711 H   0  0  0  0  0  0  0  0  0  0  0  0  # atno 10718 bound_to 10713
  154.5869  135.2841  155.0675 H   0  0  0  0  0  0  0  0  0  0  0  0  # atno 10763 bound_to 10752
  154.1990  135.6427  153.5085 H   0  0  0  0  0  0  0  0  0  0  0  0  # atno 10764 bound_to 10752
  153.0107  135.5464  154.6542 H   0  0  0  0  0  0  0  0  0  0  0  0  # atno 10765 bound_to 10752
  139.9958  134.9498  156.9961 H   0  0  0  0  0  0  0  0  0  0  0  0  # atno 11005 bound_to 11000
  145.9126  139.2496  143.1428 LP  0  0  0  0  0  0  0  0  0  0  0  0  # atno 17320 bound_to 7965
  145.9701  140.8767  143.0167 LP  0  0  0  0  0  0  0  0  0  0  0  0  # atno 17321 bound_to 7965
  140.0105  143.5647  152.2841 LP  0  0  0  0  0  0  0  0  0  0  0  0  # atno 17342 bound_to 10162
  139.6370  144.7651  151.2418 LP  0  0  0  0  0  0  0  0  0  0  0  0  # atno 17343 bound_to 10162
  156.0128  130.5221  150.8042 LP  0  0  0  0  0  0  0  0  0  0  0  0  # atno 17370 bound_to 10713
  157.5304  131.0936  150.9962 LP  0  0  0  0  0  0  0  0  0  0  0  0  # atno 17371 bound_to 10713
  140.4820  134.1279  155.7218 LP  0  0  0  0  0  0  0  0  0  0  0  0  # atno 17394 bound_to 11000
  141.1603  133.8805  157.1865 LP  0  0  0  0  0  0  0  0  0  0  0  0  # atno 17395 bound_to 11000

$$$$
