AV-unprocessed.smi:1010|AV-procd|sdf|4418|dock3
  -GOLD-   22720 2363D 1   1.00000     0.00000
 Structure written by MMmdl.
 55 57  0  0  0  0  0  0  0  0  4 V2000
  152.1783  140.4021  158.9847 C   0  0  0  0  0  0  0  0  0  0  0  0
  151.5950  139.9204  157.7006 N   0  3  0  0  0  0  0  0  0  0  0  0
  150.9140  141.0403  156.9875 C   0  0  0  0  0  0  0  0  0  0  0  0
  150.9179  138.5546  157.6883 C   0  0  0  0  0  0  0  0  0  0  0  0
  149.5877  138.4858  158.5406 C   0  0  0  0  0  0  0  0  0  0  0  0
  149.0490  137.1267  158.6281 N   0  5  0  0  0  0  0  0  0  0  0  0
  148.3503  136.6303  159.6829 C   0  0  0  0  0  0  0  0  0  0  0  0
  147.9943  137.2265  160.7053 O   0  0  0  0  0  0  0  0  0  0  0  0
  148.0458  135.3329  159.5159 N   0  0  0  0  0  0  0  0  0  0  0  0
  147.2039  134.5228  160.3248 C   0  0  0  0  0  0  0  0  0  0  0  0
  146.8863  134.8912  161.6556 C   0  0  0  0  0  0  0  0  0  0  0  0
  146.0806  134.0448  162.4420 C   0  0  0  0  0  0  0  0  0  0  0  0
  145.6149  132.8376  161.8890 C   0  0  0  0  0  0  0  0  0  0  0  0
  145.9476  132.5078  160.6232 N   0  3  0  0  0  0  0  0  0  0  0  0
  146.7140  133.2841  159.8242 C   0  0  0  0  0  0  0  0  0  0  0  0
  146.9561  132.7788  158.5354 N   0  0  0  0  0  0  0  0  0  0  0  0
  147.7534  131.5592  158.4445 C   0  0  0  0  0  0  0  0  0  0  0  0
  146.9549  130.5810  157.5776 C   0  0  0  0  0  0  0  0  0  0  0  0
  146.0780  131.4977  156.7318 C   0  0  0  0  0  0  0  0  0  0  0  0
  145.7808  132.6567  157.6820 C   0  0  0  0  0  0  0  0  0  0  0  0
  150.5799  138.1782  156.2083 C   0  0  0  0  0  0  0  0  0  0  0  0
  151.8417  138.0391  155.3357 C   0  0  0  0  0  0  0  0  0  0  0  0
  152.6830  137.0242  155.8657 O   0  0  0  0  0  0  0  0  0  0  0  0
  153.1209  137.3016  157.1886 C   0  0  0  0  0  0  0  0  0  0  0  0
  151.9077  137.4257  158.1317 C   0  0  0  0  0  0  0  0  0  0  0  0
  151.4143  140.6897  159.7047 H   0  0  0  0  0  0  0  0  0  0  0  0
  152.7869  141.2881  158.8016 H   0  0  0  0  0  0  0  0  0  0  0  0
  152.8419  139.6787  159.4530 H   0  0  0  0  0  0  0  0  0  0  0  0
  150.0491  141.4070  157.5414 H   0  0  0  0  0  0  0  0  0  0  0  0
  150.5899  140.7705  155.9849 H   0  0  0  0  0  0  0  0  0  0  0  0
  151.6002  141.8797  156.8729 H   0  0  0  0  0  0  0  0  0  0  0  0
  149.7825  138.9216  159.5213 H   0  0  0  0  0  0  0  0  0  0  0  0
  148.8501  139.1490  158.0882 H   0  0  0  0  0  0  0  0  0  0  0  0
  148.2983  134.9443  158.6189 H   0  0  0  0  0  0  0  0  0  0  0  0
  147.2634  135.8074  162.0853 H   0  0  0  0  0  0  0  0  0  0  0  0
  145.8296  134.3160  163.4569 H   0  0  0  0  0  0  0  0  0  0  0  0
  144.9955  132.1280  162.4182 H   0  0  0  0  0  0  0  0  0  0  0  0
  148.6950  131.8100  157.9556 H   0  0  0  0  0  0  0  0  0  0  0  0
  147.9971  131.1304  159.4173 H   0  0  0  0  0  0  0  0  0  0  0  0
  147.5911  129.9278  156.9803 H   0  0  0  0  0  0  0  0  0  0  0  0
  146.3266  129.9502  158.2073 H   0  0  0  0  0  0  0  0  0  0  0  0
  146.6437  131.8583  155.8717 H   0  0  0  0  0  0  0  0  0  0  0  0
  145.1762  131.0076  156.3638 H   0  0  0  0  0  0  0  0  0  0  0  0
  144.8912  132.4419  158.2753 H   0  0  0  0  0  0  0  0  0  0  0  0
  145.6000  133.5825  157.1354 H   0  0  0  0  0  0  0  0  0  0  0  0
  150.0636  137.2156  156.1578 H   0  0  0  0  0  0  0  0  0  0  0  0
  149.8957  138.8853  155.7389 H   0  0  0  0  0  0  0  0  0  0  0  0
  151.5614  137.7588  154.3202 H   0  0  0  0  0  0  0  0  0  0  0  0
  152.3851  138.9819  155.2617 H   0  0  0  0  0  0  0  0  0  0  0  0
  153.7645  136.4854  157.5177 H   0  0  0  0  0  0  0  0  0  0  0  0
  153.7320  138.2045  157.1972 H   0  0  0  0  0  0  0  0  0  0  0  0
  152.2544  137.5518  159.1582 H   0  0  0  0  0  0  0  0  0  0  0  0
  151.4085  136.4533  158.1273 H   0  0  0  0  0  0  0  0  0  0  0  0
  152.4152  139.7517  157.1366 H   0  0  0  0  0  0  0  0  0  0  0  0
  145.5999  131.6257  160.2469 H   0  0  0  0  0  0  0  0  0  0  0  0
  1  2  1  0  0  0  0
  1 26  1  0  0  0  0
  1 27  1  0  0  0  0
  1 28  1  0  0  0  0
  2  3  1  0  0  0  0
  2  4  1  0  0  0  0
  2 54  1  0  0  0  0
  3 29  1  0  0  0  0
  3 30  1  0  0  0  0
  3 31  1  0  0  0  0
  4 25  1  0  0  0  0
  4  5  1  0  0  0  0
  4 21  1  0  0  0  0
  5  6  1  0  0  0  0
  5 32  1  0  0  0  0
  5 33  1  0  0  0  0
  6  7  1  0  0  0  0
  7  8  2  0  0  0  0
  7  9  1  0  0  0  0
  9 10  1  0  0  0  0
  9 34  1  0  0  0  0
 10 15  1  0  0  0  0
 10 11  2  0  0  0  0
 11 12  1  0  0  0  0
 11 35  1  0  0  0  0
 12 13  2  0  0  0  0
 12 36  1  0  0  0  0
 13 14  1  0  0  0  0
 13 37  1  0  0  0  0
 14 15  2  0  0  0  0
 14 55  1  0  0  0  0
 15 16  1  0  0  0  0
 16 20  1  0  0  0  0
 16 17  1  0  0  0  0
 17 18  1  0  0  0  0
 17 38  1  0  0  0  0
 17 39  1  0  0  0  0
 18 19  1  0  0  0  0
 18 40  1  0  0  0  0
 18 41  1  0  0  0  0
 19 20  1  0  0  0  0
 19 42  1  0  0  0  0
 19 43  1  0  0  0  0
 20 44  1  0  0  0  0
 20 45  1  0  0  0  0
 21 22  1  0  0  0  0
 21 46  1  0  0  0  0
 21 47  1  0  0  0  0
 22 23  1  0  0  0  0
 22 48  1  0  0  0  0
 22 49  1  0  0  0  0
 23 24  1  0  0  0  0
 24 25  1  0  0  0  0
 24 50  1  0  0  0  0
 24 51  1  0  0  0  0
 25 52  1  0  0  0  0
 25 53  1  0  0  0  0
M  CHG  1   2   1
M  CHG  1   6  -1
M  CHG  1  14   1
M  END
> <s_m_source_file>
AV-unprocessed.smi

> <i_m_source_file_index>
1010

> <i_lp_mmshare_version>
43012

> <i_f3d_flags>
0

> <s_epik_input>
W0NIMl0xW0NIMl1PW0NIMl1bQ0gyXUMxKE4oW0NIM10pW0NIM10pW0NIMl1bTkhdQyg9TylbTkhdYzJbY0hdW2NIXVtjSF1uYzJOM1tDSDJdW0NIMl1bQ0gyXVtDSDJdMw==

> <s_epik_cmdline>
J2VwaWtfcHl0aG9uJywgJy1waCcsICc3LjAnLCAnLXRuJywgJzgnLCAnLW1hJywgJzIwMCcsICctbWV0YWxfYmluZGluZycsICctaW1hZScsICc8aW5maWxlLm1hZT4nLCAnLW9tYWUnLCAnPG91dGZpbGUubWFlPic=

> <r_lp_tautomer_probability>
0.999994

> <r_epik_Ionization_Penalty>
8.43521

> <r_epik_Ionization_Penalty_Charging>
8.43521

> <r_epik_Ionization_Penalty_Neutral>
3.38325e-06

> <r_epik_State_Penalty>
7.95094

> <r_epik_Charging_Adjusted_Penalty>
16.3861

> <i_epik_Tot_Q>
1

> <i_epik_Tot_abs_Q>
3

> <r_epik_Metal_State_Penalty>
3.94206

> <b_epik_Metal_Only>
1

> <s_lp_Force_Field>
OPLS_2005

> <r_lp_Energy>
62.009

> <b_lp_Chiralities_Consistent>
1

> <s_lp_Variant>
AV-unprocessed.smi:1010-4

> <Gold.Version>
5.8.1

> <Gold.Id.Protein>
6NUR|6NUR_protein|mol2

> <Gold.PLP.Fitness>
33.9277

> <Gold.PLP.PLP>
-27.3250

> <Gold.PLP.part.hbond>
-3.0000

> <Gold.PLP.part.metal>
0.0000

> <Gold.PLP.part.buried>
-5.3269

> <Gold.PLP.part.nonpolar>
-19.3924

> <Gold.PLP.part.repulsive>
0.1477

> <Gold.PLP.ligand.clash>
0.0000

> <Gold.PLP.ligand.torsion>
0.5028

> <Gold.PLP.Chemscore.Hbond>
2.3520

> <Gold.PLP.Chemscore.CHOScore>
0.0000

> <Gold.PLP.Chemscore.Metal>
0.0000

> <Gold.Chemscore.Hbonds>
donor molecule, donor type, donor heavy atom, donor atom, acceptor molecule, acceptor atom, score
      P1  H  6931  6943       L1     8  0.82
      P1  H  6934  6947       L1     8  0.75
      P1  H 10752 10765       L1    23  0.75

> <Gold.PLP.Chemscore.Internal.Correction>
0.5523

> <Gold.Rescore>
     Score         DG    S(hbond)    S(metal)    S(lipo)     H(rot)  DE(clash)    DE(int)     intcor
     15.25     -17.19       2.33        0.00      68.63       1.60       0.00       1.94       ----

> <Gold.Chemscore.Fitness>
15.2464

> <Gold.Chemscore.DG>
-17.1879

> <Gold.Chemscore.ZeroCoef>
-5.4800

> <Gold.Chemscore.Hbond>
2.3302

> <Gold.Chemscore.Metal>
0.0000

> <Gold.Chemscore.Lipo>
68.6293

> <Gold.Chemscore.Internal_Hbond>
0.0000

> <Gold.Chemscore.DEClash>
0.0000

> <Gold.Chemscore.DEInternal>
1.9415

> <Gold.Chemscore.Rot>
1.6033

> <Gold.Chemscore.Internal.Correction>
   9.000000E+99

> <Gold.Chemscore.Hbonds>
donor molecule, donor type, donor heavy atom, donor atom, acceptor molecule, acceptor atom, score
      P1  H  6931  6943       L1     8  0.81
      P1  H  6934  6947       L1     8  0.74
      P1  H 10752 10765       L1    23  0.72

> <Gold.Chemscore.Hbond.Weighted>
-7.7828

> <Gold.Chemscore.Metal.Weighted>
-0.0000

> <Gold.Chemscore.Lipo.Weighted>
-8.0296

> <Gold.Chemscore.Internal_Hbond.Weighted>
0.0000

> <Gold.Chemscore.DEClash.Weighted>
0.0000

> <Gold.Chemscore.DEInternal.Weighted>
1.9415

> <Gold.Chemscore.Rot.Weighted>
4.1046

> <Gold.Chemscore.Internal.Correction.Weighted>
   9.000000E+99

> <Gold.Protein.RotatedTorsions>
[ 6907 6896 6895 6894 ] final  -99.42 input  -60.11 | X-H torsion
[ 7974 7965 7964 7962 ] final  153.27 input  175.53 | X-H torsion
[ 8008 7997 7996 7995 ] final   79.49 input   59.86 | X-H torsion
[ 10167 10162 10161 10158 ] final  116.28 input  -65.29 | X-H torsion
[ 10718 10713 10712 10709 ] final   55.53 input   66.30 | X-H torsion
[ 10763 10752 10751 10750 ] final -149.04 input  -60.55 | X-H torsion
[ 11005 11000 10999 10996 ] final   61.63 input  -57.11 | X-H torsion

> <Gold.Protein.ActiveResidues>
 VAL166  LYS551  ARG553  GLY616  TRP617  ASP618  TYR619  PRO620  LYS621  CYS622 
 ASP623  PHE694  ASN695  SER759  ASP760  ASP761  ALA762  ILE779  LEU786  VAL792 
 PHE793  MET794  SER795  GLU796  ALA797  LYS798  CYS799  TRP800  GLU811  SER814 

> <Gold.Protein.RotatedAtoms>
  150.7079  134.1043  159.3976 H   0  0  0  0  0  0  0  0  0  0  0  0  # atno 6907 bound_to 6896
  151.9029  135.0368  160.0517 H   0  0  0  0  0  0  0  0  0  0  0  0  # atno 6908 bound_to 6896
  152.2399  133.5091  159.5301 H   0  0  0  0  0  0  0  0  0  0  0  0  # atno 6909 bound_to 6896
  144.8166  139.6778  143.6119 H   0  0  0  0  0  0  0  0  0  0  0  0  # atno 7974 bound_to 7965
  155.8705  140.3449  155.5818 H   0  0  0  0  0  0  0  0  0  0  0  0  # atno 8008 bound_to 7997
  155.7833  140.0861  157.2067 H   0  0  0  0  0  0  0  0  0  0  0  0  # atno 8009 bound_to 7997
  154.4017  140.1496  156.3065 H   0  0  0  0  0  0  0  0  0  0  0  0  # atno 8010 bound_to 7997
  139.6258  144.7108  151.2536 H   0  0  0  0  0  0  0  0  0  0  0  0  # atno 10167 bound_to 10162
  157.5353  130.8659  149.8745 H   0  0  0  0  0  0  0  0  0  0  0  0  # atno 10718 bound_to 10713
  154.8199  135.3319  154.7067 H   0  0  0  0  0  0  0  0  0  0  0  0  # atno 10763 bound_to 10752
  153.7702  135.6926  153.4912 H   0  0  0  0  0  0  0  0  0  0  0  0  # atno 10764 bound_to 10752
  153.2050  135.4502  155.0260 H   0  0  0  0  0  0  0  0  0  0  0  0  # atno 10765 bound_to 10752
  140.0147  134.6242  155.9727 H   0  0  0  0  0  0  0  0  0  0  0  0  # atno 11005 bound_to 11000
  146.2469  139.6117  142.9453 LP  0  0  0  0  0  0  0  0  0  0  0  0  # atno 17320 bound_to 7965
  145.5201  141.0432  143.2440 LP  0  0  0  0  0  0  0  0  0  0  0  0  # atno 17321 bound_to 7965
  140.7410  143.6570  150.8198 LP  0  0  0  0  0  0  0  0  0  0  0  0  # atno 17342 bound_to 10162
  140.0188  143.5565  152.2809 LP  0  0  0  0  0  0  0  0  0  0  0  0  # atno 17343 bound_to 10162
  156.0454  130.3729  150.1331 LP  0  0  0  0  0  0  0  0  0  0  0  0  # atno 17370 bound_to 10713
  156.9514  130.9776  151.3497 LP  0  0  0  0  0  0  0  0  0  0  0  0  # atno 17371 bound_to 10713
  141.1735  133.6538  156.4740 LP  0  0  0  0  0  0  0  0  0  0  0  0  # atno 17394 bound_to 11000
  140.4491  134.6945  157.5030 LP  0  0  0  0  0  0  0  0  0  0  0  0  # atno 17395 bound_to 11000

$$$$
