AV-unprocessed.smi:148|AV-procd|sdf|1214|dock1
  -GOLD-   2262018393D 1   1.00000     0.00000
 Structure written by MMmdl.
 63 67  0  0  0  0  0  0  0  0  1 V2000
  144.2023  135.1683  152.0224 O   0  0  0  0  0  0  0  0  0  0  0  0
  145.5357  134.8056  152.3146 C   0  0  0  0  0  0  0  0  0  0  0  0
  145.6390  133.3103  152.6982 C   0  0  2  0  0  0  0  0  0  0  0  0
  147.0171  132.9767  153.3280 C   0  0  0  0  0  0  0  0  0  0  0  0
  147.1055  133.3802  154.7204 N   0  0  0  0  0  0  0  0  0  0  0  0
  146.1244  134.0035  155.4571 C   0  0  0  0  0  0  0  0  0  0  0  0
  146.4475  134.2802  156.6907 N   0  0  0  0  0  0  0  0  0  0  0  0
  147.7500  133.8108  156.8142 C   0  0  0  0  0  0  0  0  0  0  0  0
  148.7108  133.7990  157.8656 C   0  0  0  0  0  0  0  0  0  0  0  0
  148.5198  134.3213  159.0994 N   0  0  0  0  0  0  0  0  0  0  0  0
  147.7372  133.3841  159.9067 C   0  0  0  0  0  0  0  0  0  0  0  0
  147.6883  133.8092  161.3803 C   0  0  0  0  0  0  0  0  0  0  0  0
  147.1725  135.2463  161.5050 C   0  0  0  0  0  0  0  0  0  0  0  0
  148.0462  136.1812  160.6594 C   0  0  0  0  0  0  0  0  0  0  0  0
  148.0932  135.7319  159.1755 C   0  0  1  0  0  0  0  0  0  0  0  0
  148.9284  136.6960  158.2707 C   0  0  1  0  0  0  0  0  0  0  0  0
  148.1734  137.9677  157.8340 C   0  0  0  0  0  0  0  0  0  0  0  0
  149.2186  139.0899  157.7335 C   0  0  0  0  0  0  0  0  0  0  0  0
  150.5779  138.4228  157.9504 C   0  0  0  0  0  0  0  0  0  0  0  0
  150.2653  137.2149  158.8320 C   0  0  2  0  0  0  0  0  0  0  0  0
  151.3004  136.2578  158.7545 O   0  0  0  0  0  0  0  0  0  0  0  0
  149.9087  133.2112  157.6252 N   0  0  0  0  0  0  0  0  0  0  0  0
  150.1704  132.6948  156.4210 C   0  0  0  0  0  0  0  0  0  0  0  0
  149.3868  132.6552  155.3409 N   0  0  0  0  0  0  0  0  0  0  0  0
  148.1729  133.2263  155.5876 C   0  0  0  0  0  0  0  0  0  0  0  0
  145.2614  132.3832  151.5093 C   0  0  2  0  0  0  0  0  0  0  0  0
  145.9631  132.6829  150.1830 C   0  0  0  0  0  0  0  0  0  0  0  0
  144.8271  132.7250  149.1606 C   0  0  0  0  0  0  0  0  0  0  0  0
  143.7916  131.9670  149.7645 O   0  0  0  0  0  0  0  0  0  0  0  0
  143.7738  132.3314  151.1344 C   0  0  0  0  0  0  0  0  0  0  0  0
  144.1330  135.3358  151.0949 H   0  0  0  0  0  0  0  0  0  0  0  0
  146.1696  135.0323  151.4571 H   0  0  0  0  0  0  0  0  0  0  0  0
  145.8673  135.4471  153.1306 H   0  0  0  0  0  0  0  0  0  0  0  0
  144.8916  133.1334  153.4735 H   0  0  0  0  0  0  0  0  0  0  0  0
  147.2257  131.9086  153.2858 H   0  0  0  0  0  0  0  0  0  0  0  0
  147.8220  133.4669  152.7812 H   0  0  0  0  0  0  0  0  0  0  0  0
  145.1585  134.2558  155.0442 H   0  0  0  0  0  0  0  0  0  0  0  0
  146.7231  133.3278  159.5078 H   0  0  0  0  0  0  0  0  0  0  0  0
  148.1617  132.3813  159.8344 H   0  0  0  0  0  0  0  0  0  0  0  0
  147.0495  133.1294  161.9445 H   0  0  0  0  0  0  0  0  0  0  0  0
  148.6854  133.7358  161.8167 H   0  0  0  0  0  0  0  0  0  0  0  0
  146.1357  135.3019  161.1705 H   0  0  0  0  0  0  0  0  0  0  0  0
  147.1836  135.5610  162.5489 H   0  0  0  0  0  0  0  0  0  0  0  0
  147.6687  137.1984  160.7522 H   0  0  0  0  0  0  0  0  0  0  0  0
  149.0478  136.1828  161.0881 H   0  0  0  0  0  0  0  0  0  0  0  0
  147.0668  135.7654  158.8099 H   0  0  0  0  0  0  0  0  0  0  0  0
  149.1608  136.1944  157.3308 H   0  0  0  0  0  0  0  0  0  0  0  0
  147.6792  137.8036  156.8755 H   0  0  0  0  0  0  0  0  0  0  0  0
  147.3944  138.2557  158.5384 H   0  0  0  0  0  0  0  0  0  0  0  0
  149.1710  139.6162  156.7796 H   0  0  0  0  0  0  0  0  0  0  0  0
  149.0411  139.8239  158.5206 H   0  0  0  0  0  0  0  0  0  0  0  0
  150.9749  138.0929  156.9889 H   0  0  0  0  0  0  0  0  0  0  0  0
  151.3101  139.0950  158.3990 H   0  0  0  0  0  0  0  0  0  0  0  0
  150.1643  137.5543  159.8616 H   0  0  0  0  0  0  0  0  0  0  0  0
  151.3545  135.9451  157.8638 H   0  0  0  0  0  0  0  0  0  0  0  0
  151.1495  132.2540  156.3053 H   0  0  0  0  0  0  0  0  0  0  0  0
  145.5528  131.3644  151.7690 H   0  0  0  0  0  0  0  0  0  0  0  0
  146.5394  133.6073  150.1804 H   0  0  0  0  0  0  0  0  0  0  0  0
  146.6555  131.8750  149.9426 H   0  0  0  0  0  0  0  0  0  0  0  0
  144.4829  133.7495  149.0104 H   0  0  0  0  0  0  0  0  0  0  0  0
  145.1149  132.3152  148.1923 H   0  0  0  0  0  0  0  0  0  0  0  0
  143.2166  131.6099  151.7322 H   0  0  0  0  0  0  0  0  0  0  0  0
  143.2827  133.2991  151.2286 H   0  0  0  0  0  0  0  0  0  0  0  0
  1  2  1  0  0  0  0
  1 31  1  0  0  0  0
  2  3  1  0  0  0  0
  2 32  1  0  0  0  0
  2 33  1  0  0  0  0
  3  4  1  0  0  0  0
  3 26  1  0  0  0  0
  3 34  1  0  0  0  0
  4  5  1  0  0  0  0
  4 35  1  0  0  0  0
  4 36  1  0  0  0  0
  5 25  1  0  0  0  0
  5  6  1  0  0  0  0
  6  7  2  0  0  0  0
  6 37  1  0  0  0  0
  7  8  1  0  0  0  0
  8 25  2  0  0  0  0
  8  9  1  0  0  0  0
  9 10  1  0  0  0  0
  9 22  2  0  0  0  0
 10 15  1  0  0  0  0
 10 11  1  0  0  0  0
 11 12  1  0  0  0  0
 11 38  1  0  0  0  0
 11 39  1  0  0  0  0
 12 13  1  0  0  0  0
 12 40  1  0  0  0  0
 12 41  1  0  0  0  0
 13 14  1  0  0  0  0
 13 42  1  0  0  0  0
 13 43  1  0  0  0  0
 14 15  1  0  0  0  0
 14 44  1  0  0  0  0
 14 45  1  0  0  0  0
 15 16  1  0  0  0  0
 15 46  1  0  0  0  0
 16 20  1  0  0  0  0
 16 17  1  0  0  0  0
 16 47  1  0  0  0  0
 17 18  1  0  0  0  0
 17 48  1  0  0  0  0
 17 49  1  0  0  0  0
 18 19  1  0  0  0  0
 18 50  1  0  0  0  0
 18 51  1  0  0  0  0
 19 20  1  0  0  0  0
 19 52  1  0  0  0  0
 19 53  1  0  0  0  0
 20 21  1  0  0  0  0
 20 54  1  0  0  0  0
 21 55  1  0  0  0  0
 22 23  1  0  0  0  0
 23 24  2  0  0  0  0
 23 56  1  0  0  0  0
 24 25  1  0  0  0  0
 26 30  1  0  0  0  0
 26 27  1  0  0  0  0
 26 57  1  0  0  0  0
 27 28  1  0  0  0  0
 27 58  1  0  0  0  0
 27 59  1  0  0  0  0
 28 29  1  0  0  0  0
 28 60  1  0  0  0  0
 28 61  1  0  0  0  0
 29 30  1  0  0  0  0
 30 62  1  0  0  0  0
 30 63  1  0  0  0  0
M  END
> <s_m_source_file>
AV-unprocessed.smi

> <i_m_source_file_index>
148

> <i_lp_mmshare_version>
43012

> <i_f3d_flags>
0

> <s_epik_input>
W0NIMl0xT1tDSDJdW0NIMl1bQ0BIXTFbQ0BIXShbQ0gyXVtPSF0pW0NIMl1uKFtjSF1uMiljKGMyMyluW2NIXW5jM040W0NIMl1bQ0gyXVtDSDJdW0NIMl1bQ0BIXTRbQ0BASF01W0NIMl1bQ0gyXVtDSDJdW0NASF01W09IXQ==

> <s_epik_cmdline>
J2VwaWtfcHl0aG9uJywgJy1waCcsICc3LjAnLCAnLXRuJywgJzgnLCAnLW1hJywgJzIwMCcsICctbWV0YWxfYmluZGluZycsICctaW1hZScsICc8aW5maWxlLm1hZT4nLCAnLW9tYWUnLCAnPG91dGZpbGUubWFlPic=

> <r_lp_tautomer_probability>
1

> <r_epik_Ionization_Penalty>
0.00556303

> <r_epik_Ionization_Penalty_Charging>
0

> <r_epik_Ionization_Penalty_Neutral>
0.00556303

> <r_epik_State_Penalty>
0.00401767

> <r_epik_Charging_Adjusted_Penalty>
0.00401767

> <i_epik_Tot_Q>
0

> <i_epik_Tot_abs_Q>
0

> <r_epik_Metal_State_Penalty>
-0

> <b_epik_Metal_Only>
0

> <s_lp_Force_Field>
OPLS_2005

> <r_lp_Energy>
68.8384

> <b_lp_Chiralities_Consistent>
1

> <s_lp_Variant>
AV-unprocessed.smi:148-13

> <Gold.Version>
5.8.1

> <Gold.Id.Protein>
6NUR|6NUR_protein|mol2

> <Gold.PLP.Fitness>
43.0577

> <Gold.PLP.PLP>
-36.8015

> <Gold.PLP.part.hbond>
-3.6769

> <Gold.PLP.part.metal>
0.0000

> <Gold.PLP.part.buried>
-7.0021

> <Gold.PLP.part.nonpolar>
-27.1056

> <Gold.PLP.part.repulsive>
0.1850

> <Gold.PLP.ligand.clash>
0.0000

> <Gold.PLP.ligand.torsion>
1.2557

> <Gold.PLP.Chemscore.Hbond>
2.6566

> <Gold.PLP.Chemscore.CHOScore>
0.0000

> <Gold.PLP.Chemscore.Metal>
0.0000

> <Gold.Chemscore.Hbonds>
donor molecule, donor type, donor heavy atom, donor atom, acceptor molecule, acceptor atom, score
      P1  H  6896  6907       L1    21  0.72
      P1  H  6896  6909       L1    22  1.00
      P1  H 10785 10796       L1    29  0.57

> <Gold.PLP.Chemscore.Internal.Correction>
0.7980

> <Gold.Rescore>
     Score         DG    S(hbond)    S(metal)    S(lipo)     H(rot)  DE(clash)    DE(int)     intcor
     14.14     -15.36       2.41        0.00      88.22       3.32       0.04       1.18       ----

> <Gold.Chemscore.Fitness>
14.1388

> <Gold.Chemscore.DG>
-15.3555

> <Gold.Chemscore.ZeroCoef>
-5.4800

> <Gold.Chemscore.Hbond>
2.4112

> <Gold.Chemscore.Metal>
0.0000

> <Gold.Chemscore.Lipo>
88.2222

> <Gold.Chemscore.Internal_Hbond>
0.0000

> <Gold.Chemscore.DEClash>
0.0354

> <Gold.Chemscore.DEInternal>
1.1813

> <Gold.Chemscore.Rot>
3.3203

> <Gold.Chemscore.Internal.Correction>
   9.000000E+99

> <Gold.Chemscore.Hbonds>
donor molecule, donor type, donor heavy atom, donor atom, acceptor molecule, acceptor atom, score
      P1  H  6896  6907       L1    21  0.58
      P1  H  6896  6909       L1    22  0.54
      P1  H 10785 10796       L1    29  0.52

> <Gold.Chemscore.Hbond.Weighted>
-8.0535

> <Gold.Chemscore.Metal.Weighted>
-0.0000

> <Gold.Chemscore.Lipo.Weighted>
-10.3220

> <Gold.Chemscore.Internal_Hbond.Weighted>
0.0000

> <Gold.Chemscore.DEClash.Weighted>
0.0354

> <Gold.Chemscore.DEInternal.Weighted>
1.1813

> <Gold.Chemscore.Rot.Weighted>
8.5000

> <Gold.Chemscore.Internal.Correction.Weighted>
   9.000000E+99

> <Gold.Protein.RotatedTorsions>
[ 6907 6896 6895 6894 ] final  -20.58 input  -60.11 | X-H torsion
[ 7974 7965 7964 7962 ] final  154.38 input  175.53 | X-H torsion
[ 8008 7997 7996 7995 ] final  -81.07 input   59.86 | X-H torsion
[ 10167 10162 10161 10158 ] final -151.01 input  -65.29 | X-H torsion
[ 10718 10713 10712 10709 ] final  173.64 input   66.30 | X-H torsion
[ 10763 10752 10751 10750 ] final  -18.08 input  -60.55 | X-H torsion
[ 11005 11000 10999 10996 ] final  -19.56 input  -57.11 | X-H torsion

> <Gold.Protein.ActiveResidues>
 VAL166  LYS551  ARG553  GLY616  TRP617  ASP618  TYR619  PRO620  LYS621  CYS622 
 ASP623  PHE694  ASN695  SER759  ASP760  ASP761  ALA762  ILE779  LEU786  VAL792 
 PHE793  MET794  SER795  GLU796  ALA797  LYS798  CYS799  TRP800  GLU811  SER814 

> <Gold.Protein.RotatedAtoms>
  151.2461  135.0606  159.9043 H   0  0  0  0  0  0  0  0  0  0  0  0  # atno 6907 bound_to 6896
  152.5386  134.0382  159.8066 H   0  0  0  0  0  0  0  0  0  0  0  0  # atno 6908 bound_to 6896
  151.0583  133.5516  159.2667 H   0  0  0  0  0  0  0  0  0  0  0  0  # atno 6909 bound_to 6896
  144.8093  139.6925  143.6148 H   0  0  0  0  0  0  0  0  0  0  0  0  # atno 7974 bound_to 7965
  154.5946  140.0653  156.9286 H   0  0  0  0  0  0  0  0  0  0  0  0  # atno 8008 bound_to 7997
  155.2236  140.3332  155.4294 H   0  0  0  0  0  0  0  0  0  0  0  0  # atno 8009 bound_to 7997
  156.2278  140.1827  156.7302 H   0  0  0  0  0  0  0  0  0  0  0  0  # atno 8010 bound_to 7997
  139.7304  143.8817  152.2533 H   0  0  0  0  0  0  0  0  0  0  0  0  # atno 10167 bound_to 10162
  156.9613  131.0061  151.2927 H   0  0  0  0  0  0  0  0  0  0  0  0  # atno 10718 bound_to 10713
  153.5837  135.7004  153.5452 H   0  0  0  0  0  0  0  0  0  0  0  0  # atno 10763 bound_to 10752
  153.3239  135.4066  155.1439 H   0  0  0  0  0  0  0  0  0  0  0  0  # atno 10764 bound_to 10752
  154.8613  135.3702  154.5366 H   0  0  0  0  0  0  0  0  0  0  0  0  # atno 10765 bound_to 10752
  140.8379  133.7948  155.9828 H   0  0  0  0  0  0  0  0  0  0  0  0  # atno 11005 bound_to 11000
  146.2389  139.5961  142.9505 LP  0  0  0  0  0  0  0  0  0  0  0  0  # atno 17320 bound_to 7965
  145.5363  141.0424  143.2355 LP  0  0  0  0  0  0  0  0  0  0  0  0  # atno 17321 bound_to 7965
  139.8738  144.7054  150.8956 LP  0  0  0  0  0  0  0  0  0  0  0  0  # atno 17342 bound_to 10162
  140.7770  143.3716  151.1639 LP  0  0  0  0  0  0  0  0  0  0  0  0  # atno 17343 bound_to 10162
  157.5655  130.8275  149.8322 LP  0  0  0  0  0  0  0  0  0  0  0  0  # atno 17370 bound_to 10713
  156.0321  130.3761  150.1660 LP  0  0  0  0  0  0  0  0  0  0  0  0  # atno 17371 bound_to 10713
  140.8927  134.2475  157.5085 LP  0  0  0  0  0  0  0  0  0  0  0  0  # atno 17394 bound_to 11000
  139.8704  134.9669  156.4579 LP  0  0  0  0  0  0  0  0  0  0  0  0  # atno 17395 bound_to 11000

$$$$
