AV-unprocessed.smi:2284|AV-procd|sdf|9202|dock10
  -GOLD-   2272012423D 1   1.00000     0.00000
 Structure written by MMmdl.
 44 45  0  0  0  0  0  0  0  0  1 V2000
  151.4139  145.2813  159.4048 C   0  0  0  0  0  0  0  0  0  0  0  0
  151.7920  143.8198  159.2773 C   0  0  0  0  0  0  0  0  0  0  0  0
  152.5581  143.1913  160.2782 C   0  0  0  0  0  0  0  0  0  0  0  0
  152.9020  141.8333  160.1511 C   0  0  0  0  0  0  0  0  0  0  0  0
  152.4836  141.0961  159.0241 C   0  0  0  0  0  0  0  0  0  0  0  0
  152.8648  139.6325  158.8995 C   0  0  0  0  0  0  0  0  0  0  0  0
  151.7161  141.7158  158.0112 C   0  0  0  0  0  0  0  0  0  0  0  0
  151.3405  140.9377  156.9367 O   0  0  0  0  0  0  0  0  0  0  0  0
  150.6243  141.5469  155.8710 C   0  0  0  0  0  0  0  0  0  0  0  0
  150.0612  140.4343  154.9745 C   0  0  1  0  0  0  0  0  0  0  0  0
  149.5511  141.0513  153.8099 O   0  0  0  0  0  0  0  0  0  0  0  0
  151.1430  139.4058  154.5694 C   0  0  0  0  0  0  0  0  0  0  0  0
  150.6359  138.0255  154.6273 N   0  0  0  0  0  0  0  0  0  0  0  0
  149.2520  137.8624  154.4447 C   0  0  0  0  0  0  0  0  0  0  0  0
  148.6972  136.6949  154.4651 N   0  0  0  0  0  0  0  0  0  0  0  0
  149.4801  135.5553  154.6704 C   0  0  0  0  0  0  0  0  0  0  0  0
  148.7286  134.2361  154.6771 C   0  0  0  0  0  0  0  0  0  0  0  0
  150.8267  135.6448  154.8487 C   0  0  0  0  0  0  0  0  0  0  0  0
  151.7290  134.4383  155.0764 C   0  0  0  0  0  0  0  0  0  0  0  0
  151.4733  136.9670  154.8232 C   0  0  0  0  0  0  0  0  0  0  0  0
  152.6876  137.1193  154.9685 O   0  0  0  0  0  0  0  0  0  0  0  0
  151.3734  143.0848  158.1501 C   0  0  0  0  0  0  0  0  0  0  0  0
  151.8279  145.7231  160.3118 H   0  0  0  0  0  0  0  0  0  0  0  0
  150.3295  145.3893  159.4375 H   0  0  0  0  0  0  0  0  0  0  0  0
  151.7895  145.8444  158.5501 H   0  0  0  0  0  0  0  0  0  0  0  0
  152.8844  143.7460  161.1460 H   0  0  0  0  0  0  0  0  0  0  0  0
  153.4900  141.3599  160.9239 H   0  0  0  0  0  0  0  0  0  0  0  0
  153.4514  139.4694  157.9949 H   0  0  0  0  0  0  0  0  0  0  0  0
  151.9701  139.0117  158.8449 H   0  0  0  0  0  0  0  0  0  0  0  0
  153.4569  139.2995  159.7522 H   0  0  0  0  0  0  0  0  0  0  0  0
  149.8065  142.1439  156.2786 H   0  0  0  0  0  0  0  0  0  0  0  0
  151.2734  142.2059  155.2916 H   0  0  0  0  0  0  0  0  0  0  0  0
  149.2352  139.9503  155.4976 H   0  0  0  0  0  0  0  0  0  0  0  0
  149.5006  140.4043  153.1229 H   0  0  0  0  0  0  0  0  0  0  0  0
  151.5617  139.6462  153.5902 H   0  0  0  0  0  0  0  0  0  0  0  0
  151.9997  139.4875  155.2415 H   0  0  0  0  0  0  0  0  0  0  0  0
  148.6887  138.7830  154.2807 H   0  0  0  0  0  0  0  0  0  0  0  0
  148.8395  133.7384  155.6408 H   0  0  0  0  0  0  0  0  0  0  0  0
  149.1085  133.5758  153.8969 H   0  0  0  0  0  0  0  0  0  0  0  0
  147.6628  134.3848  154.4987 H   0  0  0  0  0  0  0  0  0  0  0  0
  152.4687  134.3676  154.2783 H   0  0  0  0  0  0  0  0  0  0  0  0
  151.1865  133.4948  155.1061 H   0  0  0  0  0  0  0  0  0  0  0  0
  152.2608  134.5397  156.0231 H   0  0  0  0  0  0  0  0  0  0  0  0
  150.7848  143.5940  157.4020 H   0  0  0  0  0  0  0  0  0  0  0  0
  1  2  1  0  0  0  0
  1 23  1  0  0  0  0
  1 24  1  0  0  0  0
  1 25  1  0  0  0  0
  2 22  1  0  0  0  0
  2  3  2  0  0  0  0
  3  4  1  0  0  0  0
  3 26  1  0  0  0  0
  4  5  2  0  0  0  0
  4 27  1  0  0  0  0
  5  6  1  0  0  0  0
  5  7  1  0  0  0  0
  6 28  1  0  0  0  0
  6 29  1  0  0  0  0
  6 30  1  0  0  0  0
  7  8  1  0  0  0  0
  7 22  2  0  0  0  0
  8  9  1  0  0  0  0
  9 10  1  0  0  0  0
  9 31  1  0  0  0  0
  9 32  1  0  0  0  0
 10 11  1  0  0  0  0
 10 12  1  0  0  0  0
 10 33  1  0  0  0  0
 11 34  1  0  0  0  0
 12 13  1  0  0  0  0
 12 35  1  0  0  0  0
 12 36  1  0  0  0  0
 13 20  1  0  0  0  0
 13 14  1  0  0  0  0
 14 15  2  0  0  0  0
 14 37  1  0  0  0  0
 15 16  1  0  0  0  0
 16 17  1  0  0  0  0
 16 18  2  0  0  0  0
 17 38  1  0  0  0  0
 17 39  1  0  0  0  0
 17 40  1  0  0  0  0
 18 19  1  0  0  0  0
 18 20  1  0  0  0  0
 19 41  1  0  0  0  0
 19 42  1  0  0  0  0
 19 43  1  0  0  0  0
 20 21  2  0  0  0  0
 22 44  1  0  0  0  0
M  END
> <s_m_source_file>
AV-unprocessed.smi

> <i_m_source_file_index>
2284

> <i_lp_mmshare_version>
43012

> <i_f3d_flags>
0

> <s_epik_input>
W0NIM11jMVtjSF1bY0hdYyhbQ0gzXSljKFtjSF0xKU9bQ0gyXVtDQEhdKFtPSF0pW0NIMl1uMltjSF1uYyhbQ0gzXSljKFtDSDNdKWMyPU8=

> <s_epik_cmdline>
J2VwaWtfcHl0aG9uJywgJy1waCcsICc3LjAnLCAnLXRuJywgJzgnLCAnLW1hJywgJzIwMCcsICctbWV0YWxfYmluZGluZycsICctaW1hZScsICc8aW5maWxlLm1hZT4nLCAnLW9tYWUnLCAnPG91dGZpbGUubWFlPic=

> <r_lp_tautomer_probability>
1

> <r_epik_Ionization_Penalty>
3.7476e-05

> <r_epik_Ionization_Penalty_Charging>
8.44705e-08

> <r_epik_Ionization_Penalty_Neutral>
3.73915e-05

> <r_epik_State_Penalty>
-0

> <r_epik_Charging_Adjusted_Penalty>
8.44705e-08

> <i_epik_Tot_Q>
0

> <i_epik_Tot_abs_Q>
0

> <r_epik_Metal_State_Penalty>
-0

> <b_epik_Metal_Only>
0

> <s_lp_Force_Field>
OPLS_2005

> <r_lp_Energy>
21.7941

> <b_lp_Chiralities_Consistent>
1

> <s_lp_Variant>
AV-unprocessed.smi:2284-2

> <Gold.Version>
5.8.1

> <Gold.Id.Protein>
6NUR|6NUR_protein|mol2

> <Gold.PLP.Fitness>
51.1516

> <Gold.PLP.PLP>
-46.3813

> <Gold.PLP.part.hbond>
-4.0000

> <Gold.PLP.part.metal>
0.0000

> <Gold.PLP.part.buried>
-3.8874

> <Gold.PLP.part.nonpolar>
-37.6087

> <Gold.PLP.part.repulsive>
0.3189

> <Gold.PLP.ligand.clash>
0.0790

> <Gold.PLP.ligand.torsion>
1.0551

> <Gold.PLP.Chemscore.Hbond>
2.3102

> <Gold.PLP.Chemscore.CHOScore>
0.0000

> <Gold.PLP.Chemscore.Metal>
0.0000

> <Gold.Chemscore.Hbonds>
donor molecule, donor type, donor heavy atom, donor atom, acceptor molecule, acceptor atom, score
      L1  H    11    34       P1  7957  0.93
      P1  H  8011  8017       L1    11  0.28
      P1  H 10752 10765       L1    21  0.33

> <Gold.PLP.Chemscore.Internal.Correction>
0.0290

> <Gold.Rescore>
     Score         DG    S(hbond)    S(metal)    S(lipo)     H(rot)  DE(clash)    DE(int)     intcor
     18.68     -19.95       1.82        0.00     122.58       2.32       0.20       1.07       ----

> <Gold.Chemscore.Fitness>
18.6819

> <Gold.Chemscore.DG>
-19.9504

> <Gold.Chemscore.ZeroCoef>
-5.4800

> <Gold.Chemscore.Hbond>
1.8193

> <Gold.Chemscore.Metal>
0.0000

> <Gold.Chemscore.Lipo>
122.5836

> <Gold.Chemscore.Internal_Hbond>
0.0000

> <Gold.Chemscore.DEClash>
0.1991

> <Gold.Chemscore.DEInternal>
1.0694

> <Gold.Chemscore.Rot>
2.3236

> <Gold.Chemscore.Internal.Correction>
   9.000000E+99

> <Gold.Chemscore.Hbonds>
donor molecule, donor type, donor heavy atom, donor atom, acceptor molecule, acceptor atom, score
      L1  H    11    34       P1  7957  0.87
      P1  H 10752 10765       L1    21  0.02

> <Gold.Chemscore.Hbond.Weighted>
-6.0765

> <Gold.Chemscore.Metal.Weighted>
-0.0000

> <Gold.Chemscore.Lipo.Weighted>
-14.3423

> <Gold.Chemscore.Internal_Hbond.Weighted>
0.0000

> <Gold.Chemscore.DEClash.Weighted>
0.1991

> <Gold.Chemscore.DEInternal.Weighted>
1.0694

> <Gold.Chemscore.Rot.Weighted>
5.9484

> <Gold.Chemscore.Internal.Correction.Weighted>
   9.000000E+99

> <Gold.Protein.RotatedTorsions>
[ 6907 6896 6895 6894 ] final   21.52 input  -60.11 | X-H torsion
[ 7974 7965 7964 7962 ] final -164.08 input  175.53 | X-H torsion
[ 8008 7997 7996 7995 ] final  118.12 input   59.86 | X-H torsion
[ 10167 10162 10161 10158 ] final   69.15 input  -65.29 | X-H torsion
[ 10718 10713 10712 10709 ] final   63.41 input   66.30 | X-H torsion
[ 10763 10752 10751 10750 ] final  178.69 input  -60.55 | X-H torsion
[ 11005 11000 10999 10996 ] final  148.17 input  -57.11 | X-H torsion

> <Gold.Protein.ActiveResidues>
 VAL166  LYS551  ARG553  GLY616  TRP617  ASP618  TYR619  PRO620  LYS621  CYS622 
 ASP623  PHE694  ASN695  SER759  ASP760  ASP761  ALA762  ILE779  LEU786  VAL792 
 PHE793  MET794  SER795  GLU796  ALA797  LYS798  CYS799  TRP800  GLU811  SER814 

> <Gold.Protein.RotatedAtoms>
  151.9130  135.0330  160.0515 H   0  0  0  0  0  0  0  0  0  0  0  0  # atno 6907 bound_to 6896
  152.2263  133.5018  159.5199 H   0  0  0  0  0  0  0  0  0  0  0  0  # atno 6908 bound_to 6896
  150.7013  134.1192  159.4071 H   0  0  0  0  0  0  0  0  0  0  0  0  # atno 6909 bound_to 6896
  144.7307  140.3013  143.6204 H   0  0  0  0  0  0  0  0  0  0  0  0  # atno 7974 bound_to 7965
  156.2530  140.2881  156.0785 H   0  0  0  0  0  0  0  0  0  0  0  0  # atno 8008 bound_to 7997
  155.1592  140.0399  157.2856 H   0  0  0  0  0  0  0  0  0  0  0  0  # atno 8009 bound_to 7997
  154.6405  140.2521  155.7334 H   0  0  0  0  0  0  0  0  0  0  0  0  # atno 8010 bound_to 7997
  140.0709  144.5153  150.7228 H   0  0  0  0  0  0  0  0  0  0  0  0  # atno 10167 bound_to 10162
  157.5969  130.9104  149.9712 H   0  0  0  0  0  0  0  0  0  0  0  0  # atno 10718 bound_to 10713
  154.5109  135.2788  155.1343 H   0  0  0  0  0  0  0  0  0  0  0  0  # atno 10763 bound_to 10752
  154.2939  135.6261  153.5400 H   0  0  0  0  0  0  0  0  0  0  0  0  # atno 10764 bound_to 10752
  152.9918  135.5680  154.5574 H   0  0  0  0  0  0  0  0  0  0  0  0  # atno 10765 bound_to 10752
  140.0937  134.9025  157.1691 H   0  0  0  0  0  0  0  0  0  0  0  0  # atno 11005 bound_to 11000
  145.7757  139.1873  143.2187 LP  0  0  0  0  0  0  0  0  0  0  0  0  # atno 17320 bound_to 7965
  146.0875  140.7694  142.9611 LP  0  0  0  0  0  0  0  0  0  0  0  0  # atno 17321 bound_to 7965
  140.7126  143.2517  151.4534 LP  0  0  0  0  0  0  0  0  0  0  0  0  # atno 17342 bound_to 10162
  139.5836  144.1653  152.2001 LP  0  0  0  0  0  0  0  0  0  0  0  0  # atno 17343 bound_to 10162
  156.1034  130.3654  150.0178 LP  0  0  0  0  0  0  0  0  0  0  0  0  # atno 17370 bound_to 10713
  156.8289  130.9385  151.3638 LP  0  0  0  0  0  0  0  0  0  0  0  0  # atno 17371 bound_to 10713
  140.3316  134.2803  155.7227 LP  0  0  0  0  0  0  0  0  0  0  0  0  # atno 17394 bound_to 11000
  141.2086  133.7774  157.0051 LP  0  0  0  0  0  0  0  0  0  0  0  0  # atno 17395 bound_to 11000

$$$$
