AV-unprocessed.smi:196|AV-procd|sdf|1533|dock8
  -GOLD-   2262019383D 1   1.00000     0.00000
 Structure written by MMmdl.
 47 50  0  0  0  0  0  0  0  0  1 V2000
  143.2897  132.4644  149.7828 C   0  0  0  0  0  0  0  0  0  0  0  0
  144.3785  132.5768  150.8625 C   0  0  1  0  0  0  0  0  0  0  0  0
  145.4850  131.7302  150.5527 O   0  0  0  0  0  0  0  0  0  0  0  0
  146.6810  132.4934  150.4848 C   0  0  0  0  0  0  0  0  0  0  0  0
  146.4191  133.6867  151.3944 C   0  0  0  0  0  0  0  0  0  0  0  0
  144.9516  133.9894  151.1257 C   0  0  1  0  0  0  0  0  0  0  0  0
  144.8697  134.7952  149.9603 O   0  0  0  0  0  0  0  0  0  0  0  0
  144.2387  134.7268  152.2838 C   0  0  0  0  0  0  0  0  0  0  0  0
  144.9970  135.8536  152.8047 N   0  0  0  0  0  0  0  0  0  0  0  0
  144.7450  137.1896  152.5850 C   0  0  0  0  0  0  0  0  0  0  0  0
  145.5709  138.0159  153.1672 N   0  0  0  0  0  0  0  0  0  0  0  0
  146.4632  137.1855  153.8328 C   0  0  0  0  0  0  0  0  0  0  0  0
  147.5982  137.4129  154.6537 C   0  0  0  0  0  0  0  0  0  0  0  0
  148.0288  138.6604  154.9538 N   0  0  0  0  0  0  0  0  0  0  0  0
  146.9738  139.6587  155.1145 C   0  0  0  0  0  0  0  0  0  0  0  0
  147.2187  140.6985  154.0264 C   0  0  1  0  0  0  0  0  0  0  0  0
  146.7468  141.9026  154.3480 F   0  0  0  0  0  0  0  0  0  0  0  0
  148.7339  140.6787  153.8953 C   0  0  0  0  0  0  0  0  0  0  0  0
  149.0767  139.1892  154.0656 C   0  0  1  0  0  0  0  0  0  0  0  0
  150.5111  138.9948  154.5902 C   0  0  0  0  0  0  0  0  0  0  0  0
  150.9603  137.7530  154.7974 N   0  0  0  0  0  0  0  0  0  0  0  0
  151.2184  139.9770  154.8031 O   0  0  0  0  0  0  0  0  0  0  0  0
  148.2577  136.3291  155.1428 N   0  0  0  0  0  0  0  0  0  0  0  0
  147.8269  135.0981  154.8499 C   0  0  0  0  0  0  0  0  0  0  0  0
  146.7813  134.7350  154.1034 N   0  0  0  0  0  0  0  0  0  0  0  0
  146.1221  135.8225  153.6100 C   0  0  0  0  0  0  0  0  0  0  0  0
  146.7509  140.3922  153.0897 H   0  0  0  0  0  0  0  0  0  0  0  0
  149.0176  138.7094  153.0863 H   0  0  0  0  0  0  0  0  0  0  0  0
  142.4434  133.1127  150.0107 H   0  0  0  0  0  0  0  0  0  0  0  0
  142.9163  131.4424  149.7175 H   0  0  0  0  0  0  0  0  0  0  0  0
  143.6695  132.7359  148.7975 H   0  0  0  0  0  0  0  0  0  0  0  0
  143.9689  132.1851  151.7945 H   0  0  0  0  0  0  0  0  0  0  0  0
  147.5474  131.9088  150.7943 H   0  0  0  0  0  0  0  0  0  0  0  0
  146.8385  132.8199  149.4558 H   0  0  0  0  0  0  0  0  0  0  0  0
  146.5567  133.3810  152.4326 H   0  0  0  0  0  0  0  0  0  0  0  0
  147.0862  134.5279  151.2008 H   0  0  0  0  0  0  0  0  0  0  0  0
  145.3843  134.3913  149.2783 H   0  0  0  0  0  0  0  0  0  0  0  0
  143.2608  135.0854  151.9599 H   0  0  0  0  0  0  0  0  0  0  0  0
  144.0521  134.0398  153.1103 H   0  0  0  0  0  0  0  0  0  0  0  0
  143.9200  137.5349  151.9786 H   0  0  0  0  0  0  0  0  0  0  0  0
  145.9622  139.2516  155.0630 H   0  0  0  0  0  0  0  0  0  0  0  0
  147.0902  140.1069  156.1021 H   0  0  0  0  0  0  0  0  0  0  0  0
  149.0763  141.0843  152.9429 H   0  0  0  0  0  0  0  0  0  0  0  0
  149.1792  141.2751  154.6942 H   0  0  0  0  0  0  0  0  0  0  0  0
  151.8980  137.6091  155.1446 H   0  0  0  0  0  0  0  0  0  0  0  0
  150.3595  136.9636  154.6094 H   0  0  0  0  0  0  0  0  0  0  0  0
  148.4017  134.2883  155.2748 H   0  0  0  0  0  0  0  0  0  0  0  0
  1  2  1  0  0  0  0
  1 29  1  0  0  0  0
  1 30  1  0  0  0  0
  1 31  1  0  0  0  0
  2  6  1  0  0  0  0
  2  3  1  0  0  0  0
  2 32  1  0  0  0  0
  3  4  1  0  0  0  0
  4  5  1  0  0  0  0
  4 33  1  0  0  0  0
  4 34  1  0  0  0  0
  5  6  1  0  0  0  0
  5 35  1  0  0  0  0
  5 36  1  0  0  0  0
  6  7  1  0  0  0  0
  6  8  1  0  0  0  0
  7 37  1  0  0  0  0
  8  9  1  0  0  0  0
  8 38  1  0  0  0  0
  8 39  1  0  0  0  0
  9 26  1  0  0  0  0
  9 10  1  0  0  0  0
 10 11  2  0  0  0  0
 10 40  1  0  0  0  0
 11 12  1  0  0  0  0
 12 26  2  0  0  0  0
 12 13  1  0  0  0  0
 13 14  1  0  0  0  0
 13 23  2  0  0  0  0
 14 19  1  0  0  0  0
 14 15  1  0  0  0  0
 15 16  1  0  0  0  0
 15 41  1  0  0  0  0
 15 42  1  0  0  0  0
 16 27  1  0  0  0  0
 16 17  1  0  0  0  0
 16 18  1  0  0  0  0
 18 19  1  0  0  0  0
 18 43  1  0  0  0  0
 18 44  1  0  0  0  0
 19 28  1  0  0  0  0
 19 20  1  0  0  0  0
 20 21  1  0  0  0  0
 20 22  2  0  0  0  0
 21 45  1  0  0  0  0
 21 46  1  0  0  0  0
 23 24  1  0  0  0  0
 24 25  2  0  0  0  0
 24 47  1  0  0  0  0
 25 26  1  0  0  0  0
M  END
> <s_m_source_file>
AV-unprocessed.smi

> <i_m_source_file_index>
196

> <i_lp_mmshare_version>
43012

> <i_f3d_flags>
0

> <s_epik_input>
W0NIMl0xW0NIMl1PW0NAQEhdKFtDSDNdKVtDQEBdMShbT0hdKVtDSDJdbihbY0hdbjIpYyhjMjMpbltjSF1uYzNONFtDSDJdW0NASF0oRilbQ0gyXVtDQEhdNEMoPU8pW05IMl0=

> <s_epik_cmdline>
J2VwaWtfcHl0aG9uJywgJy1waCcsICc3LjAnLCAnLXRuJywgJzgnLCAnLW1hJywgJzIwMCcsICctbWV0YWxfYmluZGluZycsICctaW1hZScsICc8aW5maWxlLm1hZT4nLCAnLW9tYWUnLCAnPG91dGZpbGUubWFlPic=

> <r_lp_tautomer_probability>
1

> <r_epik_Ionization_Penalty>
0.000857933

> <r_epik_Ionization_Penalty_Charging>
0

> <r_epik_Ionization_Penalty_Neutral>
0.000857933

> <r_epik_State_Penalty>
0.000462053

> <r_epik_Charging_Adjusted_Penalty>
0.000462053

> <i_epik_Tot_Q>
0

> <i_epik_Tot_abs_Q>
0

> <r_epik_Metal_State_Penalty>
-0

> <b_epik_Metal_Only>
0

> <s_lp_Force_Field>
OPLS_2005

> <r_lp_Energy>
45.9197

> <b_lp_Chiralities_Consistent>
1

> <s_lp_Variant>
AV-unprocessed.smi:196-6

> <Gold.Version>
5.8.1

> <Gold.Id.Protein>
6NUR|6NUR_protein|mol2

> <Gold.PLP.Fitness>
39.9409

> <Gold.PLP.PLP>
-32.4971

> <Gold.PLP.part.hbond>
-1.9660

> <Gold.PLP.part.metal>
0.0000

> <Gold.PLP.part.buried>
-1.0969

> <Gold.PLP.part.nonpolar>
-29.6713

> <Gold.PLP.part.repulsive>
0.7573

> <Gold.PLP.ligand.clash>
0.0000

> <Gold.PLP.ligand.torsion>
1.0522

> <Gold.PLP.Chemscore.Hbond>
2.0000

> <Gold.PLP.Chemscore.CHOScore>
1.1524

> <Gold.PLP.Chemscore.Metal>
0.0000

> <Gold.Chemscore.Hbonds>
donor molecule, donor type, donor heavy atom, donor atom, acceptor molecule, acceptor atom, score
      L1  H     7    37       P1  7921  0.80
      P1  H  7989  7998       L1    22  1.00
      L1  C    10    40       P1 10171  1.00

> <Gold.PLP.Chemscore.Internal.Correction>
0.0909

> <Gold.Rescore>
     Score         DG    S(hbond)    S(metal)    S(lipo)     H(rot)  DE(clash)    DE(int)     intcor
      7.23     -12.14       1.93        0.00      68.49       3.04       1.82       3.09       ----

> <Gold.Chemscore.Fitness>
7.2320

> <Gold.Chemscore.DG>
-12.1382

> <Gold.Chemscore.ZeroCoef>
-5.4800

> <Gold.Chemscore.Hbond>
1.9251

> <Gold.Chemscore.Metal>
0.0000

> <Gold.Chemscore.Lipo>
68.4946

> <Gold.Chemscore.Internal_Hbond>
0.0000

> <Gold.Chemscore.DEClash>
1.8164

> <Gold.Chemscore.DEInternal>
3.0898

> <Gold.Chemscore.Rot>
3.0413

> <Gold.Chemscore.Internal.Correction>
   9.000000E+99

> <Gold.Chemscore.Hbonds>
donor molecule, donor type, donor heavy atom, donor atom, acceptor molecule, acceptor atom, score
      L1  H     7    37       P1  7921  0.77
      P1  H  7989  7998       L1    22  0.94

> <Gold.Chemscore.Hbond.Weighted>
-6.4299

> <Gold.Chemscore.Metal.Weighted>
-0.0000

> <Gold.Chemscore.Lipo.Weighted>
-8.0139

> <Gold.Chemscore.Internal_Hbond.Weighted>
0.0000

> <Gold.Chemscore.DEClash.Weighted>
1.8164

> <Gold.Chemscore.DEInternal.Weighted>
3.0898

> <Gold.Chemscore.Rot.Weighted>
7.7856

> <Gold.Chemscore.Internal.Correction.Weighted>
   9.000000E+99

> <Gold.Protein.RotatedTorsions>
[ 6907 6896 6895 6894 ] final  -58.81 input  -60.11 | X-H torsion
[ 7974 7965 7964 7962 ] final  -84.74 input  175.53 | X-H torsion
[ 8008 7997 7996 7995 ] final -110.36 input   59.86 | X-H torsion
[ 10167 10162 10161 10158 ] final  109.98 input  -65.29 | X-H torsion
[ 10718 10713 10712 10709 ] final  -44.34 input   66.30 | X-H torsion
[ 10763 10752 10751 10750 ] final  -64.54 input  -60.55 | X-H torsion
[ 11005 11000 10999 10996 ] final  140.75 input  -57.11 | X-H torsion

> <Gold.Protein.ActiveResidues>
 VAL166  LYS551  ARG553  GLY616  TRP617  ASP618  TYR619  PRO620  LYS621  CYS622 
 ASP623  PHE694  ASN695  SER759  ASP760  ASP761  ALA762  ILE779  LEU786  VAL792 
 PHE793  MET794  SER795  GLU796  ALA797  LYS798  CYS799  TRP800  GLU811  SER814 

> <Gold.Protein.RotatedAtoms>
  150.7978  134.7050  159.6571 H   0  0  0  0  0  0  0  0  0  0  0  0  # atno 6907 bound_to 6896
  152.4092  134.6150  160.0045 H   0  0  0  0  0  0  0  0  0  0  0  0  # atno 6908 bound_to 6896
  151.6398  133.3290  159.3164 H   0  0  0  0  0  0  0  0  0  0  0  0  # atno 6909 bound_to 6896
  145.5026  140.9546  143.1751 H   0  0  0  0  0  0  0  0  0  0  0  0  # atno 7974 bound_to 7965
  154.9734  140.0397  157.2245 H   0  0  0  0  0  0  0  0  0  0  0  0  # atno 8008 bound_to 7997
  154.7780  140.2814  155.6063 H   0  0  0  0  0  0  0  0  0  0  0  0  # atno 8009 bound_to 7997
  156.2932  140.2597  156.2599 H   0  0  0  0  0  0  0  0  0  0  0  0  # atno 8010 bound_to 7997
  139.6724  144.7124  151.1663 H   0  0  0  0  0  0  0  0  0  0  0  0  # atno 10167 bound_to 10162
  156.2396  130.4179  149.8776 H   0  0  0  0  0  0  0  0  0  0  0  0  # atno 10718 bound_to 10713
  154.3316  135.6175  153.5554 H   0  0  0  0  0  0  0  0  0  0  0  0  # atno 10763 bound_to 10752
  152.9811  135.5748  154.4955 H   0  0  0  0  0  0  0  0  0  0  0  0  # atno 10764 bound_to 10752
  154.4642  135.2857  155.1667 H   0  0  0  0  0  0  0  0  0  0  0  0  # atno 10765 bound_to 10752
  140.0350  134.9333  157.0735 H   0  0  0  0  0  0  0  0  0  0  0  0  # atno 11005 bound_to 11000
  144.7771  139.6605  143.7170 LP  0  0  0  0  0  0  0  0  0  0  0  0  # atno 17320 bound_to 7965
  146.2216  139.5647  142.9614 LP  0  0  0  0  0  0  0  0  0  0  0  0  # atno 17321 bound_to 7965
  140.7623  143.5823  150.8882 LP  0  0  0  0  0  0  0  0  0  0  0  0  # atno 17342 bound_to 10162
  139.9490  143.6294  152.3034 LP  0  0  0  0  0  0  0  0  0  0  0  0  # atno 17343 bound_to 10162
  156.6362  130.8686  151.3505 LP  0  0  0  0  0  0  0  0  0  0  0  0  # atno 17370 bound_to 10713
  157.7169  130.9509  150.1291 LP  0  0  0  0  0  0  0  0  0  0  0  0  # atno 17371 bound_to 10713
  140.4162  134.1928  155.7163 LP  0  0  0  0  0  0  0  0  0  0  0  0  # atno 17394 bound_to 11000
  141.1852  133.8328  157.1112 LP  0  0  0  0  0  0  0  0  0  0  0  0  # atno 17395 bound_to 11000

$$$$
