AV-unprocessed.smi:3039|AV-procd|sdf|11594|dock7
  -GOLD-   2272016573D 1   1.00000     0.00000
 Structure written by MMmdl.
 38 39  0  0  0  0  0  0  0  0  1 V2000
  148.7951  141.9063  157.3932 O   0  0  0  0  0  0  0  0  0  0  0  0
  149.5715  141.5496  156.5071 C   0  0  0  0  0  0  0  0  0  0  0  0
  149.0344  140.8589  155.2535 C   0  0  0  0  0  0  0  0  0  0  0  0
  149.9381  139.7203  154.8645 C   0  0  0  0  0  0  0  0  0  0  0  0
  149.5768  138.4024  154.4679 C   0  0  0  0  0  0  0  0  0  0  0  0
  150.7786  137.7973  154.2382 C   0  0  0  0  0  0  0  0  0  0  0  0
  151.7979  138.6633  154.4663 O   0  0  0  0  0  0  0  0  0  0  0  0
  151.2518  139.8890  154.8638 N   0  0  0  0  0  0  0  0  0  0  0  0
  150.9010  141.7285  156.5685 N   0  0  0  0  0  0  0  0  0  0  0  0
  151.6273  142.3748  157.6622 C   0  0  1  0  0  0  0  0  0  0  0  0
  150.9660  143.7383  157.9765 C   0  0  0  0  0  0  0  0  0  0  0  0
  151.9517  144.7771  158.5426 C   0  0  0  0  0  0  0  0  0  0  0  0
  152.3614  144.5594  160.0051 C   0  0  0  0  0  0  0  0  0  0  0  0
  152.9701  143.1798  160.2963 C   0  0  0  0  0  0  0  0  0  0  0  0
  151.9244  142.0544  160.2415 C   0  0  0  0  0  0  0  0  0  0  0  0
  151.7269  141.3844  158.8615 C   0  0  2  0  0  0  0  0  0  0  0  0
  152.8167  140.3064  158.6366 C   0  0  0  0  0  0  0  0  0  0  0  0
  152.6906  139.6714  157.3810 O   0  0  0  0  0  0  0  0  0  0  0  0
  148.0266  140.4912  155.4499 H   0  0  0  0  0  0  0  0  0  0  0  0
  148.9456  141.5855  154.4445 H   0  0  0  0  0  0  0  0  0  0  0  0
  148.5918  137.9703  154.3728 H   0  0  0  0  0  0  0  0  0  0  0  0
  151.0609  136.8038  153.9224 H   0  0  0  0  0  0  0  0  0  0  0  0
  151.4556  141.4005  155.7908 H   0  0  0  0  0  0  0  0  0  0  0  0
  152.6428  142.5747  157.3158 H   0  0  0  0  0  0  0  0  0  0  0  0
  150.5698  144.1623  157.0525 H   0  0  0  0  0  0  0  0  0  0  0  0
  150.1021  143.6157  158.6306 H   0  0  0  0  0  0  0  0  0  0  0  0
  152.8422  144.8184  157.9143 H   0  0  0  0  0  0  0  0  0  0  0  0
  151.4954  145.7645  158.4655 H   0  0  0  0  0  0  0  0  0  0  0  0
  153.0879  145.3267  160.2749 H   0  0  0  0  0  0  0  0  0  0  0  0
  151.5020  144.7271  160.6555 H   0  0  0  0  0  0  0  0  0  0  0  0
  153.8115  142.9727  159.6341 H   0  0  0  0  0  0  0  0  0  0  0  0
  153.3847  143.2085  161.3046 H   0  0  0  0  0  0  0  0  0  0  0  0
  152.1948  141.2901  160.9710 H   0  0  0  0  0  0  0  0  0  0  0  0
  150.9671  142.4359  160.5988 H   0  0  0  0  0  0  0  0  0  0  0  0
  150.7734  140.8589  158.9430 H   0  0  0  0  0  0  0  0  0  0  0  0
  153.8141  140.7381  158.7230 H   0  0  0  0  0  0  0  0  0  0  0  0
  152.7467  139.5243  159.3931 H   0  0  0  0  0  0  0  0  0  0  0  0
  151.7722  139.6117  157.1658 H   0  0  0  0  0  0  0  0  0  0  0  0
  1  2  2  0  0  0  0
  2  3  1  0  0  0  0
  2  9  1  0  0  0  0
  3  4  1  0  0  0  0
  3 19  1  0  0  0  0
  3 20  1  0  0  0  0
  4  8  2  0  0  0  0
  4  5  1  0  0  0  0
  5  6  2  0  0  0  0
  5 21  1  0  0  0  0
  6  7  1  0  0  0  0
  6 22  1  0  0  0  0
  7  8  1  0  0  0  0
  9 10  1  0  0  0  0
  9 23  1  0  0  0  0
 10 16  1  0  0  0  0
 10 11  1  0  0  0  0
 10 24  1  0  0  0  0
 11 12  1  0  0  0  0
 11 25  1  0  0  0  0
 11 26  1  0  0  0  0
 12 13  1  0  0  0  0
 12 27  1  0  0  0  0
 12 28  1  0  0  0  0
 13 14  1  0  0  0  0
 13 29  1  0  0  0  0
 13 30  1  0  0  0  0
 14 15  1  0  0  0  0
 14 31  1  0  0  0  0
 14 32  1  0  0  0  0
 15 16  1  0  0  0  0
 15 33  1  0  0  0  0
 15 34  1  0  0  0  0
 16 17  1  0  0  0  0
 16 35  1  0  0  0  0
 17 18  1  0  0  0  0
 17 36  1  0  0  0  0
 17 37  1  0  0  0  0
 18 38  1  0  0  0  0
M  END
> <s_m_source_file>
AV-unprocessed.smi

> <i_m_source_file_index>
3039

> <i_lp_mmshare_version>
43012

> <i_f3d_flags>
0

> <s_epik_input>
bjFvW2NIXVtjSF1jMVtDSDJdQyg9TylbTkhdW0NAQEhdMltDSDJdW0NIMl1bQ0gyXVtDSDJdW0NIMl1bQ0BIXTJbQ0gyXVtPSF0=

> <s_epik_cmdline>
J2VwaWtfcHl0aG9uJywgJy1waCcsICc3LjAnLCAnLXRuJywgJzgnLCAnLW1hJywgJzIwMCcsICctbWV0YWxfYmluZGluZycsICctaW1hZScsICc8aW5maWxlLm1hZT4nLCAnLW9tYWUnLCAnPG91dGZpbGUubWFlPic=

> <r_lp_tautomer_probability>
1

> <r_epik_Ionization_Penalty>
3.05817e-07

> <r_epik_Ionization_Penalty_Charging>
0

> <r_epik_Ionization_Penalty_Neutral>
3.05817e-07

> <r_epik_State_Penalty>
-0

> <r_epik_Charging_Adjusted_Penalty>
0

> <i_epik_Tot_Q>
0

> <i_epik_Tot_abs_Q>
0

> <r_epik_Metal_State_Penalty>
-0

> <b_epik_Metal_Only>
0

> <s_lp_Force_Field>
OPLS_2005

> <r_lp_Energy>
18.8226

> <b_lp_Chiralities_Consistent>
1

> <s_lp_Variant>
AV-unprocessed.smi:3039-4

> <Gold.Version>
5.8.1

> <Gold.Id.Protein>
6NUR|6NUR_protein|mol2

> <Gold.PLP.Fitness>
42.2137

> <Gold.PLP.PLP>
-34.5723

> <Gold.PLP.part.hbond>
-2.5977

> <Gold.PLP.part.metal>
0.0000

> <Gold.PLP.part.buried>
-3.1223

> <Gold.PLP.part.nonpolar>
-29.2664

> <Gold.PLP.part.repulsive>
0.4048

> <Gold.PLP.ligand.clash>
0.0000

> <Gold.PLP.ligand.torsion>
0.6323

> <Gold.PLP.Chemscore.Hbond>
2.0000

> <Gold.PLP.Chemscore.CHOScore>
0.9524

> <Gold.PLP.Chemscore.Metal>
0.0000

> <Gold.Chemscore.Hbonds>
donor molecule, donor type, donor heavy atom, donor atom, acceptor molecule, acceptor atom, score
      P1  H  7989  7998       L1     8  1.00
      P1  H  7997  8009       L1    18  1.00
      L1  C     6    22       P1  7949  0.83

> <Gold.PLP.Chemscore.Internal.Correction>
0.0488

> <Gold.Rescore>
     Score         DG    S(hbond)    S(metal)    S(lipo)     H(rot)  DE(clash)    DE(int)     intcor
     13.91     -17.65       1.73        0.00     104.15       2.26       0.17       3.57       ----

> <Gold.Chemscore.Fitness>
13.9067

> <Gold.Chemscore.DG>
-17.6471

> <Gold.Chemscore.ZeroCoef>
-5.4800

> <Gold.Chemscore.Hbond>
1.7280

> <Gold.Chemscore.Metal>
0.0000

> <Gold.Chemscore.Lipo>
104.1462

> <Gold.Chemscore.Internal_Hbond>
0.0000

> <Gold.Chemscore.DEClash>
0.1742

> <Gold.Chemscore.DEInternal>
3.5661

> <Gold.Chemscore.Rot>
2.2616

> <Gold.Chemscore.Internal.Correction>
   9.000000E+99

> <Gold.Chemscore.Hbonds>
donor molecule, donor type, donor heavy atom, donor atom, acceptor molecule, acceptor atom, score
      P1  H  7989  7998       L1     8  0.17
      P1  H  7997  8009       L1    18  0.30

> <Gold.Chemscore.Hbond.Weighted>
-5.7716

> <Gold.Chemscore.Metal.Weighted>
-0.0000

> <Gold.Chemscore.Lipo.Weighted>
-12.1851

> <Gold.Chemscore.Internal_Hbond.Weighted>
0.0000

> <Gold.Chemscore.DEClash.Weighted>
0.1742

> <Gold.Chemscore.DEInternal.Weighted>
3.5661

> <Gold.Chemscore.Rot.Weighted>
5.7896

> <Gold.Chemscore.Internal.Correction.Weighted>
   9.000000E+99

> <Gold.Protein.RotatedTorsions>
[ 6907 6896 6895 6894 ] final   36.98 input  -60.11 | X-H torsion
[ 7974 7965 7964 7962 ] final  142.82 input  175.53 | X-H torsion
[ 8008 7997 7996 7995 ] final -175.82 input   59.86 | X-H torsion
[ 10167 10162 10161 10158 ] final  -52.79 input  -65.29 | X-H torsion
[ 10718 10713 10712 10709 ] final   28.01 input   66.30 | X-H torsion
[ 10763 10752 10751 10750 ] final   77.48 input  -60.55 | X-H torsion
[ 11005 11000 10999 10996 ] final  111.92 input  -57.11 | X-H torsion

> <Gold.Protein.ActiveResidues>
 VAL166  LYS551  ARG553  GLY616  TRP617  ASP618  TYR619  PRO620  LYS621  CYS622 
 ASP623  PHE694  ASN695  SER759  ASP760  ASP761  ALA762  ILE779  LEU786  VAL792 
 PHE793  MET794  SER795  GLU796  ALA797  LYS798  CYS799  TRP800  GLU811  SER814 

> <Gold.Protein.RotatedAtoms>
  152.1370  134.9091  160.0555 H   0  0  0  0  0  0  0  0  0  0  0  0  # atno 6907 bound_to 6896
  152.0174  133.3880  159.4252 H   0  0  0  0  0  0  0  0  0  0  0  0  # atno 6908 bound_to 6896
  150.6861  134.3585  159.4984 H   0  0  0  0  0  0  0  0  0  0  0  0  # atno 6909 bound_to 6896
  144.8975  139.5470  143.5769 H   0  0  0  0  0  0  0  0  0  0  0  0  # atno 7974 bound_to 7965
  155.9873  140.1194  157.0671 H   0  0  0  0  0  0  0  0  0  0  0  0  # atno 8008 bound_to 7997
  154.4200  140.1132  156.5585 H   0  0  0  0  0  0  0  0  0  0  0  0  # atno 8009 bound_to 7997
  155.6390  140.3473  155.4711 H   0  0  0  0  0  0  0  0  0  0  0  0  # atno 8010 bound_to 7997
  140.6519  143.2572  151.4699 H   0  0  0  0  0  0  0  0  0  0  0  0  # atno 10167 bound_to 10162
  157.2278  130.7009  149.6299 H   0  0  0  0  0  0  0  0  0  0  0  0  # atno 10718 bound_to 10713
  153.0801  135.4913  154.8486 H   0  0  0  0  0  0  0  0  0  0  0  0  # atno 10763 bound_to 10752
  154.7140  135.3025  154.9155 H   0  0  0  0  0  0  0  0  0  0  0  0  # atno 10764 bound_to 10752
  153.9840  135.6786  153.4804 H   0  0  0  0  0  0  0  0  0  0  0  0  # atno 10765 bound_to 10752
  139.8915  134.9519  156.6507 H   0  0  0  0  0  0  0  0  0  0  0  0  # atno 11005 bound_to 11000
  146.3089  139.7677  142.9035 LP  0  0  0  0  0  0  0  0  0  0  0  0  # atno 17320 bound_to 7965
  145.3675  141.0337  143.3250 LP  0  0  0  0  0  0  0  0  0  0  0  0  # atno 17321 bound_to 7965
  139.5735  144.1873  152.1870 LP  0  0  0  0  0  0  0  0  0  0  0  0  # atno 17342 bound_to 10162
  140.1176  144.5402  150.6884 LP  0  0  0  0  0  0  0  0  0  0  0  0  # atno 17343 bound_to 10162
  155.9677  130.4499  150.5675 LP  0  0  0  0  0  0  0  0  0  0  0  0  # atno 17370 bound_to 10713
  157.3510  131.0733  151.1713 LP  0  0  0  0  0  0  0  0  0  0  0  0  # atno 17371 bound_to 10713
  140.7523  133.8887  155.8356 LP  0  0  0  0  0  0  0  0  0  0  0  0  # atno 17394 bound_to 11000
  140.9990  134.1175  157.4335 LP  0  0  0  0  0  0  0  0  0  0  0  0  # atno 17395 bound_to 11000

$$$$
