AV-unprocessed.smi:21|AV-procd|sdf|128|dock7
  -GOLD-   2262015313D 1   1.00000     0.00000
 Structure written by MMmdl.
 62 65  0  0  0  0  0  0  0  0  2 V2000
  145.1550  132.4647  151.5070 C   0  0  0  0  0  0  0  0  0  0  0  0
  146.0054  132.0433  152.5617 O   0  0  0  0  0  0  0  0  0  0  0  0
  147.0474  132.9626  152.8528 C   0  0  2  0  0  0  0  0  0  0  0  0
  148.0011  132.4677  153.9342 C   0  0  0  0  0  0  0  0  0  0  0  0
  148.6225  133.7554  154.4977 C   0  0  2  0  0  0  0  0  0  0  0  0
  149.1437  133.6230  155.9536 C   0  0  0  0  0  0  0  0  0  0  0  0
  150.5129  134.1101  156.1334 N   0  0  0  0  0  0  0  0  0  0  0  0
  151.4338  133.2650  156.8887 C   0  0  0  0  0  0  0  0  0  0  0  0
  150.7254  135.4548  156.1416 C   0  0  0  0  0  0  0  0  0  0  0  0
  151.1848  136.0554  155.0107 N   0  0  0  0  0  0  0  0  0  0  0  0
  151.4595  137.3622  154.9966 C   0  0  0  0  0  0  0  0  0  0  0  0
  151.3550  138.2452  155.9897 N   0  0  0  0  0  0  0  0  0  0  0  0
  150.8781  137.6586  157.1235 C   0  0  0  0  0  0  0  0  0  0  0  0
  150.5281  136.2868  157.2834 C   0  0  0  0  0  0  0  0  0  0  0  0
  150.0551  136.0751  158.5740 N   0  0  0  0  0  0  0  0  0  0  0  0
  150.1413  137.2433  159.1479 C   0  0  0  0  0  0  0  0  0  0  0  0
  150.6571  138.2442  158.3575 N   0  0  0  0  0  0  0  0  0  0  0  0
  150.8802  139.6257  158.7432 C   0  0  0  0  0  0  0  0  0  0  0  0
  151.3267  140.5619  157.5844 C   0  0  1  0  0  0  0  0  0  0  0  0
  150.1127  140.8404  156.6643 C   0  0  0  0  0  0  0  0  0  0  0  0
  150.3852  141.8807  155.7478 O   0  0  0  0  0  0  0  0  0  0  0  0
  151.9847  141.8866  158.0794 C   0  0  2  0  0  0  0  0  0  0  0  0
  153.1617  141.7072  159.0277 C   0  0  0  0  0  0  0  0  0  0  0  0
  153.2785  143.0811  159.6712 C   0  0  0  0  0  0  0  0  0  0  0  0
  151.9378  143.5158  159.8301 O   0  0  0  0  0  0  0  0  0  0  0  0
  151.0912  142.8045  158.9330 C   0  0  0  0  0  0  0  0  0  0  0  0
  147.5989  134.8203  154.2713 N   0  3  2  0  0  0  0  0  0  0  0  0
  147.1355  135.5981  155.4446 C   0  0  0  0  0  0  0  0  0  0  0  0
  146.4866  134.2289  153.4928 C   0  0  0  0  0  0  0  0  0  0  0  0
  147.6002  133.2279  151.9496 H   0  0  0  0  0  0  0  0  0  0  0  0
  149.4611  134.0302  153.8565 H   0  0  0  0  0  0  0  0  0  0  0  0
  144.3588  131.7335  151.3683 H   0  0  0  0  0  0  0  0  0  0  0  0
  145.6962  132.5475  150.5639 H   0  0  0  0  0  0  0  0  0  0  0  0
  144.6925  133.4264  151.7319 H   0  0  0  0  0  0  0  0  0  0  0  0
  147.4332  131.9540  154.7115 H   0  0  0  0  0  0  0  0  0  0  0  0
  148.7477  131.7734  153.5479 H   0  0  0  0  0  0  0  0  0  0  0  0
  148.5181  134.2190  156.6181 H   0  0  0  0  0  0  0  0  0  0  0  0
  149.0391  132.5981  156.3003 H   0  0  0  0  0  0  0  0  0  0  0  0
  152.4696  133.5028  156.6427 H   0  0  0  0  0  0  0  0  0  0  0  0
  151.2712  132.2131  156.6532 H   0  0  0  0  0  0  0  0  0  0  0  0
  151.2928  133.3972  157.9621 H   0  0  0  0  0  0  0  0  0  0  0  0
  151.8229  137.7548  154.0583 H   0  0  0  0  0  0  0  0  0  0  0  0
  149.8490  137.4025  160.1759 H   0  0  0  0  0  0  0  0  0  0  0  0
  149.9503  139.9819  159.1874 H   0  0  0  0  0  0  0  0  0  0  0  0
  151.6240  139.6455  159.5407 H   0  0  0  0  0  0  0  0  0  0  0  0
  152.0661  140.0355  156.9796 H   0  0  0  0  0  0  0  0  0  0  0  0
  149.8277  139.9419  156.1162 H   0  0  0  0  0  0  0  0  0  0  0  0
  149.2416  141.1574  157.2358 H   0  0  0  0  0  0  0  0  0  0  0  0
  149.9372  142.6614  156.0359 H   0  0  0  0  0  0  0  0  0  0  0  0
  152.3377  142.4524  157.2156 H   0  0  0  0  0  0  0  0  0  0  0  0
  152.9314  140.9587  159.7875 H   0  0  0  0  0  0  0  0  0  0  0  0
  154.0828  141.4146  158.5230 H   0  0  0  0  0  0  0  0  0  0  0  0
  153.8085  143.0578  160.6234 H   0  0  0  0  0  0  0  0  0  0  0  0
  153.7985  143.7719  159.0063 H   0  0  0  0  0  0  0  0  0  0  0  0
  150.5270  143.5127  158.3287 H   0  0  0  0  0  0  0  0  0  0  0  0
  150.3831  142.2269  159.5280 H   0  0  0  0  0  0  0  0  0  0  0  0
  146.6671  134.9561  156.1918 H   0  0  0  0  0  0  0  0  0  0  0  0
  146.3989  136.3392  155.1325 H   0  0  0  0  0  0  0  0  0  0  0  0
  147.9587  136.1404  155.9094 H   0  0  0  0  0  0  0  0  0  0  0  0
  146.0914  134.9302  152.7575 H   0  0  0  0  0  0  0  0  0  0  0  0
  145.6719  133.9608  154.1684 H   0  0  0  0  0  0  0  0  0  0  0  0
  148.0445  135.4859  153.6558 H   0  0  0  0  0  0  0  0  0  0  0  0
  1  2  1  0  0  0  0
  1 32  1  0  0  0  0
  1 33  1  0  0  0  0
  1 34  1  0  0  0  0
  2  3  1  0  0  0  0
  3 30  1  0  0  0  0
  3 29  1  0  0  0  0
  3  4  1  0  0  0  0
  4  5  1  0  0  0  0
  4 35  1  0  0  0  0
  4 36  1  0  0  0  0
  5 31  1  0  0  0  0
  5  6  1  0  0  0  0
  5 27  1  0  0  0  0
  6  7  1  0  0  0  0
  6 37  1  0  0  0  0
  6 38  1  0  0  0  0
  7  8  1  0  0  0  0
  7  9  1  0  0  0  0
  8 39  1  0  0  0  0
  8 40  1  0  0  0  0
  8 41  1  0  0  0  0
  9 14  1  0  0  0  0
  9 10  2  0  0  0  0
 10 11  1  0  0  0  0
 11 12  2  0  0  0  0
 11 42  1  0  0  0  0
 12 13  1  0  0  0  0
 13 17  1  0  0  0  0
 13 14  2  0  0  0  0
 14 15  1  0  0  0  0
 15 16  2  0  0  0  0
 16 17  1  0  0  0  0
 16 43  1  0  0  0  0
 17 18  1  0  0  0  0
 18 19  1  0  0  0  0
 18 44  1  0  0  0  0
 18 45  1  0  0  0  0
 19 20  1  0  0  0  0
 19 22  1  0  0  0  0
 19 46  1  0  0  0  0
 20 21  1  0  0  0  0
 20 47  1  0  0  0  0
 20 48  1  0  0  0  0
 21 49  1  0  0  0  0
 22 26  1  0  0  0  0
 22 23  1  0  0  0  0
 22 50  1  0  0  0  0
 23 24  1  0  0  0  0
 23 51  1  0  0  0  0
 23 52  1  0  0  0  0
 24 25  1  0  0  0  0
 24 53  1  0  0  0  0
 24 54  1  0  0  0  0
 25 26  1  0  0  0  0
 26 55  1  0  0  0  0
 26 56  1  0  0  0  0
 27 28  1  0  0  0  0
 27 29  1  0  0  0  0
 27 62  1  0  0  0  0
 28 57  1  0  0  0  0
 28 58  1  0  0  0  0
 28 59  1  0  0  0  0
 29 60  1  0  0  0  0
 29 61  1  0  0  0  0
M  CHG  1  27   1
M  END
> <s_m_source_file>
AV-unprocessed.smi

> <i_m_source_file_index>
21

> <i_lp_mmshare_version>
43012

> <i_f3d_flags>
0

> <s_epik_input>
W0NIM11PW0NASF0xW0NIMl1bQ0BIXShOKFtDSDNdKVtDSDJdMSlbQ0gyXU4oW0NIM10pYyhuW2NIXW4yKWMoYzIzKW5bY0hdbjNbQ0gyXVtDQEhdKFtDSDJdW09IXSlbQ0BASF00W0NIMl1bQ0gyXU9bQ0gyXTQ=

> <s_epik_cmdline>
J2VwaWtfcHl0aG9uJywgJy1waCcsICc3LjAnLCAnLXRuJywgJzgnLCAnLW1hJywgJzIwMCcsICctbWV0YWxfYmluZGluZycsICctaW1hZScsICc8aW5maWxlLm1hZT4nLCAnLW9tYWUnLCAnPG91dGZpbGUubWFlPic=

> <r_lp_tautomer_probability>
1

> <r_epik_Ionization_Penalty>
0.0157465

> <r_epik_Ionization_Penalty_Charging>
0.015354

> <r_epik_Ionization_Penalty_Neutral>
0.000392529

> <r_epik_State_Penalty>
0.0120612

> <r_epik_Charging_Adjusted_Penalty>
0.0274152

> <i_epik_Tot_Q>
1

> <i_epik_Tot_abs_Q>
1

> <r_epik_Metal_State_Penalty>
0.0121253

> <b_epik_Metal_Only>
0

> <s_lp_Force_Field>
OPLS_2005

> <r_lp_Energy>
60.6524

> <b_lp_Chiralities_Consistent>
1

> <s_lp_Variant>
AV-unprocessed.smi:21-8

> <Gold.Version>
5.8.1

> <Gold.Id.Protein>
6NUR|6NUR_protein|mol2

> <Gold.PLP.Fitness>
54.3016

> <Gold.PLP.PLP>
-43.8201

> <Gold.PLP.part.hbond>
-4.0000

> <Gold.PLP.part.metal>
0.0000

> <Gold.PLP.part.buried>
-6.8944

> <Gold.PLP.part.nonpolar>
-32.5049

> <Gold.PLP.part.repulsive>
0.3137

> <Gold.PLP.ligand.clash>
0.0000

> <Gold.PLP.ligand.torsion>
2.5507

> <Gold.PLP.Chemscore.Hbond>
4.9516

> <Gold.PLP.Chemscore.CHOScore>
0.0000

> <Gold.PLP.Chemscore.Metal>
0.0000

> <Gold.Chemscore.Hbonds>
donor molecule, donor type, donor heavy atom, donor atom, acceptor molecule, acceptor atom, score
      L1  H    21    49       P1  8028  0.23
      L1  H    27    62       P1  7948  1.50
      P1  H  6896  6908       L1    15  1.00
      P1  H 10752 10764       L1    10  0.60

> <Gold.PLP.Chemscore.Internal.Correction>
0.7281

> <Gold.Rescore>
     Score         DG    S(hbond)    S(metal)    S(lipo)     H(rot)  DE(clash)    DE(int)     intcor
     14.95     -19.12       3.08        0.00      95.81       3.08       0.07       4.10       ----

> <Gold.Chemscore.Fitness>
14.9482

> <Gold.Chemscore.DG>
-19.1179

> <Gold.Chemscore.ZeroCoef>
-5.4800

> <Gold.Chemscore.Hbond>
3.0844

> <Gold.Chemscore.Metal>
0.0000

> <Gold.Chemscore.Lipo>
95.8133

> <Gold.Chemscore.Internal_Hbond>
0.0000

> <Gold.Chemscore.DEClash>
0.0655

> <Gold.Chemscore.DEInternal>
4.1043

> <Gold.Chemscore.Rot>
3.0758

> <Gold.Chemscore.Internal.Correction>
   9.000000E+99

> <Gold.Chemscore.Hbonds>
donor molecule, donor type, donor heavy atom, donor atom, acceptor molecule, acceptor atom, score
      L1  H    21    49       P1  8028  0.22
      L1  H    27    62       P1  7948  0.74
      P1  H  6896  6908       L1    15  0.58
      P1  H 10752 10764       L1    10  0.04

> <Gold.Chemscore.Hbond.Weighted>
-10.3019

> <Gold.Chemscore.Metal.Weighted>
-0.0000

> <Gold.Chemscore.Lipo.Weighted>
-11.2102

> <Gold.Chemscore.Internal_Hbond.Weighted>
0.0000

> <Gold.Chemscore.DEClash.Weighted>
0.0655

> <Gold.Chemscore.DEInternal.Weighted>
4.1043

> <Gold.Chemscore.Rot.Weighted>
7.8741

> <Gold.Chemscore.Internal.Correction.Weighted>
   9.000000E+99

> <Gold.Protein.RotatedTorsions>
[ 6907 6896 6895 6894 ] final -169.71 input  -60.11 | X-H torsion
[ 7974 7965 7964 7962 ] final   71.67 input  175.53 | X-H torsion
[ 8008 7997 7996 7995 ] final   91.66 input   59.86 | X-H torsion
[ 10167 10162 10161 10158 ] final   78.85 input  -65.29 | X-H torsion
[ 10718 10713 10712 10709 ] final   83.10 input   66.30 | X-H torsion
[ 10763 10752 10751 10750 ] final  -74.32 input  -60.55 | X-H torsion
[ 11005 11000 10999 10996 ] final   -3.92 input  -57.11 | X-H torsion

> <Gold.Protein.ActiveResidues>
 VAL166  LYS551  ARG553  GLY616  TRP617  ASP618  TYR619  PRO620  LYS621  CYS622 
 ASP623  PHE694  ASN695  SER759  ASP760  ASP761  ALA762  ILE779  LEU786  VAL792 
 PHE793  MET794  SER795  GLU796  ALA797  LYS798  CYS799  TRP800  GLU811  SER814 

> <Gold.Protein.RotatedAtoms>
  151.4959  133.3514  159.2860 H   0  0  0  0  0  0  0  0  0  0  0  0  # atno 6907 bound_to 6896
  150.8804  134.8196  159.7232 H   0  0  0  0  0  0  0  0  0  0  0  0  # atno 6908 bound_to 6896
  152.4759  134.4856  159.9731 H   0  0  0  0  0  0  0  0  0  0  0  0  # atno 6909 bound_to 6896
  145.7630  139.2809  143.1365 H   0  0  0  0  0  0  0  0  0  0  0  0  # atno 7974 bound_to 7965
  156.0264  140.3335  155.7093 H   0  0  0  0  0  0  0  0  0  0  0  0  # atno 8008 bound_to 7997
  155.5949  140.0650  157.2766 H   0  0  0  0  0  0  0  0  0  0  0  0  # atno 8009 bound_to 7997
  154.4336  140.1820  156.1100 H   0  0  0  0  0  0  0  0  0  0  0  0  # atno 8010 bound_to 7997
  139.9666  144.5924  150.8024 H   0  0  0  0  0  0  0  0  0  0  0  0  # atno 10167 bound_to 10162
  157.6872  131.0076  150.2474 H   0  0  0  0  0  0  0  0  0  0  0  0  # atno 10718 bound_to 10713
  154.4715  135.5868  153.6325 H   0  0  0  0  0  0  0  0  0  0  0  0  # atno 10763 bound_to 10752
  152.9835  135.6068  154.3360 H   0  0  0  0  0  0  0  0  0  0  0  0  # atno 10764 bound_to 10752
  154.3243  135.2843  155.2483 H   0  0  0  0  0  0  0  0  0  0  0  0  # atno 10765 bound_to 10752
  140.6746  133.9206  155.8516 H   0  0  0  0  0  0  0  0  0  0  0  0  # atno 11005 bound_to 11000
  146.0245  140.8316  142.9906 LP  0  0  0  0  0  0  0  0  0  0  0  0  # atno 17320 bound_to 7965
  144.6827  140.2678  143.7310 LP  0  0  0  0  0  0  0  0  0  0  0  0  # atno 17321 bound_to 7965
  140.7536  143.3011  151.3078 LP  0  0  0  0  0  0  0  0  0  0  0  0  # atno 17342 bound_to 10162
  139.6513  144.0357  152.2628 LP  0  0  0  0  0  0  0  0  0  0  0  0  # atno 17343 bound_to 10162
  156.3077  130.3767  149.7691 LP  0  0  0  0  0  0  0  0  0  0  0  0  # atno 17370 bound_to 10713
  156.5301  130.8254  151.3234 LP  0  0  0  0  0  0  0  0  0  0  0  0  # atno 17371 bound_to 10713
  141.0365  134.0682  157.3953 LP  0  0  0  0  0  0  0  0  0  0  0  0  # atno 17394 bound_to 11000
  139.8970  135.0148  156.7082 LP  0  0  0  0  0  0  0  0  0  0  0  0  # atno 17395 bound_to 11000

$$$$
