AV-unprocessed.smi:2025|AV-procd|sdf|8200|dock7
  -GOLD-   2272010453D 1   1.00000     0.00000
 Structure written by MMmdl.
 39 40  0  0  0  0  0  0  0  0  1 V2000
  151.2884  140.5060  157.5754 C   0  0  0  0  0  0  0  0  0  0  0  0
  151.1226  141.9314  157.0264 C   0  0  1  0  0  0  0  0  0  0  0  0
  149.8925  141.9855  156.2395 N   0  0  0  0  0  0  0  0  0  0  0  0
  149.5941  141.1941  155.1973 C   0  0  0  0  0  0  0  0  0  0  0  0
  150.3462  140.3134  154.7774 O   0  0  0  0  0  0  0  0  0  0  0  0
  148.2463  141.4647  154.5152 C   0  0  0  0  0  0  0  0  0  0  0  0
  147.4284  140.2551  154.3563 N   0  0  0  0  0  0  0  0  0  0  0  0
  147.1435  139.7847  153.0872 C   0  0  0  0  0  0  0  0  0  0  0  0
  146.4163  138.6710  152.8514 C   0  0  0  0  0  0  0  0  0  0  0  0
  145.8740  137.8862  153.9533 C   0  0  0  0  0  0  0  0  0  0  0  0
  145.2198  136.8550  153.7911 O   0  0  0  0  0  0  0  0  0  0  0  0
  146.1671  138.3958  155.2396 N   0  0  0  0  0  0  0  0  0  0  0  0
  145.6655  137.6455  156.3724 C   0  0  0  0  0  0  0  0  0  0  0  0
  146.9453  139.5518  155.4812 C   0  0  0  0  0  0  0  0  0  0  0  0
  147.2084  139.9431  156.6209 O   0  0  0  0  0  0  0  0  0  0  0  0
  151.0753  142.9910  158.1473 C   0  0  1  0  0  0  0  0  0  0  0  0
  152.1049  142.7914  159.2583 C   0  0  0  0  0  0  0  0  0  0  0  0
  152.1674  144.1713  159.8755 C   0  0  0  0  0  0  0  0  0  0  0  0
  151.9528  145.0914  158.6736 C   0  0  0  0  0  0  0  0  0  0  0  0
  151.4019  144.2802  157.6391 O   0  0  0  0  0  0  0  0  0  0  0  0
  152.2279  140.3945  158.1169 H   0  0  0  0  0  0  0  0  0  0  0  0
  151.2926  139.7730  156.7677 H   0  0  0  0  0  0  0  0  0  0  0  0
  150.4781  140.2458  158.2573 H   0  0  0  0  0  0  0  0  0  0  0  0
  151.9800  142.1380  156.3833 H   0  0  0  0  0  0  0  0  0  0  0  0
  149.2161  142.6864  156.5055 H   0  0  0  0  0  0  0  0  0  0  0  0
  147.6938  142.2215  155.0752 H   0  0  0  0  0  0  0  0  0  0  0  0
  148.4439  141.9083  153.5384 H   0  0  0  0  0  0  0  0  0  0  0  0
  147.5278  140.3305  152.2376 H   0  0  0  0  0  0  0  0  0  0  0  0
  146.2360  138.3550  151.8344 H   0  0  0  0  0  0  0  0  0  0  0  0
  145.6575  138.2631  157.2707 H   0  0  0  0  0  0  0  0  0  0  0  0
  146.3204  136.7816  156.4947 H   0  0  0  0  0  0  0  0  0  0  0  0
  144.6392  137.3423  156.1580 H   0  0  0  0  0  0  0  0  0  0  0  0
  150.0757  143.0396  158.5834 H   0  0  0  0  0  0  0  0  0  0  0  0
  151.8180  142.0217  159.9755 H   0  0  0  0  0  0  0  0  0  0  0  0
  153.0758  142.5252  158.8376 H   0  0  0  0  0  0  0  0  0  0  0  0
  151.3523  144.2954  160.5898 H   0  0  0  0  0  0  0  0  0  0  0  0
  153.1064  144.3630  160.3958 H   0  0  0  0  0  0  0  0  0  0  0  0
  151.2821  145.9164  158.9163 H   0  0  0  0  0  0  0  0  0  0  0  0
  152.8961  145.5130  158.3252 H   0  0  0  0  0  0  0  0  0  0  0  0
  1  2  1  0  0  0  0
  1 21  1  0  0  0  0
  1 22  1  0  0  0  0
  1 23  1  0  0  0  0
  2  3  1  0  0  0  0
  2 16  1  0  0  0  0
  2 24  1  0  0  0  0
  3  4  1  0  0  0  0
  3 25  1  0  0  0  0
  4  5  2  0  0  0  0
  4  6  1  0  0  0  0
  6  7  1  0  0  0  0
  6 26  1  0  0  0  0
  6 27  1  0  0  0  0
  7 14  1  0  0  0  0
  7  8  1  0  0  0  0
  8  9  2  0  0  0  0
  8 28  1  0  0  0  0
  9 10  1  0  0  0  0
  9 29  1  0  0  0  0
 10 11  2  0  0  0  0
 10 12  1  0  0  0  0
 12 13  1  0  0  0  0
 12 14  1  0  0  0  0
 13 30  1  0  0  0  0
 13 31  1  0  0  0  0
 13 32  1  0  0  0  0
 14 15  2  0  0  0  0
 16 20  1  0  0  0  0
 16 17  1  0  0  0  0
 16 33  1  0  0  0  0
 17 18  1  0  0  0  0
 17 34  1  0  0  0  0
 17 35  1  0  0  0  0
 18 19  1  0  0  0  0
 18 36  1  0  0  0  0
 18 37  1  0  0  0  0
 19 20  1  0  0  0  0
 19 38  1  0  0  0  0
 19 39  1  0  0  0  0
M  END
> <s_m_source_file>
AV-unprocessed.smi

> <i_m_source_file_index>
2025

> <i_lp_mmshare_version>
43012

> <i_f3d_flags>
0

> <s_epik_input>
TzFbQ0gyXVtDSDJdW0NIMl1bQ0BIXTFbQ0BIXShbQ0gzXSlbTkhdQyg9TylbQ0gyXW4yW2NIXVtjSF1jKD1PKW4oW0NIM10pYzI9Tw==

> <s_epik_cmdline>
J2VwaWtfcHl0aG9uJywgJy1waCcsICc3LjAnLCAnLXRuJywgJzgnLCAnLW1hJywgJzIwMCcsICctbWV0YWxfYmluZGluZycsICctaW1hZScsICc8aW5maWxlLm1hZT4nLCAnLW9tYWUnLCAnPG91dGZpbGUubWFlPic=

> <r_lp_tautomer_probability>
1

> <r_epik_Ionization_Penalty>
3.54787e-08

> <r_epik_Ionization_Penalty_Charging>
1.24654e-08

> <r_epik_Ionization_Penalty_Neutral>
2.30132e-08

> <r_epik_State_Penalty>
-0

> <r_epik_Charging_Adjusted_Penalty>
1.24654e-08

> <i_epik_Tot_Q>
0

> <i_epik_Tot_abs_Q>
0

> <r_epik_Metal_State_Penalty>
-0

> <b_epik_Metal_Only>
0

> <s_lp_Force_Field>
OPLS_2005

> <r_lp_Energy>
25.8508

> <b_lp_Chiralities_Consistent>
1

> <s_lp_Variant>
AV-unprocessed.smi:2025-4

> <Gold.Version>
5.8.1

> <Gold.Id.Protein>
6NUR|6NUR_protein|mol2

> <Gold.PLP.Fitness>
41.6706

> <Gold.PLP.PLP>
-34.0408

> <Gold.PLP.part.hbond>
-2.0000

> <Gold.PLP.part.metal>
0.0000

> <Gold.PLP.part.buried>
-2.4171

> <Gold.PLP.part.nonpolar>
-29.8500

> <Gold.PLP.part.repulsive>
0.4913

> <Gold.PLP.ligand.clash>
0.0000

> <Gold.PLP.ligand.torsion>
0.4268

> <Gold.PLP.Chemscore.Hbond>
1.8480

> <Gold.PLP.Chemscore.CHOScore>
0.9727

> <Gold.PLP.Chemscore.Metal>
0.0000

> <Gold.Chemscore.Hbonds>
donor molecule, donor type, donor heavy atom, donor atom, acceptor molecule, acceptor atom, score
      L1  H     3    25       P1  8028  0.30
      P1  H  7989  7998       L1     5  1.00
      L1  C     8    28       P1  7957  0.97

> <Gold.PLP.Chemscore.Internal.Correction>
0.0213

> <Gold.Rescore>
     Score         DG    S(hbond)    S(metal)    S(lipo)     H(rot)  DE(clash)    DE(int)     intcor
     13.96     -15.77       1.62        0.00      81.65       1.82       0.10       1.71       ----

> <Gold.Chemscore.Fitness>
13.9559

> <Gold.Chemscore.DG>
-15.7663

> <Gold.Chemscore.ZeroCoef>
-5.4800

> <Gold.Chemscore.Hbond>
1.6167

> <Gold.Chemscore.Metal>
0.0000

> <Gold.Chemscore.Lipo>
81.6497

> <Gold.Chemscore.Internal_Hbond>
0.0000

> <Gold.Chemscore.DEClash>
0.1036

> <Gold.Chemscore.DEInternal>
1.7068

> <Gold.Chemscore.Rot>
1.8228

> <Gold.Chemscore.Internal.Correction>
   9.000000E+99

> <Gold.Chemscore.Hbonds>
donor molecule, donor type, donor heavy atom, donor atom, acceptor molecule, acceptor atom, score
      L1  H     3    25       P1  8028  0.31
      P1  H  7989  7998       L1     5  0.88

> <Gold.Chemscore.Hbond.Weighted>
-5.3997

> <Gold.Chemscore.Metal.Weighted>
-0.0000

> <Gold.Chemscore.Lipo.Weighted>
-9.5530

> <Gold.Chemscore.Internal_Hbond.Weighted>
0.0000

> <Gold.Chemscore.DEClash.Weighted>
0.1036

> <Gold.Chemscore.DEInternal.Weighted>
1.7068

> <Gold.Chemscore.Rot.Weighted>
4.6665

> <Gold.Chemscore.Internal.Correction.Weighted>
   9.000000E+99

> <Gold.Protein.RotatedTorsions>
[ 6907 6896 6895 6894 ] final -120.02 input  -60.11 | X-H torsion
[ 7974 7965 7964 7962 ] final  -99.95 input  175.53 | X-H torsion
[ 8008 7997 7996 7995 ] final  -90.57 input   59.86 | X-H torsion
[ 10167 10162 10161 10158 ] final   18.59 input  -65.29 | X-H torsion
[ 10718 10713 10712 10709 ] final  -75.93 input   66.30 | X-H torsion
[ 10763 10752 10751 10750 ] final   80.41 input  -60.55 | X-H torsion
[ 11005 11000 10999 10996 ] final   81.38 input  -57.11 | X-H torsion

> <Gold.Protein.ActiveResidues>
 VAL166  LYS551  ARG553  GLY616  TRP617  ASP618  TYR619  PRO620  LYS621  CYS622 
 ASP623  PHE694  ASN695  SER759  ASP760  ASP761  ALA762  ILE779  LEU786  VAL792 
 PHE793  MET794  SER795  GLU796  ALA797  LYS798  CYS799  TRP800  GLU811  SER814 

> <Gold.Protein.RotatedAtoms>
  150.8356  133.8019  159.3080 H   0  0  0  0  0  0  0  0  0  0  0  0  # atno 6907 bound_to 6896
  151.5736  135.1060  160.0010 H   0  0  0  0  0  0  0  0  0  0  0  0  # atno 6908 bound_to 6896
  152.4429  133.7440  159.6713 H   0  0  0  0  0  0  0  0  0  0  0  0  # atno 6909 bound_to 6896
  145.3008  140.9377  143.2824 H   0  0  0  0  0  0  0  0  0  0  0  0  # atno 7974 bound_to 7965
  154.7001  140.0529  157.0450 H   0  0  0  0  0  0  0  0  0  0  0  0  # atno 8008 bound_to 7997
  155.0696  140.3198  155.4616 H   0  0  0  0  0  0  0  0  0  0  0  0  # atno 8009 bound_to 7997
  156.2757  140.2084  156.5824 H   0  0  0  0  0  0  0  0  0  0  0  0  # atno 8010 bound_to 7997
  140.5642  143.9281  150.6664 H   0  0  0  0  0  0  0  0  0  0  0  0  # atno 10167 bound_to 10162
  156.0191  130.4453  150.3118 H   0  0  0  0  0  0  0  0  0  0  0  0  # atno 10718 bound_to 10713
  153.1031  135.4803  154.8903 H   0  0  0  0  0  0  0  0  0  0  0  0  # atno 10763 bound_to 10752
  154.7401  135.3080  154.8746 H   0  0  0  0  0  0  0  0  0  0  0  0  # atno 10764 bound_to 10752
  153.9356  135.6840  153.4798 H   0  0  0  0  0  0  0  0  0  0  0  0  # atno 10765 bound_to 10752
  139.9100  134.7992  156.2034 H   0  0  0  0  0  0  0  0  0  0  0  0  # atno 11005 bound_to 11000
  144.9095  139.4547  143.6594 LP  0  0  0  0  0  0  0  0  0  0  0  0  # atno 17320 bound_to 7965
  146.3152  139.7895  142.8989 LP  0  0  0  0  0  0  0  0  0  0  0  0  # atno 17321 bound_to 7965
  140.2740  143.3436  152.1212 LP  0  0  0  0  0  0  0  0  0  0  0  0  # atno 17342 bound_to 10162
  139.5085  144.6850  151.5910 LP  0  0  0  0  0  0  0  0  0  0  0  0  # atno 17343 bound_to 10162
  157.1219  131.0249  151.3005 LP  0  0  0  0  0  0  0  0  0  0  0  0  # atno 17370 bound_to 10713
  157.4621  130.7659  149.7245 LP  0  0  0  0  0  0  0  0  0  0  0  0  # atno 17371 bound_to 10713
  141.0511  133.6888  156.1773 LP  0  0  0  0  0  0  0  0  0  0  0  0  # atno 17394 bound_to 11000
  140.6809  134.4768  157.5589 LP  0  0  0  0  0  0  0  0  0  0  0  0  # atno 17395 bound_to 11000

$$$$
