AV-unprocessed.smi:33|AV-procd|sdf|213|dock5
  -GOLD-   2262015513D 1   1.00000     0.00000
 Structure written by MMmdl.
 67 72  0  0  0  0  0  0  0  0  1 V2000
  153.9973  139.5252  159.5453 O   0  0  0  0  0  0  0  0  0  0  0  0
  153.2330  140.4352  159.2173 C   0  0  0  0  0  0  0  0  0  0  0  0
  152.4801  140.4138  158.0994 O   0  0  0  0  0  0  0  0  0  0  0  0
  152.3903  139.2325  157.3190 C   0  0  0  0  0  0  0  0  0  0  0  0
  151.1756  139.3375  156.3856 C   0  0  2  0  0  0  0  0  0  0  0  0
  150.1677  138.4287  156.8358 O   0  0  0  0  0  0  0  0  0  0  0  0
  149.9550  137.4148  155.9015 C   0  0  2  0  0  0  0  0  0  0  0  0
  149.8167  136.0949  156.5968 N   0  0  0  0  0  0  0  0  0  0  0  0
  149.5620  135.8873  157.9343 C   0  0  0  0  0  0  0  0  0  0  0  0
  149.4700  134.6381  158.3021 N   0  0  0  0  0  0  0  0  0  0  0  0
  149.6790  133.9279  157.1274 C   0  0  0  0  0  0  0  0  0  0  0  0
  149.7105  132.5445  156.8030 C   0  0  0  0  0  0  0  0  0  0  0  0
  149.5023  131.5698  157.7197 N   0  0  0  0  0  0  0  0  0  0  0  0
  150.2482  130.3154  157.5410 C   0  0  0  0  0  0  0  0  0  0  0  0
  149.8000  129.2687  158.0129 O   0  0  0  0  0  0  0  0  0  0  0  0
  151.5265  130.2945  156.7516 C   0  0  0  0  0  0  0  0  0  0  0  0
  151.6749  129.3997  155.6692 C   0  0  0  0  0  0  0  0  0  0  0  0
  152.8767  129.3657  154.9357 C   0  0  0  0  0  0  0  0  0  0  0  0
  153.9444  130.2112  155.2921 C   0  0  0  0  0  0  0  0  0  0  0  0
  153.8137  131.0849  156.3881 C   0  0  0  0  0  0  0  0  0  0  0  0
  152.6116  131.1211  157.1208 C   0  0  0  0  0  0  0  0  0  0  0  0
  148.5555  131.8562  158.8076 C   0  0  0  0  0  0  0  0  0  0  0  0
  147.6707  132.6970  158.6368 O   0  0  0  0  0  0  0  0  0  0  0  0
  148.6220  131.0910  160.0993 C   0  0  0  0  0  0  0  0  0  0  0  0
  147.4541  130.9064  160.8714 C   0  0  0  0  0  0  0  0  0  0  0  0
  147.5119  130.2023  162.0899 C   0  0  0  0  0  0  0  0  0  0  0  0
  148.7403  129.6937  162.5525 C   0  0  0  0  0  0  0  0  0  0  0  0
  149.9132  129.8980  161.8014 C   0  0  0  0  0  0  0  0  0  0  0  0
  149.8566  130.6026  160.5835 C   0  0  0  0  0  0  0  0  0  0  0  0
  149.9550  132.1966  155.5132 N   0  0  0  0  0  0  0  0  0  0  0  0
  150.1529  133.1479  154.5965 C   0  0  0  0  0  0  0  0  0  0  0  0
  150.1466  134.4728  154.7560 N   0  0  0  0  0  0  0  0  0  0  0  0
  149.9044  134.8288  156.0504 C   0  0  0  0  0  0  0  0  0  0  0  0
  151.1205  137.4466  154.9056 C   0  0  2  0  0  0  0  0  0  0  0  0
  152.2082  136.6090  155.2549 O   0  0  0  0  0  0  0  0  0  0  0  0
  151.5058  138.9127  154.9495 C   0  0  1  0  0  0  0  0  0  0  0  0
  150.7371  139.5940  154.0977 F   0  0  0  0  0  0  0  0  0  0  0  0
  153.0395  141.6754  160.0223 C   0  0  0  0  0  0  0  0  0  0  0  0
  153.4394  141.6906  161.3791 C   0  0  0  0  0  0  0  0  0  0  0  0
  153.2712  142.8481  162.1637 C   0  0  0  0  0  0  0  0  0  0  0  0
  152.7005  144.0048  161.6010 C   0  0  0  0  0  0  0  0  0  0  0  0
  152.2966  144.0019  160.2533 C   0  0  0  0  0  0  0  0  0  0  0  0
  152.4633  142.8451  159.4673 C   0  0  0  0  0  0  0  0  0  0  0  0
  153.3058  139.1317  156.7356 H   0  0  0  0  0  0  0  0  0  0  0  0
  152.3095  138.3454  157.9473 H   0  0  0  0  0  0  0  0  0  0  0  0
  150.7930  140.3588  156.4032 H   0  0  0  0  0  0  0  0  0  0  0  0
  148.9905  137.5798  155.4193 H   0  0  0  0  0  0  0  0  0  0  0  0
  149.4393  136.7008  158.6347 H   0  0  0  0  0  0  0  0  0  0  0  0
  150.8623  128.7458  155.3870 H   0  0  0  0  0  0  0  0  0  0  0  0
  152.9798  128.6894  154.1001 H   0  0  0  0  0  0  0  0  0  0  0  0
  154.8659  130.1846  154.7293 H   0  0  0  0  0  0  0  0  0  0  0  0
  154.6358  131.7268  156.6686 H   0  0  0  0  0  0  0  0  0  0  0  0
  152.5242  131.7926  157.9630 H   0  0  0  0  0  0  0  0  0  0  0  0
  146.5057  131.2917  160.5254 H   0  0  0  0  0  0  0  0  0  0  0  0
  146.6130  130.0533  162.6697 H   0  0  0  0  0  0  0  0  0  0  0  0
  148.7842  129.1536  163.4867 H   0  0  0  0  0  0  0  0  0  0  0  0
  150.8571  129.5152  162.1601 H   0  0  0  0  0  0  0  0  0  0  0  0
  150.7646  130.7583  160.0190 H   0  0  0  0  0  0  0  0  0  0  0  0
  150.3411  132.7997  153.5915 H   0  0  0  0  0  0  0  0  0  0  0  0
  150.7662  137.1425  153.9201 H   0  0  0  0  0  0  0  0  0  0  0  0
  152.5078  136.8518  156.1180 H   0  0  0  0  0  0  0  0  0  0  0  0
  152.5401  139.1044  154.6604 H   0  0  0  0  0  0  0  0  0  0  0  0
  153.8792  140.8142  161.8329 H   0  0  0  0  0  0  0  0  0  0  0  0
  153.5805  142.8477  163.1983 H   0  0  0  0  0  0  0  0  0  0  0  0
  152.5720  144.8925  162.2028 H   0  0  0  0  0  0  0  0  0  0  0  0
  151.8576  144.8888  159.8204 H   0  0  0  0  0  0  0  0  0  0  0  0
  152.1415  142.8764  158.4366 H   0  0  0  0  0  0  0  0  0  0  0  0
  1  2  2  0  0  0  0
  2  3  1  0  0  0  0
  2 38  1  0  0  0  0
  3  4  1  0  0  0  0
  4  5  1  0  0  0  0
  4 44  1  0  0  0  0
  4 45  1  0  0  0  0
  5 36  1  0  0  0  0
  5  6  1  0  0  0  0
  5 46  1  0  0  0  0
  6  7  1  0  0  0  0
  7  8  1  0  0  0  0
  7 34  1  0  0  0  0
  7 47  1  0  0  0  0
  8 33  1  0  0  0  0
  8  9  1  0  0  0  0
  9 10  2  0  0  0  0
  9 48  1  0  0  0  0
 10 11  1  0  0  0  0
 11 33  2  0  0  0  0
 11 12  1  0  0  0  0
 12 13  1  0  0  0  0
 12 30  2  0  0  0  0
 13 14  1  0  0  0  0
 13 22  1  0  0  0  0
 14 15  2  0  0  0  0
 14 16  1  0  0  0  0
 16 21  1  0  0  0  0
 16 17  2  0  0  0  0
 17 18  1  0  0  0  0
 17 49  1  0  0  0  0
 18 19  2  0  0  0  0
 18 50  1  0  0  0  0
 19 20  1  0  0  0  0
 19 51  1  0  0  0  0
 20 21  2  0  0  0  0
 20 52  1  0  0  0  0
 21 53  1  0  0  0  0
 22 23  2  0  0  0  0
 22 24  1  0  0  0  0
 24 29  1  0  0  0  0
 24 25  2  0  0  0  0
 25 26  1  0  0  0  0
 25 54  1  0  0  0  0
 26 27  2  0  0  0  0
 26 55  1  0  0  0  0
 27 28  1  0  0  0  0
 27 56  1  0  0  0  0
 28 29  2  0  0  0  0
 28 57  1  0  0  0  0
 29 58  1  0  0  0  0
 30 31  1  0  0  0  0
 31 32  2  0  0  0  0
 31 59  1  0  0  0  0
 32 33  1  0  0  0  0
 34 35  1  0  0  0  0
 34 36  1  0  0  0  0
 34 60  1  0  0  0  0
 35 61  1  0  0  0  0
 36 37  1  0  0  0  0
 36 62  1  0  0  0  0
 38 43  1  0  0  0  0
 38 39  2  0  0  0  0
 39 40  1  0  0  0  0
 39 63  1  0  0  0  0
 40 41  2  0  0  0  0
 40 64  1  0  0  0  0
 41 42  1  0  0  0  0
 41 65  1  0  0  0  0
 42 43  2  0  0  0  0
 42 66  1  0  0  0  0
 43 67  1  0  0  0  0
M  END
> <s_m_source_file>
AV-unprocessed.smi

> <i_m_source_file_index>
33

> <i_lp_mmshare_version>
43012

> <i_f3d_flags>
0

> <s_epik_input>
W2NIXTFbY0hdW2NIXVtjSF1bY0hdYzFDKD1PKU9bQ0gyXVtDQEBIXTJPW0NASF0oW0NAQEhdKFtPSF0pW0NAQEhdMkYpbihbY0hdbjMpYyhjMzQpbltjSF1uYzROKEMoPU8pYzVbY0hdW2NIXVtjSF1bY0hdW2NIXTUpQyg9TyljNltjSF1bY0hdW2NIXVtjSF1bY0hdNg==

> <s_epik_cmdline>
J2VwaWtfcHl0aG9uJywgJy1waCcsICc3LjAnLCAnLXRuJywgJzgnLCAnLW1hJywgJzIwMCcsICctbWV0YWxfYmluZGluZycsICctaW1hZScsICc8aW5maWxlLm1hZT4nLCAnLW9tYWUnLCAnPG91dGZpbGUubWFlPic=

> <r_lp_tautomer_probability>
1

> <r_epik_Ionization_Penalty>
0.00067664

> <r_epik_Ionization_Penalty_Charging>
0

> <r_epik_Ionization_Penalty_Neutral>
0.00067664

> <r_epik_State_Penalty>
0.000428095

> <r_epik_Charging_Adjusted_Penalty>
0.000428095

> <i_epik_Tot_Q>
0

> <i_epik_Tot_abs_Q>
0

> <r_epik_Metal_State_Penalty>
-0

> <b_epik_Metal_Only>
0

> <s_epik_Chemistry_Notes>
This compound has an ester and may undergo hydrolysis at high or low pH. This compound contains an acetal/aminal-like group ( X-CH(R)-Y where X, Y are N, S, or O) that may be acid/base labile, releasing an aldehyde.

> <s_lp_Force_Field>
OPLS_2005

> <r_lp_Energy>
74.9187

> <b_lp_Chiralities_Consistent>
1

> <s_lp_Variant>
AV-unprocessed.smi:33-15

> <Gold.Version>
5.8.1

> <Gold.Id.Protein>
6NUR|6NUR_protein|mol2

> <Gold.PLP.Fitness>
60.7505

> <Gold.PLP.PLP>
-56.8100

> <Gold.PLP.part.hbond>
-1.9519

> <Gold.PLP.part.metal>
0.0000

> <Gold.PLP.part.buried>
-5.2517

> <Gold.PLP.part.nonpolar>
-49.2760

> <Gold.PLP.part.repulsive>
0.1499

> <Gold.PLP.ligand.clash>
0.0000

> <Gold.PLP.ligand.torsion>
3.7032

> <Gold.PLP.Chemscore.Hbond>
1.9920

> <Gold.PLP.Chemscore.CHOScore>
0.0000

> <Gold.PLP.Chemscore.Metal>
0.0000

> <Gold.Chemscore.Hbonds>
donor molecule, donor type, donor heavy atom, donor atom, acceptor molecule, acceptor atom, score
      P1  H  6896  6907       L1    10  1.00
      P1  H 10752 10765       L1    35  0.67

> <Gold.PLP.Chemscore.Internal.Correction>
5.3710

> <Gold.Rescore>
     Score         DG    S(hbond)    S(metal)    S(lipo)     H(rot)  DE(clash)    DE(int)     intcor
      9.64     -20.63       1.38        0.00     145.29       2.52       0.07      10.92       ----

> <Gold.Chemscore.Fitness>
9.6352

> <Gold.Chemscore.DG>
-20.6274

> <Gold.Chemscore.ZeroCoef>
-5.4800

> <Gold.Chemscore.Hbond>
1.3808

> <Gold.Chemscore.Metal>
0.0000

> <Gold.Chemscore.Lipo>
145.2899

> <Gold.Chemscore.Internal_Hbond>
0.0000

> <Gold.Chemscore.DEClash>
0.0739

> <Gold.Chemscore.DEInternal>
10.9184

> <Gold.Chemscore.Rot>
2.5247

> <Gold.Chemscore.Internal.Correction>
   9.000000E+99

> <Gold.Chemscore.Hbonds>
donor molecule, donor type, donor heavy atom, donor atom, acceptor molecule, acceptor atom, score
      P1  H  6896  6907       L1    10  0.32
      P1  H 10752 10765       L1    35  0.64

> <Gold.Chemscore.Hbond.Weighted>
-4.6118

> <Gold.Chemscore.Metal.Weighted>
-0.0000

> <Gold.Chemscore.Lipo.Weighted>
-16.9989

> <Gold.Chemscore.Internal_Hbond.Weighted>
0.0000

> <Gold.Chemscore.DEClash.Weighted>
0.0739

> <Gold.Chemscore.DEInternal.Weighted>
10.9184

> <Gold.Chemscore.Rot.Weighted>
6.4633

> <Gold.Chemscore.Internal.Correction.Weighted>
   9.000000E+99

> <Gold.Protein.RotatedTorsions>
[ 6907 6896 6895 6894 ] final -107.35 input  -60.11 | X-H torsion
[ 7974 7965 7964 7962 ] final  -96.96 input  175.53 | X-H torsion
[ 8008 7997 7996 7995 ] final  113.97 input   59.86 | X-H torsion
[ 10167 10162 10161 10158 ] final   99.63 input  -65.29 | X-H torsion
[ 10718 10713 10712 10709 ] final   53.46 input   66.30 | X-H torsion
[ 10763 10752 10751 10750 ] final  172.96 input  -60.55 | X-H torsion
[ 11005 11000 10999 10996 ] final -117.86 input  -57.11 | X-H torsion

> <Gold.Protein.ActiveResidues>
 VAL166  LYS551  ARG553  GLY616  TRP617  ASP618  TYR619  PRO620  LYS621  CYS622 
 ASP623  PHE694  ASN695  SER759  ASP760  ASP761  ALA762  ILE779  LEU786  VAL792 
 PHE793  MET794  SER795  GLU796  ALA797  LYS798  CYS799  TRP800  GLU811  SER814 

> <Gold.Protein.RotatedAtoms>
  150.7439  133.9840  159.3585 H   0  0  0  0  0  0  0  0  0  0  0  0  # atno 6907 bound_to 6896
  151.7783  135.0766  160.0379 H   0  0  0  0  0  0  0  0  0  0  0  0  # atno 6908 bound_to 6896
  152.3291  133.5902  159.5833 H   0  0  0  0  0  0  0  0  0  0  0  0  # atno 6909 bound_to 6896
  145.3401  140.9458  143.2613 H   0  0  0  0  0  0  0  0  0  0  0  0  # atno 7974 bound_to 7965
  156.2292  140.2968  156.0144 H   0  0  0  0  0  0  0  0  0  0  0  0  # atno 8008 bound_to 7997
  155.2273  140.0417  157.2974 H   0  0  0  0  0  0  0  0  0  0  0  0  # atno 8009 bound_to 7997
  154.5966  140.2416  155.7856 H   0  0  0  0  0  0  0  0  0  0  0  0  # atno 8010 bound_to 7997
  139.7600  144.6957  151.0307 H   0  0  0  0  0  0  0  0  0  0  0  0  # atno 10167 bound_to 10162
  157.5168  130.8538  149.8506 H   0  0  0  0  0  0  0  0  0  0  0  0  # atno 10718 bound_to 10713
  154.4333  135.2760  155.1897 H   0  0  0  0  0  0  0  0  0  0  0  0  # atno 10763 bound_to 10752
  154.3794  135.6091  153.5786 H   0  0  0  0  0  0  0  0  0  0  0  0  # atno 10764 bound_to 10752
  152.9837  135.5876  154.4648 H   0  0  0  0  0  0  0  0  0  0  0  0  # atno 10765 bound_to 10752
  141.0326  133.9959  157.3120 H   0  0  0  0  0  0  0  0  0  0  0  0  # atno 11005 bound_to 11000
  144.8797  139.4921  143.6729 LP  0  0  0  0  0  0  0  0  0  0  0  0  # atno 17320 bound_to 7965
  146.3011  139.7429  142.9091 LP  0  0  0  0  0  0  0  0  0  0  0  0  # atno 17321 bound_to 7965
  140.7806  143.4708  151.0148 LP  0  0  0  0  0  0  0  0  0  0  0  0  # atno 17342 bound_to 10162
  139.8395  143.7583  152.3180 LP  0  0  0  0  0  0  0  0  0  0  0  0  # atno 17343 bound_to 10162
  156.0326  130.3760  150.1646 LP  0  0  0  0  0  0  0  0  0  0  0  0  # atno 17370 bound_to 10713
  156.9835  130.9871  151.3432 LP  0  0  0  0  0  0  0  0  0  0  0  0  # atno 17371 bound_to 10713
  139.9218  135.0200  156.8092 LP  0  0  0  0  0  0  0  0  0  0  0  0  # atno 17394 bound_to 11000
  140.6380  133.9844  155.7693 LP  0  0  0  0  0  0  0  0  0  0  0  0  # atno 17395 bound_to 11000

$$$$
