AV-unprocessed.smi:189|AV-procd|sdf|1478|dock10
  -GOLD-   2262019303D 1   1.00000     0.00000
 Structure written by MMmdl.
 53 57  0  0  0  0  0  0  0  0  1 V2000
  152.0600  138.7851  156.3172 C   0  0  0  0  0  0  0  0  0  0  0  0
  151.5617  139.7522  157.4008 C   0  0  1  0  0  0  0  0  0  0  0  0
  152.5608  139.9508  158.5665 C   0  0  0  0  0  0  0  0  0  0  0  0
  152.8151  141.4580  158.5701 C   0  0  2  0  0  0  0  0  0  0  0  0
  153.1147  142.1584  159.9009 C   0  0  0  0  0  0  0  0  0  0  0  0
  153.2377  143.6776  159.6532 C   0  0  0  0  0  0  0  0  0  0  0  0
  152.0093  144.2592  158.9144 C   0  0  0  0  0  0  0  0  0  0  0  0
  151.6727  143.4816  157.6243 C   0  0  0  0  0  0  0  0  0  0  0  0
  151.5274  141.9915  157.9677 C   0  0  1  0  0  0  0  0  0  0  0  0
  151.2879  141.0862  156.8584 N   0  0  0  0  0  0  0  0  0  0  0  0
  150.1027  141.2325  156.2253 C   0  0  0  0  0  0  0  0  0  0  0  0
  150.0658  140.8837  154.9163 N   0  0  0  0  0  0  0  0  0  0  0  0
  148.9293  141.0055  154.2241 C   0  0  0  0  0  0  0  0  0  0  0  0
  147.7402  141.4452  154.6411 N   0  0  0  0  0  0  0  0  0  0  0  0
  147.7739  141.7936  155.9595 C   0  0  0  0  0  0  0  0  0  0  0  0
  148.9052  141.7235  156.8204 C   0  0  0  0  0  0  0  0  0  0  0  0
  148.5601  142.1690  158.0911 N   0  0  0  0  0  0  0  0  0  0  0  0
  147.2976  142.4814  157.9877 C   0  0  0  0  0  0  0  0  0  0  0  0
  146.7426  142.2794  156.7441 N   0  0  0  0  0  0  0  0  0  0  0  0
  145.3658  142.5357  156.3514 C   0  0  0  0  0  0  0  0  0  0  0  0
  144.5782  141.2521  155.9982 C   0  0  1  0  0  0  0  0  0  0  0  0
  145.1119  140.6920  154.8110 O   0  0  0  0  0  0  0  0  0  0  0  0
  144.6033  140.1844  157.0891 C   0  0  0  0  0  0  0  0  0  0  0  0
  143.2417  139.5189  156.9469 C   0  0  0  0  0  0  0  0  0  0  0  0
  142.3911  140.6182  156.6717 O   0  0  0  0  0  0  0  0  0  0  0  0
  143.0713  141.5011  155.7857 C   0  0  0  0  0  0  0  0  0  0  0  0
  152.2698  137.8021  156.7389 H   0  0  0  0  0  0  0  0  0  0  0  0
  152.9750  139.1520  155.8513 H   0  0  0  0  0  0  0  0  0  0  0  0
  151.3148  138.6545  155.5320 H   0  0  0  0  0  0  0  0  0  0  0  0
  150.6441  139.3361  157.8178 H   0  0  0  0  0  0  0  0  0  0  0  0
  152.1034  139.6327  159.5041 H   0  0  0  0  0  0  0  0  0  0  0  0
  153.4859  139.3876  158.4394 H   0  0  0  0  0  0  0  0  0  0  0  0
  153.6373  141.6566  157.8793 H   0  0  0  0  0  0  0  0  0  0  0  0
  152.3172  141.9611  160.6183 H   0  0  0  0  0  0  0  0  0  0  0  0
  154.0360  141.7704  160.3359 H   0  0  0  0  0  0  0  0  0  0  0  0
  153.3816  144.1978  160.6005 H   0  0  0  0  0  0  0  0  0  0  0  0
  154.1327  143.8709  159.0605 H   0  0  0  0  0  0  0  0  0  0  0  0
  151.1470  144.2318  159.5817 H   0  0  0  0  0  0  0  0  0  0  0  0
  152.1803  145.3101  158.6800 H   0  0  0  0  0  0  0  0  0  0  0  0
  150.7527  143.8672  157.1839 H   0  0  0  0  0  0  0  0  0  0  0  0
  152.4613  143.6241  156.8840 H   0  0  0  0  0  0  0  0  0  0  0  0
  150.7221  141.8795  158.6955 H   0  0  0  0  0  0  0  0  0  0  0  0
  148.9798  140.7074  153.1874 H   0  0  0  0  0  0  0  0  0  0  0  0
  146.7319  142.8667  158.8234 H   0  0  0  0  0  0  0  0  0  0  0  0
  144.8746  143.0630  157.1703 H   0  0  0  0  0  0  0  0  0  0  0  0
  145.3691  143.2232  155.5045 H   0  0  0  0  0  0  0  0  0  0  0  0
  144.4038  140.5471  154.2025 H   0  0  0  0  0  0  0  0  0  0  0  0
  145.4364  139.4852  157.0038 H   0  0  0  0  0  0  0  0  0  0  0  0
  144.6613  140.6514  158.0728 H   0  0  0  0  0  0  0  0  0  0  0  0
  143.2291  138.8210  156.1081 H   0  0  0  0  0  0  0  0  0  0  0  0
  142.9352  138.9863  157.8475 H   0  0  0  0  0  0  0  0  0  0  0  0
  142.7821  142.5280  156.0116 H   0  0  0  0  0  0  0  0  0  0  0  0
  142.7620  141.2949  154.7596 H   0  0  0  0  0  0  0  0  0  0  0  0
  1  2  1  0  0  0  0
  1 27  1  0  0  0  0
  1 28  1  0  0  0  0
  1 29  1  0  0  0  0
  2 10  1  0  0  0  0
  2  3  1  0  0  0  0
  2 30  1  0  0  0  0
  3  4  1  0  0  0  0
  3 31  1  0  0  0  0
  3 32  1  0  0  0  0
  4  9  1  0  0  0  0
  4  5  1  0  0  0  0
  4 33  1  0  0  0  0
  5  6  1  0  0  0  0
  5 34  1  0  0  0  0
  5 35  1  0  0  0  0
  6  7  1  0  0  0  0
  6 36  1  0  0  0  0
  6 37  1  0  0  0  0
  7  8  1  0  0  0  0
  7 38  1  0  0  0  0
  7 39  1  0  0  0  0
  8  9  1  0  0  0  0
  8 40  1  0  0  0  0
  8 41  1  0  0  0  0
  9 10  1  0  0  0  0
  9 42  1  0  0  0  0
 10 11  1  0  0  0  0
 11 16  1  0  0  0  0
 11 12  2  0  0  0  0
 12 13  1  0  0  0  0
 13 14  2  0  0  0  0
 13 43  1  0  0  0  0
 14 15  1  0  0  0  0
 15 19  1  0  0  0  0
 15 16  2  0  0  0  0
 16 17  1  0  0  0  0
 17 18  2  0  0  0  0
 18 19  1  0  0  0  0
 18 44  1  0  0  0  0
 19 20  1  0  0  0  0
 20 21  1  0  0  0  0
 20 45  1  0  0  0  0
 20 46  1  0  0  0  0
 21 26  1  0  0  0  0
 21 22  1  0  0  0  0
 21 23  1  0  0  0  0
 22 47  1  0  0  0  0
 23 24  1  0  0  0  0
 23 48  1  0  0  0  0
 23 49  1  0  0  0  0
 24 25  1  0  0  0  0
 24 50  1  0  0  0  0
 24 51  1  0  0  0  0
 25 26  1  0  0  0  0
 26 52  1  0  0  0  0
 26 53  1  0  0  0  0
M  END
> <s_m_source_file>
AV-unprocessed.smi

> <i_m_source_file_index>
189

> <i_lp_mmshare_version>
43012

> <i_f3d_flags>
0

> <s_epik_input>
W0NIMl0xW0NIMl1bQ0gyXVtDSDJdW0NASF0oW0NASF0xMilOKFtDQEhdKFtDSDNdKVtDSDJdMiljKG5bY0hdbjMpYyhjMzQpbltjSF1uNFtDSDJdW0NAQF01KFtPSF0pW0NIMl1bQ0gyXU9bQ0gyXTU=

> <s_epik_cmdline>
J2VwaWtfcHl0aG9uJywgJy1waCcsICc3LjAnLCAnLXRuJywgJzgnLCAnLW1hJywgJzIwMCcsICctbWV0YWxfYmluZGluZycsICctaW1hZScsICc8aW5maWxlLm1hZT4nLCAnLW9tYWUnLCAnPG91dGZpbGUubWFlPic=

> <r_lp_tautomer_probability>
1

> <r_epik_Ionization_Penalty>
0.00594261

> <r_epik_Ionization_Penalty_Charging>
0

> <r_epik_Ionization_Penalty_Neutral>
0.00594261

> <r_epik_State_Penalty>
0.00429776

> <r_epik_Charging_Adjusted_Penalty>
0.00429776

> <i_epik_Tot_Q>
0

> <i_epik_Tot_abs_Q>
0

> <r_epik_Metal_State_Penalty>
-0

> <b_epik_Metal_Only>
0

> <s_lp_Force_Field>
OPLS_2005

> <r_lp_Energy>
58.2794

> <b_lp_Chiralities_Consistent>
1

> <s_lp_Variant>
AV-unprocessed.smi:189-4

> <Gold.Version>
5.8.1

> <Gold.Id.Protein>
6NUR|6NUR_protein|mol2

> <Gold.PLP.Fitness>
43.9689

> <Gold.PLP.PLP>
-37.6578

> <Gold.PLP.part.hbond>
-2.0000

> <Gold.PLP.part.metal>
0.0000

> <Gold.PLP.part.buried>
-5.0165

> <Gold.PLP.part.nonpolar>
-29.8791

> <Gold.PLP.part.repulsive>
0.4176

> <Gold.PLP.ligand.clash>
0.0000

> <Gold.PLP.ligand.torsion>
0.8076

> <Gold.PLP.Chemscore.Hbond>
1.6373

> <Gold.PLP.Chemscore.CHOScore>
1.0000

> <Gold.PLP.Chemscore.Metal>
0.0000

> <Gold.Chemscore.Hbonds>
donor molecule, donor type, donor heavy atom, donor atom, acceptor molecule, acceptor atom, score
      L1  H    22    47       P1 10175  1.00
      P1  H  7989  7998       L1    12  0.62
      L1  C    13    43       P1  7957  1.00

> <Gold.PLP.Chemscore.Internal.Correction>
0.0146

> <Gold.Rescore>
     Score         DG    S(hbond)    S(metal)    S(lipo)     H(rot)  DE(clash)    DE(int)     intcor
     14.63     -15.42       1.37        0.00      90.17       2.03       0.13       0.66       ----

> <Gold.Chemscore.Fitness>
14.6299

> <Gold.Chemscore.DG>
-15.4204

> <Gold.Chemscore.ZeroCoef>
-5.4800

> <Gold.Chemscore.Hbond>
1.3733

> <Gold.Chemscore.Metal>
0.0000

> <Gold.Chemscore.Lipo>
90.1659

> <Gold.Chemscore.Internal_Hbond>
0.0000

> <Gold.Chemscore.DEClash>
0.1344

> <Gold.Chemscore.DEInternal>
0.6561

> <Gold.Chemscore.Rot>
2.0297

> <Gold.Chemscore.Internal.Correction>
   9.000000E+99

> <Gold.Chemscore.Hbonds>
donor molecule, donor type, donor heavy atom, donor atom, acceptor molecule, acceptor atom, score
      L1  H    22    47       P1 10175  0.97
      P1  H  7989  7998       L1    12  0.33

> <Gold.Chemscore.Hbond.Weighted>
-4.5870

> <Gold.Chemscore.Metal.Weighted>
-0.0000

> <Gold.Chemscore.Lipo.Weighted>
-10.5494

> <Gold.Chemscore.Internal_Hbond.Weighted>
0.0000

> <Gold.Chemscore.DEClash.Weighted>
0.1344

> <Gold.Chemscore.DEInternal.Weighted>
0.6561

> <Gold.Chemscore.Rot.Weighted>
5.1960

> <Gold.Chemscore.Internal.Correction.Weighted>
   9.000000E+99

> <Gold.Protein.RotatedTorsions>
[ 6907 6896 6895 6894 ] final -152.96 input  -60.11 | X-H torsion
[ 7974 7965 7964 7962 ] final  174.30 input  175.53 | X-H torsion
[ 8008 7997 7996 7995 ] final  100.68 input   59.86 | X-H torsion
[ 10167 10162 10161 10158 ] final  -50.67 input  -65.29 | X-H torsion
[ 10718 10713 10712 10709 ] final   92.23 input   66.30 | X-H torsion
[ 10763 10752 10751 10750 ] final   -0.83 input  -60.55 | X-H torsion
[ 11005 11000 10999 10996 ] final  -81.49 input  -57.11 | X-H torsion

> <Gold.Protein.ActiveResidues>
 VAL166  LYS551  ARG553  GLY616  TRP617  ASP618  TYR619  PRO620  LYS621  CYS622 
 ASP623  PHE694  ASN695  SER759  ASP760  ASP761  ALA762  ILE779  LEU786  VAL792 
 PHE793  MET794  SER795  GLU796  ALA797  LYS798  CYS799  TRP800  GLU811  SER814 

> <Gold.Protein.RotatedAtoms>
  151.2355  133.4427  159.2605 H   0  0  0  0  0  0  0  0  0  0  0  0  # atno 6907 bound_to 6896
  151.0754  134.9825  159.8340 H   0  0  0  0  0  0  0  0  0  0  0  0  # atno 6908 bound_to 6896
  152.5417  134.2297  159.8873 H   0  0  0  0  0  0  0  0  0  0  0  0  # atno 6909 bound_to 6896
  144.7224  139.9776  143.6438 H   0  0  0  0  0  0  0  0  0  0  0  0  # atno 7974 bound_to 7965
  156.1227  140.3209  155.8231 H   0  0  0  0  0  0  0  0  0  0  0  0  # atno 8008 bound_to 7997
  155.4476  140.0530  157.3021 H   0  0  0  0  0  0  0  0  0  0  0  0  # atno 8009 bound_to 7997
  154.4839  140.2064  155.9713 H   0  0  0  0  0  0  0  0  0  0  0  0  # atno 8010 bound_to 7997
  140.6626  143.2648  151.4393 H   0  0  0  0  0  0  0  0  0  0  0  0  # atno 10167 bound_to 10162
  157.6959  131.0436  150.3850 H   0  0  0  0  0  0  0  0  0  0  0  0  # atno 10718 bound_to 10713
  153.3369  135.6978  153.6900 H   0  0  0  0  0  0  0  0  0  0  0  0  # atno 10763 bound_to 10752
  153.5680  135.3522  155.2827 H   0  0  0  0  0  0  0  0  0  0  0  0  # atno 10764 bound_to 10752
  154.8629  135.4265  154.2572 H   0  0  0  0  0  0  0  0  0  0  0  0  # atno 10765 bound_to 10752
  141.1666  133.7199  156.8430 H   0  0  0  0  0  0  0  0  0  0  0  0  # atno 11005 bound_to 11000
  146.0513  139.3514  143.0637 LP  0  0  0  0  0  0  0  0  0  0  0  0  # atno 17320 bound_to 7965
  145.8211  140.9678  143.0898 LP  0  0  0  0  0  0  0  0  0  0  0  0  # atno 17321 bound_to 7965
  139.5864  144.1594  152.2034 LP  0  0  0  0  0  0  0  0  0  0  0  0  # atno 17342 bound_to 10162
  140.0935  144.5600  150.7038 LP  0  0  0  0  0  0  0  0  0  0  0  0  # atno 17343 bound_to 10162
  156.4260  130.3962  149.6793 LP  0  0  0  0  0  0  0  0  0  0  0  0  # atno 17370 bound_to 10713
  156.4027  130.7683  151.2691 LP  0  0  0  0  0  0  0  0  0  0  0  0  # atno 17371 bound_to 10713
  140.1970  134.8925  157.3125 LP  0  0  0  0  0  0  0  0  0  0  0  0  # atno 17394 bound_to 11000
  140.2229  134.4002  155.7557 LP  0  0  0  0  0  0  0  0  0  0  0  0  # atno 17395 bound_to 11000

$$$$
