AV-unprocessed.smi:212|AV-procd|sdf|1629|dock6
  -GOLD-   2262019583D 1   1.00000     0.00000
 Structure written by MMmdl.
 65 68  0  0  0  0  0  0  0  0  2 V2000
  150.4437  132.6199  153.3149 C   0  0  0  0  0  0  0  0  0  0  0  0
  148.9550  132.9616  153.5174 C   0  0  2  0  0  0  0  0  0  0  0  0
  148.2649  133.4886  152.2398 C   0  0  0  0  0  0  0  0  0  0  0  0
  146.8193  133.7405  152.4772 N   0  3  2  0  0  0  0  0  0  0  0  0
  146.0962  134.1867  151.2567 C   0  0  0  0  0  0  0  0  0  0  0  0
  145.2185  133.0712  150.6414 C   0  0  0  0  0  0  0  0  0  0  0  0
  145.9877  131.7393  150.6304 C   0  0  0  0  0  0  0  0  0  0  0  0
  143.8788  132.9061  151.3828 C   0  0  0  0  0  0  0  0  0  0  0  0
  144.9438  133.3871  149.2909 O   0  0  0  0  0  0  0  0  0  0  0  0
  146.5807  134.6153  153.6555 C   0  0  0  0  0  0  0  0  0  0  0  0
  147.2672  134.0509  154.9134 C   0  0  0  0  0  0  0  0  0  0  0  0
  148.6899  133.8292  154.6722 N   0  0  0  0  0  0  0  0  0  0  0  0
  149.4381  134.9382  154.9057 C   0  0  0  0  0  0  0  0  0  0  0  0
  150.1290  135.5362  153.8997 N   0  0  0  0  0  0  0  0  0  0  0  0
  150.8362  136.6458  154.1351 C   0  0  0  0  0  0  0  0  0  0  0  0
  150.9772  137.3187  155.2790 N   0  0  0  0  0  0  0  0  0  0  0  0
  150.2766  136.7278  156.2885 C   0  0  0  0  0  0  0  0  0  0  0  0
  149.4895  135.5469  156.1889 C   0  0  0  0  0  0  0  0  0  0  0  0
  148.9262  135.2437  157.4222 N   0  0  0  0  0  0  0  0  0  0  0  0
  149.3533  136.1952  158.2073 C   0  0  0  0  0  0  0  0  0  0  0  0
  150.1616  137.1337  157.6056 N   0  0  0  0  0  0  0  0  0  0  0  0
  150.7644  138.2965  158.2320 C   0  0  0  0  0  0  0  0  0  0  0  0
  151.6597  139.1330  157.2790 C   0  0  1  0  0  0  0  0  0  0  0  0
  150.8329  139.9373  156.2424 C   0  0  0  0  0  0  0  0  0  0  0  0
  151.5078  140.0608  155.0069 O   0  0  0  0  0  0  0  0  0  0  0  0
  152.5891  140.0696  158.0947 C   0  0  1  0  0  0  0  0  0  0  0  0
  151.8713  141.0564  159.0009 C   0  0  0  0  0  0  0  0  0  0  0  0
  152.9750  141.4650  159.9678 C   0  0  0  0  0  0  0  0  0  0  0  0
  153.7564  140.2932  160.1562 O   0  0  0  0  0  0  0  0  0  0  0  0
  153.4885  139.3579  159.1155 C   0  0  0  0  0  0  0  0  0  0  0  0
  150.5595  131.8462  152.5554 H   0  0  0  0  0  0  0  0  0  0  0  0
  150.8866  132.2405  154.2361 H   0  0  0  0  0  0  0  0  0  0  0  0
  151.0309  133.4777  152.9888 H   0  0  0  0  0  0  0  0  0  0  0  0
  148.4705  132.0155  153.7631 H   0  0  0  0  0  0  0  0  0  0  0  0
  148.7396  134.4032  151.8844 H   0  0  0  0  0  0  0  0  0  0  0  0
  148.3717  132.7517  151.4425 H   0  0  0  0  0  0  0  0  0  0  0  0
  145.4975  135.0726  151.4769 H   0  0  0  0  0  0  0  0  0  0  0  0
  146.8156  134.5067  150.5009 H   0  0  0  0  0  0  0  0  0  0  0  0
  146.2350  131.4181  151.6430 H   0  0  0  0  0  0  0  0  0  0  0  0
  146.9230  131.8226  150.0751 H   0  0  0  0  0  0  0  0  0  0  0  0
  145.4017  130.9433  150.1690 H   0  0  0  0  0  0  0  0  0  0  0  0
  144.0382  132.6730  152.4363 H   0  0  0  0  0  0  0  0  0  0  0  0
  143.2868  132.0963  150.9545 H   0  0  0  0  0  0  0  0  0  0  0  0
  143.2715  133.8106  151.3337 H   0  0  0  0  0  0  0  0  0  0  0  0
  145.1197  134.3061  149.1542 H   0  0  0  0  0  0  0  0  0  0  0  0
  146.9557  135.6180  153.4439 H   0  0  0  0  0  0  0  0  0  0  0  0
  145.5111  134.7125  153.8393 H   0  0  0  0  0  0  0  0  0  0  0  0
  147.1094  134.7222  155.7589 H   0  0  0  0  0  0  0  0  0  0  0  0
  146.8111  133.0998  155.1906 H   0  0  0  0  0  0  0  0  0  0  0  0
  151.3620  137.0548  153.2850 H   0  0  0  0  0  0  0  0  0  0  0  0
  149.0801  136.2448  159.2512 H   0  0  0  0  0  0  0  0  0  0  0  0
  149.9671  138.9199  158.6388 H   0  0  0  0  0  0  0  0  0  0  0  0
  151.3404  137.9381  159.0852 H   0  0  0  0  0  0  0  0  0  0  0  0
  152.3032  138.4437  156.7295 H   0  0  0  0  0  0  0  0  0  0  0  0
  149.8569  139.4770  156.0838 H   0  0  0  0  0  0  0  0  0  0  0  0
  150.6460  140.9532  156.5871 H   0  0  0  0  0  0  0  0  0  0  0  0
  151.3613  139.2737  154.5044 H   0  0  0  0  0  0  0  0  0  0  0  0
  153.2230  140.6356  157.4097 H   0  0  0  0  0  0  0  0  0  0  0  0
  151.4544  141.9107  158.4672 H   0  0  0  0  0  0  0  0  0  0  0  0
  151.0628  140.5620  159.5418 H   0  0  0  0  0  0  0  0  0  0  0  0
  153.6043  142.2365  159.5222 H   0  0  0  0  0  0  0  0  0  0  0  0
  152.5867  141.8455  160.9130 H   0  0  0  0  0  0  0  0  0  0  0  0
  152.9773  138.5001  159.5543 H   0  0  0  0  0  0  0  0  0  0  0  0
  154.4188  139.0030  158.6716 H   0  0  0  0  0  0  0  0  0  0  0  0
  146.4249  132.8415  152.7143 H   0  0  0  0  0  0  0  0  0  0  0  0
  1  2  1  0  0  0  0
  1 31  1  0  0  0  0
  1 32  1  0  0  0  0
  1 33  1  0  0  0  0
  2 12  1  0  0  0  0
  2  3  1  0  0  0  0
  2 34  1  0  0  0  0
  3  4  1  0  0  0  0
  3 35  1  0  0  0  0
  3 36  1  0  0  0  0
  4  5  1  0  0  0  0
  4 10  1  0  0  0  0
  4 65  1  0  0  0  0
  5  6  1  0  0  0  0
  5 37  1  0  0  0  0
  5 38  1  0  0  0  0
  6  7  1  0  0  0  0
  6  8  1  0  0  0  0
  6  9  1  0  0  0  0
  7 39  1  0  0  0  0
  7 40  1  0  0  0  0
  7 41  1  0  0  0  0
  8 42  1  0  0  0  0
  8 43  1  0  0  0  0
  8 44  1  0  0  0  0
  9 45  1  0  0  0  0
 10 11  1  0  0  0  0
 10 46  1  0  0  0  0
 10 47  1  0  0  0  0
 11 12  1  0  0  0  0
 11 48  1  0  0  0  0
 11 49  1  0  0  0  0
 12 13  1  0  0  0  0
 13 18  1  0  0  0  0
 13 14  2  0  0  0  0
 14 15  1  0  0  0  0
 15 16  2  0  0  0  0
 15 50  1  0  0  0  0
 16 17  1  0  0  0  0
 17 21  1  0  0  0  0
 17 18  2  0  0  0  0
 18 19  1  0  0  0  0
 19 20  2  0  0  0  0
 20 21  1  0  0  0  0
 20 51  1  0  0  0  0
 21 22  1  0  0  0  0
 22 23  1  0  0  0  0
 22 52  1  0  0  0  0
 22 53  1  0  0  0  0
 23 24  1  0  0  0  0
 23 26  1  0  0  0  0
 23 54  1  0  0  0  0
 24 25  1  0  0  0  0
 24 55  1  0  0  0  0
 24 56  1  0  0  0  0
 25 57  1  0  0  0  0
 26 30  1  0  0  0  0
 26 27  1  0  0  0  0
 26 58  1  0  0  0  0
 27 28  1  0  0  0  0
 27 59  1  0  0  0  0
 27 60  1  0  0  0  0
 28 29  1  0  0  0  0
 28 61  1  0  0  0  0
 28 62  1  0  0  0  0
 29 30  1  0  0  0  0
 30 63  1  0  0  0  0
 30 64  1  0  0  0  0
M  CHG  1   4   1
M  END
> <s_m_source_file>
AV-unprocessed.smi

> <i_m_source_file_index>
212

> <i_lp_mmshare_version>
43012

> <i_f3d_flags>
0

> <s_epik_input>
W0NIM11bQ0BASF0xW0NIMl1OKFtDSDJdQyhbQ0gzXSkoW0NIM10pW09IXSlbQ0gyXVtDSDJdTjFjKG5bY0hdbjIpYyhjMjMpbltjSF1uM1tDSDJdW0NASF0oW0NIMl1bT0hdKVtDQEBIXTRbQ0gyXVtDSDJdT1tDSDJdNA==

> <s_epik_cmdline>
J2VwaWtfcHl0aG9uJywgJy1waCcsICc3LjAnLCAnLXRuJywgJzgnLCAnLW1hJywgJzIwMCcsICctbWV0YWxfYmluZGluZycsICctaW1hZScsICc8aW5maWxlLm1hZT4nLCAnLW9tYWUnLCAnPG91dGZpbGUubWFlPic=

> <r_lp_tautomer_probability>
1

> <r_epik_Ionization_Penalty>
0.00182193

> <r_epik_Ionization_Penalty_Charging>
0.00173996

> <r_epik_Ionization_Penalty_Neutral>
8.19718e-05

> <r_epik_State_Penalty>
-0

> <r_epik_Charging_Adjusted_Penalty>
0.00173996

> <i_epik_Tot_Q>
1

> <i_epik_Tot_abs_Q>
1

> <r_epik_Metal_State_Penalty>
-0

> <b_epik_Metal_Only>
0

> <s_lp_Force_Field>
OPLS_2005

> <r_lp_Energy>
57.8479

> <b_lp_Chiralities_Consistent>
1

> <s_lp_Variant>
AV-unprocessed.smi:212-13

> <Gold.Version>
5.8.1

> <Gold.Id.Protein>
6NUR|6NUR_protein|mol2

> <Gold.PLP.Fitness>
45.3098

> <Gold.PLP.PLP>
-39.0231

> <Gold.PLP.part.hbond>
-2.0000

> <Gold.PLP.part.metal>
0.0000

> <Gold.PLP.part.buried>
-7.9426

> <Gold.PLP.part.nonpolar>
-30.8640

> <Gold.PLP.part.repulsive>
1.4510

> <Gold.PLP.ligand.clash>
0.0000

> <Gold.PLP.ligand.torsion>
1.7652

> <Gold.PLP.Chemscore.Hbond>
1.8960

> <Gold.PLP.Chemscore.CHOScore>
0.9436

> <Gold.PLP.Chemscore.Metal>
0.0000

> <Gold.Chemscore.Hbonds>
donor molecule, donor type, donor heavy atom, donor atom, acceptor molecule, acceptor atom, score
      L1  H     9    45       P1  7921  0.37
      P1  H  7989  7998       L1    25  0.35
      L1  C    15    50       P1  7949  0.72

> <Gold.PLP.Chemscore.Internal.Correction>
1.2982

> <Gold.Rescore>
     Score         DG    S(hbond)    S(metal)    S(lipo)     H(rot)  DE(clash)    DE(int)     intcor
      6.27     -11.09       1.38        0.00      89.22       3.68       0.01       4.82       ----

> <Gold.Chemscore.Fitness>
6.2662

> <Gold.Chemscore.DG>
-11.0945

> <Gold.Chemscore.ZeroCoef>
-5.4800

> <Gold.Chemscore.Hbond>
1.3770

> <Gold.Chemscore.Metal>
0.0000

> <Gold.Chemscore.Lipo>
89.2229

> <Gold.Chemscore.Internal_Hbond>
0.0000

> <Gold.Chemscore.DEClash>
0.0093

> <Gold.Chemscore.DEInternal>
4.8190

> <Gold.Chemscore.Rot>
3.6812

> <Gold.Chemscore.Internal.Correction>
   9.000000E+99

> <Gold.Chemscore.Hbonds>
donor molecule, donor type, donor heavy atom, donor atom, acceptor molecule, acceptor atom, score
      L1  H     9    45       P1  7921  0.36
      P1  H  7989  7998       L1    25  0.01

> <Gold.Chemscore.Hbond.Weighted>
-4.5993

> <Gold.Chemscore.Metal.Weighted>
-0.0000

> <Gold.Chemscore.Lipo.Weighted>
-10.4391

> <Gold.Chemscore.Internal_Hbond.Weighted>
0.0000

> <Gold.Chemscore.DEClash.Weighted>
0.0093

> <Gold.Chemscore.DEInternal.Weighted>
4.8190

> <Gold.Chemscore.Rot.Weighted>
9.4239

> <Gold.Chemscore.Internal.Correction.Weighted>
   9.000000E+99

> <Gold.Protein.RotatedTorsions>
[ 6907 6896 6895 6894 ] final  123.41 input  -60.11 | X-H torsion
[ 7974 7965 7964 7962 ] final  109.97 input  175.53 | X-H torsion
[ 8008 7997 7996 7995 ] final  -82.35 input   59.86 | X-H torsion
[ 10167 10162 10161 10158 ] final  -51.04 input  -65.29 | X-H torsion
[ 10718 10713 10712 10709 ] final  149.52 input   66.30 | X-H torsion
[ 10763 10752 10751 10750 ] final  144.30 input  -60.55 | X-H torsion
[ 11005 11000 10999 10996 ] final  103.79 input  -57.11 | X-H torsion

> <Gold.Protein.ActiveResidues>
 VAL166  LYS551  ARG553  GLY616  TRP617  ASP618  TYR619  PRO620  LYS621  CYS622 
 ASP623  PHE694  ASN695  SER759  ASP760  ASP761  ALA762  ILE779  LEU786  VAL792 
 PHE793  MET794  SER795  GLU796  ALA797  LYS798  CYS799  TRP800  GLU811  SER814 

> <Gold.Protein.RotatedAtoms>
  152.4164  133.7044  159.6442 H   0  0  0  0  0  0  0  0  0  0  0  0  # atno 6907 bound_to 6896
  150.8041  133.8533  159.3220 H   0  0  0  0  0  0  0  0  0  0  0  0  # atno 6908 bound_to 6896
  151.6262  135.1029  160.0163 H   0  0  0  0  0  0  0  0  0  0  0  0  # atno 6909 bound_to 6896
  145.2610  139.2702  143.4017 H   0  0  0  0  0  0  0  0  0  0  0  0  # atno 7974 bound_to 7965
  154.6077  140.0634  156.9453 H   0  0  0  0  0  0  0  0  0  0  0  0  # atno 8008 bound_to 7997
  155.2025  140.3316  155.4322 H   0  0  0  0  0  0  0  0  0  0  0  0  # atno 8009 bound_to 7997
  156.2358  140.1862  156.7107 H   0  0  0  0  0  0  0  0  0  0  0  0  # atno 8010 bound_to 7997
  140.6608  143.2635  151.4446 H   0  0  0  0  0  0  0  0  0  0  0  0  # atno 10167 bound_to 10162
  157.2950  131.0860  151.1433 H   0  0  0  0  0  0  0  0  0  0  0  0  # atno 10718 bound_to 10713
  153.9865  135.2936  155.3415 H   0  0  0  0  0  0  0  0  0  0  0  0  # atno 10763 bound_to 10752
  154.7239  135.5097  153.8858 H   0  0  0  0  0  0  0  0  0  0  0  0  # atno 10764 bound_to 10752
  153.0829  135.6684  154.0123 H   0  0  0  0  0  0  0  0  0  0  0  0  # atno 10765 bound_to 10752
  139.8786  134.9276  156.5263 H   0  0  0  0  0  0  0  0  0  0  0  0  # atno 11005 bound_to 11000
  146.3275  140.3026  142.8621 LP  0  0  0  0  0  0  0  0  0  0  0  0  # atno 17320 bound_to 7965
  144.9419  140.8087  143.5625 LP  0  0  0  0  0  0  0  0  0  0  0  0  # atno 17321 bound_to 7965
  139.5842  144.1642  152.2007 LP  0  0  0  0  0  0  0  0  0  0  0  0  # atno 17342 bound_to 10162
  140.0977  144.5566  150.7010 LP  0  0  0  0  0  0  0  0  0  0  0  0  # atno 17343 bound_to 10162
  157.2814  130.6752  149.6068 LP  0  0  0  0  0  0  0  0  0  0  0  0  # atno 17370 bound_to 10713
  155.9669  130.4448  150.5478 LP  0  0  0  0  0  0  0  0  0  0  0  0  # atno 17371 bound_to 10713
  140.8413  133.8203  155.9078 LP  0  0  0  0  0  0  0  0  0  0  0  0  # atno 17394 bound_to 11000
  140.9234  134.2113  157.4911 LP  0  0  0  0  0  0  0  0  0  0  0  0  # atno 17395 bound_to 11000

$$$$
