AV-unprocessed.smi:288|AV-procd|sdf|2210|dock7
  -GOLD-   2262022 43D 1   1.00000     0.00000
 Structure written by MMmdl.
 33 34  0  0  0  0  0  0  0  0  1 V2000
  150.8255  139.4118  154.2570 O   0  0  0  0  0  0  0  0  0  0  0  0
  150.9495  140.0355  155.3126 C   0  0  0  0  0  0  0  0  0  0  0  0
  150.1827  141.2347  155.6321 C   0  0  0  0  0  0  0  0  0  0  0  0
  149.3058  141.7201  154.7368 F   0  0  0  0  0  0  0  0  0  0  0  0
  150.3367  141.8676  156.8153 C   0  0  0  0  0  0  0  0  0  0  0  0
  151.2147  141.4334  157.7955 N   0  0  0  0  0  0  0  0  0  0  0  0
  151.3637  142.1562  159.1172 C   0  0  1  0  0  0  0  0  0  0  0  0
  152.7794  142.7451  159.2533 C   0  0  0  0  0  0  0  0  0  0  0  0
  152.5043  144.1772  159.6646 C   0  0  0  0  0  0  0  0  0  0  0  0
  151.1692  144.4456  158.9862 C   0  0  0  0  0  0  0  0  0  0  0  0
  150.4636  143.2263  159.1790 O   0  0  0  0  0  0  0  0  0  0  0  0
  151.9987  140.2806  157.5717 C   0  0  0  0  0  0  0  0  0  0  0  0
  152.7731  139.8681  158.4383 O   0  0  0  0  0  0  0  0  0  0  0  0
  151.8509  139.6264  156.3263 N   0  0  0  0  0  0  0  0  0  0  0  0
  152.6447  138.4329  156.0839 C   0  0  0  0  0  0  0  0  0  0  0  0
  152.1236  137.1891  156.8387 C   0  0  2  0  0  0  0  0  0  0  0  0
  153.0530  136.1363  156.6683 O   0  0  0  0  0  0  0  0  0  0  0  0
  150.7593  136.7074  156.3075 C   0  0  0  0  0  0  0  0  0  0  0  0
  149.8062  137.5847  156.6232 F   0  0  0  0  0  0  0  0  0  0  0  0
  150.8074  136.6171  154.9783 F   0  0  0  0  0  0  0  0  0  0  0  0
  150.4479  135.5095  156.8049 F   0  0  0  0  0  0  0  0  0  0  0  0
  149.7364  142.7478  156.9856 H   0  0  0  0  0  0  0  0  0  0  0  0
  151.1063  141.4279  159.8883 H   0  0  0  0  0  0  0  0  0  0  0  0
  153.3671  142.1894  159.9846 H   0  0  0  0  0  0  0  0  0  0  0  0
  153.2928  142.7190  158.2905 H   0  0  0  0  0  0  0  0  0  0  0  0
  152.3940  144.2429  160.7478 H   0  0  0  0  0  0  0  0  0  0  0  0
  153.2880  144.8697  159.3560 H   0  0  0  0  0  0  0  0  0  0  0  0
  150.6359  145.2908  159.4214 H   0  0  0  0  0  0  0  0  0  0  0  0
  151.3074  144.6362  157.9211 H   0  0  0  0  0  0  0  0  0  0  0  0
  152.6353  138.2734  155.0046 H   0  0  0  0  0  0  0  0  0  0  0  0
  153.6904  138.6515  156.3072 H   0  0  0  0  0  0  0  0  0  0  0  0
  152.0281  137.3998  157.9048 H   0  0  0  0  0  0  0  0  0  0  0  0
  153.7591  136.2565  157.2849 H   0  0  0  0  0  0  0  0  0  0  0  0
  1  2  2  0  0  0  0
  2 14  1  0  0  0  0
  2  3  1  0  0  0  0
  3  4  1  0  0  0  0
  3  5  2  0  0  0  0
  5  6  1  0  0  0  0
  5 22  1  0  0  0  0
  6  7  1  0  0  0  0
  6 12  1  0  0  0  0
  7 11  1  0  0  0  0
  7  8  1  0  0  0  0
  7 23  1  0  0  0  0
  8  9  1  0  0  0  0
  8 24  1  0  0  0  0
  8 25  1  0  0  0  0
  9 10  1  0  0  0  0
  9 26  1  0  0  0  0
  9 27  1  0  0  0  0
 10 11  1  0  0  0  0
 10 28  1  0  0  0  0
 10 29  1  0  0  0  0
 12 13  2  0  0  0  0
 12 14  1  0  0  0  0
 14 15  1  0  0  0  0
 15 16  1  0  0  0  0
 15 30  1  0  0  0  0
 15 31  1  0  0  0  0
 16 17  1  0  0  0  0
 16 18  1  0  0  0  0
 16 32  1  0  0  0  0
 17 33  1  0  0  0  0
 18 19  1  0  0  0  0
 18 20  1  0  0  0  0
 18 21  1  0  0  0  0
M  END
> <s_m_source_file>
AV-unprocessed.smi

> <i_m_source_file_index>
288

> <i_lp_mmshare_version>
43012

> <i_f3d_flags>
0

> <s_epik_input>
TzFbQ0gyXVtDSDJdW0NIMl1bQ0BIXTFuKFtjSF1jKEYpYzI9TyljKD1PKW4yW0NIMl1bQ0BIXShbT0hdKUMoRikoRilG

> <s_epik_cmdline>
J2VwaWtfcHl0aG9uJywgJy1waCcsICc3LjAnLCAnLXRuJywgJzgnLCAnLW1hJywgJzIwMCcsICctbWV0YWxfYmluZGluZycsICctaW1hZScsICc8aW5maWxlLm1hZT4nLCAnLW9tYWUnLCAnPG91dGZpbGUubWFlPic=

> <r_lp_tautomer_probability>
1

> <r_epik_Ionization_Penalty>
0.000551119

> <r_epik_Ionization_Penalty_Charging>
2.51184e-08

> <r_epik_Ionization_Penalty_Neutral>
0.000551094

> <r_epik_State_Penalty>
0.000345115

> <r_epik_Charging_Adjusted_Penalty>
0.00034514

> <i_epik_Tot_Q>
0

> <i_epik_Tot_abs_Q>
0

> <r_epik_Metal_State_Penalty>
-0

> <b_epik_Metal_Only>
0

> <s_epik_Chemistry_Notes>
This compound contains an acetal/aminal-like group ( X-CH(R)-Y where X, Y are N, S, or O) that may be acid/base labile, releasing an aldehyde.

> <s_lp_Force_Field>
OPLS_2005

> <r_lp_Energy>
35.1555

> <b_lp_Chiralities_Consistent>
1

> <s_lp_Variant>
AV-unprocessed.smi:288-2

> <Gold.Version>
5.8.1

> <Gold.Id.Protein>
6NUR|6NUR_protein|mol2

> <Gold.PLP.Fitness>
43.5922

> <Gold.PLP.PLP>
-37.5428

> <Gold.PLP.part.hbond>
-2.3789

> <Gold.PLP.part.metal>
0.0000

> <Gold.PLP.part.buried>
-2.3967

> <Gold.PLP.part.nonpolar>
-33.3826

> <Gold.PLP.part.repulsive>
0.2465

> <Gold.PLP.ligand.clash>
0.0000

> <Gold.PLP.ligand.torsion>
0.4290

> <Gold.PLP.Chemscore.Hbond>
1.3000

> <Gold.PLP.Chemscore.CHOScore>
0.9992

> <Gold.PLP.Chemscore.Metal>
0.0000

> <Gold.Chemscore.Hbonds>
donor molecule, donor type, donor heavy atom, donor atom, acceptor molecule, acceptor atom, score
      P1  H  7989  7998       L1     1  0.30
      P1  H 10752 10765       L1    17  1.00
      L1  C     5    22       P1  8028  1.00

> <Gold.PLP.Chemscore.Internal.Correction>
0.0098

> <Gold.Rescore>
     Score         DG    S(hbond)    S(metal)    S(lipo)     H(rot)  DE(clash)    DE(int)     intcor
      6.93      -9.32       0.99        0.00      60.64       2.57       0.05       2.34       ----

> <Gold.Chemscore.Fitness>
6.9259

> <Gold.Chemscore.DG>
-9.3153

> <Gold.Chemscore.ZeroCoef>
-5.4800

> <Gold.Chemscore.Hbond>
0.9905

> <Gold.Chemscore.Metal>
0.0000

> <Gold.Chemscore.Lipo>
60.6415

> <Gold.Chemscore.Internal_Hbond>
0.0000

> <Gold.Chemscore.DEClash>
0.0514

> <Gold.Chemscore.DEInternal>
2.3380

> <Gold.Chemscore.Rot>
2.5656

> <Gold.Chemscore.Internal.Correction>
   9.000000E+99

> <Gold.Chemscore.Hbonds>
donor molecule, donor type, donor heavy atom, donor atom, acceptor molecule, acceptor atom, score
      P1  H 10752 10765       L1    17  0.91

> <Gold.Chemscore.Hbond.Weighted>
-3.3081

> <Gold.Chemscore.Metal.Weighted>
-0.0000

> <Gold.Chemscore.Lipo.Weighted>
-7.0951

> <Gold.Chemscore.Internal_Hbond.Weighted>
0.0000

> <Gold.Chemscore.DEClash.Weighted>
0.0514

> <Gold.Chemscore.DEInternal.Weighted>
2.3380

> <Gold.Chemscore.Rot.Weighted>
6.5679

> <Gold.Chemscore.Internal.Correction.Weighted>
   9.000000E+99

> <Gold.Protein.RotatedTorsions>
[ 6907 6896 6895 6894 ] final  109.83 input  -60.11 | X-H torsion
[ 7974 7965 7964 7962 ] final  136.11 input  175.53 | X-H torsion
[ 8008 7997 7996 7995 ] final  -40.14 input   59.86 | X-H torsion
[ 10167 10162 10161 10158 ] final -166.31 input  -65.29 | X-H torsion
[ 10718 10713 10712 10709 ] final  -51.15 input   66.30 | X-H torsion
[ 10763 10752 10751 10750 ] final -128.19 input  -60.55 | X-H torsion
[ 11005 11000 10999 10996 ] final  -28.06 input  -57.11 | X-H torsion

> <Gold.Protein.ActiveResidues>
 VAL166  LYS551  ARG553  GLY616  TRP617  ASP618  TYR619  PRO620  LYS621  CYS622 
 ASP623  PHE694  ASN695  SER759  ASP760  ASP761  ALA762  ILE779  LEU786  VAL792 
 PHE793  MET794  SER795  GLU796  ALA797  LYS798  CYS799  TRP800  GLU811  SER814 

> <Gold.Protein.RotatedAtoms>
  152.5049  133.8888  159.7383 H   0  0  0  0  0  0  0  0  0  0  0  0  # atno 6907 bound_to 6896
  150.9332  133.6734  159.2813 H   0  0  0  0  0  0  0  0  0  0  0  0  # atno 6908 bound_to 6896
  151.4071  135.0984  159.9626 H   0  0  0  0  0  0  0  0  0  0  0  0  # atno 6909 bound_to 6896
  144.9597  139.4724  143.5485 H   0  0  0  0  0  0  0  0  0  0  0  0  # atno 7974 bound_to 7965
  154.4015  140.1533  156.2978 H   0  0  0  0  0  0  0  0  0  0  0  0  # atno 8008 bound_to 7997
  155.8728  140.3448  155.5811 H   0  0  0  0  0  0  0  0  0  0  0  0  # atno 8009 bound_to 7997
  155.7755  140.0836  157.2077 H   0  0  0  0  0  0  0  0  0  0  0  0  # atno 8010 bound_to 7997
  139.6124  144.0788  152.1854 H   0  0  0  0  0  0  0  0  0  0  0  0  # atno 10167 bound_to 10162
  156.1736  130.4149  149.9611 H   0  0  0  0  0  0  0  0  0  0  0  0  # atno 10718 bound_to 10713
  154.8755  135.3937  154.3716 H   0  0  0  0  0  0  0  0  0  0  0  0  # atno 10763 bound_to 10752
  153.4475  135.7027  153.6135 H   0  0  0  0  0  0  0  0  0  0  0  0  # atno 10764 bound_to 10752
  153.4689  135.3795  155.2349 H   0  0  0  0  0  0  0  0  0  0  0  0  # atno 10765 bound_to 10752
  140.9174  133.7421  156.0754 H   0  0  0  0  0  0  0  0  0  0  0  0  # atno 11005 bound_to 11000
  146.3349  139.8738  142.8835 LP  0  0  0  0  0  0  0  0  0  0  0  0  # atno 17320 bound_to 7965
  145.2719  141.0111  143.3767 LP  0  0  0  0  0  0  0  0  0  0  0  0  # atno 17321 bound_to 7965
  140.0410  144.6007  150.7411 LP  0  0  0  0  0  0  0  0  0  0  0  0  # atno 17342 bound_to 10162
  140.7328  143.2709  151.3890 LP  0  0  0  0  0  0  0  0  0  0  0  0  # atno 17343 bound_to 10162
  156.7403  130.9077  151.3632 LP  0  0  0  0  0  0  0  0  0  0  0  0  # atno 17370 bound_to 10713
  157.6820  130.9149  150.0290 LP  0  0  0  0  0  0  0  0  0  0  0  0  # atno 17371 bound_to 10713
  140.8032  134.3485  157.5433 LP  0  0  0  0  0  0  0  0  0  0  0  0  # atno 17394 bound_to 11000
  139.8769  134.9210  156.3264 LP  0  0  0  0  0  0  0  0  0  0  0  0  # atno 17395 bound_to 11000

$$$$
