AV-unprocessed.smi:1679|AV-procd|sdf|6736|dock4
  -GOLD-   22720 7483D 1   1.00000     0.00000
 Structure written by MMmdl.
 44 45  0  0  0  0  0  0  0  0  2 V2000
  153.8224  141.1996  160.0135 C   0  0  0  0  0  0  0  0  0  0  0  0
  152.6904  142.1676  159.6307 C   0  0  1  0  0  0  0  0  0  0  0  0
  153.0729  143.6191  159.9849 C   0  0  0  0  0  0  0  0  0  0  0  0
  151.9615  144.6098  159.6071 C   0  0  0  0  0  0  0  0  0  0  0  0
  151.6034  144.4943  158.1191 C   0  0  0  0  0  0  0  0  0  0  0  0
  151.2084  143.0549  157.7574 C   0  0  0  0  0  0  0  0  0  0  0  0
  152.3175  142.0500  158.1352 C   0  0  2  0  0  0  0  0  0  0  0  0
  151.8634  140.7215  157.9075 O   0  0  0  0  0  0  0  0  0  0  0  0
  151.3705  140.4772  156.5979 C   0  0  0  0  0  0  0  0  0  0  0  0
  151.8000  139.0722  156.1633 C   0  0  0  0  0  0  0  0  0  0  0  0
  150.8550  138.0769  156.6505 N   0  0  0  0  0  0  0  0  0  0  0  0
  150.6164  136.8995  156.0575 C   0  0  0  0  0  0  0  0  0  0  0  0
  151.2027  136.5275  155.0399 O   0  0  0  0  0  0  0  0  0  0  0  0
  149.5763  136.0008  156.7409 C   0  0  0  0  0  0  0  0  0  0  0  0
  149.5453  134.6344  156.1947 N   0  0  0  0  0  0  0  0  0  0  0  0
  149.0466  134.4624  154.8914 C   0  0  0  0  0  0  0  0  0  0  0  0
  148.9774  133.2489  154.3115 C   0  0  0  0  0  0  0  0  0  0  0  0
  149.4374  132.0932  155.0718 C   0  0  0  0  0  0  0  0  0  0  0  0
  149.3866  130.9782  154.5560 O   0  0  0  0  0  0  0  0  0  0  0  0
  149.9081  132.3108  156.3346 N   0  5  0  0  0  0  0  0  0  0  0  0
  149.9699  133.5509  156.9127 C   0  0  0  0  0  0  0  0  0  0  0  0
  150.3957  133.7247  158.0552 O   0  0  0  0  0  0  0  0  0  0  0  0
  154.7295  141.4050  159.4443 H   0  0  0  0  0  0  0  0  0  0  0  0
  153.5405  140.1630  159.8266 H   0  0  0  0  0  0  0  0  0  0  0  0
  154.0681  141.2830  161.0725 H   0  0  0  0  0  0  0  0  0  0  0  0
  151.8124  141.8997  160.2209 H   0  0  0  0  0  0  0  0  0  0  0  0
  153.2837  143.6991  161.0520 H   0  0  0  0  0  0  0  0  0  0  0  0
  153.9936  143.8941  159.4683 H   0  0  0  0  0  0  0  0  0  0  0  0
  151.0759  144.4165  160.2139 H   0  0  0  0  0  0  0  0  0  0  0  0
  152.2774  145.6281  159.8357 H   0  0  0  0  0  0  0  0  0  0  0  0
  150.7868  145.1757  157.8790 H   0  0  0  0  0  0  0  0  0  0  0  0
  152.4548  144.8041  157.5117 H   0  0  0  0  0  0  0  0  0  0  0  0
  150.2853  142.7916  158.2755 H   0  0  0  0  0  0  0  0  0  0  0  0
  150.9887  143.0025  156.6913 H   0  0  0  0  0  0  0  0  0  0  0  0
  153.2114  142.2500  157.5408 H   0  0  0  0  0  0  0  0  0  0  0  0
  150.2830  140.5478  156.5826 H   0  0  0  0  0  0  0  0  0  0  0  0
  151.7572  141.2180  155.8962 H   0  0  0  0  0  0  0  0  0  0  0  0
  151.8665  139.0153  155.0759 H   0  0  0  0  0  0  0  0  0  0  0  0
  152.7927  138.8537  156.5599 H   0  0  0  0  0  0  0  0  0  0  0  0
  150.3307  138.3093  157.4814 H   0  0  0  0  0  0  0  0  0  0  0  0
  149.7979  135.9786  157.8088 H   0  0  0  0  0  0  0  0  0  0  0  0
  148.5875  136.4574  156.6632 H   0  0  0  0  0  0  0  0  0  0  0  0
  148.7217  135.3678  154.4000 H   0  0  0  0  0  0  0  0  0  0  0  0
  148.5889  133.1335  153.3103 H   0  0  0  0  0  0  0  0  0  0  0  0
  1  2  1  0  0  0  0
  1 23  1  0  0  0  0
  1 24  1  0  0  0  0
  1 25  1  0  0  0  0
  2  7  1  0  0  0  0
  2  3  1  0  0  0  0
  2 26  1  0  0  0  0
  3  4  1  0  0  0  0
  3 27  1  0  0  0  0
  3 28  1  0  0  0  0
  4  5  1  0  0  0  0
  4 29  1  0  0  0  0
  4 30  1  0  0  0  0
  5  6  1  0  0  0  0
  5 31  1  0  0  0  0
  5 32  1  0  0  0  0
  6  7  1  0  0  0  0
  6 33  1  0  0  0  0
  6 34  1  0  0  0  0
  7  8  1  0  0  0  0
  7 35  1  0  0  0  0
  8  9  1  0  0  0  0
  9 10  1  0  0  0  0
  9 36  1  0  0  0  0
  9 37  1  0  0  0  0
 10 11  1  0  0  0  0
 10 38  1  0  0  0  0
 10 39  1  0  0  0  0
 11 12  1  0  0  0  0
 11 40  1  0  0  0  0
 12 13  2  0  0  0  0
 12 14  1  0  0  0  0
 14 15  1  0  0  0  0
 14 41  1  0  0  0  0
 14 42  1  0  0  0  0
 15 21  1  0  0  0  0
 15 16  1  0  0  0  0
 16 17  2  0  0  0  0
 16 43  1  0  0  0  0
 17 18  1  0  0  0  0
 17 44  1  0  0  0  0
 18 19  2  0  0  0  0
 18 20  1  0  0  0  0
 20 21  1  0  0  0  0
 21 22  2  0  0  0  0
M  CHG  1  20  -1
M  END
> <s_m_source_file>
AV-unprocessed.smi

> <i_m_source_file_index>
1679

> <i_lp_mmshare_version>
43012

> <i_f3d_flags>
0

> <s_epik_input>
W0NIM11bQ0BASF0xW0NIMl1bQ0gyXVtDSDJdW0NIMl1bQ0BIXTFPW0NIMl1bQ0gyXVtOSF1DKD1PKVtDSDJdbjJbY0hdW2NIXWMoPU8pW25IXWMyPU8=

> <s_epik_cmdline>
J2VwaWtfcHl0aG9uJywgJy1waCcsICc3LjAnLCAnLXRuJywgJzgnLCAnLW1hJywgJzIwMCcsICctbWV0YWxfYmluZGluZycsICctaW1hZScsICc8aW5maWxlLm1hZT4nLCAnLW9tYWUnLCAnPG91dGZpbGUubWFlPic=

> <r_lp_tautomer_probability>
0.999537

> <r_epik_Ionization_Penalty>
3.07454

> <r_epik_Ionization_Penalty_Charging>
2.80088e-08

> <r_epik_Ionization_Penalty_Neutral>
3.07454

> <r_epik_State_Penalty>
3.07357

> <r_epik_Charging_Adjusted_Penalty>
3.07357

> <i_epik_Tot_Q>
-1

> <i_epik_Tot_abs_Q>
1

> <r_epik_Metal_State_Penalty>
0.45948

> <b_epik_Metal_Only>
1

> <s_lp_Force_Field>
OPLS_2005

> <r_lp_Energy>
20.702

> <b_lp_Chiralities_Consistent>
1

> <s_lp_Variant>
AV-unprocessed.smi:1679-8

> <Gold.Version>
5.8.1

> <Gold.Id.Protein>
6NUR|6NUR_protein|mol2

> <Gold.PLP.Fitness>
49.4426

> <Gold.PLP.PLP>
-41.9154

> <Gold.PLP.part.hbond>
-2.0000

> <Gold.PLP.part.metal>
0.0000

> <Gold.PLP.part.buried>
-5.4742

> <Gold.PLP.part.nonpolar>
-34.0552

> <Gold.PLP.part.repulsive>
0.2386

> <Gold.PLP.ligand.clash>
0.0000

> <Gold.PLP.ligand.torsion>
0.7830

> <Gold.PLP.Chemscore.Hbond>
2.0000

> <Gold.PLP.Chemscore.CHOScore>
1.0000

> <Gold.PLP.Chemscore.Metal>
0.0000

> <Gold.Chemscore.Hbonds>
donor molecule, donor type, donor heavy atom, donor atom, acceptor molecule, acceptor atom, score
      P1  H  6896  6909       L1    22  0.33
      P1  H 10752 10763       L1    13  1.00
      L1  C    16    43       P1  7948  0.65

> <Gold.PLP.Chemscore.Internal.Correction>
0.0932

> <Gold.Rescore>
     Score         DG    S(hbond)    S(metal)    S(lipo)     H(rot)  DE(clash)    DE(int)     intcor
     15.74     -17.62       1.91        0.00     102.74       2.45       0.07       1.81       ----

> <Gold.Chemscore.Fitness>
15.7434

> <Gold.Chemscore.DG>
-17.6249

> <Gold.Chemscore.ZeroCoef>
-5.4800

> <Gold.Chemscore.Hbond>
1.9142

> <Gold.Chemscore.Metal>
0.0000

> <Gold.Chemscore.Lipo>
102.7423

> <Gold.Chemscore.Internal_Hbond>
0.0000

> <Gold.Chemscore.DEClash>
0.0733

> <Gold.Chemscore.DEInternal>
1.8081

> <Gold.Chemscore.Rot>
2.4490

> <Gold.Chemscore.Internal.Correction>
   9.000000E+99

> <Gold.Chemscore.Hbonds>
donor molecule, donor type, donor heavy atom, donor atom, acceptor molecule, acceptor atom, score
      P1  H  6896  6909       L1    22  0.32
      P1  H 10752 10763       L1    13  0.94

> <Gold.Chemscore.Hbond.Weighted>
-6.3934

> <Gold.Chemscore.Metal.Weighted>
-0.0000

> <Gold.Chemscore.Lipo.Weighted>
-12.0209

> <Gold.Chemscore.Internal_Hbond.Weighted>
0.0000

> <Gold.Chemscore.DEClash.Weighted>
0.0733

> <Gold.Chemscore.DEInternal.Weighted>
1.8081

> <Gold.Chemscore.Rot.Weighted>
6.2694

> <Gold.Chemscore.Internal.Correction.Weighted>
   9.000000E+99

> <Gold.Protein.RotatedTorsions>
[ 6907 6896 6895 6894 ] final   -9.42 input  -60.11 | X-H torsion
[ 7974 7965 7964 7962 ] final  -29.70 input  175.53 | X-H torsion
[ 8008 7997 7996 7995 ] final  -59.16 input   59.86 | X-H torsion
[ 10167 10162 10161 10158 ] final  -88.36 input  -65.29 | X-H torsion
[ 10718 10713 10712 10709 ] final -159.85 input   66.30 | X-H torsion
[ 10763 10752 10751 10750 ] final   54.19 input  -60.55 | X-H torsion
[ 11005 11000 10999 10996 ] final -112.76 input  -57.11 | X-H torsion

> <Gold.Protein.ActiveResidues>
 VAL166  LYS551  ARG553  GLY616  TRP617  ASP618  TYR619  PRO620  LYS621  CYS622 
 ASP623  PHE694  ASN695  SER759  ASP760  ASP761  ALA762  ILE779  LEU786  VAL792 
 PHE793  MET794  SER795  GLU796  ALA797  LYS798  CYS799  TRP800  GLU811  SER814 

> <Gold.Protein.RotatedAtoms>
  151.4181  135.0994  159.9605 H   0  0  0  0  0  0  0  0  0  0  0  0  # atno 6907 bound_to 6896
  152.4997  133.8733  159.7320 H   0  0  0  0  0  0  0  0  0  0  0  0  # atno 6908 bound_to 6896
  150.9243  133.6785  159.2853 H   0  0  0  0  0  0  0  0  0  0  0  0  # atno 6909 bound_to 6896
  146.1197  140.5446  142.8741 H   0  0  0  0  0  0  0  0  0  0  0  0  # atno 7974 bound_to 7965
  154.4340  140.1068  156.6072 H   0  0  0  0  0  0  0  0  0  0  0  0  # atno 8008 bound_to 7997
  155.5848  140.3491  155.4531 H   0  0  0  0  0  0  0  0  0  0  0  0  # atno 8009 bound_to 7997
  156.0291  140.1256  157.0266 H   0  0  0  0  0  0  0  0  0  0  0  0  # atno 8010 bound_to 7997
  140.3754  143.2774  151.9449 H   0  0  0  0  0  0  0  0  0  0  0  0  # atno 10167 bound_to 10162
  156.5739  130.8700  151.2846 H   0  0  0  0  0  0  0  0  0  0  0  0  # atno 10718 bound_to 10713
  152.9802  135.5753  154.4863 H   0  0  0  0  0  0  0  0  0  0  0  0  # atno 10763 bound_to 10752
  154.4404  135.2775  155.1853 H   0  0  0  0  0  0  0  0  0  0  0  0  # atno 10764 bound_to 10752
  154.3524  135.6206  153.5703 H   0  0  0  0  0  0  0  0  0  0  0  0  # atno 10765 bound_to 10752
  141.0656  133.9465  157.2585 H   0  0  0  0  0  0  0  0  0  0  0  0  # atno 11005 bound_to 11000
  144.7586  140.5367  143.6751 LP  0  0  0  0  0  0  0  0  0  0  0  0  # atno 17320 bound_to 7965
  145.5492  139.1476  143.3404 LP  0  0  0  0  0  0  0  0  0  0  0  0  # atno 17321 bound_to 7965
  139.4800  144.5868  151.7839 LP  0  0  0  0  0  0  0  0  0  0  0  0  # atno 17342 bound_to 10162
  140.4991  144.1195  150.5967 LP  0  0  0  0  0  0  0  0  0  0  0  0  # atno 17343 bound_to 10162
  157.7342  130.9742  150.2016 LP  0  0  0  0  0  0  0  0  0  0  0  0  # atno 17370 bound_to 10713
  156.2690  130.3719  149.8051 LP  0  0  0  0  0  0  0  0  0  0  0  0  # atno 17371 bound_to 10713
  139.9473  135.0182  156.8890 LP  0  0  0  0  0  0  0  0  0  0  0  0  # atno 17394 bound_to 11000
  140.5781  134.0379  155.7454 LP  0  0  0  0  0  0  0  0  0  0  0  0  # atno 17395 bound_to 11000

$$$$
