AV-unprocessed.smi:501|AV-procd|sdf|2742|dock2
  -GOLD-   2262023203D 1   1.00000     0.00000
 Structure written by MMmdl.
 45 47  0  0  0  0  0  0  0  0  1 V2000
  151.4073  145.3309  158.8422 C   0  0  0  0  0  0  0  0  0  0  0  0
  152.0752  144.2266  159.6355 C   0  0  0  0  0  0  0  0  0  0  0  0
  151.8472  144.1198  161.0217 C   0  0  0  0  0  0  0  0  0  0  0  0
  152.4652  143.0930  161.7583 C   0  0  0  0  0  0  0  0  0  0  0  0
  153.3097  142.1717  161.1105 C   0  0  0  0  0  0  0  0  0  0  0  0
  153.5463  142.2612  159.7235 C   0  0  0  0  0  0  0  0  0  0  0  0
  154.3830  141.3154  159.1707 O   0  0  0  0  0  0  0  0  0  0  0  0
  155.3673  140.7197  160.0037 C   0  0  0  0  0  0  0  0  0  0  0  0
  155.6542  139.3058  159.4851 C   0  0  0  0  0  0  0  0  0  0  0  0
  154.7874  138.3142  160.1065 N   0  0  0  0  0  0  0  0  0  0  0  0
  153.9015  137.4606  159.5272 C   0  0  0  0  0  0  0  0  0  0  0  0
  153.6705  137.3871  158.0460 C   0  0  0  0  0  0  0  0  0  0  0  0
  152.9391  138.6237  157.4971 C   0  0  0  0  0  0  0  0  0  0  0  0
  152.1596  138.3039  156.3068 N   0  0  0  0  0  0  0  0  0  0  0  0
  152.3225  138.8763  155.1058 C   0  0  0  0  0  0  0  0  0  0  0  0
  153.1581  139.7436  154.8555 O   0  0  0  0  0  0  0  0  0  0  0  0
  153.2460  136.6546  160.3638 N   0  0  0  0  0  0  0  0  0  0  0  0
  153.7494  137.0153  161.5972 C   0  0  0  0  0  0  0  0  0  0  0  0
  153.4531  136.5250  162.8891 C   0  0  0  0  0  0  0  0  0  0  0  0
  154.1090  137.0532  164.0205 C   0  0  0  0  0  0  0  0  0  0  0  0
  155.0684  138.0762  163.8762 C   0  0  0  0  0  0  0  0  0  0  0  0
  155.3772  138.5792  162.5976 C   0  0  0  0  0  0  0  0  0  0  0  0
  154.7184  138.0497  161.4715 C   0  0  0  0  0  0  0  0  0  0  0  0
  152.9202  143.3005  158.9889 C   0  0  0  0  0  0  0  0  0  0  0  0
  151.3010  146.2320  159.4470 H   0  0  0  0  0  0  0  0  0  0  0  0
  150.4153  145.0146  158.5193 H   0  0  0  0  0  0  0  0  0  0  0  0
  151.9919  145.5859  157.9579 H   0  0  0  0  0  0  0  0  0  0  0  0
  151.1984  144.8234  161.5228 H   0  0  0  0  0  0  0  0  0  0  0  0
  152.2909  143.0106  162.8210 H   0  0  0  0  0  0  0  0  0  0  0  0
  153.7796  141.3864  161.6842 H   0  0  0  0  0  0  0  0  0  0  0  0
  156.2800  141.3146  159.9883 H   0  0  0  0  0  0  0  0  0  0  0  0
  155.0089  140.6695  161.0331 H   0  0  0  0  0  0  0  0  0  0  0  0
  155.4946  139.2718  158.4069 H   0  0  0  0  0  0  0  0  0  0  0  0
  156.6992  139.0416  159.6352 H   0  0  0  0  0  0  0  0  0  0  0  0
  154.6430  137.2947  157.5607 H   0  0  0  0  0  0  0  0  0  0  0  0
  153.1297  136.4805  157.7830 H   0  0  0  0  0  0  0  0  0  0  0  0
  152.2565  139.0205  158.2470 H   0  0  0  0  0  0  0  0  0  0  0  0
  153.6506  139.4214  157.2763 H   0  0  0  0  0  0  0  0  0  0  0  0
  151.4419  137.6003  156.4045 H   0  0  0  0  0  0  0  0  0  0  0  0
  151.6083  138.4659  154.3754 H   0  0  0  0  0  0  0  0  0  0  0  0
  152.7207  135.7405  163.0092 H   0  0  0  0  0  0  0  0  0  0  0  0
  153.8753  136.6712  165.0035 H   0  0  0  0  0  0  0  0  0  0  0  0
  155.5672  138.4748  164.7475 H   0  0  0  0  0  0  0  0  0  0  0  0
  156.1123  139.3621  162.4844 H   0  0  0  0  0  0  0  0  0  0  0  0
  153.0749  143.4065  157.9259 H   0  0  0  0  0  0  0  0  0  0  0  0
  1  2  1  0  0  0  0
  1 25  1  0  0  0  0
  1 26  1  0  0  0  0
  1 27  1  0  0  0  0
  2 24  1  0  0  0  0
  2  3  2  0  0  0  0
  3  4  1  0  0  0  0
  3 28  1  0  0  0  0
  4  5  2  0  0  0  0
  4 29  1  0  0  0  0
  5  6  1  0  0  0  0
  5 30  1  0  0  0  0
  6  7  1  0  0  0  0
  6 24  2  0  0  0  0
  7  8  1  0  0  0  0
  8  9  1  0  0  0  0
  8 31  1  0  0  0  0
  8 32  1  0  0  0  0
  9 10  1  0  0  0  0
  9 33  1  0  0  0  0
  9 34  1  0  0  0  0
 10 23  1  0  0  0  0
 10 11  1  0  0  0  0
 11 12  1  0  0  0  0
 11 17  2  0  0  0  0
 12 13  1  0  0  0  0
 12 35  1  0  0  0  0
 12 36  1  0  0  0  0
 13 14  1  0  0  0  0
 13 37  1  0  0  0  0
 13 38  1  0  0  0  0
 14 15  1  0  0  0  0
 14 39  1  0  0  0  0
 15 16  2  0  0  0  0
 15 40  1  0  0  0  0
 17 18  1  0  0  0  0
 18 23  2  0  0  0  0
 18 19  1  0  0  0  0
 19 20  2  0  0  0  0
 19 41  1  0  0  0  0
 20 21  1  0  0  0  0
 20 42  1  0  0  0  0
 21 22  2  0  0  0  0
 21 43  1  0  0  0  0
 22 23  1  0  0  0  0
 22 44  1  0  0  0  0
 24 45  1  0  0  0  0
M  END
> <s_m_source_file>
AV-unprocessed.smi

> <i_m_source_file_index>
501

> <i_lp_mmshare_version>
43012

> <i_f3d_flags>
0

> <s_epik_input>
W0NIM11jMVtjSF1bY0hdW2NIXWMoW2NIXTEpT1tDSDJdW0NIMl1uKGMobjIpW0NIMl1bQ0gyXVtOSF1bQ0hdPU8pYyhjMjMpW2NIXVtjSF1bY0hdW2NIXTM=

> <s_epik_cmdline>
J2VwaWtfcHl0aG9uJywgJy1waCcsICc3LjAnLCAnLXRuJywgJzgnLCAnLW1hJywgJzIwMCcsICctbWV0YWxfYmluZGluZycsICctaW1hZScsICc8aW5maWxlLm1hZT4nLCAnLW9tYWUnLCAnPG91dGZpbGUubWFlPic=

> <r_lp_tautomer_probability>
1

> <r_epik_Ionization_Penalty>
0.092246

> <r_epik_Ionization_Penalty_Charging>
0

> <r_epik_Ionization_Penalty_Neutral>
0.092246

> <r_epik_State_Penalty>
0.0825475

> <r_epik_Charging_Adjusted_Penalty>
0.0825475

> <i_epik_Tot_Q>
0

> <i_epik_Tot_abs_Q>
0

> <r_epik_Metal_State_Penalty>
0.0713424

> <b_epik_Metal_Only>
0

> <s_lp_Force_Field>
OPLS_2005

> <r_lp_Energy>
15.5248

> <b_lp_Chiralities_Consistent>
1

> <s_lp_Variant>
AV-unprocessed.smi:501-1

> <Gold.Version>
5.8.1

> <Gold.Id.Protein>
6NUR|6NUR_protein|mol2

> <Gold.PLP.Fitness>
57.2105

> <Gold.PLP.PLP>
-52.2331

> <Gold.PLP.part.hbond>
-3.8926

> <Gold.PLP.part.metal>
0.0000

> <Gold.PLP.part.buried>
-2.8915

> <Gold.PLP.part.nonpolar>
-45.8826

> <Gold.PLP.part.repulsive>
0.1008

> <Gold.PLP.ligand.clash>
0.0000

> <Gold.PLP.ligand.torsion>
0.9930

> <Gold.PLP.Chemscore.Hbond>
2.2167

> <Gold.PLP.Chemscore.CHOScore>
0.0000

> <Gold.PLP.Chemscore.Metal>
0.0000

> <Gold.Chemscore.Hbonds>
donor molecule, donor type, donor heavy atom, donor atom, acceptor molecule, acceptor atom, score
      P1  H  6896  6908       L1    17  1.00
      P1  H  7989  7998       L1    16  0.07
      P1  H  7997  8008       L1     7  0.02
      P1  H  7997  8009       L1    16  1.00

> <Gold.PLP.Chemscore.Internal.Correction>
0.3134

> <Gold.Rescore>
     Score         DG    S(hbond)    S(metal)    S(lipo)     H(rot)  DE(clash)    DE(int)     intcor
     20.74     -23.30       2.13        0.00     148.54       2.61       1.48       1.09       ----

> <Gold.Chemscore.Fitness>
20.7354

> <Gold.Chemscore.DG>
-23.3013

> <Gold.Chemscore.ZeroCoef>
-5.4800

> <Gold.Chemscore.Hbond>
2.1345

> <Gold.Chemscore.Metal>
0.0000

> <Gold.Chemscore.Lipo>
148.5398

> <Gold.Chemscore.Internal_Hbond>
0.0000

> <Gold.Chemscore.DEClash>
1.4769

> <Gold.Chemscore.DEInternal>
1.0890

> <Gold.Chemscore.Rot>
2.6122

> <Gold.Chemscore.Internal.Correction>
   9.000000E+99

> <Gold.Chemscore.Hbonds>
donor molecule, donor type, donor heavy atom, donor atom, acceptor molecule, acceptor atom, score
      P1  H  6896  6908       L1    17  0.94
      P1  H  7997  8009       L1    16  1.00

> <Gold.Chemscore.Hbond.Weighted>
-7.1294

> <Gold.Chemscore.Metal.Weighted>
-0.0000

> <Gold.Chemscore.Lipo.Weighted>
-17.3792

> <Gold.Chemscore.Internal_Hbond.Weighted>
0.0000

> <Gold.Chemscore.DEClash.Weighted>
1.4769

> <Gold.Chemscore.DEInternal.Weighted>
1.0890

> <Gold.Chemscore.Rot.Weighted>
6.6872

> <Gold.Chemscore.Internal.Correction.Weighted>
   9.000000E+99

> <Gold.Protein.RotatedTorsions>
[ 6907 6896 6895 6894 ] final  -87.16 input  -60.11 | X-H torsion
[ 7974 7965 7964 7962 ] final  -44.01 input  175.53 | X-H torsion
[ 8008 7997 7996 7995 ] final -133.05 input   59.86 | X-H torsion
[ 10167 10162 10161 10158 ] final  -91.69 input  -65.29 | X-H torsion
[ 10718 10713 10712 10709 ] final -136.99 input   66.30 | X-H torsion
[ 10763 10752 10751 10750 ] final  -55.40 input  -60.55 | X-H torsion
[ 11005 11000 10999 10996 ] final  155.30 input  -57.11 | X-H torsion

> <Gold.Protein.ActiveResidues>
 VAL166  LYS551  ARG553  GLY616  TRP617  ASP618  TYR619  PRO620  LYS621  CYS622 
 ASP623  PHE694  ASN695  SER759  ASP760  ASP761  ALA762  ILE779  LEU786  VAL792 
 PHE793  MET794  SER795  GLU796  ALA797  LYS798  CYS799  TRP800  GLU811  SER814 

> <Gold.Protein.RotatedAtoms>
  150.6866  134.2939  159.4677 H   0  0  0  0  0  0  0  0  0  0  0  0  # atno 6907 bound_to 6896
  152.0841  134.9449  160.0582 H   0  0  0  0  0  0  0  0  0  0  0  0  # atno 6908 bound_to 6896
  152.0790  133.4109  159.4530 H   0  0  0  0  0  0  0  0  0  0  0  0  # atno 6909 bound_to 6896
  145.9963  140.7125  142.9292 H   0  0  0  0  0  0  0  0  0  0  0  0  # atno 7974 bound_to 7965
  155.3391  140.0471  157.3044 H   0  0  0  0  0  0  0  0  0  0  0  0  # atno 8008 bound_to 7997
  154.5287  140.2249  155.8808 H   0  0  0  0  0  0  0  0  0  0  0  0  # atno 8009 bound_to 7997
  156.1766  140.3083  155.9077 H   0  0  0  0  0  0  0  0  0  0  0  0  # atno 8010 bound_to 7997
  140.3423  143.2935  151.9821 H   0  0  0  0  0  0  0  0  0  0  0  0  # atno 10167 bound_to 10162
  156.2832  130.7332  151.1336 H   0  0  0  0  0  0  0  0  0  0  0  0  # atno 10718 bound_to 10713
  154.1902  135.6428  153.5058 H   0  0  0  0  0  0  0  0  0  0  0  0  # atno 10763 bound_to 10752
  153.0037  135.5427  154.6423 H   0  0  0  0  0  0  0  0  0  0  0  0  # atno 10764 bound_to 10752
  154.5810  135.2925  155.0705 H   0  0  0  0  0  0  0  0  0  0  0  0  # atno 10765 bound_to 10752
  140.1569  134.8636  157.2525 H   0  0  0  0  0  0  0  0  0  0  0  0  # atno 11005 bound_to 11000
  144.6904  140.3156  143.7241 LP  0  0  0  0  0  0  0  0  0  0  0  0  # atno 17320 bound_to 7965
  145.7555  139.1807  143.2297 LP  0  0  0  0  0  0  0  0  0  0  0  0  # atno 17321 bound_to 7965
  139.4838  144.6146  151.7370 LP  0  0  0  0  0  0  0  0  0  0  0  0  # atno 17342 bound_to 10162
  140.5297  144.0750  150.6049 LP  0  0  0  0  0  0  0  0  0  0  0  0  # atno 17343 bound_to 10162
  157.7321  131.0603  150.5647 LP  0  0  0  0  0  0  0  0  0  0  0  0  # atno 17370 bound_to 10713
  156.5755  130.4291  149.6000 LP  0  0  0  0  0  0  0  0  0  0  0  0  # atno 17371 bound_to 10713
  140.2536  134.3653  155.7432 LP  0  0  0  0  0  0  0  0  0  0  0  0  # atno 17394 bound_to 11000
  141.2205  133.7330  156.8974 LP  0  0  0  0  0  0  0  0  0  0  0  0  # atno 17395 bound_to 11000

$$$$
