AV-unprocessed.smi:1225|AV-procd|sdf|5141|dock6
  -GOLD-   22720 4203D 1   1.00000     0.00000
 Structure written by MMmdl.
 49 51  0  0  0  0  0  0  0  0  2 V2000
  144.5073  134.8583  150.3604 C   0  0  0  0  0  0  0  0  0  0  0  0
  145.1169  135.8614  151.2790 C   0  0  0  0  0  0  0  0  0  0  0  0
  145.0925  135.7562  152.6096 N   0  0  0  0  0  0  0  0  0  0  0  0
  145.7333  136.8239  153.2415 C   0  0  0  0  0  0  0  0  0  0  0  0
  146.2563  137.7493  152.3721 C   0  0  0  0  0  0  0  0  0  0  0  0
  147.0105  138.9944  152.7043 C   0  0  0  0  0  0  0  0  0  0  0  0
  148.2720  138.7046  153.4333 N   0  3  2  0  0  0  0  0  0  0  0  0
  148.0351  138.0584  154.7452 C   0  0  0  0  0  0  0  0  0  0  0  0
  149.1640  139.8856  153.5442 C   0  0  0  0  0  0  0  0  0  0  0  0
  148.6996  140.8594  154.6504 C   0  0  2  0  0  0  0  0  0  0  0  0
  147.5494  141.5433  154.1971 O   0  0  0  0  0  0  0  0  0  0  0  0
  149.7587  141.9127  155.0330 C   0  0  0  0  0  0  0  0  0  0  0  0
  150.7448  141.4004  155.9674 N   0  0  0  0  0  0  0  0  0  0  0  0
  151.5044  140.2971  155.8220 C   0  0  0  0  0  0  0  0  0  0  0  0
  152.3417  140.0000  156.8111 N   0  0  0  0  0  0  0  0  0  0  0  0
  152.1095  141.0388  157.6957 C   0  0  0  0  0  0  0  0  0  0  0  0
  152.6834  141.3152  158.9557 C   0  0  0  0  0  0  0  0  0  0  0  0
  152.2886  142.4505  159.6987 C   0  0  0  0  0  0  0  0  0  0  0  0
  152.9333  142.7101  161.0489 C   0  0  0  0  0  0  0  0  0  0  0  0
  151.3052  143.3315  159.1813 C   0  0  0  0  0  0  0  0  0  0  0  0
  150.8669  144.5585  159.9612 C   0  0  0  0  0  0  0  0  0  0  0  0
  150.7223  143.0708  157.9236 C   0  0  0  0  0  0  0  0  0  0  0  0
  151.1204  141.9357  157.1953 C   0  0  0  0  0  0  0  0  0  0  0  0
  145.9492  137.3040  150.7130 S   0  0  0  0  0  0  0  0  0  0  0  0
  143.8702  134.1675  150.9137 H   0  0  0  0  0  0  0  0  0  0  0  0
  145.2901  134.2881  149.8598 H   0  0  0  0  0  0  0  0  0  0  0  0
  143.9027  135.3615  149.6059 H   0  0  0  0  0  0  0  0  0  0  0  0
  145.7762  136.8429  154.3206 H   0  0  0  0  0  0  0  0  0  0  0  0
  147.2208  139.5235  151.7752 H   0  0  0  0  0  0  0  0  0  0  0  0
  146.3904  139.6697  153.2960 H   0  0  0  0  0  0  0  0  0  0  0  0
  147.5041  138.7303  155.4208 H   0  0  0  0  0  0  0  0  0  0  0  0
  148.9791  137.7784  155.2139 H   0  0  0  0  0  0  0  0  0  0  0  0
  147.4466  137.1473  154.6363 H   0  0  0  0  0  0  0  0  0  0  0  0
  150.1812  139.5336  153.7203 H   0  0  0  0  0  0  0  0  0  0  0  0
  149.1933  140.4280  152.5979 H   0  0  0  0  0  0  0  0  0  0  0  0
  148.4199  140.3085  155.5472 H   0  0  0  0  0  0  0  0  0  0  0  0
  146.8974  140.9055  153.9475 H   0  0  0  0  0  0  0  0  0  0  0  0
  150.2788  142.2671  154.1414 H   0  0  0  0  0  0  0  0  0  0  0  0
  149.2828  142.7839  155.4853 H   0  0  0  0  0  0  0  0  0  0  0  0
  151.4318  139.6702  154.9452 H   0  0  0  0  0  0  0  0  0  0  0  0
  153.4345  140.6455  159.3485 H   0  0  0  0  0  0  0  0  0  0  0  0
  152.1796  142.7295  161.8363 H   0  0  0  0  0  0  0  0  0  0  0  0
  153.4553  143.6672  161.0443 H   0  0  0  0  0  0  0  0  0  0  0  0
  153.6587  141.9357  161.2993 H   0  0  0  0  0  0  0  0  0  0  0  0
  150.1057  145.1227  159.4215 H   0  0  0  0  0  0  0  0  0  0  0  0
  151.7138  145.2225  160.1365 H   0  0  0  0  0  0  0  0  0  0  0  0
  150.4477  144.2693  160.9251 H   0  0  0  0  0  0  0  0  0  0  0  0
  149.9759  143.7374  157.5182 H   0  0  0  0  0  0  0  0  0  0  0  0
  148.7820  138.0327  152.8770 H   0  0  0  0  0  0  0  0  0  0  0  0
  1  2  1  0  0  0  0
  1 25  1  0  0  0  0
  1 26  1  0  0  0  0
  1 27  1  0  0  0  0
  2 24  1  0  0  0  0
  2  3  2  0  0  0  0
  3  4  1  0  0  0  0
  4  5  2  0  0  0  0
  4 28  1  0  0  0  0
  5  6  1  0  0  0  0
  5 24  1  0  0  0  0
  6  7  1  0  0  0  0
  6 29  1  0  0  0  0
  6 30  1  0  0  0  0
  7  8  1  0  0  0  0
  7  9  1  0  0  0  0
  7 49  1  0  0  0  0
  8 31  1  0  0  0  0
  8 32  1  0  0  0  0
  8 33  1  0  0  0  0
  9 10  1  0  0  0  0
  9 34  1  0  0  0  0
  9 35  1  0  0  0  0
 10 11  1  0  0  0  0
 10 12  1  0  0  0  0
 10 36  1  0  0  0  0
 11 37  1  0  0  0  0
 12 13  1  0  0  0  0
 12 38  1  0  0  0  0
 12 39  1  0  0  0  0
 13 23  1  0  0  0  0
 13 14  1  0  0  0  0
 14 15  2  0  0  0  0
 14 40  1  0  0  0  0
 15 16  1  0  0  0  0
 16 23  2  0  0  0  0
 16 17  1  0  0  0  0
 17 18  2  0  0  0  0
 17 41  1  0  0  0  0
 18 19  1  0  0  0  0
 18 20  1  0  0  0  0
 19 42  1  0  0  0  0
 19 43  1  0  0  0  0
 19 44  1  0  0  0  0
 20 21  1  0  0  0  0
 20 22  2  0  0  0  0
 21 45  1  0  0  0  0
 21 46  1  0  0  0  0
 21 47  1  0  0  0  0
 22 23  1  0  0  0  0
 22 48  1  0  0  0  0
M  CHG  1   7   1
M  END
> <s_m_source_file>
AV-unprocessed.smi

> <i_m_source_file_index>
1225

> <i_lp_mmshare_version>
43012

> <i_f3d_flags>
0

> <s_epik_input>
W0NIM11jMW5bY0hdYyhzMSlbQ0gyXU4oW0NIM10pW0NIMl1bQ0BIXShbT0hdKVtDSDJdbihbY0hdbjIpYyhjMjMpW2NIXWMoW0NIM10pYyhbY0hdMylbQ0gzXQ==

> <s_epik_cmdline>
J2VwaWtfcHl0aG9uJywgJy1waCcsICc3LjAnLCAnLXRuJywgJzgnLCAnLW1hJywgJzIwMCcsICctbWV0YWxfYmluZGluZycsICctaW1hZScsICc8aW5maWxlLm1hZT4nLCAnLW9tYWUnLCAnPG91dGZpbGUubWFlPic=

> <r_epik_Ionization_Penalty>
1.62543

> <r_epik_Ionization_Penalty_Charging>
1.53932

> <r_epik_Ionization_Penalty_Neutral>
0.0861152

> <r_epik_State_Penalty>
1.73127

> <r_epik_Charging_Adjusted_Penalty>
3.27059

> <i_epik_Tot_Q>
1

> <i_epik_Tot_abs_Q>
1

> <r_epik_Metal_State_Penalty>
1.71387

> <b_epik_Metal_Only>
0

> <s_lp_Force_Field>
OPLS_2005

> <r_lp_Energy>
11.3811

> <b_lp_Chiralities_Consistent>
1

> <s_lp_Variant>
AV-unprocessed.smi:1225-6

> <Gold.Version>
5.8.1

> <Gold.Id.Protein>
6NUR|6NUR_protein|mol2

> <Gold.PLP.Fitness>
52.9728

> <Gold.PLP.PLP>
-44.9009

> <Gold.PLP.part.hbond>
-3.0000

> <Gold.PLP.part.metal>
0.0000

> <Gold.PLP.part.buried>
6.0120

> <Gold.PLP.part.nonpolar>
-46.6115

> <Gold.PLP.part.repulsive>
0.1359

> <Gold.PLP.ligand.clash>
0.0000

> <Gold.PLP.ligand.torsion>
0.4916

> <Gold.PLP.Chemscore.Hbond>
2.9825

> <Gold.PLP.Chemscore.CHOScore>
0.0000

> <Gold.PLP.Chemscore.Metal>
0.0000

> <Gold.Chemscore.Hbonds>
donor molecule, donor type, donor heavy atom, donor atom, acceptor molecule, acceptor atom, score
      L1  H     7    49       P1  7948  1.92
      P1  H  7997  8010       L1    15  1.00

> <Gold.PLP.Chemscore.Internal.Correction>
0.1076

> <Gold.Rescore>
     Score         DG    S(hbond)    S(metal)    S(lipo)     H(rot)  DE(clash)    DE(int)     intcor
     14.45     -20.66       1.63        0.00     135.29       2.37       3.79       2.43       ----

> <Gold.Chemscore.Fitness>
14.4452

> <Gold.Chemscore.DG>
-20.6615

> <Gold.Chemscore.ZeroCoef>
-5.4800

> <Gold.Chemscore.Hbond>
1.6264

> <Gold.Chemscore.Metal>
0.0000

> <Gold.Chemscore.Lipo>
135.2926

> <Gold.Chemscore.Internal_Hbond>
0.0000

> <Gold.Chemscore.DEClash>
3.7895

> <Gold.Chemscore.DEInternal>
2.4267

> <Gold.Chemscore.Rot>
2.3750

> <Gold.Chemscore.Internal.Correction>
   9.000000E+99

> <Gold.Chemscore.Hbonds>
donor molecule, donor type, donor heavy atom, donor atom, acceptor molecule, acceptor atom, score
      L1  H     7    49       P1  7948  0.88
      P1  H  7997  8010       L1    15  0.36

> <Gold.Chemscore.Hbond.Weighted>
-5.4322

> <Gold.Chemscore.Metal.Weighted>
-0.0000

> <Gold.Chemscore.Lipo.Weighted>
-15.8292

> <Gold.Chemscore.Internal_Hbond.Weighted>
0.0000

> <Gold.Chemscore.DEClash.Weighted>
3.7895

> <Gold.Chemscore.DEInternal.Weighted>
2.4267

> <Gold.Chemscore.Rot.Weighted>
6.0800

> <Gold.Chemscore.Internal.Correction.Weighted>
   9.000000E+99

> <Gold.Protein.RotatedTorsions>
[ 6907 6896 6895 6894 ] final  -12.72 input  -60.11 | X-H torsion
[ 7974 7965 7964 7962 ] final   98.69 input  175.53 | X-H torsion
[ 8008 7997 7996 7995 ] final   68.66 input   59.86 | X-H torsion
[ 10167 10162 10161 10158 ] final  -19.78 input  -65.29 | X-H torsion
[ 10718 10713 10712 10709 ] final   81.97 input   66.30 | X-H torsion
[ 10763 10752 10751 10750 ] final  -71.84 input  -60.55 | X-H torsion
[ 11005 11000 10999 10996 ] final  171.83 input  -57.11 | X-H torsion

> <Gold.Protein.ActiveResidues>
 VAL166  LYS551  ARG553  GLY616  TRP617  ASP618  TYR619  PRO620  LYS621  CYS622 
 ASP623  PHE694  ASN695  SER759  ASP760  ASP761  ALA762  ILE779  LEU786  VAL792 
 PHE793  MET794  SER795  GLU796  ALA797  LYS798  CYS799  TRP800  GLU811  SER814 

> <Gold.Protein.RotatedAtoms>
  151.3661  135.0913  159.9450 H   0  0  0  0  0  0  0  0  0  0  0  0  # atno 6907 bound_to 6896
  152.5148  133.9210  159.7545 H   0  0  0  0  0  0  0  0  0  0  0  0  # atno 6908 bound_to 6896
  150.9614  133.6386  159.2783 H   0  0  0  0  0  0  0  0  0  0  0  0  # atno 6909 bound_to 6896
  145.4087  139.2337  143.3260 H   0  0  0  0  0  0  0  0  0  0  0  0  # atno 7974 bound_to 7965
  155.7117  140.3494  155.4976 H   0  0  0  0  0  0  0  0  0  0  0  0  # atno 8008 bound_to 7997
  155.9350  140.1091  157.1124 H   0  0  0  0  0  0  0  0  0  0  0  0  # atno 8009 bound_to 7997
  154.4092  140.1224  156.4839 H   0  0  0  0  0  0  0  0  0  0  0  0  # atno 8010 bound_to 7997
  140.7271  143.4785  151.0149 H   0  0  0  0  0  0  0  0  0  0  0  0  # atno 10167 bound_to 10162
  157.6846  131.0027  150.2305 H   0  0  0  0  0  0  0  0  0  0  0  0  # atno 10718 bound_to 10713
  154.4373  135.5949  153.6107 H   0  0  0  0  0  0  0  0  0  0  0  0  # atno 10763 bound_to 10752
  152.9803  135.5989  154.3766 H   0  0  0  0  0  0  0  0  0  0  0  0  # atno 10764 bound_to 10752
  154.3611  135.2841  155.2298 H   0  0  0  0  0  0  0  0  0  0  0  0  # atno 10765 bound_to 10752
  140.3232  134.7420  157.4079 H   0  0  0  0  0  0  0  0  0  0  0  0  # atno 11005 bound_to 11000
  146.2715  140.4796  142.8812 LP  0  0  0  0  0  0  0  0  0  0  0  0  # atno 17320 bound_to 7965
  144.8323  140.6727  143.6283 LP  0  0  0  0  0  0  0  0  0  0  0  0  # atno 17321 bound_to 7965
  139.8482  143.7473  152.3179 LP  0  0  0  0  0  0  0  0  0  0  0  0  # atno 17342 bound_to 10162
  139.7646  144.7496  151.0314 LP  0  0  0  0  0  0  0  0  0  0  0  0  # atno 17343 bound_to 10162
  156.2939  130.3749  149.7815 LP  0  0  0  0  0  0  0  0  0  0  0  0  # atno 17370 bound_to 10713
  156.5466  130.8323  151.3286 LP  0  0  0  0  0  0  0  0  0  0  0  0  # atno 17371 bound_to 10713
  140.0924  134.5583  155.8431 LP  0  0  0  0  0  0  0  0  0  0  0  0  # atno 17394 bound_to 11000
  141.2081  133.6671  156.6352 LP  0  0  0  0  0  0  0  0  0  0  0  0  # atno 17395 bound_to 11000

$$$$
