AV-unprocessed.smi:2032|AV-procd|sdf|8249|dock1
  -GOLD-   2272010523D 1   1.00000     0.00000
 Structure written by MMmdl.
 41 42  0  0  0  0  0  0  0  0  2 V2000
  151.3089  139.4214  158.9072 C   0  0  0  0  0  0  0  0  0  0  0  0
  150.6775  140.5904  158.1435 C   0  0  1  0  0  0  0  0  0  0  0  0
  151.1414  141.9540  158.6866 C   0  0  0  0  0  0  0  0  0  0  0  0
  150.6132  143.0836  157.9163 N   0  0  0  0  0  0  0  0  0  0  0  0
  151.0431  144.3941  158.4595 C   0  0  2  0  0  0  0  0  0  0  0  0
  152.5531  144.4308  158.8091 C   0  0  0  0  0  0  0  0  0  0  0  0
  150.2249  144.8397  159.7077 C   0  0  0  0  0  0  0  0  0  0  0  0
  148.7864  144.9307  159.4673 N   0  0  0  0  0  0  0  0  0  0  0  0
  147.8202  144.6216  160.3439 C   0  0  0  0  0  0  0  0  0  0  0  0
  148.1173  144.2304  161.4750 O   0  0  0  0  0  0  0  0  0  0  0  0
  146.5702  144.7804  159.8525 N   0  5  0  0  0  0  0  0  0  0  0  0
  145.5065  144.4234  160.5903 C   0  0  0  0  0  0  0  0  0  0  0  0
  144.2673  144.8647  160.3455 N   0  0  0  0  0  0  0  0  0  0  0  0
  143.3128  144.3576  161.2289 C   0  0  0  0  0  0  0  0  0  0  0  0
  143.8358  143.5028  162.1628 C   0  0  0  0  0  0  0  0  0  0  0  0
  145.5537  143.3096  161.9602 S   0  0  0  0  0  0  0  0  0  0  0  0
  151.0047  142.8938  156.5149 C   0  0  0  0  0  0  0  0  0  0  0  0
  150.5845  141.5277  155.9372 C   0  0  2  0  0  0  0  0  0  0  0  0
  149.0744  141.4221  155.6613 C   0  0  0  0  0  0  0  0  0  0  0  0
  151.0475  140.4706  156.7742 O   0  0  0  0  0  0  0  0  0  0  0  0
  151.0470  139.4555  159.9651 H   0  0  0  0  0  0  0  0  0  0  0  0
  152.3965  139.4411  158.8305 H   0  0  0  0  0  0  0  0  0  0  0  0
  150.9645  138.4660  158.5109 H   0  0  0  0  0  0  0  0  0  0  0  0
  149.5941  140.5122  158.2362 H   0  0  0  0  0  0  0  0  0  0  0  0
  150.8132  142.0086  159.7226 H   0  0  0  0  0  0  0  0  0  0  0  0
  152.2319  141.9939  158.6976 H   0  0  0  0  0  0  0  0  0  0  0  0
  150.8807  145.1441  157.6841 H   0  0  0  0  0  0  0  0  0  0  0  0
  152.8546  145.3751  159.2611 H   0  0  0  0  0  0  0  0  0  0  0  0
  153.1846  144.3295  157.9277 H   0  0  0  0  0  0  0  0  0  0  0  0
  152.8151  143.6358  159.5078 H   0  0  0  0  0  0  0  0  0  0  0  0
  150.3544  144.1578  160.5468 H   0  0  0  0  0  0  0  0  0  0  0  0
  150.5709  145.8161  160.0476 H   0  0  0  0  0  0  0  0  0  0  0  0
  148.4971  145.2501  158.5546 H   0  0  0  0  0  0  0  0  0  0  0  0
  142.2813  144.6576  161.1180 H   0  0  0  0  0  0  0  0  0  0  0  0
  143.3194  142.9768  162.9515 H   0  0  0  0  0  0  0  0  0  0  0  0
  150.5640  143.6576  155.8782 H   0  0  0  0  0  0  0  0  0  0  0  0
  152.0871  142.9993  156.4252 H   0  0  0  0  0  0  0  0  0  0  0  0
  151.0901  141.4008  154.9798 H   0  0  0  0  0  0  0  0  0  0  0  0
  148.7631  142.1634  154.9249 H   0  0  0  0  0  0  0  0  0  0  0  0
  148.4797  141.5890  156.5592 H   0  0  0  0  0  0  0  0  0  0  0  0
  148.8183  140.4380  155.2684 H   0  0  0  0  0  0  0  0  0  0  0  0
  1  2  1  0  0  0  0
  1 21  1  0  0  0  0
  1 22  1  0  0  0  0
  1 23  1  0  0  0  0
  2 20  1  0  0  0  0
  2  3  1  0  0  0  0
  2 24  1  0  0  0  0
  3  4  1  0  0  0  0
  3 25  1  0  0  0  0
  3 26  1  0  0  0  0
  4  5  1  0  0  0  0
  4 17  1  0  0  0  0
  5  6  1  0  0  0  0
  5  7  1  0  0  0  0
  5 27  1  0  0  0  0
  6 28  1  0  0  0  0
  6 29  1  0  0  0  0
  6 30  1  0  0  0  0
  7  8  1  0  0  0  0
  7 31  1  0  0  0  0
  7 32  1  0  0  0  0
  8  9  1  0  0  0  0
  8 33  1  0  0  0  0
  9 10  2  0  0  0  0
  9 11  1  0  0  0  0
 11 12  1  0  0  0  0
 12 16  1  0  0  0  0
 12 13  2  0  0  0  0
 13 14  1  0  0  0  0
 14 15  2  0  0  0  0
 14 34  1  0  0  0  0
 15 16  1  0  0  0  0
 15 35  1  0  0  0  0
 17 18  1  0  0  0  0
 17 36  1  0  0  0  0
 17 37  1  0  0  0  0
 18 19  1  0  0  0  0
 18 20  1  0  0  0  0
 18 38  1  0  0  0  0
 19 39  1  0  0  0  0
 19 40  1  0  0  0  0
 19 41  1  0  0  0  0
M  CHG  1  11  -1
M  END
> <s_m_source_file>
AV-unprocessed.smi

> <i_m_source_file_index>
2032

> <i_lp_mmshare_version>
43012

> <i_f3d_flags>
0

> <s_epik_input>
W0NIM11bQ0BASF0xW0NIMl1OKFtDSDJdW0NASF0oTzEpW0NIM10pW0NASF0oW0NIM10pW0NIMl1bTkhdQyg9TylbTkhdYzJuW2NIXVtjSF1zMg==

> <s_epik_cmdline>
J2VwaWtfcHl0aG9uJywgJy1waCcsICc3LjAnLCAnLXRuJywgJzgnLCAnLW1hJywgJzIwMCcsICctbWV0YWxfYmluZGluZycsICctaW1hZScsICc8aW5maWxlLm1hZT4nLCAnLW9tYWUnLCAnPG91dGZpbGUubWFlPic=

> <r_lp_tautomer_probability>
0.999

> <r_epik_Ionization_Penalty>
7.22375

> <r_epik_Ionization_Penalty_Charging>
5.82415

> <r_epik_Ionization_Penalty_Neutral>
1.39959

> <r_epik_State_Penalty>
6.03347

> <r_epik_Charging_Adjusted_Penalty>
11.8576

> <i_epik_Tot_Q>
-1

> <i_epik_Tot_abs_Q>
1

> <r_epik_Metal_State_Penalty>
2.01024

> <b_epik_Metal_Only>
1

> <s_lp_Force_Field>
OPLS_2005

> <r_lp_Energy>
25.9518

> <b_lp_Chiralities_Consistent>
1

> <s_lp_Variant>
AV-unprocessed.smi:2032-19

> <Gold.Version>
5.8.1

> <Gold.Id.Protein>
6NUR|6NUR_protein|mol2

> <Gold.PLP.Fitness>
41.4314

> <Gold.PLP.PLP>
-36.4455

> <Gold.PLP.part.hbond>
-2.0000

> <Gold.PLP.part.metal>
0.0000

> <Gold.PLP.part.buried>
-5.9380

> <Gold.PLP.part.nonpolar>
-29.8996

> <Gold.PLP.part.repulsive>
0.9172

> <Gold.PLP.ligand.clash>
0.0000

> <Gold.PLP.ligand.torsion>
0.5713

> <Gold.PLP.Chemscore.Hbond>
1.9920

> <Gold.PLP.Chemscore.CHOScore>
0.0000

> <Gold.PLP.Chemscore.Metal>
0.0000

> <Gold.Chemscore.Hbonds>
donor molecule, donor type, donor heavy atom, donor atom, acceptor molecule, acceptor atom, score
      L1  H     8    33       P1  8029  1.00
      P1  H  6933  6944       L1    10  1.00

> <Gold.PLP.Chemscore.Internal.Correction>
0.1524

> <Gold.Rescore>
     Score         DG    S(hbond)    S(metal)    S(lipo)     H(rot)  DE(clash)    DE(int)     intcor
     16.91     -19.04       1.97        0.00      93.52       1.54       0.30       1.82       ----

> <Gold.Chemscore.Fitness>
16.9138

> <Gold.Chemscore.DG>
-19.0404

> <Gold.Chemscore.ZeroCoef>
-5.4800

> <Gold.Chemscore.Hbond>
1.9667

> <Gold.Chemscore.Metal>
0.0000

> <Gold.Chemscore.Lipo>
93.5216

> <Gold.Chemscore.Internal_Hbond>
0.0000

> <Gold.Chemscore.DEClash>
0.3045

> <Gold.Chemscore.DEInternal>
1.8221

> <Gold.Chemscore.Rot>
1.5431

> <Gold.Chemscore.Internal.Correction>
   9.000000E+99

> <Gold.Chemscore.Hbonds>
donor molecule, donor type, donor heavy atom, donor atom, acceptor molecule, acceptor atom, score
      L1  H     8    33       P1  8029  0.97
      P1  H  6933  6944       L1    10  0.74

> <Gold.Chemscore.Hbond.Weighted>
-6.5687

> <Gold.Chemscore.Metal.Weighted>
-0.0000

> <Gold.Chemscore.Lipo.Weighted>
-10.9420

> <Gold.Chemscore.Internal_Hbond.Weighted>
0.0000

> <Gold.Chemscore.DEClash.Weighted>
0.3045

> <Gold.Chemscore.DEInternal.Weighted>
1.8221

> <Gold.Chemscore.Rot.Weighted>
3.9503

> <Gold.Chemscore.Internal.Correction.Weighted>
   9.000000E+99

> <Gold.Protein.RotatedTorsions>
[ 6907 6896 6895 6894 ] final -106.33 input  -60.11 | X-H torsion
[ 7974 7965 7964 7962 ] final   47.50 input  175.53 | X-H torsion
[ 8008 7997 7996 7995 ] final  -74.34 input   59.86 | X-H torsion
[ 10167 10162 10161 10158 ] final  -20.61 input  -65.29 | X-H torsion
[ 10718 10713 10712 10709 ] final   78.90 input   66.30 | X-H torsion
[ 10763 10752 10751 10750 ] final   12.87 input  -60.55 | X-H torsion
[ 11005 11000 10999 10996 ] final   19.19 input  -57.11 | X-H torsion

> <Gold.Protein.ActiveResidues>
 VAL166  LYS551  ARG553  GLY616  TRP617  ASP618  TYR619  PRO620  LYS621  CYS622 
 ASP623  PHE694  ASN695  SER759  ASP760  ASP761  ALA762  ILE779  LEU786  VAL792 
 PHE793  MET794  SER795  GLU796  ALA797  LYS798  CYS799  TRP800  GLU811  SER814 

> <Gold.Protein.RotatedAtoms>
  150.7384  133.9992  159.3632 H   0  0  0  0  0  0  0  0  0  0  0  0  # atno 6907 bound_to 6896
  151.7944  135.0724  160.0401 H   0  0  0  0  0  0  0  0  0  0  0  0  # atno 6908 bound_to 6896
  152.3185  133.5791  159.5764 H   0  0  0  0  0  0  0  0  0  0  0  0  # atno 6909 bound_to 6896
  146.0292  139.4743  142.9848 H   0  0  0  0  0  0  0  0  0  0  0  0  # atno 7974 bound_to 7965
  154.5322  140.0763  156.8365 H   0  0  0  0  0  0  0  0  0  0  0  0  # atno 8008 bound_to 7997
  155.3351  140.3404  155.4221 H   0  0  0  0  0  0  0  0  0  0  0  0  # atno 8009 bound_to 7997
  156.1793  140.1646  156.8291 H   0  0  0  0  0  0  0  0  0  0  0  0  # atno 8010 bound_to 7997
  140.7277  143.4706  151.0252 H   0  0  0  0  0  0  0  0  0  0  0  0  # atno 10167 bound_to 10162
  157.6760  130.9889  150.1854 H   0  0  0  0  0  0  0  0  0  0  0  0  # atno 10718 bound_to 10713
  153.1778  135.6823  153.8519 H   0  0  0  0  0  0  0  0  0  0  0  0  # atno 10763 bound_to 10752
  153.7861  135.3175  155.3373 H   0  0  0  0  0  0  0  0  0  0  0  0  # atno 10764 bound_to 10752
  154.8040  135.4760  154.0441 H   0  0  0  0  0  0  0  0  0  0  0  0  # atno 10765 bound_to 10752
  140.4164  134.1564  155.7670 H   0  0  0  0  0  0  0  0  0  0  0  0  # atno 11005 bound_to 11000
  145.7069  141.0118  143.1474 LP  0  0  0  0  0  0  0  0  0  0  0  0  # atno 17320 bound_to 7965
  144.7023  139.8710  143.7440 LP  0  0  0  0  0  0  0  0  0  0  0  0  # atno 17321 bound_to 7965
  139.8397  143.7580  152.3180 LP  0  0  0  0  0  0  0  0  0  0  0  0  # atno 17342 bound_to 10162
  139.7724  144.7472  151.0205 LP  0  0  0  0  0  0  0  0  0  0  0  0  # atno 17343 bound_to 10162
  156.2577  130.3707  149.8164 LP  0  0  0  0  0  0  0  0  0  0  0  0  # atno 17370 bound_to 10713
  156.5918  130.8509  151.3410 LP  0  0  0  0  0  0  0  0  0  0  0  0  # atno 17371 bound_to 10713
  141.1801  133.8432  157.1287 LP  0  0  0  0  0  0  0  0  0  0  0  0  # atno 17394 bound_to 11000
  140.0231  134.9937  157.0631 LP  0  0  0  0  0  0  0  0  0  0  0  0  # atno 17395 bound_to 11000

$$$$
