AV-unprocessed.smi:2172|AV-procd|sdf|8836|dock10
  -GOLD-   2272012 33D 1   1.00000     0.00000
 Structure written by MMmdl.
 37 39  0  0  0  0  0  0  0  0  2 V2000
  150.9228  135.9491  154.1035 O   0  0  0  0  0  0  0  0  0  0  0  0
  150.9126  136.8313  155.2040 C   0  0  0  0  0  0  0  0  0  0  0  0
  150.0446  138.0229  154.9656 C   0  0  0  0  0  0  0  0  0  0  0  0
  149.2540  138.2216  153.8738 N   0  3  0  0  0  0  0  0  0  0  0  0
  148.6075  139.4535  153.9753 C   0  0  0  0  0  0  0  0  0  0  0  0
  147.7191  140.0876  153.1122 C   0  0  0  0  0  0  0  0  0  0  0  0
  147.2461  141.3550  153.5098 C   0  0  0  0  0  0  0  0  0  0  0  0
  147.6553  141.9427  154.7241 C   0  0  0  0  0  0  0  0  0  0  0  0
  148.5527  141.2879  155.5927 C   0  0  0  0  0  0  0  0  0  0  0  0
  149.0194  140.0353  155.1920 C   0  0  0  0  0  0  0  0  0  0  0  0
  149.9074  139.1176  155.7694 N   0  0  0  0  0  0  0  0  0  0  0  0
  150.5476  139.4325  157.0581 C   0  0  0  0  0  0  0  0  0  0  0  0
  151.7634  140.3678  156.8997 C   0  0  2  0  0  0  0  0  0  0  0  0
  152.8572  139.5967  156.4478 O   0  0  0  0  0  0  0  0  0  0  0  0
  152.0799  141.1285  158.1798 C   0  0  0  0  0  0  0  0  0  0  0  0
  151.8405  142.5179  158.2478 C   0  0  0  0  0  0  0  0  0  0  0  0
  152.0963  143.2256  159.4381 C   0  0  0  0  0  0  0  0  0  0  0  0
  152.5956  142.5482  160.5673 C   0  0  0  0  0  0  0  0  0  0  0  0
  152.9042  143.4139  162.0273 Cl  0  0  0  0  0  0  0  0  0  0  0  0
  152.8396  141.1626  160.5048 C   0  0  0  0  0  0  0  0  0  0  0  0
  152.5825  140.4545  159.3150 C   0  0  0  0  0  0  0  0  0  0  0  0
  150.1513  136.1098  153.5815 H   0  0  0  0  0  0  0  0  0  0  0  0
  150.5562  136.2956  156.0841 H   0  0  0  0  0  0  0  0  0  0  0  0
  151.9324  137.1510  155.4171 H   0  0  0  0  0  0  0  0  0  0  0  0
  147.4059  139.6400  152.1804 H   0  0  0  0  0  0  0  0  0  0  0  0
  146.5570  141.8877  152.8705 H   0  0  0  0  0  0  0  0  0  0  0  0
  147.2741  142.9165  154.9955 H   0  0  0  0  0  0  0  0  0  0  0  0
  148.8598  141.7541  156.5167 H   0  0  0  0  0  0  0  0  0  0  0  0
  149.8114  139.8491  157.7454 H   0  0  0  0  0  0  0  0  0  0  0  0
  150.8607  138.4851  157.4977 H   0  0  0  0  0  0  0  0  0  0  0  0
  151.5547  141.0910  156.1108 H   0  0  0  0  0  0  0  0  0  0  0  0
  152.6076  138.6852  156.4618 H   0  0  0  0  0  0  0  0  0  0  0  0
  151.4485  143.0437  157.3892 H   0  0  0  0  0  0  0  0  0  0  0  0
  151.9064  144.2879  159.4836 H   0  0  0  0  0  0  0  0  0  0  0  0
  153.2207  140.6403  161.3699 H   0  0  0  0  0  0  0  0  0  0  0  0
  152.7627  139.3899  159.2808 H   0  0  0  0  0  0  0  0  0  0  0  0
  149.1723  137.5627  153.1103 H   0  0  0  0  0  0  0  0  0  0  0  0
  1  2  1  0  0  0  0
  1 22  1  0  0  0  0
  2  3  1  0  0  0  0
  2 23  1  0  0  0  0
  2 24  1  0  0  0  0
  3 11  1  0  0  0  0
  3  4  2  0  0  0  0
  4  5  1  0  0  0  0
  4 37  1  0  0  0  0
  5 10  2  0  0  0  0
  5  6  1  0  0  0  0
  6  7  2  0  0  0  0
  6 25  1  0  0  0  0
  7  8  1  0  0  0  0
  7 26  1  0  0  0  0
  8  9  2  0  0  0  0
  8 27  1  0  0  0  0
  9 10  1  0  0  0  0
  9 28  1  0  0  0  0
 10 11  1  0  0  0  0
 11 12  1  0  0  0  0
 12 13  1  0  0  0  0
 12 29  1  0  0  0  0
 12 30  1  0  0  0  0
 13 14  1  0  0  0  0
 13 15  1  0  0  0  0
 13 31  1  0  0  0  0
 14 32  1  0  0  0  0
 15 21  1  0  0  0  0
 15 16  2  0  0  0  0
 16 17  1  0  0  0  0
 16 33  1  0  0  0  0
 17 18  2  0  0  0  0
 17 34  1  0  0  0  0
 18 19  1  0  0  0  0
 18 20  1  0  0  0  0
 20 21  2  0  0  0  0
 20 35  1  0  0  0  0
 21 36  1  0  0  0  0
M  CHG  1   4   1
M  END
> <s_m_source_file>
AV-unprocessed.smi

> <i_m_source_file_index>
2172

> <i_lp_mmshare_version>
43012

> <i_f3d_flags>
0

> <s_epik_input>
W2NIXTFbY0hdW2NIXVtjSF1jKGMxMiluKGMobjIpW0NIMl1bT0hdKVtDSDJdW0NASF0oW09IXSljM1tjSF1bY0hdYyhDbClbY0hdW2NIXTM=

> <s_epik_cmdline>
J2VwaWtfcHl0aG9uJywgJy1waCcsICc3LjAnLCAnLXRuJywgJzgnLCAnLW1hJywgJzIwMCcsICctbWV0YWxfYmluZGluZycsICctaW1hZScsICc8aW5maWxlLm1hZT4nLCAnLW9tYWUnLCAnPG91dGZpbGUubWFlPic=

> <r_epik_Ionization_Penalty>
1.35643

> <r_epik_Ionization_Penalty_Charging>
1.35557

> <r_epik_Ionization_Penalty_Neutral>
0.000858184

> <r_epik_State_Penalty>
1.43401

> <r_epik_Charging_Adjusted_Penalty>
2.78958

> <i_epik_Tot_Q>
1

> <i_epik_Tot_abs_Q>
1

> <r_epik_Metal_State_Penalty>
5.47166

> <b_epik_Metal_Only>
0

> <s_lp_Force_Field>
OPLS_2005

> <r_lp_Energy>
15.2583

> <b_lp_Chiralities_Consistent>
1

> <s_lp_Variant>
AV-unprocessed.smi:2172-3

> <Gold.Version>
5.8.1

> <Gold.Id.Protein>
6NUR|6NUR_protein|mol2

> <Gold.PLP.Fitness>
52.1035

> <Gold.PLP.PLP>
-40.2274

> <Gold.PLP.part.hbond>
-5.2729

> <Gold.PLP.part.metal>
0.0000

> <Gold.PLP.part.buried>
0.3632

> <Gold.PLP.part.nonpolar>
-35.3955

> <Gold.PLP.part.repulsive>
0.0357

> <Gold.PLP.ligand.clash>
0.0000

> <Gold.PLP.ligand.torsion>
0.6737

> <Gold.PLP.Chemscore.Hbond>
4.4022

> <Gold.PLP.Chemscore.CHOScore>
0.0000

> <Gold.PLP.Chemscore.Metal>
0.0000

> <Gold.Chemscore.Hbonds>
donor molecule, donor type, donor heavy atom, donor atom, acceptor molecule, acceptor atom, score
      L1  H     1    22       P1  7948  0.48
      L1  H     4    37       P1  7948  2.00
      P1  H  7997  8009       L1    14  1.00
      P1  H 10752 10763       L1     1  0.68

> <Gold.PLP.Chemscore.Internal.Correction>
0.0170

> <Gold.Rescore>
     Score         DG    S(hbond)    S(metal)    S(lipo)     H(rot)  DE(clash)    DE(int)     intcor
     19.55     -21.68       2.75        0.00     118.88       2.70       1.58       0.54       ----

> <Gold.Chemscore.Fitness>
19.5550

> <Gold.Chemscore.DG>
-21.6770

> <Gold.Chemscore.ZeroCoef>
-5.4800

> <Gold.Chemscore.Hbond>
2.7515

> <Gold.Chemscore.Metal>
0.0000

> <Gold.Chemscore.Lipo>
118.8843

> <Gold.Chemscore.Internal_Hbond>
0.0000

> <Gold.Chemscore.DEClash>
1.5848

> <Gold.Chemscore.DEInternal>
0.5372

> <Gold.Chemscore.Rot>
2.6963

> <Gold.Chemscore.Internal.Correction>
   9.000000E+99

> <Gold.Chemscore.Hbonds>
donor molecule, donor type, donor heavy atom, donor atom, acceptor molecule, acceptor atom, score
      L1  H     1    22       P1  7948  0.02
      L1  H     4    37       P1  7948  0.99
      P1  H  7997  8009       L1    14  0.97
      P1  H 10752 10763       L1     1  0.07

> <Gold.Chemscore.Hbond.Weighted>
-9.1899

> <Gold.Chemscore.Metal.Weighted>
-0.0000

> <Gold.Chemscore.Lipo.Weighted>
-13.9095

> <Gold.Chemscore.Internal_Hbond.Weighted>
0.0000

> <Gold.Chemscore.DEClash.Weighted>
1.5848

> <Gold.Chemscore.DEInternal.Weighted>
0.5372

> <Gold.Chemscore.Rot.Weighted>
6.9024

> <Gold.Chemscore.Internal.Correction.Weighted>
   9.000000E+99

> <Gold.Protein.RotatedTorsions>
[ 6907 6896 6895 6894 ] final -118.61 input  -60.11 | X-H torsion
[ 7974 7965 7964 7962 ] final -151.19 input  175.53 | X-H torsion
[ 8008 7997 7996 7995 ] final -153.96 input   59.86 | X-H torsion
[ 10167 10162 10161 10158 ] final  130.71 input  -65.29 | X-H torsion
[ 10718 10713 10712 10709 ] final  141.37 input   66.30 | X-H torsion
[ 10763 10752 10751 10750 ] final   37.24 input  -60.55 | X-H torsion
[ 11005 11000 10999 10996 ] final  151.02 input  -57.11 | X-H torsion

> <Gold.Protein.ActiveResidues>
 VAL166  LYS551  ARG553  GLY616  TRP617  ASP618  TYR619  PRO620  LYS621  CYS622 
 ASP623  PHE694  ASN695  SER759  ASP760  ASP761  ALA762  ILE779  LEU786  VAL792 
 PHE793  MET794  SER795  GLU796  ALA797  LYS798  CYS799  TRP800  GLU811  SER814 

> <Gold.Protein.RotatedAtoms>
  150.8235  133.8212  159.3128 H   0  0  0  0  0  0  0  0  0  0  0  0  # atno 6907 bound_to 6896
  151.5964  135.1048  160.0060 H   0  0  0  0  0  0  0  0  0  0  0  0  # atno 6908 bound_to 6896
  152.4322  133.7256  159.6615 H   0  0  0  0  0  0  0  0  0  0  0  0  # atno 6909 bound_to 6896
  144.7864  140.4831  143.5803 H   0  0  0  0  0  0  0  0  0  0  0  0  # atno 7974 bound_to 7965
  155.6789  140.0742  157.2492 H   0  0  0  0  0  0  0  0  0  0  0  0  # atno 8008 bound_to 7997
  154.4109  140.1685  156.2013 H   0  0  0  0  0  0  0  0  0  0  0  0  # atno 8009 bound_to 7997
  155.9552  140.3374  155.6445 H   0  0  0  0  0  0  0  0  0  0  0  0  # atno 8010 bound_to 7997
  139.5417  144.6737  151.4602 H   0  0  0  0  0  0  0  0  0  0  0  0  # atno 10167 bound_to 10162
  157.3927  131.1007  151.0630 H   0  0  0  0  0  0  0  0  0  0  0  0  # atno 10718 bound_to 10713
  153.0045  135.6283  154.2113 H   0  0  0  0  0  0  0  0  0  0  0  0  # atno 10763 bound_to 10752
  154.1857  135.2811  155.3040 H   0  0  0  0  0  0  0  0  0  0  0  0  # atno 10764 bound_to 10752
  154.5800  135.5650  153.7235 H   0  0  0  0  0  0  0  0  0  0  0  0  # atno 10765 bound_to 10752
  140.1182  134.8881  157.2034 H   0  0  0  0  0  0  0  0  0  0  0  0  # atno 11005 bound_to 11000
  145.5911  139.1496  143.3182 LP  0  0  0  0  0  0  0  0  0  0  0  0  # atno 17320 bound_to 7965
  146.2097  140.6036  142.9065 LP  0  0  0  0  0  0  0  0  0  0  0  0  # atno 17321 bound_to 7965
  140.6650  143.8417  150.6931 LP  0  0  0  0  0  0  0  0  0  0  0  0  # atno 17342 bound_to 10162
  140.1824  143.4104  152.1923 LP  0  0  0  0  0  0  0  0  0  0  0  0  # atno 17343 bound_to 10162
  157.1658  130.6245  149.5625 LP  0  0  0  0  0  0  0  0  0  0  0  0  # atno 17370 bound_to 10713
  155.9802  130.4802  150.6762 LP  0  0  0  0  0  0  0  0  0  0  0  0  # atno 17371 bound_to 10713
  140.3000  134.3142  155.7292 LP  0  0  0  0  0  0  0  0  0  0  0  0  # atno 17394 bound_to 11000
  141.2146  133.7586  156.9627 LP  0  0  0  0  0  0  0  0  0  0  0  0  # atno 17395 bound_to 11000

$$$$
