AV-unprocessed.smi:1144|AV-procd|sdf|4876|dock10
  -GOLD-   22720 3453D 1   1.00000     0.00000
 Structure written by MMmdl.
 35 36  0  0  0  0  0  0  0  0  2 V2000
  147.0013  141.3833  153.5681 C   0  0  0  0  0  0  0  0  0  0  0  0
  148.0673  140.7233  154.3515 N   0  3  1  0  0  0  0  0  0  0  0  0
  148.8815  139.7932  153.5368 C   0  0  0  0  0  0  0  0  0  0  0  0
  149.9484  139.1146  154.4109 C   0  0  0  0  0  0  0  0  0  0  0  0
  150.7474  140.1086  155.0412 O   0  0  0  0  0  0  0  0  0  0  0  0
  149.9897  140.9476  155.9086 C   0  0  1  0  0  0  0  0  0  0  0  0
  150.9547  141.9254  156.5926 C   0  0  0  0  0  0  0  0  0  0  0  0
  151.9846  141.2268  157.3467 N   0  0  0  0  0  0  0  0  0  0  0  0
  152.3751  141.5719  158.6263 C   0  0  0  0  0  0  0  0  0  0  0  0
  151.8927  142.7036  159.1520 N   0  0  0  0  0  0  0  0  0  0  0  0
  152.2946  143.0187  160.4021 C   0  0  0  0  0  0  0  0  0  0  0  0
  153.1805  142.1966  161.1264 C   0  0  0  0  0  0  0  0  0  0  0  0
  153.6252  141.0257  160.4723 C   0  0  0  0  0  0  0  0  0  0  0  0
  154.5831  140.0448  161.1314 C   0  0  0  0  0  0  0  0  0  0  0  0
  154.8725  140.4078  162.3816 F   0  0  0  0  0  0  0  0  0  0  0  0
  154.0339  138.8303  161.1598 F   0  0  0  0  0  0  0  0  0  0  0  0
  155.7182  139.9878  160.4345 F   0  0  0  0  0  0  0  0  0  0  0  0
  153.2151  140.7209  159.2185 N   0  0  0  0  0  0  0  0  0  0  0  0
  148.9306  141.6890  155.0694 C   0  0  0  0  0  0  0  0  0  0  0  0
  147.4234  142.0058  152.7778 H   0  0  0  0  0  0  0  0  0  0  0  0
  146.3878  142.0153  154.2109 H   0  0  0  0  0  0  0  0  0  0  0  0
  146.3472  140.6420  153.1079 H   0  0  0  0  0  0  0  0  0  0  0  0
  148.2383  139.0392  153.0812 H   0  0  0  0  0  0  0  0  0  0  0  0
  149.3604  140.3412  152.7236 H   0  0  0  0  0  0  0  0  0  0  0  0
  149.4880  138.4697  155.1611 H   0  0  0  0  0  0  0  0  0  0  0  0
  150.5899  138.4817  153.7975 H   0  0  0  0  0  0  0  0  0  0  0  0
  149.4921  140.3414  156.6684 H   0  0  0  0  0  0  0  0  0  0  0  0
  151.4182  142.5781  155.8517 H   0  0  0  0  0  0  0  0  0  0  0  0
  150.4038  142.5647  157.2833 H   0  0  0  0  0  0  0  0  0  0  0  0
  152.4772  140.4657  156.9023 H   0  0  0  0  0  0  0  0  0  0  0  0
  151.9072  143.9329  160.8272 H   0  0  0  0  0  0  0  0  0  0  0  0
  153.4962  142.4566  162.1258 H   0  0  0  0  0  0  0  0  0  0  0  0
  149.4153  142.3504  154.3490 H   0  0  0  0  0  0  0  0  0  0  0  0
  148.3159  142.3161  155.7166 H   0  0  0  0  0  0  0  0  0  0  0  0
  147.6065  140.1653  155.0563 H   0  0  0  0  0  0  0  0  0  0  0  0
  1  2  1  0  0  0  0
  1 20  1  0  0  0  0
  1 21  1  0  0  0  0
  1 22  1  0  0  0  0
  2 19  1  0  0  0  0
  2  3  1  0  0  0  0
  2 35  1  0  0  0  0
  3  4  1  0  0  0  0
  3 23  1  0  0  0  0
  3 24  1  0  0  0  0
  4  5  1  0  0  0  0
  4 25  1  0  0  0  0
  4 26  1  0  0  0  0
  5  6  1  0  0  0  0
  6  7  1  0  0  0  0
  6 19  1  0  0  0  0
  6 27  1  0  0  0  0
  7  8  1  0  0  0  0
  7 28  1  0  0  0  0
  7 29  1  0  0  0  0
  8  9  1  0  0  0  0
  8 30  1  0  0  0  0
  9 18  1  0  0  0  0
  9 10  2  0  0  0  0
 10 11  1  0  0  0  0
 11 12  2  0  0  0  0
 11 31  1  0  0  0  0
 12 13  1  0  0  0  0
 12 32  1  0  0  0  0
 13 14  1  0  0  0  0
 13 18  2  0  0  0  0
 14 15  1  0  0  0  0
 14 16  1  0  0  0  0
 14 17  1  0  0  0  0
 19 33  1  0  0  0  0
 19 34  1  0  0  0  0
M  CHG  1   2   1
M  END
> <s_m_source_file>
AV-unprocessed.smi

> <i_m_source_file_index>
1144

> <i_lp_mmshare_version>
43012

> <i_f3d_flags>
0

> <s_epik_input>
W0NIM11OMVtDSDJdW0NIMl1PW0NASF0oW0NIMl0xKVtDSDJdW05IXWMybltjSF1bY0hdYyhuMilDKEYpKEYpRg==

> <s_epik_cmdline>
J2VwaWtfcHl0aG9uJywgJy1waCcsICc3LjAnLCAnLXRuJywgJzgnLCAnLW1hJywgJzIwMCcsICctbWV0YWxfYmluZGluZycsICctaW1hZScsICc8aW5maWxlLm1hZT4nLCAnLW9tYWUnLCAnPG91dGZpbGUubWFlPic=

> <r_lp_tautomer_probability>
1

> <r_epik_Ionization_Penalty>
0.178506

> <r_epik_Ionization_Penalty_Charging>
0.178504

> <r_epik_Ionization_Penalty_Neutral>
2.47225e-06

> <r_epik_State_Penalty>
0.167974

> <r_epik_Charging_Adjusted_Penalty>
0.346478

> <i_epik_Tot_Q>
1

> <i_epik_Tot_abs_Q>
1

> <r_epik_Metal_State_Penalty>
0.167974

> <b_epik_Metal_Only>
0

> <s_lp_Force_Field>
OPLS_2005

> <r_lp_Energy>
9.30015

> <b_lp_Chiralities_Consistent>
1

> <s_lp_Variant>
AV-unprocessed.smi:1144-1

> <Gold.Version>
5.8.1

> <Gold.Id.Protein>
6NUR|6NUR_protein|mol2

> <Gold.PLP.Fitness>
36.8908

> <Gold.PLP.PLP>
-34.1551

> <Gold.PLP.part.hbond>
-1.0000

> <Gold.PLP.part.metal>
0.0000

> <Gold.PLP.part.buried>
2.3496

> <Gold.PLP.part.nonpolar>
-34.6735

> <Gold.PLP.part.repulsive>
0.2432

> <Gold.PLP.ligand.clash>
0.0000

> <Gold.PLP.ligand.torsion>
0.1343

> <Gold.PLP.Chemscore.Hbond>
1.0000

> <Gold.PLP.Chemscore.CHOScore>
0.0000

> <Gold.PLP.Chemscore.Metal>
0.0000

> <Gold.Chemscore.Hbonds>
donor molecule, donor type, donor heavy atom, donor atom, acceptor molecule, acceptor atom, score
      P1  H  7989  7998       L1     5  1.00

> <Gold.PLP.Chemscore.Internal.Correction>
0.0042

> <Gold.Rescore>
     Score         DG    S(hbond)    S(metal)    S(lipo)     H(rot)  DE(clash)    DE(int)     intcor
     12.18     -14.93       1.07        0.00      79.60       1.34       2.61       0.14       ----

> <Gold.Chemscore.Fitness>
12.1831

> <Gold.Chemscore.DG>
-14.9271

> <Gold.Chemscore.ZeroCoef>
-5.4800

> <Gold.Chemscore.Hbond>
1.0656

> <Gold.Chemscore.Metal>
0.0000

> <Gold.Chemscore.Lipo>
79.5973

> <Gold.Chemscore.Internal_Hbond>
0.0000

> <Gold.Chemscore.DEClash>
2.6059

> <Gold.Chemscore.DEInternal>
0.1381

> <Gold.Chemscore.Rot>
1.3379

> <Gold.Chemscore.Internal.Correction>
   9.000000E+99

> <Gold.Chemscore.Hbonds>
donor molecule, donor type, donor heavy atom, donor atom, acceptor molecule, acceptor atom, score
      P1  H  7989  7998       L1     5  0.25

> <Gold.Chemscore.Hbond.Weighted>
-3.5592

> <Gold.Chemscore.Metal.Weighted>
-0.0000

> <Gold.Chemscore.Lipo.Weighted>
-9.3129

> <Gold.Chemscore.Internal_Hbond.Weighted>
0.0000

> <Gold.Chemscore.DEClash.Weighted>
2.6059

> <Gold.Chemscore.DEInternal.Weighted>
0.1381

> <Gold.Chemscore.Rot.Weighted>
3.4250

> <Gold.Chemscore.Internal.Correction.Weighted>
   9.000000E+99

> <Gold.Protein.RotatedTorsions>
[ 6907 6896 6895 6894 ] final   87.78 input  -60.11 | X-H torsion
[ 7974 7965 7964 7962 ] final -118.50 input  175.53 | X-H torsion
[ 8008 7997 7996 7995 ] final  128.59 input   59.86 | X-H torsion
[ 10167 10162 10161 10158 ] final  -98.16 input  -65.29 | X-H torsion
[ 10718 10713 10712 10709 ] final   70.99 input   66.30 | X-H torsion
[ 10763 10752 10751 10750 ] final  -52.09 input  -60.55 | X-H torsion
[ 11005 11000 10999 10996 ] final   -0.86 input  -57.11 | X-H torsion

> <Gold.Protein.ActiveResidues>
 VAL166  LYS551  ARG553  GLY616  TRP617  ASP618  TYR619  PRO620  LYS621  CYS622 
 ASP623  PHE694  ASN695  SER759  ASP760  ASP761  ALA762  ILE779  LEU786  VAL792 
 PHE793  MET794  SER795  GLU796  ALA797  LYS798  CYS799  TRP800  GLU811  SER814 

> <Gold.Protein.RotatedAtoms>
  152.5416  134.2222  159.8791 H   0  0  0  0  0  0  0  0  0  0  0  0  # atno 6907 bound_to 6896
  151.2199  133.4501  159.2608 H   0  0  0  0  0  0  0  0  0  0  0  0  # atno 6908 bound_to 6896
  151.0816  134.9874  159.8414 H   0  0  0  0  0  0  0  0  0  0  0  0  # atno 6909 bound_to 6896
  145.0731  140.8373  143.4084 H   0  0  0  0  0  0  0  0  0  0  0  0  # atno 7974 bound_to 7965
  156.2918  140.2641  156.2460 H   0  0  0  0  0  0  0  0  0  0  0  0  # atno 8008 bound_to 7997
  154.9930  140.0388  157.2346 H   0  0  0  0  0  0  0  0  0  0  0  0  # atno 8009 bound_to 7997
  154.7669  140.2771  155.6174 H   0  0  0  0  0  0  0  0  0  0  0  0  # atno 8010 bound_to 7997
  140.2758  143.3314  152.0489 H   0  0  0  0  0  0  0  0  0  0  0  0  # atno 10167 bound_to 10162
  157.6429  130.9505  150.0727 H   0  0  0  0  0  0  0  0  0  0  0  0  # atno 10718 bound_to 10713
  154.1371  135.6511  153.4934 H   0  0  0  0  0  0  0  0  0  0  0  0  # atno 10763 bound_to 10752
  153.0177  135.5306  154.6942 H   0  0  0  0  0  0  0  0  0  0  0  0  # atno 10764 bound_to 10752
  154.6193  135.2963  155.0315 H   0  0  0  0  0  0  0  0  0  0  0  0  # atno 10765 bound_to 10752
  140.6410  133.9490  155.8326 H   0  0  0  0  0  0  0  0  0  0  0  0  # atno 11005 bound_to 11000
  145.1268  139.2657  143.5560 LP  0  0  0  0  0  0  0  0  0  0  0  0  # atno 17320 bound_to 7965
  146.3529  140.0908  142.8612 LP  0  0  0  0  0  0  0  0  0  0  0  0  # atno 17321 bound_to 7965
  139.4976  144.6625  151.6432 LP  0  0  0  0  0  0  0  0  0  0  0  0  # atno 17342 bound_to 10162
  140.5852  143.9876  150.6291 LP  0  0  0  0  0  0  0  0  0  0  0  0  # atno 17343 bound_to 10162
  156.1726  130.3647  149.9144 LP  0  0  0  0  0  0  0  0  0  0  0  0  # atno 17370 bound_to 10713
  156.7115  130.8972  151.3610 LP  0  0  0  0  0  0  0  0  0  0  0  0  # atno 17371 bound_to 10713
  141.0607  134.0351  157.3662 LP  0  0  0  0  0  0  0  0  0  0  0  0  # atno 17394 bound_to 11000
  139.9080  135.0184  156.7571 LP  0  0  0  0  0  0  0  0  0  0  0  0  # atno 17395 bound_to 11000

$$$$
