AV-unprocessed.smi:1803|AV-procd|sdf|7283|dock2
  -GOLD-   22720 8543D 1   1.00000     0.00000
 Structure written by MMmdl.
 36 38  0  0  0  0  0  0  0  0  2 V2000
  145.8651  138.5534  153.8133 O   0  0  0  0  0  0  0  0  0  0  0  0
  146.6907  137.8692  153.2116 C   0  0  0  0  0  0  0  0  0  0  0  0
  148.0152  138.0866  153.3530 N   0  0  0  0  0  0  0  0  0  0  0  0
  148.7298  139.0421  154.1330 C   0  0  0  0  0  0  0  0  0  0  0  0
  149.8943  138.7928  154.7549 N   0  0  0  0  0  0  0  0  0  0  0  0
  150.3807  139.9092  155.4210 N   0  0  0  0  0  0  0  0  0  0  0  0
  149.5736  140.9623  155.2652 C   0  0  0  0  0  0  0  0  0  0  0  0
  148.1399  140.6907  154.2903 S   0  0  0  0  0  0  0  0  0  0  0  0
  146.3425  136.8700  152.3835 N   0  0  0  0  0  0  0  0  0  0  0  0
  144.9777  136.4816  152.0363 C   0  0  2  0  0  0  0  0  0  0  0  0
  144.0548  136.3900  153.2674 C   0  0  0  0  0  0  0  0  0  0  0  0
  143.2373  135.1128  153.0493 C   0  0  0  0  0  0  0  0  0  0  0  0
  144.1731  134.2422  152.3282 N   0  3  1  0  0  0  0  0  0  0  0  0
  143.6540  132.9988  151.7230 C   0  0  0  0  0  0  0  0  0  0  0  0
  144.8479  132.1816  151.1840 C   0  0  0  0  0  0  0  0  0  0  0  0
  145.7532  133.0154  150.2494 C   0  0  0  0  0  0  0  0  0  0  0  0
  146.1571  134.3594  150.8928 C   0  0  0  0  0  0  0  0  0  0  0  0
  144.8869  135.0932  151.3607 C   0  0  2  0  0  0  0  0  0  0  0  0
  148.6025  137.4074  152.8908 H   0  0  0  0  0  0  0  0  0  0  0  0
  149.8259  141.9064  155.7249 H   0  0  0  0  0  0  0  0  0  0  0  0
  147.0884  136.3550  151.9374 H   0  0  0  0  0  0  0  0  0  0  0  0
  144.5563  137.2233  151.3550 H   0  0  0  0  0  0  0  0  0  0  0  0
  144.6467  136.2845  154.1783 H   0  0  0  0  0  0  0  0  0  0  0  0
  143.4248  137.2719  153.3867 H   0  0  0  0  0  0  0  0  0  0  0  0
  142.8978  134.6643  153.9832 H   0  0  0  0  0  0  0  0  0  0  0  0
  142.3664  135.3163  152.4241 H   0  0  0  0  0  0  0  0  0  0  0  0
  143.1115  132.4226  152.4733 H   0  0  0  0  0  0  0  0  0  0  0  0
  142.9505  133.2350  150.9232 H   0  0  0  0  0  0  0  0  0  0  0  0
  145.4427  131.8221  152.0249 H   0  0  0  0  0  0  0  0  0  0  0  0
  144.4888  131.2939  150.6623 H   0  0  0  0  0  0  0  0  0  0  0  0
  146.6435  132.4449  149.9833 H   0  0  0  0  0  0  0  0  0  0  0  0
  145.2224  133.2086  149.3163 H   0  0  0  0  0  0  0  0  0  0  0  0
  146.8284  134.1831  151.7347 H   0  0  0  0  0  0  0  0  0  0  0  0
  146.7048  134.9648  150.1698 H   0  0  0  0  0  0  0  0  0  0  0  0
  144.2353  135.2183  150.4932 H   0  0  0  0  0  0  0  0  0  0  0  0
  144.8612  133.9623  153.0126 H   0  0  0  0  0  0  0  0  0  0  0  0
  1  2  2  0  0  0  0
  2  3  1  0  0  0  0
  2  9  1  0  0  0  0
  3  4  1  0  0  0  0
  3 19  1  0  0  0  0
  4  8  1  0  0  0  0
  4  5  2  0  0  0  0
  5  6  1  0  0  0  0
  6  7  2  0  0  0  0
  7  8  1  0  0  0  0
  7 20  1  0  0  0  0
  9 10  1  0  0  0  0
  9 21  1  0  0  0  0
 10 18  1  0  0  0  0
 10 11  1  0  0  0  0
 10 22  1  0  0  0  0
 11 12  1  0  0  0  0
 11 23  1  0  0  0  0
 11 24  1  0  0  0  0
 12 13  1  0  0  0  0
 12 25  1  0  0  0  0
 12 26  1  0  0  0  0
 13 18  1  0  0  0  0
 13 14  1  0  0  0  0
 13 36  1  0  0  0  0
 14 15  1  0  0  0  0
 14 27  1  0  0  0  0
 14 28  1  0  0  0  0
 15 16  1  0  0  0  0
 15 29  1  0  0  0  0
 15 30  1  0  0  0  0
 16 17  1  0  0  0  0
 16 31  1  0  0  0  0
 16 32  1  0  0  0  0
 17 18  1  0  0  0  0
 17 33  1  0  0  0  0
 17 34  1  0  0  0  0
 18 35  1  0  0  0  0
M  CHG  1  13   1
M  END
> <s_m_source_file>
AV-unprocessed.smi

> <i_m_source_file_index>
1803

> <i_lp_mmshare_version>
43012

> <i_f3d_flags>
0

> <s_epik_input>
czFbY0hdbm5jMVtOSF1DKD1PKVtOSF1bQ0BIXShbQ0gyXVtDSDJdMilbQ0BASF0oTjIzKVtDSDJdW0NIMl1bQ0gyXVtDSDJdMw==

> <s_epik_cmdline>
J2VwaWtfcHl0aG9uJywgJy1waCcsICc3LjAnLCAnLXRuJywgJzgnLCAnLW1hJywgJzIwMCcsICctbWV0YWxfYmluZGluZycsICctaW1hZScsICc8aW5maWxlLm1hZT4nLCAnLW9tYWUnLCAnPG91dGZpbGUubWFlPic=

> <r_lp_tautomer_probability>
1

> <r_epik_Ionization_Penalty>
0.00213286

> <r_epik_Ionization_Penalty_Charging>
0.00107044

> <r_epik_Ionization_Penalty_Neutral>
0.00106242

> <r_epik_State_Penalty>
-0

> <r_epik_Charging_Adjusted_Penalty>
0.00107044

> <i_epik_Tot_Q>
1

> <i_epik_Tot_abs_Q>
1

> <r_epik_Metal_State_Penalty>
0.292783

> <b_epik_Metal_Only>
0

> <s_lp_Force_Field>
OPLS_2005

> <r_lp_Energy>
42.6799

> <b_lp_Chiralities_Consistent>
1

> <s_lp_Variant>
AV-unprocessed.smi:1803-5

> <Gold.Version>
5.8.1

> <Gold.Id.Protein>
6NUR|6NUR_protein|mol2

> <Gold.PLP.Fitness>
37.8877

> <Gold.PLP.PLP>
-27.4607

> <Gold.PLP.part.hbond>
-4.0000

> <Gold.PLP.part.metal>
0.0000

> <Gold.PLP.part.buried>
0.3769

> <Gold.PLP.part.nonpolar>
-24.6253

> <Gold.PLP.part.repulsive>
2.0626

> <Gold.PLP.ligand.clash>
0.0000

> <Gold.PLP.ligand.torsion>
0.4601

> <Gold.PLP.Chemscore.Hbond>
2.7820

> <Gold.PLP.Chemscore.CHOScore>
1.0000

> <Gold.PLP.Chemscore.Metal>
0.0000

> <Gold.Chemscore.Hbonds>
donor molecule, donor type, donor heavy atom, donor atom, acceptor molecule, acceptor atom, score
      L1  H     3    19       P1  7948  1.00
      L1  H     9    21       P1  7948  0.86

> <Gold.PLP.Chemscore.Internal.Correction>
0.0013

> <Gold.Rescore>
     Score         DG    S(hbond)    S(metal)    S(lipo)     H(rot)  DE(clash)    DE(int)     intcor
     14.34     -16.08       1.93        0.00      57.43       1.00       0.01       1.74       ----

> <Gold.Chemscore.Fitness>
14.3364

> <Gold.Chemscore.DG>
-16.0839

> <Gold.Chemscore.ZeroCoef>
-5.4800

> <Gold.Chemscore.Hbond>
1.9293

> <Gold.Chemscore.Metal>
0.0000

> <Gold.Chemscore.Lipo>
57.4347

> <Gold.Chemscore.Internal_Hbond>
0.0000

> <Gold.Chemscore.DEClash>
0.0118

> <Gold.Chemscore.DEInternal>
1.7357

> <Gold.Chemscore.Rot>
1.0000

> <Gold.Chemscore.Internal.Correction>
   9.000000E+99

> <Gold.Chemscore.Hbonds>
donor molecule, donor type, donor heavy atom, donor atom, acceptor molecule, acceptor atom, score
      L1  H     3    19       P1  7948  0.97
      L1  H     9    21       P1  7948  0.85

> <Gold.Chemscore.Hbond.Weighted>
-6.4440

> <Gold.Chemscore.Metal.Weighted>
-0.0000

> <Gold.Chemscore.Lipo.Weighted>
-6.7199

> <Gold.Chemscore.Internal_Hbond.Weighted>
0.0000

> <Gold.Chemscore.DEClash.Weighted>
0.0118

> <Gold.Chemscore.DEInternal.Weighted>
1.7357

> <Gold.Chemscore.Rot.Weighted>
2.5600

> <Gold.Chemscore.Internal.Correction.Weighted>
   9.000000E+99

> <Gold.Protein.RotatedTorsions>
[ 6907 6896 6895 6894 ] final   97.46 input  -60.11 | X-H torsion
[ 7974 7965 7964 7962 ] final  -37.28 input  175.53 | X-H torsion
[ 8008 7997 7996 7995 ] final   -9.27 input   59.86 | X-H torsion
[ 10167 10162 10161 10158 ] final -107.31 input  -65.29 | X-H torsion
[ 10718 10713 10712 10709 ] final  167.93 input   66.30 | X-H torsion
[ 10763 10752 10751 10750 ] final  -35.71 input  -60.55 | X-H torsion
[ 11005 11000 10999 10996 ] final  161.58 input  -57.11 | X-H torsion

> <Gold.Protein.ActiveResidues>
 VAL166  LYS551  ARG553  GLY616  TRP617  ASP618  TYR619  PRO620  LYS621  CYS622 
 ASP623  PHE694  ASN695  SER759  ASP760  ASP761  ALA762  ILE779  LEU786  VAL792 
 PHE793  MET794  SER795  GLU796  ALA797  LYS798  CYS799  TRP800  GLU811  SER814 

> <Gold.Protein.RotatedAtoms>
  152.5423  134.0729  159.8201 H   0  0  0  0  0  0  0  0  0  0  0  0  # atno 6907 bound_to 6896
  151.0841  133.5359  159.2626 H   0  0  0  0  0  0  0  0  0  0  0  0  # atno 6908 bound_to 6896
  151.2175  135.0514  159.8990 H   0  0  0  0  0  0  0  0  0  0  0  0  # atno 6909 bound_to 6896
  146.0588  140.6378  142.9007 H   0  0  0  0  0  0  0  0  0  0  0  0  # atno 7974 bound_to 7965
  154.5662  140.2359  155.8260 H   0  0  0  0  0  0  0  0  0  0  0  0  # atno 8008 bound_to 7997
  156.2070  140.3037  155.9607 H   0  0  0  0  0  0  0  0  0  0  0  0  # atno 8009 bound_to 7997
  155.2796  140.0422  157.3005 H   0  0  0  0  0  0  0  0  0  0  0  0  # atno 8010 bound_to 7997
  140.1783  143.3987  152.1301 H   0  0  0  0  0  0  0  0  0  0  0  0  # atno 10167 bound_to 10162
  157.0444  131.0295  151.2702 H   0  0  0  0  0  0  0  0  0  0  0  0  # atno 10718 bound_to 10713
  153.8677  135.6834  153.4777 H   0  0  0  0  0  0  0  0  0  0  0  0  # atno 10763 bound_to 10752
  153.1305  135.4700  154.9339 H   0  0  0  0  0  0  0  0  0  0  0  0  # atno 10764 bound_to 10752
  154.7729  135.3244  154.8103 H   0  0  0  0  0  0  0  0  0  0  0  0  # atno 10765 bound_to 10752
  140.2172  134.8223  157.3182 H   0  0  0  0  0  0  0  0  0  0  0  0  # atno 11005 bound_to 11000
  144.7163  140.4221  143.7042 LP  0  0  0  0  0  0  0  0  0  0  0  0  # atno 17320 bound_to 7965
  145.6596  139.1579  143.2816 LP  0  0  0  0  0  0  0  0  0  0  0  0  # atno 17321 bound_to 7965
  139.5307  144.7156  151.5066 LP  0  0  0  0  0  0  0  0  0  0  0  0  # atno 17342 bound_to 10162
  140.6536  143.8645  150.6812 LP  0  0  0  0  0  0  0  0  0  0  0  0  # atno 17343 bound_to 10162
  157.5079  130.7920  149.7674 LP  0  0  0  0  0  0  0  0  0  0  0  0  # atno 17370 bound_to 10713
  156.0028  130.3871  150.2543 LP  0  0  0  0  0  0  0  0  0  0  0  0  # atno 17371 bound_to 10713
  140.1888  134.4397  155.7728 LP  0  0  0  0  0  0  0  0  0  0  0  0  # atno 17394 bound_to 11000
  141.2224  133.7017  156.7992 LP  0  0  0  0  0  0  0  0  0  0  0  0  # atno 17395 bound_to 11000

$$$$
