AV-unprocessed.smi:3039|AV-procd|sdf|11591|dock2
  -GOLD-   2272016563D 1   1.00000     0.00000
 Structure written by MMmdl.
 38 39  0  0  0  0  0  0  0  0  1 V2000
  152.7063  139.9327  157.3168 O   0  0  0  0  0  0  0  0  0  0  0  0
  151.7046  140.6326  157.1692 C   0  0  0  0  0  0  0  0  0  0  0  0
  150.6695  140.2639  156.1068 C   0  0  0  0  0  0  0  0  0  0  0  0
  150.9857  138.9127  155.5253 C   0  0  0  0  0  0  0  0  0  0  0  0
  150.8245  138.4693  154.1831 C   0  0  0  0  0  0  0  0  0  0  0  0
  151.2619  137.1767  154.2194 C   0  0  0  0  0  0  0  0  0  0  0  0
  151.6647  136.8462  155.4722 O   0  0  0  0  0  0  0  0  0  0  0  0
  151.4868  137.9613  156.2988 N   0  0  0  0  0  0  0  0  0  0  0  0
  151.4448  141.7327  157.8974 N   0  0  0  0  0  0  0  0  0  0  0  0
  152.2693  142.3141  158.9621 C   0  0  2  0  0  0  0  0  0  0  0  0
  152.5252  141.2647  160.0727 C   0  0  0  0  0  0  0  0  0  0  0  0
  153.7278  141.6014  160.9694 C   0  0  0  0  0  0  0  0  0  0  0  0
  153.4115  142.4941  162.1798 C   0  0  0  0  0  0  0  0  0  0  0  0
  152.4076  143.6317  161.9341 C   0  0  0  0  0  0  0  0  0  0  0  0
  152.5433  144.3416  160.5770 C   0  0  0  0  0  0  0  0  0  0  0  0
  151.7107  143.6859  159.4498 C   0  0  1  0  0  0  0  0  0  0  0  0
  151.4949  144.6888  158.2906 C   0  0  0  0  0  0  0  0  0  0  0  0
  150.9182  144.0651  157.1611 O   0  0  0  0  0  0  0  0  0  0  0  0
  149.6781  140.2579  156.5610 H   0  0  0  0  0  0  0  0  0  0  0  0
  150.6478  141.0297  155.3296 H   0  0  0  0  0  0  0  0  0  0  0  0
  150.4442  139.0131  153.3311 H   0  0  0  0  0  0  0  0  0  0  0  0
  151.3463  136.4004  153.4734 H   0  0  0  0  0  0  0  0  0  0  0  0
  150.5902  142.2280  157.6865 H   0  0  0  0  0  0  0  0  0  0  0  0
  153.2294  142.5039  158.4816 H   0  0  0  0  0  0  0  0  0  0  0  0
  151.6334  141.0954  160.6771 H   0  0  0  0  0  0  0  0  0  0  0  0
  152.7405  140.3094  159.5912 H   0  0  0  0  0  0  0  0  0  0  0  0
  154.1605  140.6730  161.3442 H   0  0  0  0  0  0  0  0  0  0  0  0
  154.5144  142.0604  160.3694 H   0  0  0  0  0  0  0  0  0  0  0  0
  153.0310  141.8750  162.9931 H   0  0  0  0  0  0  0  0  0  0  0  0
  154.3488  142.9149  162.5458 H   0  0  0  0  0  0  0  0  0  0  0  0
  151.3903  143.2564  162.0517 H   0  0  0  0  0  0  0  0  0  0  0  0
  152.5341  144.3648  162.7315 H   0  0  0  0  0  0  0  0  0  0  0  0
  152.1833  145.3618  160.7147 H   0  0  0  0  0  0  0  0  0  0  0  0
  153.5908  144.4394  160.2896 H   0  0  0  0  0  0  0  0  0  0  0  0
  150.7190  143.5093  159.8666 H   0  0  0  0  0  0  0  0  0  0  0  0
  150.8580  145.5184  158.5976 H   0  0  0  0  0  0  0  0  0  0  0  0
  152.4448  145.1335  157.9925 H   0  0  0  0  0  0  0  0  0  0  0  0
  150.2365  144.6259  156.8236 H   0  0  0  0  0  0  0  0  0  0  0  0
  1  2  2  0  0  0  0
  2  3  1  0  0  0  0
  2  9  1  0  0  0  0
  3  4  1  0  0  0  0
  3 19  1  0  0  0  0
  3 20  1  0  0  0  0
  4  8  2  0  0  0  0
  4  5  1  0  0  0  0
  5  6  2  0  0  0  0
  5 21  1  0  0  0  0
  6  7  1  0  0  0  0
  6 22  1  0  0  0  0
  7  8  1  0  0  0  0
  9 10  1  0  0  0  0
  9 23  1  0  0  0  0
 10 16  1  0  0  0  0
 10 11  1  0  0  0  0
 10 24  1  0  0  0  0
 11 12  1  0  0  0  0
 11 25  1  0  0  0  0
 11 26  1  0  0  0  0
 12 13  1  0  0  0  0
 12 27  1  0  0  0  0
 12 28  1  0  0  0  0
 13 14  1  0  0  0  0
 13 29  1  0  0  0  0
 13 30  1  0  0  0  0
 14 15  1  0  0  0  0
 14 31  1  0  0  0  0
 14 32  1  0  0  0  0
 15 16  1  0  0  0  0
 15 33  1  0  0  0  0
 15 34  1  0  0  0  0
 16 17  1  0  0  0  0
 16 35  1  0  0  0  0
 17 18  1  0  0  0  0
 17 36  1  0  0  0  0
 17 37  1  0  0  0  0
 18 38  1  0  0  0  0
M  END
> <s_m_source_file>
AV-unprocessed.smi

> <i_m_source_file_index>
3039

> <i_lp_mmshare_version>
43012

> <i_f3d_flags>
0

> <s_epik_input>
bjFvW2NIXVtjSF1jMVtDSDJdQyg9TylbTkhdW0NAQEhdMltDSDJdW0NIMl1bQ0gyXVtDSDJdW0NIMl1bQ0BIXTJbQ0gyXVtPSF0=

> <s_epik_cmdline>
J2VwaWtfcHl0aG9uJywgJy1waCcsICc3LjAnLCAnLXRuJywgJzgnLCAnLW1hJywgJzIwMCcsICctbWV0YWxfYmluZGluZycsICctaW1hZScsICc8aW5maWxlLm1hZT4nLCAnLW9tYWUnLCAnPG91dGZpbGUubWFlPic=

> <r_lp_tautomer_probability>
1

> <r_epik_Ionization_Penalty>
3.05817e-07

> <r_epik_Ionization_Penalty_Charging>
0

> <r_epik_Ionization_Penalty_Neutral>
3.05817e-07

> <r_epik_State_Penalty>
-0

> <r_epik_Charging_Adjusted_Penalty>
0

> <i_epik_Tot_Q>
0

> <i_epik_Tot_abs_Q>
0

> <r_epik_Metal_State_Penalty>
-0

> <b_epik_Metal_Only>
0

> <s_lp_Force_Field>
OPLS_2005

> <r_lp_Energy>
18.2522

> <b_lp_Chiralities_Consistent>
1

> <s_lp_Variant>
AV-unprocessed.smi:3039-1

> <Gold.Version>
5.8.1

> <Gold.Id.Protein>
6NUR|6NUR_protein|mol2

> <Gold.PLP.Fitness>
49.9244

> <Gold.PLP.PLP>
-39.2610

> <Gold.PLP.part.hbond>
-3.0000

> <Gold.PLP.part.metal>
0.0000

> <Gold.PLP.part.buried>
-2.7568

> <Gold.PLP.part.nonpolar>
-33.3852

> <Gold.PLP.part.repulsive>
0.1284

> <Gold.PLP.ligand.clash>
0.0000

> <Gold.PLP.ligand.torsion>
0.5345

> <Gold.PLP.Chemscore.Hbond>
2.8736

> <Gold.PLP.Chemscore.CHOScore>
1.0000

> <Gold.PLP.Chemscore.Metal>
0.0000

> <Gold.Chemscore.Hbonds>
donor molecule, donor type, donor heavy atom, donor atom, acceptor molecule, acceptor atom, score
      L1  H    18    38       P1  8028  0.91
      P1  H  7997  8008       L1     1  1.00
      P1  H 10752 10765       L1     7  0.86
      L1  C     6    22       P1  7949  1.00

> <Gold.PLP.Chemscore.Internal.Correction>
0.1114

> <Gold.Rescore>
     Score         DG    S(hbond)    S(metal)    S(lipo)     H(rot)  DE(clash)    DE(int)     intcor
     15.93     -21.32       2.30        0.00     119.18       2.26       1.61       3.78       ----

> <Gold.Chemscore.Fitness>
15.9347

> <Gold.Chemscore.DG>
-21.3229

> <Gold.Chemscore.ZeroCoef>
-5.4800

> <Gold.Chemscore.Hbond>
2.3020

> <Gold.Chemscore.Metal>
0.0000

> <Gold.Chemscore.Lipo>
119.1790

> <Gold.Chemscore.Internal_Hbond>
0.0000

> <Gold.Chemscore.DEClash>
1.6108

> <Gold.Chemscore.DEInternal>
3.7774

> <Gold.Chemscore.Rot>
2.2616

> <Gold.Chemscore.Internal.Correction>
   9.000000E+99

> <Gold.Chemscore.Hbonds>
donor molecule, donor type, donor heavy atom, donor atom, acceptor molecule, acceptor atom, score
      L1  H    18    38       P1  8028  0.67
      P1  H  7997  8008       L1     1  0.98
      P1  H 10752 10765       L1     7  0.21

> <Gold.Chemscore.Hbond.Weighted>
-7.6886

> <Gold.Chemscore.Metal.Weighted>
-0.0000

> <Gold.Chemscore.Lipo.Weighted>
-13.9439

> <Gold.Chemscore.Internal_Hbond.Weighted>
0.0000

> <Gold.Chemscore.DEClash.Weighted>
1.6108

> <Gold.Chemscore.DEInternal.Weighted>
3.7774

> <Gold.Chemscore.Rot.Weighted>
5.7896

> <Gold.Chemscore.Internal.Correction.Weighted>
   9.000000E+99

> <Gold.Protein.RotatedTorsions>
[ 6907 6896 6895 6894 ] final  -55.05 input  -60.11 | X-H torsion
[ 7974 7965 7964 7962 ] final   -2.03 input  175.53 | X-H torsion
[ 8008 7997 7996 7995 ] final  -53.08 input   59.86 | X-H torsion
[ 10167 10162 10161 10158 ] final   30.81 input  -65.29 | X-H torsion
[ 10718 10713 10712 10709 ] final  -79.77 input   66.30 | X-H torsion
[ 10763 10752 10751 10750 ] final -149.46 input  -60.55 | X-H torsion
[ 11005 11000 10999 10996 ] final  -19.98 input  -57.11 | X-H torsion

> <Gold.Protein.ActiveResidues>
 VAL166  LYS551  ARG553  GLY616  TRP617  ASP618  TYR619  PRO620  LYS621  CYS622 
 ASP623  PHE694  ASN695  SER759  ASP760  ASP761  ALA762  ILE779  LEU786  VAL792 
 PHE793  MET794  SER795  GLU796  ALA797  LYS798  CYS799  TRP800  GLU811  SER814 

> <Gold.Protein.RotatedAtoms>
  150.8285  134.7527  159.6832 H   0  0  0  0  0  0  0  0  0  0  0  0  # atno 6907 bound_to 6896
  152.4392  134.5621  159.9907 H   0  0  0  0  0  0  0  0  0  0  0  0  # atno 6908 bound_to 6896
  151.5788  133.3343  159.3040 H   0  0  0  0  0  0  0  0  0  0  0  0  # atno 6909 bound_to 6896
  146.2410  140.1510  142.8334 H   0  0  0  0  0  0  0  0  0  0  0  0  # atno 7974 bound_to 7965
  154.4123  140.1208  156.5096 H   0  0  0  0  0  0  0  0  0  0  0  0  # atno 8008 bound_to 7997
  155.6812  140.3496  155.4837 H   0  0  0  0  0  0  0  0  0  0  0  0  # atno 8009 bound_to 7997
  155.9550  140.1112  157.0935 H   0  0  0  0  0  0  0  0  0  0  0  0  # atno 8010 bound_to 7997
  140.4645  144.0857  150.6221 H   0  0  0  0  0  0  0  0  0  0  0  0  # atno 10167 bound_to 10162
  156.0085  130.4555  150.3699 H   0  0  0  0  0  0  0  0  0  0  0  0  # atno 10718 bound_to 10713
  154.8176  135.3308  154.7133 H   0  0  0  0  0  0  0  0  0  0  0  0  # atno 10763 bound_to 10752
  153.7771  135.6921  153.4900 H   0  0  0  0  0  0  0  0  0  0  0  0  # atno 10764 bound_to 10752
  153.2005  135.4518  155.0209 H   0  0  0  0  0  0  0  0  0  0  0  0  # atno 10765 bound_to 10752
  140.8419  133.7920  155.9870 H   0  0  0  0  0  0  0  0  0  0  0  0  # atno 11005 bound_to 11000
  145.0167  140.8760  143.5191 LP  0  0  0  0  0  0  0  0  0  0  0  0  # atno 17320 bound_to 7965
  145.1552  139.2491  143.5420 LP  0  0  0  0  0  0  0  0  0  0  0  0  # atno 17321 bound_to 7965
  140.4053  143.2683  151.9898 LP  0  0  0  0  0  0  0  0  0  0  0  0  # atno 17342 bound_to 10162
  139.4810  144.5962  151.7686 LP  0  0  0  0  0  0  0  0  0  0  0  0  # atno 17343 bound_to 10162
  157.1784  131.0386  151.2761 LP  0  0  0  0  0  0  0  0  0  0  0  0  # atno 17370 bound_to 10713
  157.4167  130.7415  149.6881 LP  0  0  0  0  0  0  0  0  0  0  0  0  # atno 17371 bound_to 10713
  140.8885  134.2524  157.5107 LP  0  0  0  0  0  0  0  0  0  0  0  0  # atno 17394 bound_to 11000
  139.8703  134.9650  156.4514 LP  0  0  0  0  0  0  0  0  0  0  0  0  # atno 17395 bound_to 11000

$$$$
