AV-unprocessed.smi:2034|AV-procd|sdf|8266|dock1
  -GOLD-   2272010543D 1   1.00000     0.00000
 Structure written by MMmdl.
 50 52  0  0  0  0  0  0  0  0  1 V2000
  153.3928  141.1422  160.6051 C   0  0  0  0  0  0  0  0  0  0  0  0
  152.9634  141.8388  159.3094 C   0  0  1  0  0  0  0  0  0  0  0  0
  151.9606  140.9923  158.5026 C   0  0  0  0  0  0  0  0  0  0  0  0
  151.4887  141.7348  157.3370 N   0  0  0  0  0  0  0  0  0  0  0  0
  150.7892  140.9755  156.3740 C   0  0  0  0  0  0  0  0  0  0  0  0
  151.4641  139.9848  155.6225 C   0  0  0  0  0  0  0  0  0  0  0  0
  150.7453  139.2358  154.6719 C   0  0  0  0  0  0  0  0  0  0  0  0
  149.3704  139.4836  154.4964 C   0  0  0  0  0  0  0  0  0  0  0  0
  148.6720  138.7240  153.5198 N   0  0  0  0  0  0  0  0  0  0  0  0
  147.3524  138.7040  153.2666 C   0  0  0  0  0  0  0  0  0  0  0  0
  146.4998  139.3474  153.8785 O   0  0  0  0  0  0  0  0  0  0  0  0
  147.0645  137.8635  152.2633 N   0  0  0  0  0  0  0  0  0  0  0  0
  145.7223  137.5817  151.7673 C   0  0  0  0  0  0  0  0  0  0  0  0
  145.3969  136.0808  151.8442 C   0  0  1  0  0  0  0  0  0  0  0  0
  143.9212  135.7569  151.6375 C   0  0  0  0  0  0  0  0  0  0  0  0
  143.9621  134.2940  151.2387 C   0  0  0  0  0  0  0  0  0  0  0  0
  145.3523  134.1245  150.6166 C   0  0  0  0  0  0  0  0  0  0  0  0
  146.0125  135.3760  150.7767 O   0  0  0  0  0  0  0  0  0  0  0  0
  148.7837  140.5067  155.2780 C   0  0  0  0  0  0  0  0  0  0  0  0
  149.4706  141.2291  156.1879 N   0  0  0  0  0  0  0  0  0  0  0  0
  150.9724  143.0608  157.6697 C   0  0  0  0  0  0  0  0  0  0  0  0
  152.0024  143.8481  158.5013 C   0  0  1  0  0  0  0  0  0  0  0  0
  151.4485  145.1962  158.9740 C   0  0  0  0  0  0  0  0  0  0  0  0
  152.3595  143.0840  159.6500 O   0  0  0  0  0  0  0  0  0  0  0  0
  153.8693  140.1842  160.3960 H   0  0  0  0  0  0  0  0  0  0  0  0
  152.5375  140.9564  161.2556 H   0  0  0  0  0  0  0  0  0  0  0  0
  154.1052  141.7542  161.1585 H   0  0  0  0  0  0  0  0  0  0  0  0
  153.8538  142.0260  158.7063 H   0  0  0  0  0  0  0  0  0  0  0  0
  152.4360  140.0554  158.2158 H   0  0  0  0  0  0  0  0  0  0  0  0
  151.1014  140.7342  159.1232 H   0  0  0  0  0  0  0  0  0  0  0  0
  152.5203  139.8017  155.7532 H   0  0  0  0  0  0  0  0  0  0  0  0
  151.2477  138.4785  154.0879 H   0  0  0  0  0  0  0  0  0  0  0  0
  149.2355  138.0750  152.9907 H   0  0  0  0  0  0  0  0  0  0  0  0
  147.8251  137.3680  151.8218 H   0  0  0  0  0  0  0  0  0  0  0  0
  144.9894  138.1567  152.3358 H   0  0  0  0  0  0  0  0  0  0  0  0
  145.6554  137.9290  150.7360 H   0  0  0  0  0  0  0  0  0  0  0  0
  145.7335  135.6570  152.7924 H   0  0  0  0  0  0  0  0  0  0  0  0
  143.3167  135.9398  152.5266 H   0  0  0  0  0  0  0  0  0  0  0  0
  143.5136  136.3522  150.8190 H   0  0  0  0  0  0  0  0  0  0  0  0
  143.8684  133.6588  152.1206 H   0  0  0  0  0  0  0  0  0  0  0  0
  143.1589  134.0333  150.5490 H   0  0  0  0  0  0  0  0  0  0  0  0
  145.9131  133.3421  151.1293 H   0  0  0  0  0  0  0  0  0  0  0  0
  145.2994  133.8663  149.5587 H   0  0  0  0  0  0  0  0  0  0  0  0
  147.7465  140.7839  155.1729 H   0  0  0  0  0  0  0  0  0  0  0  0
  150.7457  143.6142  156.7573 H   0  0  0  0  0  0  0  0  0  0  0  0
  150.0406  142.9538  158.2272 H   0  0  0  0  0  0  0  0  0  0  0  0
  152.8961  144.0310  157.9020 H   0  0  0  0  0  0  0  0  0  0  0  0
  151.1695  145.8243  158.1276 H   0  0  0  0  0  0  0  0  0  0  0  0
  152.1902  145.7385  159.5606 H   0  0  0  0  0  0  0  0  0  0  0  0
  150.5639  145.0617  159.5973 H   0  0  0  0  0  0  0  0  0  0  0  0
  1  2  1  0  0  0  0
  1 25  1  0  0  0  0
  1 26  1  0  0  0  0
  1 27  1  0  0  0  0
  2 24  1  0  0  0  0
  2  3  1  0  0  0  0
  2 28  1  0  0  0  0
  3  4  1  0  0  0  0
  3 29  1  0  0  0  0
  3 30  1  0  0  0  0
  4  5  1  0  0  0  0
  4 21  1  0  0  0  0
  5 20  1  0  0  0  0
  5  6  2  0  0  0  0
  6  7  1  0  0  0  0
  6 31  1  0  0  0  0
  7  8  2  0  0  0  0
  7 32  1  0  0  0  0
  8  9  1  0  0  0  0
  8 19  1  0  0  0  0
  9 10  1  0  0  0  0
  9 33  1  0  0  0  0
 10 11  2  0  0  0  0
 10 12  1  0  0  0  0
 12 13  1  0  0  0  0
 12 34  1  0  0  0  0
 13 14  1  0  0  0  0
 13 35  1  0  0  0  0
 13 36  1  0  0  0  0
 14 18  1  0  0  0  0
 14 15  1  0  0  0  0
 14 37  1  0  0  0  0
 15 16  1  0  0  0  0
 15 38  1  0  0  0  0
 15 39  1  0  0  0  0
 16 17  1  0  0  0  0
 16 40  1  0  0  0  0
 16 41  1  0  0  0  0
 17 18  1  0  0  0  0
 17 42  1  0  0  0  0
 17 43  1  0  0  0  0
 19 20  2  0  0  0  0
 19 44  1  0  0  0  0
 21 22  1  0  0  0  0
 21 45  1  0  0  0  0
 21 46  1  0  0  0  0
 22 23  1  0  0  0  0
 22 24  1  0  0  0  0
 22 47  1  0  0  0  0
 23 48  1  0  0  0  0
 23 49  1  0  0  0  0
 23 50  1  0  0  0  0
M  END
> <s_m_source_file>
AV-unprocessed.smi

> <i_m_source_file_index>
2034

> <i_lp_mmshare_version>
43012

> <i_f3d_flags>
0

> <s_epik_input>
W0NIM11bQ0BASF0xW0NIMl1OKFtDSDJdW0NASF0oTzEpW0NIM10pYzJbY0hdW2NIXWMoW2NIXW4yKVtOSF1DKD1PKVtOSF1bQ0gyXVtDQEBIXTNbQ0gyXVtDSDJdW0NIMl1PMw==

> <s_epik_cmdline>
J2VwaWtfcHl0aG9uJywgJy1waCcsICc3LjAnLCAnLXRuJywgJzgnLCAnLW1hJywgJzIwMCcsICctbWV0YWxfYmluZGluZycsICctaW1hZScsICc8aW5maWxlLm1hZT4nLCAnLW9tYWUnLCAnPG91dGZpbGUubWFlPic=

> <r_lp_tautomer_probability>
1

> <r_epik_Ionization_Penalty>
0.00268225

> <r_epik_Ionization_Penalty_Charging>
0

> <r_epik_Ionization_Penalty_Neutral>
0.00268225

> <r_epik_State_Penalty>
0.00184408

> <r_epik_Charging_Adjusted_Penalty>
0.00184408

> <i_epik_Tot_Q>
0

> <i_epik_Tot_abs_Q>
0

> <r_epik_Metal_State_Penalty>
-0

> <b_epik_Metal_Only>
0

> <s_lp_Force_Field>
OPLS_2005

> <r_lp_Energy>
32.5235

> <b_lp_Chiralities_Consistent>
1

> <s_lp_Variant>
AV-unprocessed.smi:2034-4

> <Gold.Version>
5.8.1

> <Gold.Id.Protein>
6NUR|6NUR_protein|mol2

> <Gold.PLP.Fitness>
51.3163

> <Gold.PLP.PLP>
-47.0213

> <Gold.PLP.part.hbond>
-2.9215

> <Gold.PLP.part.metal>
0.0000

> <Gold.PLP.part.buried>
-3.3291

> <Gold.PLP.part.nonpolar>
-41.9142

> <Gold.PLP.part.repulsive>
0.6322

> <Gold.PLP.ligand.clash>
0.0000

> <Gold.PLP.ligand.torsion>
0.5351

> <Gold.PLP.Chemscore.Hbond>
1.6760

> <Gold.PLP.Chemscore.CHOScore>
0.0000

> <Gold.PLP.Chemscore.Metal>
0.0000

> <Gold.Chemscore.Hbonds>
donor molecule, donor type, donor heavy atom, donor atom, acceptor molecule, acceptor atom, score
      L1  H     9    33       P1  7948  0.56
      L1  H    12    34       P1  7948  1.00

> <Gold.PLP.Chemscore.Internal.Correction>
0.3372

> <Gold.Rescore>
     Score         DG    S(hbond)    S(metal)    S(lipo)     H(rot)  DE(clash)    DE(int)     intcor
     19.03     -21.46       1.76        0.00     116.26       1.37       0.56       1.88       ----

> <Gold.Chemscore.Fitness>
19.0272

> <Gold.Chemscore.DG>
-21.4599

> <Gold.Chemscore.ZeroCoef>
-5.4800

> <Gold.Chemscore.Hbond>
1.7590

> <Gold.Chemscore.Metal>
0.0000

> <Gold.Chemscore.Lipo>
116.2598

> <Gold.Chemscore.Internal_Hbond>
0.0000

> <Gold.Chemscore.DEClash>
0.5559

> <Gold.Chemscore.DEInternal>
1.8768

> <Gold.Chemscore.Rot>
1.3663

> <Gold.Chemscore.Internal.Correction>
   9.000000E+99

> <Gold.Chemscore.Hbonds>
donor molecule, donor type, donor heavy atom, donor atom, acceptor molecule, acceptor atom, score
      L1  H     9    33       P1  7948  0.54
      L1  H    12    34       P1  7948  0.94

> <Gold.Chemscore.Hbond.Weighted>
-5.8752

> <Gold.Chemscore.Metal.Weighted>
-0.0000

> <Gold.Chemscore.Lipo.Weighted>
-13.6024

> <Gold.Chemscore.Internal_Hbond.Weighted>
0.0000

> <Gold.Chemscore.DEClash.Weighted>
0.5559

> <Gold.Chemscore.DEInternal.Weighted>
1.8768

> <Gold.Chemscore.Rot.Weighted>
3.4977

> <Gold.Chemscore.Internal.Correction.Weighted>
   9.000000E+99

> <Gold.Protein.RotatedTorsions>
[ 6907 6896 6895 6894 ] final   -7.85 input  -60.11 | X-H torsion
[ 7974 7965 7964 7962 ] final   39.16 input  175.53 | X-H torsion
[ 8008 7997 7996 7995 ] final  -57.60 input   59.86 | X-H torsion
[ 10167 10162 10161 10158 ] final   11.36 input  -65.29 | X-H torsion
[ 10718 10713 10712 10709 ] final   14.82 input   66.30 | X-H torsion
[ 10763 10752 10751 10750 ] final  -88.38 input  -60.55 | X-H torsion
[ 11005 11000 10999 10996 ] final   29.95 input  -57.11 | X-H torsion

> <Gold.Protein.ActiveResidues>
 VAL166  LYS551  ARG553  GLY616  TRP617  ASP618  TYR619  PRO620  LYS621  CYS622 
 ASP623  PHE694  ASN695  SER759  ASP760  ASP761  ALA762  ILE779  LEU786  VAL792 
 PHE793  MET794  SER795  GLU796  ALA797  LYS798  CYS799  TRP800  GLU811  SER814 

> <Gold.Protein.RotatedAtoms>
  151.4430  135.1022  159.9675 H   0  0  0  0  0  0  0  0  0  0  0  0  # atno 6907 bound_to 6896
  152.4916  133.8511  159.7212 H   0  0  0  0  0  0  0  0  0  0  0  0  # atno 6908 bound_to 6896
  150.9075  133.6981  159.2890 H   0  0  0  0  0  0  0  0  0  0  0  0  # atno 6909 bound_to 6896
  146.1006  139.5685  142.9416 H   0  0  0  0  0  0  0  0  0  0  0  0  # atno 7974 bound_to 7965
  154.4275  140.1103  156.5824 H   0  0  0  0  0  0  0  0  0  0  0  0  # atno 8008 bound_to 7997
  155.6099  140.3494  155.4600 H   0  0  0  0  0  0  0  0  0  0  0  0  # atno 8009 bound_to 7997
  156.0108  140.1218  157.0445 H   0  0  0  0  0  0  0  0  0  0  0  0  # atno 8010 bound_to 7997
  140.6136  143.8355  150.7093 H   0  0  0  0  0  0  0  0  0  0  0  0  # atno 10167 bound_to 10162
  157.0446  130.6245  149.5757 H   0  0  0  0  0  0  0  0  0  0  0  0  # atno 10718 bound_to 10713
  154.6439  135.5379  153.7821 H   0  0  0  0  0  0  0  0  0  0  0  0  # atno 10763 bound_to 10752
  153.0348  135.6466  154.1119 H   0  0  0  0  0  0  0  0  0  0  0  0  # atno 10764 bound_to 10752
  154.1041  135.2931  155.3225 H   0  0  0  0  0  0  0  0  0  0  0  0  # atno 10765 bound_to 10752
  140.2996  134.2772  155.7757 H   0  0  0  0  0  0  0  0  0  0  0  0  # atno 11005 bound_to 11000
  145.5862  141.0376  143.2095 LP  0  0  0  0  0  0  0  0  0  0  0  0  # atno 17320 bound_to 7965
  144.7430  139.7397  143.7303 LP  0  0  0  0  0  0  0  0  0  0  0  0  # atno 17321 bound_to 7965
  140.1929  143.4022  152.1850 LP  0  0  0  0  0  0  0  0  0  0  0  0  # atno 17342 bound_to 10162
  139.5381  144.7229  151.4826 LP  0  0  0  0  0  0  0  0  0  0  0  0  # atno 17343 bound_to 10162
  156.0027  130.5109  150.7721 LP  0  0  0  0  0  0  0  0  0  0  0  0  # atno 17370 bound_to 10713
  157.5078  131.0923  151.0236 LP  0  0  0  0  0  0  0  0  0  0  0  0  # atno 17371 bound_to 10713
  141.2131  133.7637  156.9746 LP  0  0  0  0  0  0  0  0  0  0  0  0  # atno 17394 bound_to 11000
  140.1122  134.9470  157.2081 LP  0  0  0  0  0  0  0  0  0  0  0  0  # atno 17395 bound_to 11000

$$$$
