AV-unprocessed.smi:1831|AV-procd|sdf|7460|dock3
  -GOLD-   22720 9153D 1   1.00000     0.00000
 Structure written by MMmdl.
 40 41  0  0  0  0  0  0  0  0  3 V2000
  151.7993  140.1915  158.7010 C   0  0  0  0  0  0  0  0  0  0  0  0
  151.4730  139.7833  157.3055 C   0  0  0  0  0  0  0  0  0  0  0  0
  152.3616  139.8416  156.3108 N   0  0  0  0  0  0  0  0  0  0  0  0
  151.8273  139.4073  155.1062 N   0  0  0  0  0  0  0  0  0  0  0  0
  150.5482  139.0206  155.2079 C   0  0  0  0  0  0  0  0  0  0  0  0
  149.8463  138.5656  154.1570 N   0  5  0  0  0  0  0  0  0  0  0  0
  148.5970  139.0279  153.9317 C   0  0  0  0  0  0  0  0  0  0  0  0
  148.0855  140.0277  154.4400 O   0  0  0  0  0  0  0  0  0  0  0  0
  147.9147  138.3107  153.0275 N   0  0  0  0  0  0  0  0  0  0  0  0
  146.5972  138.6307  152.4784 C   0  0  0  0  0  0  0  0  0  0  0  0
  145.5517  137.5077  152.6979 C   0  0  2  0  0  0  0  0  0  0  0  0
  145.7067  136.7734  154.0381 C   0  0  0  0  0  0  0  0  0  0  0  0
  146.3317  135.4097  153.7055 C   0  0  0  0  0  0  0  0  0  0  0  0
  146.5547  135.3812  152.2420 N   0  3  1  0  0  0  0  0  0  0  0  0
  146.5340  134.0325  151.6120 C   0  0  0  0  0  0  0  0  0  0  0  0
  145.1020  133.4688  151.5487 C   0  0  0  0  0  0  0  0  0  0  0  0
  147.4443  133.0465  152.3675 C   0  0  0  0  0  0  0  0  0  0  0  0
  145.6265  136.3765  151.6663 C   0  0  0  0  0  0  0  0  0  0  0  0
  149.8901  139.1873  156.8351 S   0  0  0  0  0  0  0  0  0  0  0  0
  152.5397  139.5131  159.1249 H   0  0  0  0  0  0  0  0  0  0  0  0
  150.9047  140.1662  159.3233 H   0  0  0  0  0  0  0  0  0  0  0  0
  152.2026  141.2043  158.7112 H   0  0  0  0  0  0  0  0  0  0  0  0
  148.3707  137.4899  152.6563 H   0  0  0  0  0  0  0  0  0  0  0  0
  146.2540  139.5397  152.9730 H   0  0  0  0  0  0  0  0  0  0  0  0
  146.6688  138.8800  151.4186 H   0  0  0  0  0  0  0  0  0  0  0  0
  144.5658  137.9714  152.6456 H   0  0  0  0  0  0  0  0  0  0  0  0
  146.3114  137.3356  154.7507 H   0  0  0  0  0  0  0  0  0  0  0  0
  144.7293  136.6249  154.4990 H   0  0  0  0  0  0  0  0  0  0  0  0
  147.2749  135.2602  154.2321 H   0  0  0  0  0  0  0  0  0  0  0  0
  145.6492  134.6126  154.0039 H   0  0  0  0  0  0  0  0  0  0  0  0
  146.9080  134.1272  150.5914 H   0  0  0  0  0  0  0  0  0  0  0  0
  145.0952  132.4642  151.1248 H   0  0  0  0  0  0  0  0  0  0  0  0
  144.4493  134.0793  150.9248 H   0  0  0  0  0  0  0  0  0  0  0  0
  144.6547  133.4109  152.5413 H   0  0  0  0  0  0  0  0  0  0  0  0
  147.3745  132.0450  151.9417 H   0  0  0  0  0  0  0  0  0  0  0  0
  147.1670  132.9780  153.4201 H   0  0  0  0  0  0  0  0  0  0  0  0
  148.4931  133.3381  152.3155 H   0  0  0  0  0  0  0  0  0  0  0  0
  144.6416  135.9209  151.5511 H   0  0  0  0  0  0  0  0  0  0  0  0
  145.9444  136.7287  150.6851 H   0  0  0  0  0  0  0  0  0  0  0  0
  147.4806  135.7612  152.0979 H   0  0  0  0  0  0  0  0  0  0  0  0
  1  2  1  0  0  0  0
  1 20  1  0  0  0  0
  1 21  1  0  0  0  0
  1 22  1  0  0  0  0
  2 19  1  0  0  0  0
  2  3  2  0  0  0  0
  3  4  1  0  0  0  0
  4  5  2  0  0  0  0
  5  6  1  0  0  0  0
  5 19  1  0  0  0  0
  6  7  1  0  0  0  0
  7  8  2  0  0  0  0
  7  9  1  0  0  0  0
  9 10  1  0  0  0  0
  9 23  1  0  0  0  0
 10 11  1  0  0  0  0
 10 24  1  0  0  0  0
 10 25  1  0  0  0  0
 11 18  1  0  0  0  0
 11 12  1  0  0  0  0
 11 26  1  0  0  0  0
 12 13  1  0  0  0  0
 12 27  1  0  0  0  0
 12 28  1  0  0  0  0
 13 14  1  0  0  0  0
 13 29  1  0  0  0  0
 13 30  1  0  0  0  0
 14 15  1  0  0  0  0
 14 18  1  0  0  0  0
 14 40  1  0  0  0  0
 15 16  1  0  0  0  0
 15 17  1  0  0  0  0
 15 31  1  0  0  0  0
 16 32  1  0  0  0  0
 16 33  1  0  0  0  0
 16 34  1  0  0  0  0
 17 35  1  0  0  0  0
 17 36  1  0  0  0  0
 17 37  1  0  0  0  0
 18 38  1  0  0  0  0
 18 39  1  0  0  0  0
M  CHG  1   6  -1
M  CHG  1  14   1
M  END
> <s_m_source_file>
AV-unprocessed.smi

> <i_m_source_file_index>
1831

> <i_lp_mmshare_version>
43012

> <i_f3d_flags>
0

> <s_epik_input>
W0NIM11jMW5uYyhzMSlbTkhdQyg9TylbTkhdW0NIMl1bQ0BASF0yW0NIMl1bQ0gyXU4oW0NIMl0yKVtDSF0oW0NIM10pW0NIM10=

> <s_epik_cmdline>
J2VwaWtfcHl0aG9uJywgJy1waCcsICc3LjAnLCAnLXRuJywgJzgnLCAnLW1hJywgJzIwMCcsICctbWV0YWxfYmluZGluZycsICctaW1hZScsICc8aW5maWxlLm1hZT4nLCAnLW9tYWUnLCAnPG91dGZpbGUubWFlPic=

> <r_lp_tautomer_probability>
1

> <r_epik_Ionization_Penalty>
4.24531

> <r_epik_Ionization_Penalty_Charging>
4.11954

> <r_epik_Ionization_Penalty_Neutral>
0.125766

> <r_epik_State_Penalty>
4.11879

> <r_epik_Charging_Adjusted_Penalty>
8.23833

> <i_epik_Tot_Q>
0

> <i_epik_Tot_abs_Q>
2

> <r_epik_Metal_State_Penalty>
0.659341

> <b_epik_Metal_Only>
1

> <s_lp_Force_Field>
OPLS_2005

> <r_lp_Energy>
22.0545

> <b_lp_Chiralities_Consistent>
1

> <s_lp_Variant>
AV-unprocessed.smi:1831-5

> <Gold.Version>
5.8.1

> <Gold.Id.Protein>
6NUR|6NUR_protein|mol2

> <Gold.PLP.Fitness>
41.5357

> <Gold.PLP.PLP>
-27.9570

> <Gold.PLP.part.hbond>
-5.0000

> <Gold.PLP.part.metal>
0.0000

> <Gold.PLP.part.buried>
-3.2370

> <Gold.PLP.part.nonpolar>
-21.0718

> <Gold.PLP.part.repulsive>
0.4905

> <Gold.PLP.ligand.clash>
0.0000

> <Gold.PLP.ligand.torsion>
0.7687

> <Gold.PLP.Chemscore.Hbond>
4.9920

> <Gold.PLP.Chemscore.CHOScore>
0.0000

> <Gold.PLP.Chemscore.Metal>
0.0000

> <Gold.Chemscore.Hbonds>
donor molecule, donor type, donor heavy atom, donor atom, acceptor molecule, acceptor atom, score
      L1  H     9    23       P1  7948  1.00
      L1  H    14    40       P1  7948  2.00
      P1  H  7989  7998       L1     4  0.65
      P1  H  7997  8009       L1     3  1.00

> <Gold.PLP.Chemscore.Internal.Correction>
0.1400

> <Gold.Rescore>
     Score         DG    S(hbond)    S(metal)    S(lipo)     H(rot)  DE(clash)    DE(int)     intcor
     17.99     -19.59       3.51        0.00      53.42       1.51       0.73       0.87       ----

> <Gold.Chemscore.Fitness>
17.9887

> <Gold.Chemscore.DG>
-19.5877

> <Gold.Chemscore.ZeroCoef>
-5.4800

> <Gold.Chemscore.Hbond>
3.5123

> <Gold.Chemscore.Metal>
0.0000

> <Gold.Chemscore.Lipo>
53.4194

> <Gold.Chemscore.Internal_Hbond>
0.0000

> <Gold.Chemscore.DEClash>
0.7339

> <Gold.Chemscore.DEInternal>
0.8651

> <Gold.Chemscore.Rot>
1.5131

> <Gold.Chemscore.Internal.Correction>
   9.000000E+99

> <Gold.Chemscore.Hbonds>
donor molecule, donor type, donor heavy atom, donor atom, acceptor molecule, acceptor atom, score
      L1  H     9    23       P1  7948  0.98
      L1  H    14    40       P1  7948  0.94
      P1  H  7989  7998       L1     4  0.15
      P1  H  7997  8009       L1     3  0.78

> <Gold.Chemscore.Hbond.Weighted>
-11.7311

> <Gold.Chemscore.Metal.Weighted>
-0.0000

> <Gold.Chemscore.Lipo.Weighted>
-6.2501

> <Gold.Chemscore.Internal_Hbond.Weighted>
0.0000

> <Gold.Chemscore.DEClash.Weighted>
0.7339

> <Gold.Chemscore.DEInternal.Weighted>
0.8651

> <Gold.Chemscore.Rot.Weighted>
3.8735

> <Gold.Chemscore.Internal.Correction.Weighted>
   9.000000E+99

> <Gold.Protein.RotatedTorsions>
[ 6907 6896 6895 6894 ] final  139.13 input  -60.11 | X-H torsion
[ 7974 7965 7964 7962 ] final   82.29 input  175.53 | X-H torsion
[ 8008 7997 7996 7995 ] final -153.77 input   59.86 | X-H torsion
[ 10167 10162 10161 10158 ] final   -1.88 input  -65.29 | X-H torsion
[ 10718 10713 10712 10709 ] final -166.13 input   66.30 | X-H torsion
[ 10763 10752 10751 10750 ] final  -37.98 input  -60.55 | X-H torsion
[ 11005 11000 10999 10996 ] final  -52.27 input  -57.11 | X-H torsion

> <Gold.Protein.ActiveResidues>
 VAL166  LYS551  ARG553  GLY616  TRP617  ASP618  TYR619  PRO620  LYS621  CYS622 
 ASP623  PHE694  ASN695  SER759  ASP760  ASP761  ALA762  ILE779  LEU786  VAL792 
 PHE793  MET794  SER795  GLU796  ALA797  LYS798  CYS799  TRP800  GLU811  SER814 

> <Gold.Protein.RotatedAtoms>
  152.2586  133.5277  159.5367 H   0  0  0  0  0  0  0  0  0  0  0  0  # atno 6907 bound_to 6896
  150.7117  134.0862  159.3924 H   0  0  0  0  0  0  0  0  0  0  0  0  # atno 6908 bound_to 6896
  151.8780  135.0464  160.0536 H   0  0  0  0  0  0  0  0  0  0  0  0  # atno 6909 bound_to 6896
  145.6269  139.2397  143.2106 H   0  0  0  0  0  0  0  0  0  0  0  0  # atno 7974 bound_to 7965
  155.6760  140.0739  157.2502 H   0  0  0  0  0  0  0  0  0  0  0  0  # atno 8008 bound_to 7997
  154.4114  140.1690  156.1983 H   0  0  0  0  0  0  0  0  0  0  0  0  # atno 8009 bound_to 7997
  155.9575  140.3372  155.6465 H   0  0  0  0  0  0  0  0  0  0  0  0  # atno 8010 bound_to 7997
  140.6828  143.6723  150.8174 H   0  0  0  0  0  0  0  0  0  0  0  0  # atno 10167 bound_to 10162
  156.6634  130.9055  151.3032 H   0  0  0  0  0  0  0  0  0  0  0  0  # atno 10718 bound_to 10713
  153.9053  135.6798  153.4753 H   0  0  0  0  0  0  0  0  0  0  0  0  # atno 10763 bound_to 10752
  153.1107  135.4784  154.9027 H   0  0  0  0  0  0  0  0  0  0  0  0  # atno 10764 bound_to 10752
  154.7554  135.3196  154.8434 H   0  0  0  0  0  0  0  0  0  0  0  0  # atno 10765 bound_to 10752
  141.0915  133.6632  156.4000 H   0  0  0  0  0  0  0  0  0  0  0  0  # atno 11005 bound_to 11000
  146.1387  140.7087  142.9377 LP  0  0  0  0  0  0  0  0  0  0  0  0  # atno 17320 bound_to 7965
  144.7209  140.4368  143.7009 LP  0  0  0  0  0  0  0  0  0  0  0  0  # atno 17321 bound_to 7965
  140.0426  143.5330  152.2711 LP  0  0  0  0  0  0  0  0  0  0  0  0  # atno 17342 bound_to 10162
  139.6163  144.7620  151.2839 LP  0  0  0  0  0  0  0  0  0  0  0  0  # atno 17343 bound_to 10162
  157.7102  130.9431  150.1063 LP  0  0  0  0  0  0  0  0  0  0  0  0  # atno 17370 bound_to 10713
  156.1994  130.3659  149.8808 LP  0  0  0  0  0  0  0  0  0  0  0  0  # atno 17371 bound_to 10713
  140.5240  134.6277  157.5328 LP  0  0  0  0  0  0  0  0  0  0  0  0  # atno 17394 bound_to 11000
  139.9742  134.7242  155.9981 LP  0  0  0  0  0  0  0  0  0  0  0  0  # atno 17395 bound_to 11000

$$$$
