AV-unprocessed.smi:21|AV-procd|sdf|138|dock8
  -GOLD-   2262015343D 1   1.00000     0.00000
 Structure written by MMmdl.
 62 65  0  0  0  0  0  0  0  0  2 V2000
  145.3019  135.8432  150.9941 C   0  0  0  0  0  0  0  0  0  0  0  0
  145.4210  135.7367  152.4041 O   0  0  0  0  0  0  0  0  0  0  0  0
  145.4926  134.3967  152.8744 C   0  0  2  0  0  0  0  0  0  0  0  0
  145.8608  134.4122  154.3522 C   0  0  0  0  0  0  0  0  0  0  0  0
  147.3850  134.5934  154.3598 C   0  0  1  0  0  0  0  0  0  0  0  0
  148.0728  134.0771  155.6484 C   0  0  0  0  0  0  0  0  0  0  0  0
  149.3476  134.7471  155.9121 N   0  0  0  0  0  0  0  0  0  0  0  0
  150.5720  134.1296  155.4190 C   0  0  0  0  0  0  0  0  0  0  0  0
  149.3508  136.0656  156.2502 C   0  0  0  0  0  0  0  0  0  0  0  0
  148.1844  136.6167  156.6780 N   0  0  0  0  0  0  0  0  0  0  0  0
  148.1250  137.9051  157.0244 C   0  0  0  0  0  0  0  0  0  0  0  0
  149.0979  138.8161  157.0126 N   0  0  0  0  0  0  0  0  0  0  0  0
  150.2720  138.2782  156.5765 C   0  0  0  0  0  0  0  0  0  0  0  0
  150.4884  136.9260  156.1805 C   0  0  0  0  0  0  0  0  0  0  0  0
  151.8128  136.7666  155.7845 N   0  0  0  0  0  0  0  0  0  0  0  0
  152.3480  137.9445  155.9510 C   0  0  0  0  0  0  0  0  0  0  0  0
  151.4935  138.9110  156.4265 N   0  0  0  0  0  0  0  0  0  0  0  0
  151.8241  140.2984  156.6985 C   0  0  0  0  0  0  0  0  0  0  0  0
  150.5911  141.1896  157.0027 C   0  0  2  0  0  0  0  0  0  0  0  0
  149.8938  141.6919  155.7124 C   0  0  0  0  0  0  0  0  0  0  0  0
  148.6265  142.2552  155.9828 O   0  0  0  0  0  0  0  0  0  0  0  0
  150.9935  142.3792  157.9131 C   0  0  2  0  0  0  0  0  0  0  0  0
  151.6033  143.5685  157.1884 C   0  0  0  0  0  0  0  0  0  0  0  0
  152.3021  144.3073  158.3216 C   0  0  0  0  0  0  0  0  0  0  0  0
  152.8025  143.2843  159.1712 O   0  0  0  0  0  0  0  0  0  0  0  0
  152.1039  142.0666  158.9275 C   0  0  0  0  0  0  0  0  0  0  0  0
  147.8658  133.9957  153.0796 N   0  3  1  0  0  0  0  0  0  0  0  0
  148.8544  132.8944  153.1589 C   0  0  0  0  0  0  0  0  0  0  0  0
  146.6824  133.6572  152.2545 C   0  0  0  0  0  0  0  0  0  0  0  0
  144.5456  133.8783  152.7134 H   0  0  0  0  0  0  0  0  0  0  0  0
  147.5926  135.6602  154.2656 H   0  0  0  0  0  0  0  0  0  0  0  0
  145.2570  136.8949  150.7115 H   0  0  0  0  0  0  0  0  0  0  0  0
  144.3888  135.3638  150.6394 H   0  0  0  0  0  0  0  0  0  0  0  0
  146.1524  135.3965  150.4792 H   0  0  0  0  0  0  0  0  0  0  0  0
  145.3371  135.1892  154.9104 H   0  0  0  0  0  0  0  0  0  0  0  0
  145.5986  133.4513  154.7974 H   0  0  0  0  0  0  0  0  0  0  0  0
  147.3985  134.1581  156.5009 H   0  0  0  0  0  0  0  0  0  0  0  0
  148.2922  133.0142  155.5454 H   0  0  0  0  0  0  0  0  0  0  0  0
  151.4320  134.4383  156.0143 H   0  0  0  0  0  0  0  0  0  0  0  0
  150.7496  134.3996  154.3777 H   0  0  0  0  0  0  0  0  0  0  0  0
  150.5039  133.0431  155.4775 H   0  0  0  0  0  0  0  0  0  0  0  0
  147.1599  138.2559  157.3594 H   0  0  0  0  0  0  0  0  0  0  0  0
  153.3874  138.1427  155.7329 H   0  0  0  0  0  0  0  0  0  0  0  0
  152.5178  140.3023  157.5390 H   0  0  0  0  0  0  0  0  0  0  0  0
  152.3745  140.6989  155.8464 H   0  0  0  0  0  0  0  0  0  0  0  0
  149.8714  140.5883  157.5608 H   0  0  0  0  0  0  0  0  0  0  0  0
  150.4758  142.4721  155.2240 H   0  0  0  0  0  0  0  0  0  0  0  0
  149.7888  140.8830  154.9887 H   0  0  0  0  0  0  0  0  0  0  0  0
  148.7272  143.1904  156.0756 H   0  0  0  0  0  0  0  0  0  0  0  0
  150.1152  142.7286  158.4587 H   0  0  0  0  0  0  0  0  0  0  0  0
  152.3351  143.2350  156.4513 H   0  0  0  0  0  0  0  0  0  0  0  0
  150.8656  144.1924  156.6829 H   0  0  0  0  0  0  0  0  0  0  0  0
  153.0990  144.9629  157.9699 H   0  0  0  0  0  0  0  0  0  0  0  0
  151.5861  144.9103  158.8818 H   0  0  0  0  0  0  0  0  0  0  0  0
  151.7088  141.6597  159.8586 H   0  0  0  0  0  0  0  0  0  0  0  0
  152.8137  141.3452  158.5209 H   0  0  0  0  0  0  0  0  0  0  0  0
  148.4554  132.0369  153.7022 H   0  0  0  0  0  0  0  0  0  0  0  0
  149.7740  133.2229  153.6428 H   0  0  0  0  0  0  0  0  0  0  0  0
  149.1210  132.5611  152.1553 H   0  0  0  0  0  0  0  0  0  0  0  0
  146.4932  132.5840  152.3156 H   0  0  0  0  0  0  0  0  0  0  0  0
  146.8489  133.8969  151.2046 H   0  0  0  0  0  0  0  0  0  0  0  0
  148.3322  134.7513  152.5977 H   0  0  0  0  0  0  0  0  0  0  0  0
  1  2  1  0  0  0  0
  1 32  1  0  0  0  0
  1 33  1  0  0  0  0
  1 34  1  0  0  0  0
  2  3  1  0  0  0  0
  3 30  1  0  0  0  0
  3 29  1  0  0  0  0
  3  4  1  0  0  0  0
  4  5  1  0  0  0  0
  4 35  1  0  0  0  0
  4 36  1  0  0  0  0
  5 31  1  0  0  0  0
  5  6  1  0  0  0  0
  5 27  1  0  0  0  0
  6  7  1  0  0  0  0
  6 37  1  0  0  0  0
  6 38  1  0  0  0  0
  7  8  1  0  0  0  0
  7  9  1  0  0  0  0
  8 39  1  0  0  0  0
  8 40  1  0  0  0  0
  8 41  1  0  0  0  0
  9 14  1  0  0  0  0
  9 10  2  0  0  0  0
 10 11  1  0  0  0  0
 11 12  2  0  0  0  0
 11 42  1  0  0  0  0
 12 13  1  0  0  0  0
 13 17  1  0  0  0  0
 13 14  2  0  0  0  0
 14 15  1  0  0  0  0
 15 16  2  0  0  0  0
 16 17  1  0  0  0  0
 16 43  1  0  0  0  0
 17 18  1  0  0  0  0
 18 19  1  0  0  0  0
 18 44  1  0  0  0  0
 18 45  1  0  0  0  0
 19 20  1  0  0  0  0
 19 22  1  0  0  0  0
 19 46  1  0  0  0  0
 20 21  1  0  0  0  0
 20 47  1  0  0  0  0
 20 48  1  0  0  0  0
 21 49  1  0  0  0  0
 22 26  1  0  0  0  0
 22 23  1  0  0  0  0
 22 50  1  0  0  0  0
 23 24  1  0  0  0  0
 23 51  1  0  0  0  0
 23 52  1  0  0  0  0
 24 25  1  0  0  0  0
 24 53  1  0  0  0  0
 24 54  1  0  0  0  0
 25 26  1  0  0  0  0
 26 55  1  0  0  0  0
 26 56  1  0  0  0  0
 27 28  1  0  0  0  0
 27 29  1  0  0  0  0
 27 62  1  0  0  0  0
 28 57  1  0  0  0  0
 28 58  1  0  0  0  0
 28 59  1  0  0  0  0
 29 60  1  0  0  0  0
 29 61  1  0  0  0  0
M  CHG  1  27   1
M  END
> <s_m_source_file>
AV-unprocessed.smi

> <i_m_source_file_index>
21

> <i_lp_mmshare_version>
43012

> <i_f3d_flags>
0

> <s_epik_input>
W0NIM11PW0NASF0xW0NIMl1bQ0BIXShOKFtDSDNdKVtDSDJdMSlbQ0gyXU4oW0NIM10pYyhuW2NIXW4yKWMoYzIzKW5bY0hdbjNbQ0gyXVtDQEhdKFtDSDJdW09IXSlbQ0BASF00W0NIMl1bQ0gyXU9bQ0gyXTQ=

> <s_epik_cmdline>
J2VwaWtfcHl0aG9uJywgJy1waCcsICc3LjAnLCAnLXRuJywgJzgnLCAnLW1hJywgJzIwMCcsICctbWV0YWxfYmluZGluZycsICctaW1hZScsICc8aW5maWxlLm1hZT4nLCAnLW9tYWUnLCAnPG91dGZpbGUubWFlPic=

> <r_lp_tautomer_probability>
1

> <r_epik_Ionization_Penalty>
0.0157465

> <r_epik_Ionization_Penalty_Charging>
0.015354

> <r_epik_Ionization_Penalty_Neutral>
0.000392529

> <r_epik_State_Penalty>
0.0120612

> <r_epik_Charging_Adjusted_Penalty>
0.0274152

> <i_epik_Tot_Q>
1

> <i_epik_Tot_abs_Q>
1

> <r_epik_Metal_State_Penalty>
0.0121253

> <b_epik_Metal_Only>
0

> <s_lp_Force_Field>
OPLS_2005

> <r_lp_Energy>
61.8504

> <b_lp_Chiralities_Consistent>
1

> <s_lp_Variant>
AV-unprocessed.smi:21-18

> <Gold.Version>
5.8.1

> <Gold.Id.Protein>
6NUR|6NUR_protein|mol2

> <Gold.PLP.Fitness>
48.9703

> <Gold.PLP.PLP>
-39.3121

> <Gold.PLP.part.hbond>
-2.8633

> <Gold.PLP.part.metal>
0.0000

> <Gold.PLP.part.buried>
-6.7124

> <Gold.PLP.part.nonpolar>
-30.1097

> <Gold.PLP.part.repulsive>
0.1537

> <Gold.PLP.ligand.clash>
0.0000

> <Gold.PLP.ligand.torsion>
1.4273

> <Gold.PLP.Chemscore.Hbond>
4.0000

> <Gold.PLP.Chemscore.CHOScore>
0.0000

> <Gold.PLP.Chemscore.Metal>
0.0000

> <Gold.Chemscore.Hbonds>
donor molecule, donor type, donor heavy atom, donor atom, acceptor molecule, acceptor atom, score
      L1  H    21    49       P1  8028  1.00
      L1  H    27    62       P1  7948  2.00
      P1  H 10752 10763       L1    15  1.00

> <Gold.PLP.Chemscore.Internal.Correction>
0.5128

> <Gold.Rescore>
     Score         DG    S(hbond)    S(metal)    S(lipo)     H(rot)  DE(clash)    DE(int)     intcor
     13.55     -17.72       2.63        0.00      96.96       3.08       0.24       3.93       ----

> <Gold.Chemscore.Fitness>
13.5498

> <Gold.Chemscore.DG>
-17.7221

> <Gold.Chemscore.ZeroCoef>
-5.4800

> <Gold.Chemscore.Hbond>
2.6263

> <Gold.Chemscore.Metal>
0.0000

> <Gold.Chemscore.Lipo>
96.9613

> <Gold.Chemscore.Internal_Hbond>
0.0000

> <Gold.Chemscore.DEClash>
0.2397

> <Gold.Chemscore.DEInternal>
3.9326

> <Gold.Chemscore.Rot>
3.0758

> <Gold.Chemscore.Internal.Correction>
   9.000000E+99

> <Gold.Chemscore.Hbonds>
donor molecule, donor type, donor heavy atom, donor atom, acceptor molecule, acceptor atom, score
      L1  H    21    49       P1  8028  0.97
      L1  H    27    62       P1  7948  0.40
      P1  H 10752 10763       L1    15  0.74

> <Gold.Chemscore.Hbond.Weighted>
-8.7718

> <Gold.Chemscore.Metal.Weighted>
-0.0000

> <Gold.Chemscore.Lipo.Weighted>
-11.3445

> <Gold.Chemscore.Internal_Hbond.Weighted>
0.0000

> <Gold.Chemscore.DEClash.Weighted>
0.2397

> <Gold.Chemscore.DEInternal.Weighted>
3.9326

> <Gold.Chemscore.Rot.Weighted>
7.8741

> <Gold.Chemscore.Internal.Correction.Weighted>
   9.000000E+99

> <Gold.Protein.RotatedTorsions>
[ 6907 6896 6895 6894 ] final  101.77 input  -60.11 | X-H torsion
[ 7974 7965 7964 7962 ] final    1.74 input  175.53 | X-H torsion
[ 8008 7997 7996 7995 ] final  -83.97 input   59.86 | X-H torsion
[ 10167 10162 10161 10158 ] final -130.32 input  -65.29 | X-H torsion
[ 10718 10713 10712 10709 ] final   70.78 input   66.30 | X-H torsion
[ 10763 10752 10751 10750 ] final   88.11 input  -60.55 | X-H torsion
[ 11005 11000 10999 10996 ] final -179.67 input  -57.11 | X-H torsion

> <Gold.Protein.ActiveResidues>
 VAL166  LYS551  ARG553  GLY616  TRP617  ASP618  TYR619  PRO620  LYS621  CYS622 
 ASP623  PHE694  ASN695  SER759  ASP760  ASP761  ALA762  ILE779  LEU786  VAL792 
 PHE793  MET794  SER795  GLU796  ALA797  LYS798  CYS799  TRP800  GLU811  SER814 

> <Gold.Protein.RotatedAtoms>
  152.5341  134.0075  159.7922 H   0  0  0  0  0  0  0  0  0  0  0  0  # atno 6907 bound_to 6896
  151.0283  133.5805  159.2670 H   0  0  0  0  0  0  0  0  0  0  0  0  # atno 6908 bound_to 6896
  151.2819  135.0723  159.9226 H   0  0  0  0  0  0  0  0  0  0  0  0  # atno 6909 bound_to 6896
  146.2441  140.0941  142.8350 H   0  0  0  0  0  0  0  0  0  0  0  0  # atno 7974 bound_to 7965
  154.6248  140.0611  156.9659 H   0  0  0  0  0  0  0  0  0  0  0  0  # atno 8008 bound_to 7997
  155.1760  140.3295  155.4365 H   0  0  0  0  0  0  0  0  0  0  0  0  # atno 8009 bound_to 7997
  156.2451  140.1906  156.6859 H   0  0  0  0  0  0  0  0  0  0  0  0  # atno 8010 bound_to 7997
  139.9305  143.6277  152.2531 H   0  0  0  0  0  0  0  0  0  0  0  0  # atno 10167 bound_to 10162
  157.6417  130.9494  150.0697 H   0  0  0  0  0  0  0  0  0  0  0  0  # atno 10718 bound_to 10713
  153.1736  135.4519  154.9935 H   0  0  0  0  0  0  0  0  0  0  0  0  # atno 10763 bound_to 10752
  154.7982  135.3246  154.7617 H   0  0  0  0  0  0  0  0  0  0  0  0  # atno 10764 bound_to 10752
  153.8090  135.6956  153.4898 H   0  0  0  0  0  0  0  0  0  0  0  0  # atno 10765 bound_to 10752
  140.4160  134.6649  157.4639 H   0  0  0  0  0  0  0  0  0  0  0  0  # atno 11005 bound_to 11000
  145.0625  140.9098  143.4930 LP  0  0  0  0  0  0  0  0  0  0  0  0  # atno 17320 bound_to 7965
  145.1059  139.2790  143.5662 LP  0  0  0  0  0  0  0  0  0  0  0  0  # atno 17321 bound_to 7965
  139.6786  144.7657  151.1650 LP  0  0  0  0  0  0  0  0  0  0  0  0  # atno 17342 bound_to 10162
  140.7638  143.5758  150.8947 LP  0  0  0  0  0  0  0  0  0  0  0  0  # atno 17343 bound_to 10162
  156.1705  130.3646  149.9172 LP  0  0  0  0  0  0  0  0  0  0  0  0  # atno 17370 bound_to 10713
  156.7148  130.8984  151.3613 LP  0  0  0  0  0  0  0  0  0  0  0  0  # atno 17371 bound_to 10713
  140.0234  134.6514  155.9208 LP  0  0  0  0  0  0  0  0  0  0  0  0  # atno 17394 bound_to 11000
  141.1803  133.6545  156.4991 LP  0  0  0  0  0  0  0  0  0  0  0  0  # atno 17395 bound_to 11000

$$$$
