AV-unprocessed.smi:2755|AV-procd|sdf|10617|dock9
  -GOLD-   2272015 63D 1   1.00000     0.00000
 Structure written by MMmdl.
 32 32  0  0  0  0  0  0  0  0  1 V2000
  151.0844  130.4001  155.2998 C   0  0  0  0  0  0  0  0  0  0  0  0
  150.6739  131.8766  155.3138 C   0  0  0  0  0  0  0  0  0  0  0  0
  149.4821  132.1672  154.3904 C   0  0  0  0  0  0  0  0  0  0  0  0
  149.5031  133.5984  153.8351 C   0  0  0  0  0  0  0  0  0  0  0  0
  149.3868  134.6596  154.9372 C   0  0  0  0  0  0  0  0  0  0  0  0
  149.9017  135.9367  154.4660 N   0  0  0  0  0  0  0  0  0  0  0  0
  150.9512  136.5850  154.9968 C   0  0  0  0  0  0  0  0  0  0  0  0
  151.5954  136.1395  155.9458 O   0  0  0  0  0  0  0  0  0  0  0  0
  151.3567  137.9387  154.3886 C   0  0  0  0  0  0  0  0  0  0  0  0
  150.4633  139.0550  154.7139 N   0  0  0  0  0  0  0  0  0  0  0  0
  151.0475  140.2458  155.0744 N   0  0  0  0  0  0  0  0  0  0  0  0
  150.0998  141.0837  155.3076 C   0  0  0  0  0  0  0  0  0  0  0  0
  150.2512  142.3983  155.6979 N   0  0  0  0  0  0  0  0  0  0  0  0
  148.4116  140.5574  155.1274 S   0  0  0  0  0  0  0  0  0  0  0  0
  149.0671  138.9720  154.6714 C   0  0  0  0  0  0  0  0  0  0  0  0
  148.3648  138.0083  154.3713 O   0  0  0  0  0  0  0  0  0  0  0  0
  151.9320  130.2266  155.9631 H   0  0  0  0  0  0  0  0  0  0  0  0
  151.3750  130.0817  154.2982 H   0  0  0  0  0  0  0  0  0  0  0  0
  150.2662  129.7605  155.6315 H   0  0  0  0  0  0  0  0  0  0  0  0
  150.4264  132.1703  156.3345 H   0  0  0  0  0  0  0  0  0  0  0  0
  151.5262  132.4879  155.0150 H   0  0  0  0  0  0  0  0  0  0  0  0
  149.4841  131.4570  153.5625 H   0  0  0  0  0  0  0  0  0  0  0  0
  148.5515  132.0036  154.9355 H   0  0  0  0  0  0  0  0  0  0  0  0
  150.4257  133.7556  153.2748 H   0  0  0  0  0  0  0  0  0  0  0  0
  148.6845  133.7231  153.1247 H   0  0  0  0  0  0  0  0  0  0  0  0
  148.3437  134.7729  155.2375 H   0  0  0  0  0  0  0  0  0  0  0  0
  149.9477  134.3509  155.8206 H   0  0  0  0  0  0  0  0  0  0  0  0
  149.4251  136.3642  153.6851 H   0  0  0  0  0  0  0  0  0  0  0  0
  152.3673  138.1781  154.7232 H   0  0  0  0  0  0  0  0  0  0  0  0
  151.4200  137.8227  153.3053 H   0  0  0  0  0  0  0  0  0  0  0  0
  151.1503  142.8357  155.8405 H   0  0  0  0  0  0  0  0  0  0  0  0
  149.4761  143.0200  155.8781 H   0  0  0  0  0  0  0  0  0  0  0  0
  1  2  1  0  0  0  0
  1 17  1  0  0  0  0
  1 18  1  0  0  0  0
  1 19  1  0  0  0  0
  2  3  1  0  0  0  0
  2 20  1  0  0  0  0
  2 21  1  0  0  0  0
  3  4  1  0  0  0  0
  3 22  1  0  0  0  0
  3 23  1  0  0  0  0
  4  5  1  0  0  0  0
  4 24  1  0  0  0  0
  4 25  1  0  0  0  0
  5  6  1  0  0  0  0
  5 26  1  0  0  0  0
  5 27  1  0  0  0  0
  6  7  1  0  0  0  0
  6 28  1  0  0  0  0
  7  8  2  0  0  0  0
  7  9  1  0  0  0  0
  9 10  1  0  0  0  0
  9 29  1  0  0  0  0
  9 30  1  0  0  0  0
 10 15  1  0  0  0  0
 10 11  1  0  0  0  0
 11 12  2  0  0  0  0
 12 13  1  0  0  0  0
 12 14  1  0  0  0  0
 13 31  1  0  0  0  0
 13 32  1  0  0  0  0
 14 15  1  0  0  0  0
 15 16  2  0  0  0  0
M  END
> <s_m_source_file>
AV-unprocessed.smi

> <i_m_source_file_index>
2755

> <i_lp_mmshare_version>
43012

> <i_f3d_flags>
0

> <s_epik_input>
W0NIM11bQ0gyXVtDSDJdW0NIMl1bQ0gyXVtOSF1DKD1PKVtDSDJdbjFuYyhbTkgyXSlzYzE9Tw==

> <s_epik_cmdline>
J2VwaWtfcHl0aG9uJywgJy1waCcsICc3LjAnLCAnLXRuJywgJzgnLCAnLW1hJywgJzIwMCcsICctbWV0YWxfYmluZGluZycsICctaW1hZScsICc8aW5maWxlLm1hZT4nLCAnLW9tYWUnLCAnPG91dGZpbGUubWFlPic=

> <r_lp_tautomer_probability>
1

> <r_epik_Ionization_Penalty>
4.62415e-07

> <r_epik_Ionization_Penalty_Charging>
1.84682e-08

> <r_epik_Ionization_Penalty_Neutral>
4.43947e-07

> <r_epik_State_Penalty>
-0

> <r_epik_Charging_Adjusted_Penalty>
1.84682e-08

> <i_epik_Tot_Q>
0

> <i_epik_Tot_abs_Q>
0

> <r_epik_Metal_State_Penalty>
-0

> <b_epik_Metal_Only>
0

> <s_lp_Force_Field>
OPLS_2005

> <r_lp_Energy>
7.41943

> <b_lp_Chiralities_Consistent>
1

> <s_lp_Variant>
AV-unprocessed.smi:2755-1

> <Gold.Version>
5.8.1

> <Gold.Id.Protein>
6NUR|6NUR_protein|mol2

> <Gold.PLP.Fitness>
38.9329

> <Gold.PLP.PLP>
-28.8449

> <Gold.PLP.part.hbond>
-4.3707

> <Gold.PLP.part.metal>
0.0000

> <Gold.PLP.part.buried>
-1.8301

> <Gold.PLP.part.nonpolar>
-22.2864

> <Gold.PLP.part.repulsive>
0.5078

> <Gold.PLP.ligand.clash>
0.0000

> <Gold.PLP.ligand.torsion>
0.6559

> <Gold.PLP.Chemscore.Hbond>
3.7920

> <Gold.PLP.Chemscore.CHOScore>
0.0000

> <Gold.PLP.Chemscore.Metal>
0.0000

> <Gold.Chemscore.Hbonds>
donor molecule, donor type, donor heavy atom, donor atom, acceptor molecule, acceptor atom, score
      L1  H     6    28       P1  7948  0.91
      L1  H    13    32       P1  8028  0.86
      P1  H  7989  7998       L1    11  1.00
      P1  H 10752 10763       L1     8  1.00

> <Gold.PLP.Chemscore.Internal.Correction>
0.0238

> <Gold.Rescore>
     Score         DG    S(hbond)    S(metal)    S(lipo)     H(rot)  DE(clash)    DE(int)     intcor
     11.01     -13.18       3.02        0.00      40.88       2.81       0.07       2.10       ----

> <Gold.Chemscore.Fitness>
11.0085

> <Gold.Chemscore.DG>
-13.1784

> <Gold.Chemscore.ZeroCoef>
-5.4800

> <Gold.Chemscore.Hbond>
3.0241

> <Gold.Chemscore.Metal>
0.0000

> <Gold.Chemscore.Lipo>
40.8844

> <Gold.Chemscore.Internal_Hbond>
0.0000

> <Gold.Chemscore.DEClash>
0.0729

> <Gold.Chemscore.DEInternal>
2.0970

> <Gold.Chemscore.Rot>
2.8069

> <Gold.Chemscore.Internal.Correction>
   9.000000E+99

> <Gold.Chemscore.Hbonds>
donor molecule, donor type, donor heavy atom, donor atom, acceptor molecule, acceptor atom, score
      L1  H     6    28       P1  7948  0.69
      L1  H    13    32       P1  8028  0.87
      P1  H  7989  7998       L1    11  0.10
      P1  H 10752 10763       L1     8  0.30

> <Gold.Chemscore.Hbond.Weighted>
-10.1006

> <Gold.Chemscore.Metal.Weighted>
-0.0000

> <Gold.Chemscore.Lipo.Weighted>
-4.7835

> <Gold.Chemscore.Internal_Hbond.Weighted>
0.0000

> <Gold.Chemscore.DEClash.Weighted>
0.0729

> <Gold.Chemscore.DEInternal.Weighted>
2.0970

> <Gold.Chemscore.Rot.Weighted>
7.1856

> <Gold.Chemscore.Internal.Correction.Weighted>
   9.000000E+99

> <Gold.Protein.RotatedTorsions>
[ 6907 6896 6895 6894 ] final   78.51 input  -60.11 | X-H torsion
[ 7974 7965 7964 7962 ] final -107.39 input  175.53 | X-H torsion
[ 8008 7997 7996 7995 ] final -116.87 input   59.86 | X-H torsion
[ 10167 10162 10161 10158 ] final   12.99 input  -65.29 | X-H torsion
[ 10718 10713 10712 10709 ] final   54.60 input   66.30 | X-H torsion
[ 10763 10752 10751 10750 ] final   90.85 input  -60.55 | X-H torsion
[ 11005 11000 10999 10996 ] final   10.53 input  -57.11 | X-H torsion

> <Gold.Protein.ActiveResidues>
 VAL166  LYS551  ARG553  GLY616  TRP617  ASP618  TYR619  PRO620  LYS621  CYS622 
 ASP623  PHE694  ASN695  SER759  ASP760  ASP761  ALA762  ILE779  LEU786  VAL792 
 PHE793  MET794  SER795  GLU796  ALA797  LYS798  CYS799  TRP800  GLU811  SER814 

> <Gold.Protein.RotatedAtoms>
  152.5162  134.3652  159.9298 H   0  0  0  0  0  0  0  0  0  0  0  0  # atno 6907 bound_to 6896
  151.3605  133.3885  159.2697 H   0  0  0  0  0  0  0  0  0  0  0  0  # atno 6908 bound_to 6896
  150.9655  134.9056  159.7815 H   0  0  0  0  0  0  0  0  0  0  0  0  # atno 6909 bound_to 6896
  145.2059  140.9076  143.3342 H   0  0  0  0  0  0  0  0  0  0  0  0  # atno 7974 bound_to 7965
  155.0746  140.0394  157.2620 H   0  0  0  0  0  0  0  0  0  0  0  0  # atno 8008 bound_to 7997
  154.6955  140.2662  155.6746 H   0  0  0  0  0  0  0  0  0  0  0  0  # atno 8009 bound_to 7997
  156.2743  140.2751  156.1548 H   0  0  0  0  0  0  0  0  0  0  0  0  # atno 8010 bound_to 7997
  140.6032  143.8562  150.6986 H   0  0  0  0  0  0  0  0  0  0  0  0  # atno 10167 bound_to 10162
  157.5271  130.8605  149.8637 H   0  0  0  0  0  0  0  0  0  0  0  0  # atno 10718 bound_to 10713
  153.2019  135.4419  155.0277 H   0  0  0  0  0  0  0  0  0  0  0  0  # atno 10763 bound_to 10752
  154.8152  135.3312  154.7199 H   0  0  0  0  0  0  0  0  0  0  0  0  # atno 10764 bound_to 10752
  153.7643  135.6989  153.4974 H   0  0  0  0  0  0  0  0  0  0  0  0  # atno 10765 bound_to 10752
  140.5134  134.0629  155.7824 H   0  0  0  0  0  0  0  0  0  0  0  0  # atno 11005 bound_to 11000
  144.9902  139.3696  143.6218 LP  0  0  0  0  0  0  0  0  0  0  0  0  # atno 17320 bound_to 7965
  146.3408  139.9082  142.8784 LP  0  0  0  0  0  0  0  0  0  0  0  0  # atno 17321 bound_to 7965
  140.2112  143.3882  152.1716 LP  0  0  0  0  0  0  0  0  0  0  0  0  # atno 17342 bound_to 10162
  139.5306  144.7154  151.5070 LP  0  0  0  0  0  0  0  0  0  0  0  0  # atno 17343 bound_to 10162
  156.0395  130.3742  150.1472 LP  0  0  0  0  0  0  0  0  0  0  0  0  # atno 17370 bound_to 10713
  156.9658  130.9819  151.3469 LP  0  0  0  0  0  0  0  0  0  0  0  0  # atno 17371 bound_to 10713
  141.1373  133.9199  157.2405 LP  0  0  0  0  0  0  0  0  0  0  0  0  # atno 17394 bound_to 11000
  139.9646  135.0145  156.9352 LP  0  0  0  0  0  0  0  0  0  0  0  0  # atno 17395 bound_to 11000

$$$$
