AV-unprocessed.smi:2574|AV-procd|sdf|10114|dock1
  -GOLD-   2272014133D 1   1.00000     0.00000
 Structure written by MMmdl.
 38 40  0  0  0  0  0  0  0  0  1 V2000
  153.0223  139.1636  158.8425 O   0  0  0  0  0  0  0  0  0  0  0  0
  152.8660  140.3305  159.2034 C   0  0  0  0  0  0  0  0  0  0  0  0
  153.7213  140.9911  160.2012 C   0  0  0  0  0  0  0  0  0  0  0  0
  154.8583  140.1808  160.8183 C   0  0  0  0  0  0  0  0  0  0  0  0
  155.0944  140.5433  162.0801 F   0  0  0  0  0  0  0  0  0  0  0  0
  154.5642  138.8801  160.8170 F   0  0  0  0  0  0  0  0  0  0  0  0
  155.9845  140.3545  160.1260 F   0  0  0  0  0  0  0  0  0  0  0  0
  153.4857  142.2787  160.5529 C   0  0  0  0  0  0  0  0  0  0  0  0
  152.3919  143.0135  159.9501 C   0  0  0  0  0  0  0  0  0  0  0  0
  152.0679  144.4379  160.2995 C   0  0  0  0  0  0  0  0  0  0  0  0
  150.7747  145.0976  159.8777 C   0  0  0  0  0  0  0  0  0  0  0  0
  152.0826  145.5324  159.2580 C   0  0  0  0  0  0  0  0  0  0  0  0
  151.6469  142.4339  159.0705 N   0  0  0  0  0  0  0  0  0  0  0  0
  151.8724  141.1216  158.7018 N   0  0  0  0  0  0  0  0  0  0  0  0
  150.9178  140.6113  157.7093 C   0  0  0  0  0  0  0  0  0  0  0  0
  150.8930  141.4772  156.4309 C   0  0  2  0  0  0  0  0  0  0  0  0
  150.5845  142.8121  156.7823 O   0  0  0  0  0  0  0  0  0  0  0  0
  149.8952  140.9274  155.4223 C   0  0  0  0  0  0  0  0  0  0  0  0
  149.9996  139.5881  154.9887 C   0  0  0  0  0  0  0  0  0  0  0  0
  149.0739  139.0664  154.0642 C   0  0  0  0  0  0  0  0  0  0  0  0
  148.0372  139.8804  153.5690 C   0  0  0  0  0  0  0  0  0  0  0  0
  147.9252  141.2160  154.0005 C   0  0  0  0  0  0  0  0  0  0  0  0
  148.8502  141.7379  154.9256 C   0  0  0  0  0  0  0  0  0  0  0  0
  154.1027  142.7804  161.2832 H   0  0  0  0  0  0  0  0  0  0  0  0
  152.4491  144.6885  161.2877 H   0  0  0  0  0  0  0  0  0  0  0  0
  150.0885  144.5364  159.2461 H   0  0  0  0  0  0  0  0  0  0  0  0
  150.3047  145.7763  160.5864 H   0  0  0  0  0  0  0  0  0  0  0  0
  152.4811  146.5010  159.5528 H   0  0  0  0  0  0  0  0  0  0  0  0
  152.2636  145.2498  158.2224 H   0  0  0  0  0  0  0  0  0  0  0  0
  151.2397  139.6018  157.4453 H   0  0  0  0  0  0  0  0  0  0  0  0
  149.9135  140.4828  158.1172 H   0  0  0  0  0  0  0  0  0  0  0  0
  151.8799  141.4795  155.9662 H   0  0  0  0  0  0  0  0  0  0  0  0
  150.0227  143.1755  156.1151 H   0  0  0  0  0  0  0  0  0  0  0  0
  150.7889  138.9539  155.3652 H   0  0  0  0  0  0  0  0  0  0  0  0
  149.1584  138.0409  153.7363 H   0  0  0  0  0  0  0  0  0  0  0  0
  147.3268  139.4798  152.8611 H   0  0  0  0  0  0  0  0  0  0  0  0
  147.1284  141.8397  153.6232 H   0  0  0  0  0  0  0  0  0  0  0  0
  148.7531  142.7624  155.2550 H   0  0  0  0  0  0  0  0  0  0  0  0
  1  2  2  0  0  0  0
  2 14  1  0  0  0  0
  2  3  1  0  0  0  0
  3  4  1  0  0  0  0
  3  8  2  0  0  0  0
  4  5  1  0  0  0  0
  4  6  1  0  0  0  0
  4  7  1  0  0  0  0
  8  9  1  0  0  0  0
  8 24  1  0  0  0  0
  9 10  1  0  0  0  0
  9 13  2  0  0  0  0
 10 12  1  0  0  0  0
 10 11  1  0  0  0  0
 10 25  1  0  0  0  0
 11 12  1  0  0  0  0
 11 26  1  0  0  0  0
 11 27  1  0  0  0  0
 12 28  1  0  0  0  0
 12 29  1  0  0  0  0
 13 14  1  0  0  0  0
 14 15  1  0  0  0  0
 15 16  1  0  0  0  0
 15 30  1  0  0  0  0
 15 31  1  0  0  0  0
 16 17  1  0  0  0  0
 16 18  1  0  0  0  0
 16 32  1  0  0  0  0
 17 33  1  0  0  0  0
 18 23  1  0  0  0  0
 18 19  2  0  0  0  0
 19 20  1  0  0  0  0
 19 34  1  0  0  0  0
 20 21  2  0  0  0  0
 20 35  1  0  0  0  0
 21 22  1  0  0  0  0
 21 36  1  0  0  0  0
 22 23  2  0  0  0  0
 22 37  1  0  0  0  0
 23 38  1  0  0  0  0
M  END
> <s_m_source_file>
AV-unprocessed.smi

> <i_m_source_file_index>
2574

> <i_lp_mmshare_version>
43012

> <i_f3d_flags>
0

> <s_epik_input>
Tz1jMWMoQyhGKShGKUYpW2NIXWMoW0NIXTJbQ0gyXVtDSDJdMilubjFbQ0gyXVtDQEhdKFtPSF0pYzNbY0hdW2NIXVtjSF1bY0hdW2NIXTM=

> <s_epik_cmdline>
J2VwaWtfcHl0aG9uJywgJy1waCcsICc3LjAnLCAnLXRuJywgJzgnLCAnLW1hJywgJzIwMCcsICctbWV0YWxfYmluZGluZycsICctaW1hZScsICc8aW5maWxlLm1hZT4nLCAnLW9tYWUnLCAnPG91dGZpbGUubWFlPic=

> <r_lp_tautomer_probability>
1

> <r_epik_Ionization_Penalty>
7.26807e-08

> <r_epik_Ionization_Penalty_Charging>
9.677e-10

> <r_epik_Ionization_Penalty_Neutral>
7.1713e-08

> <r_epik_State_Penalty>
-0

> <r_epik_Charging_Adjusted_Penalty>
9.677e-10

> <i_epik_Tot_Q>
0

> <i_epik_Tot_abs_Q>
0

> <r_epik_Metal_State_Penalty>
-0

> <b_epik_Metal_Only>
0

> <s_lp_Force_Field>
OPLS_2005

> <r_lp_Energy>
33.7887

> <b_lp_Chiralities_Consistent>
1

> <s_lp_Variant>
AV-unprocessed.smi:2574-1

> <Gold.Version>
5.8.1

> <Gold.Id.Protein>
6NUR|6NUR_protein|mol2

> <Gold.PLP.Fitness>
53.8786

> <Gold.PLP.PLP>
-53.2469

> <Gold.PLP.part.hbond>
-1.0000

> <Gold.PLP.part.metal>
0.0000

> <Gold.PLP.part.buried>
-2.0173

> <Gold.PLP.part.nonpolar>
-49.3394

> <Gold.PLP.part.repulsive>
0.0000

> <Gold.PLP.ligand.clash>
0.0000

> <Gold.PLP.ligand.torsion>
1.2850

> <Gold.PLP.Chemscore.Hbond>
0.8320

> <Gold.PLP.Chemscore.CHOScore>
0.0000

> <Gold.PLP.Chemscore.Metal>
0.0000

> <Gold.Chemscore.Hbonds>
donor molecule, donor type, donor heavy atom, donor atom, acceptor molecule, acceptor atom, score
      L1  H    17    33       P1  8028  0.88

> <Gold.PLP.Chemscore.Internal.Correction>
0.7056

> <Gold.Rescore>
     Score         DG    S(hbond)    S(metal)    S(lipo)     H(rot)  DE(clash)    DE(int)     intcor
     15.30     -17.68       0.93        0.00     123.49       2.09       0.17       2.20       ----

> <Gold.Chemscore.Fitness>
15.3046

> <Gold.Chemscore.DG>
-17.6806

> <Gold.Chemscore.ZeroCoef>
-5.4800

> <Gold.Chemscore.Hbond>
0.9294

> <Gold.Chemscore.Metal>
0.0000

> <Gold.Chemscore.Lipo>
123.4920

> <Gold.Chemscore.Internal_Hbond>
0.0000

> <Gold.Chemscore.DEClash>
0.1714

> <Gold.Chemscore.DEInternal>
2.2046

> <Gold.Chemscore.Rot>
2.0906

> <Gold.Chemscore.Internal.Correction>
   9.000000E+99

> <Gold.Chemscore.Hbonds>
donor molecule, donor type, donor heavy atom, donor atom, acceptor molecule, acceptor atom, score
      L1  H    17    33       P1  8028  0.85

> <Gold.Chemscore.Hbond.Weighted>
-3.1041

> <Gold.Chemscore.Metal.Weighted>
-0.0000

> <Gold.Chemscore.Lipo.Weighted>
-14.4486

> <Gold.Chemscore.Internal_Hbond.Weighted>
0.0000

> <Gold.Chemscore.DEClash.Weighted>
0.1714

> <Gold.Chemscore.DEInternal.Weighted>
2.2046

> <Gold.Chemscore.Rot.Weighted>
5.3520

> <Gold.Chemscore.Internal.Correction.Weighted>
   9.000000E+99

> <Gold.Protein.RotatedTorsions>
[ 6907 6896 6895 6894 ] final  170.23 input  -60.11 | X-H torsion
[ 7974 7965 7964 7962 ] final  -17.88 input  175.53 | X-H torsion
[ 8008 7997 7996 7995 ] final  -87.16 input   59.86 | X-H torsion
[ 10167 10162 10161 10158 ] final  121.89 input  -65.29 | X-H torsion
[ 10718 10713 10712 10709 ] final  146.06 input   66.30 | X-H torsion
[ 10763 10752 10751 10750 ] final    6.42 input  -60.55 | X-H torsion
[ 11005 11000 10999 10996 ] final  -27.90 input  -57.11 | X-H torsion

> <Gold.Protein.ActiveResidues>
 VAL166  LYS551  ARG553  GLY616  TRP617  ASP618  TYR619  PRO620  LYS621  CYS622 
 ASP623  PHE694  ASN695  SER759  ASP760  ASP761  ALA762  ILE779  LEU786  VAL792 
 PHE793  MET794  SER795  GLU796  ALA797  LYS798  CYS799  TRP800  GLU811  SER814 

> <Gold.Protein.RotatedAtoms>
  151.8193  133.3392  159.3579 H   0  0  0  0  0  0  0  0  0  0  0  0  # atno 6907 bound_to 6896
  150.7300  134.5589  159.5841 H   0  0  0  0  0  0  0  0  0  0  0  0  # atno 6908 bound_to 6896
  152.3017  134.7604  160.0407 H   0  0  0  0  0  0  0  0  0  0  0  0  # atno 6909 bound_to 6896
  146.1919  140.3842  142.8455 H   0  0  0  0  0  0  0  0  0  0  0  0  # atno 7974 bound_to 7965
  154.6601  140.0569  157.0053 H   0  0  0  0  0  0  0  0  0  0  0  0  # atno 8008 bound_to 7997
  155.1241  140.3250  155.4471 H   0  0  0  0  0  0  0  0  0  0  0  0  # atno 8009 bound_to 7997
  156.2614  140.1992  156.6362 H   0  0  0  0  0  0  0  0  0  0  0  0  # atno 8010 bound_to 7997
  139.5892  144.7018  151.3333 H   0  0  0  0  0  0  0  0  0  0  0  0  # atno 10167 bound_to 10162
  157.3377  131.0931  151.1109 H   0  0  0  0  0  0  0  0  0  0  0  0  # atno 10718 bound_to 10713
  153.2480  135.6910  153.7710 H   0  0  0  0  0  0  0  0  0  0  0  0  # atno 10763 bound_to 10752
  153.6815  135.3327  155.3180 H   0  0  0  0  0  0  0  0  0  0  0  0  # atno 10764 bound_to 10752
  154.8382  135.4524  154.1426 H   0  0  0  0  0  0  0  0  0  0  0  0  # atno 10765 bound_to 10752
  140.9161  133.7429  156.0736 H   0  0  0  0  0  0  0  0  0  0  0  0  # atno 11005 bound_to 11000
  144.8504  140.6993  143.6172 LP  0  0  0  0  0  0  0  0  0  0  0  0  # atno 17320 bound_to 7965
  145.3764  139.1646  143.4304 LP  0  0  0  0  0  0  0  0  0  0  0  0  # atno 17321 bound_to 7965
  140.7158  143.7270  150.7652 LP  0  0  0  0  0  0  0  0  0  0  0  0  # atno 17342 bound_to 10162
  140.0822  143.4958  152.2524 LP  0  0  0  0  0  0  0  0  0  0  0  0  # atno 17343 bound_to 10162
  157.2332  130.6535  149.5858 LP  0  0  0  0  0  0  0  0  0  0  0  0  # atno 17370 bound_to 10713
  155.9703  130.4592  150.6027 LP  0  0  0  0  0  0  0  0  0  0  0  0  # atno 17371 bound_to 10713
  140.8048  134.3467  157.5429 LP  0  0  0  0  0  0  0  0  0  0  0  0  # atno 17394 bound_to 11000
  139.8766  134.9219  156.3288 LP  0  0  0  0  0  0  0  0  0  0  0  0  # atno 17395 bound_to 11000

$$$$
