AV-unprocessed.smi:928|AV-procd|sdf|4192|dock5
  -GOLD-   22720 2 93D 1   1.00000     0.00000
 Structure written by MMmdl.
 43 44  0  0  0  0  0  0  0  0  1 V2000
  149.2031  140.5168  154.3739 C   0  0  0  0  0  0  0  0  0  0  0  0
  149.6751  139.7224  155.5978 C   0  0  0  0  0  0  0  0  0  0  0  0
  150.1510  138.3512  155.2505 C   0  0  0  0  0  0  0  0  0  0  0  0
  151.1609  138.0065  154.3861 C   0  0  0  0  0  0  0  0  0  0  0  0
  151.4065  136.6330  154.3225 N   0  0  0  0  0  0  0  0  0  0  0  0
  150.5979  135.9339  155.1220 C   0  0  0  0  0  0  0  0  0  0  0  0
  150.7314  134.4613  155.3461 C   0  0  0  0  0  0  0  0  0  0  0  0
  149.4413  133.6648  155.0533 C   0  0  0  0  0  0  0  0  0  0  0  0
  148.7525  134.1359  153.8525 N   0  0  0  0  0  0  0  0  0  0  0  0
  147.7347  133.5053  153.2477 C   0  0  0  0  0  0  0  0  0  0  0  0
  147.3218  132.3910  153.5691 O   0  0  0  0  0  0  0  0  0  0  0  0
  147.1807  134.2605  152.2899 N   0  0  0  0  0  0  0  0  0  0  0  0
  145.9566  133.9254  151.5660 C   0  0  1  0  0  0  0  0  0  0  0  0
  146.0264  132.4850  151.0249 C   0  0  0  0  0  0  0  0  0  0  0  0
  144.7571  132.1337  150.2326 C   0  0  0  0  0  0  0  0  0  0  0  0
  143.4939  132.3381  151.0844 C   0  0  0  0  0  0  0  0  0  0  0  0
  143.4184  133.7686  151.6502 C   0  0  0  0  0  0  0  0  0  0  0  0
  144.6918  134.1583  152.4267 C   0  0  1  0  0  0  0  0  0  0  0  0
  144.7531  133.4070  153.6249 O   0  0  0  0  0  0  0  0  0  0  0  0
  149.4339  136.9391  155.9802 S   0  0  0  0  0  0  0  0  0  0  0  0
  148.8519  141.5069  154.6644 H   0  0  0  0  0  0  0  0  0  0  0  0
  148.3832  140.0070  153.8670 H   0  0  0  0  0  0  0  0  0  0  0  0
  150.0100  140.6486  153.6524 H   0  0  0  0  0  0  0  0  0  0  0  0
  150.4760  140.2683  156.0973 H   0  0  0  0  0  0  0  0  0  0  0  0
  148.8598  139.6542  156.3187 H   0  0  0  0  0  0  0  0  0  0  0  0
  151.7729  138.6739  153.7977 H   0  0  0  0  0  0  0  0  0  0  0  0
  151.5401  134.0925  154.7144 H   0  0  0  0  0  0  0  0  0  0  0  0
  151.0453  134.2906  156.3763 H   0  0  0  0  0  0  0  0  0  0  0  0
  149.6849  132.6111  154.9175 H   0  0  0  0  0  0  0  0  0  0  0  0
  148.7739  133.7116  155.9157 H   0  0  0  0  0  0  0  0  0  0  0  0
  149.0169  135.0469  153.5070 H   0  0  0  0  0  0  0  0  0  0  0  0
  147.5895  135.1630  152.0972 H   0  0  0  0  0  0  0  0  0  0  0  0
  145.8941  134.5848  150.6975 H   0  0  0  0  0  0  0  0  0  0  0  0
  146.9006  132.3694  150.3830 H   0  0  0  0  0  0  0  0  0  0  0  0
  146.1520  131.7793  151.8473 H   0  0  0  0  0  0  0  0  0  0  0  0
  144.7008  132.7572  149.3392 H   0  0  0  0  0  0  0  0  0  0  0  0
  144.8090  131.1012  149.8862 H   0  0  0  0  0  0  0  0  0  0  0  0
  142.6061  132.1299  150.4867 H   0  0  0  0  0  0  0  0  0  0  0  0
  143.4867  131.6181  151.9036 H   0  0  0  0  0  0  0  0  0  0  0  0
  143.2788  134.4678  150.8247 H   0  0  0  0  0  0  0  0  0  0  0  0
  142.5398  133.8738  152.2879 H   0  0  0  0  0  0  0  0  0  0  0  0
  144.6256  135.2106  152.7058 H   0  0  0  0  0  0  0  0  0  0  0  0
  143.9845  132.8590  153.6707 H   0  0  0  0  0  0  0  0  0  0  0  0
  1  2  1  0  0  0  0
  1 21  1  0  0  0  0
  1 22  1  0  0  0  0
  1 23  1  0  0  0  0
  2  3  1  0  0  0  0
  2 24  1  0  0  0  0
  2 25  1  0  0  0  0
  3 20  1  0  0  0  0
  3  4  2  0  0  0  0
  4  5  1  0  0  0  0
  4 26  1  0  0  0  0
  5  6  2  0  0  0  0
  6  7  1  0  0  0  0
  6 20  1  0  0  0  0
  7  8  1  0  0  0  0
  7 27  1  0  0  0  0
  7 28  1  0  0  0  0
  8  9  1  0  0  0  0
  8 29  1  0  0  0  0
  8 30  1  0  0  0  0
  9 10  1  0  0  0  0
  9 31  1  0  0  0  0
 10 11  2  0  0  0  0
 10 12  1  0  0  0  0
 12 13  1  0  0  0  0
 12 32  1  0  0  0  0
 13 18  1  0  0  0  0
 13 14  1  0  0  0  0
 13 33  1  0  0  0  0
 14 15  1  0  0  0  0
 14 34  1  0  0  0  0
 14 35  1  0  0  0  0
 15 16  1  0  0  0  0
 15 36  1  0  0  0  0
 15 37  1  0  0  0  0
 16 17  1  0  0  0  0
 16 38  1  0  0  0  0
 16 39  1  0  0  0  0
 17 18  1  0  0  0  0
 17 40  1  0  0  0  0
 17 41  1  0  0  0  0
 18 19  1  0  0  0  0
 18 42  1  0  0  0  0
 19 43  1  0  0  0  0
M  END
> <s_m_source_file>
AV-unprocessed.smi

> <i_m_source_file_index>
928

> <i_lp_mmshare_version>
43012

> <i_f3d_flags>
0

> <s_epik_input>
W0NIM11bQ0gyXWMxW2NIXW5jKHMxKVtDSDJdW0NIMl1bTkhdQyg9TylbTkhdW0NAQEhdMltDSDJdW0NIMl1bQ0gyXVtDSDJdW0NASF0yW09IXQ==

> <s_epik_cmdline>
J2VwaWtfcHl0aG9uJywgJy1waCcsICc3LjAnLCAnLXRuJywgJzgnLCAnLW1hJywgJzIwMCcsICctbWV0YWxfYmluZGluZycsICctaW1hZScsICc8aW5maWxlLm1hZT4nLCAnLW9tYWUnLCAnPG91dGZpbGUubWFlPic=

> <r_epik_Ionization_Penalty>
0.000957396

> <r_epik_Ionization_Penalty_Charging>
0

> <r_epik_Ionization_Penalty_Neutral>
0.000957396

> <r_epik_State_Penalty>
0.000586538

> <r_epik_Charging_Adjusted_Penalty>
0.000586538

> <i_epik_Tot_Q>
0

> <i_epik_Tot_abs_Q>
0

> <r_epik_Metal_State_Penalty>
-0

> <b_epik_Metal_Only>
0

> <s_lp_Force_Field>
OPLS_2005

> <r_lp_Energy>
0.733769

> <b_lp_Chiralities_Consistent>
1

> <s_lp_Variant>
AV-unprocessed.smi:928-2

> <Gold.Version>
5.8.1

> <Gold.Id.Protein>
6NUR|6NUR_protein|mol2

> <Gold.PLP.Fitness>
45.6876

> <Gold.PLP.PLP>
-34.7941

> <Gold.PLP.part.hbond>
-4.0000

> <Gold.PLP.part.metal>
0.0000

> <Gold.PLP.part.buried>
-6.3343

> <Gold.PLP.part.nonpolar>
-26.3716

> <Gold.PLP.part.repulsive>
1.1837

> <Gold.PLP.ligand.clash>
0.0000

> <Gold.PLP.ligand.torsion>
0.3037

> <Gold.PLP.Chemscore.Hbond>
3.8080

> <Gold.PLP.Chemscore.CHOScore>
0.0000

> <Gold.PLP.Chemscore.Metal>
0.0000

> <Gold.Chemscore.Hbonds>
donor molecule, donor type, donor heavy atom, donor atom, acceptor molecule, acceptor atom, score
      L1  H     9    31       P1  7948  0.85
      L1  H    12    32       P1  7948  1.00
      L1  H    19    43       P1 10957  0.98
      P1  H 10752 10763       L1     5  1.00

> <Gold.PLP.Chemscore.Internal.Correction>
0.0767

> <Gold.Rescore>
     Score         DG    S(hbond)    S(metal)    S(lipo)     H(rot)  DE(clash)    DE(int)     intcor
     17.00     -19.65       3.13        0.00      80.16       2.21       0.03       2.63       ----

> <Gold.Chemscore.Fitness>
17.0009

> <Gold.Chemscore.DG>
-19.6524

> <Gold.Chemscore.ZeroCoef>
-5.4800

> <Gold.Chemscore.Hbond>
3.1281

> <Gold.Chemscore.Metal>
0.0000

> <Gold.Chemscore.Lipo>
80.1557

> <Gold.Chemscore.Internal_Hbond>
0.0000

> <Gold.Chemscore.DEClash>
0.0263

> <Gold.Chemscore.DEInternal>
2.6252

> <Gold.Chemscore.Rot>
2.2084

> <Gold.Chemscore.Internal.Correction>
   9.000000E+99

> <Gold.Chemscore.Hbonds>
donor molecule, donor type, donor heavy atom, donor atom, acceptor molecule, acceptor atom, score
      L1  H     9    31       P1  7948  0.28
      L1  H    12    32       P1  7948  0.93
      L1  H    19    43       P1 10957  0.72
      P1  H 10752 10763       L1     5  0.40

> <Gold.Chemscore.Hbond.Weighted>
-10.4477

> <Gold.Chemscore.Metal.Weighted>
-0.0000

> <Gold.Chemscore.Lipo.Weighted>
-9.3782

> <Gold.Chemscore.Internal_Hbond.Weighted>
0.0000

> <Gold.Chemscore.DEClash.Weighted>
0.0263

> <Gold.Chemscore.DEInternal.Weighted>
2.6252

> <Gold.Chemscore.Rot.Weighted>
5.6535

> <Gold.Chemscore.Internal.Correction.Weighted>
   9.000000E+99

> <Gold.Protein.RotatedTorsions>
[ 6907 6896 6895 6894 ] final  -92.74 input  -60.11 | X-H torsion
[ 7974 7965 7964 7962 ] final   58.91 input  175.53 | X-H torsion
[ 8008 7997 7996 7995 ] final    1.90 input   59.86 | X-H torsion
[ 10167 10162 10161 10158 ] final  158.52 input  -65.29 | X-H torsion
[ 10718 10713 10712 10709 ] final   19.07 input   66.30 | X-H torsion
[ 10763 10752 10751 10750 ] final   42.66 input  -60.55 | X-H torsion
[ 11005 11000 10999 10996 ] final -122.16 input  -57.11 | X-H torsion

> <Gold.Protein.ActiveResidues>
 VAL166  LYS551  ARG553  GLY616  TRP617  ASP618  TYR619  PRO620  LYS621  CYS622 
 ASP623  PHE694  ASN695  SER759  ASP760  ASP761  ALA762  ILE779  LEU786  VAL792 
 PHE793  MET794  SER795  GLU796  ALA797  LYS798  CYS799  TRP800  GLU811  SER814 

> <Gold.Protein.RotatedAtoms>
  150.6911  134.2076  159.4346 H   0  0  0  0  0  0  0  0  0  0  0  0  # atno 6907 bound_to 6896
  152.0039  134.9911  160.0575 H   0  0  0  0  0  0  0  0  0  0  0  0  # atno 6908 bound_to 6896
  152.1552  133.4512  159.4870 H   0  0  0  0  0  0  0  0  0  0  0  0  # atno 6909 bound_to 6896
  145.9130  139.3669  143.0524 H   0  0  0  0  0  0  0  0  0  0  0  0  # atno 7974 bound_to 7965
  154.6851  140.2641  155.6868 H   0  0  0  0  0  0  0  0  0  0  0  0  # atno 8008 bound_to 7997
  156.2711  140.2802  156.1333 H   0  0  0  0  0  0  0  0  0  0  0  0  # atno 8009 bound_to 7997
  155.0975  140.0374  157.2677 H   0  0  0  0  0  0  0  0  0  0  0  0  # atno 8010 bound_to 7997
  139.4827  144.4816  151.8435 H   0  0  0  0  0  0  0  0  0  0  0  0  # atno 10167 bound_to 10162
  157.1053  130.6485  149.5883 H   0  0  0  0  0  0  0  0  0  0  0  0  # atno 10718 bound_to 10713
  152.9878  135.6125  154.2985 H   0  0  0  0  0  0  0  0  0  0  0  0  # atno 10763 bound_to 10752
  154.2706  135.2779  155.2741 H   0  0  0  0  0  0  0  0  0  0  0  0  # atno 10764 bound_to 10752
  154.5125  135.5837  153.6673 H   0  0  0  0  0  0  0  0  0  0  0  0  # atno 10765 bound_to 10752
  141.0016  134.0395  157.3530 H   0  0  0  0  0  0  0  0  0  0  0  0  # atno 11005 bound_to 11000
  145.8647  140.9455  143.0681 LP  0  0  0  0  0  0  0  0  0  0  0  0  # atno 17320 bound_to 7965
  144.6745  140.0577  143.7477 LP  0  0  0  0  0  0  0  0  0  0  0  0  # atno 17321 bound_to 7965
  140.4293  144.2137  150.5887 LP  0  0  0  0  0  0  0  0  0  0  0  0  # atno 17342 bound_to 10162
  140.4795  143.2384  151.8975 LP  0  0  0  0  0  0  0  0  0  0  0  0  # atno 17343 bound_to 10162
  155.9863  130.4898  150.7075 LP  0  0  0  0  0  0  0  0  0  0  0  0  # atno 17370 bound_to 10713
  157.4606  131.0883  151.0749 LP  0  0  0  0  0  0  0  0  0  0  0  0  # atno 17371 bound_to 10713
  139.9041  135.0174  156.7408 LP  0  0  0  0  0  0  0  0  0  0  0  0  # atno 17394 bound_to 11000
  140.6880  133.9415  155.7949 LP  0  0  0  0  0  0  0  0  0  0  0  0  # atno 17395 bound_to 11000

$$$$
