AV-unprocessed.smi:290|AV-procd|sdf|2225|dock7
  -GOLD-   2262022 73D 1   1.00000     0.00000
 Structure written by MMmdl.
 59 62  0  0  0  0  0  0  0  0  2 V2000
  150.3351  138.0724  154.8063 C   0  0  0  0  0  0  0  0  0  0  0  0
  150.2228  139.6058  154.8135 C   0  0  2  0  0  0  0  0  0  0  0  0
  151.5104  140.2020  154.9675 O   0  0  0  0  0  0  0  0  0  0  0  0
  151.5324  141.0189  156.1289 C   0  0  0  0  0  0  0  0  0  0  0  0
  150.0880  141.4724  156.2921 C   0  0  0  0  0  0  0  0  0  0  0  0
  149.3062  140.2278  155.8939 C   0  0  2  0  0  0  0  0  0  0  0  0
  149.2129  139.3814  157.0291 O   0  0  0  0  0  0  0  0  0  0  0  0
  147.8765  140.5198  155.3794 C   0  0  0  0  0  0  0  0  0  0  0  0
  147.3325  139.4519  154.5557 N   0  0  0  0  0  0  0  0  0  0  0  0
  147.3199  139.3951  153.1795 C   0  0  0  0  0  0  0  0  0  0  0  0
  146.7608  138.3309  152.6701 N   0  0  0  0  0  0  0  0  0  0  0  0
  146.3687  137.5959  153.7812 C   0  0  0  0  0  0  0  0  0  0  0  0
  145.7126  136.3508  153.9559 C   0  0  0  0  0  0  0  0  0  0  0  0
  145.3203  135.6065  152.8985 N   0  0  0  0  0  0  0  0  0  0  0  0
  144.4012  136.2780  151.9933 C   0  0  0  0  0  0  0  0  0  0  0  0
  143.8426  135.1791  151.0824 C   0  0  0  0  0  0  0  0  0  0  0  0
  144.0729  133.8650  151.8617 C   0  0  1  0  0  0  0  0  0  0  0  0
  144.8512  132.8199  151.1256 N   0  3  2  0  0  0  0  0  0  0  0  0
  146.1190  133.2835  150.5051 C   0  0  0  0  0  0  0  0  0  0  0  0
  144.0309  132.0198  150.1806 C   0  0  0  0  0  0  0  0  0  0  0  0
  143.7293  132.7809  148.8780 C   0  0  0  0  0  0  0  0  0  0  0  0
  142.7412  132.0964  148.1369 O   0  0  0  0  0  0  0  0  0  0  0  0
  144.7148  134.3147  153.1912 C   0  0  1  0  0  0  0  0  0  0  0  0
  145.6561  133.3145  153.8923 C   0  0  0  0  0  0  0  0  0  0  0  0
  145.4895  135.9192  155.2253 N   0  0  0  0  0  0  0  0  0  0  0  0
  145.8834  136.6669  156.2613 C   0  0  0  0  0  0  0  0  0  0  0  0
  146.5020  137.8501  156.2494 N   0  0  0  0  0  0  0  0  0  0  0  0
  146.7267  138.2806  154.9748 C   0  0  0  0  0  0  0  0  0  0  0  0
  143.1039  133.4383  152.1191 H   0  0  0  0  0  0  0  0  0  0  0  0
  143.8894  134.5006  153.8808 H   0  0  0  0  0  0  0  0  0  0  0  0
  149.3534  137.6081  154.7099 H   0  0  0  0  0  0  0  0  0  0  0  0
  150.7984  137.6989  155.7199 H   0  0  0  0  0  0  0  0  0  0  0  0
  150.9460  137.7345  153.9691 H   0  0  0  0  0  0  0  0  0  0  0  0
  149.8731  139.9225  153.8300 H   0  0  0  0  0  0  0  0  0  0  0  0
  151.8478  140.4187  156.9836 H   0  0  0  0  0  0  0  0  0  0  0  0
  152.2274  141.8517  156.0208 H   0  0  0  0  0  0  0  0  0  0  0  0
  149.8628  141.8332  157.2968 H   0  0  0  0  0  0  0  0  0  0  0  0
  149.8879  142.2844  155.5916 H   0  0  0  0  0  0  0  0  0  0  0  0
  148.7540  138.5940  156.7798 H   0  0  0  0  0  0  0  0  0  0  0  0
  147.1971  140.6745  156.2187 H   0  0  0  0  0  0  0  0  0  0  0  0
  147.8638  141.4455  154.8022 H   0  0  0  0  0  0  0  0  0  0  0  0
  147.7349  140.1779  152.5611 H   0  0  0  0  0  0  0  0  0  0  0  0
  143.5916  136.7510  152.5516 H   0  0  0  0  0  0  0  0  0  0  0  0
  144.9113  137.0522  151.4193 H   0  0  0  0  0  0  0  0  0  0  0  0
  142.7835  135.3451  150.8834 H   0  0  0  0  0  0  0  0  0  0  0  0
  144.3439  135.1995  150.1167 H   0  0  0  0  0  0  0  0  0  0  0  0
  145.9446  133.8103  149.5671 H   0  0  0  0  0  0  0  0  0  0  0  0
  146.7533  132.4251  150.2818 H   0  0  0  0  0  0  0  0  0  0  0  0
  146.6852  133.9413  151.1634 H   0  0  0  0  0  0  0  0  0  0  0  0
  144.5379  131.0784  149.9645 H   0  0  0  0  0  0  0  0  0  0  0  0
  143.0810  131.7506  150.6460 H   0  0  0  0  0  0  0  0  0  0  0  0
  143.4044  133.8045  149.0615 H   0  0  0  0  0  0  0  0  0  0  0  0
  144.6320  132.8410  148.2696 H   0  0  0  0  0  0  0  0  0  0  0  0
  142.6146  132.5460  147.3147 H   0  0  0  0  0  0  0  0  0  0  0  0
  145.1653  132.3511  154.0327 H   0  0  0  0  0  0  0  0  0  0  0  0
  145.9448  133.6770  154.8793 H   0  0  0  0  0  0  0  0  0  0  0  0
  146.5744  133.1450  153.3314 H   0  0  0  0  0  0  0  0  0  0  0  0
  145.6717  136.2613  157.2398 H   0  0  0  0  0  0  0  0  0  0  0  0
  145.1379  132.1597  151.8346 H   0  0  0  0  0  0  0  0  0  0  0  0
  1  2  1  0  0  0  0
  1 31  1  0  0  0  0
  1 32  1  0  0  0  0
  1 33  1  0  0  0  0
  2  6  1  0  0  0  0
  2  3  1  0  0  0  0
  2 34  1  0  0  0  0
  3  4  1  0  0  0  0
  4  5  1  0  0  0  0
  4 35  1  0  0  0  0
  4 36  1  0  0  0  0
  5  6  1  0  0  0  0
  5 37  1  0  0  0  0
  5 38  1  0  0  0  0
  6  7  1  0  0  0  0
  6  8  1  0  0  0  0
  7 39  1  0  0  0  0
  8  9  1  0  0  0  0
  8 40  1  0  0  0  0
  8 41  1  0  0  0  0
  9 28  1  0  0  0  0
  9 10  1  0  0  0  0
 10 11  2  0  0  0  0
 10 42  1  0  0  0  0
 11 12  1  0  0  0  0
 12 28  2  0  0  0  0
 12 13  1  0  0  0  0
 13 14  1  0  0  0  0
 13 25  2  0  0  0  0
 14 23  1  0  0  0  0
 14 15  1  0  0  0  0
 15 16  1  0  0  0  0
 15 43  1  0  0  0  0
 15 44  1  0  0  0  0
 16 17  1  0  0  0  0
 16 45  1  0  0  0  0
 16 46  1  0  0  0  0
 17 29  1  0  0  0  0
 17 18  1  0  0  0  0
 17 23  1  0  0  0  0
 18 19  1  0  0  0  0
 18 20  1  0  0  0  0
 18 59  1  0  0  0  0
 19 47  1  0  0  0  0
 19 48  1  0  0  0  0
 19 49  1  0  0  0  0
 20 21  1  0  0  0  0
 20 50  1  0  0  0  0
 20 51  1  0  0  0  0
 21 22  1  0  0  0  0
 21 52  1  0  0  0  0
 21 53  1  0  0  0  0
 22 54  1  0  0  0  0
 23 30  1  0  0  0  0
 23 24  1  0  0  0  0
 24 55  1  0  0  0  0
 24 56  1  0  0  0  0
 24 57  1  0  0  0  0
 25 26  1  0  0  0  0
 26 27  2  0  0  0  0
 26 58  1  0  0  0  0
 27 28  1  0  0  0  0
M  CHG  1  18   1
M  END
> <s_m_source_file>
AV-unprocessed.smi

> <i_m_source_file_index>
290

> <i_lp_mmshare_version>
43012

> <i_f3d_flags>
0

> <s_epik_input>
W0NIMl0xW0NIMl1PW0NAQEhdKFtDSDNdKVtDQEBdMShbT0hdKVtDSDJdbihbY0hdbjIpYyhjMjMpbltjSF1uYzNONFtDSDJdW0NIMl1bQ0BIXShbQ0BIXTRbQ0gzXSlOKFtDSDNdKVtDSDJdW0NIMl1bT0hd

> <s_epik_cmdline>
J2VwaWtfcHl0aG9uJywgJy1waCcsICc3LjAnLCAnLXRuJywgJzgnLCAnLW1hJywgJzIwMCcsICctbWV0YWxfYmluZGluZycsICctaW1hZScsICc8aW5maWxlLm1hZT4nLCAnLW9tYWUnLCAnPG91dGZpbGUubWFlPic=

> <r_lp_tautomer_probability>
1

> <r_epik_Ionization_Penalty>
0.0036983

> <r_epik_Ionization_Penalty_Charging>
0.0032725

> <r_epik_Ionization_Penalty_Neutral>
0.000425798

> <r_epik_State_Penalty>
-0

> <r_epik_Charging_Adjusted_Penalty>
0.0032725

> <i_epik_Tot_Q>
1

> <i_epik_Tot_abs_Q>
1

> <r_epik_Metal_State_Penalty>
-0

> <b_epik_Metal_Only>
0

> <s_lp_Force_Field>
OPLS_2005

> <r_lp_Energy>
70.3682

> <b_lp_Chiralities_Consistent>
1

> <s_lp_Variant>
AV-unprocessed.smi:290-11

> <Gold.Version>
5.8.1

> <Gold.Id.Protein>
6NUR|6NUR_protein|mol2

> <Gold.PLP.Fitness>
45.5193

> <Gold.PLP.PLP>
-36.8317

> <Gold.PLP.part.hbond>
-4.3420

> <Gold.PLP.part.metal>
0.0000

> <Gold.PLP.part.buried>
-6.3829

> <Gold.PLP.part.nonpolar>
-27.1287

> <Gold.PLP.part.repulsive>
0.5384

> <Gold.PLP.ligand.clash>
0.0000

> <Gold.PLP.ligand.torsion>
1.0176

> <Gold.PLP.Chemscore.Hbond>
2.5406

> <Gold.PLP.Chemscore.CHOScore>
0.9610

> <Gold.PLP.Chemscore.Metal>
0.0000

> <Gold.Chemscore.Hbonds>
donor molecule, donor type, donor heavy atom, donor atom, acceptor molecule, acceptor atom, score
      L1  H    22    54       P1 10195  0.93
      P1  H  7989  7998       L1     3  0.95
      P1  H 10785 10796       L1    22  0.65
      L1  C    10    42       P1  7957  0.95

> <Gold.PLP.Chemscore.Internal.Correction>
0.2182

> <Gold.Rescore>
     Score         DG    S(hbond)    S(metal)    S(lipo)     H(rot)  DE(clash)    DE(int)     intcor
     10.20     -12.58       1.84        0.00      88.44       3.67       0.08       2.30       ----

> <Gold.Chemscore.Fitness>
10.1996

> <Gold.Chemscore.DG>
-12.5770

> <Gold.Chemscore.ZeroCoef>
-5.4800

> <Gold.Chemscore.Hbond>
1.8364

> <Gold.Chemscore.Metal>
0.0000

> <Gold.Chemscore.Lipo>
88.4432

> <Gold.Chemscore.Internal_Hbond>
0.0000

> <Gold.Chemscore.DEClash>
0.0774

> <Gold.Chemscore.DEInternal>
2.3000

> <Gold.Chemscore.Rot>
3.6658

> <Gold.Chemscore.Internal.Correction>
   9.000000E+99

> <Gold.Chemscore.Hbonds>
donor molecule, donor type, donor heavy atom, donor atom, acceptor molecule, acceptor atom, score
      L1  H    22    54       P1 10195  0.88
      P1  H  7989  7998       L1     3  0.20
      P1  H 10785 10796       L1    22  0.16

> <Gold.Chemscore.Hbond.Weighted>
-6.1335

> <Gold.Chemscore.Metal.Weighted>
-0.0000

> <Gold.Chemscore.Lipo.Weighted>
-10.3479

> <Gold.Chemscore.Internal_Hbond.Weighted>
0.0000

> <Gold.Chemscore.DEClash.Weighted>
0.0774

> <Gold.Chemscore.DEInternal.Weighted>
2.3000

> <Gold.Chemscore.Rot.Weighted>
9.3844

> <Gold.Chemscore.Internal.Correction.Weighted>
   9.000000E+99

> <Gold.Protein.RotatedTorsions>
[ 6907 6896 6895 6894 ] final -149.31 input  -60.11 | X-H torsion
[ 7974 7965 7964 7962 ] final   77.69 input  175.53 | X-H torsion
[ 8008 7997 7996 7995 ] final  131.32 input   59.86 | X-H torsion
[ 10167 10162 10161 10158 ] final   66.40 input  -65.29 | X-H torsion
[ 10718 10713 10712 10709 ] final   26.81 input   66.30 | X-H torsion
[ 10763 10752 10751 10750 ] final  -84.21 input  -60.55 | X-H torsion
[ 11005 11000 10999 10996 ] final  -28.48 input  -57.11 | X-H torsion

> <Gold.Protein.ActiveResidues>
 VAL166  LYS551  ARG553  GLY616  TRP617  ASP618  TYR619  PRO620  LYS621  CYS622 
 ASP623  PHE694  ASN695  SER759  ASP760  ASP761  ALA762  ILE779  LEU786  VAL792 
 PHE793  MET794  SER795  GLU796  ALA797  LYS798  CYS799  TRP800  GLU811  SER814 

> <Gold.Protein.RotatedAtoms>
  151.1824  133.4717  159.2593 H   0  0  0  0  0  0  0  0  0  0  0  0  # atno 6907 bound_to 6896
  151.1246  135.0097  159.8564 H   0  0  0  0  0  0  0  0  0  0  0  0  # atno 6908 bound_to 6896
  152.5457  134.1732  159.8658 H   0  0  0  0  0  0  0  0  0  0  0  0  # atno 6909 bound_to 6896
  145.6868  139.2540  143.1782 H   0  0  0  0  0  0  0  0  0  0  0  0  # atno 7974 bound_to 7965
  156.2968  140.2574  156.2906 H   0  0  0  0  0  0  0  0  0  0  0  0  # atno 8008 bound_to 7997
  154.9513  140.0394  157.2164 H   0  0  0  0  0  0  0  0  0  0  0  0  # atno 8009 bound_to 7997
  154.8033  140.2832  155.5910 H   0  0  0  0  0  0  0  0  0  0  0  0  # atno 8010 bound_to 7997
  140.1009  144.4905  150.7038 H   0  0  0  0  0  0  0  0  0  0  0  0  # atno 10167 bound_to 10162
  157.2118  130.6938  149.6232 H   0  0  0  0  0  0  0  0  0  0  0  0  # atno 10718 bound_to 10713
  154.5968  135.5529  153.7334 H   0  0  0  0  0  0  0  0  0  0  0  0  # atno 10763 bound_to 10752
  153.0138  135.6356  154.1771 H   0  0  0  0  0  0  0  0  0  0  0  0  # atno 10764 bound_to 10752
  154.1711  135.2892  155.3060 H   0  0  0  0  0  0  0  0  0  0  0  0  # atno 10765 bound_to 10752
  140.9212  133.7397  156.0804 H   0  0  0  0  0  0  0  0  0  0  0  0  # atno 11005 bound_to 11000
  146.0916  140.7649  142.9592 LP  0  0  0  0  0  0  0  0  0  0  0  0  # atno 17320 bound_to 7965
  144.7009  140.3647  143.7157 LP  0  0  0  0  0  0  0  0  0  0  0  0  # atno 17321 bound_to 7965
  140.6978  143.2415  151.4950 LP  0  0  0  0  0  0  0  0  0  0  0  0  # atno 17342 bound_to 10162
  139.5672  144.2014  152.1782 LP  0  0  0  0  0  0  0  0  0  0  0  0  # atno 17343 bound_to 10162
  155.9690  130.4548  150.5865 LP  0  0  0  0  0  0  0  0  0  0  0  0  # atno 17370 bound_to 10713
  157.3664  131.0758  151.1594 LP  0  0  0  0  0  0  0  0  0  0  0  0  # atno 17371 bound_to 10713
  140.7985  134.3536  157.5446 LP  0  0  0  0  0  0  0  0  0  0  0  0  # atno 17394 bound_to 11000
  139.8776  134.9183  156.3200 LP  0  0  0  0  0  0  0  0  0  0  0  0  # atno 17395 bound_to 11000

$$$$
