AV-unprocessed.smi:3303|AV-procd|sdf|12689|dock1
  -GOLD-   2272019 23D 1   1.00000     0.00000
 Structure written by MMmdl.
 44 45  0  0  0  0  0  0  0  0  2 V2000
  147.0806  141.1390  153.9395 C   0  0  0  0  0  0  0  0  0  0  0  0
  148.1273  140.0132  153.8941 C   0  0  2  0  0  0  0  0  0  0  0  0
  147.6319  138.7310  154.5883 C   0  0  0  0  0  0  0  0  0  0  0  0
  148.6022  137.6150  154.4451 N   0  3  2  0  0  0  0  0  0  0  0  0
  148.0327  136.3487  154.9665 C   0  0  0  0  0  0  0  0  0  0  0  0
  149.9399  137.9603  155.0124 C   0  0  1  0  0  0  0  0  0  0  0  0
  150.9663  136.8216  154.8513 C   0  0  0  0  0  0  0  0  0  0  0  0
  150.4944  139.2457  154.3575 C   0  0  0  0  0  0  0  0  0  0  0  0
  149.5198  140.4342  154.4157 C   0  0  2  0  0  0  0  0  0  0  0  0
  149.4739  140.9547  155.7804 N   0  0  0  0  0  0  0  0  0  0  0  0
  150.7677  141.4780  156.1942 C   0  0  0  0  0  0  0  0  0  0  0  0
  150.9442  141.2971  157.7074 C   0  0  0  0  0  0  0  0  0  0  0  0
  151.3416  142.5928  158.3886 C   0  0  0  0  0  0  0  0  0  0  0  0
  152.5506  142.6870  159.1105 C   0  0  0  0  0  0  0  0  0  0  0  0
  152.8646  143.9093  159.7361 C   0  0  0  0  0  0  0  0  0  0  0  0
  151.9622  144.9838  159.6172 C   0  0  0  0  0  0  0  0  0  0  0  0
  150.7803  144.7873  158.8756 C   0  0  0  0  0  0  0  0  0  0  0  0
  150.4688  143.6193  158.2731 N   0  0  0  0  0  0  0  0  0  0  0  0
  146.8445  141.4293  154.9637 H   0  0  0  0  0  0  0  0  0  0  0  0
  146.1494  140.8269  153.4657 H   0  0  0  0  0  0  0  0  0  0  0  0
  147.4346  142.0249  153.4119 H   0  0  0  0  0  0  0  0  0  0  0  0
  148.2557  139.7654  152.8392 H   0  0  0  0  0  0  0  0  0  0  0  0
  147.4418  138.9183  155.6465 H   0  0  0  0  0  0  0  0  0  0  0  0
  146.6787  138.4355  154.1473 H   0  0  0  0  0  0  0  0  0  0  0  0
  147.9617  136.3696  156.0547 H   0  0  0  0  0  0  0  0  0  0  0  0
  148.6336  135.4884  154.6731 H   0  0  0  0  0  0  0  0  0  0  0  0
  147.0328  136.1794  154.5653 H   0  0  0  0  0  0  0  0  0  0  0  0
  149.8121  138.1447  156.0805 H   0  0  0  0  0  0  0  0  0  0  0  0
  151.9539  137.1398  155.1868 H   0  0  0  0  0  0  0  0  0  0  0  0
  151.0575  136.5116  153.8098 H   0  0  0  0  0  0  0  0  0  0  0  0
  150.7062  135.9457  155.4453 H   0  0  0  0  0  0  0  0  0  0  0  0
  151.4464  139.5230  154.8130 H   0  0  0  0  0  0  0  0  0  0  0  0
  150.7179  139.0373  153.3102 H   0  0  0  0  0  0  0  0  0  0  0  0
  149.9174  141.2075  153.7557 H   0  0  0  0  0  0  0  0  0  0  0  0
  149.2113  140.2152  156.4168 H   0  0  0  0  0  0  0  0  0  0  0  0
  151.5592  140.9502  155.6604 H   0  0  0  0  0  0  0  0  0  0  0  0
  150.8472  142.5342  155.9362 H   0  0  0  0  0  0  0  0  0  0  0  0
  150.0187  140.9281  158.1518 H   0  0  0  0  0  0  0  0  0  0  0  0
  151.7054  140.5425  157.9115 H   0  0  0  0  0  0  0  0  0  0  0  0
  153.2210  141.8435  159.1873 H   0  0  0  0  0  0  0  0  0  0  0  0
  153.7798  144.0198  160.2987 H   0  0  0  0  0  0  0  0  0  0  0  0
  152.1697  145.9354  160.0838 H   0  0  0  0  0  0  0  0  0  0  0  0
  150.0651  145.5888  158.7646 H   0  0  0  0  0  0  0  0  0  0  0  0
  148.7350  137.4795  153.4531 H   0  0  0  0  0  0  0  0  0  0  0  0
  1  2  1  0  0  0  0
  1 19  1  0  0  0  0
  1 20  1  0  0  0  0
  1 21  1  0  0  0  0
  2  9  1  0  0  0  0
  2  3  1  0  0  0  0
  2 22  1  0  0  0  0
  3  4  1  0  0  0  0
  3 23  1  0  0  0  0
  3 24  1  0  0  0  0
  4  5  1  0  0  0  0
  4  6  1  0  0  0  0
  4 44  1  0  0  0  0
  5 25  1  0  0  0  0
  5 26  1  0  0  0  0
  5 27  1  0  0  0  0
  6  7  1  0  0  0  0
  6  8  1  0  0  0  0
  6 28  1  0  0  0  0
  7 29  1  0  0  0  0
  7 30  1  0  0  0  0
  7 31  1  0  0  0  0
  8  9  1  0  0  0  0
  8 32  1  0  0  0  0
  8 33  1  0  0  0  0
  9 10  1  0  0  0  0
  9 34  1  0  0  0  0
 10 11  1  0  0  0  0
 10 35  1  0  0  0  0
 11 12  1  0  0  0  0
 11 36  1  0  0  0  0
 11 37  1  0  0  0  0
 12 13  1  0  0  0  0
 12 38  1  0  0  0  0
 12 39  1  0  0  0  0
 13 18  1  0  0  0  0
 13 14  2  0  0  0  0
 14 15  1  0  0  0  0
 14 40  1  0  0  0  0
 15 16  2  0  0  0  0
 15 41  1  0  0  0  0
 16 17  1  0  0  0  0
 16 42  1  0  0  0  0
 17 18  2  0  0  0  0
 17 43  1  0  0  0  0
M  CHG  1   4   1
M  END
> <s_m_source_file>
AV-unprocessed.smi

> <i_m_source_file_index>
3303

> <i_lp_mmshare_version>
43012

> <i_f3d_flags>
0

> <s_epik_input>
W0NIM11bQ0BASF0xW0NIMl1OKFtDSDNdKVtDQEBIXShbQ0gzXSlbQ0gyXVtDQEhdMVtOSF1bQ0gyXVtDSDJdYzJbY0hdW2NIXVtjSF1bY0hdbjI=

> <s_epik_cmdline>
J2VwaWtfcHl0aG9uJywgJy1waCcsICc3LjAnLCAnLXRuJywgJzgnLCAnLW1hJywgJzIwMCcsICctbWV0YWxfYmluZGluZycsICctaW1hZScsICc8aW5maWxlLm1hZT4nLCAnLW9tYWUnLCAnPG91dGZpbGUubWFlPic=

> <r_epik_Ionization_Penalty>
2.31085

> <r_epik_Ionization_Penalty_Charging>
0.000313057

> <r_epik_Ionization_Penalty_Neutral>
2.31054

> <r_epik_State_Penalty>
2.4087

> <r_epik_Charging_Adjusted_Penalty>
2.40902

> <i_epik_Tot_Q>
1

> <i_epik_Tot_abs_Q>
1

> <r_epik_Metal_State_Penalty>
2.30979

> <b_epik_Metal_Only>
0

> <s_lp_Force_Field>
OPLS_2005

> <r_lp_Energy>
26.9633

> <b_lp_Chiralities_Consistent>
1

> <s_lp_Variant>
AV-unprocessed.smi:3303-33

> <Gold.Version>
5.8.1

> <Gold.Id.Protein>
6NUR|6NUR_protein|mol2

> <Gold.PLP.Fitness>
43.8795

> <Gold.PLP.PLP>
-36.0145

> <Gold.PLP.part.hbond>
-1.0000

> <Gold.PLP.part.metal>
0.0000

> <Gold.PLP.part.buried>
-2.1444

> <Gold.PLP.part.nonpolar>
-32.8162

> <Gold.PLP.part.repulsive>
0.1784

> <Gold.PLP.ligand.clash>
0.0000

> <Gold.PLP.ligand.torsion>
0.5656

> <Gold.PLP.Chemscore.Hbond>
2.0000

> <Gold.PLP.Chemscore.CHOScore>
0.9945

> <Gold.PLP.Chemscore.Metal>
0.0000

> <Gold.Chemscore.Hbonds>
donor molecule, donor type, donor heavy atom, donor atom, acceptor molecule, acceptor atom, score
      L1  H     4    44       P1  7948  2.00
      L1  C    17    43       P1  8029  0.73

> <Gold.PLP.Chemscore.Internal.Correction>
0.0129

> <Gold.Rescore>
     Score         DG    S(hbond)    S(metal)    S(lipo)     H(rot)  DE(clash)    DE(int)     intcor
     18.31     -18.86       0.94        0.00     116.44       1.33       0.02       0.52       ----

> <Gold.Chemscore.Fitness>
18.3147

> <Gold.Chemscore.DG>
-18.8581

> <Gold.Chemscore.ZeroCoef>
-5.4800

> <Gold.Chemscore.Hbond>
0.9438

> <Gold.Chemscore.Metal>
0.0000

> <Gold.Chemscore.Lipo>
116.4404

> <Gold.Chemscore.Internal_Hbond>
0.0000

> <Gold.Chemscore.DEClash>
0.0218

> <Gold.Chemscore.DEInternal>
0.5216

> <Gold.Chemscore.Rot>
1.3272

> <Gold.Chemscore.Internal.Correction>
   9.000000E+99

> <Gold.Chemscore.Hbonds>
donor molecule, donor type, donor heavy atom, donor atom, acceptor molecule, acceptor atom, score
      L1  H     4    44       P1  7948  0.89

> <Gold.Chemscore.Hbond.Weighted>
-3.1522

> <Gold.Chemscore.Metal.Weighted>
-0.0000

> <Gold.Chemscore.Lipo.Weighted>
-13.6235

> <Gold.Chemscore.Internal_Hbond.Weighted>
0.0000

> <Gold.Chemscore.DEClash.Weighted>
0.0218

> <Gold.Chemscore.DEInternal.Weighted>
0.5216

> <Gold.Chemscore.Rot.Weighted>
3.3976

> <Gold.Chemscore.Internal.Correction.Weighted>
   9.000000E+99

> <Gold.Protein.RotatedTorsions>
[ 6907 6896 6895 6894 ] final  111.81 input  -60.11 | X-H torsion
[ 7974 7965 7964 7962 ] final -136.22 input  175.53 | X-H torsion
[ 8008 7997 7996 7995 ] final  -20.29 input   59.86 | X-H torsion
[ 10167 10162 10161 10158 ] final  -75.69 input  -65.29 | X-H torsion
[ 10718 10713 10712 10709 ] final  -40.65 input   66.30 | X-H torsion
[ 10763 10752 10751 10750 ] final -101.19 input  -60.55 | X-H torsion
[ 11005 11000 10999 10996 ] final -168.50 input  -57.11 | X-H torsion

> <Gold.Protein.ActiveResidues>
 VAL166  LYS551  ARG553  GLY616  TRP617  ASP618  TYR619  PRO620  LYS621  CYS622 
 ASP623  PHE694  ASN695  SER759  ASP760  ASP761  ALA762  ILE779  LEU786  VAL792 
 PHE793  MET794  SER795  GLU796  ALA797  LYS798  CYS799  TRP800  GLU811  SER814 

> <Gold.Protein.RotatedAtoms>
  152.4949  133.8604  159.7246 H   0  0  0  0  0  0  0  0  0  0  0  0  # atno 6907 bound_to 6896
  150.9117  133.6980  159.2860 H   0  0  0  0  0  0  0  0  0  0  0  0  # atno 6908 bound_to 6896
  151.4387  135.1022  159.9716 H   0  0  0  0  0  0  0  0  0  0  0  0  # atno 6909 bound_to 6896
  144.8945  140.6688  143.5124 H   0  0  0  0  0  0  0  0  0  0  0  0  # atno 7974 bound_to 7965
  154.4779  140.2066  155.9833 H   0  0  0  0  0  0  0  0  0  0  0  0  # atno 8008 bound_to 7997
  156.1119  140.3227  155.8054 H   0  0  0  0  0  0  0  0  0  0  0  0  # atno 8009 bound_to 7997
  155.4620  140.0525  157.2980 H   0  0  0  0  0  0  0  0  0  0  0  0  # atno 8010 bound_to 7997
  140.4921  143.2378  151.7890 H   0  0  0  0  0  0  0  0  0  0  0  0  # atno 10167 bound_to 10162
  156.2790  130.4215  149.8356 H   0  0  0  0  0  0  0  0  0  0  0  0  # atno 10718 bound_to 10713
  154.7638  135.4907  153.9515 H   0  0  0  0  0  0  0  0  0  0  0  0  # atno 10763 bound_to 10752
  153.1283  135.6747  153.9228 H   0  0  0  0  0  0  0  0  0  0  0  0  # atno 10764 bound_to 10752
  153.8939  135.3117  155.3426 H   0  0  0  0  0  0  0  0  0  0  0  0  # atno 10765 bound_to 10752
  140.5413  134.5520  157.5100 H   0  0  0  0  0  0  0  0  0  0  0  0  # atno 11005 bound_to 11000
  145.3724  139.1655  143.4325 LP  0  0  0  0  0  0  0  0  0  0  0  0  # atno 17320 bound_to 7965
  146.3073  140.3797  142.8682 LP  0  0  0  0  0  0  0  0  0  0  0  0  # atno 17321 bound_to 7965
  139.4853  144.4635  151.9512 LP  0  0  0  0  0  0  0  0  0  0  0  0  # atno 17342 bound_to 10162
  140.3722  144.2841  150.5918 LP  0  0  0  0  0  0  0  0  0  0  0  0  # atno 17343 bound_to 10162
  156.5810  130.8466  151.3383 LP  0  0  0  0  0  0  0  0  0  0  0  0  # atno 17370 bound_to 10713
  157.7308  130.9691  150.1852 LP  0  0  0  0  0  0  0  0  0  0  0  0  # atno 17371 bound_to 10713
  139.9503  134.7629  156.0465 LP  0  0  0  0  0  0  0  0  0  0  0  0  # atno 17394 bound_to 11000
  141.1226  133.6608  156.3253 LP  0  0  0  0  0  0  0  0  0  0  0  0  # atno 17395 bound_to 11000

$$$$
