AV-unprocessed.smi:2825|AV-procd|sdf|10891|dock4
  -GOLD-   2272015333D 1   1.00000     0.00000
 Structure written by MMmdl.
 49 50  0  0  0  0  0  0  0  0  2 V2000
  149.0901  134.0730  151.9302 C   0  0  0  0  0  0  0  0  0  0  0  0
  150.0636  134.4907  153.0371 C   0  0  0  0  0  0  0  0  0  0  0  0
  149.3907  135.3543  154.1136 C   0  0  0  0  0  0  0  0  0  0  0  0
  150.6283  136.1086  155.2571 S   0  0  0  0  0  0  0  0  0  0  0  0
  150.3968  135.5999  156.6176 O   0  0  0  0  0  0  0  0  0  0  0  0
  151.9598  135.9857  154.6433 O   0  0  0  0  0  0  0  0  0  0  0  0
  150.1854  137.7873  155.2493 N   0  0  0  0  0  0  0  0  0  0  0  0
  150.0326  138.4606  153.9550 C   0  0  0  0  0  0  0  0  0  0  0  0
  149.3023  138.2905  156.3121 C   0  0  0  0  0  0  0  0  0  0  0  0
  150.1192  138.9199  157.4633 C   0  0  1  0  0  0  0  0  0  0  0  0
  150.6453  137.8776  158.2583 O   0  0  0  0  0  0  0  0  0  0  0  0
  151.3105  139.7759  156.9883 C   0  0  0  0  0  0  0  0  0  0  0  0
  150.9933  141.2106  156.9485 N   0  0  0  0  0  0  0  0  0  0  0  0
  150.2685  141.9063  156.0307 C   0  0  0  0  0  0  0  0  0  0  0  0
  150.2655  143.2129  156.4124 N   0  3  0  0  0  0  0  0  0  0  0  0
  150.9942  143.3541  157.5947 C   0  0  0  0  0  0  0  0  0  0  0  0
  151.2740  144.4798  158.3602 C   0  0  0  0  0  0  0  0  0  0  0  0
  152.0562  144.2919  159.5218 C   0  0  0  0  0  0  0  0  0  0  0  0
  152.3824  145.5023  160.3801 C   0  0  0  0  0  0  0  0  0  0  0  0
  152.5301  143.0039  159.8820 C   0  0  0  0  0  0  0  0  0  0  0  0
  153.3741  142.8134  161.1307 C   0  0  0  0  0  0  0  0  0  0  0  0
  152.2321  141.8711  159.0915 C   0  0  0  0  0  0  0  0  0  0  0  0
  151.4609  142.0727  157.9485 C   0  0  0  0  0  0  0  0  0  0  0  0
  149.5930  133.4622  151.1801 H   0  0  0  0  0  0  0  0  0  0  0  0
  148.6731  134.9442  151.4241 H   0  0  0  0  0  0  0  0  0  0  0  0
  148.2620  133.4894  152.3331 H   0  0  0  0  0  0  0  0  0  0  0  0
  150.4927  133.5979  153.4922 H   0  0  0  0  0  0  0  0  0  0  0  0
  150.8926  135.0420  152.5929 H   0  0  0  0  0  0  0  0  0  0  0  0
  148.7885  136.1469  153.6712 H   0  0  0  0  0  0  0  0  0  0  0  0
  148.7224  134.7396  154.7168 H   0  0  0  0  0  0  0  0  0  0  0  0
  150.0928  139.5425  154.0772 H   0  0  0  0  0  0  0  0  0  0  0  0
  149.0685  138.2092  153.5119 H   0  0  0  0  0  0  0  0  0  0  0  0
  150.8179  138.1550  153.2650 H   0  0  0  0  0  0  0  0  0  0  0  0
  148.5782  139.0060  155.9184 H   0  0  0  0  0  0  0  0  0  0  0  0
  148.7126  137.4456  156.6631 H   0  0  0  0  0  0  0  0  0  0  0  0
  149.4842  139.5365  158.0995 H   0  0  0  0  0  0  0  0  0  0  0  0
  150.7886  137.1219  157.7095 H   0  0  0  0  0  0  0  0  0  0  0  0
  152.1461  139.6625  157.6806 H   0  0  0  0  0  0  0  0  0  0  0  0
  151.6756  139.4482  156.0154 H   0  0  0  0  0  0  0  0  0  0  0  0
  149.7933  141.4968  155.1508 H   0  0  0  0  0  0  0  0  0  0  0  0
  150.9113  145.4577  158.0782 H   0  0  0  0  0  0  0  0  0  0  0  0
  153.4603  145.6589  160.4268 H   0  0  0  0  0  0  0  0  0  0  0  0
  152.0069  145.3655  161.3946 H   0  0  0  0  0  0  0  0  0  0  0  0
  151.9308  146.4098  159.9782 H   0  0  0  0  0  0  0  0  0  0  0  0
  153.6744  141.7726  161.2552 H   0  0  0  0  0  0  0  0  0  0  0  0
  152.8145  143.1068  162.0191 H   0  0  0  0  0  0  0  0  0  0  0  0
  154.2809  143.4164  161.0767 H   0  0  0  0  0  0  0  0  0  0  0  0
  152.5995  140.8940  159.3671 H   0  0  0  0  0  0  0  0  0  0  0  0
  149.8033  143.9522  155.8989 H   0  0  0  0  0  0  0  0  0  0  0  0
  1  2  1  0  0  0  0
  1 24  1  0  0  0  0
  1 25  1  0  0  0  0
  1 26  1  0  0  0  0
  2  3  1  0  0  0  0
  2 27  1  0  0  0  0
  2 28  1  0  0  0  0
  3  4  1  0  0  0  0
  3 29  1  0  0  0  0
  3 30  1  0  0  0  0
  4  5  2  0  0  0  0
  4  6  2  0  0  0  0
  4  7  1  0  0  0  0
  7  8  1  0  0  0  0
  7  9  1  0  0  0  0
  8 31  1  0  0  0  0
  8 32  1  0  0  0  0
  8 33  1  0  0  0  0
  9 10  1  0  0  0  0
  9 34  1  0  0  0  0
  9 35  1  0  0  0  0
 10 11  1  0  0  0  0
 10 12  1  0  0  0  0
 10 36  1  0  0  0  0
 11 37  1  0  0  0  0
 12 13  1  0  0  0  0
 12 38  1  0  0  0  0
 12 39  1  0  0  0  0
 13 23  1  0  0  0  0
 13 14  1  0  0  0  0
 14 15  2  0  0  0  0
 14 40  1  0  0  0  0
 15 16  1  0  0  0  0
 15 49  1  0  0  0  0
 16 23  2  0  0  0  0
 16 17  1  0  0  0  0
 17 18  2  0  0  0  0
 17 41  1  0  0  0  0
 18 19  1  0  0  0  0
 18 20  1  0  0  0  0
 19 42  1  0  0  0  0
 19 43  1  0  0  0  0
 19 44  1  0  0  0  0
 20 21  1  0  0  0  0
 20 22  2  0  0  0  0
 21 45  1  0  0  0  0
 21 46  1  0  0  0  0
 21 47  1  0  0  0  0
 22 23  1  0  0  0  0
 22 48  1  0  0  0  0
M  CHG  1  15   1
M  END
> <s_m_source_file>
AV-unprocessed.smi

> <i_m_source_file_index>
2825

> <i_lp_mmshare_version>
43012

> <i_f3d_flags>
0

> <s_epik_input>
W0NIM11bQ0gyXVtDSDJdUyg9TykoPU8pTihbQ0gzXSlbQ0gyXVtDQEhdKFtPSF0pW0NIMl1uKFtjSF1uMSljKGMxMilbY0hdYyhbQ0gzXSljKFtjSF0yKVtDSDNd

> <s_epik_cmdline>
J2VwaWtfcHl0aG9uJywgJy1waCcsICc3LjAnLCAnLXRuJywgJzgnLCAnLW1hJywgJzIwMCcsICctbWV0YWxfYmluZGluZycsICctaW1hZScsICc8aW5maWxlLm1hZT4nLCAnLW9tYWUnLCAnPG91dGZpbGUubWFlPic=

> <r_epik_Ionization_Penalty>
1.0773

> <r_epik_Ionization_Penalty_Charging>
1.0773

> <r_epik_Ionization_Penalty_Neutral>
1.44651e-06

> <r_epik_State_Penalty>
1.13242

> <r_epik_Charging_Adjusted_Penalty>
2.20972

> <i_epik_Tot_Q>
1

> <i_epik_Tot_abs_Q>
1

> <r_epik_Metal_State_Penalty>
5.13045

> <b_epik_Metal_Only>
0

> <s_lp_Force_Field>
OPLS_2005

> <r_lp_Energy>
14.1853

> <b_lp_Chiralities_Consistent>
1

> <s_lp_Variant>
AV-unprocessed.smi:2825-4

> <Gold.Version>
5.8.1

> <Gold.Id.Protein>
6NUR|6NUR_protein|mol2

> <Gold.PLP.Fitness>
54.5075

> <Gold.PLP.PLP>
-46.4305

> <Gold.PLP.part.hbond>
-3.8045

> <Gold.PLP.part.metal>
0.0000

> <Gold.PLP.part.buried>
-7.8545

> <Gold.PLP.part.nonpolar>
-35.5917

> <Gold.PLP.part.repulsive>
0.0917

> <Gold.PLP.ligand.clash>
0.0000

> <Gold.PLP.ligand.torsion>
2.2928

> <Gold.PLP.Chemscore.Hbond>
3.3600

> <Gold.PLP.Chemscore.CHOScore>
0.0000

> <Gold.PLP.Chemscore.Metal>
0.0000

> <Gold.Chemscore.Hbonds>
donor molecule, donor type, donor heavy atom, donor atom, acceptor molecule, acceptor atom, score
      L1  H    15    49       P1  8028  0.42

> <Gold.PLP.Chemscore.Internal.Correction>
2.5827

> <Gold.Rescore>
     Score         DG    S(hbond)    S(metal)    S(lipo)     H(rot)  DE(clash)    DE(int)     intcor
     17.50     -20.13       2.62        0.00     105.43       2.51       0.18       2.46       ----

> <Gold.Chemscore.Fitness>
17.4952

> <Gold.Chemscore.DG>
-20.1334

> <Gold.Chemscore.ZeroCoef>
-5.4800

> <Gold.Chemscore.Hbond>
2.6184

> <Gold.Chemscore.Metal>
0.0000

> <Gold.Chemscore.Lipo>
105.4258

> <Gold.Chemscore.Internal_Hbond>
0.0000

> <Gold.Chemscore.DEClash>
0.1760

> <Gold.Chemscore.DEInternal>
2.4622

> <Gold.Chemscore.Rot>
2.5106

> <Gold.Chemscore.Internal.Correction>
   9.000000E+99

> <Gold.Chemscore.Hbonds>
donor molecule, donor type, donor heavy atom, donor atom, acceptor molecule, acceptor atom, score
      L1  H    15    49       P1  8028  0.21
      P1  H 10752 10763       L1     6  0.04

> <Gold.Chemscore.Hbond.Weighted>
-8.7456

> <Gold.Chemscore.Metal.Weighted>
-0.0000

> <Gold.Chemscore.Lipo.Weighted>
-12.3348

> <Gold.Chemscore.Internal_Hbond.Weighted>
0.0000

> <Gold.Chemscore.DEClash.Weighted>
0.1760

> <Gold.Chemscore.DEInternal.Weighted>
2.4622

> <Gold.Chemscore.Rot.Weighted>
6.4271

> <Gold.Chemscore.Internal.Correction.Weighted>
   9.000000E+99

> <Gold.Protein.RotatedTorsions>
[ 6907 6896 6895 6894 ] final  155.35 input  -60.11 | X-H torsion
[ 7974 7965 7964 7962 ] final  -60.85 input  175.53 | X-H torsion
[ 8008 7997 7996 7995 ] final  -86.36 input   59.86 | X-H torsion
[ 10167 10162 10161 10158 ] final  -67.45 input  -65.29 | X-H torsion
[ 10718 10713 10712 10709 ] final  148.43 input   66.30 | X-H torsion
[ 10763 10752 10751 10750 ] final   70.90 input  -60.55 | X-H torsion
[ 11005 11000 10999 10996 ] final  -10.67 input  -57.11 | X-H torsion

> <Gold.Protein.ActiveResidues>
 VAL166  LYS551  ARG553  GLY616  TRP617  ASP618  TYR619  PRO620  LYS621  CYS622 
 ASP623  PHE694  ASN695  SER759  ASP760  ASP761  ALA762  ILE779  LEU786  VAL792 
 PHE793  MET794  SER795  GLU796  ALA797  LYS798  CYS799  TRP800  GLU811  SER814 

> <Gold.Protein.RotatedAtoms>
  152.0454  133.3996  159.4354 H   0  0  0  0  0  0  0  0  0  0  0  0  # atno 6907 bound_to 6896
  150.6873  134.3367  159.4859 H   0  0  0  0  0  0  0  0  0  0  0  0  # atno 6908 bound_to 6896
  152.1171  134.9232  160.0615 H   0  0  0  0  0  0  0  0  0  0  0  0  # atno 6909 bound_to 6896
  145.8105  140.8601  143.0184 H   0  0  0  0  0  0  0  0  0  0  0  0  # atno 7974 bound_to 7965
  154.6510  140.0579  156.9955 H   0  0  0  0  0  0  0  0  0  0  0  0  # atno 8008 bound_to 7997
  155.1372  140.3262  155.4442 H   0  0  0  0  0  0  0  0  0  0  0  0  # atno 8009 bound_to 7997
  156.2576  140.1970  156.6489 H   0  0  0  0  0  0  0  0  0  0  0  0  # atno 8010 bound_to 7997
  140.5582  143.2312  151.6780 H   0  0  0  0  0  0  0  0  0  0  0  0  # atno 10167 bound_to 10162
  157.3087  131.0884  151.1333 H   0  0  0  0  0  0  0  0  0  0  0  0  # atno 10718 bound_to 10713
  153.0368  135.5157  154.7511 H   0  0  0  0  0  0  0  0  0  0  0  0  # atno 10763 bound_to 10752
  154.6481  135.2921  155.0023 H   0  0  0  0  0  0  0  0  0  0  0  0  # atno 10764 bound_to 10752
  154.0917  135.6649  153.4906 H   0  0  0  0  0  0  0  0  0  0  0  0  # atno 10765 bound_to 10752
  140.7472  133.8622  155.9015 H   0  0  0  0  0  0  0  0  0  0  0  0  # atno 11005 bound_to 11000
  144.6758  140.0389  143.7481 LP  0  0  0  0  0  0  0  0  0  0  0  0  # atno 17320 bound_to 7965
  145.9782  139.2921  143.1058 LP  0  0  0  0  0  0  0  0  0  0  0  0  # atno 17321 bound_to 7965
  139.5057  144.3706  152.0473 LP  0  0  0  0  0  0  0  0  0  0  0  0  # atno 17342 bound_to 10162
  140.2830  144.3838  150.6113 LP  0  0  0  0  0  0  0  0  0  0  0  0  # atno 17343 bound_to 10162
  157.2663  130.6683  149.5998 LP  0  0  0  0  0  0  0  0  0  0  0  0  # atno 17370 bound_to 10713
  155.9676  130.4493  150.5652 LP  0  0  0  0  0  0  0  0  0  0  0  0  # atno 17371 bound_to 10713
  140.9784  134.1438  157.4516 LP  0  0  0  0  0  0  0  0  0  0  0  0  # atno 17394 bound_to 11000
  139.8794  135.0002  156.5998 LP  0  0  0  0  0  0  0  0  0  0  0  0  # atno 17395 bound_to 11000

$$$$
