AV-unprocessed.smi:192|AV-procd|sdf|1495|dock5
  -GOLD-   2262019323D 1   1.00000     0.00000
 Structure written by MMmdl.
 58 60  0  0  0  0  0  0  0  0  1 V2000
  152.7514  142.4710  161.9877 C   0  0  0  0  0  0  0  0  0  0  0  0
  153.5665  142.2518  160.7048 C   0  0  0  0  0  0  0  0  0  0  0  0
  152.7623  142.4466  159.3977 C   0  0  0  0  0  0  0  0  0  0  0  0
  152.4579  143.9392  159.1381 C   0  0  0  0  0  0  0  0  0  0  0  0
  151.5638  144.5893  160.2046 C   0  0  0  0  0  0  0  0  0  0  0  0
  151.4524  141.6175  159.4345 C   0  0  0  0  0  0  0  0  0  0  0  0
  151.4662  140.4347  158.5715 N   0  0  0  0  0  0  0  0  0  0  0  0
  151.9313  139.1657  159.1276 C   0  0  0  0  0  0  0  0  0  0  0  0
  153.1429  138.5699  158.3881 C   0  0  0  0  0  0  0  0  0  0  0  0
  152.8202  137.4123  157.5396 C   0  0  0  0  0  0  0  0  0  0  0  0
  152.5668  136.5022  156.8718 N   0  0  0  0  0  0  0  0  0  0  0  0
  150.4979  140.3054  157.6324 C   0  0  0  0  0  0  0  0  0  0  0  0
  150.5307  141.1695  156.5870 N   0  0  0  0  0  0  0  0  0  0  0  0
  149.5900  141.1139  155.6399 C   0  0  0  0  0  0  0  0  0  0  0  0
  148.5531  140.2803  155.5415 N   0  0  0  0  0  0  0  0  0  0  0  0
  148.5289  139.3932  156.5774 C   0  0  0  0  0  0  0  0  0  0  0  0
  149.4538  139.3353  157.6584 C   0  0  0  0  0  0  0  0  0  0  0  0
  149.1052  138.3012  158.5193 N   0  0  0  0  0  0  0  0  0  0  0  0
  148.0273  137.7918  157.9901 C   0  0  0  0  0  0  0  0  0  0  0  0
  147.6261  138.3698  156.8075 N   0  0  0  0  0  0  0  0  0  0  0  0
  146.4596  138.0354  156.0449 C   0  0  0  0  0  0  0  0  0  0  0  0
  146.5421  137.0850  154.8487 C   0  0  0  0  0  0  0  0  0  0  0  0
  145.3933  137.8609  154.1643 C   0  0  0  0  0  0  0  0  0  0  0  0
  145.5518  138.1279  152.6572 C   0  0  0  0  0  0  0  0  0  0  0  0
  146.9083  138.2512  152.2822 O   0  0  0  0  0  0  0  0  0  0  0  0
  143.9611  137.3579  154.4451 C   0  0  0  0  0  0  0  0  0  0  0  0
  142.9939  138.0287  153.6641 O   0  0  0  0  0  0  0  0  0  0  0  0
  145.8321  139.0340  155.0695 C   0  0  0  0  0  0  0  0  0  0  0  0
  153.3934  142.3952  162.8655 H   0  0  0  0  0  0  0  0  0  0  0  0
  151.9591  141.7325  162.1028 H   0  0  0  0  0  0  0  0  0  0  0  0
  152.2946  143.4609  161.9990 H   0  0  0  0  0  0  0  0  0  0  0  0
  154.3978  142.9565  160.7311 H   0  0  0  0  0  0  0  0  0  0  0  0
  154.0181  141.2591  160.7189 H   0  0  0  0  0  0  0  0  0  0  0  0
  153.3832  142.0986  158.5718 H   0  0  0  0  0  0  0  0  0  0  0  0
  153.3898  144.4989  159.0486 H   0  0  0  0  0  0  0  0  0  0  0  0
  151.9494  144.0521  158.1819 H   0  0  0  0  0  0  0  0  0  0  0  0
  151.3049  145.6089  159.9184 H   0  0  0  0  0  0  0  0  0  0  0  0
  152.0555  144.6418  161.1753 H   0  0  0  0  0  0  0  0  0  0  0  0
  150.6331  144.0350  160.3289 H   0  0  0  0  0  0  0  0  0  0  0  0
  151.2634  141.2981  160.4600 H   0  0  0  0  0  0  0  0  0  0  0  0
  150.6000  142.2337  159.1600 H   0  0  0  0  0  0  0  0  0  0  0  0
  152.1841  139.3092  160.1787 H   0  0  0  0  0  0  0  0  0  0  0  0
  151.1079  138.4510  159.1156 H   0  0  0  0  0  0  0  0  0  0  0  0
  153.6381  139.3203  157.7718 H   0  0  0  0  0  0  0  0  0  0  0  0
  153.8790  138.2283  159.1158 H   0  0  0  0  0  0  0  0  0  0  0  0
  149.6794  141.8432  154.8484 H   0  0  0  0  0  0  0  0  0  0  0  0
  147.4966  136.9703  158.4492 H   0  0  0  0  0  0  0  0  0  0  0  0
  145.7210  137.6832  156.7668 H   0  0  0  0  0  0  0  0  0  0  0  0
  147.4880  137.1709  154.3103 H   0  0  0  0  0  0  0  0  0  0  0  0
  146.3225  136.0434  155.0847 H   0  0  0  0  0  0  0  0  0  0  0  0
  145.0912  137.3374  152.0638 H   0  0  0  0  0  0  0  0  0  0  0  0
  145.0517  139.0540  152.3724 H   0  0  0  0  0  0  0  0  0  0  0  0
  147.4026  137.5701  152.7115 H   0  0  0  0  0  0  0  0  0  0  0  0
  143.8689  136.2928  154.2316 H   0  0  0  0  0  0  0  0  0  0  0  0
  143.7025  137.4762  155.4977 H   0  0  0  0  0  0  0  0  0  0  0  0
  143.1185  138.9598  153.7657 H   0  0  0  0  0  0  0  0  0  0  0  0
  145.0155  139.6220  155.4900 H   0  0  0  0  0  0  0  0  0  0  0  0
  146.5780  139.6828  154.6061 H   0  0  0  0  0  0  0  0  0  0  0  0
  1  2  1  0  0  0  0
  1 29  1  0  0  0  0
  1 30  1  0  0  0  0
  1 31  1  0  0  0  0
  2  3  1  0  0  0  0
  2 32  1  0  0  0  0
  2 33  1  0  0  0  0
  3  4  1  0  0  0  0
  3  6  1  0  0  0  0
  3 34  1  0  0  0  0
  4  5  1  0  0  0  0
  4 35  1  0  0  0  0
  4 36  1  0  0  0  0
  5 37  1  0  0  0  0
  5 38  1  0  0  0  0
  5 39  1  0  0  0  0
  6  7  1  0  0  0  0
  6 40  1  0  0  0  0
  6 41  1  0  0  0  0
  7  8  1  0  0  0  0
  7 12  1  0  0  0  0
  8  9  1  0  0  0  0
  8 42  1  0  0  0  0
  8 43  1  0  0  0  0
  9 10  1  0  0  0  0
  9 44  1  0  0  0  0
  9 45  1  0  0  0  0
 10 11  3  0  0  0  0
 12 17  1  0  0  0  0
 12 13  2  0  0  0  0
 13 14  1  0  0  0  0
 14 15  2  0  0  0  0
 14 46  1  0  0  0  0
 15 16  1  0  0  0  0
 16 20  1  0  0  0  0
 16 17  2  0  0  0  0
 17 18  1  0  0  0  0
 18 19  2  0  0  0  0
 19 20  1  0  0  0  0
 19 47  1  0  0  0  0
 20 21  1  0  0  0  0
 21 28  1  0  0  0  0
 21 22  1  0  0  0  0
 21 48  1  0  0  0  0
 22 23  1  0  0  0  0
 22 49  1  0  0  0  0
 22 50  1  0  0  0  0
 23 24  1  0  0  0  0
 23 26  1  0  0  0  0
 23 28  1  0  0  0  0
 24 25  1  0  0  0  0
 24 51  1  0  0  0  0
 24 52  1  0  0  0  0
 25 53  1  0  0  0  0
 26 27  1  0  0  0  0
 26 54  1  0  0  0  0
 26 55  1  0  0  0  0
 27 56  1  0  0  0  0
 28 57  1  0  0  0  0
 28 58  1  0  0  0  0
M  END
> <s_m_source_file>
AV-unprocessed.smi

> <i_m_source_file_index>
192

> <i_lp_mmshare_version>
43012

> <i_f3d_flags>
0

> <s_epik_input>
W0NIM11bQ0gyXVtDSF0oW0NIMl1bQ0gzXSlbQ0gyXU4oW0NIMl1bQ0gyXUMjTiljKG5bY0hdbjEpYyhjMTIpbltjSF1uMltDSF0oW0NIMl0zKVtDSDJdQzMoW0NIMl1bT0hdKVtDSDJdW09IXQ==

> <s_epik_cmdline>
J2VwaWtfcHl0aG9uJywgJy1waCcsICc3LjAnLCAnLXRuJywgJzgnLCAnLW1hJywgJzIwMCcsICctbWV0YWxfYmluZGluZycsICctaW1hZScsICc8aW5maWxlLm1hZT4nLCAnLW9tYWUnLCAnPG91dGZpbGUubWFlPic=

> <r_lp_tautomer_probability>
1

> <r_epik_Ionization_Penalty>
0.000545077

> <r_epik_Ionization_Penalty_Charging>
0

> <r_epik_Ionization_Penalty_Neutral>
0.000545077

> <r_epik_State_Penalty>
0.000259443

> <r_epik_Charging_Adjusted_Penalty>
0.000259443

> <i_epik_Tot_Q>
0

> <i_epik_Tot_abs_Q>
0

> <r_epik_Metal_State_Penalty>
-0

> <b_epik_Metal_Only>
0

> <s_lp_Force_Field>
OPLS_2005

> <r_lp_Energy>
36.5324

> <b_lp_Chiralities_Consistent>
1

> <s_lp_Variant>
AV-unprocessed.smi:192-1

> <Gold.Version>
5.8.1

> <Gold.Id.Protein>
6NUR|6NUR_protein|mol2

> <Gold.PLP.Fitness>
50.9251

> <Gold.PLP.PLP>
-44.8191

> <Gold.PLP.part.hbond>
-5.1201

> <Gold.PLP.part.metal>
0.0000

> <Gold.PLP.part.buried>
-5.7228

> <Gold.PLP.part.nonpolar>
-34.2829

> <Gold.PLP.part.repulsive>
0.1299

> <Gold.PLP.ligand.clash>
0.0000

> <Gold.PLP.ligand.torsion>
3.5633

> <Gold.PLP.Chemscore.Hbond>
3.7273

> <Gold.PLP.Chemscore.CHOScore>
0.0000

> <Gold.PLP.Chemscore.Metal>
0.0000

> <Gold.Chemscore.Hbonds>
donor molecule, donor type, donor heavy atom, donor atom, acceptor molecule, acceptor atom, score
      L1  H    25    53       P1  7948  0.31
      L1  H    27    56       P1 10175  0.67
      P1  H 10752 10764       L1    11  0.80

> <Gold.PLP.Chemscore.Internal.Correction>
2.0509

> <Gold.Rescore>
     Score         DG    S(hbond)    S(metal)    S(lipo)     H(rot)  DE(clash)    DE(int)     intcor
     10.28     -16.69       3.25        0.00      96.47       4.27       0.19       6.23       ----

> <Gold.Chemscore.Fitness>
10.2750

> <Gold.Chemscore.DG>
-16.6915

> <Gold.Chemscore.ZeroCoef>
-5.4800

> <Gold.Chemscore.Hbond>
3.2473

> <Gold.Chemscore.Metal>
0.0000

> <Gold.Chemscore.Lipo>
96.4732

> <Gold.Chemscore.Internal_Hbond>
0.0000

> <Gold.Chemscore.DEClash>
0.1906

> <Gold.Chemscore.DEInternal>
6.2259

> <Gold.Chemscore.Rot>
4.2663

> <Gold.Chemscore.Internal.Correction>
   9.000000E+99

> <Gold.Chemscore.Hbonds>
donor molecule, donor type, donor heavy atom, donor atom, acceptor molecule, acceptor atom, score
      L1  H    25    53       P1  7948  0.31
      L1  H    27    56       P1 10175  0.64
      P1  H 10752 10764       L1    11  0.78

> <Gold.Chemscore.Hbond.Weighted>
-10.8460

> <Gold.Chemscore.Metal.Weighted>
-0.0000

> <Gold.Chemscore.Lipo.Weighted>
-11.2874

> <Gold.Chemscore.Internal_Hbond.Weighted>
0.0000

> <Gold.Chemscore.DEClash.Weighted>
0.1906

> <Gold.Chemscore.DEInternal.Weighted>
6.2259

> <Gold.Chemscore.Rot.Weighted>
10.9218

> <Gold.Chemscore.Internal.Correction.Weighted>
   9.000000E+99

> <Gold.Protein.RotatedTorsions>
[ 6907 6896 6895 6894 ] final  -93.11 input  -60.11 | X-H torsion
[ 7974 7965 7964 7962 ] final   46.92 input  175.53 | X-H torsion
[ 8008 7997 7996 7995 ] final  -42.80 input   59.86 | X-H torsion
[ 10167 10162 10161 10158 ] final  171.91 input  -65.29 | X-H torsion
[ 10718 10713 10712 10709 ] final -160.33 input   66.30 | X-H torsion
[ 10763 10752 10751 10750 ] final   -6.95 input  -60.55 | X-H torsion
[ 11005 11000 10999 10996 ] final   23.04 input  -57.11 | X-H torsion

> <Gold.Protein.ActiveResidues>
 VAL166  LYS551  ARG553  GLY616  TRP617  ASP618  TYR619  PRO620  LYS621  CYS622 
 ASP623  PHE694  ASN695  SER759  ASP760  ASP761  ALA762  ILE779  LEU786  VAL792 
 PHE793  MET794  SER795  GLU796  ALA797  LYS798  CYS799  TRP800  GLU811  SER814 

> <Gold.Protein.RotatedAtoms>
  150.6917  134.2018  159.4324 H   0  0  0  0  0  0  0  0  0  0  0  0  # atno 6907 bound_to 6896
  151.9984  134.9939  160.0573 H   0  0  0  0  0  0  0  0  0  0  0  0  # atno 6908 bound_to 6896
  152.1602  133.4542  159.4894 H   0  0  0  0  0  0  0  0  0  0  0  0  # atno 6909 bound_to 6896
  146.0345  139.4804  142.9817 H   0  0  0  0  0  0  0  0  0  0  0  0  # atno 7974 bound_to 7965
  154.3998  140.1464  156.3414 H   0  0  0  0  0  0  0  0  0  0  0  0  # atno 8008 bound_to 7997
  155.8353  140.3464  155.5576 H   0  0  0  0  0  0  0  0  0  0  0  0  # atno 8009 bound_to 7997
  155.8145  140.0889  157.1875 H   0  0  0  0  0  0  0  0  0  0  0  0  # atno 8010 bound_to 7997
  139.5060  144.3433  151.9996 H   0  0  0  0  0  0  0  0  0  0  0  0  # atno 10167 bound_to 10162
  156.5807  130.8728  151.2863 H   0  0  0  0  0  0  0  0  0  0  0  0  # atno 10718 bound_to 10713
  153.4195  135.7009  153.6304 H   0  0  0  0  0  0  0  0  0  0  0  0  # atno 10763 bound_to 10752
  153.4764  135.3703  155.2419 H   0  0  0  0  0  0  0  0  0  0  0  0  # atno 10764 bound_to 10752
  154.8721  135.4055  154.3561 H   0  0  0  0  0  0  0  0  0  0  0  0  # atno 10765 bound_to 10752
  140.3740  134.1992  155.7665 H   0  0  0  0  0  0  0  0  0  0  0  0  # atno 11005 bound_to 11000
  145.6986  141.0143  143.1516 LP  0  0  0  0  0  0  0  0  0  0  0  0  # atno 17320 bound_to 7965
  144.7045  139.8617  143.7434 LP  0  0  0  0  0  0  0  0  0  0  0  0  # atno 17321 bound_to 7965
  140.2871  144.3795  150.6100 LP  0  0  0  0  0  0  0  0  0  0  0  0  # atno 17342 bound_to 10162
  140.5974  143.2167  151.7137 LP  0  0  0  0  0  0  0  0  0  0  0  0  # atno 17343 bound_to 10162
  157.7327  130.9719  150.1942 LP  0  0  0  0  0  0  0  0  0  0  0  0  # atno 17370 bound_to 10713
  156.2634  130.3713  149.8106 LP  0  0  0  0  0  0  0  0  0  0  0  0  # atno 17371 bound_to 10713
  141.1945  133.8126  157.0753 LP  0  0  0  0  0  0  0  0  0  0  0  0  # atno 17394 bound_to 11000
  140.0530  134.9795  157.1170 LP  0  0  0  0  0  0  0  0  0  0  0  0  # atno 17395 bound_to 11000

$$$$
