AV-unprocessed.smi:99|AV-procd|sdf|895|dock1
  -GOLD-   2262017393D 1   1.00000     0.00000
 Structure written by MMmdl.
 52 55  0  0  0  0  0  0  0  0  2 V2000
  147.5133  136.7395  158.7437 O   0  0  0  0  0  0  0  0  0  0  0  0
  147.5670  135.7245  159.4412 C   0  0  0  0  0  0  0  0  0  0  0  0
  147.5793  134.4747  158.9398 O   0  0  0  0  0  0  0  0  0  0  0  0
  147.7589  134.2713  157.5484 C   0  0  0  0  0  0  0  0  0  0  0  0
  149.0537  133.4712  157.3203 C   0  0  2  0  0  0  0  0  0  0  0  0
  150.1615  134.1804  157.8764 O   0  0  0  0  0  0  0  0  0  0  0  0
  150.8723  134.8835  156.8911 C   0  0  2  0  0  0  0  0  0  0  0  0
  150.9228  136.3560  157.2492 N   0  0  0  0  0  0  0  0  0  0  0  0
  150.3264  136.8460  158.3998 C   0  0  0  0  0  0  0  0  0  0  0  0
  150.3772  138.1571  158.7129 C   0  0  0  0  0  0  0  0  0  0  0  0
  151.0776  139.0803  157.8245 C   0  0  0  0  0  0  0  0  0  0  0  0
  151.1184  140.2736  158.1179 O   0  0  0  0  0  0  0  0  0  0  0  0
  151.6610  138.5725  156.7007 N   0  5  0  0  0  0  0  0  0  0  0  0
  151.6100  137.2464  156.3805 C   0  0  0  0  0  0  0  0  0  0  0  0
  152.1308  136.7759  155.3683 O   0  0  0  0  0  0  0  0  0  0  0  0
  150.1901  134.6059  155.5336 C   0  0  2  0  0  0  0  0  0  0  0  0
  149.3020  135.6380  155.1332 O   0  0  0  0  0  0  0  0  0  0  0  0
  149.4553  133.3124  155.8541 C   0  0  2  0  0  0  0  0  0  0  0  0
  148.3794  133.0098  154.9715 O   0  0  0  0  0  0  0  0  0  0  0  0
  147.7714  131.8050  155.0049 C   0  0  0  0  0  0  0  0  0  0  0  0
  148.0503  130.9203  155.8165 O   0  0  0  0  0  0  0  0  0  0  0  0
  146.7282  131.6551  153.9497 C   0  0  0  0  0  0  0  0  0  0  0  0
  146.5688  132.6751  152.9827 C   0  0  0  0  0  0  0  0  0  0  0  0
  145.5914  132.5618  151.9749 C   0  0  0  0  0  0  0  0  0  0  0  0
  144.7610  131.4269  151.9222 C   0  0  0  0  0  0  0  0  0  0  0  0
  144.9094  130.4056  152.8784 C   0  0  0  0  0  0  0  0  0  0  0  0
  145.8863  130.5170  153.8870 C   0  0  0  0  0  0  0  0  0  0  0  0
  147.6235  135.7521  160.9312 C   0  0  0  0  0  0  0  0  0  0  0  0
  147.4053  134.5568  161.6555 C   0  0  0  0  0  0  0  0  0  0  0  0
  147.4501  134.5525  163.0633 C   0  0  0  0  0  0  0  0  0  0  0  0
  147.7125  135.7439  163.7641 C   0  0  0  0  0  0  0  0  0  0  0  0
  147.9302  136.9398  163.0555 C   0  0  0  0  0  0  0  0  0  0  0  0
  147.8864  136.9461  161.6475 C   0  0  0  0  0  0  0  0  0  0  0  0
  146.9022  133.7172  157.1627 H   0  0  0  0  0  0  0  0  0  0  0  0
  147.7887  135.2291  157.0295 H   0  0  0  0  0  0  0  0  0  0  0  0
  148.9611  132.4921  157.7911 H   0  0  0  0  0  0  0  0  0  0  0  0
  151.9069  134.5378  156.9270 H   0  0  0  0  0  0  0  0  0  0  0  0
  149.8075  136.1822  159.0730 H   0  0  0  0  0  0  0  0  0  0  0  0
  149.9064  138.5214  159.6141 H   0  0  0  0  0  0  0  0  0  0  0  0
  150.9458  134.4697  154.7593 H   0  0  0  0  0  0  0  0  0  0  0  0
  148.8735  135.3720  154.3344 H   0  0  0  0  0  0  0  0  0  0  0  0
  150.1811  132.4978  155.8207 H   0  0  0  0  0  0  0  0  0  0  0  0
  147.1943  133.5559  153.0035 H   0  0  0  0  0  0  0  0  0  0  0  0
  145.4788  133.3471  151.2421 H   0  0  0  0  0  0  0  0  0  0  0  0
  144.0111  131.3401  151.1497 H   0  0  0  0  0  0  0  0  0  0  0  0
  144.2719  129.5343  152.8395 H   0  0  0  0  0  0  0  0  0  0  0  0
  145.9721  129.7151  154.6058 H   0  0  0  0  0  0  0  0  0  0  0  0
  147.2014  133.6298  161.1393 H   0  0  0  0  0  0  0  0  0  0  0  0
  147.2825  133.6335  163.6053 H   0  0  0  0  0  0  0  0  0  0  0  0
  147.7462  135.7407  164.8437 H   0  0  0  0  0  0  0  0  0  0  0  0
  148.1310  137.8552  163.5925 H   0  0  0  0  0  0  0  0  0  0  0  0
  148.0552  137.8817  161.1347 H   0  0  0  0  0  0  0  0  0  0  0  0
  1  2  2  0  0  0  0
  2  3  1  0  0  0  0
  2 28  1  0  0  0  0
  3  4  1  0  0  0  0
  4  5  1  0  0  0  0
  4 34  1  0  0  0  0
  4 35  1  0  0  0  0
  5 18  1  0  0  0  0
  5  6  1  0  0  0  0
  5 36  1  0  0  0  0
  6  7  1  0  0  0  0
  7  8  1  0  0  0  0
  7 16  1  0  0  0  0
  7 37  1  0  0  0  0
  8 14  1  0  0  0  0
  8  9  1  0  0  0  0
  9 10  2  0  0  0  0
  9 38  1  0  0  0  0
 10 11  1  0  0  0  0
 10 39  1  0  0  0  0
 11 12  2  0  0  0  0
 11 13  1  0  0  0  0
 13 14  1  0  0  0  0
 14 15  2  0  0  0  0
 16 17  1  0  0  0  0
 16 18  1  0  0  0  0
 16 40  1  0  0  0  0
 17 41  1  0  0  0  0
 18 19  1  0  0  0  0
 18 42  1  0  0  0  0
 19 20  1  0  0  0  0
 20 21  2  0  0  0  0
 20 22  1  0  0  0  0
 22 27  1  0  0  0  0
 22 23  2  0  0  0  0
 23 24  1  0  0  0  0
 23 43  1  0  0  0  0
 24 25  2  0  0  0  0
 24 44  1  0  0  0  0
 25 26  1  0  0  0  0
 25 45  1  0  0  0  0
 26 27  2  0  0  0  0
 26 46  1  0  0  0  0
 27 47  1  0  0  0  0
 28 33  1  0  0  0  0
 28 29  2  0  0  0  0
 29 30  1  0  0  0  0
 29 48  1  0  0  0  0
 30 31  2  0  0  0  0
 30 49  1  0  0  0  0
 31 32  1  0  0  0  0
 31 50  1  0  0  0  0
 32 33  2  0  0  0  0
 32 51  1  0  0  0  0
 33 52  1  0  0  0  0
M  CHG  1  13  -1
M  END
> <s_m_source_file>
AV-unprocessed.smi

> <i_m_source_file_index>
99

> <i_lp_mmshare_version>
43012

> <i_f3d_flags>
0

> <s_epik_input>
W2NIXTFbY0hdW2NIXVtjSF1bY0hdYzFDKD1PKU9bQ0gyXVtDQEBIXTJPW0NAQEhdKG4zW2NIXVtjSF1jKD1PKVtuSF1jMz1PKVtDQEBIXShbT0hdKVtDQEhdMk9DKD1PKWM0W2NIXVtjSF1bY0hdW2NIXVtjSF00

> <s_epik_cmdline>
J2VwaWtfcHl0aG9uJywgJy1waCcsICc3LjAnLCAnLXRuJywgJzgnLCAnLW1hJywgJzIwMCcsICctbWV0YWxfYmluZGluZycsICctaW1hZScsICc8aW5maWxlLm1hZT4nLCAnLW9tYWUnLCAnPG91dGZpbGUubWFlPic=

> <r_lp_tautomer_probability>
1

> <r_epik_Ionization_Penalty>
2.89159

> <r_epik_Ionization_Penalty_Charging>
2.1077e-08

> <r_epik_Ionization_Penalty_Neutral>
2.89159

> <r_epik_State_Penalty>
2.88671

> <r_epik_Charging_Adjusted_Penalty>
2.88671

> <i_epik_Tot_Q>
-1

> <i_epik_Tot_abs_Q>
1

> <r_epik_Metal_State_Penalty>
0.0727308

> <b_epik_Metal_Only>
1

> <s_epik_Chemistry_Notes>
This compound has an ester and may undergo hydrolysis at high or low pH. This compound contains an acetal/aminal-like group ( X-CH(R)-Y where X, Y are N, S, or O) that may be acid/base labile, releasing an aldehyde.

> <s_lp_Force_Field>
OPLS_2005

> <r_lp_Energy>
56.6396

> <b_lp_Chiralities_Consistent>
1

> <s_lp_Variant>
AV-unprocessed.smi:99-31

> <Gold.Version>
5.8.1

> <Gold.Id.Protein>
6NUR|6NUR_protein|mol2

> <Gold.PLP.Fitness>
57.9345

> <Gold.PLP.PLP>
-51.8282

> <Gold.PLP.part.hbond>
-3.0000

> <Gold.PLP.part.metal>
0.0000

> <Gold.PLP.part.buried>
-7.7733

> <Gold.PLP.part.nonpolar>
-41.3556

> <Gold.PLP.part.repulsive>
0.1970

> <Gold.PLP.ligand.clash>
0.0000

> <Gold.PLP.ligand.torsion>
0.6487

> <Gold.PLP.Chemscore.Hbond>
2.3540

> <Gold.PLP.Chemscore.CHOScore>
0.0000

> <Gold.PLP.Chemscore.Metal>
0.0000

> <Gold.Chemscore.Hbonds>
donor molecule, donor type, donor heavy atom, donor atom, acceptor molecule, acceptor atom, score
      P1  H  6896  6908       L1     6  0.88
      P1  H 10752 10764       L1    15  0.99

> <Gold.PLP.Chemscore.Internal.Correction>
0.3416

> <Gold.Rescore>
     Score         DG    S(hbond)    S(metal)    S(lipo)     H(rot)  DE(clash)    DE(int)     intcor
     15.79     -18.95       2.36        0.00     116.30       3.13       0.00       3.16       ----

> <Gold.Chemscore.Fitness>
15.7854

> <Gold.Chemscore.DG>
-18.9484

> <Gold.Chemscore.ZeroCoef>
-5.4800

> <Gold.Chemscore.Hbond>
2.3611

> <Gold.Chemscore.Metal>
0.0000

> <Gold.Chemscore.Lipo>
116.2976

> <Gold.Chemscore.Internal_Hbond>
0.0000

> <Gold.Chemscore.DEClash>
0.0000

> <Gold.Chemscore.DEInternal>
3.1630

> <Gold.Chemscore.Rot>
3.1346

> <Gold.Chemscore.Internal.Correction>
   9.000000E+99

> <Gold.Chemscore.Hbonds>
donor molecule, donor type, donor heavy atom, donor atom, acceptor molecule, acceptor atom, score
      P1  H  6896  6908       L1     6  0.80
      P1  H 10752 10764       L1    15  0.92

> <Gold.Chemscore.Hbond.Weighted>
-7.8862

> <Gold.Chemscore.Metal.Weighted>
-0.0000

> <Gold.Chemscore.Lipo.Weighted>
-13.6068

> <Gold.Chemscore.Internal_Hbond.Weighted>
0.0000

> <Gold.Chemscore.DEClash.Weighted>
0.0000

> <Gold.Chemscore.DEInternal.Weighted>
3.1630

> <Gold.Chemscore.Rot.Weighted>
8.0246

> <Gold.Chemscore.Internal.Correction.Weighted>
   9.000000E+99

> <Gold.Protein.RotatedTorsions>
[ 6907 6896 6895 6894 ] final  123.34 input  -60.11 | X-H torsion
[ 7974 7965 7964 7962 ] final  -22.00 input  175.53 | X-H torsion
[ 8008 7997 7996 7995 ] final   66.70 input   59.86 | X-H torsion
[ 10167 10162 10161 10158 ] final   95.55 input  -65.29 | X-H torsion
[ 10718 10713 10712 10709 ] final   -9.97 input   66.30 | X-H torsion
[ 10763 10752 10751 10750 ] final  -55.51 input  -60.55 | X-H torsion
[ 11005 11000 10999 10996 ] final -177.16 input  -57.11 | X-H torsion

> <Gold.Protein.ActiveResidues>
 VAL166  LYS551  ARG553  GLY616  TRP617  ASP618  TYR619  PRO620  LYS621  CYS622 
 ASP623  PHE694  ASN695  SER759  ASP760  ASP761  ALA762  ILE779  LEU786  VAL792 
 PHE793  MET794  SER795  GLU796  ALA797  LYS798  CYS799  TRP800  GLU811  SER814 

> <Gold.Protein.RotatedAtoms>
  152.4169  133.7053  159.6447 H   0  0  0  0  0  0  0  0  0  0  0  0  # atno 6907 bound_to 6896
  150.8046  133.8523  159.3217 H   0  0  0  0  0  0  0  0  0  0  0  0  # atno 6908 bound_to 6896
  151.6250  135.1030  160.0161 H   0  0  0  0  0  0  0  0  0  0  0  0  # atno 6909 bound_to 6896
  146.1701  140.4418  142.8536 H   0  0  0  0  0  0  0  0  0  0  0  0  # atno 7974 bound_to 7965
  155.6815  140.3496  155.4857 H   0  0  0  0  0  0  0  0  0  0  0  0  # atno 8008 bound_to 7997
  155.9603  140.1136  157.0924 H   0  0  0  0  0  0  0  0  0  0  0  0  # atno 8009 bound_to 7997
  154.4141  140.1177  156.5156 H   0  0  0  0  0  0  0  0  0  0  0  0  # atno 8010 bound_to 7997
  139.7977  144.6826  150.9806 H   0  0  0  0  0  0  0  0  0  0  0  0  # atno 10167 bound_to 10162
  156.6803  130.5035  149.5973 H   0  0  0  0  0  0  0  0  0  0  0  0  # atno 10718 bound_to 10713
  154.1919  135.6426  153.5062 H   0  0  0  0  0  0  0  0  0  0  0  0  # atno 10763 bound_to 10752
  153.0033  135.5431  154.6406 H   0  0  0  0  0  0  0  0  0  0  0  0  # atno 10764 bound_to 10752
  154.5797  135.2924  155.0718 H   0  0  0  0  0  0  0  0  0  0  0  0  # atno 10765 bound_to 10752
  140.4440  134.6405  157.4771 H   0  0  0  0  0  0  0  0  0  0  0  0  # atno 11005 bound_to 11000
  144.8150  140.6452  143.6390 LP  0  0  0  0  0  0  0  0  0  0  0  0  # atno 17320 bound_to 7965
  145.4363  139.1542  143.3994 LP  0  0  0  0  0  0  0  0  0  0  0  0  # atno 17321 bound_to 7965
  140.7820  143.4314  151.0689 LP  0  0  0  0  0  0  0  0  0  0  0  0  # atno 17342 bound_to 10162
  139.7987  143.8115  152.3160 LP  0  0  0  0  0  0  0  0  0  0  0  0  # atno 17343 bound_to 10162
  156.1873  130.6537  151.1021 LP  0  0  0  0  0  0  0  0  0  0  0  0  # atno 17370 bound_to 10713
  157.7046  131.0762  150.6709 LP  0  0  0  0  0  0  0  0  0  0  0  0  # atno 17371 bound_to 10713
  140.0051  134.6777  155.9469 LP  0  0  0  0  0  0  0  0  0  0  0  0  # atno 17394 bound_to 11000
  141.1693  133.6537  156.4593 LP  0  0  0  0  0  0  0  0  0  0  0  0  # atno 17395 bound_to 11000

$$$$
