AV-unprocessed.smi:1717|AV-procd|sdf|6920|dock6
  -GOLD-   22720 8123D 1   1.00000     0.00000
 Structure written by MMmdl.
 40 41  0  0  0  0  0  0  0  0  3 V2000
  152.2932  139.8542  158.3857 C   0  0  0  0  0  0  0  0  0  0  0  0
  152.6758  139.8415  156.9788 N   0  5  0  0  0  0  0  0  0  0  0  0
  151.8074  140.0940  155.9631 C   0  0  0  0  0  0  0  0  0  0  0  0
  151.8558  139.7898  154.7664 O   0  0  0  0  0  0  0  0  0  0  0  0
  150.5804  140.8647  156.4631 C   0  0  0  0  0  0  0  0  0  0  0  0
  149.3496  140.3272  155.8318 N   0  3  2  0  0  0  0  0  0  0  0  0
  149.0738  140.9499  154.5125 C   0  0  0  0  0  0  0  0  0  0  0  0
  147.8833  140.2701  153.8152 C   0  0  0  0  0  0  0  0  0  0  0  0
  146.6266  140.3029  154.6997 C   0  0  1  0  0  0  0  0  0  0  0  0
  145.5435  139.5691  154.0514 N   0  0  0  0  0  0  0  0  0  0  0  0
  145.4077  138.2351  154.0503 C   0  0  0  0  0  0  0  0  0  0  0  0
  146.1917  137.4712  154.6131 O   0  0  0  0  0  0  0  0  0  0  0  0
  144.3205  137.8554  153.3596 N   0  0  0  0  0  0  0  0  0  0  0  0
  143.8530  136.5330  153.1550 C   0  0  0  0  0  0  0  0  0  0  0  0
  143.5325  135.8670  151.9356 C   0  0  0  0  0  0  0  0  0  0  0  0
  143.1282  134.6245  152.1598 N   0  0  0  0  0  0  0  0  0  0  0  0
  143.1877  134.4911  153.5038 N   0  0  0  0  0  0  0  0  0  0  0  0
  143.6236  135.6279  154.1479 C   0  0  0  0  0  0  0  0  0  0  0  0
  146.9487  139.6930  156.0759 C   0  0  0  0  0  0  0  0  0  0  0  0
  148.1594  140.3847  156.7227 C   0  0  0  0  0  0  0  0  0  0  0  0
  142.9308  133.6274  153.9605 H   0  0  0  0  0  0  0  0  0  0  0  0
  153.1186  139.5579  159.0328 H   0  0  0  0  0  0  0  0  0  0  0  0
  151.4716  139.1708  158.6014 H   0  0  0  0  0  0  0  0  0  0  0  0
  151.9780  140.8430  158.7199 H   0  0  0  0  0  0  0  0  0  0  0  0
  150.4880  140.8597  157.5516 H   0  0  0  0  0  0  0  0  0  0  0  0
  150.7242  141.9066  156.1735 H   0  0  0  0  0  0  0  0  0  0  0  0
  148.8766  142.0148  154.6458 H   0  0  0  0  0  0  0  0  0  0  0  0
  149.9547  140.8672  153.8745 H   0  0  0  0  0  0  0  0  0  0  0  0
  147.6843  140.7641  152.8632 H   0  0  0  0  0  0  0  0  0  0  0  0
  148.1459  139.2377  153.5790 H   0  0  0  0  0  0  0  0  0  0  0  0
  146.3280  141.3449  154.8318 H   0  0  0  0  0  0  0  0  0  0  0  0
  144.8503  140.1169  153.5631 H   0  0  0  0  0  0  0  0  0  0  0  0
  143.7672  138.5872  152.9382 H   0  0  0  0  0  0  0  0  0  0  0  0
  143.5762  136.2244  150.9175 H   0  0  0  0  0  0  0  0  0  0  0  0
  143.7283  135.6893  155.2213 H   0  0  0  0  0  0  0  0  0  0  0  0
  146.0850  139.7760  156.7371 H   0  0  0  0  0  0  0  0  0  0  0  0
  147.1562  138.6271  155.9712 H   0  0  0  0  0  0  0  0  0  0  0  0
  148.3747  139.9000  157.6750 H   0  0  0  0  0  0  0  0  0  0  0  0
  147.9209  141.4256  156.9466 H   0  0  0  0  0  0  0  0  0  0  0  0
  149.5378  139.3505  155.6544 H   0  0  0  0  0  0  0  0  0  0  0  0
  1  2  1  0  0  0  0
  1 22  1  0  0  0  0
  1 23  1  0  0  0  0
  1 24  1  0  0  0  0
  2  3  1  0  0  0  0
  3  4  2  0  0  0  0
  3  5  1  0  0  0  0
  5  6  1  0  0  0  0
  5 25  1  0  0  0  0
  5 26  1  0  0  0  0
  6 20  1  0  0  0  0
  6  7  1  0  0  0  0
  6 40  1  0  0  0  0
  7  8  1  0  0  0  0
  7 27  1  0  0  0  0
  7 28  1  0  0  0  0
  8  9  1  0  0  0  0
  8 29  1  0  0  0  0
  8 30  1  0  0  0  0
  9 10  1  0  0  0  0
  9 19  1  0  0  0  0
  9 31  1  0  0  0  0
 10 11  1  0  0  0  0
 10 32  1  0  0  0  0
 11 12  2  0  0  0  0
 11 13  1  0  0  0  0
 13 14  1  0  0  0  0
 13 33  1  0  0  0  0
 14 18  2  0  0  0  0
 14 15  1  0  0  0  0
 15 16  2  0  0  0  0
 15 34  1  0  0  0  0
 16 17  1  0  0  0  0
 17 21  1  0  0  0  0
 17 18  1  0  0  0  0
 18 35  1  0  0  0  0
 19 20  1  0  0  0  0
 19 36  1  0  0  0  0
 19 37  1  0  0  0  0
 20 38  1  0  0  0  0
 20 39  1  0  0  0  0
M  CHG  1   2  -1
M  CHG  1   6   1
M  END
> <s_m_source_file>
AV-unprocessed.smi

> <i_m_source_file_index>
1717

> <i_lp_mmshare_version>
43012

> <i_f3d_flags>
0

> <s_epik_input>
W0NIM11bTkhdQyg9TylbQ0gyXU4xW0NIMl1bQ0gyXVtDSF0oW0NIMl1bQ0gyXTEpW05IXUMoPU8pW05IXWMyW2NIXW5bbkhdW2NIXTI=

> <s_epik_cmdline>
J2VwaWtfcHl0aG9uJywgJy1waCcsICc3LjAnLCAnLXRuJywgJzgnLCAnLW1hJywgJzIwMCcsICctbWV0YWxfYmluZGluZycsICctaW1hZScsICc8aW5maWxlLm1hZT4nLCAnLW9tYWUnLCAnPG91dGZpbGUubWFlPic=

> <r_lp_tautomer_probability>
0.5

> <r_epik_Ionization_Penalty>
6.1395

> <r_epik_Ionization_Penalty_Charging>
6.13946

> <r_epik_Ionization_Penalty_Neutral>
4.21226e-05

> <r_epik_State_Penalty>
6.9595

> <r_epik_Charging_Adjusted_Penalty>
13.099

> <i_epik_Tot_Q>
0

> <i_epik_Tot_abs_Q>
2

> <r_epik_Metal_State_Penalty>
2.89141

> <b_epik_Metal_Only>
1

> <s_lp_Force_Field>
OPLS_2005

> <r_lp_Energy>
12.4493

> <b_lp_Chiralities_Consistent>
1

> <s_lp_Variant>
AV-unprocessed.smi:1717-4

> <Gold.Version>
5.8.1

> <Gold.Id.Protein>
6NUR|6NUR_protein|mol2

> <Gold.PLP.Fitness>
41.1995

> <Gold.PLP.PLP>
-23.8596

> <Gold.PLP.part.hbond>
-4.7375

> <Gold.PLP.part.metal>
0.0000

> <Gold.PLP.part.buried>
-2.6881

> <Gold.PLP.part.nonpolar>
-15.5453

> <Gold.PLP.part.repulsive>
0.3909

> <Gold.PLP.ligand.clash>
0.0000

> <Gold.PLP.ligand.torsion>
1.4764

> <Gold.PLP.Chemscore.Hbond>
5.8788

> <Gold.PLP.Chemscore.CHOScore>
0.8705

> <Gold.PLP.Chemscore.Metal>
0.0000

> <Gold.Chemscore.Hbonds>
donor molecule, donor type, donor heavy atom, donor atom, acceptor molecule, acceptor atom, score
      L1  H    10    32       P1 10175  1.00
      L1  H    13    33       P1 10175  0.94
      L1  H    17    21       P1 10957  0.94
      P1  H  7989  7998       L1     4  0.98
      P1  H  7997  8008       L1     2  2.00
      L1  C    15    34       P1 10171  0.81

> <Gold.PLP.Chemscore.Internal.Correction>
0.0451

> <Gold.Rescore>
     Score         DG    S(hbond)    S(metal)    S(lipo)     H(rot)  DE(clash)    DE(int)     intcor
     18.35     -21.50       4.67        0.00      42.01       1.75       0.00       3.15       ----

> <Gold.Chemscore.Fitness>
18.3484

> <Gold.Chemscore.DG>
-21.4999

> <Gold.Chemscore.ZeroCoef>
-5.4800

> <Gold.Chemscore.Hbond>
4.6696

> <Gold.Chemscore.Metal>
0.0000

> <Gold.Chemscore.Lipo>
42.0089

> <Gold.Chemscore.Internal_Hbond>
0.0000

> <Gold.Chemscore.DEClash>
0.0025

> <Gold.Chemscore.DEInternal>
3.1490

> <Gold.Chemscore.Rot>
1.7546

> <Gold.Chemscore.Internal.Correction>
   9.000000E+99

> <Gold.Chemscore.Hbonds>
donor molecule, donor type, donor heavy atom, donor atom, acceptor molecule, acceptor atom, score
      L1  H    10    32       P1 10175  0.99
      L1  H    13    33       P1 10175  0.92
      L1  H    17    21       P1 10957  0.90
      P1  H  7989  7998       L1     4  0.93
      P1  H  7997  8008       L1     2  0.86

> <Gold.Chemscore.Hbond.Weighted>
-15.5966

> <Gold.Chemscore.Metal.Weighted>
-0.0000

> <Gold.Chemscore.Lipo.Weighted>
-4.9150

> <Gold.Chemscore.Internal_Hbond.Weighted>
0.0000

> <Gold.Chemscore.DEClash.Weighted>
0.0025

> <Gold.Chemscore.DEInternal.Weighted>
3.1490

> <Gold.Chemscore.Rot.Weighted>
4.4917

> <Gold.Chemscore.Internal.Correction.Weighted>
   9.000000E+99

> <Gold.Protein.RotatedTorsions>
[ 6907 6896 6895 6894 ] final  -32.91 input  -60.11 | X-H torsion
[ 7974 7965 7964 7962 ] final  156.12 input  175.53 | X-H torsion
[ 8008 7997 7996 7995 ] final  -60.06 input   59.86 | X-H torsion
[ 10167 10162 10161 10158 ] final  -31.48 input  -65.29 | X-H torsion
[ 10718 10713 10712 10709 ] final   39.24 input   66.30 | X-H torsion
[ 10763 10752 10751 10750 ] final  143.97 input  -60.55 | X-H torsion
[ 11005 11000 10999 10996 ] final  -15.25 input  -57.11 | X-H torsion

> <Gold.Protein.ActiveResidues>
 VAL166  LYS551  ARG553  GLY616  TRP617  ASP618  TYR619  PRO620  LYS621  CYS622 
 ASP623  PHE694  ASN695  SER759  ASP760  ASP761  ALA762  ILE779  LEU786  VAL792 
 PHE793  MET794  SER795  GLU796  ALA797  LYS798  CYS799  TRP800  GLU811  SER814 

> <Gold.Protein.RotatedAtoms>
  151.0726  134.9808  159.8315 H   0  0  0  0  0  0  0  0  0  0  0  0  # atno 6907 bound_to 6896
  152.5410  134.2281  159.8824 H   0  0  0  0  0  0  0  0  0  0  0  0  # atno 6908 bound_to 6896
  151.2306  133.4409  159.2637 H   0  0  0  0  0  0  0  0  0  0  0  0  # atno 6909 bound_to 6896
  144.7983  139.7160  143.6193 H   0  0  0  0  0  0  0  0  0  0  0  0  # atno 7974 bound_to 7965
  154.4381  140.1048  156.6214 H   0  0  0  0  0  0  0  0  0  0  0  0  # atno 8008 bound_to 7997
  155.5703  140.3489  155.4495 H   0  0  0  0  0  0  0  0  0  0  0  0  # atno 8009 bound_to 7997
  156.0395  140.1278  157.0161 H   0  0  0  0  0  0  0  0  0  0  0  0  # atno 8010 bound_to 7997
  140.7235  143.3767  151.1675 H   0  0  0  0  0  0  0  0  0  0  0  0  # atno 10167 bound_to 10162
  157.3683  130.7687  149.7099 H   0  0  0  0  0  0  0  0  0  0  0  0  # atno 10718 bound_to 10713
  153.9811  135.2941  155.3420 H   0  0  0  0  0  0  0  0  0  0  0  0  # atno 10763 bound_to 10752
  154.7268  135.5085  153.8902 H   0  0  0  0  0  0  0  0  0  0  0  0  # atno 10764 bound_to 10752
  153.0854  135.6691  154.0075 H   0  0  0  0  0  0  0  0  0  0  0  0  # atno 10765 bound_to 10752
  140.7947  133.8260  155.9413 H   0  0  0  0  0  0  0  0  0  0  0  0  # atno 11005 bound_to 11000
  146.2257  139.5718  142.9589 LP  0  0  0  0  0  0  0  0  0  0  0  0  # atno 17320 bound_to 7965
  145.5618  141.0403  143.2222 LP  0  0  0  0  0  0  0  0  0  0  0  0  # atno 17321 bound_to 7965
  139.7349  143.9014  152.3031 LP  0  0  0  0  0  0  0  0  0  0  0  0  # atno 17342 bound_to 10162
  139.8816  144.7014  150.8871 LP  0  0  0  0  0  0  0  0  0  0  0  0  # atno 17343 bound_to 10162
  155.9750  130.4094  150.3879 LP  0  0  0  0  0  0  0  0  0  0  0  0  # atno 17370 bound_to 10713
  157.1966  131.0428  151.2672 LP  0  0  0  0  0  0  0  0  0  0  0  0  # atno 17371 bound_to 10713
  140.9354  134.1968  157.4835 LP  0  0  0  0  0  0  0  0  0  0  0  0  # atno 17394 bound_to 11000
  139.8727  134.9850  156.5264 LP  0  0  0  0  0  0  0  0  0  0  0  0  # atno 17395 bound_to 11000

$$$$
