AV-unprocessed.smi:2047|AV-procd|sdf|8320|dock1
  -GOLD-   2272010583D 1   1.00000     0.00000
 Structure written by MMmdl.
 42 44  0  0  0  0  0  0  0  0  3 V2000
  149.4858  135.8662  158.5017 O   0  0  0  0  0  0  0  0  0  0  0  0
  149.3508  136.9081  159.1535 C   0  0  0  0  0  0  0  0  0  0  0  0
  149.9629  138.0365  158.7568 N   0  0  0  0  0  0  0  0  0  0  0  0
  150.7920  138.2371  157.6187 C   0  0  0  0  0  0  0  0  0  0  0  0
  150.6497  137.4676  156.4373 C   0  0  0  0  0  0  0  0  0  0  0  0
  151.4791  137.7317  155.3292 C   0  0  0  0  0  0  0  0  0  0  0  0
  152.4291  138.7665  155.4168 C   0  0  0  0  0  0  0  0  0  0  0  0
  152.5278  139.4916  156.5510 N   0  3  0  0  0  0  0  0  0  0  0  0
  151.7542  139.2775  157.6441 C   0  0  0  0  0  0  0  0  0  0  0  0
  151.9352  140.0872  158.7784 N   0  0  0  0  0  0  0  0  0  0  0  0
  153.1986  139.9131  159.4749 C   0  0  0  0  0  0  0  0  0  0  0  0
  153.3255  141.1275  160.3985 C   0  0  0  0  0  0  0  0  0  0  0  0
  152.3926  142.1838  159.7926 C   0  0  0  0  0  0  0  0  0  0  0  0
  151.7924  141.5151  158.5533 C   0  0  0  0  0  0  0  0  0  0  0  0
  148.6391  137.0874  160.2983 N   0  5  0  0  0  0  0  0  0  0  0  0
  147.8329  136.0540  160.9548 C   0  0  1  0  0  0  0  0  0  0  0  0
  146.6606  136.6871  161.7303 C   0  0  0  0  0  0  0  0  0  0  0  0
  145.6639  135.5809  162.1034 C   0  0  0  0  0  0  0  0  0  0  0  0
  145.7478  134.3560  160.7403 S   0  0  0  0  0  0  0  0  0  0  0  0
  146.0710  133.0354  161.3030 O   0  0  0  0  0  0  0  0  0  0  0  0
  144.5893  134.5313  159.8504 O   0  0  0  0  0  0  0  0  0  0  0  0
  147.2362  135.0695  159.9354 C   0  0  0  0  0  0  0  0  0  0  0  0
  149.9018  138.8121  159.4002 H   0  0  0  0  0  0  0  0  0  0  0  0
  149.9064  136.6881  156.3632 H   0  0  0  0  0  0  0  0  0  0  0  0
  151.3824  137.1508  154.4238 H   0  0  0  0  0  0  0  0  0  0  0  0
  153.1038  139.0387  154.6182 H   0  0  0  0  0  0  0  0  0  0  0  0
  153.2117  138.9785  160.0362 H   0  0  0  0  0  0  0  0  0  0  0  0
  154.0285  139.8930  158.7670 H   0  0  0  0  0  0  0  0  0  0  0  0
  152.9939  140.8737  161.4062 H   0  0  0  0  0  0  0  0  0  0  0  0
  154.3571  141.4738  160.4660 H   0  0  0  0  0  0  0  0  0  0  0  0
  151.6061  142.4357  160.5052 H   0  0  0  0  0  0  0  0  0  0  0  0
  152.9173  143.1050  159.5376 H   0  0  0  0  0  0  0  0  0  0  0  0
  152.3401  141.8186  157.6599 H   0  0  0  0  0  0  0  0  0  0  0  0
  150.7455  141.7880  158.4168 H   0  0  0  0  0  0  0  0  0  0  0  0
  148.4204  135.4789  161.6724 H   0  0  0  0  0  0  0  0  0  0  0  0
  147.0037  137.2274  162.6132 H   0  0  0  0  0  0  0  0  0  0  0  0
  146.1519  137.4114  161.0920 H   0  0  0  0  0  0  0  0  0  0  0  0
  145.9533  135.0814  163.0294 H   0  0  0  0  0  0  0  0  0  0  0  0
  144.6446  135.9507  162.2143 H   0  0  0  0  0  0  0  0  0  0  0  0
  146.9101  135.5824  159.0300 H   0  0  0  0  0  0  0  0  0  0  0  0
  147.9297  134.2763  159.6565 H   0  0  0  0  0  0  0  0  0  0  0  0
  153.2206  140.2391  156.5878 H   0  0  0  0  0  0  0  0  0  0  0  0
  1  2  2  0  0  0  0
  2  3  1  0  0  0  0
  2 15  1  0  0  0  0
  3  4  1  0  0  0  0
  3 23  1  0  0  0  0
  4  9  1  0  0  0  0
  4  5  2  0  0  0  0
  5  6  1  0  0  0  0
  5 24  1  0  0  0  0
  6  7  2  0  0  0  0
  6 25  1  0  0  0  0
  7  8  1  0  0  0  0
  7 26  1  0  0  0  0
  8  9  2  0  0  0  0
  8 42  1  0  0  0  0
  9 10  1  0  0  0  0
 10 14  1  0  0  0  0
 10 11  1  0  0  0  0
 11 12  1  0  0  0  0
 11 27  1  0  0  0  0
 11 28  1  0  0  0  0
 12 13  1  0  0  0  0
 12 29  1  0  0  0  0
 12 30  1  0  0  0  0
 13 14  1  0  0  0  0
 13 31  1  0  0  0  0
 13 32  1  0  0  0  0
 14 33  1  0  0  0  0
 14 34  1  0  0  0  0
 15 16  1  0  0  0  0
 16 22  1  0  0  0  0
 16 17  1  0  0  0  0
 16 35  1  0  0  0  0
 17 18  1  0  0  0  0
 17 36  1  0  0  0  0
 17 37  1  0  0  0  0
 18 19  1  0  0  0  0
 18 38  1  0  0  0  0
 18 39  1  0  0  0  0
 19 20  2  0  0  0  0
 19 21  2  0  0  0  0
 19 22  1  0  0  0  0
 22 40  1  0  0  0  0
 22 41  1  0  0  0  0
M  CHG  1   8   1
M  CHG  1  15  -1
M  END
> <s_m_source_file>
AV-unprocessed.smi

> <i_m_source_file_index>
2047

> <i_lp_mmshare_version>
43012

> <i_f3d_flags>
0

> <s_epik_input>
Tz1TMSg9TylbQ0gyXVtDSDJdW0NASF0oW0NIMl0xKVtOSF1DKD1PKVtOSF1jMltjSF1bY0hdW2NIXW5jMk4zW0NIMl1bQ0gyXVtDSDJdW0NIMl0z

> <s_epik_cmdline>
J2VwaWtfcHl0aG9uJywgJy1waCcsICc3LjAnLCAnLXRuJywgJzgnLCAnLW1hJywgJzIwMCcsICctbWV0YWxfYmluZGluZycsICctaW1hZScsICc8aW5maWxlLm1hZT4nLCAnLW9tYWUnLCAnPG91dGZpbGUubWFlPic=

> <r_lp_tautomer_probability>
0.999994

> <r_epik_Ionization_Penalty>
8.27033

> <r_epik_Ionization_Penalty_Charging>
8.27033

> <r_epik_Ionization_Penalty_Neutral>
3.23223e-06

> <r_epik_State_Penalty>
7.90314

> <r_epik_Charging_Adjusted_Penalty>
16.1735

> <i_epik_Tot_Q>
0

> <i_epik_Tot_abs_Q>
2

> <r_epik_Metal_State_Penalty>
3.89381

> <b_epik_Metal_Only>
1

> <s_lp_Force_Field>
OPLS_2005

> <r_lp_Energy>
40.3449

> <b_lp_Chiralities_Consistent>
1

> <s_lp_Variant>
AV-unprocessed.smi:2047-6

> <Gold.Version>
5.8.1

> <Gold.Id.Protein>
6NUR|6NUR_protein|mol2

> <Gold.PLP.Fitness>
40.6258

> <Gold.PLP.PLP>
-34.1629

> <Gold.PLP.part.hbond>
-2.0000

> <Gold.PLP.part.metal>
0.0000

> <Gold.PLP.part.buried>
-6.8522

> <Gold.PLP.part.nonpolar>
-27.0059

> <Gold.PLP.part.repulsive>
0.3745

> <Gold.PLP.ligand.clash>
0.0000

> <Gold.PLP.ligand.torsion>
0.6012

> <Gold.PLP.Chemscore.Hbond>
2.5360

> <Gold.PLP.Chemscore.CHOScore>
0.0000

> <Gold.PLP.Chemscore.Metal>
0.0000

> <Gold.Chemscore.Hbonds>
donor molecule, donor type, donor heavy atom, donor atom, acceptor molecule, acceptor atom, score
      P1  H  6896  6907       L1     1  0.93
      P1  H  6931  6943       L1    15  1.34

> <Gold.PLP.Chemscore.Internal.Correction>
0.0573

> <Gold.Rescore>
     Score         DG    S(hbond)    S(metal)    S(lipo)     H(rot)  DE(clash)    DE(int)     intcor
     13.62     -16.86       1.67        0.00      77.02       1.25       0.01       3.24       ----

> <Gold.Chemscore.Fitness>
13.6164

> <Gold.Chemscore.DG>
-16.8592

> <Gold.Chemscore.ZeroCoef>
-5.4800

> <Gold.Chemscore.Hbond>
1.6655

> <Gold.Chemscore.Metal>
0.0000

> <Gold.Chemscore.Lipo>
77.0209

> <Gold.Chemscore.Internal_Hbond>
0.0000

> <Gold.Chemscore.DEClash>
0.0069

> <Gold.Chemscore.DEInternal>
3.2359

> <Gold.Chemscore.Rot>
1.2480

> <Gold.Chemscore.Internal.Correction>
   9.000000E+99

> <Gold.Chemscore.Hbonds>
donor molecule, donor type, donor heavy atom, donor atom, acceptor molecule, acceptor atom, score
      P1  H  6896  6907       L1     1  0.68
      P1  H  6931  6943       L1    15  0.17

> <Gold.Chemscore.Hbond.Weighted>
-5.5626

> <Gold.Chemscore.Metal.Weighted>
-0.0000

> <Gold.Chemscore.Lipo.Weighted>
-9.0114

> <Gold.Chemscore.Internal_Hbond.Weighted>
0.0000

> <Gold.Chemscore.DEClash.Weighted>
0.0069

> <Gold.Chemscore.DEInternal.Weighted>
3.2359

> <Gold.Chemscore.Rot.Weighted>
3.1948

> <Gold.Chemscore.Internal.Correction.Weighted>
   9.000000E+99

> <Gold.Protein.RotatedTorsions>
[ 6907 6896 6895 6894 ] final  -76.61 input  -60.11 | X-H torsion
[ 7974 7965 7964 7962 ] final  173.14 input  175.53 | X-H torsion
[ 8008 7997 7996 7995 ] final   34.04 input   59.86 | X-H torsion
[ 10167 10162 10161 10158 ] final -113.66 input  -65.29 | X-H torsion
[ 10718 10713 10712 10709 ] final  154.62 input   66.30 | X-H torsion
[ 10763 10752 10751 10750 ] final   30.63 input  -60.55 | X-H torsion
[ 11005 11000 10999 10996 ] final   73.17 input  -57.11 | X-H torsion

> <Gold.Protein.ActiveResidues>
 VAL166  LYS551  ARG553  GLY616  TRP617  ASP618  TYR619  PRO620  LYS621  CYS622 
 ASP623  PHE694  ASN695  SER759  ASP760  ASP761  ALA762  ILE779  LEU786  VAL792 
 PHE793  MET794  SER795  GLU796  ALA797  LYS798  CYS799  TRP800  GLU811  SER814 

> <Gold.Protein.RotatedAtoms>
  150.7022  134.4546  159.5351 H   0  0  0  0  0  0  0  0  0  0  0  0  # atno 6907 bound_to 6896
  152.2232  134.8390  160.0492 H   0  0  0  0  0  0  0  0  0  0  0  0  # atno 6908 bound_to 6896
  151.9233  133.3556  159.3941 H   0  0  0  0  0  0  0  0  0  0  0  0  # atno 6909 bound_to 6896
  144.7251  139.9604  143.6434 H   0  0  0  0  0  0  0  0  0  0  0  0  # atno 7974 bound_to 7965
  155.1484  140.3272  155.4436 H   0  0  0  0  0  0  0  0  0  0  0  0  # atno 8008 bound_to 7997
  156.2582  140.1981  156.6547 H   0  0  0  0  0  0  0  0  0  0  0  0  # atno 8009 bound_to 7997
  154.6491  140.0560  156.9921 H   0  0  0  0  0  0  0  0  0  0  0  0  # atno 8010 bound_to 7997
  140.1094  143.4541  152.1762 H   0  0  0  0  0  0  0  0  0  0  0  0  # atno 10167 bound_to 10162
  157.2292  131.0735  151.1863 H   0  0  0  0  0  0  0  0  0  0  0  0  # atno 10718 bound_to 10713
  153.0361  135.6459  154.1074 H   0  0  0  0  0  0  0  0  0  0  0  0  # atno 10763 bound_to 10752
  154.0789  135.2875  155.3296 H   0  0  0  0  0  0  0  0  0  0  0  0  # atno 10764 bound_to 10752
  154.6543  135.5414  153.8004 H   0  0  0  0  0  0  0  0  0  0  0  0  # atno 10765 bound_to 10752
  139.9454  134.7323  156.0994 H   0  0  0  0  0  0  0  0  0  0  0  0  # atno 11005 bound_to 11000
  146.0642  139.3634  143.0563 LP  0  0  0  0  0  0  0  0  0  0  0  0  # atno 17320 bound_to 7965
  145.8053  140.9752  143.0977 LP  0  0  0  0  0  0  0  0  0  0  0  0  # atno 17321 bound_to 7965
  139.5627  144.7416  151.4109 LP  0  0  0  0  0  0  0  0  0  0  0  0  # atno 17342 bound_to 10162
  140.6934  143.7808  150.7289 LP  0  0  0  0  0  0  0  0  0  0  0  0  # atno 17343 bound_to 10162
  157.3495  130.7075  149.6432 LP  0  0  0  0  0  0  0  0  0  0  0  0  # atno 17370 bound_to 10713
  155.9676  130.4256  150.4663 LP  0  0  0  0  0  0  0  0  0  0  0  0  # atno 17371 bound_to 10713
  141.1102  133.6646  156.2960 LP  0  0  0  0  0  0  0  0  0  0  0  0  # atno 17394 bound_to 11000
  140.5849  134.5709  157.5487 LP  0  0  0  0  0  0  0  0  0  0  0  0  # atno 17395 bound_to 11000

$$$$
