AV-unprocessed.smi:2317|AV-procd|sdf|9272|dock7
  -GOLD-   2272012493D 1   1.00000     0.00000
 Structure written by MMmdl.
 37 38  0  0  0  0  0  0  0  0  1 V2000
  153.6712  140.0539  158.7546 O   0  0  0  0  0  0  0  0  0  0  0  0
  153.1125  140.0396  159.8509 C   0  0  0  0  0  0  0  0  0  0  0  0
  152.9989  138.9382  160.6078 N   0  0  0  0  0  0  0  0  0  0  0  0
  153.5301  137.6188  160.2744 C   0  0  0  0  0  0  0  0  0  0  0  0
  153.0594  136.5246  161.2597 C   0  0  1  0  0  0  0  0  0  0  0  0
  153.8116  135.1831  161.0972 C   0  0  0  0  0  0  0  0  0  0  0  0
  153.2865  134.1150  162.0705 C   0  0  0  0  0  0  0  0  0  0  0  0
  153.3551  134.5982  163.5262 C   0  0  0  0  0  0  0  0  0  0  0  0
  152.6080  135.9307  163.7062 C   0  0  0  0  0  0  0  0  0  0  0  0
  153.1088  137.0124  162.7293 C   0  0  1  0  0  0  0  0  0  0  0  0
  154.4202  137.3974  163.0984 O   0  0  0  0  0  0  0  0  0  0  0  0
  152.5250  141.0942  160.4423 N   0  0  0  0  0  0  0  0  0  0  0  0
  152.4282  142.4410  159.9937 C   0  0  0  0  0  0  0  0  0  0  0  0
  152.4882  142.8417  158.6364 C   0  0  0  0  0  0  0  0  0  0  0  0
  152.3952  144.2150  158.3325 C   0  0  0  0  0  0  0  0  0  0  0  0
  152.2579  145.1772  159.2687 N   0  0  0  0  0  0  0  0  0  0  0  0
  152.2119  144.7934  160.5618 C   0  0  0  0  0  0  0  0  0  0  0  0
  152.2960  143.4482  160.9734 C   0  0  0  0  0  0  0  0  0  0  0  0
  152.2479  143.1328  162.2904 F   0  0  0  0  0  0  0  0  0  0  0  0
  152.5151  139.0193  161.4901 H   0  0  0  0  0  0  0  0  0  0  0  0
  153.2782  137.3469  159.2482 H   0  0  0  0  0  0  0  0  0  0  0  0
  154.6173  137.6938  160.3069 H   0  0  0  0  0  0  0  0  0  0  0  0
  152.0101  136.3285  161.0326 H   0  0  0  0  0  0  0  0  0  0  0  0
  153.7064  134.8077  160.0796 H   0  0  0  0  0  0  0  0  0  0  0  0
  154.8797  135.3344  161.2581 H   0  0  0  0  0  0  0  0  0  0  0  0
  152.2552  133.8664  161.8174 H   0  0  0  0  0  0  0  0  0  0  0  0
  153.8620  133.1958  161.9580 H   0  0  0  0  0  0  0  0  0  0  0  0
  152.9309  133.8428  164.1883 H   0  0  0  0  0  0  0  0  0  0  0  0
  154.3978  134.7163  163.8233 H   0  0  0  0  0  0  0  0  0  0  0  0
  151.5428  135.7653  163.5401 H   0  0  0  0  0  0  0  0  0  0  0  0
  152.7037  136.2773  164.7361 H   0  0  0  0  0  0  0  0  0  0  0  0
  152.4770  137.8951  162.8344 H   0  0  0  0  0  0  0  0  0  0  0  0
  155.0366  136.8995  162.5836 H   0  0  0  0  0  0  0  0  0  0  0  0
  152.0512  140.9020  161.3128 H   0  0  0  0  0  0  0  0  0  0  0  0
  152.6133  142.1383  157.8285 H   0  0  0  0  0  0  0  0  0  0  0  0
  152.4387  144.5500  157.3068 H   0  0  0  0  0  0  0  0  0  0  0  0
  152.1073  145.5826  161.2914 H   0  0  0  0  0  0  0  0  0  0  0  0
  1  2  2  0  0  0  0
  2  3  1  0  0  0  0
  2 12  1  0  0  0  0
  3  4  1  0  0  0  0
  3 20  1  0  0  0  0
  4  5  1  0  0  0  0
  4 21  1  0  0  0  0
  4 22  1  0  0  0  0
  5 10  1  0  0  0  0
  5  6  1  0  0  0  0
  5 23  1  0  0  0  0
  6  7  1  0  0  0  0
  6 24  1  0  0  0  0
  6 25  1  0  0  0  0
  7  8  1  0  0  0  0
  7 26  1  0  0  0  0
  7 27  1  0  0  0  0
  8  9  1  0  0  0  0
  8 28  1  0  0  0  0
  8 29  1  0  0  0  0
  9 10  1  0  0  0  0
  9 30  1  0  0  0  0
  9 31  1  0  0  0  0
 10 11  1  0  0  0  0
 10 32  1  0  0  0  0
 11 33  1  0  0  0  0
 12 13  1  0  0  0  0
 12 34  1  0  0  0  0
 13 18  1  0  0  0  0
 13 14  2  0  0  0  0
 14 15  1  0  0  0  0
 14 35  1  0  0  0  0
 15 16  2  0  0  0  0
 15 36  1  0  0  0  0
 16 17  1  0  0  0  0
 17 18  2  0  0  0  0
 17 37  1  0  0  0  0
 18 19  1  0  0  0  0
M  END
> <s_m_source_file>
AV-unprocessed.smi

> <i_m_source_file_index>
2317

> <i_lp_mmshare_version>
43012

> <i_f3d_flags>
0

> <s_epik_input>
RmMxW2NIXW5bY0hdW2NIXWMxW05IXUMoPU8pW05IXVtDSDJdW0NAQEhdMltDSDJdW0NIMl1bQ0gyXVtDSDJdW0NASF0yW09IXQ==

> <s_epik_cmdline>
J2VwaWtfcHl0aG9uJywgJy1waCcsICc3LjAnLCAnLXRuJywgJzgnLCAnLW1hJywgJzIwMCcsICctbWV0YWxfYmluZGluZycsICctaW1hZScsICc8aW5maWxlLm1hZT4nLCAnLW9tYWUnLCAnPG91dGZpbGUubWFlPic=

> <r_epik_Ionization_Penalty>
0.00317647

> <r_epik_Ionization_Penalty_Charging>
0

> <r_epik_Ionization_Penalty_Neutral>
0.00317647

> <r_epik_State_Penalty>
0.0022093

> <r_epik_Charging_Adjusted_Penalty>
0.0022093

> <i_epik_Tot_Q>
0

> <i_epik_Tot_abs_Q>
0

> <r_epik_Metal_State_Penalty>
-0

> <b_epik_Metal_Only>
0

> <s_lp_Force_Field>
OPLS_2005

> <r_lp_Energy>
21.0871

> <b_lp_Chiralities_Consistent>
1

> <s_lp_Variant>
AV-unprocessed.smi:2317-2

> <Gold.Version>
5.8.1

> <Gold.Id.Protein>
6NUR|6NUR_protein|mol2

> <Gold.PLP.Fitness>
45.0373

> <Gold.PLP.PLP>
-42.5997

> <Gold.PLP.part.hbond>
-1.0000

> <Gold.PLP.part.metal>
0.0000

> <Gold.PLP.part.buried>
-4.5825

> <Gold.PLP.part.nonpolar>
-36.9716

> <Gold.PLP.part.repulsive>
0.1998

> <Gold.PLP.ligand.clash>
0.0000

> <Gold.PLP.ligand.torsion>
0.2758

> <Gold.PLP.Chemscore.Hbond>
0.9920

> <Gold.PLP.Chemscore.CHOScore>
0.0000

> <Gold.PLP.Chemscore.Metal>
0.0000

> <Gold.Chemscore.Hbonds>
donor molecule, donor type, donor heavy atom, donor atom, acceptor molecule, acceptor atom, score
      P1  H  7997  8009       L1     1  0.99

> <Gold.PLP.Chemscore.Internal.Correction>
0.0133

> <Gold.Rescore>
     Score         DG    S(hbond)    S(metal)    S(lipo)     H(rot)  DE(clash)    DE(int)     intcor
     15.54     -16.85       0.95        0.00     109.07       1.79       0.09       1.22       ----

> <Gold.Chemscore.Fitness>
15.5372

> <Gold.Chemscore.DG>
-16.8549

> <Gold.Chemscore.ZeroCoef>
-5.4800

> <Gold.Chemscore.Hbond>
0.9535

> <Gold.Chemscore.Metal>
0.0000

> <Gold.Chemscore.Lipo>
109.0669

> <Gold.Chemscore.Internal_Hbond>
0.0000

> <Gold.Chemscore.DEClash>
0.0932

> <Gold.Chemscore.DEInternal>
1.2246

> <Gold.Chemscore.Rot>
1.7853

> <Gold.Chemscore.Internal.Correction>
   9.000000E+99

> <Gold.Chemscore.Hbonds>
donor molecule, donor type, donor heavy atom, donor atom, acceptor molecule, acceptor atom, score
      P1  H  7997  8009       L1     1  0.93

> <Gold.Chemscore.Hbond.Weighted>
-3.1845

> <Gold.Chemscore.Metal.Weighted>
-0.0000

> <Gold.Chemscore.Lipo.Weighted>
-12.7608

> <Gold.Chemscore.Internal_Hbond.Weighted>
0.0000

> <Gold.Chemscore.DEClash.Weighted>
0.0932

> <Gold.Chemscore.DEInternal.Weighted>
1.2246

> <Gold.Chemscore.Rot.Weighted>
4.5704

> <Gold.Chemscore.Internal.Correction.Weighted>
   9.000000E+99

> <Gold.Protein.RotatedTorsions>
[ 6907 6896 6895 6894 ] final   83.54 input  -60.11 | X-H torsion
[ 7974 7965 7964 7962 ] final  -41.57 input  175.53 | X-H torsion
[ 8008 7997 7996 7995 ] final  133.80 input   59.86 | X-H torsion
[ 10167 10162 10161 10158 ] final  -80.31 input  -65.29 | X-H torsion
[ 10718 10713 10712 10709 ] final  -52.29 input   66.30 | X-H torsion
[ 10763 10752 10751 10750 ] final -169.77 input  -60.55 | X-H torsion
[ 11005 11000 10999 10996 ] final  -50.65 input  -57.11 | X-H torsion

> <Gold.Protein.ActiveResidues>
 VAL166  LYS551  ARG553  GLY616  TRP617  ASP618  TYR619  PRO620  LYS621  CYS622 
 ASP623  PHE694  ASN695  SER759  ASP760  ASP761  ALA762  ILE779  LEU786  VAL792 
 PHE793  MET794  SER795  GLU796  ALA797  LYS798  CYS799  TRP800  GLU811  SER814 

> <Gold.Protein.RotatedAtoms>
  152.5329  134.2880  159.9032 H   0  0  0  0  0  0  0  0  0  0  0  0  # atno 6907 bound_to 6896
  151.2833  133.4193  159.2636 H   0  0  0  0  0  0  0  0  0  0  0  0  # atno 6908 bound_to 6896
  151.0265  134.9523  159.8144 H   0  0  0  0  0  0  0  0  0  0  0  0  # atno 6909 bound_to 6896
  146.0198  140.6864  142.9184 H   0  0  0  0  0  0  0  0  0  0  0  0  # atno 7974 bound_to 7965
  156.2995  140.2512  156.3312 H   0  0  0  0  0  0  0  0  0  0  0  0  # atno 8008 bound_to 7997
  154.9143  140.0402  157.1982 H   0  0  0  0  0  0  0  0  0  0  0  0  # atno 8009 bound_to 7997
  154.8374  140.2885  155.5686 H   0  0  0  0  0  0  0  0  0  0  0  0  # atno 8010 bound_to 7997
  140.4515  143.2481  151.8482 H   0  0  0  0  0  0  0  0  0  0  0  0  # atno 10167 bound_to 10162
  156.1635  130.4149  149.9757 H   0  0  0  0  0  0  0  0  0  0  0  0  # atno 10718 bound_to 10713
  154.6487  135.2908  155.0014 H   0  0  0  0  0  0  0  0  0  0  0  0  # atno 10763 bound_to 10752
  154.1114  135.6562  153.4890 H   0  0  0  0  0  0  0  0  0  0  0  0  # atno 10764 bound_to 10752
  153.0365  135.5266  154.7386 H   0  0  0  0  0  0  0  0  0  0  0  0  # atno 10765 bound_to 10752
  141.0828  133.6649  156.3762 H   0  0  0  0  0  0  0  0  0  0  0  0  # atno 11005 bound_to 11000
  144.6985  140.3546  143.7175 LP  0  0  0  0  0  0  0  0  0  0  0  0  # atno 17320 bound_to 7965
  145.7211  139.1710  143.2484 LP  0  0  0  0  0  0  0  0  0  0  0  0  # atno 17321 bound_to 7965
  139.4797  144.5115  151.8926 LP  0  0  0  0  0  0  0  0  0  0  0  0  # atno 17342 bound_to 10162
  140.4202  144.2254  150.5887 LP  0  0  0  0  0  0  0  0  0  0  0  0  # atno 17343 bound_to 10162
  156.7579  130.9140  151.3640 LP  0  0  0  0  0  0  0  0  0  0  0  0  # atno 17370 bound_to 10713
  157.6750  130.9086  150.0129 LP  0  0  0  0  0  0  0  0  0  0  0  0  # atno 17371 bound_to 10713
  140.5431  134.6101  157.5386 LP  0  0  0  0  0  0  0  0  0  0  0  0  # atno 17394 bound_to 11000
  139.9643  134.7400  156.0171 LP  0  0  0  0  0  0  0  0  0  0  0  0  # atno 17395 bound_to 11000

$$$$
