AV-unprocessed.smi:1749|AV-procd|sdf|7047|dock9
  -GOLD-   22720 8263D 1   1.00000     0.00000
 Structure written by MMmdl.
 32 33  0  0  0  0  0  0  0  0  1 V2000
  153.0702  143.2860  163.1603 C   0  0  0  0  0  0  0  0  0  0  0  0
  152.6274  143.0408  161.7111 C   0  0  1  0  0  0  0  0  0  0  0  0
  152.1570  144.3440  161.0374 C   0  0  0  0  0  0  0  0  0  0  0  0
  151.7169  144.1036  159.5846 C   0  0  0  0  0  0  0  0  0  0  0  0
  152.8345  143.4369  158.7634 C   0  0  0  0  0  0  0  0  0  0  0  0
  153.3358  142.1347  159.4165 C   0  0  2  0  0  0  0  0  0  0  0  0
  152.3062  141.1021  159.3288 N   0  0  0  0  0  0  0  0  0  0  0  0
  152.4463  139.8896  158.7686 C   0  0  0  0  0  0  0  0  0  0  0  0
  153.4785  139.5309  158.2046 O   0  0  0  0  0  0  0  0  0  0  0  0
  151.3751  139.0719  158.8495 N   0  0  0  0  0  0  0  0  0  0  0  0
  151.1696  137.7429  158.3767 C   0  0  0  0  0  0  0  0  0  0  0  0
  150.4823  136.7988  159.0411 N   0  0  0  0  0  0  0  0  0  0  0  0
  150.4596  135.5904  158.3587 N   0  0  0  0  0  0  0  0  0  0  0  0
  151.1411  135.6631  157.2123 C   0  0  0  0  0  0  0  0  0  0  0  0
  151.8775  137.2158  156.8560 S   0  0  0  0  0  0  0  0  0  0  0  0
  153.7506  142.3807  160.8832 C   0  0  0  0  0  0  0  0  0  0  0  0
  153.9193  143.9684  163.2062 H   0  0  0  0  0  0  0  0  0  0  0  0
  153.3655  142.3539  163.6427 H   0  0  0  0  0  0  0  0  0  0  0  0
  152.2618  143.7198  163.7494 H   0  0  0  0  0  0  0  0  0  0  0  0
  151.7797  142.3546  161.7442 H   0  0  0  0  0  0  0  0  0  0  0  0
  151.3305  144.7783  161.6009 H   0  0  0  0  0  0  0  0  0  0  0  0
  152.9622  145.0797  161.0549 H   0  0  0  0  0  0  0  0  0  0  0  0
  150.8236  143.4778  159.5718 H   0  0  0  0  0  0  0  0  0  0  0  0
  151.4336  145.0495  159.1226 H   0  0  0  0  0  0  0  0  0  0  0  0
  152.4872  143.2417  157.7481 H   0  0  0  0  0  0  0  0  0  0  0  0
  153.6690  144.1330  158.6692 H   0  0  0  0  0  0  0  0  0  0  0  0
  154.2096  141.7948  158.8576 H   0  0  0  0  0  0  0  0  0  0  0  0
  151.4201  141.3140  159.7655 H   0  0  0  0  0  0  0  0  0  0  0  0
  150.5581  139.4949  159.2655 H   0  0  0  0  0  0  0  0  0  0  0  0
  151.2138  134.7955  156.5736 H   0  0  0  0  0  0  0  0  0  0  0  0
  154.6318  143.0235  160.8977 H   0  0  0  0  0  0  0  0  0  0  0  0
  154.0571  141.4429  161.3483 H   0  0  0  0  0  0  0  0  0  0  0  0
  1  2  1  0  0  0  0
  1 17  1  0  0  0  0
  1 18  1  0  0  0  0
  1 19  1  0  0  0  0
  2 16  1  0  0  0  0
  2  3  1  0  0  0  0
  2 20  1  0  0  0  0
  3  4  1  0  0  0  0
  3 21  1  0  0  0  0
  3 22  1  0  0  0  0
  4  5  1  0  0  0  0
  4 23  1  0  0  0  0
  4 24  1  0  0  0  0
  5  6  1  0  0  0  0
  5 25  1  0  0  0  0
  5 26  1  0  0  0  0
  6  7  1  0  0  0  0
  6 16  1  0  0  0  0
  6 27  1  0  0  0  0
  7  8  1  0  0  0  0
  7 28  1  0  0  0  0
  8  9  2  0  0  0  0
  8 10  1  0  0  0  0
 10 11  1  0  0  0  0
 10 29  1  0  0  0  0
 11 15  1  0  0  0  0
 11 12  2  0  0  0  0
 12 13  1  0  0  0  0
 13 14  2  0  0  0  0
 14 15  1  0  0  0  0
 14 30  1  0  0  0  0
 16 31  1  0  0  0  0
 16 32  1  0  0  0  0
M  END
> <s_m_source_file>
AV-unprocessed.smi

> <i_m_source_file_index>
1749

> <i_lp_mmshare_version>
43012

> <i_f3d_flags>
0

> <s_epik_input>
W0NIM11bQ0BASF0xW0NIMl1bQ0gyXVtDSDJdW0NASF0oW0NIMl0xKVtOSF1DKD1PKVtOSF1jMm5uW2NIXXMy

> <s_epik_cmdline>
J2VwaWtfcHl0aG9uJywgJy1waCcsICc3LjAnLCAnLXRuJywgJzgnLCAnLW1hJywgJzIwMCcsICctbWV0YWxfYmluZGluZycsICctaW1hZScsICc8aW5maWxlLm1hZT4nLCAnLW9tYWUnLCAnPG91dGZpbGUubWFlPic=

> <r_lp_tautomer_probability>
1

> <r_epik_Ionization_Penalty>
0.000318591

> <r_epik_Ionization_Penalty_Charging>
0

> <r_epik_Ionization_Penalty_Neutral>
0.000318591

> <r_epik_State_Penalty>
-0

> <r_epik_Charging_Adjusted_Penalty>
0

> <i_epik_Tot_Q>
0

> <i_epik_Tot_abs_Q>
0

> <r_epik_Metal_State_Penalty>
0.169791

> <b_epik_Metal_Only>
0

> <s_lp_Force_Field>
OPLS_2005

> <r_lp_Energy>
10.2473

> <b_lp_Chiralities_Consistent>
1

> <s_lp_Variant>
AV-unprocessed.smi:1749-4

> <Gold.Version>
5.8.1

> <Gold.Id.Protein>
6NUR|6NUR_protein|mol2

> <Gold.PLP.Fitness>
39.7159

> <Gold.PLP.PLP>
-34.3295

> <Gold.PLP.part.hbond>
-2.0000

> <Gold.PLP.part.metal>
0.0000

> <Gold.PLP.part.buried>
-4.9612

> <Gold.PLP.part.nonpolar>
-26.4834

> <Gold.PLP.part.repulsive>
0.2911

> <Gold.PLP.ligand.clash>
0.0000

> <Gold.PLP.ligand.torsion>
0.2975

> <Gold.PLP.Chemscore.Hbond>
1.9920

> <Gold.PLP.Chemscore.CHOScore>
0.0000

> <Gold.PLP.Chemscore.Metal>
0.0000

> <Gold.Chemscore.Hbonds>
donor molecule, donor type, donor heavy atom, donor atom, acceptor molecule, acceptor atom, score
      P1  H  6896  6908       L1    13  0.67
      P1  H  7997  8010       L1     9  1.00

> <Gold.PLP.Chemscore.Internal.Correction>
0.0054

> <Gold.Rescore>
     Score         DG    S(hbond)    S(metal)    S(lipo)     H(rot)  DE(clash)    DE(int)     intcor
     18.48     -18.99       1.59        0.00      91.98       1.00       0.15       0.36       ----

> <Gold.Chemscore.Fitness>
18.4793

> <Gold.Chemscore.DG>
-18.9898

> <Gold.Chemscore.ZeroCoef>
-5.4800

> <Gold.Chemscore.Hbond>
1.5893

> <Gold.Chemscore.Metal>
0.0000

> <Gold.Chemscore.Lipo>
91.9789

> <Gold.Chemscore.Internal_Hbond>
0.0000

> <Gold.Chemscore.DEClash>
0.1465

> <Gold.Chemscore.DEInternal>
0.3640

> <Gold.Chemscore.Rot>
1.0000

> <Gold.Chemscore.Internal.Correction>
   9.000000E+99

> <Gold.Chemscore.Hbonds>
donor molecule, donor type, donor heavy atom, donor atom, acceptor molecule, acceptor atom, score
      P1  H  6896  6908       L1    13  0.23
      P1  H  7997  8010       L1     9  1.00

> <Gold.Chemscore.Hbond.Weighted>
-5.3083

> <Gold.Chemscore.Metal.Weighted>
-0.0000

> <Gold.Chemscore.Lipo.Weighted>
-10.7615

> <Gold.Chemscore.Internal_Hbond.Weighted>
0.0000

> <Gold.Chemscore.DEClash.Weighted>
0.1465

> <Gold.Chemscore.DEInternal.Weighted>
0.3640

> <Gold.Chemscore.Rot.Weighted>
2.5600

> <Gold.Chemscore.Internal.Correction.Weighted>
   9.000000E+99

> <Gold.Protein.RotatedTorsions>
[ 6907 6896 6895 6894 ] final  166.32 input  -60.11 | X-H torsion
[ 7974 7965 7964 7962 ] final  -86.42 input  175.53 | X-H torsion
[ 8008 7997 7996 7995 ] final   21.73 input   59.86 | X-H torsion
[ 10167 10162 10161 10158 ] final   -5.15 input  -65.29 | X-H torsion
[ 10718 10713 10712 10709 ] final -169.58 input   66.30 | X-H torsion
[ 10763 10752 10751 10750 ] final  -95.16 input  -60.55 | X-H torsion
[ 11005 11000 10999 10996 ] final  -39.04 input  -57.11 | X-H torsion

> <Gold.Protein.ActiveResidues>
 VAL166  LYS551  ARG553  GLY616  TRP617  ASP618  TYR619  PRO620  LYS621  CYS622 
 ASP623  PHE694  ASN695  SER759  ASP760  ASP761  ALA762  ILE779  LEU786  VAL792 
 PHE793  MET794  SER795  GLU796  ALA797  LYS798  CYS799  TRP800  GLU811  SER814 

> <Gold.Protein.RotatedAtoms>
  151.8807  133.3494  159.3765 H   0  0  0  0  0  0  0  0  0  0  0  0  # atno 6907 bound_to 6896
  150.7128  134.5021  159.5576 H   0  0  0  0  0  0  0  0  0  0  0  0  # atno 6908 bound_to 6896
  152.2572  134.8072  160.0487 H   0  0  0  0  0  0  0  0  0  0  0  0  # atno 6909 bound_to 6896
  145.4801  140.9557  143.1869 H   0  0  0  0  0  0  0  0  0  0  0  0  # atno 7974 bound_to 7965
  154.9549  140.3070  155.5057 H   0  0  0  0  0  0  0  0  0  0  0  0  # atno 8008 bound_to 7997
  156.2983  140.2312  156.4568 H   0  0  0  0  0  0  0  0  0  0  0  0  # atno 8009 bound_to 7997
  154.8019  140.0433  157.1267 H   0  0  0  0  0  0  0  0  0  0  0  0  # atno 8010 bound_to 7997
  140.6953  143.6341  150.8496 H   0  0  0  0  0  0  0  0  0  0  0  0  # atno 10167 bound_to 10162
  156.7136  130.9243  151.3091 H   0  0  0  0  0  0  0  0  0  0  0  0  # atno 10718 bound_to 10713
  154.7122  135.5131  153.8684 H   0  0  0  0  0  0  0  0  0  0  0  0  # atno 10763 bound_to 10752
  153.0790  135.6625  154.0093 H   0  0  0  0  0  0  0  0  0  0  0  0  # atno 10764 bound_to 10752
  153.9933  135.3018  155.3389 H   0  0  0  0  0  0  0  0  0  0  0  0  # atno 10765 bound_to 10752
  141.0072  133.6926  156.2133 H   0  0  0  0  0  0  0  0  0  0  0  0  # atno 11005 bound_to 11000
  144.7894  139.6359  143.7120 LP  0  0  0  0  0  0  0  0  0  0  0  0  # atno 17320 bound_to 7965
  146.2346  139.5880  142.9532 LP  0  0  0  0  0  0  0  0  0  0  0  0  # atno 17321 bound_to 7965
  140.0058  143.5695  152.2858 LP  0  0  0  0  0  0  0  0  0  0  0  0  # atno 17342 bound_to 10162
  139.6401  144.7654  151.2357 LP  0  0  0  0  0  0  0  0  0  0  0  0  # atno 17343 bound_to 10162
  157.6926  130.9249  150.0555 LP  0  0  0  0  0  0  0  0  0  0  0  0  # atno 17370 bound_to 10713
  156.1643  130.3644  149.9254 LP  0  0  0  0  0  0  0  0  0  0  0  0  # atno 17371 bound_to 10713
  140.6793  134.4784  157.5589 LP  0  0  0  0  0  0  0  0  0  0  0  0  # atno 17394 bound_to 11000
  139.9070  134.8428  156.1669 LP  0  0  0  0  0  0  0  0  0  0  0  0  # atno 17395 bound_to 11000

$$$$
