AV-unprocessed.smi:2658|AV-procd|sdf|10310|dock8
  -GOLD-   2272014323D 1   1.00000     0.00000
 Structure written by MMmdl.
 47 49  0  0  0  0  0  0  0  0  2 V2000
  152.5842  145.4068  160.7327 C   0  0  0  0  0  0  0  0  0  0  0  0
  152.2448  144.1421  159.9621 C   0  0  0  0  0  0  0  0  0  0  0  0
  151.5691  144.2657  158.7272 C   0  0  0  0  0  0  0  0  0  0  0  0
  151.2650  143.0906  158.0500 C   0  0  0  0  0  0  0  0  0  0  0  0
  150.6108  142.8792  156.8344 N   0  3  0  0  0  0  0  0  0  0  0  0
  150.5418  141.5430  156.5820 C   0  0  0  0  0  0  0  0  0  0  0  0
  151.1431  140.8974  157.6178 N   0  0  0  0  0  0  0  0  0  0  0  0
  151.3309  139.4571  157.8419 C   0  0  0  0  0  0  0  0  0  0  0  0
  152.8063  139.0239  157.7178 C   0  0  2  0  0  0  0  0  0  0  0  0
  153.2180  138.9377  156.3684 O   0  0  0  0  0  0  0  0  0  0  0  0
  153.1217  137.6955  158.4239 C   0  0  0  0  0  0  0  0  0  0  0  0
  153.4610  137.9404  159.7866 O   0  0  0  0  0  0  0  0  0  0  0  0
  153.9904  136.9055  160.5294 C   0  0  0  0  0  0  0  0  0  0  0  0
  154.1855  137.0917  161.9109 C   0  0  0  0  0  0  0  0  0  0  0  0
  154.7256  136.0211  162.6478 C   0  0  0  0  0  0  0  0  0  0  0  0
  154.9680  136.1503  164.1399 C   0  0  0  0  0  0  0  0  0  0  0  0
  155.0257  134.8371  161.9375 C   0  0  0  0  0  0  0  0  0  0  0  0
  155.6034  133.6166  162.6294 C   0  0  0  0  0  0  0  0  0  0  0  0
  154.8165  134.7188  160.6054 N   0  0  0  0  0  0  0  0  0  0  0  0
  154.3068  135.7398  159.9086 N   0  0  0  0  0  0  0  0  0  0  0  0
  151.6118  141.8234  158.5577 C   0  0  0  0  0  0  0  0  0  0  0  0
  152.2819  141.6847  159.7711 C   0  0  0  0  0  0  0  0  0  0  0  0
  152.5974  142.8678  160.4769 C   0  0  0  0  0  0  0  0  0  0  0  0
  153.3231  142.7465  161.8060 C   0  0  0  0  0  0  0  0  0  0  0  0
  152.2484  146.2990  160.2033 H   0  0  0  0  0  0  0  0  0  0  0  0
  153.6613  145.4907  160.8777 H   0  0  0  0  0  0  0  0  0  0  0  0
  152.1026  145.3992  161.7108 H   0  0  0  0  0  0  0  0  0  0  0  0
  151.2969  145.2324  158.3297 H   0  0  0  0  0  0  0  0  0  0  0  0
  150.0885  141.0790  155.7177 H   0  0  0  0  0  0  0  0  0  0  0  0
  150.9670  139.2392  158.8468 H   0  0  0  0  0  0  0  0  0  0  0  0
  150.6872  138.9029  157.1585 H   0  0  0  0  0  0  0  0  0  0  0  0
  153.4295  139.7952  158.1718 H   0  0  0  0  0  0  0  0  0  0  0  0
  153.2020  138.0292  156.1087 H   0  0  0  0  0  0  0  0  0  0  0  0
  152.2745  137.0120  158.3419 H   0  0  0  0  0  0  0  0  0  0  0  0
  153.9718  137.2254  157.9264 H   0  0  0  0  0  0  0  0  0  0  0  0
  153.9284  138.0277  162.3845 H   0  0  0  0  0  0  0  0  0  0  0  0
  156.0191  135.9775  164.3716 H   0  0  0  0  0  0  0  0  0  0  0  0
  154.3685  135.4234  164.6885 H   0  0  0  0  0  0  0  0  0  0  0  0
  154.7033  137.1456  164.4980 H   0  0  0  0  0  0  0  0  0  0  0  0
  154.9454  133.2885  163.4344 H   0  0  0  0  0  0  0  0  0  0  0  0
  156.5808  133.8477  163.0532 H   0  0  0  0  0  0  0  0  0  0  0  0
  155.7249  132.7841  161.9353 H   0  0  0  0  0  0  0  0  0  0  0  0
  152.5464  140.7154  160.1667 H   0  0  0  0  0  0  0  0  0  0  0  0
  153.5209  141.7044  162.0592 H   0  0  0  0  0  0  0  0  0  0  0  0
  152.7249  143.1763  162.6098 H   0  0  0  0  0  0  0  0  0  0  0  0
  154.2801  143.2674  161.7689 H   0  0  0  0  0  0  0  0  0  0  0  0
  150.2349  143.5921  156.2224 H   0  0  0  0  0  0  0  0  0  0  0  0
  1  2  1  0  0  0  0
  1 25  1  0  0  0  0
  1 26  1  0  0  0  0
  1 27  1  0  0  0  0
  2 23  1  0  0  0  0
  2  3  2  0  0  0  0
  3  4  1  0  0  0  0
  3 28  1  0  0  0  0
  4 21  2  0  0  0  0
  4  5  1  0  0  0  0
  5  6  2  0  0  0  0
  5 47  1  0  0  0  0
  6  7  1  0  0  0  0
  6 29  1  0  0  0  0
  7  8  1  0  0  0  0
  7 21  1  0  0  0  0
  8  9  1  0  0  0  0
  8 30  1  0  0  0  0
  8 31  1  0  0  0  0
  9 10  1  0  0  0  0
  9 11  1  0  0  0  0
  9 32  1  0  0  0  0
 10 33  1  0  0  0  0
 11 12  1  0  0  0  0
 11 34  1  0  0  0  0
 11 35  1  0  0  0  0
 12 13  1  0  0  0  0
 13 20  1  0  0  0  0
 13 14  2  0  0  0  0
 14 15  1  0  0  0  0
 14 36  1  0  0  0  0
 15 16  1  0  0  0  0
 15 17  2  0  0  0  0
 16 37  1  0  0  0  0
 16 38  1  0  0  0  0
 16 39  1  0  0  0  0
 17 18  1  0  0  0  0
 17 19  1  0  0  0  0
 18 40  1  0  0  0  0
 18 41  1  0  0  0  0
 18 42  1  0  0  0  0
 19 20  2  0  0  0  0
 21 22  1  0  0  0  0
 22 23  2  0  0  0  0
 22 43  1  0  0  0  0
 23 24  1  0  0  0  0
 24 44  1  0  0  0  0
 24 45  1  0  0  0  0
 24 46  1  0  0  0  0
M  CHG  1   5   1
M  END
> <s_m_source_file>
AV-unprocessed.smi

> <i_m_source_file_index>
2658

> <i_lp_mmshare_version>
43012

> <i_f3d_flags>
0

> <s_epik_input>
W0NIM11jKFtjSF0xKWMoW0NIM10pW2NIXWMoYzEyKW4oW2NIXW4yKVtDSDJdW0NASF0oW09IXSlbQ0gyXU9jM1tjSF1jKFtDSDNdKWMoW0NIM10pbm4z

> <s_epik_cmdline>
J2VwaWtfcHl0aG9uJywgJy1waCcsICc3LjAnLCAnLXRuJywgJzgnLCAnLW1hJywgJzIwMCcsICctbWV0YWxfYmluZGluZycsICctaW1hZScsICc8aW5maWxlLm1hZT4nLCAnLW9tYWUnLCAnPG91dGZpbGUubWFlPic=

> <r_lp_tautomer_probability>
1

> <r_epik_Ionization_Penalty>
1.0494

> <r_epik_Ionization_Penalty_Charging>
1.04926

> <r_epik_Ionization_Penalty_Neutral>
0.000140304

> <r_epik_State_Penalty>
1.10197

> <r_epik_Charging_Adjusted_Penalty>
2.15123

> <i_epik_Tot_Q>
1

> <i_epik_Tot_abs_Q>
1

> <r_epik_Metal_State_Penalty>
1.19636

> <b_epik_Metal_Only>
0

> <s_lp_Force_Field>
OPLS_2005

> <r_lp_Energy>
21.5781

> <b_lp_Chiralities_Consistent>
1

> <s_lp_Variant>
AV-unprocessed.smi:2658-3

> <Gold.Version>
5.8.1

> <Gold.Id.Protein>
6NUR|6NUR_protein|mol2

> <Gold.PLP.Fitness>
59.7267

> <Gold.PLP.PLP>
-52.5574

> <Gold.PLP.part.hbond>
-2.5252

> <Gold.PLP.part.metal>
0.0000

> <Gold.PLP.part.buried>
-5.9985

> <Gold.PLP.part.nonpolar>
-44.6777

> <Gold.PLP.part.repulsive>
0.0753

> <Gold.PLP.ligand.clash>
0.0000

> <Gold.PLP.ligand.torsion>
0.7236

> <Gold.PLP.Chemscore.Hbond>
2.8609

> <Gold.PLP.Chemscore.CHOScore>
0.0000

> <Gold.PLP.Chemscore.Metal>
0.0000

> <Gold.Chemscore.Hbonds>
donor molecule, donor type, donor heavy atom, donor atom, acceptor molecule, acceptor atom, score
      L1  H     5    47       P1  8028  2.00
      P1  H  6896  6908       L1    20  0.23
      P1  H  7997  8009       L1    10  0.55

> <Gold.PLP.Chemscore.Internal.Correction>
0.0339

> <Gold.Rescore>
     Score         DG    S(hbond)    S(metal)    S(lipo)     H(rot)  DE(clash)    DE(int)     intcor
     18.14     -19.07       1.35        0.00     131.59       2.47       0.27       0.65       ----

> <Gold.Chemscore.Fitness>
18.1429

> <Gold.Chemscore.DG>
-19.0692

> <Gold.Chemscore.ZeroCoef>
-5.4800

> <Gold.Chemscore.Hbond>
1.3509

> <Gold.Chemscore.Metal>
0.0000

> <Gold.Chemscore.Lipo>
131.5941

> <Gold.Chemscore.Internal_Hbond>
0.0000

> <Gold.Chemscore.DEClash>
0.2725

> <Gold.Chemscore.DEInternal>
0.6538

> <Gold.Chemscore.Rot>
2.4685

> <Gold.Chemscore.Internal.Correction>
   9.000000E+99

> <Gold.Chemscore.Hbonds>
donor molecule, donor type, donor heavy atom, donor atom, acceptor molecule, acceptor atom, score
      L1  H     5    47       P1  8028  0.97
      P1  H  7997  8009       L1    10  0.03

> <Gold.Chemscore.Hbond.Weighted>
-4.5121

> <Gold.Chemscore.Metal.Weighted>
-0.0000

> <Gold.Chemscore.Lipo.Weighted>
-15.3965

> <Gold.Chemscore.Internal_Hbond.Weighted>
0.0000

> <Gold.Chemscore.DEClash.Weighted>
0.2725

> <Gold.Chemscore.DEInternal.Weighted>
0.6538

> <Gold.Chemscore.Rot.Weighted>
6.3194

> <Gold.Chemscore.Internal.Correction.Weighted>
   9.000000E+99

> <Gold.Protein.RotatedTorsions>
[ 6907 6896 6895 6894 ] final  -77.38 input  -60.11 | X-H torsion
[ 7974 7965 7964 7962 ] final   51.11 input  175.53 | X-H torsion
[ 8008 7997 7996 7995 ] final  179.21 input   59.86 | X-H torsion
[ 10167 10162 10161 10158 ] final  128.71 input  -65.29 | X-H torsion
[ 10718 10713 10712 10709 ] final  152.45 input   66.30 | X-H torsion
[ 10763 10752 10751 10750 ] final  170.40 input  -60.55 | X-H torsion
[ 11005 11000 10999 10996 ] final  -96.16 input  -57.11 | X-H torsion

> <Gold.Protein.ActiveResidues>
 VAL166  LYS551  ARG553  GLY616  TRP617  ASP618  TYR619  PRO620  LYS621  CYS622 
 ASP623  PHE694  ASN695  SER759  ASP760  ASP761  ALA762  ILE779  LEU786  VAL792 
 PHE793  MET794  SER795  GLU796  ALA797  LYS798  CYS799  TRP800  GLU811  SER814 

> <Gold.Protein.RotatedAtoms>
  150.7000  134.4431  159.5301 H   0  0  0  0  0  0  0  0  0  0  0  0  # atno 6907 bound_to 6896
  152.2137  134.8475  160.0503 H   0  0  0  0  0  0  0  0  0  0  0  0  # atno 6908 bound_to 6896
  151.9350  133.3587  159.3981 H   0  0  0  0  0  0  0  0  0  0  0  0  # atno 6909 bound_to 6896
  145.9946  139.4374  143.0053 H   0  0  0  0  0  0  0  0  0  0  0  0  # atno 7974 bound_to 7965
  156.0459  140.1314  157.0104 H   0  0  0  0  0  0  0  0  0  0  0  0  # atno 8008 bound_to 7997
  154.4412  140.1021  156.6376 H   0  0  0  0  0  0  0  0  0  0  0  0  # atno 8009 bound_to 7997
  155.5596  140.3464  155.4490 H   0  0  0  0  0  0  0  0  0  0  0  0  # atno 8010 bound_to 7997
  139.5513  144.6815  151.4314 H   0  0  0  0  0  0  0  0  0  0  0  0  # atno 10167 bound_to 10162
  157.2576  131.0791  151.1688 H   0  0  0  0  0  0  0  0  0  0  0  0  # atno 10718 bound_to 10713
  154.3970  135.2754  155.2120 H   0  0  0  0  0  0  0  0  0  0  0  0  # atno 10763 bound_to 10752
  154.4162  135.6011  153.5985 H   0  0  0  0  0  0  0  0  0  0  0  0  # atno 10764 bound_to 10752
  152.9831  135.5961  154.4233 H   0  0  0  0  0  0  0  0  0  0  0  0  # atno 10765 bound_to 10752
  141.1420  133.8078  157.0533 H   0  0  0  0  0  0  0  0  0  0  0  0  # atno 11005 bound_to 11000
  145.7580  140.9947  143.1215 LP  0  0  0  0  0  0  0  0  0  0  0  0  # atno 17320 bound_to 7965
  144.6899  139.9295  143.7471 LP  0  0  0  0  0  0  0  0  0  0  0  0  # atno 17321 bound_to 7965
  140.6777  143.8153  150.7079 LP  0  0  0  0  0  0  0  0  0  0  0  0  # atno 17342 bound_to 10162
  140.1597  143.4286  152.2075 LP  0  0  0  0  0  0  0  0  0  0  0  0  # atno 17343 bound_to 10162
  157.3211  130.6937  149.6269 LP  0  0  0  0  0  0  0  0  0  0  0  0  # atno 17370 bound_to 10713
  155.9664  130.4335  150.5009 LP  0  0  0  0  0  0  0  0  0  0  0  0  # atno 17371 bound_to 10713
  140.0618  134.9751  157.1317 LP  0  0  0  0  0  0  0  0  0  0  0  0  # atno 17394 bound_to 11000
  140.3838  134.2258  155.7169 LP  0  0  0  0  0  0  0  0  0  0  0  0  # atno 17395 bound_to 11000

$$$$
