AV-unprocessed.smi:1473|AV-procd|sdf|5966|dock1
  -GOLD-   22720 6 53D 1   1.00000     0.00000
 Structure written by MMmdl.
 34 35  0  0  0  0  0  0  0  0  1 V2000
  152.0041  137.1928  154.8143 N   0  0  0  0  0  0  0  0  0  0  0  0
  151.9867  138.8864  155.1061 S   0  0  0  0  0  0  0  0  0  0  0  0
  153.3444  139.4171  154.9121 O   0  0  0  0  0  0  0  0  0  0  0  0
  150.8252  139.4751  154.4230 O   0  0  0  0  0  0  0  0  0  0  0  0
  151.6565  138.8554  156.7941 N   0  0  0  0  0  0  0  0  0  0  0  0
  152.6934  138.4383  157.7334 C   0  0  0  0  0  0  0  0  0  0  0  0
  153.1032  139.5602  158.6643 C   0  0  0  0  0  0  0  0  0  0  0  0
  154.1471  139.3741  159.5909 C   0  0  0  0  0  0  0  0  0  0  0  0
  154.4785  140.4426  160.4442 C   0  0  0  0  0  0  0  0  0  0  0  0
  153.8464  141.6346  160.4163 N   0  0  0  0  0  0  0  0  0  0  0  0
  152.8423  141.8264  159.5245 C   0  0  0  0  0  0  0  0  0  0  0  0
  152.1923  143.0799  159.5079 N   0  0  0  0  0  0  0  0  0  0  0  0
  152.3851  143.9689  160.6523 C   0  0  0  0  0  0  0  0  0  0  0  0
  151.3846  145.1359  160.5992 C   0  0  0  0  0  0  0  0  0  0  0  0
  151.5038  145.8127  159.3525 O   0  0  0  0  0  0  0  0  0  0  0  0
  151.2041  144.9563  158.2553 C   0  0  0  0  0  0  0  0  0  0  0  0
  152.1946  143.7793  158.2252 C   0  0  0  0  0  0  0  0  0  0  0  0
  152.4391  140.8033  158.6327 C   0  0  0  0  0  0  0  0  0  0  0  0
  152.4719  136.6757  155.5583 H   0  0  0  0  0  0  0  0  0  0  0  0
  152.3444  136.9640  153.8806 H   0  0  0  0  0  0  0  0  0  0  0  0
  150.7070  138.5779  157.0416 H   0  0  0  0  0  0  0  0  0  0  0  0
  152.3207  137.6078  158.3340 H   0  0  0  0  0  0  0  0  0  0  0  0
  153.5530  138.0653  157.1755 H   0  0  0  0  0  0  0  0  0  0  0  0
  154.6786  138.4355  159.6503 H   0  0  0  0  0  0  0  0  0  0  0  0
  155.2712  140.3373  161.1699 H   0  0  0  0  0  0  0  0  0  0  0  0
  152.2500  143.4201  161.5852 H   0  0  0  0  0  0  0  0  0  0  0  0
  153.4062  144.3526  160.6431 H   0  0  0  0  0  0  0  0  0  0  0  0
  150.3624  144.7790  160.7357 H   0  0  0  0  0  0  0  0  0  0  0  0
  151.5859  145.8400  161.4068 H   0  0  0  0  0  0  0  0  0  0  0  0
  150.1766  144.5967  158.3311 H   0  0  0  0  0  0  0  0  0  0  0  0
  151.2728  145.5277  157.3296 H   0  0  0  0  0  0  0  0  0  0  0  0
  153.2027  144.1454  158.0263 H   0  0  0  0  0  0  0  0  0  0  0  0
  151.9303  143.1172  157.4021 H   0  0  0  0  0  0  0  0  0  0  0  0
  151.6221  140.9543  157.9429 H   0  0  0  0  0  0  0  0  0  0  0  0
  1  2  1  0  0  0  0
  1 19  1  0  0  0  0
  1 20  1  0  0  0  0
  2  3  2  0  0  0  0
  2  4  2  0  0  0  0
  2  5  1  0  0  0  0
  5  6  1  0  0  0  0
  5 21  1  0  0  0  0
  6  7  1  0  0  0  0
  6 22  1  0  0  0  0
  6 23  1  0  0  0  0
  7 18  1  0  0  0  0
  7  8  2  0  0  0  0
  8  9  1  0  0  0  0
  8 24  1  0  0  0  0
  9 10  2  0  0  0  0
  9 25  1  0  0  0  0
 10 11  1  0  0  0  0
 11 12  1  0  0  0  0
 11 18  2  0  0  0  0
 12 17  1  0  0  0  0
 12 13  1  0  0  0  0
 13 14  1  0  0  0  0
 13 26  1  0  0  0  0
 13 27  1  0  0  0  0
 14 15  1  0  0  0  0
 14 28  1  0  0  0  0
 14 29  1  0  0  0  0
 15 16  1  0  0  0  0
 16 17  1  0  0  0  0
 16 30  1  0  0  0  0
 16 31  1  0  0  0  0
 17 32  1  0  0  0  0
 17 33  1  0  0  0  0
 18 34  1  0  0  0  0
M  END
> <s_m_source_file>
AV-unprocessed.smi

> <i_m_source_file_index>
1473

> <i_lp_mmshare_version>
43012

> <i_f3d_flags>
0

> <s_epik_input>
W05IMl1TKD1PKSg9TylbTkhdW0NIMl1jMVtjSF1bY0hdbmMoW2NIXTEpTjJbQ0gyXVtDSDJdT1tDSDJdW0NIMl0y

> <s_epik_cmdline>
J2VwaWtfcHl0aG9uJywgJy1waCcsICc3LjAnLCAnLXRuJywgJzgnLCAnLW1hJywgJzIwMCcsICctbWV0YWxfYmluZGluZycsICctaW1hZScsICc8aW5maWxlLm1hZT4nLCAnLW9tYWUnLCAnPG91dGZpbGUubWFlPic=

> <r_lp_tautomer_probability>
1

> <r_epik_Ionization_Penalty>
0.222057

> <r_epik_Ionization_Penalty_Charging>
0

> <r_epik_Ionization_Penalty_Neutral>
0.222057

> <r_epik_State_Penalty>
0.236233

> <r_epik_Charging_Adjusted_Penalty>
0.236233

> <i_epik_Tot_Q>
0

> <i_epik_Tot_abs_Q>
0

> <r_epik_Metal_State_Penalty>
0.788435

> <b_epik_Metal_Only>
0

> <s_lp_Force_Field>
OPLS_2005

> <r_lp_Energy>
17.6675

> <b_lp_Chiralities_Consistent>
1

> <s_lp_Variant>
AV-unprocessed.smi:1473-1

> <Gold.Version>
5.8.1

> <Gold.Id.Protein>
6NUR|6NUR_protein|mol2

> <Gold.PLP.Fitness>
42.3501

> <Gold.PLP.PLP>
-36.4994

> <Gold.PLP.part.hbond>
-4.5791

> <Gold.PLP.part.metal>
0.0000

> <Gold.PLP.part.buried>
-6.4597

> <Gold.PLP.part.nonpolar>
-25.4546

> <Gold.PLP.part.repulsive>
0.3624

> <Gold.PLP.ligand.clash>
0.0000

> <Gold.PLP.ligand.torsion>
0.7438

> <Gold.PLP.Chemscore.Hbond>
2.0000

> <Gold.PLP.Chemscore.CHOScore>
0.0000

> <Gold.PLP.Chemscore.Metal>
0.0000

> <Gold.Chemscore.Hbonds>
donor molecule, donor type, donor heavy atom, donor atom, acceptor molecule, acceptor atom, score
      P1  H  7989  7998       L1     4  1.00
      P1  H  7997  8010       L1     3  1.00

> <Gold.PLP.Chemscore.Internal.Correction>
1.3384

> <Gold.Rescore>
     Score         DG    S(hbond)    S(metal)    S(lipo)     H(rot)  DE(clash)    DE(int)     intcor
     15.09     -16.01       1.77        0.00      81.00       1.90       0.07       0.85       ----

> <Gold.Chemscore.Fitness>
15.0890

> <Gold.Chemscore.DG>
-16.0109

> <Gold.Chemscore.ZeroCoef>
-5.4800

> <Gold.Chemscore.Hbond>
1.7712

> <Gold.Chemscore.Metal>
0.0000

> <Gold.Chemscore.Lipo>
81.0028

> <Gold.Chemscore.Internal_Hbond>
0.0000

> <Gold.Chemscore.DEClash>
0.0677

> <Gold.Chemscore.DEInternal>
0.8541

> <Gold.Chemscore.Rot>
1.8993

> <Gold.Chemscore.Internal.Correction>
   9.000000E+99

> <Gold.Chemscore.Hbonds>
donor molecule, donor type, donor heavy atom, donor atom, acceptor molecule, acceptor atom, score
      P1  H  7989  7998       L1     4  0.30
      P1  H  7997  8010       L1     3  0.98

> <Gold.Chemscore.Hbond.Weighted>
-5.9157

> <Gold.Chemscore.Metal.Weighted>
-0.0000

> <Gold.Chemscore.Lipo.Weighted>
-9.4773

> <Gold.Chemscore.Internal_Hbond.Weighted>
0.0000

> <Gold.Chemscore.DEClash.Weighted>
0.0677

> <Gold.Chemscore.DEInternal.Weighted>
0.8541

> <Gold.Chemscore.Rot.Weighted>
4.8622

> <Gold.Chemscore.Internal.Correction.Weighted>
   9.000000E+99

> <Gold.Protein.RotatedTorsions>
[ 6907 6896 6895 6894 ] final   65.02 input  -60.11 | X-H torsion
[ 7974 7965 7964 7962 ] final  -26.03 input  175.53 | X-H torsion
[ 8008 7997 7996 7995 ] final  124.36 input   59.86 | X-H torsion
[ 10167 10162 10161 10158 ] final  105.32 input  -65.29 | X-H torsion
[ 10718 10713 10712 10709 ] final  156.11 input   66.30 | X-H torsion
[ 10763 10752 10751 10750 ] final   72.73 input  -60.55 | X-H torsion
[ 11005 11000 10999 10996 ] final -125.76 input  -57.11 | X-H torsion

> <Gold.Protein.ActiveResidues>
 VAL166  LYS551  ARG553  GLY616  TRP617  ASP618  TYR619  PRO620  LYS621  CYS622 
 ASP623  PHE694  ASN695  SER759  ASP760  ASP761  ALA762  ILE779  LEU786  VAL792 
 PHE793  MET794  SER795  GLU796  ALA797  LYS798  CYS799  TRP800  GLU811  SER814 

> <Gold.Protein.RotatedAtoms>
  152.4376  134.5656  159.9906 H   0  0  0  0  0  0  0  0  0  0  0  0  # atno 6907 bound_to 6896
  151.5762  133.3378  159.3007 H   0  0  0  0  0  0  0  0  0  0  0  0  # atno 6908 bound_to 6896
  150.8276  134.7549  159.6891 H   0  0  0  0  0  0  0  0  0  0  0  0  # atno 6909 bound_to 6896
  146.1452  140.4965  142.8635 H   0  0  0  0  0  0  0  0  0  0  0  0  # atno 7974 bound_to 7965
  156.2799  140.2741  156.1776 H   0  0  0  0  0  0  0  0  0  0  0  0  # atno 8008 bound_to 7997
  155.0590  140.0386  157.2588 H   0  0  0  0  0  0  0  0  0  0  0  0  # atno 8009 bound_to 7997
  154.7133  140.2673  155.6614 H   0  0  0  0  0  0  0  0  0  0  0  0  # atno 8010 bound_to 7997
  139.7102  144.7079  151.1039 H   0  0  0  0  0  0  0  0  0  0  0  0  # atno 10167 bound_to 10162
  157.2094  131.0694  151.1978 H   0  0  0  0  0  0  0  0  0  0  0  0  # atno 10718 bound_to 10713
  153.0477  135.5089  154.7788 H   0  0  0  0  0  0  0  0  0  0  0  0  # atno 10763 bound_to 10752
  154.6675  135.2948  154.9788 H   0  0  0  0  0  0  0  0  0  0  0  0  # atno 10764 bound_to 10752
  154.0618  135.6690  153.4865 H   0  0  0  0  0  0  0  0  0  0  0  0  # atno 10765 bound_to 10752
  140.9736  134.0771  157.3843 H   0  0  0  0  0  0  0  0  0  0  0  0  # atno 11005 bound_to 11000
  144.7838  140.5895  143.6587 LP  0  0  0  0  0  0  0  0  0  0  0  0  # atno 17320 bound_to 7965
  145.4953  139.1486  143.3687 LP  0  0  0  0  0  0  0  0  0  0  0  0  # atno 17321 bound_to 7965
  140.7731  143.5303  150.9431 LP  0  0  0  0  0  0  0  0  0  0  0  0  # atno 17342 bound_to 10162
  139.8987  143.6862  152.3134 LP  0  0  0  0  0  0  0  0  0  0  0  0  # atno 17343 bound_to 10162
  157.3687  130.7170  149.6550 LP  0  0  0  0  0  0  0  0  0  0  0  0  # atno 17370 bound_to 10713
  155.9692  130.4205  150.4424 LP  0  0  0  0  0  0  0  0  0  0  0  0  # atno 17371 bound_to 10713
  139.8922  135.0123  156.6831 LP  0  0  0  0  0  0  0  0  0  0  0  0  # atno 17394 bound_to 11000
  140.7292  133.9073  155.8199 LP  0  0  0  0  0  0  0  0  0  0  0  0  # atno 17395 bound_to 11000

$$$$
