AV-unprocessed.smi:1407|AV-procd|sdf|5725|dock9
  -GOLD-   22720 5363D 1   1.00000     0.00000
 Structure written by MMmdl.
 50 51  0  0  0  0  0  0  0  0  2 V2000
  150.9471  136.3991  155.3027 C   0  0  0  0  0  0  0  0  0  0  0  0
  151.1484  137.8178  155.7034 N   0  3  0  0  0  0  0  0  0  0  0  0
  152.4034  138.3407  155.0944 C   0  0  0  0  0  0  0  0  0  0  0  0
  149.9320  138.7131  155.5970 C   0  0  0  0  0  0  0  0  0  0  0  0
  148.7381  137.9947  156.3113 C   0  0  0  0  0  0  0  0  0  0  0  0
  149.0080  137.6870  157.7145 N   0  0  0  0  0  0  0  0  0  0  0  0
  148.6559  136.5756  158.3814 C   0  0  0  0  0  0  0  0  0  0  0  0
  148.0501  135.6447  157.8536 O   0  0  0  0  0  0  0  0  0  0  0  0
  149.0103  136.4878  159.8759 C   0  0  0  0  0  0  0  0  0  0  0  0
  148.1229  135.6165  160.6679 N   0  0  0  0  0  0  0  0  0  0  0  0
  148.0237  134.2709  160.2605 C   0  0  0  0  0  0  0  0  0  0  0  0
  147.2280  133.3943  160.8930 C   0  0  0  0  0  0  0  0  0  0  0  0
  146.4625  133.8612  162.0245 C   0  0  0  0  0  0  0  0  0  0  0  0
  146.5483  135.1465  162.4213 C   0  0  0  0  0  0  0  0  0  0  0  0
  147.4084  136.1108  161.7257 C   0  0  0  0  0  0  0  0  0  0  0  0
  147.4732  137.2923  162.0646 O   0  0  0  0  0  0  0  0  0  0  0  0
  150.2225  140.0684  156.3277 C   0  0  0  0  0  0  0  0  0  0  0  0
  149.6633  141.3831  155.7502 C   0  0  0  0  0  0  0  0  0  0  0  0
  148.1731  141.3993  155.3889 C   0  0  0  0  0  0  0  0  0  0  0  0
  147.9197  140.9301  153.9516 C   0  0  0  0  0  0  0  0  0  0  0  0
  148.1611  139.4352  153.7146 C   0  0  0  0  0  0  0  0  0  0  0  0
  149.5735  138.9190  154.0806 C   0  0  0  0  0  0  0  0  0  0  0  0
  150.5913  136.3178  154.2756 H   0  0  0  0  0  0  0  0  0  0  0  0
  150.2456  135.8798  155.9541 H   0  0  0  0  0  0  0  0  0  0  0  0
  151.8837  135.8443  155.3714 H   0  0  0  0  0  0  0  0  0  0  0  0
  152.3791  138.2960  154.0058 H   0  0  0  0  0  0  0  0  0  0  0  0
  153.2492  137.7347  155.4206 H   0  0  0  0  0  0  0  0  0  0  0  0
  152.6358  139.3629  155.3816 H   0  0  0  0  0  0  0  0  0  0  0  0
  147.8045  138.5478  156.2244 H   0  0  0  0  0  0  0  0  0  0  0  0
  148.5101  137.0509  155.8216 H   0  0  0  0  0  0  0  0  0  0  0  0
  149.5094  138.3942  158.2333 H   0  0  0  0  0  0  0  0  0  0  0  0
  150.0397  136.1357  159.9583 H   0  0  0  0  0  0  0  0  0  0  0  0
  149.0275  137.4987  160.2870 H   0  0  0  0  0  0  0  0  0  0  0  0
  148.6255  134.0052  159.4033 H   0  0  0  0  0  0  0  0  0  0  0  0
  147.1616  132.3676  160.5641 H   0  0  0  0  0  0  0  0  0  0  0  0
  145.8196  133.1759  162.5575 H   0  0  0  0  0  0  0  0  0  0  0  0
  145.9695  135.4772  163.2713 H   0  0  0  0  0  0  0  0  0  0  0  0
  149.9092  139.9873  157.3695 H   0  0  0  0  0  0  0  0  0  0  0  0
  151.2968  140.2389  156.3827 H   0  0  0  0  0  0  0  0  0  0  0  0
  149.8388  142.1617  156.4936 H   0  0  0  0  0  0  0  0  0  0  0  0
  150.2542  141.6859  154.8849 H   0  0  0  0  0  0  0  0  0  0  0  0
  147.5789  140.8396  156.1099 H   0  0  0  0  0  0  0  0  0  0  0  0
  147.8221  142.4296  155.4610 H   0  0  0  0  0  0  0  0  0  0  0  0
  146.8873  141.1585  153.6845 H   0  0  0  0  0  0  0  0  0  0  0  0
  148.5355  141.5118  153.2645 H   0  0  0  0  0  0  0  0  0  0  0  0
  147.3769  138.8518  154.1932 H   0  0  0  0  0  0  0  0  0  0  0  0
  148.0126  139.2545  152.6492 H   0  0  0  0  0  0  0  0  0  0  0  0
  150.3078  139.5675  153.6013 H   0  0  0  0  0  0  0  0  0  0  0  0
  149.6691  137.9553  153.5778 H   0  0  0  0  0  0  0  0  0  0  0  0
  151.3424  137.7781  156.6941 H   0  0  0  0  0  0  0  0  0  0  0  0
  1  2  1  0  0  0  0
  1 23  1  0  0  0  0
  1 24  1  0  0  0  0
  1 25  1  0  0  0  0
  2  3  1  0  0  0  0
  2  4  1  0  0  0  0
  2 50  1  0  0  0  0
  3 26  1  0  0  0  0
  3 27  1  0  0  0  0
  3 28  1  0  0  0  0
  4 22  1  0  0  0  0
  4  5  1  0  0  0  0
  4 17  1  0  0  0  0
  5  6  1  0  0  0  0
  5 29  1  0  0  0  0
  5 30  1  0  0  0  0
  6  7  1  0  0  0  0
  6 31  1  0  0  0  0
  7  8  2  0  0  0  0
  7  9  1  0  0  0  0
  9 10  1  0  0  0  0
  9 32  1  0  0  0  0
  9 33  1  0  0  0  0
 10 15  1  0  0  0  0
 10 11  1  0  0  0  0
 11 12  2  0  0  0  0
 11 34  1  0  0  0  0
 12 13  1  0  0  0  0
 12 35  1  0  0  0  0
 13 14  2  0  0  0  0
 13 36  1  0  0  0  0
 14 15  1  0  0  0  0
 14 37  1  0  0  0  0
 15 16  2  0  0  0  0
 17 18  1  0  0  0  0
 17 38  1  0  0  0  0
 17 39  1  0  0  0  0
 18 19  1  0  0  0  0
 18 40  1  0  0  0  0
 18 41  1  0  0  0  0
 19 20  1  0  0  0  0
 19 42  1  0  0  0  0
 19 43  1  0  0  0  0
 20 21  1  0  0  0  0
 20 44  1  0  0  0  0
 20 45  1  0  0  0  0
 21 22  1  0  0  0  0
 21 46  1  0  0  0  0
 21 47  1  0  0  0  0
 22 48  1  0  0  0  0
 22 49  1  0  0  0  0
M  CHG  1   2   1
M  END
> <s_m_source_file>
AV-unprocessed.smi

> <i_m_source_file_index>
1407

> <i_lp_mmshare_version>
43012

> <i_f3d_flags>
0

> <s_epik_input>
W0NIMl0xW0NIMl1bQ0gyXVtDSDJdW0NIMl1bQ0gyXUMxKE4oW0NIM10pW0NIM10pW0NIMl1bTkhdQyg9TylbQ0gyXW4yW2NIXVtjSF1bY0hdW2NIXWMyPU8=

> <s_epik_cmdline>
J2VwaWtfcHl0aG9uJywgJy1waCcsICc3LjAnLCAnLXRuJywgJzgnLCAnLW1hJywgJzIwMCcsICctbWV0YWxfYmluZGluZycsICctaW1hZScsICc8aW5maWxlLm1hZT4nLCAnLW9tYWUnLCAnPG91dGZpbGUubWFlPic=

> <r_lp_tautomer_probability>
1

> <r_epik_Ionization_Penalty>
0.00225809

> <r_epik_Ionization_Penalty_Charging>
0.00225802

> <r_epik_Ionization_Penalty_Neutral>
7.38919e-08

> <r_epik_State_Penalty>
0.00155497

> <r_epik_Charging_Adjusted_Penalty>
0.00381299

> <i_epik_Tot_Q>
1

> <i_epik_Tot_abs_Q>
1

> <r_epik_Metal_State_Penalty>
-0

> <b_epik_Metal_Only>
0

> <s_lp_Force_Field>
OPLS_2005

> <r_lp_Energy>
50.9808

> <b_lp_Chiralities_Consistent>
1

> <s_lp_Variant>
AV-unprocessed.smi:1407-1

> <Gold.Version>
5.8.1

> <Gold.Id.Protein>
6NUR|6NUR_protein|mol2

> <Gold.PLP.Fitness>
39.2624

> <Gold.PLP.PLP>
-36.0396

> <Gold.PLP.part.hbond>
-2.0000

> <Gold.PLP.part.metal>
0.0000

> <Gold.PLP.part.buried>
-1.9069

> <Gold.PLP.part.nonpolar>
-32.6013

> <Gold.PLP.part.repulsive>
0.1255

> <Gold.PLP.ligand.clash>
0.0000

> <Gold.PLP.ligand.torsion>
0.5948

> <Gold.PLP.Chemscore.Hbond>
1.4240

> <Gold.PLP.Chemscore.CHOScore>
0.0000

> <Gold.PLP.Chemscore.Metal>
0.0000

> <Gold.Chemscore.Hbonds>
donor molecule, donor type, donor heavy atom, donor atom, acceptor molecule, acceptor atom, score
      P1  H  6931  6943       L1    16  0.86
      P1  H  6934  6947       L1    16  0.57

> <Gold.PLP.Chemscore.Internal.Correction>
0.1403

> <Gold.Rescore>
     Score         DG    S(hbond)    S(metal)    S(lipo)     H(rot)  DE(clash)    DE(int)     intcor
     13.89     -16.23       1.55        0.00      87.37       1.81       0.40       1.94       ----

> <Gold.Chemscore.Fitness>
13.8907

> <Gold.Chemscore.DG>
-16.2261

> <Gold.Chemscore.ZeroCoef>
-5.4800

> <Gold.Chemscore.Hbond>
1.5476

> <Gold.Chemscore.Metal>
0.0000

> <Gold.Chemscore.Lipo>
87.3693

> <Gold.Chemscore.Internal_Hbond>
0.0000

> <Gold.Chemscore.DEClash>
0.3999

> <Gold.Chemscore.DEInternal>
1.9354

> <Gold.Chemscore.Rot>
1.8145

> <Gold.Chemscore.Internal.Correction>
   9.000000E+99

> <Gold.Chemscore.Hbonds>
donor molecule, donor type, donor heavy atom, donor atom, acceptor molecule, acceptor atom, score
      P1  H  6931  6943       L1    16  0.84
      P1  H  6934  6947       L1    16  0.55

> <Gold.Chemscore.Hbond.Weighted>
-5.1690

> <Gold.Chemscore.Metal.Weighted>
-0.0000

> <Gold.Chemscore.Lipo.Weighted>
-10.2222

> <Gold.Chemscore.Internal_Hbond.Weighted>
0.0000

> <Gold.Chemscore.DEClash.Weighted>
0.3999

> <Gold.Chemscore.DEInternal.Weighted>
1.9354

> <Gold.Chemscore.Rot.Weighted>
4.6451

> <Gold.Chemscore.Internal.Correction.Weighted>
   9.000000E+99

> <Gold.Protein.RotatedTorsions>
[ 6907 6896 6895 6894 ] final -176.43 input  -60.11 | X-H torsion
[ 7974 7965 7964 7962 ] final   76.53 input  175.53 | X-H torsion
[ 8008 7997 7996 7995 ] final   83.05 input   59.86 | X-H torsion
[ 10167 10162 10161 10158 ] final    5.62 input  -65.29 | X-H torsion
[ 10718 10713 10712 10709 ] final   -3.23 input   66.30 | X-H torsion
[ 10763 10752 10751 10750 ] final -121.72 input  -60.55 | X-H torsion
[ 11005 11000 10999 10996 ] final   90.34 input  -57.11 | X-H torsion

> <Gold.Protein.ActiveResidues>
 VAL166  LYS551  ARG553  GLY616  TRP617  ASP618  TYR619  PRO620  LYS621  CYS622 
 ASP623  PHE694  ASN695  SER759  ASP760  ASP761  ALA762  ILE779  LEU786  VAL792 
 PHE793  MET794  SER795  GLU796  ALA797  LYS798  CYS799  TRP800  GLU811  SER814 

> <Gold.Protein.RotatedAtoms>
  151.6047  133.3353  159.3054 H   0  0  0  0  0  0  0  0  0  0  0  0  # atno 6907 bound_to 6896
  150.8189  134.7389  159.6766 H   0  0  0  0  0  0  0  0  0  0  0  0  # atno 6908 bound_to 6896
  152.4283  134.5831  160.0005 H   0  0  0  0  0  0  0  0  0  0  0  0  # atno 6909 bound_to 6896
  145.7016  139.2584  143.1702 H   0  0  0  0  0  0  0  0  0  0  0  0  # atno 7974 bound_to 7965
  155.9188  140.3422  155.6156 H   0  0  0  0  0  0  0  0  0  0  0  0  # atno 8008 bound_to 7997
  155.7298  140.0794  157.2312 H   0  0  0  0  0  0  0  0  0  0  0  0  # atno 8009 bound_to 7997
  154.4066  140.1590  156.2483 H   0  0  0  0  0  0  0  0  0  0  0  0  # atno 8010 bound_to 7997
  140.6472  143.7632  150.7518 H   0  0  0  0  0  0  0  0  0  0  0  0  # atno 10167 bound_to 10162
  156.7792  130.5325  149.5754 H   0  0  0  0  0  0  0  0  0  0  0  0  # atno 10718 bound_to 10713
  154.8674  135.4158  154.2666 H   0  0  0  0  0  0  0  0  0  0  0  0  # atno 10763 bound_to 10752
  153.3584  135.7002  153.6737 H   0  0  0  0  0  0  0  0  0  0  0  0  # atno 10764 bound_to 10752
  153.5648  135.3603  155.2786 H   0  0  0  0  0  0  0  0  0  0  0  0  # atno 10765 bound_to 10752
  139.8858  134.8608  156.3271 H   0  0  0  0  0  0  0  0  0  0  0  0  # atno 11005 bound_to 11000
  146.0793  140.7782  142.9649 LP  0  0  0  0  0  0  0  0  0  0  0  0  # atno 17320 bound_to 7965
  144.6967  140.3463  143.7190 LP  0  0  0  0  0  0  0  0  0  0  0  0  # atno 17321 bound_to 7965
  140.1276  143.4555  152.2274 LP  0  0  0  0  0  0  0  0  0  0  0  0  # atno 17342 bound_to 10162
  139.5684  144.7448  151.3958 LP  0  0  0  0  0  0  0  0  0  0  0  0  # atno 17343 bound_to 10162
  156.1229  130.6123  151.0220 LP  0  0  0  0  0  0  0  0  0  0  0  0  # atno 17370 bound_to 10713
  157.6654  131.0872  150.7740 LP  0  0  0  0  0  0  0  0  0  0  0  0  # atno 17371 bound_to 10713
  140.9748  133.7304  156.0586 LP  0  0  0  0  0  0  0  0  0  0  0  0  # atno 17394 bound_to 11000
  140.7825  134.3709  157.5484 LP  0  0  0  0  0  0  0  0  0  0  0  0  # atno 17395 bound_to 11000

$$$$
