AV-unprocessed.smi:193|AV-procd|sdf|1506|dock7
  -GOLD-   2262019333D 1   1.00000     0.00000
 Structure written by MMmdl.
 62 66  0  0  0  0  0  0  0  0  2 V2000
  149.5460  132.6335  154.0108 C   0  0  0  0  0  0  0  0  0  0  0  0
  148.2018  133.3424  153.7852 C   0  0  2  0  0  0  0  0  0  0  0  0
  147.1705  132.9159  154.8484 C   0  0  0  0  0  0  0  0  0  0  0  0
  146.1981  133.9750  155.1152 N   0  0  0  0  0  0  0  0  0  0  0  0
  145.6734  133.8896  156.3550 C   0  0  0  0  0  0  0  0  0  0  0  0
  144.3411  134.0991  156.4863 N   0  0  0  0  0  0  0  0  0  0  0  0
  143.7740  134.0344  157.6953 C   0  0  0  0  0  0  0  0  0  0  0  0
  144.3471  133.7800  158.8742 N   0  0  0  0  0  0  0  0  0  0  0  0
  145.6882  133.5686  158.7408 C   0  0  0  0  0  0  0  0  0  0  0  0
  146.4284  133.6063  157.5268 C   0  0  0  0  0  0  0  0  0  0  0  0
  147.7706  133.3483  157.7772 N   0  0  0  0  0  0  0  0  0  0  0  0
  147.8200  133.1612  159.0682 C   0  0  0  0  0  0  0  0  0  0  0  0
  146.6143  133.2697  159.7247 N   0  0  0  0  0  0  0  0  0  0  0  0
  146.3836  133.1096  161.1521 C   0  0  0  0  0  0  0  0  0  0  0  0
  146.3024  134.4468  161.9291 C   0  0  0  0  0  0  0  0  0  0  0  0
  145.7236  134.1759  163.1945 O   0  0  0  0  0  0  0  0  0  0  0  0
  147.7148  135.0232  162.1532 C   0  0  0  0  0  0  0  0  0  0  0  0
  147.6767  136.4342  162.7665 C   0  0  0  0  0  0  0  0  0  0  0  0
  146.8911  137.2965  161.9529 O   0  0  0  0  0  0  0  0  0  0  0  0
  145.5315  136.8867  161.8712 C   0  0  0  0  0  0  0  0  0  0  0  0
  145.4333  135.5011  161.2087 C   0  0  0  0  0  0  0  0  0  0  0  0
  145.1958  134.3132  154.1075 C   0  0  0  0  0  0  0  0  0  0  0  0
  145.7926  134.6388  152.7300 C   0  0  0  0  0  0  0  0  0  0  0  0
  146.2883  133.3992  152.0856 N   0  3  1  0  0  0  0  0  0  0  0  0
  145.9511  133.3174  150.6452 C   0  0  2  0  0  0  0  0  0  0  0  0
  144.4653  133.3417  150.3623 C   0  0  0  0  0  0  0  0  0  0  0  0
  145.2341  132.0465  150.2220 C   0  0  2  0  0  0  0  0  0  0  0  0
  144.9463  130.8887  151.1609 C   0  0  0  0  0  0  0  0  0  0  0  0
  147.7252  133.1120  152.3320 C   0  0  0  0  0  0  0  0  0  0  0  0
  149.4475  131.5518  153.9144 H   0  0  0  0  0  0  0  0  0  0  0  0
  149.9403  132.8431  155.0057 H   0  0  0  0  0  0  0  0  0  0  0  0
  150.2917  132.9665  153.2884 H   0  0  0  0  0  0  0  0  0  0  0  0
  148.3973  134.4076  153.9199 H   0  0  0  0  0  0  0  0  0  0  0  0
  146.6616  131.9983  154.5494 H   0  0  0  0  0  0  0  0  0  0  0  0
  147.6938  132.6863  155.7787 H   0  0  0  0  0  0  0  0  0  0  0  0
  142.7089  134.2116  157.7222 H   0  0  0  0  0  0  0  0  0  0  0  0
  148.7424  132.9331  159.5825 H   0  0  0  0  0  0  0  0  0  0  0  0
  145.4645  132.5371  161.2863 H   0  0  0  0  0  0  0  0  0  0  0  0
  147.1858  132.4910  161.5566 H   0  0  0  0  0  0  0  0  0  0  0  0
  146.2295  133.4980  163.6162 H   0  0  0  0  0  0  0  0  0  0  0  0
  148.3057  134.3565  162.7830 H   0  0  0  0  0  0  0  0  0  0  0  0
  148.2360  135.0793  161.1965 H   0  0  0  0  0  0  0  0  0  0  0  0
  147.2812  136.4122  163.7829 H   0  0  0  0  0  0  0  0  0  0  0  0
  148.6869  136.8386  162.8306 H   0  0  0  0  0  0  0  0  0  0  0  0
  145.0815  136.8801  162.8649 H   0  0  0  0  0  0  0  0  0  0  0  0
  144.9804  137.6194  161.2814 H   0  0  0  0  0  0  0  0  0  0  0  0
  145.7634  135.5899  160.1730 H   0  0  0  0  0  0  0  0  0  0  0  0
  144.3894  135.1873  161.1716 H   0  0  0  0  0  0  0  0  0  0  0  0
  144.4718  133.5028  154.0121 H   0  0  0  0  0  0  0  0  0  0  0  0
  144.6393  135.1837  154.4589 H   0  0  0  0  0  0  0  0  0  0  0  0
  144.9944  135.0691  152.1240 H   0  0  0  0  0  0  0  0  0  0  0  0
  146.5669  135.4053  152.7849 H   0  0  0  0  0  0  0  0  0  0  0  0
  146.6356  133.8235  149.9668 H   0  0  0  0  0  0  0  0  0  0  0  0
  143.7829  133.4374  151.2053 H   0  0  0  0  0  0  0  0  0  0  0  0
  144.1362  133.8246  149.4443 H   0  0  0  0  0  0  0  0  0  0  0  0
  145.4326  131.7240  149.2016 H   0  0  0  0  0  0  0  0  0  0  0  0
  144.6712  131.2393  152.1561 H   0  0  0  0  0  0  0  0  0  0  0  0
  145.8223  130.2454  151.2447 H   0  0  0  0  0  0  0  0  0  0  0  0
  144.1208  130.2929  150.7709 H   0  0  0  0  0  0  0  0  0  0  0  0
  148.3349  133.7196  151.6614 H   0  0  0  0  0  0  0  0  0  0  0  0
  147.9048  132.0745  152.0498 H   0  0  0  0  0  0  0  0  0  0  0  0
  145.7722  132.6504  152.5254 H   0  0  0  0  0  0  0  0  0  0  0  0
  1  2  1  0  0  0  0
  1 30  1  0  0  0  0
  1 31  1  0  0  0  0
  1 32  1  0  0  0  0
  2 29  1  0  0  0  0
  2  3  1  0  0  0  0
  2 33  1  0  0  0  0
  3  4  1  0  0  0  0
  3 34  1  0  0  0  0
  3 35  1  0  0  0  0
  4  5  1  0  0  0  0
  4 22  1  0  0  0  0
  5 10  1  0  0  0  0
  5  6  2  0  0  0  0
  6  7  1  0  0  0  0
  7  8  2  0  0  0  0
  7 36  1  0  0  0  0
  8  9  1  0  0  0  0
  9 13  1  0  0  0  0
  9 10  2  0  0  0  0
 10 11  1  0  0  0  0
 11 12  2  0  0  0  0
 12 13  1  0  0  0  0
 12 37  1  0  0  0  0
 13 14  1  0  0  0  0
 14 15  1  0  0  0  0
 14 38  1  0  0  0  0
 14 39  1  0  0  0  0
 15 21  1  0  0  0  0
 15 16  1  0  0  0  0
 15 17  1  0  0  0  0
 16 40  1  0  0  0  0
 17 18  1  0  0  0  0
 17 41  1  0  0  0  0
 17 42  1  0  0  0  0
 18 19  1  0  0  0  0
 18 43  1  0  0  0  0
 18 44  1  0  0  0  0
 19 20  1  0  0  0  0
 20 21  1  0  0  0  0
 20 45  1  0  0  0  0
 20 46  1  0  0  0  0
 21 47  1  0  0  0  0
 21 48  1  0  0  0  0
 22 23  1  0  0  0  0
 22 49  1  0  0  0  0
 22 50  1  0  0  0  0
 23 24  1  0  0  0  0
 23 51  1  0  0  0  0
 23 52  1  0  0  0  0
 24 25  1  0  0  0  0
 24 29  1  0  0  0  0
 24 62  1  0  0  0  0
 25 27  1  0  0  0  0
 25 26  1  0  0  0  0
 25 53  1  0  0  0  0
 26 27  1  0  0  0  0
 26 54  1  0  0  0  0
 26 55  1  0  0  0  0
 27 28  1  0  0  0  0
 27 56  1  0  0  0  0
 28 57  1  0  0  0  0
 28 58  1  0  0  0  0
 28 59  1  0  0  0  0
 29 60  1  0  0  0  0
 29 61  1  0  0  0  0
M  CHG  1  24   1
M  END
> <s_m_source_file>
AV-unprocessed.smi

> <i_m_source_file_index>
193

> <i_lp_mmshare_version>
43012

> <i_f3d_flags>
0

> <s_epik_input>
W0NIM11bQ0BASF0xW0NIMl1bQ0BIXTFOKFtDSDJdMilbQ0gyXVtDSDJdTihbQ0gyXVtDQEhdMltDSDNdKWMobltjSF1uMyljKGMzNCluW2NIXW40W0NIMl1DNShbT0hdKVtDSDJdW0NIMl1PW0NIMl1bQ0gyXTU=

> <s_epik_cmdline>
J2VwaWtfcHl0aG9uJywgJy1waCcsICc3LjAnLCAnLXRuJywgJzgnLCAnLW1hJywgJzIwMCcsICctbWV0YWxfYmluZGluZycsICctaW1hZScsICc8aW5maWxlLm1hZT4nLCAnLW9tYWUnLCAnPG91dGZpbGUubWFlPic=

> <r_lp_tautomer_probability>
1

> <r_epik_Ionization_Penalty>
0.0540825

> <r_epik_Ionization_Penalty_Charging>
0.0538476

> <r_epik_Ionization_Penalty_Neutral>
0.000234891

> <r_epik_State_Penalty>
0.0200719

> <r_epik_Charging_Adjusted_Penalty>
0.0739194

> <i_epik_Tot_Q>
1

> <i_epik_Tot_abs_Q>
1

> <r_epik_Metal_State_Penalty>
0.0199414

> <b_epik_Metal_Only>
0

> <s_lp_Force_Field>
OPLS_2005

> <r_lp_Energy>
59.2238

> <b_lp_Chiralities_Consistent>
1

> <s_lp_Variant>
AV-unprocessed.smi:193-11

> <Gold.Version>
5.8.1

> <Gold.Id.Protein>
6NUR|6NUR_protein|mol2

> <Gold.PLP.Fitness>
45.7243

> <Gold.PLP.PLP>
-41.4595

> <Gold.PLP.part.hbond>
-2.7623

> <Gold.PLP.part.metal>
0.0000

> <Gold.PLP.part.buried>
-7.4876

> <Gold.PLP.part.nonpolar>
-31.9682

> <Gold.PLP.part.repulsive>
0.1501

> <Gold.PLP.ligand.clash>
0.0000

> <Gold.PLP.ligand.torsion>
1.4245

> <Gold.PLP.Chemscore.Hbond>
0.8320

> <Gold.PLP.Chemscore.CHOScore>
1.0000

> <Gold.PLP.Chemscore.Metal>
0.0000

> <Gold.Chemscore.Hbonds>
donor molecule, donor type, donor heavy atom, donor atom, acceptor molecule, acceptor atom, score
      P1  H  6934  6947       L1    19  0.83
      L1  C     7    36       P1 11000  0.99

> <Gold.PLP.Chemscore.Internal.Correction>
1.6178

> <Gold.Rescore>
     Score         DG    S(hbond)    S(metal)    S(lipo)     H(rot)  DE(clash)    DE(int)     intcor
     12.81     -14.96       0.85        0.00     104.83       2.20       0.77       1.38       ----

> <Gold.Chemscore.Fitness>
12.8131

> <Gold.Chemscore.DG>
-14.9640

> <Gold.Chemscore.ZeroCoef>
-5.4800

> <Gold.Chemscore.Hbond>
0.8549

> <Gold.Chemscore.Metal>
0.0000

> <Gold.Chemscore.Lipo>
104.8313

> <Gold.Chemscore.Internal_Hbond>
0.0000

> <Gold.Chemscore.DEClash>
0.7720

> <Gold.Chemscore.DEInternal>
1.3789

> <Gold.Chemscore.Rot>
2.2018

> <Gold.Chemscore.Internal.Correction>
   9.000000E+99

> <Gold.Chemscore.Hbonds>
donor molecule, donor type, donor heavy atom, donor atom, acceptor molecule, acceptor atom, score
      P1  H  6934  6947       L1    19  0.62

> <Gold.Chemscore.Hbond.Weighted>
-2.8553

> <Gold.Chemscore.Metal.Weighted>
-0.0000

> <Gold.Chemscore.Lipo.Weighted>
-12.2653

> <Gold.Chemscore.Internal_Hbond.Weighted>
0.0000

> <Gold.Chemscore.DEClash.Weighted>
0.7720

> <Gold.Chemscore.DEInternal.Weighted>
1.3789

> <Gold.Chemscore.Rot.Weighted>
5.6366

> <Gold.Chemscore.Internal.Correction.Weighted>
   9.000000E+99

> <Gold.Protein.RotatedTorsions>
[ 6907 6896 6895 6894 ] final  163.03 input  -60.11 | X-H torsion
[ 7974 7965 7964 7962 ] final   97.27 input  175.53 | X-H torsion
[ 8008 7997 7996 7995 ] final   83.13 input   59.86 | X-H torsion
[ 10167 10162 10161 10158 ] final  -35.49 input  -65.29 | X-H torsion
[ 10718 10713 10712 10709 ] final -146.74 input   66.30 | X-H torsion
[ 10763 10752 10751 10750 ] final  102.08 input  -60.55 | X-H torsion
[ 11005 11000 10999 10996 ] final   59.81 input  -57.11 | X-H torsion

> <Gold.Protein.ActiveResidues>
 VAL166  LYS551  ARG553  GLY616  TRP617  ASP618  TYR619  PRO620  LYS621  CYS622 
 ASP623  PHE694  ASN695  SER759  ASP760  ASP761  ALA762  ILE779  LEU786  VAL792 
 PHE793  MET794  SER795  GLU796  ALA797  LYS798  CYS799  TRP800  GLU811  SER814 

> <Gold.Protein.RotatedAtoms>
  151.9314  133.3612  159.3931 H   0  0  0  0  0  0  0  0  0  0  0  0  # atno 6907 bound_to 6896
  150.7016  134.4534  159.5356 H   0  0  0  0  0  0  0  0  0  0  0  0  # atno 6908 bound_to 6896
  152.2175  134.8444  160.0541 H   0  0  0  0  0  0  0  0  0  0  0  0  # atno 6909 bound_to 6896
  145.4277  139.2314  143.3161 H   0  0  0  0  0  0  0  0  0  0  0  0  # atno 7974 bound_to 7965
  155.9198  140.3422  155.6164 H   0  0  0  0  0  0  0  0  0  0  0  0  # atno 8008 bound_to 7997
  155.7287  140.0792  157.2317 H   0  0  0  0  0  0  0  0  0  0  0  0  # atno 8009 bound_to 7997
  154.4068  140.1592  156.2471 H   0  0  0  0  0  0  0  0  0  0  0  0  # atno 8010 bound_to 7997
  140.7164  143.3474  151.2228 H   0  0  0  0  0  0  0  0  0  0  0  0  # atno 10167 bound_to 10162
  156.3987  130.7923  151.2131 H   0  0  0  0  0  0  0  0  0  0  0  0  # atno 10718 bound_to 10713
  153.3350  135.4022  155.1526 H   0  0  0  0  0  0  0  0  0  0  0  0  # atno 10763 bound_to 10752
  154.8631  135.3619  154.5421 H   0  0  0  0  0  0  0  0  0  0  0  0  # atno 10764 bound_to 10752
  153.5862  135.7075  153.5502 H   0  0  0  0  0  0  0  0  0  0  0  0  # atno 10765 bound_to 10752
  140.0276  134.6059  155.9551 H   0  0  0  0  0  0  0  0  0  0  0  0  # atno 11005 bound_to 11000
  146.2623  140.5010  142.8848 LP  0  0  0  0  0  0  0  0  0  0  0  0  # atno 17320 bound_to 7965
  144.8203  140.6538  143.6357 LP  0  0  0  0  0  0  0  0  0  0  0  0  # atno 17321 bound_to 7965
  139.6996  143.9554  152.2899 LP  0  0  0  0  0  0  0  0  0  0  0  0  # atno 17342 bound_to 10162
  139.9243  144.6780  150.8428 LP  0  0  0  0  0  0  0  0  0  0  0  0  # atno 17343 bound_to 10162
  157.7503  131.0293  150.4088 LP  0  0  0  0  0  0  0  0  0  0  0  0  # atno 17370 bound_to 10713
  156.4364  130.3982  149.6726 LP  0  0  0  0  0  0  0  0  0  0  0  0  # atno 17371 bound_to 10713
  141.1812  133.6547  156.5029 LP  0  0  0  0  0  0  0  0  0  0  0  0  # atno 17394 bound_to 11000
  140.4279  134.7128  157.4926 LP  0  0  0  0  0  0  0  0  0  0  0  0  # atno 17395 bound_to 11000

$$$$
