AV-unprocessed.smi:1529|AV-procd|sdf|6153|dock2
  -GOLD-   22720 6303D 1   1.00000     0.00000
 Structure written by MMmdl.
 50 51  0  0  0  0  0  0  0  0  1 V2000
  152.9192  130.1115  157.0004 C   0  0  0  0  0  0  0  0  0  0  0  0
  151.8790  131.2174  156.8612 C   0  0  0  0  0  0  0  0  0  0  0  0
  151.5251  131.8612  157.8485 O   0  0  0  0  0  0  0  0  0  0  0  0
  151.3965  131.4254  155.6269 N   0  0  0  0  0  0  0  0  0  0  0  0
  150.3986  132.4290  155.2745 C   0  0  0  0  0  0  0  0  0  0  0  0
  150.6693  133.7712  155.9736 C   0  0  0  0  0  0  0  0  0  0  0  0
  150.1128  134.9643  155.1800 C   0  0  0  0  0  0  0  0  0  0  0  0
  150.3906  136.2317  155.8459 N   0  0  0  0  0  0  0  0  0  0  0  0
  151.5321  136.5319  156.4871 C   0  0  0  0  0  0  0  0  0  0  0  0
  152.4891  135.7618  156.5675 O   0  0  0  0  0  0  0  0  0  0  0  0
  151.6112  137.9183  157.0583 C   0  0  0  0  0  0  0  0  0  0  0  0
  150.5012  138.7910  157.0511 C   0  0  0  0  0  0  0  0  0  0  0  0
  150.6325  140.0723  157.6202 C   0  0  0  0  0  0  0  0  0  0  0  0
  151.8704  140.4519  158.1902 C   0  0  0  0  0  0  0  0  0  0  0  0
  152.0253  141.7343  158.7587 N   0  0  0  0  0  0  0  0  0  0  0  0
  152.2760  141.7601  160.1961 C   0  0  0  0  0  0  0  0  0  0  0  0
  152.7824  143.1479  160.6269 C   0  0  2  0  0  0  0  0  0  0  0  0
  152.9305  143.2538  162.1484 C   0  0  0  0  0  0  0  0  0  0  0  0
  151.8577  144.1486  160.2023 O   0  0  0  0  0  0  0  0  0  0  0  0
  151.6093  144.1754  158.7950 C   0  0  1  0  0  0  0  0  0  0  0  0
  152.8144  144.7117  158.0017 C   0  0  0  0  0  0  0  0  0  0  0  0
  151.1229  142.7945  158.3141 C   0  0  0  0  0  0  0  0  0  0  0  0
  152.9284  139.6047  158.2144 N   0  0  0  0  0  0  0  0  0  0  0  0
  152.7980  138.3773  157.6683 C   0  0  0  0  0  0  0  0  0  0  0  0
  152.5007  129.1544  156.6881 H   0  0  0  0  0  0  0  0  0  0  0  0
  153.2504  130.0177  158.0351 H   0  0  0  0  0  0  0  0  0  0  0  0
  153.7903  130.3275  156.3810 H   0  0  0  0  0  0  0  0  0  0  0  0
  151.7498  130.8491  154.8767 H   0  0  0  0  0  0  0  0  0  0  0  0
  150.3681  132.5614  154.1917 H   0  0  0  0  0  0  0  0  0  0  0  0
  149.4200  132.0486  155.5681 H   0  0  0  0  0  0  0  0  0  0  0  0
  150.2263  133.7590  156.9703 H   0  0  0  0  0  0  0  0  0  0  0  0
  151.7438  133.8969  156.1150 H   0  0  0  0  0  0  0  0  0  0  0  0
  150.5219  134.9753  154.1682 H   0  0  0  0  0  0  0  0  0  0  0  0
  149.0318  134.8688  155.0760 H   0  0  0  0  0  0  0  0  0  0  0  0
  149.6674  136.9351  155.8081 H   0  0  0  0  0  0  0  0  0  0  0  0
  149.5550  138.4921  156.6236 H   0  0  0  0  0  0  0  0  0  0  0  0
  149.7832  140.7392  157.6276 H   0  0  0  0  0  0  0  0  0  0  0  0
  151.3468  141.5213  160.7156 H   0  0  0  0  0  0  0  0  0  0  0  0
  153.0049  141.0071  160.4925 H   0  0  0  0  0  0  0  0  0  0  0  0
  153.7590  143.3358  160.1806 H   0  0  0  0  0  0  0  0  0  0  0  0
  153.6388  142.5164  162.5264 H   0  0  0  0  0  0  0  0  0  0  0  0
  151.9765  143.0900  162.6504 H   0  0  0  0  0  0  0  0  0  0  0  0
  153.2937  144.2405  162.4364 H   0  0  0  0  0  0  0  0  0  0  0  0
  150.7940  144.8835  158.6441 H   0  0  0  0  0  0  0  0  0  0  0  0
  152.5534  144.8524  156.9525 H   0  0  0  0  0  0  0  0  0  0  0  0
  153.6664  144.0333  158.0331 H   0  0  0  0  0  0  0  0  0  0  0  0
  153.1387  145.6763  158.3924 H   0  0  0  0  0  0  0  0  0  0  0  0
  151.0370  142.7947  157.2266 H   0  0  0  0  0  0  0  0  0  0  0  0
  150.1277  142.5969  158.7155 H   0  0  0  0  0  0  0  0  0  0  0  0
  153.6757  137.7491  157.7188 H   0  0  0  0  0  0  0  0  0  0  0  0
  1  2  1  0  0  0  0
  1 25  1  0  0  0  0
  1 26  1  0  0  0  0
  1 27  1  0  0  0  0
  2  3  2  0  0  0  0
  2  4  1  0  0  0  0
  4  5  1  0  0  0  0
  4 28  1  0  0  0  0
  5  6  1  0  0  0  0
  5 29  1  0  0  0  0
  5 30  1  0  0  0  0
  6  7  1  0  0  0  0
  6 31  1  0  0  0  0
  6 32  1  0  0  0  0
  7  8  1  0  0  0  0
  7 33  1  0  0  0  0
  7 34  1  0  0  0  0
  8  9  1  0  0  0  0
  8 35  1  0  0  0  0
  9 10  2  0  0  0  0
  9 11  1  0  0  0  0
 11 24  1  0  0  0  0
 11 12  2  0  0  0  0
 12 13  1  0  0  0  0
 12 36  1  0  0  0  0
 13 14  2  0  0  0  0
 13 37  1  0  0  0  0
 14 15  1  0  0  0  0
 14 23  1  0  0  0  0
 15 22  1  0  0  0  0
 15 16  1  0  0  0  0
 16 17  1  0  0  0  0
 16 38  1  0  0  0  0
 16 39  1  0  0  0  0
 17 18  1  0  0  0  0
 17 19  1  0  0  0  0
 17 40  1  0  0  0  0
 18 41  1  0  0  0  0
 18 42  1  0  0  0  0
 18 43  1  0  0  0  0
 19 20  1  0  0  0  0
 20 21  1  0  0  0  0
 20 22  1  0  0  0  0
 20 44  1  0  0  0  0
 21 45  1  0  0  0  0
 21 46  1  0  0  0  0
 21 47  1  0  0  0  0
 22 48  1  0  0  0  0
 22 49  1  0  0  0  0
 23 24  2  0  0  0  0
 24 50  1  0  0  0  0
M  END
> <s_m_source_file>
AV-unprocessed.smi

> <i_m_source_file_index>
1529

> <i_lp_mmshare_version>
43012

> <i_f3d_flags>
0

> <s_epik_input>
W0NIM11DKD1PKVtOSF1bQ0gyXVtDSDJdW0NIMl1bTkhdQyg9TyljMVtjSF1bY0hdYyhuW2NIXTEpTjJbQ0gyXVtDQEBIXShbQ0gzXSlPW0NAQEhdKFtDSDNdKVtDSDJdMg==

> <s_epik_cmdline>
J2VwaWtfcHl0aG9uJywgJy1waCcsICc3LjAnLCAnLXRuJywgJzgnLCAnLW1hJywgJzIwMCcsICctbWV0YWxfYmluZGluZycsICctaW1hZScsICc8aW5maWxlLm1hZT4nLCAnLW9tYWUnLCAnPG91dGZpbGUubWFlPic=

> <r_lp_tautomer_probability>
1

> <r_epik_Ionization_Penalty>
2.1474e-05

> <r_epik_Ionization_Penalty_Charging>
0

> <r_epik_Ionization_Penalty_Neutral>
2.1474e-05

> <r_epik_State_Penalty>
-0

> <r_epik_Charging_Adjusted_Penalty>
0

> <i_epik_Tot_Q>
0

> <i_epik_Tot_abs_Q>
0

> <r_epik_Metal_State_Penalty>
-0

> <b_epik_Metal_Only>
0

> <s_lp_Force_Field>
OPLS_2005

> <r_lp_Energy>
19.6089

> <b_lp_Chiralities_Consistent>
1

> <s_lp_Variant>
AV-unprocessed.smi:1529-2

> <Gold.Version>
5.8.1

> <Gold.Id.Protein>
6NUR|6NUR_protein|mol2

> <Gold.PLP.Fitness>
45.3818

> <Gold.PLP.PLP>
-38.9487

> <Gold.PLP.part.hbond>
-2.8748

> <Gold.PLP.part.metal>
0.0000

> <Gold.PLP.part.buried>
-7.0833

> <Gold.PLP.part.nonpolar>
-29.3706

> <Gold.PLP.part.repulsive>
0.1557

> <Gold.PLP.ligand.clash>
0.0000

> <Gold.PLP.ligand.torsion>
0.7772

> <Gold.PLP.Chemscore.Hbond>
2.5265

> <Gold.PLP.Chemscore.CHOScore>
0.0000

> <Gold.PLP.Chemscore.Metal>
0.0000

> <Gold.Chemscore.Hbonds>
donor molecule, donor type, donor heavy atom, donor atom, acceptor molecule, acceptor atom, score
      P1  H  6896  6908       L1     3  0.96
      P1  H  7997  8008       L1    23  0.52
      P1  H 10752 10764       L1    10  1.00

> <Gold.PLP.Chemscore.Internal.Correction>
0.4080

> <Gold.Rescore>
     Score         DG    S(hbond)    S(metal)    S(lipo)     H(rot)  DE(clash)    DE(int)     intcor
     15.23     -19.07       1.87        0.00     108.02       2.07       0.24       3.60       ----

> <Gold.Chemscore.Fitness>
15.2311

> <Gold.Chemscore.DG>
-19.0684

> <Gold.Chemscore.ZeroCoef>
-5.4800

> <Gold.Chemscore.Hbond>
1.8719

> <Gold.Chemscore.Metal>
0.0000

> <Gold.Chemscore.Lipo>
108.0237

> <Gold.Chemscore.Internal_Hbond>
0.0000

> <Gold.Chemscore.DEClash>
0.2377

> <Gold.Chemscore.DEInternal>
3.5997

> <Gold.Chemscore.Rot>
2.0713

> <Gold.Chemscore.Internal.Correction>
   9.000000E+99

> <Gold.Chemscore.Hbonds>
donor molecule, donor type, donor heavy atom, donor atom, acceptor molecule, acceptor atom, score
      P1  H  6896  6908       L1     3  0.91
      P1  H  7997  8008       L1    23  0.03
      P1  H 10752 10764       L1    10  0.85

> <Gold.Chemscore.Hbond.Weighted>
-6.2522

> <Gold.Chemscore.Metal.Weighted>
-0.0000

> <Gold.Chemscore.Lipo.Weighted>
-12.6388

> <Gold.Chemscore.Internal_Hbond.Weighted>
0.0000

> <Gold.Chemscore.DEClash.Weighted>
0.2377

> <Gold.Chemscore.DEInternal.Weighted>
3.5997

> <Gold.Chemscore.Rot.Weighted>
5.3025

> <Gold.Chemscore.Internal.Correction.Weighted>
   9.000000E+99

> <Gold.Protein.RotatedTorsions>
[ 6907 6896 6895 6894 ] final   52.56 input  -60.11 | X-H torsion
[ 7974 7965 7964 7962 ] final   66.09 input  175.53 | X-H torsion
[ 8008 7997 7996 7995 ] final  -80.68 input   59.86 | X-H torsion
[ 10167 10162 10161 10158 ] final  -86.51 input  -65.29 | X-H torsion
[ 10718 10713 10712 10709 ] final -132.15 input   66.30 | X-H torsion
[ 10763 10752 10751 10750 ] final  -27.37 input  -60.55 | X-H torsion
[ 11005 11000 10999 10996 ] final  -41.79 input  -57.11 | X-H torsion

> <Gold.Protein.ActiveResidues>
 VAL166  LYS551  ARG553  GLY616  TRP617  ASP618  TYR619  PRO620  LYS621  CYS622 
 ASP623  PHE694  ASN695  SER759  ASP760  ASP761  ALA762  ILE779  LEU786  VAL792 
 PHE793  MET794  SER795  GLU796  ALA797  LYS798  CYS799  TRP800  GLU811  SER814 

> <Gold.Protein.RotatedAtoms>
  152.3246  134.7337  160.0304 H   0  0  0  0  0  0  0  0  0  0  0  0  # atno 6907 bound_to 6896
  151.7774  133.3341  159.3470 H   0  0  0  0  0  0  0  0  0  0  0  0  # atno 6908 bound_to 6896
  150.7388  134.5893  159.6024 H   0  0  0  0  0  0  0  0  0  0  0  0  # atno 6909 bound_to 6896
  145.8307  139.3137  143.0989 H   0  0  0  0  0  0  0  0  0  0  0  0  # atno 7974 bound_to 7965
  154.5907  140.0659  156.9235 H   0  0  0  0  0  0  0  0  0  0  0  0  # atno 8008 bound_to 7997
  155.2300  140.3337  155.4286 H   0  0  0  0  0  0  0  0  0  0  0  0  # atno 8009 bound_to 7997
  156.2254  140.1817  156.7361 H   0  0  0  0  0  0  0  0  0  0  0  0  # atno 8010 bound_to 7997
  140.3934  143.2694  151.9235 H   0  0  0  0  0  0  0  0  0  0  0  0  # atno 10167 bound_to 10162
  156.2317  130.7041  151.0865 H   0  0  0  0  0  0  0  0  0  0  0  0  # atno 10718 bound_to 10713
  153.7310  135.6939  153.4989 H   0  0  0  0  0  0  0  0  0  0  0  0  # atno 10763 bound_to 10752
  153.2136  135.4394  155.0407 H   0  0  0  0  0  0  0  0  0  0  0  0  # atno 10764 bound_to 10752
  154.8253  135.3443  154.6840 H   0  0  0  0  0  0  0  0  0  0  0  0  # atno 10765 bound_to 10752
  141.0271  133.6836  156.2506 H   0  0  0  0  0  0  0  0  0  0  0  0  # atno 11005 bound_to 11000
  145.9574  140.8862  143.0228 LP  0  0  0  0  0  0  0  0  0  0  0  0  # atno 17320 bound_to 7965
  144.6740  140.1764  143.7409 LP  0  0  0  0  0  0  0  0  0  0  0  0  # atno 17321 bound_to 7965
  139.4788  144.5705  151.8096 LP  0  0  0  0  0  0  0  0  0  0  0  0  # atno 17342 bound_to 10162
  140.4816  144.1441  150.5933 LP  0  0  0  0  0  0  0  0  0  0  0  0  # atno 17343 bound_to 10162
  157.7136  131.0721  150.6411 LP  0  0  0  0  0  0  0  0  0  0  0  0  # atno 17370 bound_to 10713
  156.6479  130.4477  149.5729 LP  0  0  0  0  0  0  0  0  0  0  0  0  # atno 17371 bound_to 10713
  140.6472  134.5104  157.5574 LP  0  0  0  0  0  0  0  0  0  0  0  0  # atno 17394 bound_to 11000
  139.9183  134.8201  156.1294 LP  0  0  0  0  0  0  0  0  0  0  0  0  # atno 17395 bound_to 11000

$$$$
