AV-unprocessed.smi:3202|AV-procd|sdf|12245|dock4
  -GOLD-   2272018 83D 1   1.00000     0.00000
 Structure written by MMmdl.
 43 44  0  0  0  0  0  0  0  0  2 V2000
  143.4670  134.7815  152.7949 C   0  0  0  0  0  0  0  0  0  0  0  0
  144.6255  135.6506  152.4027 C   0  0  0  0  0  0  0  0  0  0  0  0
  144.7634  137.0607  152.5622 C   0  0  0  0  0  0  0  0  0  0  0  0
  145.9959  137.3407  152.0417 C   0  0  0  0  0  0  0  0  0  0  0  0
  146.7402  138.6300  151.9040 C   0  0  0  0  0  0  0  0  0  0  0  0
  147.3109  139.1719  153.2283 C   0  0  2  0  0  0  0  0  0  0  0  0
  147.1291  140.6919  153.3704 C   0  0  0  0  0  0  0  0  0  0  0  0
  148.7482  138.8332  153.3244 N   0  3  0  0  0  0  0  0  0  0  0  0
  149.3939  139.1442  154.6202 C   0  0  2  0  0  0  0  0  0  0  0  0
  149.7998  140.6177  154.7590 C   0  0  0  0  0  0  0  0  0  0  0  0
  150.9540  140.6287  155.7694 C   0  0  0  0  0  0  0  0  0  0  0  0
  151.3400  139.1601  156.0032 C   0  0  0  0  0  0  0  0  0  0  0  0
  150.6933  138.3477  154.8659 C   0  0  0  0  0  0  0  0  0  0  0  0
  150.4012  136.9019  155.3098 C   0  0  0  0  0  0  0  0  0  0  0  0
  151.6299  138.3314  153.6352 C   0  0  0  0  0  0  0  0  0  0  0  0
  146.5156  136.1385  151.6191 N   0  0  0  0  0  0  0  0  0  0  0  0
  145.6861  135.1005  151.8313 N   0  0  0  0  0  0  0  0  0  0  0  0
  147.4207  136.0116  151.1887 H   0  0  0  0  0  0  0  0  0  0  0  0
  142.7074  135.3542  153.3273 H   0  0  0  0  0  0  0  0  0  0  0  0
  143.7873  133.9694  153.4482 H   0  0  0  0  0  0  0  0  0  0  0  0
  142.9947  134.3382  151.9179 H   0  0  0  0  0  0  0  0  0  0  0  0
  144.0613  137.7592  152.9931 H   0  0  0  0  0  0  0  0  0  0  0  0
  146.0874  139.3808  151.4561 H   0  0  0  0  0  0  0  0  0  0  0  0
  147.5559  138.4845  151.1946 H   0  0  0  0  0  0  0  0  0  0  0  0
  146.7715  138.6941  154.0478 H   0  0  0  0  0  0  0  0  0  0  0  0
  146.0752  140.9713  153.3634 H   0  0  0  0  0  0  0  0  0  0  0  0
  147.6204  141.2285  152.5580 H   0  0  0  0  0  0  0  0  0  0  0  0
  147.5512  141.0515  154.3094 H   0  0  0  0  0  0  0  0  0  0  0  0
  148.8401  137.8401  153.1652 H   0  0  0  0  0  0  0  0  0  0  0  0
  148.6903  138.9053  155.4204 H   0  0  0  0  0  0  0  0  0  0  0  0
  150.1514  141.0090  153.8033 H   0  0  0  0  0  0  0  0  0  0  0  0
  148.9679  141.2452  155.0802 H   0  0  0  0  0  0  0  0  0  0  0  0
  151.7975  141.1936  155.3709 H   0  0  0  0  0  0  0  0  0  0  0  0
  150.6592  141.1023  156.7064 H   0  0  0  0  0  0  0  0  0  0  0  0
  152.4206  139.0226  156.0604 H   0  0  0  0  0  0  0  0  0  0  0  0
  150.9329  138.8441  156.9650 H   0  0  0  0  0  0  0  0  0  0  0  0
  151.3220  136.3727  155.5579 H   0  0  0  0  0  0  0  0  0  0  0  0
  149.9000  136.3392  154.5216 H   0  0  0  0  0  0  0  0  0  0  0  0
  149.7598  136.8726  156.1913 H   0  0  0  0  0  0  0  0  0  0  0  0
  152.5804  137.8529  153.8740 H   0  0  0  0  0  0  0  0  0  0  0  0
  151.8561  139.3359  153.2772 H   0  0  0  0  0  0  0  0  0  0  0  0
  151.1947  137.7757  152.8042 H   0  0  0  0  0  0  0  0  0  0  0  0
  149.2480  139.3184  152.5929 H   0  0  0  0  0  0  0  0  0  0  0  0
  1 19  1  0  0  0  0
  1 20  1  0  0  0  0
  1 21  1  0  0  0  0
  1  2  1  0  0  0  0
  2 17  2  0  0  0  0
  2  3  1  0  0  0  0
  3  4  2  0  0  0  0
  3 22  1  0  0  0  0
  4 16  1  0  0  0  0
  4  5  1  0  0  0  0
  5  6  1  0  0  0  0
  5 23  1  0  0  0  0
  5 24  1  0  0  0  0
  6  7  1  0  0  0  0
  6  8  1  0  0  0  0
  6 25  1  0  0  0  0
  7 26  1  0  0  0  0
  7 27  1  0  0  0  0
  7 28  1  0  0  0  0
  8  9  1  0  0  0  0
  8 29  1  0  0  0  0
  8 43  1  0  0  0  0
  9 13  1  0  0  0  0
  9 10  1  0  0  0  0
  9 30  1  0  0  0  0
 10 11  1  0  0  0  0
 10 31  1  0  0  0  0
 10 32  1  0  0  0  0
 11 12  1  0  0  0  0
 11 33  1  0  0  0  0
 11 34  1  0  0  0  0
 12 13  1  0  0  0  0
 12 35  1  0  0  0  0
 12 36  1  0  0  0  0
 13 14  1  0  0  0  0
 13 15  1  0  0  0  0
 14 37  1  0  0  0  0
 14 38  1  0  0  0  0
 14 39  1  0  0  0  0
 15 40  1  0  0  0  0
 15 41  1  0  0  0  0
 15 42  1  0  0  0  0
 16 17  1  0  0  0  0
 16 18  1  0  0  0  0
M  CHG  1   8   1
M  END
> <s_m_source_file>
AV-unprocessed.smi

> <i_m_source_file_index>
3202

> <i_lp_mmshare_version>
43012

> <i_f3d_flags>
0

> <s_epik_input>
W0NIM11jMVtjSF1jKG5bbkhdMSlbQ0gyXVtDQEhdKFtDSDNdKVtOSF1bQ0BASF0oQzIoW0NIM10pW0NIM10pW0NIMl1bQ0gyXVtDSDJdMg==

> <s_epik_cmdline>
J2VwaWtfcHl0aG9uJywgJy1waCcsICc3LjAnLCAnLXRuJywgJzgnLCAnLW1hJywgJzIwMCcsICctbWV0YWxfYmluZGluZycsICctaW1hZScsICc8aW5maWxlLm1hZT4nLCAnLW9tYWUnLCAnPG91dGZpbGUubWFlPic=

> <r_lp_tautomer_probability>
0.5

> <r_epik_Ionization_Penalty>
0.000449684

> <r_epik_Ionization_Penalty_Charging>
0.000404963

> <r_epik_Ionization_Penalty_Neutral>
4.47208e-05

> <r_epik_State_Penalty>
0.41068

> <r_epik_Charging_Adjusted_Penalty>
0.411085

> <i_epik_Tot_Q>
1

> <i_epik_Tot_abs_Q>
1

> <r_epik_Metal_State_Penalty>
0.410687

> <b_epik_Metal_Only>
0

> <s_lp_Force_Field>
OPLS_2005

> <r_lp_Energy>
32.3092

> <b_lp_Chiralities_Consistent>
1

> <s_lp_Variant>
AV-unprocessed.smi:3202-5

> <Gold.Version>
5.8.1

> <Gold.Id.Protein>
6NUR|6NUR_protein|mol2

> <Gold.PLP.Fitness>
40.0585

> <Gold.PLP.PLP>
-31.2918

> <Gold.PLP.part.hbond>
-3.0000

> <Gold.PLP.part.metal>
0.0000

> <Gold.PLP.part.buried>
-0.7873

> <Gold.PLP.part.nonpolar>
-27.8088

> <Gold.PLP.part.repulsive>
0.2946

> <Gold.PLP.ligand.clash>
0.0000

> <Gold.PLP.ligand.torsion>
0.9617

> <Gold.PLP.Chemscore.Hbond>
3.5600

> <Gold.PLP.Chemscore.CHOScore>
0.0000

> <Gold.PLP.Chemscore.Metal>
0.0000

> <Gold.Chemscore.Hbonds>
donor molecule, donor type, donor heavy atom, donor atom, acceptor molecule, acceptor atom, score
      L1  H     8    29       P1  7948  1.87
      L1  H     8    43       P1  7957  1.00
      L1  H    16    18       P1  7948  0.62

> <Gold.PLP.Chemscore.Internal.Correction>
0.0102

> <Gold.Rescore>
     Score         DG    S(hbond)    S(metal)    S(lipo)     H(rot)  DE(clash)    DE(int)     intcor
     19.31     -20.73       2.79        0.00      82.56       1.46       0.16       1.26       ----

> <Gold.Chemscore.Fitness>
19.3119

> <Gold.Chemscore.DG>
-20.7332

> <Gold.Chemscore.ZeroCoef>
-5.4800

> <Gold.Chemscore.Hbond>
2.7936

> <Gold.Chemscore.Metal>
0.0000

> <Gold.Chemscore.Lipo>
82.5555

> <Gold.Chemscore.Internal_Hbond>
0.0000

> <Gold.Chemscore.DEClash>
0.1611

> <Gold.Chemscore.DEInternal>
1.2602

> <Gold.Chemscore.Rot>
1.4596

> <Gold.Chemscore.Internal.Correction>
   9.000000E+99

> <Gold.Chemscore.Hbonds>
donor molecule, donor type, donor heavy atom, donor atom, acceptor molecule, acceptor atom, score
      L1  H     8    29       P1  7948  0.84
      L1  H     8    43       P1  7957  0.99
      L1  H    16    18       P1  7948  0.60

> <Gold.Chemscore.Hbond.Weighted>
-9.3307

> <Gold.Chemscore.Metal.Weighted>
-0.0000

> <Gold.Chemscore.Lipo.Weighted>
-9.6590

> <Gold.Chemscore.Internal_Hbond.Weighted>
0.0000

> <Gold.Chemscore.DEClash.Weighted>
0.1611

> <Gold.Chemscore.DEInternal.Weighted>
1.2602

> <Gold.Chemscore.Rot.Weighted>
3.7365

> <Gold.Chemscore.Internal.Correction.Weighted>
   9.000000E+99

> <Gold.Protein.RotatedTorsions>
[ 6907 6896 6895 6894 ] final   99.91 input  -60.11 | X-H torsion
[ 7974 7965 7964 7962 ] final   59.53 input  175.53 | X-H torsion
[ 8008 7997 7996 7995 ] final -123.46 input   59.86 | X-H torsion
[ 10167 10162 10161 10158 ] final  135.08 input  -65.29 | X-H torsion
[ 10718 10713 10712 10709 ] final  -66.70 input   66.30 | X-H torsion
[ 10763 10752 10751 10750 ] final  -56.33 input  -60.55 | X-H torsion
[ 11005 11000 10999 10996 ] final   76.93 input  -57.11 | X-H torsion

> <Gold.Protein.ActiveResidues>
 VAL166  LYS551  ARG553  GLY616  TRP617  ASP618  TYR619  PRO620  LYS621  CYS622 
 ASP623  PHE694  ASN695  SER759  ASP760  ASP761  ALA762  ILE779  LEU786  VAL792 
 PHE793  MET794  SER795  GLU796  ALA797  LYS798  CYS799  TRP800  GLU811  SER814 

> <Gold.Protein.RotatedAtoms>
  152.5383  134.0356  159.8044 H   0  0  0  0  0  0  0  0  0  0  0  0  # atno 6907 bound_to 6896
  151.0520  133.5608  159.2648 H   0  0  0  0  0  0  0  0  0  0  0  0  # atno 6908 bound_to 6896
  151.2539  135.0639  159.9126 H   0  0  0  0  0  0  0  0  0  0  0  0  # atno 6909 bound_to 6896
  145.9062  139.3618  143.0563 H   0  0  0  0  0  0  0  0  0  0  0  0  # atno 7974 bound_to 7965
  155.1809  140.0410  157.2882 H   0  0  0  0  0  0  0  0  0  0  0  0  # atno 8008 bound_to 7997
  154.6204  140.2499  155.7528 H   0  0  0  0  0  0  0  0  0  0  0  0  # atno 8009 bound_to 7997
  156.2430  140.2896  156.0510 H   0  0  0  0  0  0  0  0  0  0  0  0  # atno 8010 bound_to 7997
  139.5231  144.6535  151.5232 H   0  0  0  0  0  0  0  0  0  0  0  0  # atno 10167 bound_to 10162
  156.0598  130.4266  150.1747 H   0  0  0  0  0  0  0  0  0  0  0  0  # atno 10718 bound_to 10713
  154.2049  135.6404  153.5098 H   0  0  0  0  0  0  0  0  0  0  0  0  # atno 10763 bound_to 10752
  153.0003  135.5460  154.6276 H   0  0  0  0  0  0  0  0  0  0  0  0  # atno 10764 bound_to 10752
  154.5698  135.2916  155.0811 H   0  0  0  0  0  0  0  0  0  0  0  0  # atno 10765 bound_to 10752
  139.9276  134.7641  156.1458 H   0  0  0  0  0  0  0  0  0  0  0  0  # atno 11005 bound_to 11000
  145.8730  140.9409  143.0641 LP  0  0  0  0  0  0  0  0  0  0  0  0  # atno 17320 bound_to 7965
  144.6739  140.0679  143.7474 LP  0  0  0  0  0  0  0  0  0  0  0  0  # atno 17321 bound_to 7965
  140.6350  143.9001  150.6639 LP  0  0  0  0  0  0  0  0  0  0  0  0  # atno 17342 bound_to 10162
  140.2318  143.3730  152.1559 LP  0  0  0  0  0  0  0  0  0  0  0  0  # atno 17343 bound_to 10162
  156.9817  130.9866  151.3436 LP  0  0  0  0  0  0  0  0  0  0  0  0  # atno 17370 bound_to 10713
  157.5597  130.8237  149.8250 LP  0  0  0  0  0  0  0  0  0  0  0  0  # atno 17371 bound_to 10713
  141.0845  133.6740  156.2406 LP  0  0  0  0  0  0  0  0  0  0  0  0  # atno 17394 bound_to 11000
  140.6291  134.5283  157.5557 LP  0  0  0  0  0  0  0  0  0  0  0  0  # atno 17395 bound_to 11000

$$$$
