AV-unprocessed.smi:109|AV-procd|sdf|1061|dock5
  -GOLD-   2262018133D 1   1.00000     0.00000
 Structure written by MMmdl.
 58 61  0  0  0  0  0  0  0  0  1 V2000
  150.6598  139.4757  154.0325 O   0  0  0  0  0  0  0  0  0  0  0  0
  150.9888  139.3233  155.3964 C   0  0  0  0  0  0  0  0  0  0  0  0
  151.3055  140.6970  156.0126 C   0  0  0  0  0  0  0  0  0  0  0  0
  150.2544  141.1840  157.0394 C   0  0  2  0  0  0  0  0  0  0  0  0
  149.0983  141.7301  156.3239 N   0  0  0  0  0  0  0  0  0  0  0  0
  148.2437  140.9482  155.6266 C   0  0  0  0  0  0  0  0  0  0  0  0
  147.5948  141.4082  154.5256 N   0  0  0  0  0  0  0  0  0  0  0  0
  146.7570  140.6086  153.8594 C   0  0  0  0  0  0  0  0  0  0  0  0
  146.4303  139.3410  154.1194 N   0  0  0  0  0  0  0  0  0  0  0  0
  147.0763  138.8736  155.2264 C   0  0  0  0  0  0  0  0  0  0  0  0
  147.9937  139.6101  156.0267 C   0  0  0  0  0  0  0  0  0  0  0  0
  148.4535  138.8145  157.0679 N   0  0  0  0  0  0  0  0  0  0  0  0
  147.8367  137.6768  156.8921 C   0  0  0  0  0  0  0  0  0  0  0  0
  146.9917  137.6237  155.8058 N   0  0  0  0  0  0  0  0  0  0  0  0
  146.1536  136.4696  155.3627 C   0  0  1  0  0  0  0  0  0  0  0  0
  144.8327  136.9010  155.2888 O   0  0  0  0  0  0  0  0  0  0  0  0
  144.1407  136.2354  154.2298 C   0  0  1  0  0  0  0  0  0  0  0  0
  143.4878  137.2979  153.3293 C   0  0  0  0  0  0  0  0  0  0  0  0
  144.4439  137.8389  152.4428 O   0  0  0  0  0  0  0  0  0  0  0  0
  145.2102  135.4083  153.4890 C   0  0  2  0  0  0  0  0  0  0  0  0
  145.0670  134.0466  153.8595 O   0  0  0  0  0  0  0  0  0  0  0  0
  146.5322  136.0086  153.9597 C   0  0  2  0  0  0  0  0  0  0  0  0
  147.5852  135.0630  153.9433 O   0  0  0  0  0  0  0  0  0  0  0  0
  150.7971  142.2486  158.0354 C   0  0  0  0  0  0  0  0  0  0  0  0
  151.4167  143.4831  157.3332 C   0  0  0  0  0  0  0  0  0  0  0  0
  151.9903  144.5024  158.3312 C   0  0  0  0  0  0  0  0  0  0  0  0
  153.0231  143.8566  159.2624 C   0  0  0  0  0  0  0  0  0  0  0  0
  152.4140  142.6518  159.9890 C   0  0  0  0  0  0  0  0  0  0  0  0
  151.8500  141.6294  158.9902 C   0  0  0  0  0  0  0  0  0  0  0  0
  146.2624  135.6992  156.1279 H   0  0  0  0  0  0  0  0  0  0  0  0
  143.3696  135.5838  154.6453 H   0  0  0  0  0  0  0  0  0  0  0  0
  145.1125  135.4676  152.4044 H   0  0  0  0  0  0  0  0  0  0  0  0
  146.7849  136.8708  153.3419 H   0  0  0  0  0  0  0  0  0  0  0  0
  150.2201  138.6919  153.7402 H   0  0  0  0  0  0  0  0  0  0  0  0
  150.1497  138.8458  155.9022 H   0  0  0  0  0  0  0  0  0  0  0  0
  151.8466  138.6558  155.4823 H   0  0  0  0  0  0  0  0  0  0  0  0
  152.2783  140.6076  156.4931 H   0  0  0  0  0  0  0  0  0  0  0  0
  151.4189  141.4393  155.2212 H   0  0  0  0  0  0  0  0  0  0  0  0
  149.9688  140.3206  157.6392 H   0  0  0  0  0  0  0  0  0  0  0  0
  149.0314  142.7378  156.3214 H   0  0  0  0  0  0  0  0  0  0  0  0
  146.2807  141.0465  152.9946 H   0  0  0  0  0  0  0  0  0  0  0  0
  147.9839  136.8371  157.5559 H   0  0  0  0  0  0  0  0  0  0  0  0
  142.6413  136.8942  152.7759 H   0  0  0  0  0  0  0  0  0  0  0  0
  143.1100  138.1225  153.9346 H   0  0  0  0  0  0  0  0  0  0  0  0
  144.1854  138.7212  152.2242 H   0  0  0  0  0  0  0  0  0  0  0  0
  145.6142  133.8803  154.6114 H   0  0  0  0  0  0  0  0  0  0  0  0
  148.1444  135.2511  153.2053 H   0  0  0  0  0  0  0  0  0  0  0  0
  149.9607  142.6012  158.6413 H   0  0  0  0  0  0  0  0  0  0  0  0
  152.2020  143.1609  156.6479 H   0  0  0  0  0  0  0  0  0  0  0  0
  150.6715  144.0022  156.7324 H   0  0  0  0  0  0  0  0  0  0  0  0
  152.4463  145.3329  157.7918 H   0  0  0  0  0  0  0  0  0  0  0  0
  151.1797  144.9279  158.9241 H   0  0  0  0  0  0  0  0  0  0  0  0
  153.8914  143.5380  158.6842 H   0  0  0  0  0  0  0  0  0  0  0  0
  153.3827  144.5880  159.9866 H   0  0  0  0  0  0  0  0  0  0  0  0
  153.1683  142.1787  160.6184 H   0  0  0  0  0  0  0  0  0  0  0  0
  151.6199  142.9876  160.6571 H   0  0  0  0  0  0  0  0  0  0  0  0
  151.4209  140.8017  159.5549 H   0  0  0  0  0  0  0  0  0  0  0  0
  152.6683  141.2060  158.4061 H   0  0  0  0  0  0  0  0  0  0  0  0
  1  2  1  0  0  0  0
  1 34  1  0  0  0  0
  2  3  1  0  0  0  0
  2 35  1  0  0  0  0
  2 36  1  0  0  0  0
  3  4  1  0  0  0  0
  3 37  1  0  0  0  0
  3 38  1  0  0  0  0
  4  5  1  0  0  0  0
  4 24  1  0  0  0  0
  4 39  1  0  0  0  0
  5  6  1  0  0  0  0
  5 40  1  0  0  0  0
  6 11  1  0  0  0  0
  6  7  2  0  0  0  0
  7  8  1  0  0  0  0
  8  9  2  0  0  0  0
  8 41  1  0  0  0  0
  9 10  1  0  0  0  0
 10 14  1  0  0  0  0
 10 11  2  0  0  0  0
 11 12  1  0  0  0  0
 12 13  2  0  0  0  0
 13 14  1  0  0  0  0
 13 42  1  0  0  0  0
 14 15  1  0  0  0  0
 15 30  1  0  0  0  0
 15 22  1  0  0  0  0
 15 16  1  0  0  0  0
 16 17  1  0  0  0  0
 17 31  1  0  0  0  0
 17 18  1  0  0  0  0
 17 20  1  0  0  0  0
 18 19  1  0  0  0  0
 18 43  1  0  0  0  0
 18 44  1  0  0  0  0
 19 45  1  0  0  0  0
 20 32  1  0  0  0  0
 20 21  1  0  0  0  0
 20 22  1  0  0  0  0
 21 46  1  0  0  0  0
 22 33  1  0  0  0  0
 22 23  1  0  0  0  0
 23 47  1  0  0  0  0
 24 29  1  0  0  0  0
 24 25  1  0  0  0  0
 24 48  1  0  0  0  0
 25 26  1  0  0  0  0
 25 49  1  0  0  0  0
 25 50  1  0  0  0  0
 26 27  1  0  0  0  0
 26 51  1  0  0  0  0
 26 52  1  0  0  0  0
 27 28  1  0  0  0  0
 27 53  1  0  0  0  0
 27 54  1  0  0  0  0
 28 29  1  0  0  0  0
 28 55  1  0  0  0  0
 28 56  1  0  0  0  0
 29 57  1  0  0  0  0
 29 58  1  0  0  0  0
M  END
> <s_m_source_file>
AV-unprocessed.smi

> <i_m_source_file_index>
109

> <i_lp_mmshare_version>
43012

> <i_f3d_flags>
0

> <s_epik_input>
W0NIMl0xW0NIMl1bQ0gyXVtDSDJdW0NIMl1bQ0hdMVtDQEhdKFtDSDJdW0NIMl1bT0hdKVtOSF1jKG5bY0hdbjIpYyhjMjMpbltjSF1uM1tDQEBIXTRPW0NASF0oW0NIMl1bT0hdKVtDQEBIXShbT0hdKVtDQEhdNFtPSF0=

> <s_epik_cmdline>
J2VwaWtfcHl0aG9uJywgJy1waCcsICc3LjAnLCAnLXRuJywgJzgnLCAnLW1hJywgJzIwMCcsICctbWV0YWxfYmluZGluZycsICctaW1hZScsICc8aW5maWxlLm1hZT4nLCAnLW9tYWUnLCAnPG91dGZpbGUubWFlPic=

> <r_lp_tautomer_probability>
1

> <r_epik_Ionization_Penalty>
0.000793976

> <r_epik_Ionization_Penalty_Charging>
0

> <r_epik_Ionization_Penalty_Neutral>
0.000793976

> <r_epik_State_Penalty>
-0

> <r_epik_Charging_Adjusted_Penalty>
0

> <i_epik_Tot_Q>
0

> <i_epik_Tot_abs_Q>
0

> <r_epik_Metal_State_Penalty>
-0

> <b_epik_Metal_Only>
0

> <s_epik_Chemistry_Notes>
This compound contains an acetal/aminal-like group ( X-CH(R)-Y where X, Y are N, S, or O) that may be acid/base labile, releasing an aldehyde.

> <s_lp_Force_Field>
OPLS_2005

> <r_lp_Energy>
56.6401

> <b_lp_Chiralities_Consistent>
1

> <s_lp_Variant>
AV-unprocessed.smi:109-31

> <Gold.Version>
5.8.1

> <Gold.Id.Protein>
6NUR|6NUR_protein|mol2

> <Gold.PLP.Fitness>
49.6698

> <Gold.PLP.PLP>
-37.3147

> <Gold.PLP.part.hbond>
-5.9575

> <Gold.PLP.part.metal>
0.0000

> <Gold.PLP.part.buried>
-3.6249

> <Gold.PLP.part.nonpolar>
-28.3161

> <Gold.PLP.part.repulsive>
0.3011

> <Gold.PLP.ligand.clash>
0.0000

> <Gold.PLP.ligand.torsion>
1.2036

> <Gold.PLP.Chemscore.Hbond>
4.0000

> <Gold.PLP.Chemscore.CHOScore>
0.8341

> <Gold.PLP.Chemscore.Metal>
0.0000

> <Gold.Chemscore.Hbonds>
donor molecule, donor type, donor heavy atom, donor atom, acceptor molecule, acceptor atom, score
      L1  H     5    40       P1  8028  0.84
      L1  H    19    45       P1 10175  1.00
      L1  H    23    47       P1  7948  1.00
      P1  H  7989  7998       L1     1  1.00
      L1  C     8    41       P1 10175  0.47

> <Gold.PLP.Chemscore.Internal.Correction>
0.2600

> <Gold.Rescore>
     Score         DG    S(hbond)    S(metal)    S(lipo)     H(rot)  DE(clash)    DE(int)     intcor
     13.24     -15.91       3.93        0.00      96.41       5.47       0.25       2.42       ----

> <Gold.Chemscore.Fitness>
13.2443

> <Gold.Chemscore.DG>
-15.9089

> <Gold.Chemscore.ZeroCoef>
-5.4800

> <Gold.Chemscore.Hbond>
3.9347

> <Gold.Chemscore.Metal>
0.0000

> <Gold.Chemscore.Lipo>
96.4144

> <Gold.Chemscore.Internal_Hbond>
0.0000

> <Gold.Chemscore.DEClash>
0.2459

> <Gold.Chemscore.DEInternal>
2.4187

> <Gold.Chemscore.Rot>
5.4662

> <Gold.Chemscore.Internal.Correction>
   9.000000E+99

> <Gold.Chemscore.Hbonds>
donor molecule, donor type, donor heavy atom, donor atom, acceptor molecule, acceptor atom, score
      L1  H     5    40       P1  8028  0.82
      L1  H    19    45       P1 10175  1.00
      L1  H    23    47       P1  7948  0.99
      P1  H  7989  7998       L1     1  0.50

> <Gold.Chemscore.Hbond.Weighted>
-13.1419

> <Gold.Chemscore.Metal.Weighted>
-0.0000

> <Gold.Chemscore.Lipo.Weighted>
-11.2805

> <Gold.Chemscore.Internal_Hbond.Weighted>
0.0000

> <Gold.Chemscore.DEClash.Weighted>
0.2459

> <Gold.Chemscore.DEInternal.Weighted>
2.4187

> <Gold.Chemscore.Rot.Weighted>
13.9935

> <Gold.Chemscore.Internal.Correction.Weighted>
   9.000000E+99

> <Gold.Protein.RotatedTorsions>
[ 6907 6896 6895 6894 ] final   81.17 input  -60.11 | X-H torsion
[ 7974 7965 7964 7962 ] final  149.86 input  175.53 | X-H torsion
[ 8008 7997 7996 7995 ] final   54.45 input   59.86 | X-H torsion
[ 10167 10162 10161 10158 ] final   92.37 input  -65.29 | X-H torsion
[ 10718 10713 10712 10709 ] final  178.08 input   66.30 | X-H torsion
[ 10763 10752 10751 10750 ] final  -80.64 input  -60.55 | X-H torsion
[ 11005 11000 10999 10996 ] final   29.42 input  -57.11 | X-H torsion

> <Gold.Protein.ActiveResidues>
 VAL166  LYS551  ARG553  GLY616  TRP617  ASP618  TYR619  PRO620  LYS621  CYS622 
 ASP623  PHE694  ASN695  SER759  ASP760  ASP761  ALA762  ILE779  LEU786  VAL792 
 PHE793  MET794  SER795  GLU796  ALA797  LYS798  CYS799  TRP800  GLU811  SER814 

> <Gold.Protein.RotatedAtoms>
  152.5259  134.3245  159.9160 H   0  0  0  0  0  0  0  0  0  0  0  0  # atno 6907 bound_to 6896
  151.3194  133.4040  159.2661 H   0  0  0  0  0  0  0  0  0  0  0  0  # atno 6908 bound_to 6896
  150.9972  134.9310  159.7990 H   0  0  0  0  0  0  0  0  0  0  0  0  # atno 6909 bound_to 6896
  144.8407  139.6334  143.6018 H   0  0  0  0  0  0  0  0  0  0  0  0  # atno 7974 bound_to 7965
  155.4849  140.3469  155.4345 H   0  0  0  0  0  0  0  0  0  0  0  0  # atno 8008 bound_to 7997
  156.1015  140.1436  156.9490 H   0  0  0  0  0  0  0  0  0  0  0  0  # atno 8009 bound_to 7997
  154.4696  140.0905  156.7089 H   0  0  0  0  0  0  0  0  0  0  0  0  # atno 8010 bound_to 7997
  139.8283  144.6699  150.9432 H   0  0  0  0  0  0  0  0  0  0  0  0  # atno 10167 bound_to 10162
  156.8959  130.9863  151.3043 H   0  0  0  0  0  0  0  0  0  0  0  0  # atno 10718 bound_to 10713
  154.5537  135.5654  153.6945 H   0  0  0  0  0  0  0  0  0  0  0  0  # atno 10763 bound_to 10752
  152.9997  135.6257  154.2338 H   0  0  0  0  0  0  0  0  0  0  0  0  # atno 10764 bound_to 10752
  154.2274  135.2867  155.2882 H   0  0  0  0  0  0  0  0  0  0  0  0  # atno 10765 bound_to 10752
  140.3051  134.2712  155.7745 H   0  0  0  0  0  0  0  0  0  0  0  0  # atno 11005 bound_to 11000
  146.2700  139.6611  142.9303 LP  0  0  0  0  0  0  0  0  0  0  0  0  # atno 17320 bound_to 7965
  145.4700  141.0436  143.2704 LP  0  0  0  0  0  0  0  0  0  0  0  0  # atno 17321 bound_to 7965
  140.7808  143.4025  151.1125 LP  0  0  0  0  0  0  0  0  0  0  0  0  # atno 17342 bound_to 10162
  139.7681  143.8535  152.3115 LP  0  0  0  0  0  0  0  0  0  0  0  0  # atno 17343 bound_to 10162
  157.6055  130.8544  149.8869 LP  0  0  0  0  0  0  0  0  0  0  0  0  # atno 17370 bound_to 10713
  156.0606  130.3700  150.0991 LP  0  0  0  0  0  0  0  0  0  0  0  0  # atno 17371 bound_to 10713
  141.2120  133.7672  156.9825 LP  0  0  0  0  0  0  0  0  0  0  0  0  # atno 17394 bound_to 11000
  140.1074  134.9498  157.2015 LP  0  0  0  0  0  0  0  0  0  0  0  0  # atno 17395 bound_to 11000

$$$$
