AV-unprocessed.smi:1827|AV-procd|sdf|7421|dock1
  -GOLD-   22720 9103D 1   1.00000     0.00000
 Structure written by MMmdl.
 44 45  0  0  0  0  0  0  0  0  2 V2000
  145.5399  131.3238  151.7071 C   0  0  0  0  0  0  0  0  0  0  0  0
  146.7387  131.4330  152.6086 C   0  0  0  0  0  0  0  0  0  0  0  0
  147.2298  130.3269  153.1520 N   0  0  0  0  0  0  0  0  0  0  0  0
  148.3170  130.7361  153.8405 N   0  0  0  0  0  0  0  0  0  0  0  0
  148.5438  132.0912  153.7550 C   0  0  0  0  0  0  0  0  0  0  0  0
  149.6995  132.7544  154.4266 C   0  0  0  0  0  0  0  0  0  0  0  0
  147.5210  132.5685  152.9878 C   0  0  0  0  0  0  0  0  0  0  0  0
  147.3688  133.9266  152.6121 N   0  0  0  0  0  0  0  0  0  0  0  0
  146.2167  134.6037  152.4952 C   0  0  0  0  0  0  0  0  0  0  0  0
  145.1016  134.1447  152.7398 O   0  0  0  0  0  0  0  0  0  0  0  0
  146.4280  135.8655  152.0941 N   0  0  0  0  0  0  0  0  0  0  0  0
  145.3852  136.8704  151.8874 C   0  0  2  0  0  0  0  0  0  0  0  0
  145.9520  138.1757  151.2930 C   0  0  0  0  0  0  0  0  0  0  0  0
  146.8087  138.9479  152.3109 C   0  0  0  0  0  0  0  0  0  0  0  0
  146.0392  139.2293  153.5524 N   0  3  2  0  0  0  0  0  0  0  0  0
  146.7747  140.0945  154.5106 C   0  0  0  0  0  0  0  0  0  0  0  0
  147.1937  141.4381  153.9049 C   0  0  0  0  0  0  0  0  0  0  0  0
  146.2126  142.2643  153.5346 N   0  0  0  0  0  0  0  0  0  0  0  0
  148.3809  141.7227  153.7570 O   0  0  0  0  0  0  0  0  0  0  0  0
  145.5434  137.9793  154.1826 C   0  0  0  0  0  0  0  0  0  0  0  0
  144.6608  137.1753  153.2100 C   0  0  0  0  0  0  0  0  0  0  0  0
  148.8933  130.0833  154.3526 H   0  0  0  0  0  0  0  0  0  0  0  0
  145.5746  132.0670  150.9107 H   0  0  0  0  0  0  0  0  0  0  0  0
  144.6159  131.4714  152.2661 H   0  0  0  0  0  0  0  0  0  0  0  0
  145.4849  130.3435  151.2327 H   0  0  0  0  0  0  0  0  0  0  0  0
  149.7803  133.8005  154.1315 H   0  0  0  0  0  0  0  0  0  0  0  0
  150.6353  132.2596  154.1662 H   0  0  0  0  0  0  0  0  0  0  0  0
  149.5878  132.7190  155.5104 H   0  0  0  0  0  0  0  0  0  0  0  0
  148.2226  134.4549  152.5090 H   0  0  0  0  0  0  0  0  0  0  0  0
  147.3814  136.1555  151.9327 H   0  0  0  0  0  0  0  0  0  0  0  0
  144.6551  136.4549  151.1903 H   0  0  0  0  0  0  0  0  0  0  0  0
  146.5336  137.9709  150.3934 H   0  0  0  0  0  0  0  0  0  0  0  0
  145.1240  138.8103  150.9742 H   0  0  0  0  0  0  0  0  0  0  0  0
  147.7074  138.3801  152.5568 H   0  0  0  0  0  0  0  0  0  0  0  0
  147.1436  139.8812  151.8570 H   0  0  0  0  0  0  0  0  0  0  0  0
  146.1340  140.3252  155.3628 H   0  0  0  0  0  0  0  0  0  0  0  0
  147.6424  139.5635  154.9056 H   0  0  0  0  0  0  0  0  0  0  0  0
  146.4295  143.1655  153.1342 H   0  0  0  0  0  0  0  0  0  0  0  0
  145.2496  141.9860  153.6615 H   0  0  0  0  0  0  0  0  0  0  0  0
  146.3902  137.3776  154.5160 H   0  0  0  0  0  0  0  0  0  0  0  0
  144.9597  138.2221  155.0713 H   0  0  0  0  0  0  0  0  0  0  0  0
  143.7565  137.7473  152.9974 H   0  0  0  0  0  0  0  0  0  0  0  0
  144.3283  136.2497  153.6818 H   0  0  0  0  0  0  0  0  0  0  0  0
  145.2198  139.7531  153.2777 H   0  0  0  0  0  0  0  0  0  0  0  0
  1  2  1  0  0  0  0
  1 23  1  0  0  0  0
  1 24  1  0  0  0  0
  1 25  1  0  0  0  0
  2  7  1  0  0  0  0
  2  3  2  0  0  0  0
  3  4  1  0  0  0  0
  4 22  1  0  0  0  0
  4  5  1  0  0  0  0
  5  6  1  0  0  0  0
  5  7  2  0  0  0  0
  6 26  1  0  0  0  0
  6 27  1  0  0  0  0
  6 28  1  0  0  0  0
  7  8  1  0  0  0  0
  8  9  1  0  0  0  0
  8 29  1  0  0  0  0
  9 10  2  0  0  0  0
  9 11  1  0  0  0  0
 11 12  1  0  0  0  0
 11 30  1  0  0  0  0
 12 21  1  0  0  0  0
 12 13  1  0  0  0  0
 12 31  1  0  0  0  0
 13 14  1  0  0  0  0
 13 32  1  0  0  0  0
 13 33  1  0  0  0  0
 14 15  1  0  0  0  0
 14 34  1  0  0  0  0
 14 35  1  0  0  0  0
 15 16  1  0  0  0  0
 15 20  1  0  0  0  0
 15 44  1  0  0  0  0
 16 17  1  0  0  0  0
 16 36  1  0  0  0  0
 16 37  1  0  0  0  0
 17 18  1  0  0  0  0
 17 19  2  0  0  0  0
 18 38  1  0  0  0  0
 18 39  1  0  0  0  0
 20 21  1  0  0  0  0
 20 40  1  0  0  0  0
 20 41  1  0  0  0  0
 21 42  1  0  0  0  0
 21 43  1  0  0  0  0
M  CHG  1  15   1
M  END
> <s_m_source_file>
AV-unprocessed.smi

> <i_m_source_file_index>
1827

> <i_lp_mmshare_version>
43012

> <i_f3d_flags>
0

> <s_epik_input>
W0NIM11jMW5bbkhdYyhbQ0gzXSljMVtOSF1DKD1PKVtOSF1bQ0hdMltDSDJdW0NIMl1OKFtDSDJdW0NIMl0yKVtDSDJdQyg9TylbTkgyXQ==

> <s_epik_cmdline>
J2VwaWtfcHl0aG9uJywgJy1waCcsICc3LjAnLCAnLXRuJywgJzgnLCAnLW1hJywgJzIwMCcsICctbWV0YWxfYmluZGluZycsICctaW1hZScsICc8aW5maWxlLm1hZT4nLCAnLW9tYWUnLCAnPG91dGZpbGUubWFlPic=

> <r_lp_tautomer_probability>
0.5

> <r_epik_Ionization_Penalty>
0.839233

> <r_epik_Ionization_Penalty_Charging>
0.838844

> <r_epik_Ionization_Penalty_Neutral>
0.000388936

> <r_epik_State_Penalty>
0.8734

> <r_epik_Charging_Adjusted_Penalty>
1.71224

> <i_epik_Tot_Q>
1

> <i_epik_Tot_abs_Q>
1

> <r_epik_Metal_State_Penalty>
0.890753

> <b_epik_Metal_Only>
0

> <s_lp_Force_Field>
OPLS_2005

> <r_lp_Energy>
15.6473

> <b_lp_Chiralities_Consistent>
1

> <s_lp_Variant>
AV-unprocessed.smi:1827-3

> <Gold.Version>
5.8.1

> <Gold.Id.Protein>
6NUR|6NUR_protein|mol2

> <Gold.PLP.Fitness>
43.0081

> <Gold.PLP.PLP>
-30.2308

> <Gold.PLP.part.hbond>
-4.2679

> <Gold.PLP.part.metal>
0.0000

> <Gold.PLP.part.buried>
2.0958

> <Gold.PLP.part.nonpolar>
-27.1466

> <Gold.PLP.part.repulsive>
0.5191

> <Gold.PLP.ligand.clash>
0.0000

> <Gold.PLP.ligand.torsion>
0.3417

> <Gold.PLP.Chemscore.Hbond>
4.3134

> <Gold.PLP.Chemscore.CHOScore>
0.0000

> <Gold.PLP.Chemscore.Metal>
0.0000

> <Gold.Chemscore.Hbonds>
donor molecule, donor type, donor heavy atom, donor atom, acceptor molecule, acceptor atom, score
      L1  H     8    29       P1  7948  0.84
      L1  H    11    30       P1  7948  1.00
      L1  H    15    44       P1 10175  2.00
      P1  H  8011  8017       L1    19  0.45

> <Gold.PLP.Chemscore.Internal.Correction>
0.5206

> <Gold.Rescore>
     Score         DG    S(hbond)    S(metal)    S(lipo)     H(rot)  DE(clash)    DE(int)     intcor
     15.60     -17.69       2.86        0.00      66.12       1.98       1.65       0.43       ----

> <Gold.Chemscore.Fitness>
15.6038

> <Gold.Chemscore.DG>
-17.6919

> <Gold.Chemscore.ZeroCoef>
-5.4800

> <Gold.Chemscore.Hbond>
2.8613

> <Gold.Chemscore.Metal>
0.0000

> <Gold.Chemscore.Lipo>
66.1198

> <Gold.Chemscore.Internal_Hbond>
0.0000

> <Gold.Chemscore.DEClash>
1.6549

> <Gold.Chemscore.DEInternal>
0.4331

> <Gold.Chemscore.Rot>
1.9848

> <Gold.Chemscore.Internal.Correction>
   9.000000E+99

> <Gold.Chemscore.Hbonds>
donor molecule, donor type, donor heavy atom, donor atom, acceptor molecule, acceptor atom, score
      L1  H     8    29       P1  7948  0.18
      L1  H    11    30       P1  7948  0.95
      L1  H    15    44       P1 10175  1.00
      P1  H  8011  8017       L1    19  0.44

> <Gold.Chemscore.Hbond.Weighted>
-9.5568

> <Gold.Chemscore.Metal.Weighted>
-0.0000

> <Gold.Chemscore.Lipo.Weighted>
-7.7360

> <Gold.Chemscore.Internal_Hbond.Weighted>
0.0000

> <Gold.Chemscore.DEClash.Weighted>
1.6549

> <Gold.Chemscore.DEInternal.Weighted>
0.4331

> <Gold.Chemscore.Rot.Weighted>
5.0810

> <Gold.Chemscore.Internal.Correction.Weighted>
   9.000000E+99

> <Gold.Protein.RotatedTorsions>
[ 6907 6896 6895 6894 ] final -138.79 input  -60.11 | X-H torsion
[ 7974 7965 7964 7962 ] final -160.07 input  175.53 | X-H torsion
[ 8008 7997 7996 7995 ] final -156.80 input   59.86 | X-H torsion
[ 10167 10162 10161 10158 ] final -172.22 input  -65.29 | X-H torsion
[ 10718 10713 10712 10709 ] final -101.19 input   66.30 | X-H torsion
[ 10763 10752 10751 10750 ] final   76.34 input  -60.55 | X-H torsion
[ 11005 11000 10999 10996 ] final -174.31 input  -57.11 | X-H torsion

> <Gold.Protein.ActiveResidues>
 VAL166  LYS551  ARG553  GLY616  TRP617  ASP618  TYR619  PRO620  LYS621  CYS622 
 ASP623  PHE694  ASN695  SER759  ASP760  ASP761  ALA762  ILE779  LEU786  VAL792 
 PHE793  MET794  SER795  GLU796  ALA797  LYS798  CYS799  TRP800  GLU811  SER814 

> <Gold.Protein.RotatedAtoms>
  151.0395  133.5718  159.2652 H   0  0  0  0  0  0  0  0  0  0  0  0  # atno 6907 bound_to 6896
  151.2770  135.0701  159.9165 H   0  0  0  0  0  0  0  0  0  0  0  0  # atno 6908 bound_to 6896
  152.5361  134.0116  159.7995 H   0  0  0  0  0  0  0  0  0  0  0  0  # atno 6909 bound_to 6896
  144.7441  140.3595  143.6099 H   0  0  0  0  0  0  0  0  0  0  0  0  # atno 7974 bound_to 7965
  155.7228  140.0792  157.2323 H   0  0  0  0  0  0  0  0  0  0  0  0  # atno 8008 bound_to 7997
  154.4043  140.1609  156.2475 H   0  0  0  0  0  0  0  0  0  0  0  0  # atno 8009 bound_to 7997
  155.9181  140.3399  155.6154 H   0  0  0  0  0  0  0  0  0  0  0  0  # atno 8010 bound_to 7997
  139.5757  144.1539  152.1446 H   0  0  0  0  0  0  0  0  0  0  0  0  # atno 10167 bound_to 10162
  156.0187  130.5362  150.6927 H   0  0  0  0  0  0  0  0  0  0  0  0  # atno 10718 bound_to 10713
  153.0718  135.4955  154.8321 H   0  0  0  0  0  0  0  0  0  0  0  0  # atno 10763 bound_to 10752
  154.7033  135.3006  154.9310 H   0  0  0  0  0  0  0  0  0  0  0  0  # atno 10764 bound_to 10752
  154.0027  135.6764  153.4813 H   0  0  0  0  0  0  0  0  0  0  0  0  # atno 10765 bound_to 10752
  140.4759  134.6121  157.4900 H   0  0  0  0  0  0  0  0  0  0  0  0  # atno 11005 bound_to 11000
  145.7192  139.1705  143.2494 LP  0  0  0  0  0  0  0  0  0  0  0  0  # atno 17320 bound_to 7965
  146.1290  140.7211  142.9421 LP  0  0  0  0  0  0  0  0  0  0  0  0  # atno 17321 bound_to 7965
  140.1081  144.5481  150.6943 LP  0  0  0  0  0  0  0  0  0  0  0  0  # atno 17342 bound_to 10162
  140.7039  143.2454  151.4783 LP  0  0  0  0  0  0  0  0  0  0  0  0  # atno 17343 bound_to 10162
  157.4605  131.0882  151.0750 LP  0  0  0  0  0  0  0  0  0  0  0  0  # atno 17370 bound_to 10713
  157.1240  130.6074  149.5512 LP  0  0  0  0  0  0  0  0  0  0  0  0  # atno 17371 bound_to 10713
  139.9856  134.7067  155.9780 LP  0  0  0  0  0  0  0  0  0  0  0  0  # atno 17394 bound_to 11000
  141.1554  133.6543  156.4146 LP  0  0  0  0  0  0  0  0  0  0  0  0  # atno 17395 bound_to 11000

$$$$
