AV-unprocessed.smi:1762|AV-procd|sdf|7123|dock4
  -GOLD-   22720 8353D 1   1.00000     0.00000
 Structure written by MMmdl.
 52 53  0  0  0  0  0  0  0  0  3 V2000
  146.2005  132.7507  150.1533 C   0  0  0  0  0  0  0  0  0  0  0  0
  146.5404  133.8935  151.1165 C   0  0  2  0  0  0  0  0  0  0  0  0
  147.2475  133.3882  152.3884 C   0  0  0  0  0  0  0  0  0  0  0  0
  147.5036  134.5039  153.3410 N   0  3  2  0  0  0  0  0  0  0  0  0
  148.2348  134.1147  154.5945 C   0  0  2  0  0  0  0  0  0  0  0  0
  148.3966  135.3330  155.5368 C   0  0  0  0  0  0  0  0  0  0  0  0
  148.9450  136.3496  155.0965 O   0  0  0  0  0  0  0  0  0  0  0  0
  147.8615  135.0853  156.7633 N   0  5  0  0  0  0  0  0  0  0  0  0
  148.6499  134.9811  157.9898 C   0  0  0  0  0  0  0  0  0  0  0  0
  148.3330  136.1626  158.9361 C   0  0  0  0  0  0  0  0  0  0  0  0
  148.1164  135.7831  160.4000 C   0  0  0  0  0  0  0  0  0  0  0  0
  148.1310  134.4274  160.8002 C   0  0  0  0  0  0  0  0  0  0  0  0
  147.9257  134.1211  162.1588 C   0  0  0  0  0  0  0  0  0  0  0  0
  147.7035  135.1746  163.0653 C   0  0  0  0  0  0  0  0  0  0  0  0
  147.6940  136.4933  162.5695 C   0  0  0  0  0  0  0  0  0  0  0  0
  147.8902  136.7987  161.2692 N   0  0  0  0  0  0  0  0  0  0  0  0
  149.6117  133.4050  154.3534 C   0  0  0  0  0  0  0  0  0  0  0  0
  149.4644  131.9325  153.9234 C   0  0  0  0  0  0  0  0  0  0  0  0
  150.6015  133.5155  155.5321 C   0  0  0  0  0  0  0  0  0  0  0  0
  146.2202  135.2144  153.6110 C   0  0  0  0  0  0  0  0  0  0  0  0
  145.5526  135.6751  152.3034 C   0  0  2  0  0  0  0  0  0  0  0  0
  144.2024  136.3563  152.5532 C   0  0  0  0  0  0  0  0  0  0  0  0
  145.3284  134.5417  151.4762 O   0  0  0  0  0  0  0  0  0  0  0  0
  147.1003  132.2242  149.8342 H   0  0  0  0  0  0  0  0  0  0  0  0
  145.7035  133.1293  149.2599 H   0  0  0  0  0  0  0  0  0  0  0  0
  145.5359  132.0241  150.6213 H   0  0  0  0  0  0  0  0  0  0  0  0
  147.1865  134.6026  150.5957 H   0  0  0  0  0  0  0  0  0  0  0  0
  146.6466  132.6219  152.8808 H   0  0  0  0  0  0  0  0  0  0  0  0
  148.1764  132.9179  152.0724 H   0  0  0  0  0  0  0  0  0  0  0  0
  147.5958  133.3720  155.0790 H   0  0  0  0  0  0  0  0  0  0  0  0
  148.4747  134.0453  158.5229 H   0  0  0  0  0  0  0  0  0  0  0  0
  149.7166  134.9944  157.7635 H   0  0  0  0  0  0  0  0  0  0  0  0
  149.1541  136.8793  158.8907 H   0  0  0  0  0  0  0  0  0  0  0  0
  147.4557  136.7004  158.5740 H   0  0  0  0  0  0  0  0  0  0  0  0
  148.3109  133.6415  160.0815 H   0  0  0  0  0  0  0  0  0  0  0  0
  147.9404  133.0965  162.4991 H   0  0  0  0  0  0  0  0  0  0  0  0
  147.5430  134.9777  164.1148 H   0  0  0  0  0  0  0  0  0  0  0  0
  147.5225  137.3255  163.2359 H   0  0  0  0  0  0  0  0  0  0  0  0
  150.0810  133.8795  153.4929 H   0  0  0  0  0  0  0  0  0  0  0  0
  149.0744  131.3069  154.7272 H   0  0  0  0  0  0  0  0  0  0  0  0
  150.4259  131.5138  153.6255 H   0  0  0  0  0  0  0  0  0  0  0  0
  148.7903  131.8394  153.0717 H   0  0  0  0  0  0  0  0  0  0  0  0
  150.2739  132.9294  156.3906 H   0  0  0  0  0  0  0  0  0  0  0  0
  150.7304  134.5449  155.8648 H   0  0  0  0  0  0  0  0  0  0  0  0
  151.5850  133.1420  155.2459 H   0  0  0  0  0  0  0  0  0  0  0  0
  145.5500  134.5522  154.1619 H   0  0  0  0  0  0  0  0  0  0  0  0
  146.3779  136.0917  154.2380 H   0  0  0  0  0  0  0  0  0  0  0  0
  146.2050  136.3798  151.7846 H   0  0  0  0  0  0  0  0  0  0  0  0
  144.3188  137.2417  153.1787 H   0  0  0  0  0  0  0  0  0  0  0  0
  143.5062  135.6822  153.0532 H   0  0  0  0  0  0  0  0  0  0  0  0
  143.7452  136.6712  151.6148 H   0  0  0  0  0  0  0  0  0  0  0  0
  148.1046  135.1605  152.8636 H   0  0  0  0  0  0  0  0  0  0  0  0
  1  2  1  0  0  0  0
  1 24  1  0  0  0  0
  1 25  1  0  0  0  0
  1 26  1  0  0  0  0
  2 23  1  0  0  0  0
  2  3  1  0  0  0  0
  2 27  1  0  0  0  0
  3  4  1  0  0  0  0
  3 28  1  0  0  0  0
  3 29  1  0  0  0  0
  4  5  1  0  0  0  0
  4 20  1  0  0  0  0
  4 52  1  0  0  0  0
  5  6  1  0  0  0  0
  5 17  1  0  0  0  0
  5 30  1  0  0  0  0
  6  7  2  0  0  0  0
  6  8  1  0  0  0  0
  8  9  1  0  0  0  0
  9 10  1  0  0  0  0
  9 31  1  0  0  0  0
  9 32  1  0  0  0  0
 10 11  1  0  0  0  0
 10 33  1  0  0  0  0
 10 34  1  0  0  0  0
 11 16  1  0  0  0  0
 11 12  2  0  0  0  0
 12 13  1  0  0  0  0
 12 35  1  0  0  0  0
 13 14  2  0  0  0  0
 13 36  1  0  0  0  0
 14 15  1  0  0  0  0
 14 37  1  0  0  0  0
 15 16  2  0  0  0  0
 15 38  1  0  0  0  0
 17 18  1  0  0  0  0
 17 19  1  0  0  0  0
 17 39  1  0  0  0  0
 18 40  1  0  0  0  0
 18 41  1  0  0  0  0
 18 42  1  0  0  0  0
 19 43  1  0  0  0  0
 19 44  1  0  0  0  0
 19 45  1  0  0  0  0
 20 21  1  0  0  0  0
 20 46  1  0  0  0  0
 20 47  1  0  0  0  0
 21 22  1  0  0  0  0
 21 23  1  0  0  0  0
 21 48  1  0  0  0  0
 22 49  1  0  0  0  0
 22 50  1  0  0  0  0
 22 51  1  0  0  0  0
M  CHG  1   4   1
M  CHG  1   8  -1
M  END
> <s_m_source_file>
AV-unprocessed.smi

> <i_m_source_file_index>
1762

> <i_lp_mmshare_version>
43012

> <i_f3d_flags>
0

> <s_epik_input>
W0NIM11bQ0BASF0xW0NIMl1OKFtDSDJdW0NASF0oTzEpW0NIM10pW0NAQEhdKFtDSF0oW0NIM10pW0NIM10pQyg9TylbTkhdW0NIMl1bQ0gyXWMyW2NIXVtjSF1bY0hdW2NIXW4y

> <s_epik_cmdline>
J2VwaWtfcHl0aG9uJywgJy1waCcsICc3LjAnLCAnLXRuJywgJzgnLCAnLW1hJywgJzIwMCcsICctbWV0YWxfYmluZGluZycsICctaW1hZScsICc8aW5maWxlLm1hZT4nLCAnLW9tYWUnLCAnPG91dGZpbGUubWFlPic=

> <r_epik_Ionization_Penalty>
7.82966

> <r_epik_Ionization_Penalty_Charging>
7.7461

> <r_epik_Ionization_Penalty_Neutral>
0.0835571

> <r_epik_State_Penalty>
8.52273

> <r_epik_Charging_Adjusted_Penalty>
16.2688

> <i_epik_Tot_Q>
0

> <i_epik_Tot_abs_Q>
2

> <r_epik_Metal_State_Penalty>
4.47451

> <b_epik_Metal_Only>
1

> <s_lp_Force_Field>
OPLS_2005

> <r_lp_Energy>
21.039

> <b_lp_Chiralities_Consistent>
1

> <s_lp_Variant>
AV-unprocessed.smi:1762-25

> <Gold.Version>
5.8.1

> <Gold.Id.Protein>
6NUR|6NUR_protein|mol2

> <Gold.PLP.Fitness>
47.9789

> <Gold.PLP.PLP>
-41.0443

> <Gold.PLP.part.hbond>
-3.0000

> <Gold.PLP.part.metal>
0.0000

> <Gold.PLP.part.buried>
-5.7590

> <Gold.PLP.part.nonpolar>
-33.9223

> <Gold.PLP.part.repulsive>
0.2683

> <Gold.PLP.ligand.clash>
0.0000

> <Gold.PLP.ligand.torsion>
1.6723

> <Gold.PLP.Chemscore.Hbond>
3.2856

> <Gold.PLP.Chemscore.CHOScore>
0.0000

> <Gold.PLP.Chemscore.Metal>
0.0000

> <Gold.Chemscore.Hbonds>
donor molecule, donor type, donor heavy atom, donor atom, acceptor molecule, acceptor atom, score
      L1  H     4    52       P1  7948  2.00
      P1  H  6931  6943       L1    16  0.35
      P1  H  6934  6947       L1    16  0.16

> <Gold.PLP.Chemscore.Internal.Correction>
0.4224

> <Gold.Rescore>
     Score         DG    S(hbond)    S(metal)    S(lipo)     H(rot)  DE(clash)    DE(int)     intcor
     17.31     -19.13       1.89        0.00      97.81       1.60       0.01       1.81       ----

> <Gold.Chemscore.Fitness>
17.3144

> <Gold.Chemscore.DG>
-19.1280

> <Gold.Chemscore.ZeroCoef>
-5.4800

> <Gold.Chemscore.Hbond>
1.8873

> <Gold.Chemscore.Metal>
0.0000

> <Gold.Chemscore.Lipo>
97.8071

> <Gold.Chemscore.Internal_Hbond>
0.0000

> <Gold.Chemscore.DEClash>
0.0063

> <Gold.Chemscore.DEInternal>
1.8073

> <Gold.Chemscore.Rot>
1.6012

> <Gold.Chemscore.Internal.Correction>
   9.000000E+99

> <Gold.Chemscore.Hbonds>
donor molecule, donor type, donor heavy atom, donor atom, acceptor molecule, acceptor atom, score
      L1  H     4    52       P1  7948  0.97
      P1  H  6931  6943       L1    16  0.01
      P1  H  6934  6947       L1    16  0.11

> <Gold.Chemscore.Hbond.Weighted>
-6.3036

> <Gold.Chemscore.Metal.Weighted>
-0.0000

> <Gold.Chemscore.Lipo.Weighted>
-11.4434

> <Gold.Chemscore.Internal_Hbond.Weighted>
0.0000

> <Gold.Chemscore.DEClash.Weighted>
0.0063

> <Gold.Chemscore.DEInternal.Weighted>
1.8073

> <Gold.Chemscore.Rot.Weighted>
4.0990

> <Gold.Chemscore.Internal.Correction.Weighted>
   9.000000E+99

> <Gold.Protein.RotatedTorsions>
[ 6907 6896 6895 6894 ] final  -58.27 input  -60.11 | X-H torsion
[ 7974 7965 7964 7962 ] final   -8.78 input  175.53 | X-H torsion
[ 8008 7997 7996 7995 ] final   30.64 input   59.86 | X-H torsion
[ 10167 10162 10161 10158 ] final  -14.48 input  -65.29 | X-H torsion
[ 10718 10713 10712 10709 ] final -121.22 input   66.30 | X-H torsion
[ 10763 10752 10751 10750 ] final  -73.54 input  -60.55 | X-H torsion
[ 11005 11000 10999 10996 ] final  -44.67 input  -57.11 | X-H torsion

> <Gold.Protein.ActiveResidues>
 VAL166  LYS551  ARG553  GLY616  TRP617  ASP618  TYR619  PRO620  LYS621  CYS622 
 ASP623  PHE694  ASN695  SER759  ASP760  ASP761  ALA762  ILE779  LEU786  VAL792 
 PHE793  MET794  SER795  GLU796  ALA797  LYS798  CYS799  TRP800  GLU811  SER814 

> <Gold.Protein.RotatedAtoms>
  150.8020  134.7120  159.6608 H   0  0  0  0  0  0  0  0  0  0  0  0  # atno 6907 bound_to 6896
  152.4137  134.6076  160.0026 H   0  0  0  0  0  0  0  0  0  0  0  0  # atno 6908 bound_to 6896
  151.6311  133.3295  159.3145 H   0  0  0  0  0  0  0  0  0  0  0  0  # atno 6909 bound_to 6896
  146.2271  140.2519  142.8347 H   0  0  0  0  0  0  0  0  0  0  0  0  # atno 7974 bound_to 7965
  155.0936  140.3222  155.4567 H   0  0  0  0  0  0  0  0  0  0  0  0  # atno 8008 bound_to 7997
  156.2736  140.2073  156.6009 H   0  0  0  0  0  0  0  0  0  0  0  0  # atno 8009 bound_to 7997
  154.6884  140.0519  157.0325 H   0  0  0  0  0  0  0  0  0  0  0  0  # atno 8010 bound_to 7997
  140.7202  143.5317  150.9512 H   0  0  0  0  0  0  0  0  0  0  0  0  # atno 10167 bound_to 10162
  156.1320  130.6402  150.9636 H   0  0  0  0  0  0  0  0  0  0  0  0  # atno 10718 bound_to 10713
  154.4608  135.5894  153.6254 H   0  0  0  0  0  0  0  0  0  0  0  0  # atno 10763 bound_to 10752
  152.9823  135.6043  154.3488 H   0  0  0  0  0  0  0  0  0  0  0  0  # atno 10764 bound_to 10752
  154.3360  135.2842  155.2426 H   0  0  0  0  0  0  0  0  0  0  0  0  # atno 10765 bound_to 10752
  141.0465  133.6759  156.2905 H   0  0  0  0  0  0  0  0  0  0  0  0  # atno 11005 bound_to 11000
  144.9405  140.8073  143.5633 LP  0  0  0  0  0  0  0  0  0  0  0  0  # atno 17320 bound_to 7965
  145.2470  139.2048  143.4962 LP  0  0  0  0  0  0  0  0  0  0  0  0  # atno 17321 bound_to 7965
  139.9037  143.6804  152.3127 LP  0  0  0  0  0  0  0  0  0  0  0  0  # atno 17342 bound_to 10162
  139.7163  144.7611  151.1029 LP  0  0  0  0  0  0  0  0  0  0  0  0  # atno 17343 bound_to 10162
  157.6497  131.0899  150.8078 LP  0  0  0  0  0  0  0  0  0  0  0  0  # atno 17370 bound_to 10713
  156.8162  130.4968  149.5349 LP  0  0  0  0  0  0  0  0  0  0  0  0  # atno 17371 bound_to 10713
  140.6136  134.5433  157.5537 LP  0  0  0  0  0  0  0  0  0  0  0  0  # atno 17394 bound_to 11000
  139.9316  134.7953  156.0915 LP  0  0  0  0  0  0  0  0  0  0  0  0  # atno 17395 bound_to 11000

$$$$
