AV-unprocessed.smi:1712|AV-procd|sdf|6902|dock6
  -GOLD-   22720 8103D 1   1.00000     0.00000
 Structure written by MMmdl.
 37 38  0  0  0  0  0  0  0  0  1 V2000
  146.8800  141.8215  153.8419 C   0  0  0  0  0  0  0  0  0  0  0  0
  147.5042  140.4492  154.2029 C   0  0  1  0  0  0  0  0  0  0  0  0
  147.1238  139.4120  153.1077 C   0  0  0  0  0  0  0  0  0  0  0  0
  145.7254  138.9922  153.1733 N   0  0  0  0  0  0  0  0  0  0  0  0
  145.2914  137.7710  153.5181 C   0  0  0  0  0  0  0  0  0  0  0  0
  146.0377  136.8383  153.8160 O   0  0  0  0  0  0  0  0  0  0  0  0
  143.9503  137.7055  153.4883 N   0  0  0  0  0  0  0  0  0  0  0  0
  143.1371  136.5769  153.7623 C   0  0  0  0  0  0  0  0  0  0  0  0
  141.7602  136.6370  154.1096 C   0  0  0  0  0  0  0  0  0  0  0  0
  141.2575  135.4264  154.3058 N   0  0  0  0  0  0  0  0  0  0  0  0
  142.3003  134.5941  154.0861 N   0  0  0  0  0  0  0  0  0  0  0  0
  143.4647  135.2500  153.7525 C   0  0  0  0  0  0  0  0  0  0  0  0
  148.9649  140.5280  154.4443 N   0  0  0  0  0  0  0  0  0  0  0  0
  149.3024  141.3290  155.6270 C   0  0  0  0  0  0  0  0  0  0  0  0
  150.8160  141.3918  155.8954 C   0  0  0  0  0  0  0  0  0  0  0  0
  151.3317  140.0760  156.0373 O   0  0  0  0  0  0  0  0  0  0  0  0
  151.0977  139.2854  154.8804 C   0  0  0  0  0  0  0  0  0  0  0  0
  149.5869  139.2074  154.6011 C   0  0  0  0  0  0  0  0  0  0  0  0
  142.2028  133.5919  154.1664 H   0  0  0  0  0  0  0  0  0  0  0  0
  145.8087  141.7538  153.6577 H   0  0  0  0  0  0  0  0  0  0  0  0
  147.3411  142.2419  152.9475 H   0  0  0  0  0  0  0  0  0  0  0  0
  146.9764  142.5488  154.6464 H   0  0  0  0  0  0  0  0  0  0  0  0
  147.0294  140.1213  155.1291 H   0  0  0  0  0  0  0  0  0  0  0  0
  147.3785  139.8009  152.1202 H   0  0  0  0  0  0  0  0  0  0  0  0
  147.6881  138.4893  153.2259 H   0  0  0  0  0  0  0  0  0  0  0  0
  145.0347  139.6907  152.9415 H   0  0  0  0  0  0  0  0  0  0  0  0
  143.4586  138.5500  153.2344 H   0  0  0  0  0  0  0  0  0  0  0  0
  141.1219  137.5009  154.2232 H   0  0  0  0  0  0  0  0  0  0  0  0
  144.3853  134.7247  153.5457 H   0  0  0  0  0  0  0  0  0  0  0  0
  148.9613  142.3554  155.5060 H   0  0  0  0  0  0  0  0  0  0  0  0
  148.7950  140.9261  156.5046 H   0  0  0  0  0  0  0  0  0  0  0  0
  151.3312  141.9083  155.0841 H   0  0  0  0  0  0  0  0  0  0  0  0
  151.0154  141.9519  156.8090 H   0  0  0  0  0  0  0  0  0  0  0  0
  151.6270  139.7097  154.0258 H   0  0  0  0  0  0  0  0  0  0  0  0
  151.5040  138.2872  155.0442 H   0  0  0  0  0  0  0  0  0  0  0  0
  149.0982  138.6621  155.4098 H   0  0  0  0  0  0  0  0  0  0  0  0
  149.4654  138.6131  153.6979 H   0  0  0  0  0  0  0  0  0  0  0  0
  1  2  1  0  0  0  0
  1 20  1  0  0  0  0
  1 21  1  0  0  0  0
  1 22  1  0  0  0  0
  2  3  1  0  0  0  0
  2 13  1  0  0  0  0
  2 23  1  0  0  0  0
  3  4  1  0  0  0  0
  3 24  1  0  0  0  0
  3 25  1  0  0  0  0
  4  5  1  0  0  0  0
  4 26  1  0  0  0  0
  5  6  2  0  0  0  0
  5  7  1  0  0  0  0
  7  8  1  0  0  0  0
  7 27  1  0  0  0  0
  8 12  2  0  0  0  0
  8  9  1  0  0  0  0
  9 10  2  0  0  0  0
  9 28  1  0  0  0  0
 10 11  1  0  0  0  0
 11 19  1  0  0  0  0
 11 12  1  0  0  0  0
 12 29  1  0  0  0  0
 13 18  1  0  0  0  0
 13 14  1  0  0  0  0
 14 15  1  0  0  0  0
 14 30  1  0  0  0  0
 14 31  1  0  0  0  0
 15 16  1  0  0  0  0
 15 32  1  0  0  0  0
 15 33  1  0  0  0  0
 16 17  1  0  0  0  0
 17 18  1  0  0  0  0
 17 34  1  0  0  0  0
 17 35  1  0  0  0  0
 18 36  1  0  0  0  0
 18 37  1  0  0  0  0
M  END
> <s_m_source_file>
AV-unprocessed.smi

> <i_m_source_file_index>
1712

> <i_lp_mmshare_version>
43012

> <i_f3d_flags>
0

> <s_epik_input>
W0NIMl0xW0NIMl1PW0NIMl1bQ0gyXU4xW0NASF0oW0NIM10pW0NIMl1bTkhdQyg9TylbTkhdYzJbY0hdbltuSF1bY0hdMg==

> <s_epik_cmdline>
J2VwaWtfcHl0aG9uJywgJy1waCcsICc3LjAnLCAnLXRuJywgJzgnLCAnLW1hJywgJzIwMCcsICctbWV0YWxfYmluZGluZycsICctaW1hZScsICc8aW5maWxlLm1hZT4nLCAnLW9tYWUnLCAnPG91dGZpbGUubWFlPic=

> <r_lp_tautomer_probability>
0.5

> <r_epik_Ionization_Penalty>
0.242772

> <r_epik_Ionization_Penalty_Charging>
0

> <r_epik_Ionization_Penalty_Neutral>
0.242772

> <r_epik_State_Penalty>
0.233765

> <r_epik_Charging_Adjusted_Penalty>
0.233765

> <i_epik_Tot_Q>
0

> <i_epik_Tot_abs_Q>
0

> <r_epik_Metal_State_Penalty>
0.233764

> <b_epik_Metal_Only>
0

> <s_lp_Force_Field>
OPLS_2005

> <r_lp_Energy>
31.3121

> <b_lp_Chiralities_Consistent>
1

> <s_lp_Variant>
AV-unprocessed.smi:1712-2

> <Gold.Version>
5.8.1

> <Gold.Id.Protein>
6NUR|6NUR_protein|mol2

> <Gold.PLP.Fitness>
39.4477

> <Gold.PLP.PLP>
-28.9903

> <Gold.PLP.part.hbond>
-4.2536

> <Gold.PLP.part.metal>
0.0000

> <Gold.PLP.part.buried>
-5.5255

> <Gold.PLP.part.nonpolar>
-18.9088

> <Gold.PLP.part.repulsive>
0.3726

> <Gold.PLP.ligand.clash>
0.0000

> <Gold.PLP.ligand.torsion>
0.3440

> <Gold.PLP.Chemscore.Hbond>
3.6986

> <Gold.PLP.Chemscore.CHOScore>
0.0000

> <Gold.PLP.Chemscore.Metal>
0.0000

> <Gold.Chemscore.Hbonds>
donor molecule, donor type, donor heavy atom, donor atom, acceptor molecule, acceptor atom, score
      L1  H     4    26       P1 10175  1.00
      L1  H     7    27       P1 10175  0.89
      L1  H    11    19       P1 10957  1.00
      P1  H 11000 11005       L1    10  0.77

> <Gold.PLP.Chemscore.Internal.Correction>
0.0495

> <Gold.Rescore>
     Score         DG    S(hbond)    S(metal)    S(lipo)     H(rot)  DE(clash)    DE(int)     intcor
     18.35     -18.94       3.27        0.00      57.54       1.63       0.07       0.53       ----

> <Gold.Chemscore.Fitness>
18.3481

> <Gold.Chemscore.DG>
-18.9436

> <Gold.Chemscore.ZeroCoef>
-5.4800

> <Gold.Chemscore.Hbond>
3.2655

> <Gold.Chemscore.Metal>
0.0000

> <Gold.Chemscore.Lipo>
57.5425

> <Gold.Chemscore.Internal_Hbond>
0.0000

> <Gold.Chemscore.DEClash>
0.0688

> <Gold.Chemscore.DEInternal>
0.5267

> <Gold.Chemscore.Rot>
1.6311

> <Gold.Chemscore.Internal.Correction>
   9.000000E+99

> <Gold.Chemscore.Hbonds>
donor molecule, donor type, donor heavy atom, donor atom, acceptor molecule, acceptor atom, score
      L1  H     4    26       P1 10175  0.99
      L1  H     7    27       P1 10175  0.82
      L1  H    11    19       P1 10957  0.97
      P1  H 11000 11005       L1    10  0.16

> <Gold.Chemscore.Hbond.Weighted>
-10.9068

> <Gold.Chemscore.Metal.Weighted>
-0.0000

> <Gold.Chemscore.Lipo.Weighted>
-6.7325

> <Gold.Chemscore.Internal_Hbond.Weighted>
0.0000

> <Gold.Chemscore.DEClash.Weighted>
0.0688

> <Gold.Chemscore.DEInternal.Weighted>
0.5267

> <Gold.Chemscore.Rot.Weighted>
4.1757

> <Gold.Chemscore.Internal.Correction.Weighted>
   9.000000E+99

> <Gold.Protein.RotatedTorsions>
[ 6907 6896 6895 6894 ] final  -75.11 input  -60.11 | X-H torsion
[ 7974 7965 7964 7962 ] final  -37.89 input  175.53 | X-H torsion
[ 8008 7997 7996 7995 ] final  -18.60 input   59.86 | X-H torsion
[ 10167 10162 10161 10158 ] final   82.54 input  -65.29 | X-H torsion
[ 10718 10713 10712 10709 ] final  152.66 input   66.30 | X-H torsion
[ 10763 10752 10751 10750 ] final  -13.25 input  -60.55 | X-H torsion
[ 11005 11000 10999 10996 ] final   34.44 input  -57.11 | X-H torsion

> <Gold.Protein.ActiveResidues>
 VAL166  LYS551  ARG553  GLY616  TRP617  ASP618  TYR619  PRO620  LYS621  CYS622 
 ASP623  PHE694  ASN695  SER759  ASP760  ASP761  ALA762  ILE779  LEU786  VAL792 
 PHE793  MET794  SER795  GLU796  ALA797  LYS798  CYS799  TRP800  GLU811  SER814 

> <Gold.Protein.RotatedAtoms>
  150.7070  134.4769  159.5451 H   0  0  0  0  0  0  0  0  0  0  0  0  # atno 6907 bound_to 6896
  152.2414  134.8222  160.0469 H   0  0  0  0  0  0  0  0  0  0  0  0  # atno 6908 bound_to 6896
  151.9002  133.3501  159.3865 H   0  0  0  0  0  0  0  0  0  0  0  0  # atno 6909 bound_to 6896
  146.0535  140.6449  142.9031 H   0  0  0  0  0  0  0  0  0  0  0  0  # atno 7974 bound_to 7965
  154.4895  140.2111  155.9581 H   0  0  0  0  0  0  0  0  0  0  0  0  # atno 8008 bound_to 7997
  156.1284  140.3201  155.8281 H   0  0  0  0  0  0  0  0  0  0  0  0  # atno 8009 bound_to 7997
  155.4341  140.0505  157.3007 H   0  0  0  0  0  0  0  0  0  0  0  0  # atno 8010 bound_to 7997
  139.9278  144.6172  150.8375 H   0  0  0  0  0  0  0  0  0  0  0  0  # atno 10167 bound_to 10162
  157.2548  131.0786  151.1705 H   0  0  0  0  0  0  0  0  0  0  0  0  # atno 10718 bound_to 10713
  153.5105  135.7016  153.5783 H   0  0  0  0  0  0  0  0  0  0  0  0  # atno 10763 bound_to 10752
  153.3875  135.3904  155.1900 H   0  0  0  0  0  0  0  0  0  0  0  0  # atno 10764 bound_to 10752
  154.8703  135.3850  154.4585 H   0  0  0  0  0  0  0  0  0  0  0  0  # atno 10765 bound_to 10752
  140.2528  134.3283  155.7884 H   0  0  0  0  0  0  0  0  0  0  0  0  # atno 11005 bound_to 11000
  144.7135  140.4126  143.7062 LP  0  0  0  0  0  0  0  0  0  0  0  0  # atno 17320 bound_to 7965
  145.6684  139.1594  143.2768 LP  0  0  0  0  0  0  0  0  0  0  0  0  # atno 17321 bound_to 7965
  140.7645  143.3252  151.2533 LP  0  0  0  0  0  0  0  0  0  0  0  0  # atno 17342 bound_to 10162
  139.6808  143.9858  152.2807 LP  0  0  0  0  0  0  0  0  0  0  0  0  # atno 17343 bound_to 10162
  157.3239  130.6951  149.6285 LP  0  0  0  0  0  0  0  0  0  0  0  0  # atno 17370 bound_to 10713
  155.9665  130.4327  150.4976 LP  0  0  0  0  0  0  0  0  0  0  0  0  # atno 17371 bound_to 10713
  141.2199  133.7363  156.9064 LP  0  0  0  0  0  0  0  0  0  0  0  0  # atno 17394 bound_to 11000
  140.1541  134.9210  157.2630 LP  0  0  0  0  0  0  0  0  0  0  0  0  # atno 17395 bound_to 11000

$$$$
