AV-unprocessed.smi:2707|AV-procd|sdf|10457|dock2
  -GOLD-   2272014493D 1   1.00000     0.00000
 Structure written by MMmdl.
 44 45  0  0  0  0  0  0  0  0  1 V2000
  147.6649  141.1339  154.8779 C   0  0  0  0  0  0  0  0  0  0  0  0
  146.2994  140.7306  155.4792 C   0  0  2  0  0  0  0  0  0  0  0  0
  145.5999  139.8144  154.5706 N   0  0  0  0  0  0  0  0  0  0  0  0
  145.9087  138.5358  154.2965 C   0  0  0  0  0  0  0  0  0  0  0  0
  146.8520  137.9337  154.8094 O   0  0  0  0  0  0  0  0  0  0  0  0
  145.0568  138.0165  153.3956 N   0  0  0  0  0  0  0  0  0  0  0  0
  145.0672  136.7132  152.8326 C   0  0  0  0  0  0  0  0  0  0  0  0
  143.9861  136.4144  151.9791 C   0  0  0  0  0  0  0  0  0  0  0  0
  143.9376  135.1451  151.3788 C   0  0  0  0  0  0  0  0  0  0  0  0
  144.9820  134.2386  151.6704 C   0  0  0  0  0  0  0  0  0  0  0  0
  145.0588  132.8212  151.0748 C   0  0  0  0  0  0  0  0  0  0  0  0
  146.3483  132.6751  150.2405 C   0  0  0  0  0  0  0  0  0  0  0  0
  143.8248  132.5644  150.1849 C   0  0  0  0  0  0  0  0  0  0  0  0
  145.0821  131.7236  152.1626 C   0  0  0  0  0  0  0  0  0  0  0  0
  145.9930  134.5830  152.5050 N   0  0  0  0  0  0  0  0  0  0  0  0
  146.0338  135.7919  153.0722 N   0  0  0  0  0  0  0  0  0  0  0  0
  145.4222  141.9920  155.6694 C   0  0  0  0  0  0  0  0  0  0  0  0
  145.8597  142.7566  156.9270 C   0  0  0  0  0  0  0  0  0  0  0  0
  146.5462  141.5036  158.0710 S   0  0  0  0  0  0  0  0  0  0  0  0
  147.9535  141.8308  158.3458 O   0  0  0  0  0  0  0  0  0  0  0  0
  145.5967  141.2612  159.1678 O   0  0  0  0  0  0  0  0  0  0  0  0
  146.4638  140.1096  156.8852 C   0  0  0  0  0  0  0  0  0  0  0  0
  148.1781  141.8694  155.4975 H   0  0  0  0  0  0  0  0  0  0  0  0
  147.5463  141.5702  153.8856 H   0  0  0  0  0  0  0  0  0  0  0  0
  148.3344  140.2790  154.7818 H   0  0  0  0  0  0  0  0  0  0  0  0
  144.8021  140.2032  154.0896 H   0  0  0  0  0  0  0  0  0  0  0  0
  144.3275  138.6281  153.0606 H   0  0  0  0  0  0  0  0  0  0  0  0
  143.2109  137.1407  151.7823 H   0  0  0  0  0  0  0  0  0  0  0  0
  143.1185  134.9015  150.7202 H   0  0  0  0  0  0  0  0  0  0  0  0
  146.4374  131.6730  149.8196 H   0  0  0  0  0  0  0  0  0  0  0  0
  147.2352  132.8570  150.8484 H   0  0  0  0  0  0  0  0  0  0  0  0
  146.3730  133.3766  149.4060 H   0  0  0  0  0  0  0  0  0  0  0  0
  143.7746  133.2629  149.3491 H   0  0  0  0  0  0  0  0  0  0  0  0
  142.9001  132.6667  150.7538 H   0  0  0  0  0  0  0  0  0  0  0  0
  143.8409  131.5592  149.7622 H   0  0  0  0  0  0  0  0  0  0  0  0
  145.1366  130.7289  151.7183 H   0  0  0  0  0  0  0  0  0  0  0  0
  144.1823  131.7471  152.7787 H   0  0  0  0  0  0  0  0  0  0  0  0
  145.9457  131.8257  152.8210 H   0  0  0  0  0  0  0  0  0  0  0  0
  145.4311  142.6360  154.7892 H   0  0  0  0  0  0  0  0  0  0  0  0
  144.3853  141.6838  155.8134 H   0  0  0  0  0  0  0  0  0  0  0  0
  146.6500  143.4706  156.6952 H   0  0  0  0  0  0  0  0  0  0  0  0
  145.0382  143.2915  157.4040 H   0  0  0  0  0  0  0  0  0  0  0  0
  145.5941  139.5087  157.1531 H   0  0  0  0  0  0  0  0  0  0  0  0
  147.3514  139.4841  156.9852 H   0  0  0  0  0  0  0  0  0  0  0  0
  1  2  1  0  0  0  0
  1 23  1  0  0  0  0
  1 24  1  0  0  0  0
  1 25  1  0  0  0  0
  2 22  1  0  0  0  0
  2  3  1  0  0  0  0
  2 17  1  0  0  0  0
  3  4  1  0  0  0  0
  3 26  1  0  0  0  0
  4  5  2  0  0  0  0
  4  6  1  0  0  0  0
  6  7  1  0  0  0  0
  6 27  1  0  0  0  0
  7 16  1  0  0  0  0
  7  8  2  0  0  0  0
  8  9  1  0  0  0  0
  8 28  1  0  0  0  0
  9 10  2  0  0  0  0
  9 29  1  0  0  0  0
 10 11  1  0  0  0  0
 10 15  1  0  0  0  0
 11 12  1  0  0  0  0
 11 13  1  0  0  0  0
 11 14  1  0  0  0  0
 12 30  1  0  0  0  0
 12 31  1  0  0  0  0
 12 32  1  0  0  0  0
 13 33  1  0  0  0  0
 13 34  1  0  0  0  0
 13 35  1  0  0  0  0
 14 36  1  0  0  0  0
 14 37  1  0  0  0  0
 14 38  1  0  0  0  0
 15 16  2  0  0  0  0
 17 18  1  0  0  0  0
 17 39  1  0  0  0  0
 17 40  1  0  0  0  0
 18 19  1  0  0  0  0
 18 41  1  0  0  0  0
 18 42  1  0  0  0  0
 19 20  2  0  0  0  0
 19 21  2  0  0  0  0
 19 22  1  0  0  0  0
 22 43  1  0  0  0  0
 22 44  1  0  0  0  0
M  END
> <s_m_source_file>
AV-unprocessed.smi

> <i_m_source_file_index>
2707

> <i_lp_mmshare_version>
43012

> <i_f3d_flags>
0

> <s_epik_input>
Tz1TKD1PKShbQ0gyXTEpW0NIMl1bQ0gyXVtDQEBdMShbQ0gzXSlbTkhdQyg9TylbTkhdYzJbY0hdW2NIXWMobm4yKUMoW0NIM10pKFtDSDNdKVtDSDNd

> <s_epik_cmdline>
J2VwaWtfcHl0aG9uJywgJy1waCcsICc3LjAnLCAnLXRuJywgJzgnLCAnLW1hJywgJzIwMCcsICctbWV0YWxfYmluZGluZycsICctaW1hZScsICc8aW5maWxlLm1hZT4nLCAnLW9tYWUnLCAnPG91dGZpbGUubWFlPic=

> <r_lp_tautomer_probability>
1

> <r_epik_Ionization_Penalty>
0.00910408

> <r_epik_Ionization_Penalty_Charging>
0

> <r_epik_Ionization_Penalty_Neutral>
0.00910408

> <r_epik_State_Penalty>
-0

> <r_epik_Charging_Adjusted_Penalty>
0

> <i_epik_Tot_Q>
0

> <i_epik_Tot_abs_Q>
0

> <r_epik_Metal_State_Penalty>
-0

> <b_epik_Metal_Only>
0

> <s_lp_Force_Field>
OPLS_2005

> <r_lp_Energy>
10.6556

> <b_lp_Chiralities_Consistent>
1

> <s_lp_Variant>
AV-unprocessed.smi:2707-2

> <Gold.Version>
5.8.1

> <Gold.Id.Protein>
6NUR|6NUR_protein|mol2

> <Gold.PLP.Fitness>
35.6827

> <Gold.PLP.PLP>
-27.7948

> <Gold.PLP.part.hbond>
-3.0000

> <Gold.PLP.part.metal>
0.0000

> <Gold.PLP.part.buried>
-4.9329

> <Gold.PLP.part.nonpolar>
-20.6172

> <Gold.PLP.part.repulsive>
1.4326

> <Gold.PLP.ligand.clash>
0.0000

> <Gold.PLP.ligand.torsion>
0.1427

> <Gold.PLP.Chemscore.Hbond>
2.7200

> <Gold.PLP.Chemscore.CHOScore>
0.0000

> <Gold.PLP.Chemscore.Metal>
0.0000

> <Gold.Chemscore.Hbonds>
donor molecule, donor type, donor heavy atom, donor atom, acceptor molecule, acceptor atom, score
      L1  H     3    26       P1 10175  1.00
      L1  H     6    27       P1 10175  1.00
      P1  H  6934  6946       L1    21  0.75

> <Gold.PLP.Chemscore.Internal.Correction>
0.0132

> <Gold.Rescore>
     Score         DG    S(hbond)    S(metal)    S(lipo)     H(rot)  DE(clash)    DE(int)     intcor
     16.59     -18.23       2.50        0.00      64.31       1.22       0.31       1.33       ----

> <Gold.Chemscore.Fitness>
16.5925

> <Gold.Chemscore.DG>
-18.2252

> <Gold.Chemscore.ZeroCoef>
-5.4800

> <Gold.Chemscore.Hbond>
2.5015

> <Gold.Chemscore.Metal>
0.0000

> <Gold.Chemscore.Lipo>
64.3106

> <Gold.Chemscore.Internal_Hbond>
0.0000

> <Gold.Chemscore.DEClash>
0.3061

> <Gold.Chemscore.DEInternal>
1.3267

> <Gold.Chemscore.Rot>
1.2242

> <Gold.Chemscore.Internal.Correction>
   9.000000E+99

> <Gold.Chemscore.Hbonds>
donor molecule, donor type, donor heavy atom, donor atom, acceptor molecule, acceptor atom, score
      L1  H     3    26       P1 10175  0.95
      L1  H     6    27       P1 10175  0.90
      P1  H  6934  6946       L1    21  0.18

> <Gold.Chemscore.Hbond.Weighted>
-8.3549

> <Gold.Chemscore.Metal.Weighted>
-0.0000

> <Gold.Chemscore.Lipo.Weighted>
-7.5243

> <Gold.Chemscore.Internal_Hbond.Weighted>
0.0000

> <Gold.Chemscore.DEClash.Weighted>
0.3061

> <Gold.Chemscore.DEInternal.Weighted>
1.3267

> <Gold.Chemscore.Rot.Weighted>
3.1340

> <Gold.Chemscore.Internal.Correction.Weighted>
   9.000000E+99

> <Gold.Protein.RotatedTorsions>
[ 6907 6896 6895 6894 ] final -139.46 input  -60.11 | X-H torsion
[ 7974 7965 7964 7962 ] final  -16.89 input  175.53 | X-H torsion
[ 8008 7997 7996 7995 ] final    8.84 input   59.86 | X-H torsion
[ 10167 10162 10161 10158 ] final   22.81 input  -65.29 | X-H torsion
[ 10718 10713 10712 10709 ] final  -45.66 input   66.30 | X-H torsion
[ 10763 10752 10751 10750 ] final  106.70 input  -60.55 | X-H torsion
[ 11005 11000 10999 10996 ] final   -2.66 input  -57.11 | X-H torsion

> <Gold.Protein.ActiveResidues>
 VAL166  LYS551  ARG553  GLY616  TRP617  ASP618  TYR619  PRO620  LYS621  CYS622 
 ASP623  PHE694  ASN695  SER759  ASP760  ASP761  ALA762  ILE779  LEU786  VAL792 
 PHE793  MET794  SER795  GLU796  ALA797  LYS798  CYS799  TRP800  GLU811  SER814 

> <Gold.Protein.RotatedAtoms>
  151.0481  133.5648  159.2644 H   0  0  0  0  0  0  0  0  0  0  0  0  # atno 6907 bound_to 6896
  151.2669  135.0671  159.9129 H   0  0  0  0  0  0  0  0  0  0  0  0  # atno 6908 bound_to 6896
  152.5377  134.0217  159.8038 H   0  0  0  0  0  0  0  0  0  0  0  0  # atno 6909 bound_to 6896
  146.1966  140.3702  142.8438 H   0  0  0  0  0  0  0  0  0  0  0  0  # atno 7974 bound_to 7965
  154.7721  140.2804  155.6130 H   0  0  0  0  0  0  0  0  0  0  0  0  # atno 8008 bound_to 7997
  156.2935  140.2639  156.2454 H   0  0  0  0  0  0  0  0  0  0  0  0  # atno 8009 bound_to 7997
  154.9887  140.0374  157.2299 H   0  0  0  0  0  0  0  0  0  0  0  0  # atno 8010 bound_to 7997
  140.5319  143.9827  150.6470 H   0  0  0  0  0  0  0  0  0  0  0  0  # atno 10167 bound_to 10162
  156.2261  130.4169  149.8932 H   0  0  0  0  0  0  0  0  0  0  0  0  # atno 10718 bound_to 10713
  153.3965  135.3868  155.1959 H   0  0  0  0  0  0  0  0  0  0  0  0  # atno 10763 bound_to 10752
  154.8725  135.3761  154.4672 H   0  0  0  0  0  0  0  0  0  0  0  0  # atno 10764 bound_to 10752
  153.5164  135.7087  153.5816 H   0  0  0  0  0  0  0  0  0  0  0  0  # atno 10765 bound_to 10752
  140.6608  133.9322  155.8435 H   0  0  0  0  0  0  0  0  0  0  0  0  # atno 11005 bound_to 11000
  144.8594  140.7118  143.6117 LP  0  0  0  0  0  0  0  0  0  0  0  0  # atno 17320 bound_to 7965
  145.3622  139.1679  143.4377 LP  0  0  0  0  0  0  0  0  0  0  0  0  # atno 17321 bound_to 7965
  140.3204  143.3141  152.0790 LP  0  0  0  0  0  0  0  0  0  0  0  0  # atno 17342 bound_to 10162
  139.4957  144.6577  151.6535 LP  0  0  0  0  0  0  0  0  0  0  0  0  # atno 17343 bound_to 10162
  156.6562  130.8764  151.3540 LP  0  0  0  0  0  0  0  0  0  0  0  0  # atno 17370 bound_to 10713
  157.7111  130.9441  150.1093 LP  0  0  0  0  0  0  0  0  0  0  0  0  # atno 17371 bound_to 10713
  141.0467  134.0544  157.3835 LP  0  0  0  0  0  0  0  0  0  0  0  0  # atno 17394 bound_to 11000
  139.9014  135.0165  156.7284 LP  0  0  0  0  0  0  0  0  0  0  0  0  # atno 17395 bound_to 11000

$$$$
