AV-unprocessed.smi:196|AV-procd|sdf|1543|dock9
  -GOLD-   2262019403D 1   1.00000     0.00000
 Structure written by MMmdl.
 47 50  0  0  0  0  0  0  0  0  1 V2000
  149.4842  141.5710  157.0694 C   0  0  0  0  0  0  0  0  0  0  0  0
  150.2061  141.0609  155.8124 C   0  0  1  0  0  0  0  0  0  0  0  0
  151.1788  140.1081  156.2352 O   0  0  0  0  0  0  0  0  0  0  0  0
  151.3403  139.1336  155.2201 C   0  0  0  0  0  0  0  0  0  0  0  0
  149.9125  138.9201  154.7419 C   0  0  0  0  0  0  0  0  0  0  0  0
  149.3335  140.3320  154.7511 C   0  0  2  0  0  0  0  0  0  0  0  0
  149.6087  140.9176  153.4893 O   0  0  0  0  0  0  0  0  0  0  0  0
  147.7983  140.3771  154.9689 C   0  0  0  0  0  0  0  0  0  0  0  0
  147.0712  139.4140  154.1556 N   0  0  0  0  0  0  0  0  0  0  0  0
  146.9942  139.3855  152.7805 C   0  0  0  0  0  0  0  0  0  0  0  0
  146.2812  138.4126  152.2816 N   0  0  0  0  0  0  0  0  0  0  0  0
  145.8212  137.7285  153.3988 C   0  0  0  0  0  0  0  0  0  0  0  0
  144.9975  136.5891  153.5863 C   0  0  0  0  0  0  0  0  0  0  0  0
  144.4775  135.9070  152.5420 N   0  0  0  0  0  0  0  0  0  0  0  0
  145.4320  135.5284  151.5049 C   0  0  0  0  0  0  0  0  0  0  0  0
  145.0818  134.0928  151.1036 C   0  0  1  0  0  0  0  0  0  0  0  0
  145.8601  133.2434  151.7762 F   0  0  0  0  0  0  0  0  0  0  0  0
  143.6374  133.9356  151.5689 C   0  0  0  0  0  0  0  0  0  0  0  0
  143.5940  134.7804  152.8482 C   0  0  2  0  0  0  0  0  0  0  0  0
  142.1684  135.2378  153.1897 C   0  0  0  0  0  0  0  0  0  0  0  0
  141.3085  134.2898  153.5690 N   0  0  0  0  0  0  0  0  0  0  0  0
  141.8412  136.4206  153.1030 O   0  0  0  0  0  0  0  0  0  0  0  0
  144.7461  136.1847  154.8590 N   0  0  0  0  0  0  0  0  0  0  0  0
  145.2651  136.8629  155.8872 C   0  0  0  0  0  0  0  0  0  0  0  0
  146.0464  137.9454  155.8643 N   0  0  0  0  0  0  0  0  0  0  0  0
  146.3030  138.3461  154.5856 C   0  0  0  0  0  0  0  0  0  0  0  0
  145.2201  133.8943  150.0405 H   0  0  0  0  0  0  0  0  0  0  0  0
  143.9990  134.1942  153.6755 H   0  0  0  0  0  0  0  0  0  0  0  0
  148.7271  142.3147  156.8201 H   0  0  0  0  0  0  0  0  0  0  0  0
  150.1912  142.0418  157.7528 H   0  0  0  0  0  0  0  0  0  0  0  0
  149.0008  140.7577  157.6114 H   0  0  0  0  0  0  0  0  0  0  0  0
  150.7386  141.8985  155.3576 H   0  0  0  0  0  0  0  0  0  0  0  0
  151.9690  139.5306  154.4217 H   0  0  0  0  0  0  0  0  0  0  0  0
  151.7991  138.2224  155.6042 H   0  0  0  0  0  0  0  0  0  0  0  0
  149.8521  138.4225  153.7728 H   0  0  0  0  0  0  0  0  0  0  0  0
  149.3925  138.2959  155.4691 H   0  0  0  0  0  0  0  0  0  0  0  0
  149.4361  140.2748  152.8185 H   0  0  0  0  0  0  0  0  0  0  0  0
  147.5530  140.1785  156.0123 H   0  0  0  0  0  0  0  0  0  0  0  0
  147.4104  141.3717  154.7449 H   0  0  0  0  0  0  0  0  0  0  0  0
  147.4930  140.1108  152.1539 H   0  0  0  0  0  0  0  0  0  0  0  0
  145.2840  136.2007  150.6592 H   0  0  0  0  0  0  0  0  0  0  0  0
  146.4750  135.6192  151.8152 H   0  0  0  0  0  0  0  0  0  0  0  0
  142.9641  134.3407  150.8111 H   0  0  0  0  0  0  0  0  0  0  0  0
  143.3620  132.8942  151.7394 H   0  0  0  0  0  0  0  0  0  0  0  0
  140.3577  134.5356  153.8032 H   0  0  0  0  0  0  0  0  0  0  0  0
  141.6134  133.3286  153.6182 H   0  0  0  0  0  0  0  0  0  0  0  0
  145.0199  136.4841  156.8683 H   0  0  0  0  0  0  0  0  0  0  0  0
  1  2  1  0  0  0  0
  1 29  1  0  0  0  0
  1 30  1  0  0  0  0
  1 31  1  0  0  0  0
  2  6  1  0  0  0  0
  2  3  1  0  0  0  0
  2 32  1  0  0  0  0
  3  4  1  0  0  0  0
  4  5  1  0  0  0  0
  4 33  1  0  0  0  0
  4 34  1  0  0  0  0
  5  6  1  0  0  0  0
  5 35  1  0  0  0  0
  5 36  1  0  0  0  0
  6  7  1  0  0  0  0
  6  8  1  0  0  0  0
  7 37  1  0  0  0  0
  8  9  1  0  0  0  0
  8 38  1  0  0  0  0
  8 39  1  0  0  0  0
  9 26  1  0  0  0  0
  9 10  1  0  0  0  0
 10 11  2  0  0  0  0
 10 40  1  0  0  0  0
 11 12  1  0  0  0  0
 12 26  2  0  0  0  0
 12 13  1  0  0  0  0
 13 14  1  0  0  0  0
 13 23  2  0  0  0  0
 14 19  1  0  0  0  0
 14 15  1  0  0  0  0
 15 16  1  0  0  0  0
 15 41  1  0  0  0  0
 15 42  1  0  0  0  0
 16 27  1  0  0  0  0
 16 17  1  0  0  0  0
 16 18  1  0  0  0  0
 18 19  1  0  0  0  0
 18 43  1  0  0  0  0
 18 44  1  0  0  0  0
 19 28  1  0  0  0  0
 19 20  1  0  0  0  0
 20 21  1  0  0  0  0
 20 22  2  0  0  0  0
 21 45  1  0  0  0  0
 21 46  1  0  0  0  0
 23 24  1  0  0  0  0
 24 25  2  0  0  0  0
 24 47  1  0  0  0  0
 25 26  1  0  0  0  0
M  END
> <s_m_source_file>
AV-unprocessed.smi

> <i_m_source_file_index>
196

> <i_lp_mmshare_version>
43012

> <i_f3d_flags>
0

> <s_epik_input>
W0NIMl0xW0NIMl1PW0NAQEhdKFtDSDNdKVtDQEBdMShbT0hdKVtDSDJdbihbY0hdbjIpYyhjMjMpbltjSF1uYzNONFtDSDJdW0NASF0oRilbQ0gyXVtDQEhdNEMoPU8pW05IMl0=

> <s_epik_cmdline>
J2VwaWtfcHl0aG9uJywgJy1waCcsICc3LjAnLCAnLXRuJywgJzgnLCAnLW1hJywgJzIwMCcsICctbWV0YWxfYmluZGluZycsICctaW1hZScsICc8aW5maWxlLm1hZT4nLCAnLW9tYWUnLCAnPG91dGZpbGUubWFlPic=

> <r_lp_tautomer_probability>
1

> <r_epik_Ionization_Penalty>
0.000857933

> <r_epik_Ionization_Penalty_Charging>
0

> <r_epik_Ionization_Penalty_Neutral>
0.000857933

> <r_epik_State_Penalty>
0.000462053

> <r_epik_Charging_Adjusted_Penalty>
0.000462053

> <i_epik_Tot_Q>
0

> <i_epik_Tot_abs_Q>
0

> <r_epik_Metal_State_Penalty>
-0

> <b_epik_Metal_Only>
0

> <s_lp_Force_Field>
OPLS_2005

> <r_lp_Energy>
44.4191

> <b_lp_Chiralities_Consistent>
1

> <s_lp_Variant>
AV-unprocessed.smi:196-16

> <Gold.Version>
5.8.1

> <Gold.Id.Protein>
6NUR|6NUR_protein|mol2

> <Gold.PLP.Fitness>
49.0312

> <Gold.PLP.PLP>
-38.1781

> <Gold.PLP.part.hbond>
-3.8368

> <Gold.PLP.part.metal>
0.0000

> <Gold.PLP.part.buried>
-7.0075

> <Gold.PLP.part.nonpolar>
-28.4077

> <Gold.PLP.part.repulsive>
0.7222

> <Gold.PLP.ligand.clash>
0.0000

> <Gold.PLP.ligand.torsion>
0.3472

> <Gold.PLP.Chemscore.Hbond>
2.8887

> <Gold.PLP.Chemscore.CHOScore>
0.8979

> <Gold.PLP.Chemscore.Metal>
0.0000

> <Gold.Chemscore.Hbonds>
donor molecule, donor type, donor heavy atom, donor atom, acceptor molecule, acceptor atom, score
      L1  H     7    37       P1  7957  0.82
      L1  H    21    46       P1 10957  0.59
      P1  H  7989  7998       L1     7  0.27
      P1  H  8011  8017       L1     7  0.85
      L1  C    10    40       P1  7957  1.00

> <Gold.PLP.Chemscore.Internal.Correction>
0.1881

> <Gold.Rescore>
     Score         DG    S(hbond)    S(metal)    S(lipo)     H(rot)  DE(clash)    DE(int)     intcor
     11.51     -12.35       2.16        0.00      63.56       3.04       0.23       0.61       ----

> <Gold.Chemscore.Fitness>
11.5150

> <Gold.Chemscore.DG>
-12.3540

> <Gold.Chemscore.ZeroCoef>
-5.4800

> <Gold.Chemscore.Hbond>
2.1626

> <Gold.Chemscore.Metal>
0.0000

> <Gold.Chemscore.Lipo>
63.5618

> <Gold.Chemscore.Internal_Hbond>
0.0000

> <Gold.Chemscore.DEClash>
0.2332

> <Gold.Chemscore.DEInternal>
0.6059

> <Gold.Chemscore.Rot>
3.0413

> <Gold.Chemscore.Internal.Correction>
   9.000000E+99

> <Gold.Chemscore.Hbonds>
donor molecule, donor type, donor heavy atom, donor atom, acceptor molecule, acceptor atom, score
      L1  H     7    37       P1  7957  0.80
      L1  H    21    46       P1 10957  0.53
      P1  H  7989  7998       L1     7  0.02
      P1  H  8011  8017       L1     7  0.14

> <Gold.Chemscore.Hbond.Weighted>
-7.2229

> <Gold.Chemscore.Metal.Weighted>
-0.0000

> <Gold.Chemscore.Lipo.Weighted>
-7.4367

> <Gold.Chemscore.Internal_Hbond.Weighted>
0.0000

> <Gold.Chemscore.DEClash.Weighted>
0.2332

> <Gold.Chemscore.DEInternal.Weighted>
0.6059

> <Gold.Chemscore.Rot.Weighted>
7.7856

> <Gold.Chemscore.Internal.Correction.Weighted>
   9.000000E+99

> <Gold.Protein.RotatedTorsions>
[ 6907 6896 6895 6894 ] final    1.29 input  -60.11 | X-H torsion
[ 7974 7965 7964 7962 ] final -102.28 input  175.53 | X-H torsion
[ 8008 7997 7996 7995 ] final -141.23 input   59.86 | X-H torsion
[ 10167 10162 10161 10158 ] final -165.63 input  -65.29 | X-H torsion
[ 10718 10713 10712 10709 ] final -127.02 input   66.30 | X-H torsion
[ 10763 10752 10751 10750 ] final   -2.23 input  -60.55 | X-H torsion
[ 11005 11000 10999 10996 ] final  -69.25 input  -57.11 | X-H torsion

> <Gold.Protein.ActiveResidues>
 VAL166  LYS551  ARG553  GLY616  TRP617  ASP618  TYR619  PRO620  LYS621  CYS622 
 ASP623  PHE694  ASN695  SER759  ASP760  ASP761  ALA762  ILE779  LEU786  VAL792 
 PHE793  MET794  SER795  GLU796  ALA797  LYS798  CYS799  TRP800  GLU811  SER814 

> <Gold.Protein.RotatedAtoms>
  151.5902  135.1054  160.0036 H   0  0  0  0  0  0  0  0  0  0  0  0  # atno 6907 bound_to 6896
  152.4310  133.7274  159.6578 H   0  0  0  0  0  0  0  0  0  0  0  0  # atno 6908 bound_to 6896
  150.8203  133.8194  159.3165 H   0  0  0  0  0  0  0  0  0  0  0  0  # atno 6909 bound_to 6896
  145.2707  140.9298  143.2988 H   0  0  0  0  0  0  0  0  0  0  0  0  # atno 7974 bound_to 7965
  155.4743  140.0555  157.2975 H   0  0  0  0  0  0  0  0  0  0  0  0  # atno 8008 bound_to 7997
  154.4685  140.2030  156.0008 H   0  0  0  0  0  0  0  0  0  0  0  0  # atno 8009 bound_to 7997
  156.1016  140.3218  155.7955 H   0  0  0  0  0  0  0  0  0  0  0  0  # atno 8010 bound_to 7997
  139.6169  144.0701  152.1896 H   0  0  0  0  0  0  0  0  0  0  0  0  # atno 10167 bound_to 10162
  156.1818  130.6737  151.0314 H   0  0  0  0  0  0  0  0  0  0  0  0  # atno 10718 bound_to 10713
  153.3553  135.6987  153.6755 H   0  0  0  0  0  0  0  0  0  0  0  0  # atno 10763 bound_to 10752
  153.5466  135.3562  155.2742 H   0  0  0  0  0  0  0  0  0  0  0  0  # atno 10764 bound_to 10752
  154.8660  135.4216  154.2798 H   0  0  0  0  0  0  0  0  0  0  0  0  # atno 10765 bound_to 10752
  141.1550  133.6760  156.6571 H   0  0  0  0  0  0  0  0  0  0  0  0  # atno 11005 bound_to 11000
  144.9337  139.4268  143.6482 LP  0  0  0  0  0  0  0  0  0  0  0  0  # atno 17320 bound_to 7965
  146.3247  139.8262  142.8917 LP  0  0  0  0  0  0  0  0  0  0  0  0  # atno 17321 bound_to 7965
  140.0334  144.6063  150.7469 LP  0  0  0  0  0  0  0  0  0  0  0  0  # atno 17342 bound_to 10162
  140.7357  143.2744  151.3788 LP  0  0  0  0  0  0  0  0  0  0  0  0  # atno 17343 bound_to 10162
  157.6873  131.0821  150.7206 LP  0  0  0  0  0  0  0  0  0  0  0  0  # atno 17370 bound_to 10713
  156.7263  130.4696  149.5510 LP  0  0  0  0  0  0  0  0  0  0  0  0  # atno 17371 bound_to 10713
  140.3276  134.7956  157.4301 LP  0  0  0  0  0  0  0  0  0  0  0  0  # atno 17394 bound_to 11000
  140.1044  134.5429  155.8323 LP  0  0  0  0  0  0  0  0  0  0  0  0  # atno 17395 bound_to 11000

$$$$
