AV-unprocessed.smi:2591|AV-procd|sdf|10154|dock8
  -GOLD-   2272014163D 1   1.00000     0.00000
 Structure written by MMmdl.
 35 36  0  0  0  0  0  0  0  0  2 V2000
  149.1599  139.5286  155.2900 C   0  0  0  0  0  0  0  0  0  0  0  0
  150.5377  139.0962  155.6055 N   0  3  2  0  0  0  0  0  0  0  0  0
  151.3243  138.7621  154.3969 C   0  0  0  0  0  0  0  0  0  0  0  0
  152.7660  138.3942  154.7831 C   0  0  0  0  0  0  0  0  0  0  0  0
  152.7545  137.3217  155.7257 O   0  0  0  0  0  0  0  0  0  0  0  0
  152.0356  137.5939  156.9330 C   0  0  1  0  0  0  0  0  0  0  0  0
  152.7914  138.6221  157.7969 C   0  0  0  0  0  0  0  0  0  0  0  0
  153.9992  138.4924  158.0013 O   0  0  0  0  0  0  0  0  0  0  0  0
  152.0388  139.6273  158.2832 N   0  0  0  0  0  0  0  0  0  0  0  0
  152.4418  140.7078  159.1118 C   0  0  0  0  0  0  0  0  0  0  0  0
  151.8343  141.9481  158.8154 C   0  0  0  0  0  0  0  0  0  0  0  0
  152.1600  143.0881  159.5811 C   0  0  0  0  0  0  0  0  0  0  0  0
  151.5203  144.4322  159.2694 C   0  0  0  0  0  0  0  0  0  0  0  0
  151.9271  145.3754  160.1195 F   0  0  0  0  0  0  0  0  0  0  0  0
  151.8505  144.7994  158.0317 F   0  0  0  0  0  0  0  0  0  0  0  0
  150.1929  144.3383  159.3504 F   0  0  0  0  0  0  0  0  0  0  0  0
  153.0990  142.9463  160.6235 C   0  0  0  0  0  0  0  0  0  0  0  0
  153.6572  141.6754  160.8515 C   0  0  0  0  0  0  0  0  0  0  0  0
  153.3387  140.5865  160.1211 N   0  0  0  0  0  0  0  0  0  0  0  0
  150.5786  137.9838  156.5844 C   0  0  0  0  0  0  0  0  0  0  0  0
  148.5968  138.7269  154.8104 H   0  0  0  0  0  0  0  0  0  0  0  0
  149.1716  140.3883  154.6192 H   0  0  0  0  0  0  0  0  0  0  0  0
  148.6325  139.8222  156.1983 H   0  0  0  0  0  0  0  0  0  0  0  0
  150.8540  137.9292  153.8716 H   0  0  0  0  0  0  0  0  0  0  0  0
  151.3302  139.6113  153.7126 H   0  0  0  0  0  0  0  0  0  0  0  0
  153.3179  138.0742  153.8993 H   0  0  0  0  0  0  0  0  0  0  0  0
  153.2949  139.2613  155.1806 H   0  0  0  0  0  0  0  0  0  0  0  0
  152.0089  136.6670  157.5074 H   0  0  0  0  0  0  0  0  0  0  0  0
  151.0604  139.6137  158.0337 H   0  0  0  0  0  0  0  0  0  0  0  0
  151.1238  142.0304  158.0056 H   0  0  0  0  0  0  0  0  0  0  0  0
  153.3911  143.7864  161.2363 H   0  0  0  0  0  0  0  0  0  0  0  0
  154.3797  141.5287  161.6406 H   0  0  0  0  0  0  0  0  0  0  0  0
  150.0322  138.2638  157.4864 H   0  0  0  0  0  0  0  0  0  0  0  0
  150.0608  137.1192  156.1660 H   0  0  0  0  0  0  0  0  0  0  0  0
  150.9946  139.8838  156.0440 H   0  0  0  0  0  0  0  0  0  0  0  0
  1  2  1  0  0  0  0
  1 21  1  0  0  0  0
  1 22  1  0  0  0  0
  1 23  1  0  0  0  0
  2 20  1  0  0  0  0
  2  3  1  0  0  0  0
  2 35  1  0  0  0  0
  3  4  1  0  0  0  0
  3 24  1  0  0  0  0
  3 25  1  0  0  0  0
  4  5  1  0  0  0  0
  4 26  1  0  0  0  0
  4 27  1  0  0  0  0
  5  6  1  0  0  0  0
  6  7  1  0  0  0  0
  6 20  1  0  0  0  0
  6 28  1  0  0  0  0
  7  8  2  0  0  0  0
  7  9  1  0  0  0  0
  9 10  1  0  0  0  0
  9 29  1  0  0  0  0
 10 19  1  0  0  0  0
 10 11  2  0  0  0  0
 11 12  1  0  0  0  0
 11 30  1  0  0  0  0
 12 13  1  0  0  0  0
 12 17  2  0  0  0  0
 13 14  1  0  0  0  0
 13 15  1  0  0  0  0
 13 16  1  0  0  0  0
 17 18  1  0  0  0  0
 17 31  1  0  0  0  0
 18 19  2  0  0  0  0
 18 32  1  0  0  0  0
 20 33  1  0  0  0  0
 20 34  1  0  0  0  0
M  CHG  1   2   1
M  END
> <s_m_source_file>
AV-unprocessed.smi

> <i_m_source_file_index>
2591

> <i_lp_mmshare_version>
43012

> <i_f3d_flags>
0

> <s_epik_input>
W0NIM11OMVtDSDJdW0NIMl1PW0NASF0oW0NIMl0xKUMoPU8pW05IXWMyW2NIXWMoQyhGKShGKUYpW2NIXVtjSF1uMg==

> <s_epik_cmdline>
J2VwaWtfcHl0aG9uJywgJy1waCcsICc3LjAnLCAnLXRuJywgJzgnLCAnLW1hJywgJzIwMCcsICctbWV0YWxfYmluZGluZycsICctaW1hZScsICc8aW5maWxlLm1hZT4nLCAnLW9tYWUnLCAnPG91dGZpbGUubWFlPic=

> <r_epik_Ionization_Penalty>
0.314028

> <r_epik_Ionization_Penalty_Charging>
0.314023

> <r_epik_Ionization_Penalty_Neutral>
5.2303e-06

> <r_epik_State_Penalty>
0.308208

> <r_epik_Charging_Adjusted_Penalty>
0.62223

> <i_epik_Tot_Q>
1

> <i_epik_Tot_abs_Q>
1

> <r_epik_Metal_State_Penalty>
0.308209

> <b_epik_Metal_Only>
0

> <s_lp_Force_Field>
OPLS_2005

> <r_lp_Energy>
16.4571

> <b_lp_Chiralities_Consistent>
1

> <s_lp_Variant>
AV-unprocessed.smi:2591-2

> <Gold.Version>
5.8.1

> <Gold.Id.Protein>
6NUR|6NUR_protein|mol2

> <Gold.PLP.Fitness>
45.8278

> <Gold.PLP.PLP>
-42.0522

> <Gold.PLP.part.hbond>
-2.0000

> <Gold.PLP.part.metal>
0.0000

> <Gold.PLP.part.buried>
-6.8687

> <Gold.PLP.part.nonpolar>
-32.9285

> <Gold.PLP.part.repulsive>
0.1538

> <Gold.PLP.ligand.clash>
0.2283

> <Gold.PLP.ligand.torsion>
0.5186

> <Gold.PLP.Chemscore.Hbond>
1.5920

> <Gold.PLP.Chemscore.CHOScore>
0.0000

> <Gold.PLP.Chemscore.Metal>
0.0000

> <Gold.Chemscore.Hbonds>
donor molecule, donor type, donor heavy atom, donor atom, acceptor molecule, acceptor atom, score
      P1  H  7997  8010       L1     8  1.00
      P1  H 10752 10764       L1     5  0.59

> <Gold.PLP.Chemscore.Internal.Correction>
0.2650

> <Gold.Rescore>
     Score         DG    S(hbond)    S(metal)    S(lipo)     H(rot)  DE(clash)    DE(int)     intcor
     15.87     -17.26       1.44        0.00      81.52       1.00       0.00       1.39       ----

> <Gold.Chemscore.Fitness>
15.8671

> <Gold.Chemscore.DG>
-17.2563

> <Gold.Chemscore.ZeroCoef>
-5.4800

> <Gold.Chemscore.Hbond>
1.4366

> <Gold.Chemscore.Metal>
0.0000

> <Gold.Chemscore.Lipo>
81.5219

> <Gold.Chemscore.Internal_Hbond>
0.0000

> <Gold.Chemscore.DEClash>
0.0014

> <Gold.Chemscore.DEInternal>
1.3878

> <Gold.Chemscore.Rot>
1.0000

> <Gold.Chemscore.Internal.Correction>
   9.000000E+99

> <Gold.Chemscore.Hbonds>
donor molecule, donor type, donor heavy atom, donor atom, acceptor molecule, acceptor atom, score
      P1  H  7997  8010       L1     8  0.63
      P1  H 10752 10764       L1     5  0.54

> <Gold.Chemscore.Hbond.Weighted>
-4.7982

> <Gold.Chemscore.Metal.Weighted>
-0.0000

> <Gold.Chemscore.Lipo.Weighted>
-9.5381

> <Gold.Chemscore.Internal_Hbond.Weighted>
0.0000

> <Gold.Chemscore.DEClash.Weighted>
0.0014

> <Gold.Chemscore.DEInternal.Weighted>
1.3878

> <Gold.Chemscore.Rot.Weighted>
2.5600

> <Gold.Chemscore.Internal.Correction.Weighted>
   9.000000E+99

> <Gold.Protein.RotatedTorsions>
[ 6907 6896 6895 6894 ] final   49.92 input  -60.11 | X-H torsion
[ 7974 7965 7964 7962 ] final -123.67 input  175.53 | X-H torsion
[ 8008 7997 7996 7995 ] final   13.15 input   59.86 | X-H torsion
[ 10167 10162 10161 10158 ] final  -66.35 input  -65.29 | X-H torsion
[ 10718 10713 10712 10709 ] final   92.98 input   66.30 | X-H torsion
[ 10763 10752 10751 10750 ] final  -32.59 input  -60.55 | X-H torsion
[ 11005 11000 10999 10996 ] final  137.90 input  -57.11 | X-H torsion

> <Gold.Protein.ActiveResidues>
 VAL166  LYS551  ARG553  GLY616  TRP617  ASP618  TYR619  PRO620  LYS621  CYS622 
 ASP623  PHE694  ASN695  SER759  ASP760  ASP761  ALA762  ILE779  LEU786  VAL792 
 PHE793  MET794  SER795  GLU796  ALA797  LYS798  CYS799  TRP800  GLU811  SER814 

> <Gold.Protein.RotatedAtoms>
  152.2961  134.7666  160.0367 H   0  0  0  0  0  0  0  0  0  0  0  0  # atno 6907 bound_to 6896
  151.8195  133.3387  159.3588 H   0  0  0  0  0  0  0  0  0  0  0  0  # atno 6908 bound_to 6896
  150.7252  134.5516  159.5842 H   0  0  0  0  0  0  0  0  0  0  0  0  # atno 6909 bound_to 6896
  145.0162  140.7949  143.4408 H   0  0  0  0  0  0  0  0  0  0  0  0  # atno 7974 bound_to 7965
  154.8304  140.2898  155.5726 H   0  0  0  0  0  0  0  0  0  0  0  0  # atno 8008 bound_to 7997
  156.3005  140.2533  156.3159 H   0  0  0  0  0  0  0  0  0  0  0  0  # atno 8009 bound_to 7997
  154.9237  140.0385  157.2001 H   0  0  0  0  0  0  0  0  0  0  0  0  # atno 8010 bound_to 7997
  140.5663  143.2315  151.6627 H   0  0  0  0  0  0  0  0  0  0  0  0  # atno 10167 bound_to 10162
  157.6956  131.0462  150.3965 H   0  0  0  0  0  0  0  0  0  0  0  0  # atno 10718 bound_to 10713
  153.8163  135.6878  153.4833 H   0  0  0  0  0  0  0  0  0  0  0  0  # atno 10763 bound_to 10752
  153.1597  135.4585  154.9752 H   0  0  0  0  0  0  0  0  0  0  0  0  # atno 10764 bound_to 10752
  154.7946  135.3314  154.7639 H   0  0  0  0  0  0  0  0  0  0  0  0  # atno 10765 bound_to 10752
  140.0146  134.9424  157.0349 H   0  0  0  0  0  0  0  0  0  0  0  0  # atno 11005 bound_to 11000
  145.1957  139.2278  143.5219 LP  0  0  0  0  0  0  0  0  0  0  0  0  # atno 17320 bound_to 7965
  146.3478  140.1763  142.8589 LP  0  0  0  0  0  0  0  0  0  0  0  0  # atno 17321 bound_to 7965
  139.5095  144.3576  152.0593 LP  0  0  0  0  0  0  0  0  0  0  0  0  # atno 17342 bound_to 10162
  140.2708  144.3966  150.6152 LP  0  0  0  0  0  0  0  0  0  0  0  0  # atno 17343 bound_to 10162
  156.4363  130.3982  149.6727 LP  0  0  0  0  0  0  0  0  0  0  0  0  # atno 17370 bound_to 10713
  156.3926  130.7635  151.2637 LP  0  0  0  0  0  0  0  0  0  0  0  0  # atno 17371 bound_to 10713
  140.4493  134.1599  155.7180 LP  0  0  0  0  0  0  0  0  0  0  0  0  # atno 17394 bound_to 11000
  141.1734  133.8563  157.1498 LP  0  0  0  0  0  0  0  0  0  0  0  0  # atno 17395 bound_to 11000

$$$$
