AV-unprocessed.smi:3347|AV-procd|sdf|12914|dock10
  -GOLD-   2272019333D 1   1.00000     0.00000
 Structure written by MMmdl.
 40 42  0  0  0  0  0  0  0  0  2 V2000
  149.9033  135.1058  156.1638 O   0  0  0  0  0  0  0  0  0  0  0  0
  149.6725  135.3880  154.9883 C   0  0  0  0  0  0  0  0  0  0  0  0
  148.9941  134.5845  154.1567 N   0  0  0  0  0  0  0  0  0  0  0  0
  148.4627  133.2677  154.4961 C   0  0  0  0  0  0  0  0  0  0  0  0
  148.0513  132.4653  153.2463 C   0  0  1  0  0  0  0  0  0  0  0  0
  146.8670  131.5295  153.4794 C   0  0  0  0  0  0  0  0  0  0  0  0
  146.3068  131.2710  152.0757 C   0  0  0  0  0  0  0  0  0  0  0  0
  146.7955  132.3707  151.2115 N   0  3  1  0  0  0  0  0  0  0  0  0
  145.7417  133.0213  150.4039 C   0  0  0  0  0  0  0  0  0  0  0  0
  144.4302  133.1770  151.1358 C   0  0  0  0  0  0  0  0  0  0  0  0
  144.5843  132.1098  150.0736 C   0  0  0  0  0  0  0  0  0  0  0  0
  147.5575  133.3046  152.0650 C   0  0  0  0  0  0  0  0  0  0  0  0
  150.0332  136.5278  154.3744 N   0  0  0  0  0  0  0  0  0  0  0  0
  150.7529  137.6341  154.9024 C   0  0  0  0  0  0  0  0  0  0  0  0
  151.6953  137.5490  155.9564 C   0  0  0  0  0  0  0  0  0  0  0  0
  152.3522  138.7215  156.3767 C   0  0  0  0  0  0  0  0  0  0  0  0
  152.0505  139.9329  155.7252 C   0  0  0  0  0  0  0  0  0  0  0  0
  151.1646  140.0268  154.7116 N   0  0  0  0  0  0  0  0  0  0  0  0
  150.5391  138.8988  154.3136 C   0  0  0  0  0  0  0  0  0  0  0  0
  148.8479  134.9007  153.2089 H   0  0  0  0  0  0  0  0  0  0  0  0
  149.2447  132.7286  155.0314 H   0  0  0  0  0  0  0  0  0  0  0  0
  147.6263  133.3574  155.1916 H   0  0  0  0  0  0  0  0  0  0  0  0
  148.8988  131.8634  152.9134 H   0  0  0  0  0  0  0  0  0  0  0  0
  147.1500  130.6106  153.9941 H   0  0  0  0  0  0  0  0  0  0  0  0
  146.1098  132.0296  154.0854 H   0  0  0  0  0  0  0  0  0  0  0  0
  146.6842  130.3291  151.6769 H   0  0  0  0  0  0  0  0  0  0  0  0
  145.2176  131.2083  152.0939 H   0  0  0  0  0  0  0  0  0  0  0  0
  146.0714  133.7768  149.6925 H   0  0  0  0  0  0  0  0  0  0  0  0
  144.3770  132.8507  152.1728 H   0  0  0  0  0  0  0  0  0  0  0  0
  143.8168  134.0409  150.8884 H   0  0  0  0  0  0  0  0  0  0  0  0
  144.0719  132.2716  149.1274 H   0  0  0  0  0  0  0  0  0  0  0  0
  144.6333  131.0738  150.4044 H   0  0  0  0  0  0  0  0  0  0  0  0
  146.8954  134.0951  152.4233 H   0  0  0  0  0  0  0  0  0  0  0  0
  148.3714  133.7724  151.5102 H   0  0  0  0  0  0  0  0  0  0  0  0
  149.7090  136.6406  153.4250 H   0  0  0  0  0  0  0  0  0  0  0  0
  151.9383  136.6162  156.4403 H   0  0  0  0  0  0  0  0  0  0  0  0
  153.0758  138.6916  157.1777 H   0  0  0  0  0  0  0  0  0  0  0  0
  152.5377  140.8496  156.0230 H   0  0  0  0  0  0  0  0  0  0  0  0
  149.8385  139.0118  153.4989 H   0  0  0  0  0  0  0  0  0  0  0  0
  147.4587  131.9572  150.5717 H   0  0  0  0  0  0  0  0  0  0  0  0
  1  2  2  0  0  0  0
  2  3  1  0  0  0  0
  2 13  1  0  0  0  0
  3  4  1  0  0  0  0
  3 20  1  0  0  0  0
  4  5  1  0  0  0  0
  4 21  1  0  0  0  0
  4 22  1  0  0  0  0
  5 12  1  0  0  0  0
  5  6  1  0  0  0  0
  5 23  1  0  0  0  0
  6  7  1  0  0  0  0
  6 24  1  0  0  0  0
  6 25  1  0  0  0  0
  7  8  1  0  0  0  0
  7 26  1  0  0  0  0
  7 27  1  0  0  0  0
  8  9  1  0  0  0  0
  8 12  1  0  0  0  0
  8 40  1  0  0  0  0
  9 11  1  0  0  0  0
  9 10  1  0  0  0  0
  9 28  1  0  0  0  0
 10 11  1  0  0  0  0
 10 29  1  0  0  0  0
 10 30  1  0  0  0  0
 11 31  1  0  0  0  0
 11 32  1  0  0  0  0
 12 33  1  0  0  0  0
 12 34  1  0  0  0  0
 13 14  1  0  0  0  0
 13 35  1  0  0  0  0
 14 19  1  0  0  0  0
 14 15  2  0  0  0  0
 15 16  1  0  0  0  0
 15 36  1  0  0  0  0
 16 17  2  0  0  0  0
 16 37  1  0  0  0  0
 17 18  1  0  0  0  0
 17 38  1  0  0  0  0
 18 19  2  0  0  0  0
 19 39  1  0  0  0  0
M  CHG  1   8   1
M  END
> <s_m_source_file>
AV-unprocessed.smi

> <i_m_source_file_index>
3347

> <i_lp_mmshare_version>
43012

> <i_f3d_flags>
0

> <s_epik_input>
W2NIXTFuW2NIXVtjSF1bY0hdYzFbTkhdQyg9TylbTkhdW0NIMl1bQ0BASF0yW0NIMl1bQ0gyXU4oW0NIMl0yKVtDSF0zW0NIMl1bQ0gyXTM=

> <s_epik_cmdline>
J2VwaWtfcHl0aG9uJywgJy1waCcsICc3LjAnLCAnLXRuJywgJzgnLCAnLW1hJywgJzIwMCcsICctbWV0YWxfYmluZGluZycsICctaW1hZScsICc8aW5maWxlLm1hZT4nLCAnLW9tYWUnLCAnPG91dGZpbGUubWFlPic=

> <r_epik_Ionization_Penalty>
0.00442629

> <r_epik_Ionization_Penalty_Charging>
0.000203384

> <r_epik_Ionization_Penalty_Neutral>
0.00422291

> <r_epik_State_Penalty>
0.00301008

> <r_epik_Charging_Adjusted_Penalty>
0.00321347

> <i_epik_Tot_Q>
1

> <i_epik_Tot_abs_Q>
1

> <r_epik_Metal_State_Penalty>
-0

> <b_epik_Metal_Only>
0

> <s_lp_Force_Field>
OPLS_2005

> <r_lp_Energy>
39.1383

> <b_lp_Chiralities_Consistent>
1

> <s_lp_Variant>
AV-unprocessed.smi:3347-4

> <Gold.Version>
5.8.1

> <Gold.Id.Protein>
6NUR|6NUR_protein|mol2

> <Gold.PLP.Fitness>
50.2904

> <Gold.PLP.PLP>
-36.7790

> <Gold.PLP.part.hbond>
-4.8162

> <Gold.PLP.part.metal>
0.0000

> <Gold.PLP.part.buried>
-3.8389

> <Gold.PLP.part.nonpolar>
-28.3221

> <Gold.PLP.part.repulsive>
0.2021

> <Gold.PLP.ligand.clash>
0.0000

> <Gold.PLP.ligand.torsion>
1.2564

> <Gold.PLP.Chemscore.Hbond>
3.9833

> <Gold.PLP.Chemscore.CHOScore>
0.9366

> <Gold.PLP.Chemscore.Metal>
0.0000

> <Gold.Chemscore.Hbonds>
donor molecule, donor type, donor heavy atom, donor atom, acceptor molecule, acceptor atom, score
      L1  H     3    20       P1  7948  1.00
      L1  H     8    40       P1 10747  1.00
      L1  H    13    35       P1  7948  1.00
      P1  H  7989  7998       L1    18  1.00
      L1  C    19    39       P1  7957  0.93

> <Gold.PLP.Chemscore.Internal.Correction>
1.2646

> <Gold.Rescore>
     Score         DG    S(hbond)    S(metal)    S(lipo)     H(rot)  DE(clash)    DE(int)     intcor
     19.84     -22.12       3.01        0.00      87.28       1.42       0.00       2.28       ----

> <Gold.Chemscore.Fitness>
19.8420

> <Gold.Chemscore.DG>
-22.1184

> <Gold.Chemscore.ZeroCoef>
-5.4800

> <Gold.Chemscore.Hbond>
3.0140

> <Gold.Chemscore.Metal>
0.0000

> <Gold.Chemscore.Lipo>
87.2785

> <Gold.Chemscore.Internal_Hbond>
0.0000

> <Gold.Chemscore.DEClash>
0.0000

> <Gold.Chemscore.DEInternal>
2.2764

> <Gold.Chemscore.Rot>
1.4219

> <Gold.Chemscore.Internal.Correction>
   9.000000E+99

> <Gold.Chemscore.Hbonds>
donor molecule, donor type, donor heavy atom, donor atom, acceptor molecule, acceptor atom, score
      L1  H     3    20       P1  7948  0.29
      L1  H     8    40       P1 10747  0.94
      L1  H    13    35       P1  7948  0.45
      P1  H  7989  7998       L1    18  0.68

> <Gold.Chemscore.Hbond.Weighted>
-10.0669

> <Gold.Chemscore.Metal.Weighted>
-0.0000

> <Gold.Chemscore.Lipo.Weighted>
-10.2116

> <Gold.Chemscore.Internal_Hbond.Weighted>
0.0000

> <Gold.Chemscore.DEClash.Weighted>
0.0000

> <Gold.Chemscore.DEInternal.Weighted>
2.2764

> <Gold.Chemscore.Rot.Weighted>
3.6401

> <Gold.Chemscore.Internal.Correction.Weighted>
   9.000000E+99

> <Gold.Protein.RotatedTorsions>
[ 6907 6896 6895 6894 ] final  -11.00 input  -60.11 | X-H torsion
[ 7974 7965 7964 7962 ] final  109.70 input  175.53 | X-H torsion
[ 8008 7997 7996 7995 ] final   51.98 input   59.86 | X-H torsion
[ 10167 10162 10161 10158 ] final  -96.38 input  -65.29 | X-H torsion
[ 10718 10713 10712 10709 ] final   96.69 input   66.30 | X-H torsion
[ 10763 10752 10751 10750 ] final  -29.08 input  -60.55 | X-H torsion
[ 11005 11000 10999 10996 ] final -110.89 input  -57.11 | X-H torsion

> <Gold.Protein.ActiveResidues>
 VAL166  LYS551  ARG553  GLY616  TRP617  ASP618  TYR619  PRO620  LYS621  CYS622 
 ASP623  PHE694  ASN695  SER759  ASP760  ASP761  ALA762  ILE779  LEU786  VAL792 
 PHE793  MET794  SER795  GLU796  ALA797  LYS798  CYS799  TRP800  GLU811  SER814 

> <Gold.Protein.RotatedAtoms>
  151.3931  135.0959  159.9532 H   0  0  0  0  0  0  0  0  0  0  0  0  # atno 6907 bound_to 6896
  152.5074  133.8961  159.7428 H   0  0  0  0  0  0  0  0  0  0  0  0  # atno 6908 bound_to 6896
  150.9418  133.6591  159.2818 H   0  0  0  0  0  0  0  0  0  0  0  0  # atno 6909 bound_to 6896
  145.2644  139.2690  143.3999 H   0  0  0  0  0  0  0  0  0  0  0  0  # atno 7974 bound_to 7965
  155.4442  140.3455  155.4293 H   0  0  0  0  0  0  0  0  0  0  0  0  # atno 8008 bound_to 7997
  156.1260  140.1500  156.9166 H   0  0  0  0  0  0  0  0  0  0  0  0  # atno 8009 bound_to 7997
  154.4858  140.0856  156.7463 H   0  0  0  0  0  0  0  0  0  0  0  0  # atno 8010 bound_to 7997
  140.2944  143.3201  152.0313 H   0  0  0  0  0  0  0  0  0  0  0  0  # atno 10167 bound_to 10162
  157.6923  131.0586  150.4530 H   0  0  0  0  0  0  0  0  0  0  0  0  # atno 10718 bound_to 10713
  153.7587  135.6921  153.4930 H   0  0  0  0  0  0  0  0  0  0  0  0  # atno 10763 bound_to 10752
  153.1953  135.4456  155.0199 H   0  0  0  0  0  0  0  0  0  0  0  0  # atno 10764 bound_to 10752
  154.8161  135.3399  154.7104 H   0  0  0  0  0  0  0  0  0  0  0  0  # atno 10765 bound_to 10752
  141.0766  133.9291  157.2377 H   0  0  0  0  0  0  0  0  0  0  0  0  # atno 11005 bound_to 11000
  146.3265  140.3070  142.8624 LP  0  0  0  0  0  0  0  0  0  0  0  0  # atno 17320 bound_to 7965
  144.9389  140.8057  143.5642 LP  0  0  0  0  0  0  0  0  0  0  0  0  # atno 17321 bound_to 7965
  139.4930  144.6502  151.6693 LP  0  0  0  0  0  0  0  0  0  0  0  0  # atno 17342 bound_to 10162
  140.5705  144.0117  150.6214 LP  0  0  0  0  0  0  0  0  0  0  0  0  # atno 17343 bound_to 10162
  156.4880  130.4089  149.6423 LP  0  0  0  0  0  0  0  0  0  0  0  0  # atno 17370 bound_to 10713
  156.3444  130.7399  151.2349 LP  0  0  0  0  0  0  0  0  0  0  0  0  # atno 17371 bound_to 10713
  139.9578  135.0161  156.9177 LP  0  0  0  0  0  0  0  0  0  0  0  0  # atno 17394 bound_to 11000
  140.5560  134.0581  155.7384 LP  0  0  0  0  0  0  0  0  0  0  0  0  # atno 17395 bound_to 11000

$$$$
