AV-unprocessed.smi:3031|AV-procd|sdf|11543|dock5
  -GOLD-   2272016493D 1   1.00000     0.00000
 Structure written by MMmdl.
 47 48  0  0  0  0  0  0  0  0  2 V2000
  151.1095  142.4630  158.2858 C   0  0  0  0  0  0  0  0  0  0  0  0
  150.8505  141.7910  156.9684 C   0  0  0  0  0  0  0  0  0  0  0  0
  151.7633  141.0422  156.1726 C   0  0  0  0  0  0  0  0  0  0  0  0
  151.2170  140.5836  155.0581 N   0  0  0  0  0  0  0  0  0  0  0  0
  149.9393  141.0181  155.1051 N   0  0  0  0  0  0  0  0  0  0  0  0
  149.0261  140.7038  154.0206 C   0  0  0  0  0  0  0  0  0  0  0  0
  148.6347  139.2130  154.0010 C   0  0  2  0  0  0  0  0  0  0  0  0
  149.8558  138.3227  154.2834 C   0  0  0  0  0  0  0  0  0  0  0  0
  148.0170  138.8659  152.7009 N   0  3  0  0  0  0  0  0  0  0  0  0
  146.5408  138.9173  152.6624 C   0  0  0  0  0  0  0  0  0  0  0  0
  145.9632  137.6078  152.0997 C   0  0  1  0  0  0  0  0  0  0  0  0
  146.3316  137.4682  150.7419 O   0  0  0  0  0  0  0  0  0  0  0  0
  146.3266  136.3114  152.8609 C   0  0  0  0  0  0  0  0  0  0  0  0
  145.6196  135.0868  152.4683 N   0  0  0  0  0  0  0  0  0  0  0  0
  146.2079  134.5129  151.2605 C   0  0  0  0  0  0  0  0  0  0  0  0
  145.4965  133.2191  150.8278 C   0  0  0  0  0  0  0  0  0  0  0  0
  144.1128  133.4829  150.6252 O   0  0  0  0  0  0  0  0  0  0  0  0
  143.4810  134.0109  151.7861 C   0  0  0  0  0  0  0  0  0  0  0  0
  144.1939  135.3044  152.2184 C   0  0  0  0  0  0  0  0  0  0  0  0
  149.6911  141.7492  156.2470 C   0  0  0  0  0  0  0  0  0  0  0  0
  152.0883  142.2022  158.6892 H   0  0  0  0  0  0  0  0  0  0  0  0
  150.3688  142.1805  159.0342 H   0  0  0  0  0  0  0  0  0  0  0  0
  151.0788  143.5489  158.1958 H   0  0  0  0  0  0  0  0  0  0  0  0
  152.8022  140.8218  156.3702 H   0  0  0  0  0  0  0  0  0  0  0  0
  148.1424  141.3390  154.1022 H   0  0  0  0  0  0  0  0  0  0  0  0
  149.5163  140.9752  153.0847 H   0  0  0  0  0  0  0  0  0  0  0  0
  147.8993  139.0503  154.7906 H   0  0  0  0  0  0  0  0  0  0  0  0
  150.3239  138.5914  155.2310 H   0  0  0  0  0  0  0  0  0  0  0  0
  150.6099  138.4240  153.5021 H   0  0  0  0  0  0  0  0  0  0  0  0
  149.5828  137.2696  154.3492 H   0  0  0  0  0  0  0  0  0  0  0  0
  148.3574  139.5300  152.0192 H   0  0  0  0  0  0  0  0  0  0  0  0
  146.1605  139.1031  153.6661 H   0  0  0  0  0  0  0  0  0  0  0  0
  146.2391  139.7533  152.0301 H   0  0  0  0  0  0  0  0  0  0  0  0
  144.8752  137.6842  152.1256 H   0  0  0  0  0  0  0  0  0  0  0  0
  145.6519  137.8465  150.2045 H   0  0  0  0  0  0  0  0  0  0  0  0
  147.4039  136.1453  152.8179 H   0  0  0  0  0  0  0  0  0  0  0  0
  146.1162  136.5137  153.9124 H   0  0  0  0  0  0  0  0  0  0  0  0
  146.1659  135.2381  150.4462 H   0  0  0  0  0  0  0  0  0  0  0  0
  147.2633  134.2960  151.4296 H   0  0  0  0  0  0  0  0  0  0  0  0
  145.9273  132.8401  149.9007 H   0  0  0  0  0  0  0  0  0  0  0  0
  145.6193  132.4395  151.5817 H   0  0  0  0  0  0  0  0  0  0  0  0
  142.4336  134.2119  151.5608 H   0  0  0  0  0  0  0  0  0  0  0  0
  143.5005  133.2719  152.5887 H   0  0  0  0  0  0  0  0  0  0  0  0
  143.6947  135.6904  153.1021 H   0  0  0  0  0  0  0  0  0  0  0  0
  144.0664  136.0579  151.4394 H   0  0  0  0  0  0  0  0  0  0  0  0
  148.7199  142.1768  156.4493 H   0  0  0  0  0  0  0  0  0  0  0  0
  148.3235  137.9440  152.4241 H   0  0  0  0  0  0  0  0  0  0  0  0
  1  2  1  0  0  0  0
  1 21  1  0  0  0  0
  1 22  1  0  0  0  0
  1 23  1  0  0  0  0
  2 20  2  0  0  0  0
  2  3  1  0  0  0  0
  3  4  2  0  0  0  0
  3 24  1  0  0  0  0
  4  5  1  0  0  0  0
  5  6  1  0  0  0  0
  5 20  1  0  0  0  0
  6  7  1  0  0  0  0
  6 25  1  0  0  0  0
  6 26  1  0  0  0  0
  7  8  1  0  0  0  0
  7  9  1  0  0  0  0
  7 27  1  0  0  0  0
  8 28  1  0  0  0  0
  8 29  1  0  0  0  0
  8 30  1  0  0  0  0
  9 10  1  0  0  0  0
  9 31  1  0  0  0  0
  9 47  1  0  0  0  0
 10 11  1  0  0  0  0
 10 32  1  0  0  0  0
 10 33  1  0  0  0  0
 11 12  1  0  0  0  0
 11 13  1  0  0  0  0
 11 34  1  0  0  0  0
 12 35  1  0  0  0  0
 13 14  1  0  0  0  0
 13 36  1  0  0  0  0
 13 37  1  0  0  0  0
 14 19  1  0  0  0  0
 14 15  1  0  0  0  0
 15 16  1  0  0  0  0
 15 38  1  0  0  0  0
 15 39  1  0  0  0  0
 16 17  1  0  0  0  0
 16 40  1  0  0  0  0
 16 41  1  0  0  0  0
 17 18  1  0  0  0  0
 18 19  1  0  0  0  0
 18 42  1  0  0  0  0
 18 43  1  0  0  0  0
 19 44  1  0  0  0  0
 19 45  1  0  0  0  0
 20 46  1  0  0  0  0
M  CHG  1   9   1
M  END
> <s_m_source_file>
AV-unprocessed.smi

> <i_m_source_file_index>
3031

> <i_lp_mmshare_version>
43012

> <i_f3d_flags>
0

> <s_epik_input>
W0NIM11jMVtjSF1ubihbY0hdMSlbQ0gyXVtDQEhdKFtDSDNdKVtOSF1bQ0gyXVtDQEhdKFtPSF0pW0NIMl1OMltDSDJdW0NIMl1PW0NIMl1bQ0gyXTI=

> <s_epik_cmdline>
J2VwaWtfcHl0aG9uJywgJy1waCcsICc3LjAnLCAnLXRuJywgJzgnLCAnLW1hJywgJzIwMCcsICctbWV0YWxfYmluZGluZycsICctaW1hZScsICc8aW5maWxlLm1hZT4nLCAnLW9tYWUnLCAnPG91dGZpbGUubWFlPic=

> <r_lp_tautomer_probability>
1

> <r_epik_Ionization_Penalty>
0.108564

> <r_epik_Ionization_Penalty_Charging>
0.01811

> <r_epik_Ionization_Penalty_Neutral>
0.0904541

> <r_epik_State_Penalty>
0.141043

> <r_epik_Charging_Adjusted_Penalty>
0.159153

> <i_epik_Tot_Q>
1

> <i_epik_Tot_abs_Q>
1

> <r_epik_Metal_State_Penalty>
0.141052

> <b_epik_Metal_Only>
0

> <s_lp_Force_Field>
OPLS_2005

> <r_lp_Energy>
34.8443

> <b_lp_Chiralities_Consistent>
1

> <s_lp_Variant>
AV-unprocessed.smi:3031-3

> <Gold.Version>
5.8.1

> <Gold.Id.Protein>
6NUR|6NUR_protein|mol2

> <Gold.PLP.Fitness>
51.4957

> <Gold.PLP.PLP>
-35.3696

> <Gold.PLP.part.hbond>
-6.0000

> <Gold.PLP.part.metal>
0.0000

> <Gold.PLP.part.buried>
-0.5084

> <Gold.PLP.part.nonpolar>
-28.5498

> <Gold.PLP.part.repulsive>
0.3661

> <Gold.PLP.ligand.clash>
0.0000

> <Gold.PLP.ligand.torsion>
1.3114

> <Gold.PLP.Chemscore.Hbond>
5.9513

> <Gold.PLP.Chemscore.CHOScore>
0.2709

> <Gold.PLP.Chemscore.Metal>
0.0000

> <Gold.Chemscore.Hbonds>
donor molecule, donor type, donor heavy atom, donor atom, acceptor molecule, acceptor atom, score
      L1  H     9    31       P1  7957  0.94
      L1  H     9    47       P1  7948  2.00
      L1  H    12    35       P1 10171  1.00
      P1  H  7954  7966       L1    12  0.94
      P1  H  7989  7998       L1     4  0.93
      L1  C    20    46       P1  8028  0.35

> <Gold.PLP.Chemscore.Internal.Correction>
0.0824

> <Gold.Rescore>
     Score         DG    S(hbond)    S(metal)    S(lipo)     H(rot)  DE(clash)    DE(int)     intcor
     18.86     -21.68       3.99        0.00      81.94       2.63       0.07       2.75       ----

> <Gold.Chemscore.Fitness>
18.8551

> <Gold.Chemscore.DG>
-21.6811

> <Gold.Chemscore.ZeroCoef>
-5.4800

> <Gold.Chemscore.Hbond>
3.9939

> <Gold.Chemscore.Metal>
0.0000

> <Gold.Chemscore.Lipo>
81.9363

> <Gold.Chemscore.Internal_Hbond>
0.0000

> <Gold.Chemscore.DEClash>
0.0711

> <Gold.Chemscore.DEInternal>
2.7549

> <Gold.Chemscore.Rot>
2.6270

> <Gold.Chemscore.Internal.Correction>
   9.000000E+99

> <Gold.Chemscore.Hbonds>
donor molecule, donor type, donor heavy atom, donor atom, acceptor molecule, acceptor atom, score
      L1  H     9    31       P1  7957  0.89
      L1  H     9    47       P1  7948  1.00
      L1  H    12    35       P1 10171  0.98
      P1  H  7954  7966       L1    12  0.61
      P1  H  7989  7998       L1     4  0.35

> <Gold.Chemscore.Hbond.Weighted>
-13.3397

> <Gold.Chemscore.Metal.Weighted>
-0.0000

> <Gold.Chemscore.Lipo.Weighted>
-9.5866

> <Gold.Chemscore.Internal_Hbond.Weighted>
0.0000

> <Gold.Chemscore.DEClash.Weighted>
0.0711

> <Gold.Chemscore.DEInternal.Weighted>
2.7549

> <Gold.Chemscore.Rot.Weighted>
6.7251

> <Gold.Chemscore.Internal.Correction.Weighted>
   9.000000E+99

> <Gold.Protein.RotatedTorsions>
[ 6907 6896 6895 6894 ] final  168.69 input  -60.11 | X-H torsion
[ 7974 7965 7964 7962 ] final -107.57 input  175.53 | X-H torsion
[ 8008 7997 7996 7995 ] final   34.14 input   59.86 | X-H torsion
[ 10167 10162 10161 10158 ] final   83.14 input  -65.29 | X-H torsion
[ 10718 10713 10712 10709 ] final -153.91 input   66.30 | X-H torsion
[ 10763 10752 10751 10750 ] final   67.82 input  -60.55 | X-H torsion
[ 11005 11000 10999 10996 ] final  139.10 input  -57.11 | X-H torsion

> <Gold.Protein.ActiveResidues>
 VAL166  LYS551  ARG553  GLY616  TRP617  ASP618  TYR619  PRO620  LYS621  CYS622 
 ASP623  PHE694  ASN695  SER759  ASP760  ASP761  ALA762  ILE779  LEU786  VAL792 
 PHE793  MET794  SER795  GLU796  ALA797  LYS798  CYS799  TRP800  GLU811  SER814 

> <Gold.Protein.RotatedAtoms>
  151.8437  133.3428  159.3650 H   0  0  0  0  0  0  0  0  0  0  0  0  # atno 6907 bound_to 6896
  150.7227  134.5367  159.5736 H   0  0  0  0  0  0  0  0  0  0  0  0  # atno 6908 bound_to 6896
  152.2845  134.7791  160.0441 H   0  0  0  0  0  0  0  0  0  0  0  0  # atno 6909 bound_to 6896
  145.2037  140.9067  143.3354 H   0  0  0  0  0  0  0  0  0  0  0  0  # atno 7974 bound_to 7965
  155.1500  140.3274  155.4433 H   0  0  0  0  0  0  0  0  0  0  0  0  # atno 8008 bound_to 7997
  156.2577  140.1978  156.6562 H   0  0  0  0  0  0  0  0  0  0  0  0  # atno 8009 bound_to 7997
  154.6480  140.0562  156.9909 H   0  0  0  0  0  0  0  0  0  0  0  0  # atno 8010 bound_to 7997
  139.9215  144.6210  150.8435 H   0  0  0  0  0  0  0  0  0  0  0  0  # atno 10167 bound_to 10162
  156.4921  130.8352  151.2575 H   0  0  0  0  0  0  0  0  0  0  0  0  # atno 10718 bound_to 10713
  153.0205  135.5270  154.7038 H   0  0  0  0  0  0  0  0  0  0  0  0  # atno 10763 bound_to 10752
  154.6140  135.2881  155.0403 H   0  0  0  0  0  0  0  0  0  0  0  0  # atno 10764 bound_to 10752
  154.1414  135.6577  153.4995 H   0  0  0  0  0  0  0  0  0  0  0  0  # atno 10765 bound_to 10752
  140.0230  134.9388  157.0513 H   0  0  0  0  0  0  0  0  0  0  0  0  # atno 11005 bound_to 11000
  144.9923  139.3678  143.6209 LP  0  0  0  0  0  0  0  0  0  0  0  0  # atno 17320 bound_to 7965
  146.3412  139.9110  142.8780 LP  0  0  0  0  0  0  0  0  0  0  0  0  # atno 17321 bound_to 7965
  140.7661  143.3294  151.2444 LP  0  0  0  0  0  0  0  0  0  0  0  0  # atno 17342 bound_to 10162
  139.6858  143.9777  152.2833 LP  0  0  0  0  0  0  0  0  0  0  0  0  # atno 17343 bound_to 10162
  157.7472  131.0010  150.2946 LP  0  0  0  0  0  0  0  0  0  0  0  0  # atno 17370 bound_to 10713
  156.3416  130.3816  149.7404 LP  0  0  0  0  0  0  0  0  0  0  0  0  # atno 17371 bound_to 10713
  140.4354  134.1737  155.7170 LP  0  0  0  0  0  0  0  0  0  0  0  0  # atno 17394 bound_to 11000
  141.1786  133.8462  157.1338 LP  0  0  0  0  0  0  0  0  0  0  0  0  # atno 17395 bound_to 11000

$$$$
