AV-unprocessed.smi:752|AV-procd|sdf|3595|dock3
  -GOLD-   22720 0583D 1   1.00000     0.00000
 Structure written by MMmdl.
 41 42  0  0  0  0  0  0  0  0  1 V2000
  151.8469  145.2921  159.2969 C   0  0  0  0  0  0  0  0  0  0  0  0
  152.2573  144.2687  158.2330 C   0  0  0  0  0  0  0  0  0  0  0  0
  152.4088  142.8924  158.7887 C   0  0  0  0  0  0  0  0  0  0  0  0
  151.7764  141.8252  158.2948 N   0  0  0  0  0  0  0  0  0  0  0  0
  152.0803  140.6475  158.9880 C   0  0  0  0  0  0  0  0  0  0  0  0
  151.5108  139.3351  158.5290 C   0  0  0  0  0  0  0  0  0  0  0  0
  151.9017  139.1041  157.0691 C   0  0  0  0  0  0  0  0  0  0  0  0
  153.0810  139.1795  156.7254 O   0  0  0  0  0  0  0  0  0  0  0  0
  150.8888  138.8781  156.2180 N   0  0  0  0  0  0  0  0  0  0  0  0
  150.9798  138.8862  154.7625 C   0  0  0  0  0  0  0  0  0  0  0  0
  149.7704  139.6142  154.1385 C   0  0  2  0  0  0  0  0  0  0  0  0
  149.5066  140.9586  154.8434 C   0  0  0  0  0  0  0  0  0  0  0  0
  148.3346  141.7133  154.1962 C   0  0  0  0  0  0  0  0  0  0  0  0
  147.0540  140.8623  154.1897 C   0  0  0  0  0  0  0  0  0  0  0  0
  147.2739  139.4868  153.5336 C   0  0  1  0  0  0  0  0  0  0  0  0
  147.4478  139.6307  152.1374 O   0  0  0  0  0  0  0  0  0  0  0  0
  148.4840  138.7526  154.1399 C   0  0  0  0  0  0  0  0  0  0  0  0
  152.9298  140.8505  160.0474 C   0  0  0  0  0  0  0  0  0  0  0  0
  153.3954  142.5225  160.1976 S   0  0  0  0  0  0  0  0  0  0  0  0
  151.7480  146.2863  158.8611 H   0  0  0  0  0  0  0  0  0  0  0  0
  152.5886  145.3491  160.0942 H   0  0  0  0  0  0  0  0  0  0  0  0
  150.8893  145.0286  159.7470 H   0  0  0  0  0  0  0  0  0  0  0  0
  151.5176  144.2460  157.4318 H   0  0  0  0  0  0  0  0  0  0  0  0
  153.2018  144.5657  157.7764 H   0  0  0  0  0  0  0  0  0  0  0  0
  151.8877  138.5144  159.1402 H   0  0  0  0  0  0  0  0  0  0  0  0
  150.4244  139.3225  158.6257 H   0  0  0  0  0  0  0  0  0  0  0  0
  149.9586  138.8237  156.6076 H   0  0  0  0  0  0  0  0  0  0  0  0
  151.9135  139.3353  154.4203 H   0  0  0  0  0  0  0  0  0  0  0  0
  150.9991  137.8484  154.4288 H   0  0  0  0  0  0  0  0  0  0  0  0
  150.0254  139.8335  153.1003 H   0  0  0  0  0  0  0  0  0  0  0  0
  149.2930  140.7873  155.8992 H   0  0  0  0  0  0  0  0  0  0  0  0
  150.4013  141.5810  154.8068 H   0  0  0  0  0  0  0  0  0  0  0  0
  148.1547  142.6467  154.7302 H   0  0  0  0  0  0  0  0  0  0  0  0
  148.5978  141.9902  153.1745 H   0  0  0  0  0  0  0  0  0  0  0  0
  146.7239  140.7151  155.2187 H   0  0  0  0  0  0  0  0  0  0  0  0
  146.2486  141.3981  153.6863 H   0  0  0  0  0  0  0  0  0  0  0  0
  146.3811  138.8778  153.6781 H   0  0  0  0  0  0  0  0  0  0  0  0
  148.3742  139.6454  151.9514 H   0  0  0  0  0  0  0  0  0  0  0  0
  148.6385  137.8202  153.5972 H   0  0  0  0  0  0  0  0  0  0  0  0
  148.2486  138.4673  155.1661 H   0  0  0  0  0  0  0  0  0  0  0  0
  153.3188  140.1168  160.7380 H   0  0  0  0  0  0  0  0  0  0  0  0
  1  2  1  0  0  0  0
  1 20  1  0  0  0  0
  1 21  1  0  0  0  0
  1 22  1  0  0  0  0
  2  3  1  0  0  0  0
  2 23  1  0  0  0  0
  2 24  1  0  0  0  0
  3 19  1  0  0  0  0
  3  4  2  0  0  0  0
  4  5  1  0  0  0  0
  5  6  1  0  0  0  0
  5 18  2  0  0  0  0
  6  7  1  0  0  0  0
  6 25  1  0  0  0  0
  6 26  1  0  0  0  0
  7  8  2  0  0  0  0
  7  9  1  0  0  0  0
  9 10  1  0  0  0  0
  9 27  1  0  0  0  0
 10 11  1  0  0  0  0
 10 28  1  0  0  0  0
 10 29  1  0  0  0  0
 11 17  1  0  0  0  0
 11 12  1  0  0  0  0
 11 30  1  0  0  0  0
 12 13  1  0  0  0  0
 12 31  1  0  0  0  0
 12 32  1  0  0  0  0
 13 14  1  0  0  0  0
 13 33  1  0  0  0  0
 13 34  1  0  0  0  0
 14 15  1  0  0  0  0
 14 35  1  0  0  0  0
 14 36  1  0  0  0  0
 15 16  1  0  0  0  0
 15 17  1  0  0  0  0
 15 37  1  0  0  0  0
 16 38  1  0  0  0  0
 17 39  1  0  0  0  0
 17 40  1  0  0  0  0
 18 19  1  0  0  0  0
 18 41  1  0  0  0  0
M  END
> <s_m_source_file>
AV-unprocessed.smi

> <i_m_source_file_index>
752

> <i_lp_mmshare_version>
43012

> <i_f3d_flags>
0

> <s_epik_input>
W0NIM11bQ0gyXWMxbmMoW2NIXXMxKVtDSDJdQyg9TylbTkhdW0NIMl1bQ0BASF0yW0NIMl1bQ0gyXVtDSDJdW0NAQEhdKFtPSF0pW0NIMl0y

> <s_epik_cmdline>
J2VwaWtfcHl0aG9uJywgJy1waCcsICc3LjAnLCAnLXRuJywgJzgnLCAnLW1hJywgJzIwMCcsICctbWV0YWxfYmluZGluZycsICctaW1hZScsICc8aW5maWxlLm1hZT4nLCAnLW9tYWUnLCAnPG91dGZpbGUubWFlPic=

> <r_lp_tautomer_probability>
1

> <r_epik_Ionization_Penalty>
5.44903e-05

> <r_epik_Ionization_Penalty_Charging>
0

> <r_epik_Ionization_Penalty_Neutral>
5.44903e-05

> <r_epik_State_Penalty>
-0

> <r_epik_Charging_Adjusted_Penalty>
0

> <i_epik_Tot_Q>
0

> <i_epik_Tot_abs_Q>
0

> <r_epik_Metal_State_Penalty>
-0

> <b_epik_Metal_Only>
0

> <s_lp_Force_Field>
OPLS_2005

> <r_lp_Energy>
4.55991

> <b_lp_Chiralities_Consistent>
1

> <s_lp_Variant>
AV-unprocessed.smi:752-1

> <Gold.Version>
5.8.1

> <Gold.Id.Protein>
6NUR|6NUR_protein|mol2

> <Gold.PLP.Fitness>
49.0203

> <Gold.PLP.PLP>
-43.6190

> <Gold.PLP.part.hbond>
-1.6541

> <Gold.PLP.part.metal>
0.0000

> <Gold.PLP.part.buried>
-3.2995

> <Gold.PLP.part.nonpolar>
-38.7304

> <Gold.PLP.part.repulsive>
0.0513

> <Gold.PLP.ligand.clash>
0.0000

> <Gold.PLP.ligand.torsion>
0.3255

> <Gold.PLP.Chemscore.Hbond>
2.0000

> <Gold.PLP.Chemscore.CHOScore>
0.0000

> <Gold.PLP.Chemscore.Metal>
0.0000

> <Gold.Chemscore.Hbonds>
donor molecule, donor type, donor heavy atom, donor atom, acceptor molecule, acceptor atom, score
      L1  H    16    38       P1  7957  0.91
      P1  H  7997  8009       L1     8  1.00

> <Gold.PLP.Chemscore.Internal.Correction>
0.0524

> <Gold.Rescore>
     Score         DG    S(hbond)    S(metal)    S(lipo)     H(rot)  DE(clash)    DE(int)     intcor
     19.78     -20.47       1.98        0.00     117.10       2.08       0.29       0.40       ----

> <Gold.Chemscore.Fitness>
19.7818

> <Gold.Chemscore.DG>
-20.4675

> <Gold.Chemscore.ZeroCoef>
-5.4800

> <Gold.Chemscore.Hbond>
1.9824

> <Gold.Chemscore.Metal>
0.0000

> <Gold.Chemscore.Lipo>
117.1037

> <Gold.Chemscore.Internal_Hbond>
0.0000

> <Gold.Chemscore.DEClash>
0.2859

> <Gold.Chemscore.DEInternal>
0.3998

> <Gold.Chemscore.Rot>
2.0840

> <Gold.Chemscore.Internal.Correction>
   9.000000E+99

> <Gold.Chemscore.Hbonds>
donor molecule, donor type, donor heavy atom, donor atom, acceptor molecule, acceptor atom, score
      L1  H    16    38       P1  7957  0.86
      P1  H  7997  8009       L1     8  0.97

> <Gold.Chemscore.Hbond.Weighted>
-6.6213

> <Gold.Chemscore.Metal.Weighted>
-0.0000

> <Gold.Chemscore.Lipo.Weighted>
-13.7011

> <Gold.Chemscore.Internal_Hbond.Weighted>
0.0000

> <Gold.Chemscore.DEClash.Weighted>
0.2859

> <Gold.Chemscore.DEInternal.Weighted>
0.3998

> <Gold.Chemscore.Rot.Weighted>
5.3350

> <Gold.Chemscore.Internal.Correction.Weighted>
   9.000000E+99

> <Gold.Protein.RotatedTorsions>
[ 6907 6896 6895 6894 ] final -159.79 input  -60.11 | X-H torsion
[ 7974 7965 7964 7962 ] final -116.71 input  175.53 | X-H torsion
[ 8008 7997 7996 7995 ] final -171.19 input   59.86 | X-H torsion
[ 10167 10162 10161 10158 ] final  -36.55 input  -65.29 | X-H torsion
[ 10718 10713 10712 10709 ] final  -28.99 input   66.30 | X-H torsion
[ 10763 10752 10751 10750 ] final  -10.20 input  -60.55 | X-H torsion
[ 11005 11000 10999 10996 ] final -162.04 input  -57.11 | X-H torsion

> <Gold.Protein.ActiveResidues>
 VAL166  LYS551  ARG553  GLY616  TRP617  ASP618  TYR619  PRO620  LYS621  CYS622 
 ASP623  PHE694  ASN695  SER759  ASP760  ASP761  ALA762  ILE779  LEU786  VAL792 
 PHE793  MET794  SER795  GLU796  ALA797  LYS798  CYS799  TRP800  GLU811  SER814 

> <Gold.Protein.RotatedAtoms>
  151.3391  133.3970  159.2669 H   0  0  0  0  0  0  0  0  0  0  0  0  # atno 6907 bound_to 6896
  150.9893  134.9232  159.7900 H   0  0  0  0  0  0  0  0  0  0  0  0  # atno 6908 bound_to 6896
  152.5242  134.3355  159.9251 H   0  0  0  0  0  0  0  0  0  0  0  0  # atno 6909 bound_to 6896
  145.0936  140.8506  143.3968 H   0  0  0  0  0  0  0  0  0  0  0  0  # atno 7974 bound_to 7965
  155.9283  140.1086  157.1153 H   0  0  0  0  0  0  0  0  0  0  0  0  # atno 8008 bound_to 7997
  154.4066  140.1242  156.4834 H   0  0  0  0  0  0  0  0  0  0  0  0  # atno 8009 bound_to 7997
  155.7112  140.3471  155.4977 H   0  0  0  0  0  0  0  0  0  0  0  0  # atno 8010 bound_to 7997
  140.7140  143.3401  151.2375 H   0  0  0  0  0  0  0  0  0  0  0  0  # atno 10167 bound_to 10162
  156.4182  130.4421  149.7203 H   0  0  0  0  0  0  0  0  0  0  0  0  # atno 10718 bound_to 10713
  153.4657  135.7016  153.6023 H   0  0  0  0  0  0  0  0  0  0  0  0  # atno 10763 bound_to 10752
  153.4299  135.3805  155.2164 H   0  0  0  0  0  0  0  0  0  0  0  0  # atno 10764 bound_to 10752
  154.8726  135.3948  154.4088 H   0  0  0  0  0  0  0  0  0  0  0  0  # atno 10765 bound_to 10752
  140.6136  134.4823  157.5218 H   0  0  0  0  0  0  0  0  0  0  0  0  # atno 11005 bound_to 11000
  145.1037  139.2804  143.5673 LP  0  0  0  0  0  0  0  0  0  0  0  0  # atno 17320 bound_to 7965
  146.3531  140.0612  142.8629 LP  0  0  0  0  0  0  0  0  0  0  0  0  # atno 17321 bound_to 7965
  139.6907  143.9697  152.2857 LP  0  0  0  0  0  0  0  0  0  0  0  0  # atno 17342 bound_to 10162
  139.9358  144.6713  150.8316 LP  0  0  0  0  0  0  0  0  0  0  0  0  # atno 17343 bound_to 10162
  156.4154  130.7742  151.2757 LP  0  0  0  0  0  0  0  0  0  0  0  0  # atno 17370 bound_to 10713
  157.7508  131.0199  150.3685 LP  0  0  0  0  0  0  0  0  0  0  0  0  # atno 17371 bound_to 10713
  139.9182  134.8203  156.1297 LP  0  0  0  0  0  0  0  0  0  0  0  0  # atno 17394 bound_to 11000
  141.0791  133.6762  156.2298 LP  0  0  0  0  0  0  0  0  0  0  0  0  # atno 17395 bound_to 11000

$$$$
