AV-unprocessed.smi:2671|AV-procd|sdf|10350|dock2
  -GOLD-   2272014373D 1   1.00000     0.00000
 Structure written by MMmdl.
 29 30  0  0  0  0  0  0  0  0  1 V2000
  152.8730  139.5844  158.0642 O   0  0  0  0  0  0  0  0  0  0  0  0
  152.2059  140.5690  157.7542 C   0  0  0  0  0  0  0  0  0  0  0  0
  152.2673  141.8025  158.5472 C   0  0  0  0  0  0  0  0  0  0  0  0
  151.5304  142.8694  158.1791 C   0  0  0  0  0  0  0  0  0  0  0  0
  151.5180  144.1787  158.9516 C   0  0  0  0  0  0  0  0  0  0  0  0
  150.2707  144.5056  159.2889 F   0  0  0  0  0  0  0  0  0  0  0  0
  152.2318  144.0564  160.0703 F   0  0  0  0  0  0  0  0  0  0  0  0
  152.0334  145.1796  158.2348 F   0  0  0  0  0  0  0  0  0  0  0  0
  150.7087  142.8000  157.0670 N   0  0  0  0  0  0  0  0  0  0  0  0
  150.6642  141.6206  156.3304 C   0  0  0  0  0  0  0  0  0  0  0  0
  149.5302  141.7262  154.9004 S   0  0  0  0  0  0  0  0  0  0  0  0
  148.7373  140.0891  154.8310 C   0  0  0  0  0  0  0  0  0  0  0  0
  149.7373  138.9957  154.4332 C   0  0  2  0  0  0  0  0  0  0  0  0
  149.9155  137.9084  155.4911 C   0  0  0  0  0  0  0  0  0  0  0  0
  151.2883  137.3769  155.1491 C   0  0  0  0  0  0  0  0  0  0  0  0
  152.0287  138.6551  154.7661 C   0  0  0  0  0  0  0  0  0  0  0  0
  151.0408  139.5425  154.2472 O   0  0  0  0  0  0  0  0  0  0  0  0
  151.3584  140.5615  156.6341 N   0  0  0  0  0  0  0  0  0  0  0  0
  150.1614  143.6164  156.8352 H   0  0  0  0  0  0  0  0  0  0  0  0
  152.9002  141.8520  159.4211 H   0  0  0  0  0  0  0  0  0  0  0  0
  147.9265  140.1212  154.1025 H   0  0  0  0  0  0  0  0  0  0  0  0
  148.3006  139.8549  155.8024 H   0  0  0  0  0  0  0  0  0  0  0  0
  149.4318  138.5302  153.4947 H   0  0  0  0  0  0  0  0  0  0  0  0
  149.9230  138.3408  156.4926 H   0  0  0  0  0  0  0  0  0  0  0  0
  149.1380  137.1449  155.4530 H   0  0  0  0  0  0  0  0  0  0  0  0
  151.7602  136.8403  155.9725 H   0  0  0  0  0  0  0  0  0  0  0  0
  151.2272  136.7052  154.2916 H   0  0  0  0  0  0  0  0  0  0  0  0
  152.4757  139.1149  155.6482 H   0  0  0  0  0  0  0  0  0  0  0  0
  152.8215  138.4734  154.0403 H   0  0  0  0  0  0  0  0  0  0  0  0
  1  2  2  0  0  0  0
  2 18  1  0  0  0  0
  2  3  1  0  0  0  0
  3 20  1  0  0  0  0
  3  4  2  0  0  0  0
  4  5  1  0  0  0  0
  4  9  1  0  0  0  0
  5  6  1  0  0  0  0
  5  7  1  0  0  0  0
  5  8  1  0  0  0  0
  9 10  1  0  0  0  0
  9 19  1  0  0  0  0
 10 11  1  0  0  0  0
 10 18  2  0  0  0  0
 11 12  1  0  0  0  0
 12 13  1  0  0  0  0
 12 21  1  0  0  0  0
 12 22  1  0  0  0  0
 13 17  1  0  0  0  0
 13 14  1  0  0  0  0
 13 23  1  0  0  0  0
 14 15  1  0  0  0  0
 14 24  1  0  0  0  0
 14 25  1  0  0  0  0
 15 16  1  0  0  0  0
 15 26  1  0  0  0  0
 15 27  1  0  0  0  0
 16 17  1  0  0  0  0
 16 28  1  0  0  0  0
 16 29  1  0  0  0  0
M  END
> <s_m_source_file>
AV-unprocessed.smi

> <i_m_source_file_index>
2671

> <i_lp_mmshare_version>
43012

> <i_f3d_flags>
0

> <s_epik_input>
W09IXWMxW2NIXWMoQyhGKShGKUYpbmMobjEpU1tDSDJdW0NAQEhdMltDSDJdW0NIMl1bQ0gyXU8y

> <s_epik_cmdline>
J2VwaWtfcHl0aG9uJywgJy1waCcsICc3LjAnLCAnLXRuJywgJzgnLCAnLW1hJywgJzIwMCcsICctbWV0YWxfYmluZGluZycsICctaW1hZScsICc8aW5maWxlLm1hZT4nLCAnLW9tYWUnLCAnPG91dGZpbGUubWFlPic=

> <r_lp_tautomer_probability>
0.273662

> <r_epik_Ionization_Penalty>
1.33793

> <r_epik_Ionization_Penalty_Charging>
1.33793

> <r_epik_Ionization_Penalty_Neutral>
8.2996e-08

> <r_epik_State_Penalty>
1.59174

> <r_epik_Charging_Adjusted_Penalty>
2.92967

> <i_epik_Tot_Q>
0

> <i_epik_Tot_abs_Q>
0

> <r_epik_Metal_State_Penalty>
2.31522

> <b_epik_Metal_Only>
0

> <s_lp_Force_Field>
OPLS_2005

> <r_lp_Energy>
28.2074

> <b_lp_Chiralities_Consistent>
1

> <s_lp_Variant>
AV-unprocessed.smi:2671-5

> <Gold.Version>
5.8.1

> <Gold.Id.Protein>
6NUR|6NUR_protein|mol2

> <Gold.PLP.Fitness>
42.8673

> <Gold.PLP.PLP>
-37.2619

> <Gold.PLP.part.hbond>
-3.0000

> <Gold.PLP.part.metal>
0.0000

> <Gold.PLP.part.buried>
-3.7680

> <Gold.PLP.part.nonpolar>
-30.3368

> <Gold.PLP.part.repulsive>
0.1777

> <Gold.PLP.ligand.clash>
1.0655

> <Gold.PLP.ligand.torsion>
1.1771

> <Gold.PLP.Chemscore.Hbond>
3.0000

> <Gold.PLP.Chemscore.CHOScore>
0.0000

> <Gold.PLP.Chemscore.Metal>
0.0000

> <Gold.Chemscore.Hbonds>
donor molecule, donor type, donor heavy atom, donor atom, acceptor molecule, acceptor atom, score
      L1  H     9    19       P1  8028  0.96
      P1  H  7989  7998       L1    17  1.00
      P1  H  7997  8008       L1     1  0.85

> <Gold.PLP.Chemscore.Internal.Correction>
0.0250

> <Gold.Rescore>
     Score         DG    S(hbond)    S(metal)    S(lipo)     H(rot)  DE(clash)    DE(int)     intcor
     12.25     -18.09       2.68        0.00      68.31       1.69       0.17       5.67       ----

> <Gold.Chemscore.Fitness>
12.2510

> <Gold.Chemscore.DG>
-18.0882

> <Gold.Chemscore.ZeroCoef>
-5.4800

> <Gold.Chemscore.Hbond>
2.6792

> <Gold.Chemscore.Metal>
0.0000

> <Gold.Chemscore.Lipo>
68.3072

> <Gold.Chemscore.Internal_Hbond>
0.0000

> <Gold.Chemscore.DEClash>
0.1695

> <Gold.Chemscore.DEInternal>
5.6676

> <Gold.Chemscore.Rot>
1.6924

> <Gold.Chemscore.Internal.Correction>
   9.000000E+99

> <Gold.Chemscore.Hbonds>
donor molecule, donor type, donor heavy atom, donor atom, acceptor molecule, acceptor atom, score
      L1  H     9    19       P1  8028  0.89
      P1  H  7989  7998       L1    17  0.90
      P1  H  7997  8008       L1     1  0.16

> <Gold.Chemscore.Hbond.Weighted>
-8.9487

> <Gold.Chemscore.Metal.Weighted>
-0.0000

> <Gold.Chemscore.Lipo.Weighted>
-7.9919

> <Gold.Chemscore.Internal_Hbond.Weighted>
0.0000

> <Gold.Chemscore.DEClash.Weighted>
0.1695

> <Gold.Chemscore.DEInternal.Weighted>
5.6676

> <Gold.Chemscore.Rot.Weighted>
4.3324

> <Gold.Chemscore.Internal.Correction.Weighted>
   9.000000E+99

> <Gold.Protein.RotatedTorsions>
[ 6907 6896 6895 6894 ] final  -32.46 input  -60.11 | X-H torsion
[ 7974 7965 7964 7962 ] final -156.34 input  175.53 | X-H torsion
[ 8008 7997 7996 7995 ] final  -84.97 input   59.86 | X-H torsion
[ 10167 10162 10161 10158 ] final   33.92 input  -65.29 | X-H torsion
[ 10718 10713 10712 10709 ] final   93.43 input   66.30 | X-H torsion
[ 10763 10752 10751 10750 ] final  -90.44 input  -60.55 | X-H torsion
[ 11005 11000 10999 10996 ] final  172.36 input  -57.11 | X-H torsion

> <Gold.Protein.ActiveResidues>
 VAL166  LYS551  ARG553  GLY616  TRP617  ASP618  TYR619  PRO620  LYS621  CYS622 
 ASP623  PHE694  ASN695  SER759  ASP760  ASP761  ALA762  ILE779  LEU786  VAL792 
 PHE793  MET794  SER795  GLU796  ALA797  LYS798  CYS799  TRP800  GLU811  SER814 

> <Gold.Protein.RotatedAtoms>
  151.0785  134.9843  159.8343 H   0  0  0  0  0  0  0  0  0  0  0  0  # atno 6907 bound_to 6896
  152.5417  134.2211  159.8798 H   0  0  0  0  0  0  0  0  0  0  0  0  # atno 6908 bound_to 6896
  151.2240  133.4443  159.2635 H   0  0  0  0  0  0  0  0  0  0  0  0  # atno 6909 bound_to 6896
  144.7597  140.4123  143.5985 H   0  0  0  0  0  0  0  0  0  0  0  0  # atno 7974 bound_to 7965
  154.6356  140.0598  156.9785 H   0  0  0  0  0  0  0  0  0  0  0  0  # atno 8008 bound_to 7997
  155.1597  140.3281  155.4395 H   0  0  0  0  0  0  0  0  0  0  0  0  # atno 8009 bound_to 7997
  156.2505  140.1933  156.6704 H   0  0  0  0  0  0  0  0  0  0  0  0  # atno 8010 bound_to 7997
  140.4363  144.1252  150.6167 H   0  0  0  0  0  0  0  0  0  0  0  0  # atno 10167 bound_to 10162
  157.6954  131.0478  150.4033 H   0  0  0  0  0  0  0  0  0  0  0  0  # atno 10718 bound_to 10713
  154.6658  135.5304  153.8075 H   0  0  0  0  0  0  0  0  0  0  0  0  # atno 10763 bound_to 10752
  153.0470  135.6517  154.0802 H   0  0  0  0  0  0  0  0  0  0  0  0  # atno 10764 bound_to 10752
  154.0706  135.2954  155.3288 H   0  0  0  0  0  0  0  0  0  0  0  0  # atno 10765 bound_to 10752
  140.3289  134.7374  157.4119 H   0  0  0  0  0  0  0  0  0  0  0  0  # atno 11005 bound_to 11000
  145.6659  139.1590  143.2782 LP  0  0  0  0  0  0  0  0  0  0  0  0  # atno 17320 bound_to 7965
  146.1647  140.6735  142.9261 LP  0  0  0  0  0  0  0  0  0  0  0  0  # atno 17321 bound_to 7965
  140.4370  143.2543  151.9523 LP  0  0  0  0  0  0  0  0  0  0  0  0  # atno 17342 bound_to 10162
  139.4787  144.5691  151.8118 LP  0  0  0  0  0  0  0  0  0  0  0  0  # atno 17343 bound_to 10162
  156.4424  130.3994  149.6689 LP  0  0  0  0  0  0  0  0  0  0  0  0  # atno 17370 bound_to 10713
  156.3867  130.7606  151.2604 LP  0  0  0  0  0  0  0  0  0  0  0  0  # atno 17371 bound_to 10713
  140.0878  134.5643  155.8475 LP  0  0  0  0  0  0  0  0  0  0  0  0  # atno 17394 bound_to 11000
  141.2068  133.6659  156.6267 LP  0  0  0  0  0  0  0  0  0  0  0  0  # atno 17395 bound_to 11000

$$$$
