AV-unprocessed.smi:2247|AV-procd|sdf|9093|dock3
  -GOLD-   2272012293D 1   1.00000     0.00000
 Structure written by MMmdl.
 33 34  0  0  0  0  0  0  0  0  2 V2000
  152.5739  143.1356  160.9083 C   0  0  0  0  0  0  0  0  0  0  0  0
  152.8959  142.8233  159.4353 C   0  0  0  0  0  0  0  0  0  0  0  0
  152.7827  144.0757  158.5512 C   0  0  0  0  0  0  0  0  0  0  0  0
  152.0694  141.7378  158.8880 N   0  0  0  0  0  0  0  0  0  0  0  0
  150.6381  141.8752  158.6724 C   0  0  0  0  0  0  0  0  0  0  0  0
  150.2435  140.6407  157.8560 C   0  0  0  0  0  0  0  0  0  0  0  0
  151.4019  139.6384  157.9833 C   0  0  2  0  0  0  0  0  0  0  0  0
  151.0477  138.5919  158.9406 N   0  0  0  0  0  0  0  0  0  0  0  0
  150.1637  137.6036  158.7399 C   0  0  0  0  0  0  0  0  0  0  0  0
  149.5628  137.5237  157.6661 O   0  0  0  0  0  0  0  0  0  0  0  0
  150.0302  136.7717  159.7974 N   0  5  0  0  0  0  0  0  0  0  0  0
  148.8074  136.3717  160.1815 C   0  0  0  0  0  0  0  0  0  0  0  0
  147.9054  137.1043  160.8369 N   0  0  0  0  0  0  0  0  0  0  0  0
  146.8017  136.2826  161.0075 C   0  0  0  0  0  0  0  0  0  0  0  0
  147.0854  135.0739  160.4327 C   0  0  0  0  0  0  0  0  0  0  0  0
  148.3460  135.1189  159.9051 O   0  0  0  0  0  0  0  0  0  0  0  0
  152.5138  140.5189  158.5506 C   0  0  0  0  0  0  0  0  0  0  0  0
  153.6784  140.1317  158.6444 O   0  0  0  0  0  0  0  0  0  0  0  0
  153.2653  143.8795  161.3048 H   0  0  0  0  0  0  0  0  0  0  0  0
  152.6642  142.2441  161.5298 H   0  0  0  0  0  0  0  0  0  0  0  0
  151.5658  143.5326  161.0302 H   0  0  0  0  0  0  0  0  0  0  0  0
  153.9359  142.4931  159.4093 H   0  0  0  0  0  0  0  0  0  0  0  0
  153.4238  144.8760  158.9217 H   0  0  0  0  0  0  0  0  0  0  0  0
  151.7595  144.4519  158.5280 H   0  0  0  0  0  0  0  0  0  0  0  0
  153.0834  143.8651  157.5242 H   0  0  0  0  0  0  0  0  0  0  0  0
  150.1226  141.8780  159.6337 H   0  0  0  0  0  0  0  0  0  0  0  0
  150.3940  142.7985  158.1458 H   0  0  0  0  0  0  0  0  0  0  0  0
  149.2835  140.2309  158.1731 H   0  0  0  0  0  0  0  0  0  0  0  0
  150.1337  140.9251  156.8086 H   0  0  0  0  0  0  0  0  0  0  0  0
  151.6775  139.2253  157.0114 H   0  0  0  0  0  0  0  0  0  0  0  0
  151.5195  138.6139  159.8324 H   0  0  0  0  0  0  0  0  0  0  0  0
  145.9114  136.6196  161.5171 H   0  0  0  0  0  0  0  0  0  0  0  0
  146.5421  134.1478  160.3192 H   0  0  0  0  0  0  0  0  0  0  0  0
  1  2  1  0  0  0  0
  1 19  1  0  0  0  0
  1 20  1  0  0  0  0
  1 21  1  0  0  0  0
  2  3  1  0  0  0  0
  2  4  1  0  0  0  0
  2 22  1  0  0  0  0
  3 23  1  0  0  0  0
  3 24  1  0  0  0  0
  3 25  1  0  0  0  0
  4 17  1  0  0  0  0
  4  5  1  0  0  0  0
  5  6  1  0  0  0  0
  5 26  1  0  0  0  0
  5 27  1  0  0  0  0
  6  7  1  0  0  0  0
  6 28  1  0  0  0  0
  6 29  1  0  0  0  0
  7  8  1  0  0  0  0
  7 17  1  0  0  0  0
  7 30  1  0  0  0  0
  8  9  1  0  0  0  0
  8 31  1  0  0  0  0
  9 10  2  0  0  0  0
  9 11  1  0  0  0  0
 11 12  1  0  0  0  0
 12 16  1  0  0  0  0
 12 13  2  0  0  0  0
 13 14  1  0  0  0  0
 14 15  2  0  0  0  0
 14 32  1  0  0  0  0
 15 16  1  0  0  0  0
 15 33  1  0  0  0  0
 17 18  2  0  0  0  0
M  CHG  1  11  -1
M  END
> <s_m_source_file>
AV-unprocessed.smi

> <i_m_source_file_index>
2247

> <i_lp_mmshare_version>
43012

> <i_f3d_flags>
0

> <s_epik_input>
W0NIM11bQ0hdKFtDSDNdKU4xW0NIMl1bQ0gyXVtDQEhdKEMxPU8pW05IXUMoPU8pW05IXWMybltjSF1bY0hdbzI=

> <s_epik_cmdline>
J2VwaWtfcHl0aG9uJywgJy1waCcsICc3LjAnLCAnLXRuJywgJzgnLCAnLW1hJywgJzIwMCcsICctbWV0YWxfYmluZGluZycsICctaW1hZScsICc8aW5maWxlLm1hZT4nLCAnLW9tYWUnLCAnPG91dGZpbGUubWFlPic=

> <r_lp_tautomer_probability>
0.785861

> <r_epik_Ionization_Penalty>
8.37364

> <r_epik_Ionization_Penalty_Charging>
6.20178

> <r_epik_Ionization_Penalty_Neutral>
2.17186

> <r_epik_State_Penalty>
6.22234

> <r_epik_Charging_Adjusted_Penalty>
12.4241

> <i_epik_Tot_Q>
-1

> <i_epik_Tot_abs_Q>
1

> <r_epik_Metal_State_Penalty>
2.14252

> <b_epik_Metal_Only>
1

> <s_lp_Force_Field>
OPLS_2005

> <r_lp_Energy>
16.3016

> <b_lp_Chiralities_Consistent>
1

> <s_lp_Variant>
AV-unprocessed.smi:2247-8

> <Gold.Version>
5.8.1

> <Gold.Id.Protein>
6NUR|6NUR_protein|mol2

> <Gold.PLP.Fitness>
42.6251

> <Gold.PLP.PLP>
-30.9411

> <Gold.PLP.part.hbond>
-4.0215

> <Gold.PLP.part.metal>
0.0000

> <Gold.PLP.part.buried>
-3.5649

> <Gold.PLP.part.nonpolar>
-23.7475

> <Gold.PLP.part.repulsive>
0.1584

> <Gold.PLP.ligand.clash>
0.0000

> <Gold.PLP.ligand.torsion>
1.2114

> <Gold.PLP.Chemscore.Hbond>
4.6720

> <Gold.PLP.Chemscore.CHOScore>
0.0000

> <Gold.PLP.Chemscore.Metal>
0.0000

> <Gold.Chemscore.Hbonds>
donor molecule, donor type, donor heavy atom, donor atom, acceptor molecule, acceptor atom, score
      P1  H  6896  6909       L1    11  2.00
      P1  H  6931  6943       L1    13  0.91
      P1  H  6934  6947       L1    13  0.78
      P1  H  7997  8009       L1    18  0.94

> <Gold.PLP.Chemscore.Internal.Correction>
0.0908

> <Gold.Rescore>
     Score         DG    S(hbond)    S(metal)    S(lipo)     H(rot)  DE(clash)    DE(int)     intcor
     16.04     -17.22       2.40        0.00      60.75       1.32       0.03       1.16       ----

> <Gold.Chemscore.Fitness>
16.0352

> <Gold.Chemscore.DG>
-17.2212

> <Gold.Chemscore.ZeroCoef>
-5.4800

> <Gold.Chemscore.Hbond>
2.4005

> <Gold.Chemscore.Metal>
0.0000

> <Gold.Chemscore.Lipo>
60.7481

> <Gold.Chemscore.Internal_Hbond>
0.0000

> <Gold.Chemscore.DEClash>
0.0270

> <Gold.Chemscore.DEInternal>
1.1590

> <Gold.Chemscore.Rot>
1.3219

> <Gold.Chemscore.Internal.Correction>
   9.000000E+99

> <Gold.Chemscore.Hbonds>
donor molecule, donor type, donor heavy atom, donor atom, acceptor molecule, acceptor atom, score
      P1  H  6896  6909       L1    11  0.28
      P1  H  6931  6943       L1    13  0.30
      P1  H  6934  6947       L1    13  0.41
      P1  H  7997  8009       L1    18  0.91

> <Gold.Chemscore.Hbond.Weighted>
-8.0178

> <Gold.Chemscore.Metal.Weighted>
-0.0000

> <Gold.Chemscore.Lipo.Weighted>
-7.1075

> <Gold.Chemscore.Internal_Hbond.Weighted>
0.0000

> <Gold.Chemscore.DEClash.Weighted>
0.0270

> <Gold.Chemscore.DEInternal.Weighted>
1.1590

> <Gold.Chemscore.Rot.Weighted>
3.3842

> <Gold.Chemscore.Internal.Correction.Weighted>
   9.000000E+99

> <Gold.Protein.RotatedTorsions>
[ 6907 6896 6895 6894 ] final   85.51 input  -60.11 | X-H torsion
[ 7974 7965 7964 7962 ] final  155.79 input  175.53 | X-H torsion
[ 8008 7997 7996 7995 ] final  135.28 input   59.86 | X-H torsion
[ 10167 10162 10161 10158 ] final  164.23 input  -65.29 | X-H torsion
[ 10718 10713 10712 10709 ] final    7.41 input   66.30 | X-H torsion
[ 10763 10752 10751 10750 ] final   38.82 input  -60.55 | X-H torsion
[ 11005 11000 10999 10996 ] final  108.55 input  -57.11 | X-H torsion

> <Gold.Protein.ActiveResidues>
 VAL166  LYS551  ARG553  GLY616  TRP617  ASP618  TYR619  PRO620  LYS621  CYS622 
 ASP623  PHE694  ASN695  SER759  ASP760  ASP761  ALA762  ILE779  LEU786  VAL792 
 PHE793  MET794  SER795  GLU796  ALA797  LYS798  CYS799  TRP800  GLU811  SER814 

> <Gold.Protein.RotatedAtoms>
  152.5376  134.2575  159.8922 H   0  0  0  0  0  0  0  0  0  0  0  0  # atno 6907 bound_to 6896
  151.2536  133.4331  159.2620 H   0  0  0  0  0  0  0  0  0  0  0  0  # atno 6908 bound_to 6896
  151.0516  134.9691  159.8271 H   0  0  0  0  0  0  0  0  0  0  0  0  # atno 6909 bound_to 6896
  144.8003  139.7116  143.6185 H   0  0  0  0  0  0  0  0  0  0  0  0  # atno 7974 bound_to 7965
  156.3002  140.2475  156.3555 H   0  0  0  0  0  0  0  0  0  0  0  0  # atno 8008 bound_to 7997
  154.8925  140.0409  157.1866 H   0  0  0  0  0  0  0  0  0  0  0  0  # atno 8009 bound_to 7997
  154.8583  140.2916  155.5559 H   0  0  0  0  0  0  0  0  0  0  0  0  # atno 8010 bound_to 7997
  139.4886  144.4256  151.9133 H   0  0  0  0  0  0  0  0  0  0  0  0  # atno 10167 bound_to 10162
  156.9365  130.5845  149.5651 H   0  0  0  0  0  0  0  0  0  0  0  0  # atno 10718 bound_to 10713
  152.9988  135.6238  154.2366 H   0  0  0  0  0  0  0  0  0  0  0  0  # atno 10763 bound_to 10752
  154.2107  135.2800  155.2961 H   0  0  0  0  0  0  0  0  0  0  0  0  # atno 10764 bound_to 10752
  154.5609  135.5705  153.7065 H   0  0  0  0  0  0  0  0  0  0  0  0  # atno 10765 bound_to 10752
  139.8846  134.9433  156.5989 H   0  0  0  0  0  0  0  0  0  0  0  0  # atno 11005 bound_to 11000
  146.2282  139.5763  142.9573 LP  0  0  0  0  0  0  0  0  0  0  0  0  # atno 17320 bound_to 7965
  145.5570  141.0408  143.2247 LP  0  0  0  0  0  0  0  0  0  0  0  0  # atno 17321 bound_to 7965
  140.3702  144.2865  150.5921 LP  0  0  0  0  0  0  0  0  0  0  0  0  # atno 17342 bound_to 10162
  140.5326  143.2240  151.8215 LP  0  0  0  0  0  0  0  0  0  0  0  0  # atno 17343 bound_to 10162
  156.0424  130.5504  150.8801 LP  0  0  0  0  0  0  0  0  0  0  0  0  # atno 17370 bound_to 10713
  157.5813  131.0946  150.9266 LP  0  0  0  0  0  0  0  0  0  0  0  0  # atno 17371 bound_to 10713
  140.7899  133.8591  155.8637 LP  0  0  0  0  0  0  0  0  0  0  0  0  # atno 17394 bound_to 11000
  140.9687  134.1560  157.4595 LP  0  0  0  0  0  0  0  0  0  0  0  0  # atno 17395 bound_to 11000

$$$$
