AV-unprocessed.smi:2083|AV-procd|sdf|8492|dock2
  -GOLD-   2272011203D 1   1.00000     0.00000
 Structure written by MMmdl.
 45 46  0  0  0  0  0  0  0  0  2 V2000
  151.5810  139.4177  158.5296 C   0  0  0  0  0  0  0  0  0  0  0  0
  151.2361  139.4802  157.0810 C   0  0  0  0  0  0  0  0  0  0  0  0
  150.1112  139.1542  156.3763 C   0  0  0  0  0  0  0  0  0  0  0  0
  150.4733  139.4598  155.0374 C   0  0  0  0  0  0  0  0  0  0  0  0
  149.5609  139.2552  153.9710 N   0  0  0  0  0  0  0  0  0  0  0  0
  148.2349  139.0540  154.0568 C   0  0  0  0  0  0  0  0  0  0  0  0
  147.5878  139.0143  155.1038 O   0  0  0  0  0  0  0  0  0  0  0  0
  147.6833  138.8988  152.8443 N   0  0  0  0  0  0  0  0  0  0  0  0
  146.2593  138.6901  152.5964 C   0  0  0  0  0  0  0  0  0  0  0  0
  145.8913  137.1993  152.3493 C   0  0  2  0  0  0  0  0  0  0  0  0
  144.3898  136.9667  152.6330 C   0  0  0  0  0  0  0  0  0  0  0  0
  146.7153  136.2227  153.1363 N   0  3  2  0  0  0  0  0  0  0  0  0
  146.5061  134.7804  152.8149 C   0  0  0  0  0  0  0  0  0  0  0  0
  147.4979  133.8799  153.5704 C   0  0  0  0  0  0  0  0  0  0  0  0
  147.4337  134.1173  155.0832 C   0  0  0  0  0  0  0  0  0  0  0  0
  147.6088  135.6086  155.4125 C   0  0  1  0  0  0  0  0  0  0  0  0
  149.0569  136.0990  155.2365 C   0  0  0  0  0  0  0  0  0  0  0  0
  146.6031  136.4543  154.6066 C   0  0  0  0  0  0  0  0  0  0  0  0
  151.7060  139.9324  154.9340 N   0  0  0  0  0  0  0  0  0  0  0  0
  152.2011  139.9474  156.2432 O   0  0  0  0  0  0  0  0  0  0  0  0
  150.6968  139.2114  159.1329 H   0  0  0  0  0  0  0  0  0  0  0  0
  152.0067  140.3626  158.8676 H   0  0  0  0  0  0  0  0  0  0  0  0
  152.3109  138.6305  158.7184 H   0  0  0  0  0  0  0  0  0  0  0  0
  149.1826  138.7585  156.7602 H   0  0  0  0  0  0  0  0  0  0  0  0
  149.9603  139.2716  153.0444 H   0  0  0  0  0  0  0  0  0  0  0  0
  148.2866  138.9425  152.0356 H   0  0  0  0  0  0  0  0  0  0  0  0
  145.7209  139.0960  153.4540 H   0  0  0  0  0  0  0  0  0  0  0  0
  145.9802  139.2943  151.7323 H   0  0  0  0  0  0  0  0  0  0  0  0
  146.0749  136.9970  151.2927 H   0  0  0  0  0  0  0  0  0  0  0  0
  143.7583  137.6151  152.0258 H   0  0  0  0  0  0  0  0  0  0  0  0
  144.1538  137.1642  153.6791 H   0  0  0  0  0  0  0  0  0  0  0  0
  144.0720  135.9489  152.4137 H   0  0  0  0  0  0  0  0  0  0  0  0
  145.4789  134.4971  153.0501 H   0  0  0  0  0  0  0  0  0  0  0  0
  146.6625  134.5895  151.7542 H   0  0  0  0  0  0  0  0  0  0  0  0
  147.2850  132.8328  153.3531 H   0  0  0  0  0  0  0  0  0  0  0  0
  148.5095  134.0642  153.2077 H   0  0  0  0  0  0  0  0  0  0  0  0
  146.4669  133.7771  155.4564 H   0  0  0  0  0  0  0  0  0  0  0  0
  148.1874  133.5181  155.5954 H   0  0  0  0  0  0  0  0  0  0  0  0
  147.3688  135.7357  156.4690 H   0  0  0  0  0  0  0  0  0  0  0  0
  149.3863  136.0382  154.1993 H   0  0  0  0  0  0  0  0  0  0  0  0
  149.7468  135.5073  155.8388 H   0  0  0  0  0  0  0  0  0  0  0  0
  149.1578  137.1380  155.5516 H   0  0  0  0  0  0  0  0  0  0  0  0
  146.7533  137.5033  154.8550 H   0  0  0  0  0  0  0  0  0  0  0  0
  145.5872  136.2121  154.9232 H   0  0  0  0  0  0  0  0  0  0  0  0
  147.6751  136.4138  152.8864 H   0  0  0  0  0  0  0  0  0  0  0  0
  1  2  1  0  0  0  0
  1 21  1  0  0  0  0
  1 22  1  0  0  0  0
  1 23  1  0  0  0  0
  2 20  1  0  0  0  0
  2  3  2  0  0  0  0
  3  4  1  0  0  0  0
  3 24  1  0  0  0  0
  4  5  1  0  0  0  0
  4 19  2  0  0  0  0
  5  6  1  0  0  0  0
  5 25  1  0  0  0  0
  6  7  2  0  0  0  0
  6  8  1  0  0  0  0
  8  9  1  0  0  0  0
  8 26  1  0  0  0  0
  9 10  1  0  0  0  0
  9 27  1  0  0  0  0
  9 28  1  0  0  0  0
 10 11  1  0  0  0  0
 10 12  1  0  0  0  0
 10 29  1  0  0  0  0
 11 30  1  0  0  0  0
 11 31  1  0  0  0  0
 11 32  1  0  0  0  0
 12 18  1  0  0  0  0
 12 13  1  0  0  0  0
 12 45  1  0  0  0  0
 13 14  1  0  0  0  0
 13 33  1  0  0  0  0
 13 34  1  0  0  0  0
 14 15  1  0  0  0  0
 14 35  1  0  0  0  0
 14 36  1  0  0  0  0
 15 16  1  0  0  0  0
 15 37  1  0  0  0  0
 15 38  1  0  0  0  0
 16 17  1  0  0  0  0
 16 18  1  0  0  0  0
 16 39  1  0  0  0  0
 17 40  1  0  0  0  0
 17 41  1  0  0  0  0
 17 42  1  0  0  0  0
 18 43  1  0  0  0  0
 18 44  1  0  0  0  0
 19 20  1  0  0  0  0
M  CHG  1  12   1
M  END
> <s_m_source_file>
AV-unprocessed.smi

> <i_m_source_file_index>
2083

> <i_lp_mmshare_version>
43012

> <i_f3d_flags>
0

> <s_epik_input>
W0NIM11jMVtjSF1jKG5vMSlbTkhdQyg9TylbTkhdW0NIMl1bQ0BIXShbQ0gzXSlOMltDSDJdW0NIMl1bQ0gyXVtDQEBIXShbQ0gzXSlbQ0gyXTI=

> <s_epik_cmdline>
J2VwaWtfcHl0aG9uJywgJy1waCcsICc3LjAnLCAnLXRuJywgJzgnLCAnLW1hJywgJzIwMCcsICctbWV0YWxfYmluZGluZycsICctaW1hZScsICc8aW5maWxlLm1hZT4nLCAnLW9tYWUnLCAnPG91dGZpbGUubWFlPic=

> <r_epik_Ionization_Penalty>
0.00216453

> <r_epik_Ionization_Penalty_Charging>
0.00212879

> <r_epik_Ionization_Penalty_Neutral>
3.57418e-05

> <r_epik_State_Penalty>
0.00146033

> <r_epik_Charging_Adjusted_Penalty>
0.00358912

> <i_epik_Tot_Q>
1

> <i_epik_Tot_abs_Q>
1

> <r_epik_Metal_State_Penalty>
0.0215827

> <b_epik_Metal_Only>
0

> <s_lp_Force_Field>
OPLS_2005

> <r_lp_Energy>
21.6248

> <b_lp_Chiralities_Consistent>
1

> <s_lp_Variant>
AV-unprocessed.smi:2083-3

> <Gold.Version>
5.8.1

> <Gold.Id.Protein>
6NUR|6NUR_protein|mol2

> <Gold.PLP.Fitness>
39.2884

> <Gold.PLP.PLP>
-24.1555

> <Gold.PLP.part.hbond>
-6.0000

> <Gold.PLP.part.metal>
0.0000

> <Gold.PLP.part.buried>
-1.4647

> <Gold.PLP.part.nonpolar>
-17.3418

> <Gold.PLP.part.repulsive>
0.2941

> <Gold.PLP.ligand.clash>
0.0000

> <Gold.PLP.ligand.torsion>
0.4747

> <Gold.PLP.Chemscore.Hbond>
5.3360

> <Gold.PLP.Chemscore.CHOScore>
0.0000

> <Gold.PLP.Chemscore.Metal>
0.0000

> <Gold.Chemscore.Hbonds>
donor molecule, donor type, donor heavy atom, donor atom, acceptor molecule, acceptor atom, score
      L1  H     5    25       P1  7957  0.78
      L1  H     8    26       P1  7957  0.88
      L1  H    12    45       P1  7948  1.98
      P1  H  7989  7998       L1    19  1.00
      P1  H  7997  8010       L1    20  0.73

> <Gold.PLP.Chemscore.Internal.Correction>
0.0742

> <Gold.Rescore>
     Score         DG    S(hbond)    S(metal)    S(lipo)     H(rot)  DE(clash)    DE(int)     intcor
     17.03     -20.89       4.17        0.00      46.45       1.55       0.56       3.31       ----

> <Gold.Chemscore.Fitness>
17.0277

> <Gold.Chemscore.DG>
-20.8917

> <Gold.Chemscore.ZeroCoef>
-5.4800

> <Gold.Chemscore.Hbond>
4.1730

> <Gold.Chemscore.Metal>
0.0000

> <Gold.Chemscore.Lipo>
46.4538

> <Gold.Chemscore.Internal_Hbond>
0.0000

> <Gold.Chemscore.DEClash>
0.5589

> <Gold.Chemscore.DEInternal>
3.3051

> <Gold.Chemscore.Rot>
1.5474

> <Gold.Chemscore.Internal.Correction>
   9.000000E+99

> <Gold.Chemscore.Hbonds>
donor molecule, donor type, donor heavy atom, donor atom, acceptor molecule, acceptor atom, score
      L1  H     5    25       P1  7957  0.72
      L1  H     8    26       P1  7957  0.84
      L1  H    12    45       P1  7948  0.94
      P1  H  7989  7998       L1    19  0.43
      P1  H  7997  8010       L1    20  0.62

> <Gold.Chemscore.Hbond.Weighted>
-13.9378

> <Gold.Chemscore.Metal.Weighted>
-0.0000

> <Gold.Chemscore.Lipo.Weighted>
-5.4351

> <Gold.Chemscore.Internal_Hbond.Weighted>
0.0000

> <Gold.Chemscore.DEClash.Weighted>
0.5589

> <Gold.Chemscore.DEInternal.Weighted>
3.3051

> <Gold.Chemscore.Rot.Weighted>
3.9612

> <Gold.Chemscore.Internal.Correction.Weighted>
   9.000000E+99

> <Gold.Protein.RotatedTorsions>
[ 6907 6896 6895 6894 ] final  -31.25 input  -60.11 | X-H torsion
[ 7974 7965 7964 7962 ] final -148.22 input  175.53 | X-H torsion
[ 8008 7997 7996 7995 ] final   77.67 input   59.86 | X-H torsion
[ 10167 10162 10161 10158 ] final  100.86 input  -65.29 | X-H torsion
[ 10718 10713 10712 10709 ] final  -21.74 input   66.30 | X-H torsion
[ 10763 10752 10751 10750 ] final  -61.11 input  -60.55 | X-H torsion
[ 11005 11000 10999 10996 ] final   59.41 input  -57.11 | X-H torsion

> <Gold.Protein.ActiveResidues>
 VAL166  LYS551  ARG553  GLY616  TRP617  ASP618  TYR619  PRO620  LYS621  CYS622 
 ASP623  PHE694  ASN695  SER759  ASP760  ASP761  ALA762  ILE779  LEU786  VAL792 
 PHE793  MET794  SER795  GLU796  ALA797  LYS798  CYS799  TRP800  GLU811  SER814 

> <Gold.Protein.RotatedAtoms>
  151.0946  134.9936  159.8418 H   0  0  0  0  0  0  0  0  0  0  0  0  # atno 6907 bound_to 6896
  152.5432  134.2024  159.8727 H   0  0  0  0  0  0  0  0  0  0  0  0  # atno 6908 bound_to 6896
  151.2063  133.4538  159.2630 H   0  0  0  0  0  0  0  0  0  0  0  0  # atno 6909 bound_to 6896
  144.8043  140.5225  143.5685 H   0  0  0  0  0  0  0  0  0  0  0  0  # atno 7974 bound_to 7965
  155.8449  140.3460  155.5656 H   0  0  0  0  0  0  0  0  0  0  0  0  # atno 8008 bound_to 7997
  155.8100  140.0897  157.1929 H   0  0  0  0  0  0  0  0  0  0  0  0  # atno 8009 bound_to 7997
  154.4006  140.1449  156.3363 H   0  0  0  0  0  0  0  0  0  0  0  0  # atno 8010 bound_to 7997
  139.7489  144.6990  151.0461 H   0  0  0  0  0  0  0  0  0  0  0  0  # atno 10167 bound_to 10162
  156.5140  130.4617  149.6632 H   0  0  0  0  0  0  0  0  0  0  0  0  # atno 10718 bound_to 10713
  154.2795  135.6274  153.5341 H   0  0  0  0  0  0  0  0  0  0  0  0  # atno 10763 bound_to 10752
  152.9868  135.5629  154.5511 H   0  0  0  0  0  0  0  0  0  0  0  0  # atno 10764 bound_to 10752
  154.5099  135.2876  155.1327 H   0  0  0  0  0  0  0  0  0  0  0  0  # atno 10765 bound_to 10752
  140.0306  134.6018  155.9512 H   0  0  0  0  0  0  0  0  0  0  0  0  # atno 11005 bound_to 11000
  145.5476  139.1476  143.3412 LP  0  0  0  0  0  0  0  0  0  0  0  0  # atno 17320 bound_to 7965
  146.2331  140.5615  142.8966 LP  0  0  0  0  0  0  0  0  0  0  0  0  # atno 17321 bound_to 7965
  140.7795  143.4832  150.9990 LP  0  0  0  0  0  0  0  0  0  0  0  0  # atno 17342 bound_to 10162
  139.8520  143.7425  152.3177 LP  0  0  0  0  0  0  0  0  0  0  0  0  # atno 17343 bound_to 10162
  156.3213  130.7282  151.2194 LP  0  0  0  0  0  0  0  0  0  0  0  0  # atno 17370 bound_to 10713
  157.7446  131.0455  150.4846 LP  0  0  0  0  0  0  0  0  0  0  0  0  # atno 17371 bound_to 10713
  141.1829  133.6550  156.5093 LP  0  0  0  0  0  0  0  0  0  0  0  0  # atno 17394 bound_to 11000
  140.4232  134.7168  157.4901 LP  0  0  0  0  0  0  0  0  0  0  0  0  # atno 17395 bound_to 11000

$$$$
