AV-unprocessed.smi:1543|AV-procd|sdf|6205|dock6
  -GOLD-   22720 6373D 1   1.00000     0.00000
 Structure written by MMmdl.
 48 49  0  0  0  0  0  0  0  0  1 V2000
  151.6356  137.8941  154.2294 C   0  0  0  0  0  0  0  0  0  0  0  0
  150.5326  138.7290  154.8891 C   0  0  2  0  0  0  0  0  0  0  0  0
  149.1300  138.3181  154.4053 C   0  0  0  0  0  0  0  0  0  0  0  0
  148.0810  139.1766  154.9627 N   0  0  0  0  0  0  0  0  0  0  0  0
  146.6865  138.7382  154.6731 C   0  0  0  0  0  0  0  0  0  0  0  0
  146.3567  137.3457  155.2617 C   0  0  0  0  0  0  0  0  0  0  0  0
  145.6552  139.7388  155.2542 C   0  0  0  0  0  0  0  0  0  0  0  0
  146.4110  138.6717  153.1424 C   0  0  0  0  0  0  0  0  0  0  0  0
  146.6027  137.3258  152.6016 N   0  0  0  0  0  0  0  0  0  0  0  0
  145.6336  136.4897  152.2050 C   0  0  0  0  0  0  0  0  0  0  0  0
  144.4340  136.7550  152.2742 O   0  0  0  0  0  0  0  0  0  0  0  0
  146.1530  135.3402  151.7408 N   0  0  0  0  0  0  0  0  0  0  0  0
  145.4802  134.1886  151.2481 C   0  0  0  0  0  0  0  0  0  0  0  0
  146.0922  133.1640  150.4852 C   0  0  0  0  0  0  0  0  0  0  0  0
  145.3113  132.0686  150.0678 C   0  0  0  0  0  0  0  0  0  0  0  0
  143.9521  132.0325  150.4338 C   0  0  0  0  0  0  0  0  0  0  0  0
  143.3586  132.9944  151.1709 N   0  0  0  0  0  0  0  0  0  0  0  0
  144.1133  134.0415  151.5667 C   0  0  0  0  0  0  0  0  0  0  0  0
  148.3784  140.5674  154.6019 C   0  0  0  0  0  0  0  0  0  0  0  0
  149.7826  141.0113  155.0541 C   0  0  1  0  0  0  0  0  0  0  0  0
  149.8879  141.2250  156.5739 C   0  0  0  0  0  0  0  0  0  0  0  0
  150.7688  140.0985  154.5728 O   0  0  0  0  0  0  0  0  0  0  0  0
  151.5075  136.8331  154.4450 H   0  0  0  0  0  0  0  0  0  0  0  0
  152.6195  138.1906  154.5941 H   0  0  0  0  0  0  0  0  0  0  0  0
  151.6302  138.0189  153.1464 H   0  0  0  0  0  0  0  0  0  0  0  0
  150.5984  138.5909  155.9688 H   0  0  0  0  0  0  0  0  0  0  0  0
  149.1030  138.3535  153.3159 H   0  0  0  0  0  0  0  0  0  0  0  0
  148.9755  137.2795  154.6914 H   0  0  0  0  0  0  0  0  0  0  0  0
  145.3272  137.0616  155.0404 H   0  0  0  0  0  0  0  0  0  0  0  0
  146.4619  137.3223  156.3463 H   0  0  0  0  0  0  0  0  0  0  0  0
  146.9937  136.5635  154.8495 H   0  0  0  0  0  0  0  0  0  0  0  0
  144.6468  139.5271  154.8967 H   0  0  0  0  0  0  0  0  0  0  0  0
  145.8887  140.7665  154.9730 H   0  0  0  0  0  0  0  0  0  0  0  0
  145.6043  139.6978  156.3420 H   0  0  0  0  0  0  0  0  0  0  0  0
  145.3927  138.9837  152.9115 H   0  0  0  0  0  0  0  0  0  0  0  0
  147.0395  139.3946  152.6193 H   0  0  0  0  0  0  0  0  0  0  0  0
  147.5592  137.0196  152.4999 H   0  0  0  0  0  0  0  0  0  0  0  0
  147.1574  135.2569  151.8001 H   0  0  0  0  0  0  0  0  0  0  0  0
  147.1376  133.1852  150.2213 H   0  0  0  0  0  0  0  0  0  0  0  0
  145.7461  131.2714  149.4830 H   0  0  0  0  0  0  0  0  0  0  0  0
  143.3264  131.2062  150.1305 H   0  0  0  0  0  0  0  0  0  0  0  0
  143.6048  134.7909  152.1560 H   0  0  0  0  0  0  0  0  0  0  0  0
  148.3098  140.6902  153.5208 H   0  0  0  0  0  0  0  0  0  0  0  0
  147.6548  141.2531  155.0382 H   0  0  0  0  0  0  0  0  0  0  0  0
  149.9987  141.9701  154.5823 H   0  0  0  0  0  0  0  0  0  0  0  0
  149.2010  142.0053  156.9027 H   0  0  0  0  0  0  0  0  0  0  0  0
  150.8955  141.5319  156.8550 H   0  0  0  0  0  0  0  0  0  0  0  0
  149.6440  140.3222  157.1336 H   0  0  0  0  0  0  0  0  0  0  0  0
  1  2  1  0  0  0  0
  1 23  1  0  0  0  0
  1 24  1  0  0  0  0
  1 25  1  0  0  0  0
  2 22  1  0  0  0  0
  2  3  1  0  0  0  0
  2 26  1  0  0  0  0
  3  4  1  0  0  0  0
  3 27  1  0  0  0  0
  3 28  1  0  0  0  0
  4  5  1  0  0  0  0
  4 19  1  0  0  0  0
  5  6  1  0  0  0  0
  5  7  1  0  0  0  0
  5  8  1  0  0  0  0
  6 29  1  0  0  0  0
  6 30  1  0  0  0  0
  6 31  1  0  0  0  0
  7 32  1  0  0  0  0
  7 33  1  0  0  0  0
  7 34  1  0  0  0  0
  8  9  1  0  0  0  0
  8 35  1  0  0  0  0
  8 36  1  0  0  0  0
  9 10  1  0  0  0  0
  9 37  1  0  0  0  0
 10 11  2  0  0  0  0
 10 12  1  0  0  0  0
 12 13  1  0  0  0  0
 12 38  1  0  0  0  0
 13 18  1  0  0  0  0
 13 14  2  0  0  0  0
 14 15  1  0  0  0  0
 14 39  1  0  0  0  0
 15 16  2  0  0  0  0
 15 40  1  0  0  0  0
 16 17  1  0  0  0  0
 16 41  1  0  0  0  0
 17 18  2  0  0  0  0
 18 42  1  0  0  0  0
 19 20  1  0  0  0  0
 19 43  1  0  0  0  0
 19 44  1  0  0  0  0
 20 21  1  0  0  0  0
 20 22  1  0  0  0  0
 20 45  1  0  0  0  0
 21 46  1  0  0  0  0
 21 47  1  0  0  0  0
 21 48  1  0  0  0  0
M  END
> <s_m_source_file>
AV-unprocessed.smi

> <i_m_source_file_index>
1543

> <i_lp_mmshare_version>
43012

> <i_f3d_flags>
0

> <s_epik_input>
W0NIM11bQ0BASF0xW0NIMl1OKFtDSDJdW0NASF0oTzEpW0NIM10pQyhbQ0gzXSkoW0NIM10pW0NIMl1bTkhdQyg9TylbTkhdYzJbY0hdW2NIXVtjSF1uW2NIXTI=

> <s_epik_cmdline>
J2VwaWtfcHl0aG9uJywgJy1waCcsICc3LjAnLCAnLXRuJywgJzgnLCAnLW1hJywgJzIwMCcsICctbWV0YWxfYmluZGluZycsICctaW1hZScsICc8aW5maWxlLm1hZT4nLCAnLW9tYWUnLCAnPG91dGZpbGUubWFlPic=

> <r_epik_Ionization_Penalty>
0.270794

> <r_epik_Ionization_Penalty_Charging>
0

> <r_epik_Ionization_Penalty_Neutral>
0.270794

> <r_epik_State_Penalty>
0.268291

> <r_epik_Charging_Adjusted_Penalty>
0.268291

> <i_epik_Tot_Q>
0

> <i_epik_Tot_abs_Q>
0

> <r_epik_Metal_State_Penalty>
0.264827

> <b_epik_Metal_Only>
0

> <s_lp_Force_Field>
OPLS_2005

> <r_lp_Energy>
46.6988

> <b_lp_Chiralities_Consistent>
1

> <s_lp_Variant>
AV-unprocessed.smi:1543-1

> <Gold.Version>
5.8.1

> <Gold.Id.Protein>
6NUR|6NUR_protein|mol2

> <Gold.PLP.Fitness>
41.4225

> <Gold.PLP.PLP>
-35.0417

> <Gold.PLP.part.hbond>
-3.0000

> <Gold.PLP.part.metal>
0.0000

> <Gold.PLP.part.buried>
-7.3588

> <Gold.PLP.part.nonpolar>
-28.0698

> <Gold.PLP.part.repulsive>
1.3061

> <Gold.PLP.ligand.clash>
2.8119

> <Gold.PLP.ligand.torsion>
0.8817

> <Gold.PLP.Chemscore.Hbond>
2.9440

> <Gold.PLP.Chemscore.CHOScore>
0.6876

> <Gold.PLP.Chemscore.Metal>
0.0000

> <Gold.Chemscore.Hbonds>
donor molecule, donor type, donor heavy atom, donor atom, acceptor molecule, acceptor atom, score
      L1  H     9    37       P1  7948  1.00
      L1  H    12    38       P1  7948  0.94
      P1  H  7989  7998       L1    22  1.00
      L1  C    16    41       P1 10952  0.55

> <Gold.PLP.Chemscore.Internal.Correction>
0.0612

> <Gold.Rescore>
     Score         DG    S(hbond)    S(metal)    S(lipo)     H(rot)  DE(clash)    DE(int)     intcor
     19.63     -21.89       2.83        0.00      90.59       1.43       0.05       2.21       ----

> <Gold.Chemscore.Fitness>
19.6299

> <Gold.Chemscore.DG>
-21.8850

> <Gold.Chemscore.ZeroCoef>
-5.4800

> <Gold.Chemscore.Hbond>
2.8336

> <Gold.Chemscore.Metal>
0.0000

> <Gold.Chemscore.Lipo>
90.5925

> <Gold.Chemscore.Internal_Hbond>
0.0000

> <Gold.Chemscore.DEClash>
0.0495

> <Gold.Chemscore.DEInternal>
2.2056

> <Gold.Chemscore.Rot>
1.4291

> <Gold.Chemscore.Internal.Correction>
   9.000000E+99

> <Gold.Chemscore.Hbonds>
donor molecule, donor type, donor heavy atom, donor atom, acceptor molecule, acceptor atom, score
      L1  H     9    37       P1  7948  1.00
      L1  H    12    38       P1  7948  0.87
      P1  H  7989  7998       L1    22  0.59

> <Gold.Chemscore.Hbond.Weighted>
-9.4643

> <Gold.Chemscore.Metal.Weighted>
-0.0000

> <Gold.Chemscore.Lipo.Weighted>
-10.5993

> <Gold.Chemscore.Internal_Hbond.Weighted>
0.0000

> <Gold.Chemscore.DEClash.Weighted>
0.0495

> <Gold.Chemscore.DEInternal.Weighted>
2.2056

> <Gold.Chemscore.Rot.Weighted>
3.6586

> <Gold.Chemscore.Internal.Correction.Weighted>
   9.000000E+99

> <Gold.Protein.RotatedTorsions>
[ 6907 6896 6895 6894 ] final  148.53 input  -60.11 | X-H torsion
[ 7974 7965 7964 7962 ] final   30.55 input  175.53 | X-H torsion
[ 8008 7997 7996 7995 ] final   24.50 input   59.86 | X-H torsion
[ 10167 10162 10161 10158 ] final -172.20 input  -65.29 | X-H torsion
[ 10718 10713 10712 10709 ] final   10.23 input   66.30 | X-H torsion
[ 10763 10752 10751 10750 ] final  125.07 input  -60.55 | X-H torsion
[ 11005 11000 10999 10996 ] final -162.39 input  -57.11 | X-H torsion

> <Gold.Protein.ActiveResidues>
 VAL166  LYS551  ARG553  GLY616  TRP617  ASP618  TYR619  PRO620  LYS621  CYS622 
 ASP623  PHE694  ASN695  SER759  ASP760  ASP761  ALA762  ILE779  LEU786  VAL792 
 PHE793  MET794  SER795  GLU796  ALA797  LYS798  CYS799  TRP800  GLU811  SER814 

> <Gold.Protein.RotatedAtoms>
  152.1402  133.4459  159.4763 H   0  0  0  0  0  0  0  0  0  0  0  0  # atno 6907 bound_to 6896
  150.6885  134.2314  159.4445 H   0  0  0  0  0  0  0  0  0  0  0  0  # atno 6908 bound_to 6896
  152.0204  134.9825  160.0621 H   0  0  0  0  0  0  0  0  0  0  0  0  # atno 6909 bound_to 6896
  146.1605  139.6774  142.9037 H   0  0  0  0  0  0  0  0  0  0  0  0  # atno 7974 bound_to 7965
  154.9972  140.3121  155.4882 H   0  0  0  0  0  0  0  0  0  0  0  0  # atno 8008 bound_to 7997
  156.2931  140.2238  156.5020 H   0  0  0  0  0  0  0  0  0  0  0  0  # atno 8009 bound_to 7997
  154.7651  140.0456  157.0993 H   0  0  0  0  0  0  0  0  0  0  0  0  # atno 8010 bound_to 7997
  139.5758  144.1536  152.1448 H   0  0  0  0  0  0  0  0  0  0  0  0  # atno 10167 bound_to 10162
  156.9779  130.5994  149.5674 H   0  0  0  0  0  0  0  0  0  0  0  0  # atno 10718 bound_to 10713
  153.6714  135.3329  155.3154 H   0  0  0  0  0  0  0  0  0  0  0  0  # atno 10763 bound_to 10752
  154.8490  135.4387  154.1701 H   0  0  0  0  0  0  0  0  0  0  0  0  # atno 10764 bound_to 10752
  153.2693  135.6999  153.7573 H   0  0  0  0  0  0  0  0  0  0  0  0  # atno 10765 bound_to 10752
  140.6098  134.4861  157.5214 H   0  0  0  0  0  0  0  0  0  0  0  0  # atno 11005 bound_to 11000
  145.4600  141.0432  143.2757 LP  0  0  0  0  0  0  0  0  0  0  0  0  # atno 17320 bound_to 7965
  144.8021  139.6122  143.7067 LP  0  0  0  0  0  0  0  0  0  0  0  0  # atno 17321 bound_to 7965
  140.1078  144.5483  150.6945 LP  0  0  0  0  0  0  0  0  0  0  0  0  # atno 17342 bound_to 10162
  140.7040  143.2455  151.4779 LP  0  0  0  0  0  0  0  0  0  0  0  0  # atno 17343 bound_to 10162
  156.0256  130.5350  150.8397 LP  0  0  0  0  0  0  0  0  0  0  0  0  # atno 17370 bound_to 10713
  157.5547  131.0944  150.9646 LP  0  0  0  0  0  0  0  0  0  0  0  0  # atno 17371 bound_to 10713
  139.9197  134.8174  156.1251 LP  0  0  0  0  0  0  0  0  0  0  0  0  # atno 17394 bound_to 11000
  141.0816  133.6752  156.2347 LP  0  0  0  0  0  0  0  0  0  0  0  0  # atno 17395 bound_to 11000

$$$$
