AV-unprocessed.smi:3235|AV-procd|sdf|12360|dock4
  -GOLD-   2272018223D 1   1.00000     0.00000
 Structure written by MMmdl.
 41 42  0  0  0  0  0  0  0  0  2 V2000
  145.5296  131.8435  151.2549 C   0  0  0  0  0  0  0  0  0  0  0  0
  145.2767  133.2966  150.9736 C   0  0  0  0  0  0  0  0  0  0  0  0
  144.0816  133.8947  150.4824 C   0  0  0  0  0  0  0  0  0  0  0  0
  144.1838  135.2064  150.3409 N   0  0  0  0  0  0  0  0  0  0  0  0
  145.4435  135.4907  150.7330 N   0  0  0  0  0  0  0  0  0  0  0  0
  145.9118  136.8627  150.7061 C   0  0  0  0  0  0  0  0  0  0  0  0
  145.8274  137.5181  152.0921 C   0  0  0  0  0  0  0  0  0  0  0  0
  146.9898  138.3927  152.3397 N   0  3  0  0  0  0  0  0  0  0  0  0
  147.0101  138.9900  153.6889 C   0  0  0  0  0  0  0  0  0  0  0  0
  148.4367  139.3694  154.1056 C   0  0  0  0  0  0  0  0  0  0  0  0
  149.2367  138.1588  154.6161 C   0  0  0  0  0  0  0  0  0  0  0  0
  150.6014  138.5257  154.9855 N   0  0  0  0  0  0  0  0  0  0  0  0
  150.8853  139.8155  155.5922 C   0  0  0  0  0  0  0  0  0  0  0  0
  152.4172  139.8941  155.6642 C   0  0  0  0  0  0  0  0  0  0  0  0
  152.9207  138.4700  155.4037 C   0  0  0  0  0  0  0  0  0  0  0  0
  151.6878  137.7506  154.8837 C   0  0  0  0  0  0  0  0  0  0  0  0
  151.7214  136.6052  154.4364 O   0  0  0  0  0  0  0  0  0  0  0  0
  146.1246  134.3574  151.1243 C   0  0  0  0  0  0  0  0  0  0  0  0
  145.1031  131.2037  150.4820 H   0  0  0  0  0  0  0  0  0  0  0  0
  145.0915  131.5363  152.2046 H   0  0  0  0  0  0  0  0  0  0  0  0
  146.5952  131.6190  151.3042 H   0  0  0  0  0  0  0  0  0  0  0  0
  143.1481  133.4161  150.2249 H   0  0  0  0  0  0  0  0  0  0  0  0
  146.9393  136.8705  150.3389 H   0  0  0  0  0  0  0  0  0  0  0  0
  145.3123  137.4199  149.9847 H   0  0  0  0  0  0  0  0  0  0  0  0
  144.9114  138.1054  152.1718 H   0  0  0  0  0  0  0  0  0  0  0  0
  145.7878  136.7525  152.8684 H   0  0  0  0  0  0  0  0  0  0  0  0
  147.8317  137.8482  152.2179 H   0  0  0  0  0  0  0  0  0  0  0  0
  146.3705  139.8734  153.7007 H   0  0  0  0  0  0  0  0  0  0  0  0
  146.5911  138.2781  154.4014 H   0  0  0  0  0  0  0  0  0  0  0  0
  148.9510  139.8192  153.2552 H   0  0  0  0  0  0  0  0  0  0  0  0
  148.3990  140.1330  154.8837 H   0  0  0  0  0  0  0  0  0  0  0  0
  148.7355  137.7206  155.4802 H   0  0  0  0  0  0  0  0  0  0  0  0
  149.2699  137.3796  153.8530 H   0  0  0  0  0  0  0  0  0  0  0  0
  150.4654  140.6326  155.0041 H   0  0  0  0  0  0  0  0  0  0  0  0
  150.4452  139.8497  156.5899 H   0  0  0  0  0  0  0  0  0  0  0  0
  152.7947  140.5672  154.8933 H   0  0  0  0  0  0  0  0  0  0  0  0
  152.7563  140.2767  156.6274 H   0  0  0  0  0  0  0  0  0  0  0  0
  153.7331  138.4463  154.6767 H   0  0  0  0  0  0  0  0  0  0  0  0
  153.2584  137.9926  156.3239 H   0  0  0  0  0  0  0  0  0  0  0  0
  147.1465  134.3970  151.4718 H   0  0  0  0  0  0  0  0  0  0  0  0
  146.9844  139.1373  151.6573 H   0  0  0  0  0  0  0  0  0  0  0  0
  1  2  1  0  0  0  0
  1 19  1  0  0  0  0
  1 20  1  0  0  0  0
  1 21  1  0  0  0  0
  2 18  2  0  0  0  0
  2  3  1  0  0  0  0
  3  4  2  0  0  0  0
  3 22  1  0  0  0  0
  4  5  1  0  0  0  0
  5  6  1  0  0  0  0
  5 18  1  0  0  0  0
  6  7  1  0  0  0  0
  6 23  1  0  0  0  0
  6 24  1  0  0  0  0
  7  8  1  0  0  0  0
  7 25  1  0  0  0  0
  7 26  1  0  0  0  0
  8  9  1  0  0  0  0
  8 27  1  0  0  0  0
  8 41  1  0  0  0  0
  9 10  1  0  0  0  0
  9 28  1  0  0  0  0
  9 29  1  0  0  0  0
 10 11  1  0  0  0  0
 10 30  1  0  0  0  0
 10 31  1  0  0  0  0
 11 12  1  0  0  0  0
 11 32  1  0  0  0  0
 11 33  1  0  0  0  0
 12 16  1  0  0  0  0
 12 13  1  0  0  0  0
 13 14  1  0  0  0  0
 13 34  1  0  0  0  0
 13 35  1  0  0  0  0
 14 15  1  0  0  0  0
 14 36  1  0  0  0  0
 14 37  1  0  0  0  0
 15 16  1  0  0  0  0
 15 38  1  0  0  0  0
 15 39  1  0  0  0  0
 16 17  2  0  0  0  0
 18 40  1  0  0  0  0
M  CHG  1   8   1
M  END
> <s_m_source_file>
AV-unprocessed.smi

> <i_m_source_file_index>
3235

> <i_lp_mmshare_version>
43012

> <i_f3d_flags>
0

> <s_epik_input>
W0NIM11jMVtjSF1ubihbY0hdMSlbQ0gyXVtDSDJdW05IXVtDSDJdW0NIMl1bQ0gyXU4yW0NIMl1bQ0gyXVtDSDJdQzI9Tw==

> <s_epik_cmdline>
J2VwaWtfcHl0aG9uJywgJy1waCcsICc3LjAnLCAnLXRuJywgJzgnLCAnLW1hJywgJzIwMCcsICctbWV0YWxfYmluZGluZycsICctaW1hZScsICc8aW5maWxlLm1hZT4nLCAnLW9tYWUnLCAnPG91dGZpbGUubWFlPic=

> <r_lp_tautomer_probability>
1

> <r_epik_Ionization_Penalty>
0.00490609

> <r_epik_Ionization_Penalty_Charging>
0.00490019

> <r_epik_Ionization_Penalty_Neutral>
5.89696e-06

> <r_epik_State_Penalty>
-0

> <r_epik_Charging_Adjusted_Penalty>
0.00490019

> <i_epik_Tot_Q>
1

> <i_epik_Tot_abs_Q>
1

> <r_epik_Metal_State_Penalty>
-0

> <b_epik_Metal_Only>
0

> <s_lp_Force_Field>
OPLS_2005

> <r_lp_Energy>
17.6896

> <b_lp_Chiralities_Consistent>
1

> <s_lp_Variant>
AV-unprocessed.smi:3235-1

> <Gold.Version>
5.8.1

> <Gold.Id.Protein>
6NUR|6NUR_protein|mol2

> <Gold.PLP.Fitness>
45.4440

> <Gold.PLP.PLP>
-32.7441

> <Gold.PLP.part.hbond>
-2.1081

> <Gold.PLP.part.metal>
0.0000

> <Gold.PLP.part.buried>
0.5312

> <Gold.PLP.part.nonpolar>
-32.3244

> <Gold.PLP.part.repulsive>
1.0242

> <Gold.PLP.ligand.clash>
0.0000

> <Gold.PLP.ligand.torsion>
1.1608

> <Gold.PLP.Chemscore.Hbond>
3.0000

> <Gold.PLP.Chemscore.CHOScore>
1.9564

> <Gold.PLP.Chemscore.Metal>
0.0000

> <Gold.Chemscore.Hbonds>
donor molecule, donor type, donor heavy atom, donor atom, acceptor molecule, acceptor atom, score
      L1  H     8    27       P1  7948  2.00
      P1  H 10752 10765       L1    17  1.00
      L1  C     3    22       P1 10186  0.99
      L1  C    18    40       P1  7948  0.96

> <Gold.PLP.Chemscore.Internal.Correction>
0.1523

> <Gold.Rescore>
     Score         DG    S(hbond)    S(metal)    S(lipo)     H(rot)  DE(clash)    DE(int)     intcor
     14.14     -16.16       1.98        0.00      81.99       2.16       0.80       1.22       ----

> <Gold.Chemscore.Fitness>
14.1386

> <Gold.Chemscore.DG>
-16.1621

> <Gold.Chemscore.ZeroCoef>
-5.4800

> <Gold.Chemscore.Hbond>
1.9816

> <Gold.Chemscore.Metal>
0.0000

> <Gold.Chemscore.Lipo>
81.9893

> <Gold.Chemscore.Internal_Hbond>
0.0000

> <Gold.Chemscore.DEClash>
0.8017

> <Gold.Chemscore.DEInternal>
1.2218

> <Gold.Chemscore.Rot>
2.1598

> <Gold.Chemscore.Internal.Correction>
   9.000000E+99

> <Gold.Chemscore.Hbonds>
donor molecule, donor type, donor heavy atom, donor atom, acceptor molecule, acceptor atom, score
      L1  H     8    27       P1  7948  0.97
      P1  H 10752 10765       L1    17  0.96

> <Gold.Chemscore.Hbond.Weighted>
-6.6185

> <Gold.Chemscore.Metal.Weighted>
-0.0000

> <Gold.Chemscore.Lipo.Weighted>
-9.5927

> <Gold.Chemscore.Internal_Hbond.Weighted>
0.0000

> <Gold.Chemscore.DEClash.Weighted>
0.8017

> <Gold.Chemscore.DEInternal.Weighted>
1.2218

> <Gold.Chemscore.Rot.Weighted>
5.5291

> <Gold.Chemscore.Internal.Correction.Weighted>
   9.000000E+99

> <Gold.Protein.RotatedTorsions>
[ 6907 6896 6895 6894 ] final -110.20 input  -60.11 | X-H torsion
[ 7974 7965 7964 7962 ] final -122.49 input  175.53 | X-H torsion
[ 8008 7997 7996 7995 ] final    3.37 input   59.86 | X-H torsion
[ 10167 10162 10161 10158 ] final   42.42 input  -65.29 | X-H torsion
[ 10718 10713 10712 10709 ] final   62.42 input   66.30 | X-H torsion
[ 10763 10752 10751 10750 ] final  177.65 input  -60.55 | X-H torsion
[ 11005 11000 10999 10996 ] final  166.35 input  -57.11 | X-H torsion

> <Gold.Protein.ActiveResidues>
 VAL166  LYS551  ARG553  GLY616  TRP617  ASP618  TYR619  PRO620  LYS621  CYS622 
 ASP623  PHE694  ASN695  SER759  ASP760  ASP761  ALA762  ILE779  LEU786  VAL792 
 PHE793  MET794  SER795  GLU796  ALA797  LYS798  CYS799  TRP800  GLU811  SER814 

> <Gold.Protein.RotatedAtoms>
  150.7610  133.9417  159.3457 H   0  0  0  0  0  0  0  0  0  0  0  0  # atno 6907 bound_to 6896
  151.7325  135.0869  160.0312 H   0  0  0  0  0  0  0  0  0  0  0  0  # atno 6908 bound_to 6896
  152.3580  133.6224  159.6030 H   0  0  0  0  0  0  0  0  0  0  0  0  # atno 6909 bound_to 6896
  145.0289  140.8051  143.4335 H   0  0  0  0  0  0  0  0  0  0  0  0  # atno 7974 bound_to 7965
  154.7029  140.2677  155.6702 H   0  0  0  0  0  0  0  0  0  0  0  0  # atno 8008 bound_to 7997
  156.2771  140.2768  156.1569 H   0  0  0  0  0  0  0  0  0  0  0  0  # atno 8009 bound_to 7997
  155.0740  140.0372  157.2608 H   0  0  0  0  0  0  0  0  0  0  0  0  # atno 8010 bound_to 7997
  140.3545  144.2307  150.6143 H   0  0  0  0  0  0  0  0  0  0  0  0  # atno 10167 bound_to 10162
  157.5899  130.9049  149.9586 H   0  0  0  0  0  0  0  0  0  0  0  0  # atno 10718 bound_to 10713
  154.4973  135.2782  155.1449 H   0  0  0  0  0  0  0  0  0  0  0  0  # atno 10763 bound_to 10752
  154.3097  135.6231  153.5464 H   0  0  0  0  0  0  0  0  0  0  0  0  # atno 10764 bound_to 10752
  152.9897  135.5716  154.5408 H   0  0  0  0  0  0  0  0  0  0  0  0  # atno 10765 bound_to 10752
  140.2655  134.7868  157.3629 H   0  0  0  0  0  0  0  0  0  0  0  0  # atno 11005 bound_to 11000
  145.1796  139.2359  143.5299 LP  0  0  0  0  0  0  0  0  0  0  0  0  # atno 17320 bound_to 7965
  146.3496  140.1567  142.8591 LP  0  0  0  0  0  0  0  0  0  0  0  0  # atno 17321 bound_to 7965
  140.5187  143.2271  151.8423 LP  0  0  0  0  0  0  0  0  0  0  0  0  # atno 17342 bound_to 10162
  139.4822  144.4863  151.9242 LP  0  0  0  0  0  0  0  0  0  0  0  0  # atno 17343 bound_to 10162
  156.0953  130.3660  150.0318 LP  0  0  0  0  0  0  0  0  0  0  0  0  # atno 17370 bound_to 10713
  156.8443  130.9436  151.3630 LP  0  0  0  0  0  0  0  0  0  0  0  0  # atno 17371 bound_to 10713
  140.1423  134.4956  155.8022 LP  0  0  0  0  0  0  0  0  0  0  0  0  # atno 17394 bound_to 11000
  141.2184  133.6830  156.7232 LP  0  0  0  0  0  0  0  0  0  0  0  0  # atno 17395 bound_to 11000

$$$$
