AV-unprocessed.smi:1308|AV-procd|sdf|5438|dock5
  -GOLD-   22720 5 03D 1   1.00000     0.00000
 Structure written by MMmdl.
 45 45  0  0  0  0  0  0  0  0  1 V2000
  150.5579  135.6675  154.9743 C   0  0  0  0  0  0  0  0  0  0  0  0
  150.3764  137.1583  155.1631 C   0  0  0  0  0  0  0  0  0  0  0  0
  149.2352  137.7234  155.3812 N   0  0  0  0  0  0  0  0  0  0  0  0
  149.1932  139.1138  155.5517 C   0  0  0  0  0  0  0  0  0  0  0  0
  147.8197  139.6933  155.8412 C   0  0  0  0  0  0  0  0  0  0  0  0
  150.3231  139.8785  155.4859 C   0  0  0  0  0  0  0  0  0  0  0  0
  150.3186  141.3901  155.7214 C   0  0  0  0  0  0  0  0  0  0  0  0
  151.0142  141.8281  157.0105 C   0  0  0  0  0  0  0  0  0  0  0  0
  151.7642  141.0538  157.6038 O   0  0  0  0  0  0  0  0  0  0  0  0
  150.7921  143.0956  157.3917 N   0  0  0  0  0  0  0  0  0  0  0  0
  151.5611  143.8410  158.3837 C   0  0  2  0  0  0  0  0  0  0  0  0
  152.8609  144.3518  157.7476 C   0  0  0  0  0  0  0  0  0  0  0  0
  151.8327  142.9381  159.6046 C   0  0  0  0  0  0  0  0  0  0  0  0
  152.5406  143.6670  160.7665 C   0  0  0  0  0  0  0  0  0  0  0  0
  152.5841  142.8765  162.0885 C   0  0  0  0  0  0  0  0  0  0  0  0
  152.9792  143.7591  163.2850 C   0  0  0  0  0  0  0  0  0  0  0  0
  153.5477  141.6858  161.9689 C   0  0  0  0  0  0  0  0  0  0  0  0
  151.6197  139.2223  155.2271 C   0  0  0  0  0  0  0  0  0  0  0  0
  152.6967  139.8115  155.1558 O   0  0  0  0  0  0  0  0  0  0  0  0
  151.5658  137.8795  155.0817 N   0  0  0  0  0  0  0  0  0  0  0  0
  152.4279  137.3834  154.9081 H   0  0  0  0  0  0  0  0  0  0  0  0
  150.2486  135.1359  155.8744 H   0  0  0  0  0  0  0  0  0  0  0  0
  151.5977  135.4116  154.7659 H   0  0  0  0  0  0  0  0  0  0  0  0
  149.9471  135.3176  154.1418 H   0  0  0  0  0  0  0  0  0  0  0  0
  147.5602  140.4588  155.1101 H   0  0  0  0  0  0  0  0  0  0  0  0
  147.7943  140.1373  156.8364 H   0  0  0  0  0  0  0  0  0  0  0  0
  147.0492  138.9224  155.8018 H   0  0  0  0  0  0  0  0  0  0  0  0
  150.7750  141.9174  154.8830 H   0  0  0  0  0  0  0  0  0  0  0  0
  149.2871  141.7419  155.7437 H   0  0  0  0  0  0  0  0  0  0  0  0
  150.1303  143.6315  156.8486 H   0  0  0  0  0  0  0  0  0  0  0  0
  150.9960  144.7097  158.7255 H   0  0  0  0  0  0  0  0  0  0  0  0
  153.4478  144.9273  158.4639 H   0  0  0  0  0  0  0  0  0  0  0  0
  152.6527  145.0009  156.8964 H   0  0  0  0  0  0  0  0  0  0  0  0
  153.4819  143.5278  157.3943 H   0  0  0  0  0  0  0  0  0  0  0  0
  150.8865  142.5210  159.9499 H   0  0  0  0  0  0  0  0  0  0  0  0
  152.4433  142.0899  159.2932 H   0  0  0  0  0  0  0  0  0  0  0  0
  153.5598  143.8953  160.4522 H   0  0  0  0  0  0  0  0  0  0  0  0
  152.0655  144.6288  160.9564 H   0  0  0  0  0  0  0  0  0  0  0  0
  151.5884  142.4736  162.2783 H   0  0  0  0  0  0  0  0  0  0  0  0
  153.9518  144.2265  163.1283 H   0  0  0  0  0  0  0  0  0  0  0  0
  153.0386  143.1713  164.2013 H   0  0  0  0  0  0  0  0  0  0  0  0
  152.2525  144.5513  163.4613 H   0  0  0  0  0  0  0  0  0  0  0  0
  154.5669  142.0204  161.7713 H   0  0  0  0  0  0  0  0  0  0  0  0
  153.2531  141.0199  161.1573 H   0  0  0  0  0  0  0  0  0  0  0  0
  153.5624  141.0967  162.8863 H   0  0  0  0  0  0  0  0  0  0  0  0
  1  2  1  0  0  0  0
  1 22  1  0  0  0  0
  1 23  1  0  0  0  0
  1 24  1  0  0  0  0
  2 20  1  0  0  0  0
  2  3  2  0  0  0  0
  3  4  1  0  0  0  0
  4  5  1  0  0  0  0
  4  6  2  0  0  0  0
  5 25  1  0  0  0  0
  5 26  1  0  0  0  0
  5 27  1  0  0  0  0
  6  7  1  0  0  0  0
  6 18  1  0  0  0  0
  7  8  1  0  0  0  0
  7 28  1  0  0  0  0
  7 29  1  0  0  0  0
  8  9  2  0  0  0  0
  8 10  1  0  0  0  0
 10 11  1  0  0  0  0
 10 30  1  0  0  0  0
 11 12  1  0  0  0  0
 11 13  1  0  0  0  0
 11 31  1  0  0  0  0
 12 32  1  0  0  0  0
 12 33  1  0  0  0  0
 12 34  1  0  0  0  0
 13 14  1  0  0  0  0
 13 35  1  0  0  0  0
 13 36  1  0  0  0  0
 14 15  1  0  0  0  0
 14 37  1  0  0  0  0
 14 38  1  0  0  0  0
 15 16  1  0  0  0  0
 15 17  1  0  0  0  0
 15 39  1  0  0  0  0
 16 40  1  0  0  0  0
 16 41  1  0  0  0  0
 16 42  1  0  0  0  0
 17 43  1  0  0  0  0
 17 44  1  0  0  0  0
 17 45  1  0  0  0  0
 18 19  2  0  0  0  0
 18 20  1  0  0  0  0
 20 21  1  0  0  0  0
M  END
> <s_m_source_file>
AV-unprocessed.smi

> <i_m_source_file_index>
1308

> <i_lp_mmshare_version>
43012

> <i_f3d_flags>
0

> <s_epik_input>
W0NIM11jMW5jKFtDSDNdKWMoYyg9TylbbkhdMSlbQ0gyXUMoPU8pW05IXVtDQEhdKFtDSDNdKVtDSDJdW0NIMl1bQ0hdKFtDSDNdKVtDSDNd

> <s_epik_cmdline>
J2VwaWtfcHl0aG9uJywgJy1waCcsICc3LjAnLCAnLXRuJywgJzgnLCAnLW1hJywgJzIwMCcsICctbWV0YWxfYmluZGluZycsICctaW1hZScsICc8aW5maWxlLm1hZT4nLCAnLW9tYWUnLCAnPG91dGZpbGUubWFlPic=

> <r_lp_tautomer_probability>
0.839158

> <r_epik_Ionization_Penalty>
0.000390633

> <r_epik_Ionization_Penalty_Charging>
0.00035831

> <r_epik_Ionization_Penalty_Neutral>
3.23235e-05

> <r_epik_State_Penalty>
0.0470222

> <r_epik_Charging_Adjusted_Penalty>
0.0473805

> <i_epik_Tot_Q>
0

> <i_epik_Tot_abs_Q>
0

> <r_epik_Metal_State_Penalty>
0.223807

> <b_epik_Metal_Only>
0

> <s_lp_Force_Field>
OPLS_2005

> <r_lp_Energy>
5.21456

> <b_lp_Chiralities_Consistent>
1

> <s_lp_Variant>
AV-unprocessed.smi:1308-1

> <Gold.Version>
5.8.1

> <Gold.Id.Protein>
6NUR|6NUR_protein|mol2

> <Gold.PLP.Fitness>
47.2711

> <Gold.PLP.PLP>
-42.2160

> <Gold.PLP.part.hbond>
-3.0000

> <Gold.PLP.part.metal>
0.0000

> <Gold.PLP.part.buried>
-3.2214

> <Gold.PLP.part.nonpolar>
-35.7556

> <Gold.PLP.part.repulsive>
0.2524

> <Gold.PLP.ligand.clash>
0.0276

> <Gold.PLP.ligand.torsion>
0.6006

> <Gold.PLP.Chemscore.Hbond>
2.0451

> <Gold.PLP.Chemscore.CHOScore>
0.0000

> <Gold.PLP.Chemscore.Metal>
0.0000

> <Gold.Chemscore.Hbonds>
donor molecule, donor type, donor heavy atom, donor atom, acceptor molecule, acceptor atom, score
      L1  H    10    30       P1  8028  1.00
      P1  H  7989  7998       L1    19  0.05
      P1  H  7997  8008       L1    19  1.00

> <Gold.PLP.Chemscore.Internal.Correction>
0.1485

> <Gold.Rescore>
     Score         DG    S(hbond)    S(metal)    S(lipo)     H(rot)  DE(clash)    DE(int)     intcor
     14.15     -19.37       1.92        0.00     107.36       1.98       1.30       3.92       ----

> <Gold.Chemscore.Fitness>
14.1524

> <Gold.Chemscore.DG>
-19.3715

> <Gold.Chemscore.ZeroCoef>
-5.4800

> <Gold.Chemscore.Hbond>
1.9185

> <Gold.Chemscore.Metal>
0.0000

> <Gold.Chemscore.Lipo>
107.3645

> <Gold.Chemscore.Internal_Hbond>
0.0000

> <Gold.Chemscore.DEClash>
1.3031

> <Gold.Chemscore.DEInternal>
3.9161

> <Gold.Chemscore.Rot>
1.9835

> <Gold.Chemscore.Internal.Correction>
   9.000000E+99

> <Gold.Chemscore.Hbonds>
donor molecule, donor type, donor heavy atom, donor atom, acceptor molecule, acceptor atom, score
      L1  H    10    30       P1  8028  0.93
      P1  H  7997  8008       L1    19  0.96

> <Gold.Chemscore.Hbond.Weighted>
-6.4076

> <Gold.Chemscore.Metal.Weighted>
-0.0000

> <Gold.Chemscore.Lipo.Weighted>
-12.5616

> <Gold.Chemscore.Internal_Hbond.Weighted>
0.0000

> <Gold.Chemscore.DEClash.Weighted>
1.3031

> <Gold.Chemscore.DEInternal.Weighted>
3.9161

> <Gold.Chemscore.Rot.Weighted>
5.0778

> <Gold.Chemscore.Internal.Correction.Weighted>
   9.000000E+99

> <Gold.Protein.RotatedTorsions>
[ 6907 6896 6895 6894 ] final   99.06 input  -60.11 | X-H torsion
[ 7974 7965 7964 7962 ] final -153.05 input  175.53 | X-H torsion
[ 8008 7997 7996 7995 ] final  -36.72 input   59.86 | X-H torsion
[ 10167 10162 10161 10158 ] final    3.30 input  -65.29 | X-H torsion
[ 10718 10713 10712 10709 ] final -108.96 input   66.30 | X-H torsion
[ 10763 10752 10751 10750 ] final -163.09 input  -60.55 | X-H torsion
[ 11005 11000 10999 10996 ] final  178.11 input  -57.11 | X-H torsion

> <Gold.Protein.ActiveResidues>
 VAL166  LYS551  ARG553  GLY616  TRP617  ASP618  TYR619  PRO620  LYS621  CYS622 
 ASP623  PHE694  ASN695  SER759  ASP760  ASP761  ALA762  ILE779  LEU786  VAL792 
 PHE793  MET794  SER795  GLU796  ALA797  LYS798  CYS799  TRP800  GLU811  SER814 

> <Gold.Protein.RotatedAtoms>
  152.5399  134.0486  159.8099 H   0  0  0  0  0  0  0  0  0  0  0  0  # atno 6907 bound_to 6896
  151.0631  133.5520  159.2640 H   0  0  0  0  0  0  0  0  0  0  0  0  # atno 6908 bound_to 6896
  151.2411  135.0597  159.9079 H   0  0  0  0  0  0  0  0  0  0  0  0  # atno 6909 bound_to 6896
  144.7761  140.4579  143.5872 H   0  0  0  0  0  0  0  0  0  0  0  0  # atno 7974 bound_to 7965
  154.4067  140.1623  156.2419 H   0  0  0  0  0  0  0  0  0  0  0  0  # atno 8008 bound_to 7997
  155.9193  140.3422  155.6138 H   0  0  0  0  0  0  0  0  0  0  0  0  # atno 8009 bound_to 7997
  155.7241  140.0772  157.2308 H   0  0  0  0  0  0  0  0  0  0  0  0  # atno 8010 bound_to 7997
  140.6593  143.7346  150.7709 H   0  0  0  0  0  0  0  0  0  0  0  0  # atno 10167 bound_to 10162
  156.0512  130.5739  150.8034 H   0  0  0  0  0  0  0  0  0  0  0  0  # atno 10718 bound_to 10713
  154.7154  135.3015  154.9131 H   0  0  0  0  0  0  0  0  0  0  0  0  # atno 10763 bound_to 10752
  154.0020  135.6705  153.4764 H   0  0  0  0  0  0  0  0  0  0  0  0  # atno 10764 bound_to 10752
  153.0789  135.5019  154.8378 H   0  0  0  0  0  0  0  0  0  0  0  0  # atno 10765 bound_to 10752
  140.3915  134.6858  157.4510 H   0  0  0  0  0  0  0  0  0  0  0  0  # atno 11005 bound_to 11000
  145.6181  139.1521  143.3038 LP  0  0  0  0  0  0  0  0  0  0  0  0  # atno 17320 bound_to 7965
  146.1942  140.6293  142.9132 LP  0  0  0  0  0  0  0  0  0  0  0  0  # atno 17321 bound_to 7965
  140.1012  143.4786  152.2424 LP  0  0  0  0  0  0  0  0  0  0  0  0  # atno 17342 bound_to 10162
  139.5822  144.7515  151.3610 LP  0  0  0  0  0  0  0  0  0  0  0  0  # atno 17343 bound_to 10162
  157.5440  131.0942  150.9788 LP  0  0  0  0  0  0  0  0  0  0  0  0  # atno 17370 bound_to 10713
  157.0064  130.5619  149.5316 LP  0  0  0  0  0  0  0  0  0  0  0  0  # atno 17371 bound_to 10713
  140.0403  134.6277  155.8989 LP  0  0  0  0  0  0  0  0  0  0  0  0  # atno 17394 bound_to 11000
  141.1889  133.6564  156.5345 LP  0  0  0  0  0  0  0  0  0  0  0  0  # atno 17395 bound_to 11000

$$$$
