AV-unprocessed.smi:1829|AV-procd|sdf|7431|dock10
  -GOLD-   22720 9113D 1   1.00000     0.00000
 Structure written by MMmdl.
 46 48  0  0  0  0  0  0  0  0  2 V2000
  141.4800  145.8636  154.3035 C   0  0  0  0  0  0  0  0  0  0  0  0
  142.6145  145.8764  155.3395 C   0  0  0  0  0  0  0  0  0  0  0  0
  143.1560  147.2961  155.5721 C   0  0  0  0  0  0  0  0  0  0  0  0
  143.7225  144.9016  154.9621 C   0  0  0  0  0  0  0  0  0  0  0  0
  144.4698  145.1031  153.7823 C   0  0  0  0  0  0  0  0  0  0  0  0
  145.5074  144.2163  153.4363 C   0  0  0  0  0  0  0  0  0  0  0  0
  145.8086  143.1142  154.2658 C   0  0  0  0  0  0  0  0  0  0  0  0
  146.9596  142.1749  153.9319 C   0  0  1  0  0  0  0  0  0  0  0  0
  148.2223  142.7900  154.0821 O   0  0  0  0  0  0  0  0  0  0  0  0
  146.9406  140.8896  154.7854 C   0  0  0  0  0  0  0  0  0  0  0  0
  147.9177  139.8893  154.3239 N   0  0  0  0  0  0  0  0  0  0  0  0
  147.7850  138.8982  153.3953 C   0  0  0  0  0  0  0  0  0  0  0  0
  146.5752  138.5857  152.5777 C   0  0  0  0  0  0  0  0  0  0  0  0
  146.8795  138.4392  151.2086 O   0  0  0  0  0  0  0  0  0  0  0  0
  148.9740  138.2353  153.3388 N   0  3  0  0  0  0  0  0  0  0  0  0
  149.8756  138.8029  154.2393 C   0  0  0  0  0  0  0  0  0  0  0  0
  151.1929  138.4701  154.5394 C   0  0  0  0  0  0  0  0  0  0  0  0
  151.8355  139.2522  155.5213 C   0  0  0  0  0  0  0  0  0  0  0  0
  151.1711  140.3189  156.1601 C   0  0  0  0  0  0  0  0  0  0  0  0
  149.8379  140.6506  155.8424 C   0  0  0  0  0  0  0  0  0  0  0  0
  149.2064  139.8698  154.8737 C   0  0  0  0  0  0  0  0  0  0  0  0
  145.0547  142.9067  155.4401 C   0  0  0  0  0  0  0  0  0  0  0  0
  144.0210  143.7963  155.7882 C   0  0  0  0  0  0  0  0  0  0  0  0
  141.0675  144.8608  154.1873 H   0  0  0  0  0  0  0  0  0  0  0  0
  141.8250  146.1975  153.3245 H   0  0  0  0  0  0  0  0  0  0  0  0
  140.6648  146.5208  154.6080 H   0  0  0  0  0  0  0  0  0  0  0  0
  142.1877  145.5409  156.2857 H   0  0  0  0  0  0  0  0  0  0  0  0
  143.9245  147.2993  156.3457 H   0  0  0  0  0  0  0  0  0  0  0  0
  142.3620  147.9694  155.8962 H   0  0  0  0  0  0  0  0  0  0  0  0
  143.5928  147.7167  154.6660 H   0  0  0  0  0  0  0  0  0  0  0  0
  144.2562  145.9445  153.1394 H   0  0  0  0  0  0  0  0  0  0  0  0
  146.0788  144.3956  152.5374 H   0  0  0  0  0  0  0  0  0  0  0  0
  146.8813  141.9030  152.8783 H   0  0  0  0  0  0  0  0  0  0  0  0
  148.4526  142.7855  154.9985 H   0  0  0  0  0  0  0  0  0  0  0  0
  147.1987  141.1260  155.8185 H   0  0  0  0  0  0  0  0  0  0  0  0
  145.9461  140.4445  154.8189 H   0  0  0  0  0  0  0  0  0  0  0  0
  146.1217  137.6636  152.9422 H   0  0  0  0  0  0  0  0  0  0  0  0
  145.8326  139.3747  152.6953 H   0  0  0  0  0  0  0  0  0  0  0  0
  147.6244  137.8633  151.1258 H   0  0  0  0  0  0  0  0  0  0  0  0
  151.7037  137.6530  154.0514 H   0  0  0  0  0  0  0  0  0  0  0  0
  152.8580  139.0293  155.7900 H   0  0  0  0  0  0  0  0  0  0  0  0
  151.6938  140.8949  156.9099 H   0  0  0  0  0  0  0  0  0  0  0  0
  149.3414  141.4680  156.3432 H   0  0  0  0  0  0  0  0  0  0  0  0
  145.2795  142.0730  156.0890 H   0  0  0  0  0  0  0  0  0  0  0  0
  143.4626  143.6288  156.6973 H   0  0  0  0  0  0  0  0  0  0  0  0
  149.1526  137.4516  152.7242 H   0  0  0  0  0  0  0  0  0  0  0  0
  1  2  1  0  0  0  0
  1 24  1  0  0  0  0
  1 25  1  0  0  0  0
  1 26  1  0  0  0  0
  2  3  1  0  0  0  0
  2  4  1  0  0  0  0
  2 27  1  0  0  0  0
  3 28  1  0  0  0  0
  3 29  1  0  0  0  0
  3 30  1  0  0  0  0
  4 23  1  0  0  0  0
  4  5  2  0  0  0  0
  5  6  1  0  0  0  0
  5 31  1  0  0  0  0
  6  7  2  0  0  0  0
  6 32  1  0  0  0  0
  7  8  1  0  0  0  0
  7 22  1  0  0  0  0
  8  9  1  0  0  0  0
  8 10  1  0  0  0  0
  8 33  1  0  0  0  0
  9 34  1  0  0  0  0
 10 11  1  0  0  0  0
 10 35  1  0  0  0  0
 10 36  1  0  0  0  0
 11 21  1  0  0  0  0
 11 12  1  0  0  0  0
 12 13  1  0  0  0  0
 12 15  2  0  0  0  0
 13 14  1  0  0  0  0
 13 37  1  0  0  0  0
 13 38  1  0  0  0  0
 14 39  1  0  0  0  0
 15 16  1  0  0  0  0
 15 46  1  0  0  0  0
 16 21  2  0  0  0  0
 16 17  1  0  0  0  0
 17 18  2  0  0  0  0
 17 40  1  0  0  0  0
 18 19  1  0  0  0  0
 18 41  1  0  0  0  0
 19 20  2  0  0  0  0
 19 42  1  0  0  0  0
 20 21  1  0  0  0  0
 20 43  1  0  0  0  0
 22 23  2  0  0  0  0
 22 44  1  0  0  0  0
 23 45  1  0  0  0  0
M  CHG  1  15   1
M  END
> <s_m_source_file>
AV-unprocessed.smi

> <i_m_source_file_index>
1829

> <i_lp_mmshare_version>
43012

> <i_f3d_flags>
0

> <s_epik_input>
W0NIM11bQ0hdKFtDSDNdKWMxW2NIXVtjSF1jKFtjSF1bY0hdMSlbQ0BIXShbT0hdKVtDSDJdbihjKG4yKVtDSDJdW09IXSljKGMyMylbY0hdW2NIXVtjSF1bY0hdMw==

> <s_epik_cmdline>
J2VwaWtfcHl0aG9uJywgJy1waCcsICc3LjAnLCAnLXRuJywgJzgnLCAnLW1hJywgJzIwMCcsICctbWV0YWxfYmluZGluZycsICctaW1hZScsICc8aW5maWxlLm1hZT4nLCAnLW9tYWUnLCAnPG91dGZpbGUubWFlPic=

> <r_epik_Ionization_Penalty>
1.35642

> <r_epik_Ionization_Penalty_Charging>
1.35557

> <r_epik_Ionization_Penalty_Neutral>
0.000856322

> <r_epik_State_Penalty>
1.43401

> <r_epik_Charging_Adjusted_Penalty>
2.78958

> <i_epik_Tot_Q>
1

> <i_epik_Tot_abs_Q>
1

> <r_epik_Metal_State_Penalty>
5.47166

> <b_epik_Metal_Only>
0

> <s_lp_Force_Field>
OPLS_2005

> <r_lp_Energy>
15.3906

> <b_lp_Chiralities_Consistent>
1

> <s_lp_Variant>
AV-unprocessed.smi:1829-4

> <Gold.Version>
5.8.1

> <Gold.Id.Protein>
6NUR|6NUR_protein|mol2

> <Gold.PLP.Fitness>
65.9431

> <Gold.PLP.PLP>
-54.5858

> <Gold.PLP.part.hbond>
-7.6509

> <Gold.PLP.part.metal>
0.0000

> <Gold.PLP.part.buried>
-5.9939

> <Gold.PLP.part.nonpolar>
-42.4193

> <Gold.PLP.part.repulsive>
0.0649

> <Gold.PLP.ligand.clash>
0.0000

> <Gold.PLP.ligand.torsion>
0.7740

> <Gold.PLP.Chemscore.Hbond>
4.2720

> <Gold.PLP.Chemscore.CHOScore>
0.0000

> <Gold.PLP.Chemscore.Metal>
0.0000

> <Gold.Chemscore.Hbonds>
donor molecule, donor type, donor heavy atom, donor atom, acceptor molecule, acceptor atom, score
      L1  H     9    34       P1  8028  0.17
      L1  H    14    39       P1  7948  0.62
      L1  H    15    46       P1  7948  1.72
      P1  H  8022  8030       L1     9  0.92

> <Gold.PLP.Chemscore.Internal.Correction>
0.0893

> <Gold.Rescore>
     Score         DG    S(hbond)    S(metal)    S(lipo)     H(rot)  DE(clash)    DE(int)     intcor
     20.41     -21.51       2.78        0.00     117.87       2.75       0.06       1.04       ----

> <Gold.Chemscore.Fitness>
20.4128

> <Gold.Chemscore.DG>
-21.5129

> <Gold.Chemscore.ZeroCoef>
-5.4800

> <Gold.Chemscore.Hbond>
2.7829

> <Gold.Chemscore.Metal>
0.0000

> <Gold.Chemscore.Lipo>
117.8685

> <Gold.Chemscore.Internal_Hbond>
0.0000

> <Gold.Chemscore.DEClash>
0.0645

> <Gold.Chemscore.DEInternal>
1.0356

> <Gold.Chemscore.Rot>
2.7550

> <Gold.Chemscore.Internal.Correction>
   9.000000E+99

> <Gold.Chemscore.Hbonds>
donor molecule, donor type, donor heavy atom, donor atom, acceptor molecule, acceptor atom, score
      L1  H     9    34       P1  8028  0.18
      L1  H    14    39       P1  7948  0.61
      L1  H    15    46       P1  7948  0.83
      P1  H  8011  8017       L1     9  0.01
      P1  H  8022  8030       L1     9  0.25

> <Gold.Chemscore.Hbond.Weighted>
-9.2950

> <Gold.Chemscore.Metal.Weighted>
-0.0000

> <Gold.Chemscore.Lipo.Weighted>
-13.7906

> <Gold.Chemscore.Internal_Hbond.Weighted>
0.0000

> <Gold.Chemscore.DEClash.Weighted>
0.0645

> <Gold.Chemscore.DEInternal.Weighted>
1.0356

> <Gold.Chemscore.Rot.Weighted>
7.0527

> <Gold.Chemscore.Internal.Correction.Weighted>
   9.000000E+99

> <Gold.Protein.RotatedTorsions>
[ 6907 6896 6895 6894 ] final   31.04 input  -60.11 | X-H torsion
[ 7974 7965 7964 7962 ] final  -93.20 input  175.53 | X-H torsion
[ 8008 7997 7996 7995 ] final  -21.53 input   59.86 | X-H torsion
[ 10167 10162 10161 10158 ] final -118.57 input  -65.29 | X-H torsion
[ 10718 10713 10712 10709 ] final -173.42 input   66.30 | X-H torsion
[ 10763 10752 10751 10750 ] final  134.02 input  -60.55 | X-H torsion
[ 11005 11000 10999 10996 ] final -157.03 input  -57.11 | X-H torsion

> <Gold.Protein.ActiveResidues>
 VAL166  LYS551  ARG553  GLY616  TRP617  ASP618  TYR619  PRO620  LYS621  CYS622 
 ASP623  PHE694  ASN695  SER759  ASP760  ASP761  ALA762  ILE779  LEU786  VAL792 
 PHE793  MET794  SER795  GLU796  ALA797  LYS798  CYS799  TRP800  GLU811  SER814 

> <Gold.Protein.RotatedAtoms>
  152.0546  134.9632  160.0574 H   0  0  0  0  0  0  0  0  0  0  0  0  # atno 6907 bound_to 6896
  152.1020  133.4250  159.4599 H   0  0  0  0  0  0  0  0  0  0  0  0  # atno 6908 bound_to 6896
  150.6840  134.2668  159.4615 H   0  0  0  0  0  0  0  0  0  0  0  0  # atno 6909 bound_to 6896
  145.3897  140.9527  143.2347 H   0  0  0  0  0  0  0  0  0  0  0  0  # atno 7974 bound_to 7965
  154.4700  140.2032  156.0020 H   0  0  0  0  0  0  0  0  0  0  0  0  # atno 8008 bound_to 7997
  156.0994  140.3246  155.7892 H   0  0  0  0  0  0  0  0  0  0  0  0  # atno 8009 bound_to 7997
  155.4823  140.0539  157.2956 H   0  0  0  0  0  0  0  0  0  0  0  0  # atno 8010 bound_to 7997
  140.0561  143.5013  152.2057 H   0  0  0  0  0  0  0  0  0  0  0  0  # atno 10167 bound_to 10162
  156.7700  130.9445  151.3120 H   0  0  0  0  0  0  0  0  0  0  0  0  # atno 10718 bound_to 10713
  153.8167  135.3121  155.3406 H   0  0  0  0  0  0  0  0  0  0  0  0  # atno 10763 bound_to 10752
  154.8029  135.4715  154.0323 H   0  0  0  0  0  0  0  0  0  0  0  0  # atno 10764 bound_to 10752
  153.1719  135.6879  153.8685 H   0  0  0  0  0  0  0  0  0  0  0  0  # atno 10765 bound_to 10752
  140.6691  134.4266  157.5232 H   0  0  0  0  0  0  0  0  0  0  0  0  # atno 11005 bound_to 11000
  144.8449  139.5413  143.6883 LP  0  0  0  0  0  0  0  0  0  0  0  0  # atno 17320 bound_to 7965
  146.2803  139.6860  142.9234 LP  0  0  0  0  0  0  0  0  0  0  0  0  # atno 17321 bound_to 7965
  139.5923  144.7554  151.3371 LP  0  0  0  0  0  0  0  0  0  0  0  0  # atno 17342 bound_to 10162
  140.7194  143.7177  150.7720 LP  0  0  0  0  0  0  0  0  0  0  0  0  # atno 17343 bound_to 10162
  157.6695  130.9038  150.0008 LP  0  0  0  0  0  0  0  0  0  0  0  0  # atno 17370 bound_to 10713
  156.1284  130.3644  149.9772 LP  0  0  0  0  0  0  0  0  0  0  0  0  # atno 17371 bound_to 10713
  139.8987  134.8607  156.1989 LP  0  0  0  0  0  0  0  0  0  0  0  0  # atno 17394 bound_to 11000
  141.0406  133.6940  156.1591 LP  0  0  0  0  0  0  0  0  0  0  0  0  # atno 17395 bound_to 11000

$$$$
