AV-unprocessed.smi:2624|AV-procd|sdf|10234|dock1
  -GOLD-   2272014243D 1   1.00000     0.00000
 Structure written by MMmdl.
 38 39  0  0  0  0  0  0  0  0  2 V2000
  152.5488  138.4300  154.6994 C   0  0  0  0  0  0  0  0  0  0  0  0
  152.9980  139.4486  155.5759 O   0  0  0  0  0  0  0  0  0  0  0  0
  151.9383  140.0424  156.3063 C   0  0  0  0  0  0  0  0  0  0  0  0
  151.3919  139.0160  157.3096 C   0  0  0  0  0  0  0  0  0  0  0  0
  152.2766  138.8808  158.4745 N   0  0  0  0  0  0  0  0  0  0  0  0
  152.5985  140.0630  159.1681 C   0  0  0  0  0  0  0  0  0  0  0  0
  153.3970  140.0649  160.2521 C   0  0  0  0  0  0  0  0  0  0  0  0
  153.7151  141.3352  160.9484 C   0  0  0  0  0  0  0  0  0  0  0  0
  154.4880  141.3569  161.9077 O   0  0  0  0  0  0  0  0  0  0  0  0
  153.0904  142.5909  160.4323 C   0  0  0  0  0  0  0  0  0  0  0  0
  153.4468  143.0517  159.1426 C   0  0  0  0  0  0  0  0  0  0  0  0
  152.8935  144.2363  158.6180 C   0  0  0  0  0  0  0  0  0  0  0  0
  153.2962  144.7078  157.2361 C   0  0  0  0  0  0  0  0  0  0  0  0
  151.9708  144.9740  159.3841 C   0  0  0  0  0  0  0  0  0  0  0  0
  151.6044  144.5255  160.6661 C   0  0  0  0  0  0  0  0  0  0  0  0
  152.1558  143.3413  161.1961 C   0  0  0  0  0  0  0  0  0  0  0  0
  151.7442  142.9439  162.4390 O   0  5  0  0  0  0  0  0  0  0  0  0
  153.9421  138.7937  160.6880 C   0  0  0  0  0  0  0  0  0  0  0  0
  153.6468  137.6601  160.0215 C   0  0  0  0  0  0  0  0  0  0  0  0
  154.1793  136.4015  160.4268 C   0  0  0  0  0  0  0  0  0  0  0  0
  154.5924  135.3713  160.7555 N   0  0  0  0  0  0  0  0  0  0  0  0
  152.7706  137.6595  158.8416 C   0  0  0  0  0  0  0  0  0  0  0  0
  152.4967  136.6331  158.2171 O   0  0  0  0  0  0  0  0  0  0  0  0
  153.3980  138.0097  154.1609 H   0  0  0  0  0  0  0  0  0  0  0  0
  151.8458  138.8239  153.9643 H   0  0  0  0  0  0  0  0  0  0  0  0
  152.0652  137.6214  155.2489 H   0  0  0  0  0  0  0  0  0  0  0  0
  152.2997  140.9293  156.8293 H   0  0  0  0  0  0  0  0  0  0  0  0
  151.1476  140.3599  155.6244 H   0  0  0  0  0  0  0  0  0  0  0  0
  150.3932  139.3165  157.6297 H   0  0  0  0  0  0  0  0  0  0  0  0
  151.2515  138.0522  156.8173 H   0  0  0  0  0  0  0  0  0  0  0  0
  152.1537  140.9596  158.7590 H   0  0  0  0  0  0  0  0  0  0  0  0
  154.1598  142.4995  158.5473 H   0  0  0  0  0  0  0  0  0  0  0  0
  152.8098  145.6493  156.9793 H   0  0  0  0  0  0  0  0  0  0  0  0
  153.0178  143.9647  156.4887 H   0  0  0  0  0  0  0  0  0  0  0  0
  154.3751  144.8575  157.1875 H   0  0  0  0  0  0  0  0  0  0  0  0
  151.5390  145.8837  158.9938 H   0  0  0  0  0  0  0  0  0  0  0  0
  150.8909  145.0947  161.2442 H   0  0  0  0  0  0  0  0  0  0  0  0
  154.6021  138.7450  161.5425 H   0  0  0  0  0  0  0  0  0  0  0  0
  1  2  1  0  0  0  0
  1 24  1  0  0  0  0
  1 25  1  0  0  0  0
  1 26  1  0  0  0  0
  2  3  1  0  0  0  0
  3  4  1  0  0  0  0
  3 27  1  0  0  0  0
  3 28  1  0  0  0  0
  4  5  1  0  0  0  0
  4 29  1  0  0  0  0
  4 30  1  0  0  0  0
  5 22  1  0  0  0  0
  5  6  1  0  0  0  0
  6  7  2  0  0  0  0
  6 31  1  0  0  0  0
  7  8  1  0  0  0  0
  7 18  1  0  0  0  0
  8  9  2  0  0  0  0
  8 10  1  0  0  0  0
 10 16  1  0  0  0  0
 10 11  2  0  0  0  0
 11 12  1  0  0  0  0
 11 32  1  0  0  0  0
 12 13  1  0  0  0  0
 12 14  2  0  0  0  0
 13 33  1  0  0  0  0
 13 34  1  0  0  0  0
 13 35  1  0  0  0  0
 14 15  1  0  0  0  0
 14 36  1  0  0  0  0
 15 16  2  0  0  0  0
 15 37  1  0  0  0  0
 16 17  1  0  0  0  0
 18 19  2  0  0  0  0
 18 38  1  0  0  0  0
 19 20  1  0  0  0  0
 19 22  1  0  0  0  0
 20 21  3  0  0  0  0
 22 23  2  0  0  0  0
M  CHG  1  17  -1
M  END
> <s_m_source_file>
AV-unprocessed.smi

> <i_m_source_file_index>
2624

> <i_lp_mmshare_version>
43012

> <i_f3d_flags>
0

> <s_epik_input>
W0NIM11PW0NIMl1bQ0gyXW4xW2NIXWMoW2NIXWMoQyNOKWMxPU8pQyg9TyljMltjSF1jKFtDSDNdKVtjSF1bY0hdYzJbT0hd

> <s_epik_cmdline>
J2VwaWtfcHl0aG9uJywgJy1waCcsICc3LjAnLCAnLXRuJywgJzgnLCAnLW1hJywgJzIwMCcsICctbWV0YWxfYmluZGluZycsICctaW1hZScsICc8aW5maWxlLm1hZT4nLCAnLW9tYWUnLCAnPG91dGZpbGUubWFlPic=

> <r_epik_Ionization_Penalty>
0.985482

> <r_epik_Ionization_Penalty_Charging>
0.985482

> <r_epik_Ionization_Penalty_Neutral>
1.08437e-11

> <r_epik_State_Penalty>
1.03272

> <r_epik_Charging_Adjusted_Penalty>
2.0182

> <i_epik_Tot_Q>
-1

> <i_epik_Tot_abs_Q>
1

> <r_epik_Metal_State_Penalty>
1.03272

> <b_epik_Metal_Only>
0

> <s_lp_Force_Field>
OPLS_2005

> <r_lp_Energy>
23.2451

> <b_lp_Chiralities_Consistent>
1

> <s_lp_Variant>
AV-unprocessed.smi:2624-2

> <Gold.Version>
5.8.1

> <Gold.Id.Protein>
6NUR|6NUR_protein|mol2

> <Gold.PLP.Fitness>
55.7033

> <Gold.PLP.PLP>
-47.6354

> <Gold.PLP.part.hbond>
-3.4294

> <Gold.PLP.part.metal>
0.0000

> <Gold.PLP.part.buried>
-8.1374

> <Gold.PLP.part.nonpolar>
-40.9644

> <Gold.PLP.part.repulsive>
3.8401

> <Gold.PLP.ligand.clash>
0.0000

> <Gold.PLP.ligand.torsion>
1.3719

> <Gold.PLP.Chemscore.Hbond>
2.9825

> <Gold.PLP.Chemscore.CHOScore>
0.0000

> <Gold.PLP.Chemscore.Metal>
0.0000

> <Gold.Chemscore.Hbonds>
donor molecule, donor type, donor heavy atom, donor atom, acceptor molecule, acceptor atom, score
      P1  H  6933  6945       L1    17  1.77
      P1  H  7997  8008       L1     2  1.00

> <Gold.PLP.Chemscore.Internal.Correction>
1.8642

> <Gold.Rescore>
     Score         DG    S(hbond)    S(metal)    S(lipo)     H(rot)  DE(clash)    DE(int)     intcor
     19.25     -23.89       1.82        0.00     136.20       1.41       3.18       1.46       ----

> <Gold.Chemscore.Fitness>
19.2492

> <Gold.Chemscore.DG>
-23.8857

> <Gold.Chemscore.ZeroCoef>
-5.4800

> <Gold.Chemscore.Hbond>
1.8182

> <Gold.Chemscore.Metal>
0.0000

> <Gold.Chemscore.Lipo>
136.1987

> <Gold.Chemscore.Internal_Hbond>
0.0000

> <Gold.Chemscore.DEClash>
3.1751

> <Gold.Chemscore.DEInternal>
1.4614

> <Gold.Chemscore.Rot>
1.4071

> <Gold.Chemscore.Internal.Correction>
   9.000000E+99

> <Gold.Chemscore.Hbonds>
donor molecule, donor type, donor heavy atom, donor atom, acceptor molecule, acceptor atom, score
      P1  H  6896  6908       L1    23  0.01
      P1  H  6933  6945       L1    17  0.58
      P1  H  7997  8008       L1     2  0.74

> <Gold.Chemscore.Hbond.Weighted>
-6.0726

> <Gold.Chemscore.Metal.Weighted>
-0.0000

> <Gold.Chemscore.Lipo.Weighted>
-15.9353

> <Gold.Chemscore.Internal_Hbond.Weighted>
0.0000

> <Gold.Chemscore.DEClash.Weighted>
3.1751

> <Gold.Chemscore.DEInternal.Weighted>
1.4614

> <Gold.Chemscore.Rot.Weighted>
3.6022

> <Gold.Chemscore.Internal.Correction.Weighted>
   9.000000E+99

> <Gold.Protein.RotatedTorsions>
[ 6907 6896 6895 6894 ] final  -94.49 input  -60.11 | X-H torsion
[ 7974 7965 7964 7962 ] final   54.65 input  175.53 | X-H torsion
[ 8008 7997 7996 7995 ] final  -19.91 input   59.86 | X-H torsion
[ 10167 10162 10161 10158 ] final   35.22 input  -65.29 | X-H torsion
[ 10718 10713 10712 10709 ] final   21.58 input   66.30 | X-H torsion
[ 10763 10752 10751 10750 ] final   88.95 input  -60.55 | X-H torsion
[ 11005 11000 10999 10996 ] final   77.22 input  -57.11 | X-H torsion

> <Gold.Protein.ActiveResidues>
 VAL166  LYS551  ARG553  GLY616  TRP617  ASP618  TYR619  PRO620  LYS621  CYS622 
 ASP623  PHE694  ASN695  SER759  ASP760  ASP761  ALA762  ILE779  LEU786  VAL792 
 PHE793  MET794  SER795  GLU796  ALA797  LYS798  CYS799  TRP800  GLU811  SER814 

> <Gold.Protein.RotatedAtoms>
  150.6943  134.1804  159.4246 H   0  0  0  0  0  0  0  0  0  0  0  0  # atno 6907 bound_to 6896
  151.9779  135.0041  160.0565 H   0  0  0  0  0  0  0  0  0  0  0  0  # atno 6908 bound_to 6896
  152.1782  133.4654  159.4981 H   0  0  0  0  0  0  0  0  0  0  0  0  # atno 6909 bound_to 6896
  145.9587  139.4038  143.0262 H   0  0  0  0  0  0  0  0  0  0  0  0  # atno 7974 bound_to 7965
  154.4805  140.2076  155.9776 H   0  0  0  0  0  0  0  0  0  0  0  0  # atno 8008 bound_to 7997
  156.1157  140.3222  155.8105 H   0  0  0  0  0  0  0  0  0  0  0  0  # atno 8009 bound_to 7997
  155.4557  140.0520  157.2987 H   0  0  0  0  0  0  0  0  0  0  0  0  # atno 8010 bound_to 7997
  140.4242  144.1417  150.6151 H   0  0  0  0  0  0  0  0  0  0  0  0  # atno 10167 bound_to 10162
  157.1404  130.6630  149.5979 H   0  0  0  0  0  0  0  0  0  0  0  0  # atno 10718 bound_to 10713
  153.1821  135.4488  155.0041 H   0  0  0  0  0  0  0  0  0  0  0  0  # atno 10763 bound_to 10752
  154.8036  135.3265  154.7489 H   0  0  0  0  0  0  0  0  0  0  0  0  # atno 10764 bound_to 10752
  153.7953  135.6967  153.4919 H   0  0  0  0  0  0  0  0  0  0  0  0  # atno 10765 bound_to 10752
  139.9264  134.7665  156.1494 H   0  0  0  0  0  0  0  0  0  0  0  0  # atno 11005 bound_to 11000
  145.8071  140.9744  143.0968 LP  0  0  0  0  0  0  0  0  0  0  0  0  # atno 17320 bound_to 7965
  144.6810  139.9874  143.7484 LP  0  0  0  0  0  0  0  0  0  0  0  0  # atno 17321 bound_to 7965
  140.4500  143.2490  151.9360 LP  0  0  0  0  0  0  0  0  0  0  0  0  # atno 17342 bound_to 10162
  139.4783  144.5571  151.8296 LP  0  0  0  0  0  0  0  0  0  0  0  0  # atno 17343 bound_to 10162
  155.9789  130.4779  150.6687 LP  0  0  0  0  0  0  0  0  0  0  0  0  # atno 17370 bound_to 10713
  157.4312  131.0849  151.1037 LP  0  0  0  0  0  0  0  0  0  0  0  0  # atno 17371 bound_to 10713
  141.0824  133.6748  156.2364 LP  0  0  0  0  0  0  0  0  0  0  0  0  # atno 17394 bound_to 11000
  140.6325  134.5249  157.5561 LP  0  0  0  0  0  0  0  0  0  0  0  0  # atno 17395 bound_to 11000

$$$$
