AV-unprocessed.smi:692|AV-procd|sdf|3370|dock4
  -GOLD-   22720 0343D 1   1.00000     0.00000
 Structure written by MMmdl.
 36 37  0  0  0  0  0  0  0  0  2 V2000
  146.9292  139.2202  152.7573 C   0  0  0  0  0  0  0  0  0  0  0  0
  147.2359  140.2870  153.8141 C   0  0  0  0  0  0  0  0  0  0  0  0
  148.6641  140.2473  154.2653 C   0  0  0  0  0  0  0  0  0  0  0  0
  149.6319  139.3653  153.8601 C   0  0  0  0  0  0  0  0  0  0  0  0
  151.1578  139.6846  154.6341 S   0  0  0  0  0  0  0  0  0  0  0  0
  150.4203  141.0291  155.5079 C   0  0  0  0  0  0  0  0  0  0  0  0
  151.0619  141.8274  156.3764 N   0  5  0  0  0  0  0  0  0  0  0  0
  151.5677  141.3132  157.5205 C   0  0  0  0  0  0  0  0  0  0  0  0
  151.9507  140.1539  157.6938 O   0  0  0  0  0  0  0  0  0  0  0  0
  151.6370  142.1986  158.5250 N   0  0  0  0  0  0  0  0  0  0  0  0
  152.1397  141.9331  159.8701 C   0  0  2  0  0  0  0  0  0  0  0  0
  152.0917  143.2150  160.7030 C   0  0  0  0  0  0  0  0  0  0  0  0
  152.5767  142.9433  162.1319 C   0  0  0  0  0  0  0  0  0  0  0  0
  153.8869  142.1437  162.1966 C   0  0  0  0  0  0  0  0  0  0  0  0
  154.5330  142.1734  163.2447 O   0  0  0  0  0  0  0  0  0  0  0  0
  154.2737  141.4118  161.1236 N   0  0  0  0  0  0  0  0  0  0  0  0
  155.5001  140.6143  161.1766 C   0  0  0  0  0  0  0  0  0  0  0  0
  153.5846  141.3989  159.8239 C   0  0  0  0  0  0  0  0  0  0  0  0
  149.1297  141.1836  155.1922 N   0  0  0  0  0  0  0  0  0  0  0  0
  145.8850  139.2682  152.4481 H   0  0  0  0  0  0  0  0  0  0  0  0
  147.1174  138.2184  153.1445 H   0  0  0  0  0  0  0  0  0  0  0  0
  147.5463  139.3574  151.8687 H   0  0  0  0  0  0  0  0  0  0  0  0
  147.0005  141.2720  153.4097 H   0  0  0  0  0  0  0  0  0  0  0  0
  146.5709  140.1478  154.6669 H   0  0  0  0  0  0  0  0  0  0  0  0
  149.5424  138.5523  153.1558 H   0  0  0  0  0  0  0  0  0  0  0  0
  151.3114  143.1352  158.3367 H   0  0  0  0  0  0  0  0  0  0  0  0
  151.4973  141.1921  160.3505 H   0  0  0  0  0  0  0  0  0  0  0  0
  152.7108  143.9865  160.2426 H   0  0  0  0  0  0  0  0  0  0  0  0
  151.0747  143.6083  160.7316 H   0  0  0  0  0  0  0  0  0  0  0  0
  152.6995  143.8858  162.6667 H   0  0  0  0  0  0  0  0  0  0  0  0
  151.8178  142.3762  162.6718 H   0  0  0  0  0  0  0  0  0  0  0  0
  155.4069  139.8203  161.9188 H   0  0  0  0  0  0  0  0  0  0  0  0
  156.3556  141.2357  161.4460 H   0  0  0  0  0  0  0  0  0  0  0  0
  155.7288  140.1464  160.2181 H   0  0  0  0  0  0  0  0  0  0  0  0
  153.5795  140.3854  159.4199 H   0  0  0  0  0  0  0  0  0  0  0  0
  154.1774  142.0038  159.1359 H   0  0  0  0  0  0  0  0  0  0  0  0
  1  2  1  0  0  0  0
  1 20  1  0  0  0  0
  1 21  1  0  0  0  0
  1 22  1  0  0  0  0
  2  3  1  0  0  0  0
  2 23  1  0  0  0  0
  2 24  1  0  0  0  0
  3 19  1  0  0  0  0
  3  4  2  0  0  0  0
  4  5  1  0  0  0  0
  4 25  1  0  0  0  0
  5  6  1  0  0  0  0
  6  7  1  0  0  0  0
  6 19  2  0  0  0  0
  7  8  1  0  0  0  0
  8  9  2  0  0  0  0
  8 10  1  0  0  0  0
 10 11  1  0  0  0  0
 10 26  1  0  0  0  0
 11 18  1  0  0  0  0
 11 12  1  0  0  0  0
 11 27  1  0  0  0  0
 12 13  1  0  0  0  0
 12 28  1  0  0  0  0
 12 29  1  0  0  0  0
 13 14  1  0  0  0  0
 13 30  1  0  0  0  0
 13 31  1  0  0  0  0
 14 15  2  0  0  0  0
 14 16  1  0  0  0  0
 16 17  1  0  0  0  0
 16 18  1  0  0  0  0
 17 32  1  0  0  0  0
 17 33  1  0  0  0  0
 17 34  1  0  0  0  0
 18 35  1  0  0  0  0
 18 36  1  0  0  0  0
M  CHG  1   7  -1
M  END
> <s_m_source_file>
AV-unprocessed.smi

> <i_m_source_file_index>
692

> <i_lp_mmshare_version>
43012

> <i_f3d_flags>
0

> <s_epik_input>
W0NIM11bQ0gyXWMxW2NIXXNjKG4xKVtOSF1DKD1PKVtOSF1bQ0BASF0yW0NIMl1bQ0gyXUMoPU8pTihbQ0gzXSlbQ0gyXTI=

> <s_epik_cmdline>
J2VwaWtfcHl0aG9uJywgJy1waCcsICc3LjAnLCAnLXRuJywgJzgnLCAnLW1hJywgJzIwMCcsICctbWV0YWxfYmluZGluZycsICctaW1hZScsICc8aW5maWxlLm1hZT4nLCAnLW9tYWUnLCAnPG91dGZpbGUubWFlPic=

> <r_lp_tautomer_probability>
1

> <r_epik_Ionization_Penalty>
7.06728

> <r_epik_Ionization_Penalty_Charging>
5.78908

> <r_epik_Ionization_Penalty_Neutral>
1.2782

> <r_epik_State_Penalty>
5.78905

> <r_epik_Charging_Adjusted_Penalty>
11.5781

> <i_epik_Tot_Q>
-1

> <i_epik_Tot_abs_Q>
1

> <r_epik_Metal_State_Penalty>
1.76044

> <b_epik_Metal_Only>
1

> <s_lp_Force_Field>
OPLS_2005

> <r_lp_Energy>
4.23382

> <b_lp_Chiralities_Consistent>
1

> <s_lp_Variant>
AV-unprocessed.smi:692-3

> <Gold.Version>
5.8.1

> <Gold.Id.Protein>
6NUR|6NUR_protein|mol2

> <Gold.PLP.Fitness>
43.4552

> <Gold.PLP.PLP>
-41.9884

> <Gold.PLP.part.hbond>
-1.0000

> <Gold.PLP.part.metal>
0.0000

> <Gold.PLP.part.buried>
-1.9594

> <Gold.PLP.part.nonpolar>
-37.7853

> <Gold.PLP.part.repulsive>
0.2589

> <Gold.PLP.ligand.clash>
0.0000

> <Gold.PLP.ligand.torsion>
0.7749

> <Gold.PLP.Chemscore.Hbond>
0.0000

> <Gold.PLP.Chemscore.CHOScore>
1.0000

> <Gold.PLP.Chemscore.Metal>
0.0000

> <Gold.Chemscore.Hbonds>
donor molecule, donor type, donor heavy atom, donor atom, acceptor molecule, acceptor atom, score
      L1  C     4    25       P1  7948  0.62
      L1  C     4    25       P1  7957  0.30

> <Gold.PLP.Chemscore.Internal.Correction>
0.0165

> <Gold.Rescore>
     Score         DG    S(hbond)    S(metal)    S(lipo)     H(rot)  DE(clash)    DE(int)     intcor
     10.60     -12.30       0.00        0.00      85.11       1.23       0.05       1.66       ----

> <Gold.Chemscore.Fitness>
10.5973

> <Gold.Chemscore.DG>
-12.3021

> <Gold.Chemscore.ZeroCoef>
-5.4800

> <Gold.Chemscore.Hbond>
0.0000

> <Gold.Chemscore.Metal>
0.0000

> <Gold.Chemscore.Lipo>
85.1137

> <Gold.Chemscore.Internal_Hbond>
0.0000

> <Gold.Chemscore.DEClash>
0.0452

> <Gold.Chemscore.DEInternal>
1.6595

> <Gold.Chemscore.Rot>
1.2251

> <Gold.Chemscore.Internal.Correction>
   9.000000E+99

> <Gold.Chemscore.Hbond.Weighted>
-0.0000

> <Gold.Chemscore.Metal.Weighted>
-0.0000

> <Gold.Chemscore.Lipo.Weighted>
-9.9583

> <Gold.Chemscore.Internal_Hbond.Weighted>
0.0000

> <Gold.Chemscore.DEClash.Weighted>
0.0452

> <Gold.Chemscore.DEInternal.Weighted>
1.6595

> <Gold.Chemscore.Rot.Weighted>
3.1362

> <Gold.Chemscore.Internal.Correction.Weighted>
   9.000000E+99

> <Gold.Protein.RotatedTorsions>
[ 6907 6896 6895 6894 ] final    8.00 input  -60.11 | X-H torsion
[ 7974 7965 7964 7962 ] final  -37.41 input  175.53 | X-H torsion
[ 8008 7997 7996 7995 ] final  -93.08 input   59.86 | X-H torsion
[ 10167 10162 10161 10158 ] final   -2.77 input  -65.29 | X-H torsion
[ 10718 10713 10712 10709 ] final  -80.12 input   66.30 | X-H torsion
[ 10763 10752 10751 10750 ] final  -15.63 input  -60.55 | X-H torsion
[ 11005 11000 10999 10996 ] final   22.23 input  -57.11 | X-H torsion

> <Gold.Protein.ActiveResidues>
 VAL166  LYS551  ARG553  GLY616  TRP617  ASP618  TYR619  PRO620  LYS621  CYS622 
 ASP623  PHE694  ASN695  SER759  ASP760  ASP761  ALA762  ILE779  LEU786  VAL792 
 PHE793  MET794  SER795  GLU796  ALA797  LYS798  CYS799  TRP800  GLU811  SER814 

> <Gold.Protein.RotatedAtoms>
  151.6990  135.0933  160.0247 H   0  0  0  0  0  0  0  0  0  0  0  0  # atno 6907 bound_to 6896
  152.3732  133.6442  159.6112 H   0  0  0  0  0  0  0  0  0  0  0  0  # atno 6908 bound_to 6896
  150.7689  133.9152  159.3423 H   0  0  0  0  0  0  0  0  0  0  0  0  # atno 6909 bound_to 6896
  146.0577  140.6393  142.9012 H   0  0  0  0  0  0  0  0  0  0  0  0  # atno 7974 bound_to 7965
  154.7312  140.0502  157.0728 H   0  0  0  0  0  0  0  0  0  0  0  0  # atno 8008 bound_to 7997
  155.0300  140.3157  155.4743 H   0  0  0  0  0  0  0  0  0  0  0  0  # atno 8009 bound_to 7997
  156.2842  140.2151  156.5421 H   0  0  0  0  0  0  0  0  0  0  0  0  # atno 8010 bound_to 7997
  140.6864  143.6618  150.8260 H   0  0  0  0  0  0  0  0  0  0  0  0  # atno 10167 bound_to 10162
  156.0077  130.4565  150.3752 H   0  0  0  0  0  0  0  0  0  0  0  0  # atno 10718 bound_to 10713
  153.5463  135.7012  153.5612 H   0  0  0  0  0  0  0  0  0  0  0  0  # atno 10763 bound_to 10752
  153.3556  135.3983  155.1679 H   0  0  0  0  0  0  0  0  0  0  0  0  # atno 10764 bound_to 10752
  154.8667  135.3776  154.4971 H   0  0  0  0  0  0  0  0  0  0  0  0  # atno 10765 bound_to 10752
  140.3829  134.1901  155.7663 H   0  0  0  0  0  0  0  0  0  0  0  0  # atno 11005 bound_to 11000
  144.7157  140.4201  143.7046 LP  0  0  0  0  0  0  0  0  0  0  0  0  # atno 17320 bound_to 7965
  145.6615  139.1582  143.2806 LP  0  0  0  0  0  0  0  0  0  0  0  0  # atno 17321 bound_to 7965
  140.0326  143.5428  152.2753 LP  0  0  0  0  0  0  0  0  0  0  0  0  # atno 17342 bound_to 10162
  139.6226  144.7632  151.2707 LP  0  0  0  0  0  0  0  0  0  0  0  0  # atno 17343 bound_to 10162
  157.1834  131.0398  151.2737 LP  0  0  0  0  0  0  0  0  0  0  0  0  # atno 17370 bound_to 10713
  157.4125  130.7393  149.6850 LP  0  0  0  0  0  0  0  0  0  0  0  0  # atno 17371 bound_to 10713
  141.1917  133.8189  157.0868 LP  0  0  0  0  0  0  0  0  0  0  0  0  # atno 17394 bound_to 11000
  140.0465  134.9828  157.1058 LP  0  0  0  0  0  0  0  0  0  0  0  0  # atno 17395 bound_to 11000

$$$$
