AV-unprocessed.smi:358|AV-procd|sdf|2417|dock3
  -GOLD-   2262022353D 1   1.00000     0.00000
 Structure written by MMmdl.
 37 39  0  0  0  0  0  0  0  0  1 V2000
  149.5590  139.5166  154.0134 N   0  0  0  0  0  0  0  0  0  0  0  0
  149.2059  140.6357  154.6498 C   0  0  0  0  0  0  0  0  0  0  0  0
  149.3568  141.7478  154.1470 O   0  0  0  0  0  0  0  0  0  0  0  0
  148.6008  140.4726  156.0482 C   0  0  0  0  0  0  0  0  0  0  0  0
  149.6020  140.1086  157.0445 N   0  0  0  0  0  0  0  0  0  0  0  0
  149.7798  138.9364  157.6884 C   0  0  0  0  0  0  0  0  0  0  0  0
  148.7520  137.5334  157.4227 S   0  0  0  0  0  0  0  0  0  0  0  0
  149.3355  136.5541  158.8366 C   0  0  0  0  0  0  0  0  0  0  0  0
  148.2505  136.2392  159.8679 C   0  0  0  0  0  0  0  0  0  0  0  0
  147.6877  137.1432  160.4865 O   0  0  0  0  0  0  0  0  0  0  0  0
  147.9584  134.9404  160.0309 N   0  0  0  0  0  0  0  0  0  0  0  0
  146.9797  134.4152  160.9270 C   0  0  0  0  0  0  0  0  0  0  0  0
  147.0836  134.8051  162.3857 C   0  0  0  0  0  0  0  0  0  0  0  0
  147.4392  133.4077  161.9587 C   0  0  0  0  0  0  0  0  0  0  0  0
  150.8146  138.9366  158.5318 N   0  0  0  0  0  0  0  0  0  0  0  0
  151.3620  140.1972  158.4425 N   0  0  0  0  0  0  0  0  0  0  0  0
  150.5991  140.8534  157.5652 C   0  0  0  0  0  0  0  0  0  0  0  0
  150.8553  142.2656  157.1437 C   0  0  0  0  0  0  0  0  0  0  0  0
  151.9795  143.0735  157.7544 C   0  0  0  0  0  0  0  0  0  0  0  0
  150.5489  143.4253  158.0659 C   0  0  0  0  0  0  0  0  0  0  0  0
  149.9604  139.5734  153.0885 H   0  0  0  0  0  0  0  0  0  0  0  0
  149.4231  138.6187  154.4547 H   0  0  0  0  0  0  0  0  0  0  0  0
  148.1199  141.4054  156.3432 H   0  0  0  0  0  0  0  0  0  0  0  0
  147.8202  139.7110  156.0377 H   0  0  0  0  0  0  0  0  0  0  0  0
  149.7462  135.6140  158.4675 H   0  0  0  0  0  0  0  0  0  0  0  0
  150.1515  137.0945  159.3182 H   0  0  0  0  0  0  0  0  0  0  0  0
  148.4714  134.2698  159.4773 H   0  0  0  0  0  0  0  0  0  0  0  0
  145.9697  134.2809  160.5422 H   0  0  0  0  0  0  0  0  0  0  0  0
  147.8992  135.4625  162.6809 H   0  0  0  0  0  0  0  0  0  0  0  0
  146.1547  134.9411  162.9359 H   0  0  0  0  0  0  0  0  0  0  0  0
  146.7479  132.6099  162.2222 H   0  0  0  0  0  0  0  0  0  0  0  0
  148.4923  133.1322  161.9675 H   0  0  0  0  0  0  0  0  0  0  0  0
  150.6573  142.3919  156.0812 H   0  0  0  0  0  0  0  0  0  0  0  0
  152.5642  142.6147  158.5494 H   0  0  0  0  0  0  0  0  0  0  0  0
  152.5304  143.7431  157.0971 H   0  0  0  0  0  0  0  0  0  0  0  0
  150.1424  144.3292  157.6170 H   0  0  0  0  0  0  0  0  0  0  0  0
  150.1892  143.1991  159.0676 H   0  0  0  0  0  0  0  0  0  0  0  0
  1  2  1  0  0  0  0
  1 21  1  0  0  0  0
  1 22  1  0  0  0  0
  2  3  2  0  0  0  0
  2  4  1  0  0  0  0
  4  5  1  0  0  0  0
  4 23  1  0  0  0  0
  4 24  1  0  0  0  0
  5 17  1  0  0  0  0
  5  6  1  0  0  0  0
  6  7  1  0  0  0  0
  6 15  2  0  0  0  0
  7  8  1  0  0  0  0
  8  9  1  0  0  0  0
  8 25  1  0  0  0  0
  8 26  1  0  0  0  0
  9 10  2  0  0  0  0
  9 11  1  0  0  0  0
 11 12  1  0  0  0  0
 11 27  1  0  0  0  0
 12 14  1  0  0  0  0
 12 13  1  0  0  0  0
 12 28  1  0  0  0  0
 13 14  1  0  0  0  0
 13 29  1  0  0  0  0
 13 30  1  0  0  0  0
 14 31  1  0  0  0  0
 14 32  1  0  0  0  0
 15 16  1  0  0  0  0
 16 17  2  0  0  0  0
 17 18  1  0  0  0  0
 18 20  1  0  0  0  0
 18 19  1  0  0  0  0
 18 33  1  0  0  0  0
 19 20  1  0  0  0  0
 19 34  1  0  0  0  0
 19 35  1  0  0  0  0
 20 36  1  0  0  0  0
 20 37  1  0  0  0  0
M  END
> <s_m_source_file>
AV-unprocessed.smi

> <i_m_source_file_index>
358

> <i_lp_mmshare_version>
43012

> <i_f3d_flags>
0

> <s_epik_input>
W0NIMl0xW0NIMl1bQ0hdMWMybm5jKG4yW0NIMl1DKD1PKVtOSDJdKVNbQ0gyXUMoPU8pW05IXVtDSF0zW0NIMl1bQ0gyXTM=

> <s_epik_cmdline>
J2VwaWtfcHl0aG9uJywgJy1waCcsICc3LjAnLCAnLXRuJywgJzgnLCAnLW1hJywgJzIwMCcsICctbWV0YWxfYmluZGluZycsICctaW1hZScsICc8aW5maWxlLm1hZT4nLCAnLW9tYWUnLCAnPG91dGZpbGUubWFlPic=

> <r_lp_tautomer_probability>
1

> <r_epik_Ionization_Penalty>
5.83215e-07

> <r_epik_Ionization_Penalty_Charging>
0

> <r_epik_Ionization_Penalty_Neutral>
5.83215e-07

> <r_epik_State_Penalty>
-0

> <r_epik_Charging_Adjusted_Penalty>
0

> <i_epik_Tot_Q>
0

> <i_epik_Tot_abs_Q>
0

> <r_epik_Metal_State_Penalty>
-0

> <b_epik_Metal_Only>
0

> <s_lp_Force_Field>
OPLS_2005

> <r_lp_Energy>
18.9456

> <b_lp_Chiralities_Consistent>
1

> <s_lp_Variant>
AV-unprocessed.smi:358-1

> <Gold.Version>
5.8.1

> <Gold.Id.Protein>
6NUR|6NUR_protein|mol2

> <Gold.PLP.Fitness>
38.7637

> <Gold.PLP.PLP>
-30.9618

> <Gold.PLP.part.hbond>
-4.9738

> <Gold.PLP.part.metal>
0.0000

> <Gold.PLP.part.buried>
-4.5402

> <Gold.PLP.part.nonpolar>
-21.9014

> <Gold.PLP.part.repulsive>
0.4055

> <Gold.PLP.ligand.clash>
0.0000

> <Gold.PLP.ligand.torsion>
0.9532

> <Gold.PLP.Chemscore.Hbond>
3.1513

> <Gold.PLP.Chemscore.CHOScore>
0.0000

> <Gold.PLP.Chemscore.Metal>
0.0000

> <Gold.Chemscore.Hbonds>
donor molecule, donor type, donor heavy atom, donor atom, acceptor molecule, acceptor atom, score
      L1  H     1    21       P1  7957  0.91
      P1  H  6931  6943       L1    10  0.36
      P1  H  6934  6947       L1    10  0.93
      P1  H  8011  8017       L1     3  0.53

> <Gold.PLP.Chemscore.Internal.Correction>
0.2545

> <Gold.Rescore>
     Score         DG    S(hbond)    S(metal)    S(lipo)     H(rot)  DE(clash)    DE(int)     intcor
     11.94     -14.50       3.09        0.00      60.93       3.30       1.46       1.10       ----

> <Gold.Chemscore.Fitness>
11.9411

> <Gold.Chemscore.DG>
-14.4966

> <Gold.Chemscore.ZeroCoef>
-5.4800

> <Gold.Chemscore.Hbond>
3.0932

> <Gold.Chemscore.Metal>
0.0000

> <Gold.Chemscore.Lipo>
60.9325

> <Gold.Chemscore.Internal_Hbond>
0.0000

> <Gold.Chemscore.DEClash>
1.4601

> <Gold.Chemscore.DEInternal>
1.0954

> <Gold.Chemscore.Rot>
3.2984

> <Gold.Chemscore.Internal.Correction>
   9.000000E+99

> <Gold.Chemscore.Hbonds>
donor molecule, donor type, donor heavy atom, donor atom, acceptor molecule, acceptor atom, score
      L1  H     1    21       P1  7957  0.85
      P1  H  6931  6943       L1    10  0.32
      P1  H  6934  6947       L1    10  0.88
      P1  H  8011  8017       L1     3  0.51

> <Gold.Chemscore.Hbond.Weighted>
-10.3313

> <Gold.Chemscore.Metal.Weighted>
-0.0000

> <Gold.Chemscore.Lipo.Weighted>
-7.1291

> <Gold.Chemscore.Internal_Hbond.Weighted>
0.0000

> <Gold.Chemscore.DEClash.Weighted>
1.4601

> <Gold.Chemscore.DEInternal.Weighted>
1.0954

> <Gold.Chemscore.Rot.Weighted>
8.4438

> <Gold.Chemscore.Internal.Correction.Weighted>
   9.000000E+99

> <Gold.Protein.RotatedTorsions>
[ 6907 6896 6895 6894 ] final  140.02 input  -60.11 | X-H torsion
[ 7974 7965 7964 7962 ] final  -22.58 input  175.53 | X-H torsion
[ 8008 7997 7996 7995 ] final  106.09 input   59.86 | X-H torsion
[ 10167 10162 10161 10158 ] final   16.94 input  -65.29 | X-H torsion
[ 10718 10713 10712 10709 ] final   72.70 input   66.30 | X-H torsion
[ 10763 10752 10751 10750 ] final  154.76 input  -60.55 | X-H torsion
[ 11005 11000 10999 10996 ] final   30.24 input  -57.11 | X-H torsion

> <Gold.Protein.ActiveResidues>
 VAL166  LYS551  ARG553  GLY616  TRP617  ASP618  TYR619  PRO620  LYS621  CYS622 
 ASP623  PHE694  ASN695  SER759  ASP760  ASP761  ALA762  ILE779  LEU786  VAL792 
 PHE793  MET794  SER795  GLU796  ALA797  LYS798  CYS799  TRP800  GLU811  SER814 

> <Gold.Protein.RotatedAtoms>
  152.2480  133.5191  159.5308 H   0  0  0  0  0  0  0  0  0  0  0  0  # atno 6907 bound_to 6896
  150.7085  134.0998  159.3971 H   0  0  0  0  0  0  0  0  0  0  0  0  # atno 6908 bound_to 6896
  151.8918  135.0413  160.0549 H   0  0  0  0  0  0  0  0  0  0  0  0  # atno 6909 bound_to 6896
  146.1667  140.4498  142.8549 H   0  0  0  0  0  0  0  0  0  0  0  0  # atno 7974 bound_to 7965
  156.1714  140.3119  155.8981 H   0  0  0  0  0  0  0  0  0  0  0  0  # atno 8008 bound_to 7997
  155.3578  140.0474  157.3063 H   0  0  0  0  0  0  0  0  0  0  0  0  # atno 8009 bound_to 7997
  154.5245  140.2209  155.8925 H   0  0  0  0  0  0  0  0  0  0  0  0  # atno 8010 bound_to 7997
  140.5761  143.9069  150.6751 H   0  0  0  0  0  0  0  0  0  0  0  0  # atno 10167 bound_to 10162
  157.6513  130.9592  150.0966 H   0  0  0  0  0  0  0  0  0  0  0  0  # atno 10718 bound_to 10713
  154.1575  135.2811  155.3118 H   0  0  0  0  0  0  0  0  0  0  0  0  # atno 10763 bound_to 10752
  154.6172  135.5479  153.7539 H   0  0  0  0  0  0  0  0  0  0  0  0  # atno 10764 bound_to 10752
  153.0202  135.6430  154.1717 H   0  0  0  0  0  0  0  0  0  0  0  0  # atno 10765 bound_to 10752
  140.2964  134.2806  155.7763 H   0  0  0  0  0  0  0  0  0  0  0  0  # atno 11005 bound_to 11000
  144.8103  140.6373  143.6420 LP  0  0  0  0  0  0  0  0  0  0  0  0  # atno 17320 bound_to 7965
  145.4448  139.1531  143.3950 LP  0  0  0  0  0  0  0  0  0  0  0  0  # atno 17321 bound_to 7965
  140.2557  143.3561  152.1367 LP  0  0  0  0  0  0  0  0  0  0  0  0  # atno 17342 bound_to 10162
  139.5144  144.6947  151.5664 LP  0  0  0  0  0  0  0  0  0  0  0  0  # atno 17343 bound_to 10162
  156.1900  130.3654  149.8922 LP  0  0  0  0  0  0  0  0  0  0  0  0  # atno 17370 bound_to 10713
  156.6853  130.8874  151.3581 LP  0  0  0  0  0  0  0  0  0  0  0  0  # atno 17371 bound_to 10713
  141.2136  133.7618  156.9702 LP  0  0  0  0  0  0  0  0  0  0  0  0  # atno 17394 bound_to 11000
  140.1148  134.9454  157.2118 LP  0  0  0  0  0  0  0  0  0  0  0  0  # atno 17395 bound_to 11000

$$$$
