AV-unprocessed.smi:2889|AV-procd|sdf|11110|dock3
  -GOLD-   2272015573D 1   1.00000     0.00000
 Structure written by MMmdl.
 36 37  0  0  0  0  0  0  0  0  1 V2000
  147.2056  132.3180  160.3793 C   0  0  0  0  0  0  0  0  0  0  0  0
  147.9964  132.6875  161.9686 S   0  0  0  0  0  0  0  0  0  0  0  0
  147.0226  134.1260  162.5175 C   0  0  2  0  0  0  0  0  0  0  0  0
  145.5162  133.8710  162.3227 C   0  0  0  0  0  0  0  0  0  0  0  0
  144.6716  135.0670  162.7860 C   0  0  0  0  0  0  0  0  0  0  0  0
  145.0869  136.3499  162.0536 C   0  0  0  0  0  0  0  0  0  0  0  0
  146.5839  136.6453  162.2433 C   0  0  0  0  0  0  0  0  0  0  0  0
  147.4744  135.4490  161.8508 C   0  0  2  0  0  0  0  0  0  0  0  0
  147.5367  135.3160  160.3906 N   0  0  0  0  0  0  0  0  0  0  0  0
  148.3236  136.5511  159.4805 S   0  0  0  0  0  0  0  0  0  0  0  0
  147.5455  137.7895  159.6407 O   0  0  0  0  0  0  0  0  0  0  0  0
  149.7487  136.5276  159.8434 O   0  0  0  0  0  0  0  0  0  0  0  0
  148.1303  135.9548  157.7490 C   0  0  0  0  0  0  0  0  0  0  0  0
  149.1950  134.9399  157.4449 C   0  0  0  0  0  0  0  0  0  0  0  0
  150.1961  134.9825  156.4351 C   0  0  0  0  0  0  0  0  0  0  0  0
  150.8804  133.8151  156.6151 C   0  0  0  0  0  0  0  0  0  0  0  0
  150.3485  133.1063  157.6426 O   0  0  0  0  0  0  0  0  0  0  0  0
  149.2721  133.8322  158.1654 N   0  0  0  0  0  0  0  0  0  0  0  0
  147.7254  131.4960  159.8879 H   0  0  0  0  0  0  0  0  0  0  0  0
  147.2395  133.1883  159.7241 H   0  0  0  0  0  0  0  0  0  0  0  0
  146.1656  132.0259  160.5197 H   0  0  0  0  0  0  0  0  0  0  0  0
  147.1926  134.2202  163.5910 H   0  0  0  0  0  0  0  0  0  0  0  0
  145.3087  133.6655  161.2717 H   0  0  0  0  0  0  0  0  0  0  0  0
  145.2172  132.9789  162.8742 H   0  0  0  0  0  0  0  0  0  0  0  0
  143.6148  134.8651  162.6091 H   0  0  0  0  0  0  0  0  0  0  0  0
  144.7847  135.2035  163.8622 H   0  0  0  0  0  0  0  0  0  0  0  0
  144.8651  136.2508  160.9903 H   0  0  0  0  0  0  0  0  0  0  0  0
  144.4945  137.1916  162.4134 H   0  0  0  0  0  0  0  0  0  0  0  0
  146.8668  137.5355  161.6802 H   0  0  0  0  0  0  0  0  0  0  0  0
  146.7615  136.8849  163.2924 H   0  0  0  0  0  0  0  0  0  0  0  0
  148.4826  135.6693  162.2024 H   0  0  0  0  0  0  0  0  0  0  0  0
  147.8827  134.3931  160.1279 H   0  0  0  0  0  0  0  0  0  0  0  0
  147.1319  135.5295  157.6419 H   0  0  0  0  0  0  0  0  0  0  0  0
  148.2010  136.8116  157.0792 H   0  0  0  0  0  0  0  0  0  0  0  0
  150.3848  135.7499  155.6995 H   0  0  0  0  0  0  0  0  0  0  0  0
  151.7267  133.3663  156.1165 H   0  0  0  0  0  0  0  0  0  0  0  0
  1  2  1  0  0  0  0
  1 19  1  0  0  0  0
  1 20  1  0  0  0  0
  1 21  1  0  0  0  0
  2  3  1  0  0  0  0
  3  8  1  0  0  0  0
  3  4  1  0  0  0  0
  3 22  1  0  0  0  0
  4  5  1  0  0  0  0
  4 23  1  0  0  0  0
  4 24  1  0  0  0  0
  5  6  1  0  0  0  0
  5 25  1  0  0  0  0
  5 26  1  0  0  0  0
  6  7  1  0  0  0  0
  6 27  1  0  0  0  0
  6 28  1  0  0  0  0
  7  8  1  0  0  0  0
  7 29  1  0  0  0  0
  7 30  1  0  0  0  0
  8  9  1  0  0  0  0
  8 31  1  0  0  0  0
  9 10  1  0  0  0  0
  9 32  1  0  0  0  0
 10 11  2  0  0  0  0
 10 12  2  0  0  0  0
 10 13  1  0  0  0  0
 13 14  1  0  0  0  0
 13 33  1  0  0  0  0
 13 34  1  0  0  0  0
 14 18  2  0  0  0  0
 14 15  1  0  0  0  0
 15 16  2  0  0  0  0
 15 35  1  0  0  0  0
 16 17  1  0  0  0  0
 16 36  1  0  0  0  0
 17 18  1  0  0  0  0
M  END
> <s_m_source_file>
AV-unprocessed.smi

> <i_m_source_file_index>
2889

> <i_lp_mmshare_version>
43012

> <i_f3d_flags>
0

> <s_epik_input>
W0NIM11TW0NAQEhdMVtDSDJdW0NIMl1bQ0gyXVtDSDJdW0NASF0xW05IXVMoPU8pKD1PKVtDSDJdYzJbY0hdW2NIXW9uMg==

> <s_epik_cmdline>
J2VwaWtfcHl0aG9uJywgJy1waCcsICc3LjAnLCAnLXRuJywgJzgnLCAnLW1hJywgJzIwMCcsICctbWV0YWxfYmluZGluZycsICctaW1hZScsICc8aW5maWxlLm1hZT4nLCAnLW9tYWUnLCAnPG91dGZpbGUubWFlPic=

> <r_lp_tautomer_probability>
1

> <r_epik_Ionization_Penalty>
0.000229547

> <r_epik_Ionization_Penalty_Charging>
0

> <r_epik_Ionization_Penalty_Neutral>
0.000229547

> <r_epik_State_Penalty>
-0

> <r_epik_Charging_Adjusted_Penalty>
0

> <i_epik_Tot_Q>
0

> <i_epik_Tot_abs_Q>
0

> <r_epik_Metal_State_Penalty>
0.145979

> <b_epik_Metal_Only>
0

> <s_lp_Force_Field>
OPLS_2005

> <r_lp_Energy>
4.93405

> <b_lp_Chiralities_Consistent>
1

> <s_lp_Variant>
AV-unprocessed.smi:2889-3

> <Gold.Version>
5.8.1

> <Gold.Id.Protein>
6NUR|6NUR_protein|mol2

> <Gold.PLP.Fitness>
35.9991

> <Gold.PLP.PLP>
-30.8288

> <Gold.PLP.part.hbond>
-4.0380

> <Gold.PLP.part.metal>
0.0000

> <Gold.PLP.part.buried>
-4.7744

> <Gold.PLP.part.nonpolar>
-22.3944

> <Gold.PLP.part.repulsive>
0.0000

> <Gold.PLP.ligand.clash>
0.0000

> <Gold.PLP.ligand.torsion>
0.6698

> <Gold.PLP.Chemscore.Hbond>
2.1120

> <Gold.PLP.Chemscore.CHOScore>
0.0000

> <Gold.PLP.Chemscore.Metal>
0.0000

> <Gold.Chemscore.Hbonds>
donor molecule, donor type, donor heavy atom, donor atom, acceptor molecule, acceptor atom, score
      P1  H  6896  6908       L1    17  0.43
      P1  H  6896  6909       L1    12  1.00
      P1  H  6934  6947       L1    11  0.66

> <Gold.PLP.Chemscore.Internal.Correction>
0.1740

> <Gold.Rescore>
     Score         DG    S(hbond)    S(metal)    S(lipo)     H(rot)  DE(clash)    DE(int)     intcor
     14.76     -15.67       1.87        0.00      73.17       1.81       0.06       0.85       ----

> <Gold.Chemscore.Fitness>
14.7567

> <Gold.Chemscore.DG>
-15.6684

> <Gold.Chemscore.ZeroCoef>
-5.4800

> <Gold.Chemscore.Hbond>
1.8715

> <Gold.Chemscore.Metal>
0.0000

> <Gold.Chemscore.Lipo>
73.1671

> <Gold.Chemscore.Internal_Hbond>
0.0000

> <Gold.Chemscore.DEClash>
0.0636

> <Gold.Chemscore.DEInternal>
0.8482

> <Gold.Chemscore.Rot>
1.8058

> <Gold.Chemscore.Internal.Correction>
   9.000000E+99

> <Gold.Chemscore.Hbonds>
donor molecule, donor type, donor heavy atom, donor atom, acceptor molecule, acceptor atom, score
      P1  H  6896  6908       L1    17  0.02
      P1  H  6896  6909       L1    12  0.99
      P1  H  6934  6947       L1    11  0.66

> <Gold.Chemscore.Hbond.Weighted>
-6.2507

> <Gold.Chemscore.Metal.Weighted>
-0.0000

> <Gold.Chemscore.Lipo.Weighted>
-8.5605

> <Gold.Chemscore.Internal_Hbond.Weighted>
0.0000

> <Gold.Chemscore.DEClash.Weighted>
0.0636

> <Gold.Chemscore.DEInternal.Weighted>
0.8482

> <Gold.Chemscore.Rot.Weighted>
4.6228

> <Gold.Chemscore.Internal.Correction.Weighted>
   9.000000E+99

> <Gold.Protein.RotatedTorsions>
[ 6907 6896 6895 6894 ] final   80.42 input  -60.11 | X-H torsion
[ 7974 7965 7964 7962 ] final -105.57 input  175.53 | X-H torsion
[ 8008 7997 7996 7995 ] final   68.62 input   59.86 | X-H torsion
[ 10167 10162 10161 10158 ] final  -78.64 input  -65.29 | X-H torsion
[ 10718 10713 10712 10709 ] final  149.74 input   66.30 | X-H torsion
[ 10763 10752 10751 10750 ] final  137.22 input  -60.55 | X-H torsion
[ 11005 11000 10999 10996 ] final   80.47 input  -57.11 | X-H torsion

> <Gold.Protein.ActiveResidues>
 VAL166  LYS551  ARG553  GLY616  TRP617  ASP618  TYR619  PRO620  LYS621  CYS622 
 ASP623  PHE694  ASN695  SER759  ASP760  ASP761  ALA762  ILE779  LEU786  VAL792 
 PHE793  MET794  SER795  GLU796  ALA797  LYS798  CYS799  TRP800  GLU811  SER814 

> <Gold.Protein.RotatedAtoms>
  152.5234  134.3361  159.9200 H   0  0  0  0  0  0  0  0  0  0  0  0  # atno 6907 bound_to 6896
  151.3310  133.3994  159.2670 H   0  0  0  0  0  0  0  0  0  0  0  0  # atno 6908 bound_to 6896
  150.9880  134.9239  159.7941 H   0  0  0  0  0  0  0  0  0  0  0  0  # atno 6909 bound_to 6896
  145.2288  140.9163  143.3216 H   0  0  0  0  0  0  0  0  0  0  0  0  # atno 7974 bound_to 7965
  155.7111  140.3494  155.4974 H   0  0  0  0  0  0  0  0  0  0  0  0  # atno 8008 bound_to 7997
  155.9355  140.1092  157.1120 H   0  0  0  0  0  0  0  0  0  0  0  0  # atno 8009 bound_to 7997
  154.4093  140.1223  156.4844 H   0  0  0  0  0  0  0  0  0  0  0  0  # atno 8010 bound_to 7997
  140.4664  143.2439  151.8272 H   0  0  0  0  0  0  0  0  0  0  0  0  # atno 10167 bound_to 10162
  157.2922  131.0855  151.1453 H   0  0  0  0  0  0  0  0  0  0  0  0  # atno 10718 bound_to 10713
  153.8694  135.3057  155.3441 H   0  0  0  0  0  0  0  0  0  0  0  0  # atno 10763 bound_to 10752
  154.7812  135.4834  153.9853 H   0  0  0  0  0  0  0  0  0  0  0  0  # atno 10764 bound_to 10752
  153.1415  135.6825  153.9116 H   0  0  0  0  0  0  0  0  0  0  0  0  # atno 10765 bound_to 10752
  139.9133  134.7923  156.1914 H   0  0  0  0  0  0  0  0  0  0  0  0  # atno 11005 bound_to 11000
  144.9696  139.3894  143.6316 LP  0  0  0  0  0  0  0  0  0  0  0  0  # atno 17320 bound_to 7965
  146.3358  139.8787  142.8828 LP  0  0  0  0  0  0  0  0  0  0  0  0  # atno 17321 bound_to 7965
  139.4812  144.4946  151.9141 LP  0  0  0  0  0  0  0  0  0  0  0  0  # atno 17342 bound_to 10162
  140.4031  144.2467  150.5892 LP  0  0  0  0  0  0  0  0  0  0  0  0  # atno 17343 bound_to 10162
  157.2845  130.6766  149.6082 LP  0  0  0  0  0  0  0  0  0  0  0  0  # atno 17370 bound_to 10713
  155.9667  130.4440  150.5442 LP  0  0  0  0  0  0  0  0  0  0  0  0  # atno 17371 bound_to 10713
  141.0581  133.6855  156.1900 LP  0  0  0  0  0  0  0  0  0  0  0  0  # atno 17394 bound_to 11000
  140.6704  134.4873  157.5587 LP  0  0  0  0  0  0  0  0  0  0  0  0  # atno 17395 bound_to 11000

$$$$
