AV-unprocessed.smi:1691|AV-procd|sdf|6776|dock3
  -GOLD-   22720 7533D 1   1.00000     0.00000
 Structure written by MMmdl.
 43 44  0  0  0  0  0  0  0  0  1 V2000
  148.7193  141.3652  155.9845 C   0  0  0  0  0  0  0  0  0  0  0  0
  148.6633  141.0443  154.4794 C   0  0  0  0  0  0  0  0  0  0  0  0
  147.4625  141.7320  153.8013 C   0  0  0  0  0  0  0  0  0  0  0  0
  148.7970  139.5122  154.1479 C   0  0  2  0  0  0  0  0  0  0  0  0
  147.4106  138.7938  154.1754 C   0  0  0  0  0  0  0  0  0  0  0  0
  147.3164  137.6817  153.2385 N   0  0  0  0  0  0  0  0  0  0  0  0
  146.1788  137.0767  152.8728 C   0  0  0  0  0  0  0  0  0  0  0  0
  145.0703  137.3852  153.3107 O   0  0  0  0  0  0  0  0  0  0  0  0
  146.4129  136.1051  151.9758 N   0  0  0  0  0  0  0  0  0  0  0  0
  145.4591  135.2672  151.3453 C   0  0  0  0  0  0  0  0  0  0  0  0
  145.6856  133.9107  150.9858 C   0  0  0  0  0  0  0  0  0  0  0  0
  144.6178  133.3786  150.4087 N   0  0  0  0  0  0  0  0  0  0  0  0
  143.7122  134.3827  150.3956 N   0  0  0  0  0  0  0  0  0  0  0  0
  144.1804  135.5512  150.9552 C   0  0  0  0  0  0  0  0  0  0  0  0
  149.8322  138.8388  154.9797 N   0  0  0  0  0  0  0  0  0  0  0  0
  149.8241  137.3744  154.8646 C   0  0  0  0  0  0  0  0  0  0  0  0
  150.9111  136.6980  155.7183 C   0  0  0  0  0  0  0  0  0  0  0  0
  152.1892  137.1996  155.3559 O   0  0  0  0  0  0  0  0  0  0  0  0
  152.2722  138.6079  155.5196 C   0  0  0  0  0  0  0  0  0  0  0  0
  151.1959  139.2918  154.6594 C   0  0  0  0  0  0  0  0  0  0  0  0
  142.7890  134.2569  150.0052 H   0  0  0  0  0  0  0  0  0  0  0  0
  147.8324  141.0169  156.5137 H   0  0  0  0  0  0  0  0  0  0  0  0
  148.7906  142.4405  156.1494 H   0  0  0  0  0  0  0  0  0  0  0  0
  149.5910  140.9052  156.4506 H   0  0  0  0  0  0  0  0  0  0  0  0
  149.5103  141.5775  154.0618 H   0  0  0  0  0  0  0  0  0  0  0  0
  146.5083  141.4651  154.2511 H   0  0  0  0  0  0  0  0  0  0  0  0
  147.4159  141.4884  152.7400 H   0  0  0  0  0  0  0  0  0  0  0  0
  147.5497  142.8160  153.8789 H   0  0  0  0  0  0  0  0  0  0  0  0
  149.1404  139.4426  153.1146 H   0  0  0  0  0  0  0  0  0  0  0  0
  147.2249  138.3402  155.1482 H   0  0  0  0  0  0  0  0  0  0  0  0
  146.6081  139.5145  154.0087 H   0  0  0  0  0  0  0  0  0  0  0  0
  148.1804  137.3608  152.8271 H   0  0  0  0  0  0  0  0  0  0  0  0
  147.3750  135.9523  151.7110 H   0  0  0  0  0  0  0  0  0  0  0  0
  146.5707  133.3069  151.1221 H   0  0  0  0  0  0  0  0  0  0  0  0
  143.5772  136.4445  151.0187 H   0  0  0  0  0  0  0  0  0  0  0  0
  148.8719  136.9698  155.2041 H   0  0  0  0  0  0  0  0  0  0  0  0
  149.9454  137.0823  153.8205 H   0  0  0  0  0  0  0  0  0  0  0  0
  150.7312  136.8717  156.7804 H   0  0  0  0  0  0  0  0  0  0  0  0
  150.8962  135.6189  155.5645 H   0  0  0  0  0  0  0  0  0  0  0  0
  152.1519  138.8706  156.5720 H   0  0  0  0  0  0  0  0  0  0  0  0
  153.2654  138.9414  155.2186 H   0  0  0  0  0  0  0  0  0  0  0  0
  151.4077  139.0998  153.6064 H   0  0  0  0  0  0  0  0  0  0  0  0
  151.3174  140.3610  154.8041 H   0  0  0  0  0  0  0  0  0  0  0  0
  1  2  1  0  0  0  0
  1 22  1  0  0  0  0
  1 23  1  0  0  0  0
  1 24  1  0  0  0  0
  2  3  1  0  0  0  0
  2  4  1  0  0  0  0
  2 25  1  0  0  0  0
  3 26  1  0  0  0  0
  3 27  1  0  0  0  0
  3 28  1  0  0  0  0
  4  5  1  0  0  0  0
  4 15  1  0  0  0  0
  4 29  1  0  0  0  0
  5  6  1  0  0  0  0
  5 30  1  0  0  0  0
  5 31  1  0  0  0  0
  6  7  1  0  0  0  0
  6 32  1  0  0  0  0
  7  8  2  0  0  0  0
  7  9  1  0  0  0  0
  9 10  1  0  0  0  0
  9 33  1  0  0  0  0
 10 14  2  0  0  0  0
 10 11  1  0  0  0  0
 11 12  2  0  0  0  0
 11 34  1  0  0  0  0
 12 13  1  0  0  0  0
 13 21  1  0  0  0  0
 13 14  1  0  0  0  0
 14 35  1  0  0  0  0
 15 20  1  0  0  0  0
 15 16  1  0  0  0  0
 16 17  1  0  0  0  0
 16 36  1  0  0  0  0
 16 37  1  0  0  0  0
 17 18  1  0  0  0  0
 17 38  1  0  0  0  0
 17 39  1  0  0  0  0
 18 19  1  0  0  0  0
 19 20  1  0  0  0  0
 19 40  1  0  0  0  0
 19 41  1  0  0  0  0
 20 42  1  0  0  0  0
 20 43  1  0  0  0  0
M  END
> <s_m_source_file>
AV-unprocessed.smi

> <i_m_source_file_index>
1691

> <i_lp_mmshare_version>
43012

> <i_f3d_flags>
0

> <s_epik_input>
W0NIMl0xW0NIMl1PW0NIMl1bQ0gyXU4xW0NASF0oW0NIXShbQ0gzXSlbQ0gzXSlbQ0gyXVtOSF1DKD1PKVtOSF1jMltjSF1uW25IXVtjSF0y

> <s_epik_cmdline>
J2VwaWtfcHl0aG9uJywgJy1waCcsICc3LjAnLCAnLXRuJywgJzgnLCAnLW1hJywgJzIwMCcsICctbWV0YWxfYmluZGluZycsICctaW1hZScsICc8aW5maWxlLm1hZT4nLCAnLW9tYWUnLCAnPG91dGZpbGUubWFlPic=

> <r_lp_tautomer_probability>
0.5

> <r_epik_Ionization_Penalty>
0.462189

> <r_epik_Ionization_Penalty_Charging>
0

> <r_epik_Ionization_Penalty_Neutral>
0.462189

> <r_epik_State_Penalty>
0.465733

> <r_epik_Charging_Adjusted_Penalty>
0.465733

> <i_epik_Tot_Q>
0

> <i_epik_Tot_abs_Q>
0

> <r_epik_Metal_State_Penalty>
0.465732

> <b_epik_Metal_Only>
0

> <s_lp_Force_Field>
OPLS_2005

> <r_lp_Energy>
39.5342

> <b_lp_Chiralities_Consistent>
1

> <s_lp_Variant>
AV-unprocessed.smi:1691-3

> <Gold.Version>
5.8.1

> <Gold.Id.Protein>
6NUR|6NUR_protein|mol2

> <Gold.PLP.Fitness>
42.6662

> <Gold.PLP.PLP>
-30.0608

> <Gold.PLP.part.hbond>
-3.9042

> <Gold.PLP.part.metal>
0.0000

> <Gold.PLP.part.buried>
-3.3720

> <Gold.PLP.part.nonpolar>
-23.5454

> <Gold.PLP.part.repulsive>
0.5563

> <Gold.PLP.ligand.clash>
0.0000

> <Gold.PLP.ligand.torsion>
1.1659

> <Gold.PLP.Chemscore.Hbond>
3.8240

> <Gold.PLP.Chemscore.CHOScore>
1.0000

> <Gold.PLP.Chemscore.Metal>
0.0000

> <Gold.Chemscore.Hbonds>
donor molecule, donor type, donor heavy atom, donor atom, acceptor molecule, acceptor atom, score
      L1  H     6    32       P1  7948  0.96
      L1  H     9    33       P1  7948  1.00
      L1  H    13    21       P1 10186  1.00
      P1  H 10752 10765       L1    18  0.83
      L1  C    14    35       P1 10171  0.97

> <Gold.PLP.Chemscore.Internal.Correction>
0.4651

> <Gold.Rescore>
     Score         DG    S(hbond)    S(metal)    S(lipo)     H(rot)  DE(clash)    DE(int)     intcor
     19.34     -21.81       3.87        0.00      68.21       1.79       0.02       2.45       ----

> <Gold.Chemscore.Fitness>
19.3382

> <Gold.Chemscore.DG>
-21.8090

> <Gold.Chemscore.ZeroCoef>
-5.4800

> <Gold.Chemscore.Hbond>
3.8708

> <Gold.Chemscore.Metal>
0.0000

> <Gold.Chemscore.Lipo>
68.2145

> <Gold.Chemscore.Internal_Hbond>
0.0000

> <Gold.Chemscore.DEClash>
0.0164

> <Gold.Chemscore.DEInternal>
2.4544

> <Gold.Chemscore.Rot>
1.7893

> <Gold.Chemscore.Internal.Correction>
   9.000000E+99

> <Gold.Chemscore.Hbonds>
donor molecule, donor type, donor heavy atom, donor atom, acceptor molecule, acceptor atom, score
      L1  H     6    32       P1  7948  0.92
      L1  H     9    33       P1  7948  0.95
      L1  H    13    21       P1 10186  0.96
      P1  H 10752 10765       L1    18  0.21

> <Gold.Chemscore.Hbond.Weighted>
-12.9284

> <Gold.Chemscore.Metal.Weighted>
-0.0000

> <Gold.Chemscore.Lipo.Weighted>
-7.9811

> <Gold.Chemscore.Internal_Hbond.Weighted>
0.0000

> <Gold.Chemscore.DEClash.Weighted>
0.0164

> <Gold.Chemscore.DEInternal.Weighted>
2.4544

> <Gold.Chemscore.Rot.Weighted>
4.5805

> <Gold.Chemscore.Internal.Correction.Weighted>
   9.000000E+99

> <Gold.Protein.RotatedTorsions>
[ 6907 6896 6895 6894 ] final -111.02 input  -60.11 | X-H torsion
[ 7974 7965 7964 7962 ] final -136.66 input  175.53 | X-H torsion
[ 8008 7997 7996 7995 ] final    9.88 input   59.86 | X-H torsion
[ 10167 10162 10161 10158 ] final  103.91 input  -65.29 | X-H torsion
[ 10718 10713 10712 10709 ] final  113.54 input   66.30 | X-H torsion
[ 10763 10752 10751 10750 ] final -166.55 input  -60.55 | X-H torsion
[ 11005 11000 10999 10996 ] final  -19.29 input  -57.11 | X-H torsion

> <Gold.Protein.ActiveResidues>
 VAL166  LYS551  ARG553  GLY616  TRP617  ASP618  TYR619  PRO620  LYS621  CYS622 
 ASP623  PHE694  ASN695  SER759  ASP760  ASP761  ALA762  ILE779  LEU786  VAL792 
 PHE793  MET794  SER795  GLU796  ALA797  LYS798  CYS799  TRP800  GLU811  SER814 

> <Gold.Protein.RotatedAtoms>
  150.7663  133.9296  159.3422 H   0  0  0  0  0  0  0  0  0  0  0  0  # atno 6907 bound_to 6896
  151.7193  135.0895  160.0291 H   0  0  0  0  0  0  0  0  0  0  0  0  # atno 6908 bound_to 6896
  152.3660  133.6319  159.6086 H   0  0  0  0  0  0  0  0  0  0  0  0  # atno 6909 bound_to 6896
  144.8908  140.6639  143.5147 H   0  0  0  0  0  0  0  0  0  0  0  0  # atno 7974 bound_to 7965
  154.7859  140.2827  155.6028 H   0  0  0  0  0  0  0  0  0  0  0  0  # atno 8008 bound_to 7997
  156.2957  140.2614  156.2624 H   0  0  0  0  0  0  0  0  0  0  0  0  # atno 8009 bound_to 7997
  154.9728  140.0376  157.2232 H   0  0  0  0  0  0  0  0  0  0  0  0  # atno 8010 bound_to 7997
  139.7222  144.7055  151.0854 H   0  0  0  0  0  0  0  0  0  0  0  0  # atno 10167 bound_to 10162
  157.6332  131.0985  150.7056 H   0  0  0  0  0  0  0  0  0  0  0  0  # atno 10718 bound_to 10713
  154.6822  135.2956  154.9597 H   0  0  0  0  0  0  0  0  0  0  0  0  # atno 10763 bound_to 10752
  154.0588  135.6634  153.4813 H   0  0  0  0  0  0  0  0  0  0  0  0  # atno 10764 bound_to 10752
  153.0555  135.5147  154.7871 H   0  0  0  0  0  0  0  0  0  0  0  0  # atno 10765 bound_to 10752
  140.8352  133.7967  155.9801 H   0  0  0  0  0  0  0  0  0  0  0  0  # atno 11005 bound_to 11000
  145.3787  139.1642  143.4292 LP  0  0  0  0  0  0  0  0  0  0  0  0  # atno 17320 bound_to 7965
  146.3052  140.3865  142.8689 LP  0  0  0  0  0  0  0  0  0  0  0  0  # atno 17321 bound_to 7965
  140.7756  143.5151  150.9605 LP  0  0  0  0  0  0  0  0  0  0  0  0  # atno 17342 bound_to 10162
  139.8838  143.7039  152.3154 LP  0  0  0  0  0  0  0  0  0  0  0  0  # atno 17343 bound_to 10162
  156.7392  130.4733  149.5481 LP  0  0  0  0  0  0  0  0  0  0  0  0  # atno 17370 bound_to 10713
  156.1551  130.6336  151.0646 LP  0  0  0  0  0  0  0  0  0  0  0  0  # atno 17371 bound_to 10713
  140.8955  134.2443  157.5071 LP  0  0  0  0  0  0  0  0  0  0  0  0  # atno 17394 bound_to 11000
  139.8704  134.9682  156.4622 LP  0  0  0  0  0  0  0  0  0  0  0  0  # atno 17395 bound_to 11000

$$$$
