AV-unprocessed.smi:102|AV-procd|sdf|965|dock2
  -GOLD-   2262017513D 1   1.00000     0.00000
 Structure written by MMmdl.
 43 44  0  0  0  0  0  0  0  0  2 V2000
  150.3110  138.2457  154.0031 C   0  0  0  0  0  0  0  0  0  0  0  0
  149.3602  138.7630  155.0751 C   0  0  0  0  0  0  0  0  0  0  0  0
  149.3523  139.9489  155.4056 O   0  0  0  0  0  0  0  0  0  0  0  0
  148.5768  137.7980  155.5802 O   0  0  0  0  0  0  0  0  0  0  0  0
  147.6538  138.1128  156.6097 C   0  0  0  0  0  0  0  0  0  0  0  0
  148.2810  137.7931  157.9754 C   0  0  2  0  0  0  0  0  0  0  0  0
  149.5410  138.4410  158.0839 O   0  0  0  0  0  0  0  0  0  0  0  0
  150.5308  137.5939  157.5957 C   0  0  1  0  0  0  0  0  0  0  0  0
  151.8366  137.9113  158.2795 N   0  0  0  0  0  0  0  0  0  0  0  0
  151.9859  137.7000  159.6392 C   0  0  0  0  0  0  0  0  0  0  0  0
  153.1558  137.9527  160.2605 C   0  0  0  0  0  0  0  0  0  0  0  0
  153.2723  137.7382  161.5822 F   0  0  0  0  0  0  0  0  0  0  0  0
  154.2914  138.4525  159.4875 C   0  0  0  0  0  0  0  0  0  0  0  0
  155.3526  138.6920  160.0611 O   0  0  0  0  0  0  0  0  0  0  0  0
  154.1209  138.6298  158.1450 N   0  5  0  0  0  0  0  0  0  0  0  0
  152.9409  138.3668  157.5101 C   0  0  0  0  0  0  0  0  0  0  0  0
  152.7864  138.4973  156.2958 O   0  0  0  0  0  0  0  0  0  0  0  0
  150.0968  136.1633  157.9136 C   0  0  2  0  0  0  0  0  0  0  0  0
  150.3961  135.3055  156.8216 O   0  0  0  0  0  0  0  0  0  0  0  0
  150.1812  133.9838  156.9265 C   0  0  0  0  0  0  0  0  0  0  0  0
  150.5456  133.2332  155.6526 C   0  0  0  0  0  0  0  0  0  0  0  0
  149.7347  133.3975  157.9128 O   0  0  0  0  0  0  0  0  0  0  0  0
  148.5921  136.2955  158.1310 C   0  0  1  0  0  0  0  0  0  0  0  0
  148.2719  135.8235  159.4337 O   0  0  0  0  0  0  0  0  0  0  0  0
  147.0714  136.0894  159.9759 C   0  0  0  0  0  0  0  0  0  0  0  0
  146.8779  135.4046  161.3224 C   0  0  0  0  0  0  0  0  0  0  0  0
  146.1959  136.8030  159.4860 O   0  0  0  0  0  0  0  0  0  0  0  0
  150.2190  137.1656  153.8865 H   0  0  0  0  0  0  0  0  0  0  0  0
  151.3420  138.4768  154.2710 H   0  0  0  0  0  0  0  0  0  0  0  0
  150.0893  138.7159  153.0450 H   0  0  0  0  0  0  0  0  0  0  0  0
  147.4199  139.1772  156.5563 H   0  0  0  0  0  0  0  0  0  0  0  0
  146.7202  137.5666  156.4691 H   0  0  0  0  0  0  0  0  0  0  0  0
  147.6168  138.1427  158.7670 H   0  0  0  0  0  0  0  0  0  0  0  0
  150.6577  137.7957  156.5302 H   0  0  0  0  0  0  0  0  0  0  0  0
  151.1583  137.3196  160.2192 H   0  0  0  0  0  0  0  0  0  0  0  0
  150.5962  135.8415  158.8296 H   0  0  0  0  0  0  0  0  0  0  0  0
  151.4409  133.6605  155.2006 H   0  0  0  0  0  0  0  0  0  0  0  0
  149.7297  133.2937  154.9324 H   0  0  0  0  0  0  0  0  0  0  0  0
  150.7385  132.1829  155.8713 H   0  0  0  0  0  0  0  0  0  0  0  0
  148.0530  135.7124  157.3823 H   0  0  0  0  0  0  0  0  0  0  0  0
  147.2852  134.3937  161.2991 H   0  0  0  0  0  0  0  0  0  0  0  0
  145.8182  135.3430  161.5708 H   0  0  0  0  0  0  0  0  0  0  0  0
  147.3854  135.9657  162.1068 H   0  0  0  0  0  0  0  0  0  0  0  0
  1  2  1  0  0  0  0
  1 28  1  0  0  0  0
  1 29  1  0  0  0  0
  1 30  1  0  0  0  0
  2  3  2  0  0  0  0
  2  4  1  0  0  0  0
  4  5  1  0  0  0  0
  5  6  1  0  0  0  0
  5 31  1  0  0  0  0
  5 32  1  0  0  0  0
  6 23  1  0  0  0  0
  6  7  1  0  0  0  0
  6 33  1  0  0  0  0
  7  8  1  0  0  0  0
  8  9  1  0  0  0  0
  8 18  1  0  0  0  0
  8 34  1  0  0  0  0
  9 16  1  0  0  0  0
  9 10  1  0  0  0  0
 10 11  2  0  0  0  0
 10 35  1  0  0  0  0
 11 12  1  0  0  0  0
 11 13  1  0  0  0  0
 13 14  2  0  0  0  0
 13 15  1  0  0  0  0
 15 16  1  0  0  0  0
 16 17  2  0  0  0  0
 18 19  1  0  0  0  0
 18 23  1  0  0  0  0
 18 36  1  0  0  0  0
 19 20  1  0  0  0  0
 20 21  1  0  0  0  0
 20 22  2  0  0  0  0
 21 37  1  0  0  0  0
 21 38  1  0  0  0  0
 21 39  1  0  0  0  0
 23 24  1  0  0  0  0
 23 40  1  0  0  0  0
 24 25  1  0  0  0  0
 25 26  1  0  0  0  0
 25 27  2  0  0  0  0
 26 41  1  0  0  0  0
 26 42  1  0  0  0  0
 26 43  1  0  0  0  0
M  CHG  1  15  -1
M  END
> <s_m_source_file>
AV-unprocessed.smi

> <i_m_source_file_index>
102

> <i_lp_mmshare_version>
43012

> <i_f3d_flags>
0

> <s_epik_input>
W0NIM11DKD1PKU9bQ0gyXVtDQEBIXTFPW0NASF0oW0NAQEhdKE9DKD1PKVtDSDNdKVtDQEhdMU9DKD1PKVtDSDNdKW4yW2NIXWMoRiljKD1PKVtuSF1jMj1P

> <s_epik_cmdline>
J2VwaWtfcHl0aG9uJywgJy1waCcsICc3LjAnLCAnLXRuJywgJzgnLCAnLW1hJywgJzIwMCcsICctbWV0YWxfYmluZGluZycsICctaW1hZScsICc8aW5maWxlLm1hZT4nLCAnLW9tYWUnLCAnPG91dGZpbGUubWFlPic=

> <r_epik_Ionization_Penalty>
1.40304

> <r_epik_Ionization_Penalty_Charging>
1.43915e-08

> <r_epik_Ionization_Penalty_Neutral>
1.40304

> <r_epik_State_Penalty>
1.48536

> <r_epik_Charging_Adjusted_Penalty>
1.48536

> <i_epik_Tot_Q>
-1

> <i_epik_Tot_abs_Q>
1

> <r_epik_Metal_State_Penalty>
0.00663881

> <b_epik_Metal_Only>
0

> <s_epik_Chemistry_Notes>
This compound has an ester and may undergo hydrolysis at high or low pH. This compound contains an acetal/aminal-like group ( X-CH(R)-Y where X, Y are N, S, or O) that may be acid/base labile, releasing an aldehyde.

> <s_lp_Force_Field>
OPLS_2005

> <r_lp_Energy>
22.1455

> <b_lp_Chiralities_Consistent>
1

> <s_lp_Variant>
AV-unprocessed.smi:102-21

> <Gold.Version>
5.8.1

> <Gold.Id.Protein>
6NUR|6NUR_protein|mol2

> <Gold.PLP.Fitness>
39.5406

> <Gold.PLP.PLP>
-27.1408

> <Gold.PLP.part.hbond>
-4.0000

> <Gold.PLP.part.metal>
0.0000

> <Gold.PLP.part.buried>
-2.5145

> <Gold.PLP.part.nonpolar>
-20.2628

> <Gold.PLP.part.repulsive>
0.0544

> <Gold.PLP.ligand.clash>
0.0000

> <Gold.PLP.ligand.torsion>
0.4451

> <Gold.PLP.Chemscore.Hbond>
4.3619

> <Gold.PLP.Chemscore.CHOScore>
0.0000

> <Gold.PLP.Chemscore.Metal>
0.0000

> <Gold.Chemscore.Hbonds>
donor molecule, donor type, donor heavy atom, donor atom, acceptor molecule, acceptor atom, score
      P1  H  6896  6907       L1    22  1.00
      P1  H  7997  8008       L1    15  1.60

> <Gold.PLP.Chemscore.Internal.Correction>
0.2043

> <Gold.Rescore>
     Score         DG    S(hbond)    S(metal)    S(lipo)     H(rot)  DE(clash)    DE(int)     intcor
      5.41      -9.18       2.73        0.00      41.23       4.00       0.32       3.45       ----

> <Gold.Chemscore.Fitness>
5.4127

> <Gold.Chemscore.DG>
-9.1821

> <Gold.Chemscore.ZeroCoef>
-5.4800

> <Gold.Chemscore.Hbond>
2.7262

> <Gold.Chemscore.Metal>
0.0000

> <Gold.Chemscore.Lipo>
41.2309

> <Gold.Chemscore.Internal_Hbond>
0.0000

> <Gold.Chemscore.DEClash>
0.3152

> <Gold.Chemscore.DEInternal>
3.4542

> <Gold.Chemscore.Rot>
3.9951

> <Gold.Chemscore.Internal.Correction>
   9.000000E+99

> <Gold.Chemscore.Hbonds>
donor molecule, donor type, donor heavy atom, donor atom, acceptor molecule, acceptor atom, score
      P1  H  6896  6907       L1    22  0.60
      P1  H  7997  8008       L1    15  0.67

> <Gold.Chemscore.Hbond.Weighted>
-9.1055

> <Gold.Chemscore.Metal.Weighted>
-0.0000

> <Gold.Chemscore.Lipo.Weighted>
-4.8240

> <Gold.Chemscore.Internal_Hbond.Weighted>
0.0000

> <Gold.Chemscore.DEClash.Weighted>
0.3152

> <Gold.Chemscore.DEInternal.Weighted>
3.4542

> <Gold.Chemscore.Rot.Weighted>
10.2274

> <Gold.Chemscore.Internal.Correction.Weighted>
   9.000000E+99

> <Gold.Protein.RotatedTorsions>
[ 6907 6896 6895 6894 ] final -119.82 input  -60.11 | X-H torsion
[ 7974 7965 7964 7962 ] final -165.63 input  175.53 | X-H torsion
[ 8008 7997 7996 7995 ] final -126.47 input   59.86 | X-H torsion
[ 10167 10162 10161 10158 ] final  -18.34 input  -65.29 | X-H torsion
[ 10718 10713 10712 10709 ] final  -56.26 input   66.30 | X-H torsion
[ 10763 10752 10751 10750 ] final   61.99 input  -60.55 | X-H torsion
[ 11005 11000 10999 10996 ] final  139.18 input  -57.11 | X-H torsion

> <Gold.Protein.ActiveResidues>
 VAL166  LYS551  ARG553  GLY616  TRP617  ASP618  TYR619  PRO620  LYS621  CYS622 
 ASP623  PHE694  ASN695  SER759  ASP760  ASP761  ALA762  ILE779  LEU786  VAL792 
 PHE793  MET794  SER795  GLU796  ALA797  LYS798  CYS799  TRP800  GLU811  SER814 

> <Gold.Protein.RotatedAtoms>
  150.8339  133.8046  159.3087 H   0  0  0  0  0  0  0  0  0  0  0  0  # atno 6907 bound_to 6896
  151.5768  135.1058  160.0017 H   0  0  0  0  0  0  0  0  0  0  0  0  # atno 6908 bound_to 6896
  152.4414  133.7414  159.6699 H   0  0  0  0  0  0  0  0  0  0  0  0  # atno 6909 bound_to 6896
  144.7265  140.2786  143.6239 H   0  0  0  0  0  0  0  0  0  0  0  0  # atno 7974 bound_to 7965
  155.2302  140.0425  157.2961 H   0  0  0  0  0  0  0  0  0  0  0  0  # atno 8008 bound_to 7997
  154.5893  140.2422  155.7913 H   0  0  0  0  0  0  0  0  0  0  0  0  # atno 8009 bound_to 7997
  156.2248  140.2958  156.0049 H   0  0  0  0  0  0  0  0  0  0  0  0  # atno 8010 bound_to 7997
  140.7257  143.4926  150.9972 H   0  0  0  0  0  0  0  0  0  0  0  0  # atno 10167 bound_to 10162
  156.1303  130.4160  150.0281 H   0  0  0  0  0  0  0  0  0  0  0  0  # atno 10718 bound_to 10713
  152.9968  135.5481  154.6121 H   0  0  0  0  0  0  0  0  0  0  0  0  # atno 10763 bound_to 10752
  154.5439  135.2822  155.1072 H   0  0  0  0  0  0  0  0  0  0  0  0  # atno 10764 bound_to 10752
  154.2338  135.6428  153.5237 H   0  0  0  0  0  0  0  0  0  0  0  0  # atno 10765 bound_to 10752
  140.0237  134.9385  157.0525 H   0  0  0  0  0  0  0  0  0  0  0  0  # atno 11005 bound_to 11000
  145.7972  139.1950  143.2069 LP  0  0  0  0  0  0  0  0  0  0  0  0  # atno 17320 bound_to 7965
  146.0707  140.7872  142.9689 LP  0  0  0  0  0  0  0  0  0  0  0  0  # atno 17321 bound_to 7965
  139.8631  143.7288  152.3172 LP  0  0  0  0  0  0  0  0  0  0  0  0  # atno 17342 bound_to 10162
  139.7511  144.7534  151.0505 LP  0  0  0  0  0  0  0  0  0  0  0  0  # atno 17343 bound_to 10162
  156.8195  130.9354  151.3641 LP  0  0  0  0  0  0  0  0  0  0  0  0  # atno 17370 bound_to 10713
  157.6481  130.8861  149.9578 LP  0  0  0  0  0  0  0  0  0  0  0  0  # atno 17371 bound_to 10713
  140.4344  134.1747  155.7170 LP  0  0  0  0  0  0  0  0  0  0  0  0  # atno 17394 bound_to 11000
  141.1789  133.8455  157.1326 LP  0  0  0  0  0  0  0  0  0  0  0  0  # atno 17395 bound_to 11000

$$$$
