AV-unprocessed.smi:3053|AV-procd|sdf|11638|dock2
  -GOLD-   2272017 33D 1   1.00000     0.00000
 Structure written by MMmdl.
 31 32  0  0  0  0  0  0  0  0  1 V2000
  153.6239  141.9607  161.3617 C   0  0  0  0  0  0  0  0  0  0  0  0
  152.8347  142.8331  160.4470 C   0  0  0  0  0  0  0  0  0  0  0  0
  152.5674  142.5213  159.1763 N   0  0  0  0  0  0  0  0  0  0  0  0
  151.8020  143.4983  158.5323 C   0  0  0  0  0  0  0  0  0  0  0  0
  151.3713  143.2933  157.1091 C   0  0  0  0  0  0  0  0  0  0  0  0
  150.6415  141.9563  156.8723 C   0  0  0  0  0  0  0  0  0  0  0  0
  149.6200  142.0574  155.8321 N   0  0  0  0  0  0  0  0  0  0  0  0
  149.4904  141.2310  154.7822 C   0  0  0  0  0  0  0  0  0  0  0  0
  150.2586  140.2942  154.5586 O   0  0  0  0  0  0  0  0  0  0  0  0
  148.3126  141.5133  153.8395 C   0  0  1  0  0  0  0  0  0  0  0  0
  147.2506  140.4017  153.8437 C   0  0  0  0  0  0  0  0  0  0  0  0
  146.0815  141.0758  154.3745 N   0  0  0  0  0  0  0  0  0  0  0  0
  146.2832  142.3730  154.6143 C   0  0  0  0  0  0  0  0  0  0  0  0
  145.4501  143.1650  155.0467 O   0  0  0  0  0  0  0  0  0  0  0  0
  147.5492  142.6601  154.3022 N   0  0  0  0  0  0  0  0  0  0  0  0
  151.5076  144.5720  159.3356 C   0  0  0  0  0  0  0  0  0  0  0  0
  152.1600  144.3815  160.9390 S   0  0  0  0  0  0  0  0  0  0  0  0
  153.7708  140.9742  160.9203 H   0  0  0  0  0  0  0  0  0  0  0  0
  153.0988  141.8438  162.3097 H   0  0  0  0  0  0  0  0  0  0  0  0
  154.5991  142.4081  161.5534 H   0  0  0  0  0  0  0  0  0  0  0  0
  150.7217  144.1130  156.7993 H   0  0  0  0  0  0  0  0  0  0  0  0
  152.2394  143.3439  156.4511 H   0  0  0  0  0  0  0  0  0  0  0  0
  151.3620  141.1997  156.5611 H   0  0  0  0  0  0  0  0  0  0  0  0
  150.2074  141.5940  157.8056 H   0  0  0  0  0  0  0  0  0  0  0  0
  148.9470  142.8039  155.9297 H   0  0  0  0  0  0  0  0  0  0  0  0
  148.6675  141.7080  152.8262 H   0  0  0  0  0  0  0  0  0  0  0  0
  147.0474  140.0357  152.8368 H   0  0  0  0  0  0  0  0  0  0  0  0
  147.5135  139.5504  154.4737 H   0  0  0  0  0  0  0  0  0  0  0  0
  145.2035  140.6021  154.5305 H   0  0  0  0  0  0  0  0  0  0  0  0
  147.9598  143.5764  154.4067 H   0  0  0  0  0  0  0  0  0  0  0  0
  150.9333  145.4518  159.0866 H   0  0  0  0  0  0  0  0  0  0  0  0
  1  2  1  0  0  0  0
  1 18  1  0  0  0  0
  1 19  1  0  0  0  0
  1 20  1  0  0  0  0
  2 17  1  0  0  0  0
  2  3  2  0  0  0  0
  3  4  1  0  0  0  0
  4  5  1  0  0  0  0
  4 16  2  0  0  0  0
  5  6  1  0  0  0  0
  5 21  1  0  0  0  0
  5 22  1  0  0  0  0
  6  7  1  0  0  0  0
  6 23  1  0  0  0  0
  6 24  1  0  0  0  0
  7  8  1  0  0  0  0
  7 25  1  0  0  0  0
  8  9  2  0  0  0  0
  8 10  1  0  0  0  0
 10 15  1  0  0  0  0
 10 11  1  0  0  0  0
 10 26  1  0  0  0  0
 11 12  1  0  0  0  0
 11 27  1  0  0  0  0
 11 28  1  0  0  0  0
 12 13  1  0  0  0  0
 12 29  1  0  0  0  0
 13 14  2  0  0  0  0
 13 15  1  0  0  0  0
 15 30  1  0  0  0  0
 16 17  1  0  0  0  0
 16 31  1  0  0  0  0
M  END
> <s_m_source_file>
AV-unprocessed.smi

> <i_m_source_file_index>
3053

> <i_lp_mmshare_version>
43012

> <i_f3d_flags>
0

> <s_epik_input>
W0NIM11jMW5jKFtjSF1zMSlbQ0gyXVtDSDJdW05IXUMoPU8pW0NAQEhdMltDSDJdW05IXUMoPU8pW05IXTI=

> <s_epik_cmdline>
J2VwaWtfcHl0aG9uJywgJy1waCcsICc3LjAnLCAnLXRuJywgJzgnLCAnLW1hJywgJzIwMCcsICctbWV0YWxfYmluZGluZycsICctaW1hZScsICc8aW5maWxlLm1hZT4nLCAnLW9tYWUnLCAnPG91dGZpbGUubWFlPic=

> <r_epik_Ionization_Penalty>
0.00110852

> <r_epik_Ionization_Penalty_Charging>
0

> <r_epik_Ionization_Penalty_Neutral>
0.00110852

> <r_epik_State_Penalty>
0.000695988

> <r_epik_Charging_Adjusted_Penalty>
0.000695988

> <i_epik_Tot_Q>
0

> <i_epik_Tot_abs_Q>
0

> <r_epik_Metal_State_Penalty>
-0

> <b_epik_Metal_Only>
0

> <s_lp_Force_Field>
OPLS_2005

> <r_lp_Energy>
23.8459

> <b_lp_Chiralities_Consistent>
1

> <s_lp_Variant>
AV-unprocessed.smi:3053-2

> <Gold.Version>
5.8.1

> <Gold.Id.Protein>
6NUR|6NUR_protein|mol2

> <Gold.PLP.Fitness>
47.7335

> <Gold.PLP.PLP>
-40.3463

> <Gold.PLP.part.hbond>
-3.7476

> <Gold.PLP.part.metal>
0.0000

> <Gold.PLP.part.buried>
-5.2805

> <Gold.PLP.part.nonpolar>
-31.2310

> <Gold.PLP.part.repulsive>
0.6092

> <Gold.PLP.ligand.clash>
0.0000

> <Gold.PLP.ligand.torsion>
0.3301

> <Gold.PLP.Chemscore.Hbond>
2.6640

> <Gold.PLP.Chemscore.CHOScore>
0.0000

> <Gold.PLP.Chemscore.Metal>
0.0000

> <Gold.Chemscore.Hbonds>
donor molecule, donor type, donor heavy atom, donor atom, acceptor molecule, acceptor atom, score
      L1  H     7    25       P1  8028  0.77
      L1  H    15    30       P1  8028  0.90
      P1  H  7989  7998       L1     9  1.00

> <Gold.PLP.Chemscore.Internal.Correction>
0.0554

> <Gold.Rescore>
     Score         DG    S(hbond)    S(metal)    S(lipo)     H(rot)  DE(clash)    DE(int)     intcor
     17.86     -18.57       2.26        0.00      91.56       2.02       0.37       0.34       ----

> <Gold.Chemscore.Fitness>
17.8569

> <Gold.Chemscore.DG>
-18.5731

> <Gold.Chemscore.ZeroCoef>
-5.4800

> <Gold.Chemscore.Hbond>
2.2648

> <Gold.Chemscore.Metal>
0.0000

> <Gold.Chemscore.Lipo>
91.5619

> <Gold.Chemscore.Internal_Hbond>
0.0000

> <Gold.Chemscore.DEClash>
0.3746

> <Gold.Chemscore.DEInternal>
0.3416

> <Gold.Chemscore.Rot>
2.0250

> <Gold.Chemscore.Internal.Correction>
   9.000000E+99

> <Gold.Chemscore.Hbonds>
donor molecule, donor type, donor heavy atom, donor atom, acceptor molecule, acceptor atom, score
      L1  H     7    25       P1  8028  0.75
      L1  H    15    30       P1  8028  0.62
      P1  H  7989  7998       L1     9  0.67

> <Gold.Chemscore.Hbond.Weighted>
-7.5643

> <Gold.Chemscore.Metal.Weighted>
-0.0000

> <Gold.Chemscore.Lipo.Weighted>
-10.7127

> <Gold.Chemscore.Internal_Hbond.Weighted>
0.0000

> <Gold.Chemscore.DEClash.Weighted>
0.3746

> <Gold.Chemscore.DEInternal.Weighted>
0.3416

> <Gold.Chemscore.Rot.Weighted>
5.1840

> <Gold.Chemscore.Internal.Correction.Weighted>
   9.000000E+99

> <Gold.Protein.RotatedTorsions>
[ 6907 6896 6895 6894 ] final  169.23 input  -60.11 | X-H torsion
[ 7974 7965 7964 7962 ] final -168.97 input  175.53 | X-H torsion
[ 8008 7997 7996 7995 ] final   97.96 input   59.86 | X-H torsion
[ 10167 10162 10161 10158 ] final -171.58 input  -65.29 | X-H torsion
[ 10718 10713 10712 10709 ] final  -28.55 input   66.30 | X-H torsion
[ 10763 10752 10751 10750 ] final  -46.01 input  -60.55 | X-H torsion
[ 11005 11000 10999 10996 ] final  162.56 input  -57.11 | X-H torsion

> <Gold.Protein.ActiveResidues>
 VAL166  LYS551  ARG553  GLY616  TRP617  ASP618  TYR619  PRO620  LYS621  CYS622 
 ASP623  PHE694  ASN695  SER759  ASP760  ASP761  ALA762  ILE779  LEU786  VAL792 
 PHE793  MET794  SER795  GLU796  ALA797  LYS798  CYS799  TRP800  GLU811  SER814 

> <Gold.Protein.RotatedAtoms>
  151.8352  133.3415  159.3625 H   0  0  0  0  0  0  0  0  0  0  0  0  # atno 6907 bound_to 6896
  150.7251  134.5444  159.5772 H   0  0  0  0  0  0  0  0  0  0  0  0  # atno 6908 bound_to 6896
  152.2906  134.7727  160.0430 H   0  0  0  0  0  0  0  0  0  0  0  0  # atno 6909 bound_to 6896
  144.7193  140.2291  143.6306 H   0  0  0  0  0  0  0  0  0  0  0  0  # atno 7974 bound_to 7965
  156.0955  140.3251  155.7872 H   0  0  0  0  0  0  0  0  0  0  0  0  # atno 8008 bound_to 7997
  155.4925  140.0562  157.2969 H   0  0  0  0  0  0  0  0  0  0  0  0  # atno 8009 bound_to 7997
  154.4664  140.1991  156.0123 H   0  0  0  0  0  0  0  0  0  0  0  0  # atno 8010 bound_to 7997
  139.5794  144.1458  152.1494 H   0  0  0  0  0  0  0  0  0  0  0  0  # atno 10167 bound_to 10162
  156.4237  130.4431  149.7165 H   0  0  0  0  0  0  0  0  0  0  0  0  # atno 10718 bound_to 10713
  154.0380  135.6648  153.4787 H   0  0  0  0  0  0  0  0  0  0  0  0  # atno 10763 bound_to 10752
  153.0513  135.5083  154.7870 H   0  0  0  0  0  0  0  0  0  0  0  0  # atno 10764 bound_to 10752
  154.6836  135.3049  154.9544 H   0  0  0  0  0  0  0  0  0  0  0  0  # atno 10765 bound_to 10752
  140.2270  134.8153  157.3278 H   0  0  0  0  0  0  0  0  0  0  0  0  # atno 11005 bound_to 11000
  145.8428  139.2138  143.1817 LP  0  0  0  0  0  0  0  0  0  0  0  0  # atno 17320 bound_to 7965
  146.0331  140.8238  142.9866 LP  0  0  0  0  0  0  0  0  0  0  0  0  # atno 17321 bound_to 7965
  140.1008  144.5541  150.6990 LP  0  0  0  0  0  0  0  0  0  0  0  0  # atno 17342 bound_to 10162
  140.7074  143.2478  151.4686 LP  0  0  0  0  0  0  0  0  0  0  0  0  # atno 17343 bound_to 10162
  156.4096  130.7715  151.2727 LP  0  0  0  0  0  0  0  0  0  0  0  0  # atno 17370 bound_to 10713
  157.7508  131.0215  150.3754 LP  0  0  0  0  0  0  0  0  0  0  0  0  # atno 17371 bound_to 10713
  140.1790  134.4513  155.7784 LP  0  0  0  0  0  0  0  0  0  0  0  0  # atno 17394 bound_to 11000
  141.2220  133.6975  156.7836 LP  0  0  0  0  0  0  0  0  0  0  0  0  # atno 17395 bound_to 11000

$$$$
