AV-unprocessed.smi:235|AV-procd|sdf|1806|dock1
  -GOLD-   2262020383D 1   1.00000     0.00000
 Structure written by MMmdl.
 54 58  0  0  0  0  0  0  0  0  1 V2000
  153.2534  140.2758  158.2382 O   0  0  0  0  0  0  0  0  0  0  0  0
  153.1556  140.8586  159.3191 C   0  0  0  0  0  0  0  0  0  0  0  0
  153.9156  140.5709  160.3857 N   0  0  0  0  0  0  0  0  0  0  0  0
  154.9215  139.5607  160.4380 C   0  0  0  0  0  0  0  0  0  0  0  0
  154.7471  138.4482  161.4488 C   0  0  0  0  0  0  0  0  0  0  0  0
  155.7956  139.5030  161.6720 C   0  0  0  0  0  0  0  0  0  0  0  0
  152.1249  141.9835  159.5069 C   0  0  1  0  0  0  0  0  0  0  0  0
  152.7219  143.1753  160.2728 C   0  0  0  0  0  0  0  0  0  0  0  0
  151.9077  144.3662  159.7778 C   0  0  0  0  0  0  0  0  0  0  0  0
  151.6392  144.0240  158.3130 C   0  0  0  0  0  0  0  0  0  0  0  0
  151.7018  142.5699  158.2319 N   0  0  0  0  0  0  0  0  0  0  0  0
  150.8940  141.9127  157.3565 C   0  0  0  0  0  0  0  0  0  0  0  0
  151.4508  141.1569  156.3721 N   0  0  0  0  0  0  0  0  0  0  0  0
  150.6803  140.5030  155.4988 C   0  0  0  0  0  0  0  0  0  0  0  0
  149.3493  140.4679  155.4244 N   0  0  0  0  0  0  0  0  0  0  0  0
  148.7817  141.2275  156.4039 C   0  0  0  0  0  0  0  0  0  0  0  0
  149.4706  141.9751  157.4016 C   0  0  0  0  0  0  0  0  0  0  0  0
  148.5505  142.6296  158.2141 N   0  0  0  0  0  0  0  0  0  0  0  0
  147.3891  142.2823  157.7313 C   0  0  0  0  0  0  0  0  0  0  0  0
  147.4364  141.4372  156.6464 N   0  0  0  0  0  0  0  0  0  0  0  0
  146.3067  140.8922  155.9161 C   0  0  0  0  0  0  0  0  0  0  0  0
  145.0254  141.7402  156.0618 C   0  0  2  0  0  0  0  0  0  0  0  0
  143.9640  140.9925  155.5030 O   0  0  0  0  0  0  0  0  0  0  0  0
  145.0925  143.1186  155.3676 C   0  0  1  0  0  0  0  0  0  0  0  0
  145.4576  143.0647  153.8830 C   0  0  0  0  0  0  0  0  0  0  0  0
  144.9053  144.3694  153.3329 C   0  0  0  0  0  0  0  0  0  0  0  0
  143.8844  144.8095  154.3850 C   0  0  0  0  0  0  0  0  0  0  0  0
  143.8128  143.7316  155.3075 O   0  0  0  0  0  0  0  0  0  0  0  0
  153.7612  141.1022  161.2303 H   0  0  0  0  0  0  0  0  0  0  0  0
  155.4048  139.2877  159.5009 H   0  0  0  0  0  0  0  0  0  0  0  0
  153.8648  138.4731  162.0859 H   0  0  0  0  0  0  0  0  0  0  0  0
  155.0861  137.4547  161.1626 H   0  0  0  0  0  0  0  0  0  0  0  0
  156.8355  139.2121  161.5373 H   0  0  0  0  0  0  0  0  0  0  0  0
  155.6146  140.2320  162.4597 H   0  0  0  0  0  0  0  0  0  0  0  0
  151.2477  141.6177  160.0443 H   0  0  0  0  0  0  0  0  0  0  0  0
  152.6590  143.0508  161.3541 H   0  0  0  0  0  0  0  0  0  0  0  0
  153.7723  143.3259  160.0155 H   0  0  0  0  0  0  0  0  0  0  0  0
  150.9648  144.4158  160.3242 H   0  0  0  0  0  0  0  0  0  0  0  0
  152.4218  145.3193  159.9050 H   0  0  0  0  0  0  0  0  0  0  0  0
  150.6765  144.4240  157.9910 H   0  0  0  0  0  0  0  0  0  0  0  0
  152.4155  144.4438  157.6721 H   0  0  0  0  0  0  0  0  0  0  0  0
  151.2059  139.9251  154.7533 H   0  0  0  0  0  0  0  0  0  0  0  0
  146.4606  142.6304  158.1599 H   0  0  0  0  0  0  0  0  0  0  0  0
  146.5846  140.8052  154.8646 H   0  0  0  0  0  0  0  0  0  0  0  0
  146.1320  139.8776  156.2767 H   0  0  0  0  0  0  0  0  0  0  0  0
  144.8010  141.8825  157.1196 H   0  0  0  0  0  0  0  0  0  0  0  0
  144.2730  140.5805  154.7107 H   0  0  0  0  0  0  0  0  0  0  0  0
  145.7824  143.7796  155.8963 H   0  0  0  0  0  0  0  0  0  0  0  0
  146.5293  142.9548  153.7143 H   0  0  0  0  0  0  0  0  0  0  0  0
  144.9537  142.2244  153.4031 H   0  0  0  0  0  0  0  0  0  0  0  0
  145.6920  145.1178  153.2305 H   0  0  0  0  0  0  0  0  0  0  0  0
  144.4487  144.2244  152.3534 H   0  0  0  0  0  0  0  0  0  0  0  0
  144.2276  145.7053  154.9040 H   0  0  0  0  0  0  0  0  0  0  0  0
  142.9041  145.0185  153.9562 H   0  0  0  0  0  0  0  0  0  0  0  0
  1  2  2  0  0  0  0
  2  3  1  0  0  0  0
  2  7  1  0  0  0  0
  3  4  1  0  0  0  0
  3 29  1  0  0  0  0
  4  6  1  0  0  0  0
  4  5  1  0  0  0  0
  4 30  1  0  0  0  0
  5  6  1  0  0  0  0
  5 31  1  0  0  0  0
  5 32  1  0  0  0  0
  6 33  1  0  0  0  0
  6 34  1  0  0  0  0
  7 11  1  0  0  0  0
  7  8  1  0  0  0  0
  7 35  1  0  0  0  0
  8  9  1  0  0  0  0
  8 36  1  0  0  0  0
  8 37  1  0  0  0  0
  9 10  1  0  0  0  0
  9 38  1  0  0  0  0
  9 39  1  0  0  0  0
 10 11  1  0  0  0  0
 10 40  1  0  0  0  0
 10 41  1  0  0  0  0
 11 12  1  0  0  0  0
 12 17  1  0  0  0  0
 12 13  2  0  0  0  0
 13 14  1  0  0  0  0
 14 15  2  0  0  0  0
 14 42  1  0  0  0  0
 15 16  1  0  0  0  0
 16 20  1  0  0  0  0
 16 17  2  0  0  0  0
 17 18  1  0  0  0  0
 18 19  2  0  0  0  0
 19 20  1  0  0  0  0
 19 43  1  0  0  0  0
 20 21  1  0  0  0  0
 21 22  1  0  0  0  0
 21 44  1  0  0  0  0
 21 45  1  0  0  0  0
 22 23  1  0  0  0  0
 22 24  1  0  0  0  0
 22 46  1  0  0  0  0
 23 47  1  0  0  0  0
 24 28  1  0  0  0  0
 24 25  1  0  0  0  0
 24 48  1  0  0  0  0
 25 26  1  0  0  0  0
 25 49  1  0  0  0  0
 25 50  1  0  0  0  0
 26 27  1  0  0  0  0
 26 51  1  0  0  0  0
 26 52  1  0  0  0  0
 27 28  1  0  0  0  0
 27 53  1  0  0  0  0
 27 54  1  0  0  0  0
M  END
> <s_m_source_file>
AV-unprocessed.smi

> <i_m_source_file_index>
235

> <i_lp_mmshare_version>
43012

> <i_f3d_flags>
0

> <s_epik_input>
W0NIMl0xW0NIMl1bQ0hdMVtOSF1DKD1PKVtDQEBIXTJbQ0gyXVtDSDJdW0NIMl1OMmMobltjSF1uMyljKGMzNCluW2NIXW40W0NIMl1bQ0BIXShbT0hdKVtDQEBIXTVbQ0gyXVtDSDJdW0NIMl1PNQ==

> <s_epik_cmdline>
J2VwaWtfcHl0aG9uJywgJy1waCcsICc3LjAnLCAnLXRuJywgJzgnLCAnLW1hJywgJzIwMCcsICctbWV0YWxfYmluZGluZycsICctaW1hZScsICc8aW5maWxlLm1hZT4nLCAnLW9tYWUnLCAnPG91dGZpbGUubWFlPic=

> <r_lp_tautomer_probability>
1

> <r_epik_Ionization_Penalty>
0.000526714

> <r_epik_Ionization_Penalty_Charging>
0

> <r_epik_Ionization_Penalty_Neutral>
0.000526714

> <r_epik_State_Penalty>
0.000272704

> <r_epik_Charging_Adjusted_Penalty>
0.000272704

> <i_epik_Tot_Q>
0

> <i_epik_Tot_abs_Q>
0

> <r_epik_Metal_State_Penalty>
-0

> <b_epik_Metal_Only>
0

> <s_lp_Force_Field>
OPLS_2005

> <r_lp_Energy>
59.6109

> <b_lp_Chiralities_Consistent>
1

> <s_lp_Variant>
AV-unprocessed.smi:235-6

> <Gold.Version>
5.8.1

> <Gold.Id.Protein>
6NUR|6NUR_protein|mol2

> <Gold.PLP.Fitness>
50.2904

> <Gold.PLP.PLP>
-49.4742

> <Gold.PLP.part.hbond>
-2.0000

> <Gold.PLP.part.metal>
0.0000

> <Gold.PLP.part.buried>
-3.0530

> <Gold.PLP.part.nonpolar>
-42.7245

> <Gold.PLP.part.repulsive>
1.4107

> <Gold.PLP.ligand.clash>
0.0000

> <Gold.PLP.ligand.torsion>
2.3278

> <Gold.PLP.Chemscore.Hbond>
1.6800

> <Gold.PLP.Chemscore.CHOScore>
0.0000

> <Gold.PLP.Chemscore.Metal>
0.0000

> <Gold.Chemscore.Hbonds>
donor molecule, donor type, donor heavy atom, donor atom, acceptor molecule, acceptor atom, score
      L1  H    23    47       P1 10175  0.25
      P1  H  7997  8008       L1     1  0.90

> <Gold.PLP.Chemscore.Internal.Correction>
0.4317

> <Gold.Rescore>
     Score         DG    S(hbond)    S(metal)    S(lipo)     H(rot)  DE(clash)    DE(int)     intcor
     10.51     -15.55       1.62        0.00      98.28       2.68       0.45       4.60       ----

> <Gold.Chemscore.Fitness>
10.5072

> <Gold.Chemscore.DG>
-15.5515

> <Gold.Chemscore.ZeroCoef>
-5.4800

> <Gold.Chemscore.Hbond>
1.6238

> <Gold.Chemscore.Metal>
0.0000

> <Gold.Chemscore.Lipo>
98.2785

> <Gold.Chemscore.Internal_Hbond>
0.0000

> <Gold.Chemscore.DEClash>
0.4463

> <Gold.Chemscore.DEInternal>
4.5981

> <Gold.Chemscore.Rot>
2.6760

> <Gold.Chemscore.Internal.Correction>
   9.000000E+99

> <Gold.Chemscore.Hbonds>
donor molecule, donor type, donor heavy atom, donor atom, acceptor molecule, acceptor atom, score
      L1  H    23    47       P1 10175  0.26
      P1  H  7997  8008       L1     1  0.88

> <Gold.Chemscore.Hbond.Weighted>
-5.4236

> <Gold.Chemscore.Metal.Weighted>
-0.0000

> <Gold.Chemscore.Lipo.Weighted>
-11.4986

> <Gold.Chemscore.Internal_Hbond.Weighted>
0.0000

> <Gold.Chemscore.DEClash.Weighted>
0.4463

> <Gold.Chemscore.DEInternal.Weighted>
4.5981

> <Gold.Chemscore.Rot.Weighted>
6.8506

> <Gold.Chemscore.Internal.Correction.Weighted>
   9.000000E+99

> <Gold.Protein.RotatedTorsions>
[ 6907 6896 6895 6894 ] final  158.23 input  -60.11 | X-H torsion
[ 7974 7965 7964 7962 ] final  -55.67 input  175.53 | X-H torsion
[ 8008 7997 7996 7995 ] final  -90.67 input   59.86 | X-H torsion
[ 10167 10162 10161 10158 ] final   -0.15 input  -65.29 | X-H torsion
[ 10718 10713 10712 10709 ] final -114.51 input   66.30 | X-H torsion
[ 10763 10752 10751 10750 ] final   89.98 input  -60.55 | X-H torsion
[ 11005 11000 10999 10996 ] final  156.02 input  -57.11 | X-H torsion

> <Gold.Protein.ActiveResidues>
 VAL166  LYS551  ARG553  GLY616  TRP617  ASP618  TYR619  PRO620  LYS621  CYS622 
 ASP623  PHE694  ASN695  SER759  ASP760  ASP761  ALA762  ILE779  LEU786  VAL792 
 PHE793  MET794  SER795  GLU796  ALA797  LYS798  CYS799  TRP800  GLU811  SER814 

> <Gold.Protein.RotatedAtoms>
  152.0034  133.3834  159.4190 H   0  0  0  0  0  0  0  0  0  0  0  0  # atno 6907 bound_to 6896
  150.6907  134.3809  159.5043 H   0  0  0  0  0  0  0  0  0  0  0  0  # atno 6908 bound_to 6896
  152.1559  134.8950  160.0595 H   0  0  0  0  0  0  0  0  0  0  0  0  # atno 6909 bound_to 6896
  145.8715  140.8212  142.9886 H   0  0  0  0  0  0  0  0  0  0  0  0  # atno 7974 bound_to 7965
  154.7014  140.0528  157.0462 H   0  0  0  0  0  0  0  0  0  0  0  0  # atno 8008 bound_to 7997
  155.0679  140.3196  155.4621 H   0  0  0  0  0  0  0  0  0  0  0  0  # atno 8009 bound_to 7997
  156.2761  140.2087  156.5806 H   0  0  0  0  0  0  0  0  0  0  0  0  # atno 8010 bound_to 7997
  140.6755  143.6929  150.8013 H   0  0  0  0  0  0  0  0  0  0  0  0  # atno 10167 bound_to 10162
  156.0835  130.6031  150.8784 H   0  0  0  0  0  0  0  0  0  0  0  0  # atno 10718 bound_to 10713
  153.1927  135.4450  155.0170 H   0  0  0  0  0  0  0  0  0  0  0  0  # atno 10763 bound_to 10752
  154.8100  135.3290  154.7332 H   0  0  0  0  0  0  0  0  0  0  0  0  # atno 10764 bound_to 10752
  153.7785  135.6979  153.4948 H   0  0  0  0  0  0  0  0  0  0  0  0  # atno 10765 bound_to 10752
  140.1636  134.8592  157.2604 H   0  0  0  0  0  0  0  0  0  0  0  0  # atno 11005 bound_to 11000
  144.6726  140.1246  143.7447 LP  0  0  0  0  0  0  0  0  0  0  0  0  # atno 17320 bound_to 7965
  145.9131  139.2499  143.1425 LP  0  0  0  0  0  0  0  0  0  0  0  0  # atno 17321 bound_to 7965
  140.0621  143.5144  152.2622 LP  0  0  0  0  0  0  0  0  0  0  0  0  # atno 17342 bound_to 10162
  139.6044  144.7592  151.3095 LP  0  0  0  0  0  0  0  0  0  0  0  0  # atno 17343 bound_to 10162
  157.5960  131.0943  150.9039 LP  0  0  0  0  0  0  0  0  0  0  0  0  # atno 17370 bound_to 10713
  156.9206  130.5313  149.5279 LP  0  0  0  0  0  0  0  0  0  0  0  0  # atno 17371 bound_to 10713
  140.2460  134.3739  155.7461 LP  0  0  0  0  0  0  0  0  0  0  0  0  # atno 17394 bound_to 11000
  141.2211  133.7291  156.8863 LP  0  0  0  0  0  0  0  0  0  0  0  0  # atno 17395 bound_to 11000

$$$$
