AV-unprocessed.smi:3013|AV-procd|sdf|11464|dock3
  -GOLD-   2272016403D 1   1.00000     0.00000
 Structure written by MMmdl.
 45 46  0  0  0  0  0  0  0  0  2 V2000
  147.3476  130.7702  153.3306 C   0  0  0  0  0  0  0  0  0  0  0  0
  147.2153  132.2625  152.9582 C   0  0  2  0  0  0  0  0  0  0  0  0
  147.2717  133.1918  154.1905 C   0  0  0  0  0  0  0  0  0  0  0  0
  148.7027  133.5047  154.6688 C   0  0  0  0  0  0  0  0  0  0  0  0
  149.1673  134.7968  154.1760 N   0  0  0  0  0  0  0  0  0  0  0  0
  150.0687  135.5737  154.7945 C   0  0  0  0  0  0  0  0  0  0  0  0
  150.6212  135.2607  155.8496 O   0  0  0  0  0  0  0  0  0  0  0  0
  150.2792  136.7160  154.1183 N   0  0  0  0  0  0  0  0  0  0  0  0
  151.1641  137.7754  154.4563 C   0  0  0  0  0  0  0  0  0  0  0  0
  152.4644  137.6590  154.7071 N   0  0  0  0  0  0  0  0  0  0  0  0
  152.7666  138.9676  154.9567 C   0  0  0  0  0  0  0  0  0  0  0  0
  151.7524  139.8285  154.8699 N   0  0  0  0  0  0  0  0  0  0  0  0
  150.7102  139.0294  154.5413 N   0  0  0  0  0  0  0  0  0  0  0  0
  149.3825  139.5786  154.3447 C   0  0  0  0  0  0  0  0  0  0  0  0
  146.0034  132.5516  152.1358 N   0  3  0  0  0  0  0  0  0  0  0  0
  145.6408  131.5000  151.1455 C   0  0  0  0  0  0  0  0  0  0  0  0
  144.2613  131.7826  150.5278 C   0  0  0  0  0  0  0  0  0  0  0  0
  144.2241  133.1749  149.8832 C   0  0  0  0  0  0  0  0  0  0  0  0
  144.6384  134.2391  150.9081 C   0  0  0  0  0  0  0  0  0  0  0  0
  146.0082  133.9084  151.5253 C   0  0  0  0  0  0  0  0  0  0  0  0
  148.3131  130.5639  153.7918 H   0  0  0  0  0  0  0  0  0  0  0  0
  147.2765  130.1271  152.4537 H   0  0  0  0  0  0  0  0  0  0  0  0
  146.5789  130.4583  154.0379 H   0  0  0  0  0  0  0  0  0  0  0  0
  148.0765  132.5229  152.3411 H   0  0  0  0  0  0  0  0  0  0  0  0
  146.7751  134.1301  153.9392 H   0  0  0  0  0  0  0  0  0  0  0  0
  146.7047  132.7615  155.0165 H   0  0  0  0  0  0  0  0  0  0  0  0
  148.7423  133.5344  155.7573 H   0  0  0  0  0  0  0  0  0  0  0  0
  149.3932  132.7204  154.3540 H   0  0  0  0  0  0  0  0  0  0  0  0
  148.7616  135.1287  153.3131 H   0  0  0  0  0  0  0  0  0  0  0  0
  149.7462  136.8473  153.2713 H   0  0  0  0  0  0  0  0  0  0  0  0
  153.7643  139.2957  155.2083 H   0  0  0  0  0  0  0  0  0  0  0  0
  148.6664  139.0409  154.9666 H   0  0  0  0  0  0  0  0  0  0  0  0
  149.0954  139.4751  153.2982 H   0  0  0  0  0  0  0  0  0  0  0  0
  149.3606  140.6349  154.6155 H   0  0  0  0  0  0  0  0  0  0  0  0
  146.3908  131.4563  150.3547 H   0  0  0  0  0  0  0  0  0  0  0  0
  145.6217  130.5196  151.6203 H   0  0  0  0  0  0  0  0  0  0  0  0
  144.0229  131.0218  149.7839 H   0  0  0  0  0  0  0  0  0  0  0  0
  143.4928  131.7135  151.2988 H   0  0  0  0  0  0  0  0  0  0  0  0
  144.9003  133.2036  149.0278 H   0  0  0  0  0  0  0  0  0  0  0  0
  143.2257  133.3874  149.5002 H   0  0  0  0  0  0  0  0  0  0  0  0
  144.6695  135.2205  150.4340 H   0  0  0  0  0  0  0  0  0  0  0  0
  143.8867  134.3004  151.6964 H   0  0  0  0  0  0  0  0  0  0  0  0
  146.2458  134.6571  152.2817 H   0  0  0  0  0  0  0  0  0  0  0  0
  146.7841  133.9710  150.7615 H   0  0  0  0  0  0  0  0  0  0  0  0
  145.2426  132.5721  152.8001 H   0  0  0  0  0  0  0  0  0  0  0  0
  1  2  1  0  0  0  0
  1 21  1  0  0  0  0
  1 22  1  0  0  0  0
  1 23  1  0  0  0  0
  2  3  1  0  0  0  0
  2 15  1  0  0  0  0
  2 24  1  0  0  0  0
  3  4  1  0  0  0  0
  3 25  1  0  0  0  0
  3 26  1  0  0  0  0
  4  5  1  0  0  0  0
  4 27  1  0  0  0  0
  4 28  1  0  0  0  0
  5  6  1  0  0  0  0
  5 29  1  0  0  0  0
  6  7  2  0  0  0  0
  6  8  1  0  0  0  0
  8  9  1  0  0  0  0
  8 30  1  0  0  0  0
  9 13  1  0  0  0  0
  9 10  2  0  0  0  0
 10 11  1  0  0  0  0
 11 12  2  0  0  0  0
 11 31  1  0  0  0  0
 12 13  1  0  0  0  0
 13 14  1  0  0  0  0
 14 32  1  0  0  0  0
 14 33  1  0  0  0  0
 14 34  1  0  0  0  0
 15 20  1  0  0  0  0
 15 16  1  0  0  0  0
 15 45  1  0  0  0  0
 16 17  1  0  0  0  0
 16 35  1  0  0  0  0
 16 36  1  0  0  0  0
 17 18  1  0  0  0  0
 17 37  1  0  0  0  0
 17 38  1  0  0  0  0
 18 19  1  0  0  0  0
 18 39  1  0  0  0  0
 18 40  1  0  0  0  0
 19 20  1  0  0  0  0
 19 41  1  0  0  0  0
 19 42  1  0  0  0  0
 20 43  1  0  0  0  0
 20 44  1  0  0  0  0
M  CHG  1  15   1
M  END
> <s_m_source_file>
AV-unprocessed.smi

> <i_m_source_file_index>
3013

> <i_lp_mmshare_version>
43012

> <i_f3d_flags>
0

> <s_epik_input>
W0NIMl0xW0NIMl1bQ0gyXVtDSDJdW0NIMl1OMVtDQEhdKFtDSDNdKVtDSDJdW0NIMl1bTkhdQyg9TylbTkhdYzJuW2NIXW5uMltDSDNd

> <s_epik_cmdline>
J2VwaWtfcHl0aG9uJywgJy1waCcsICc3LjAnLCAnLXRuJywgJzgnLCAnLW1hJywgJzIwMCcsICctbWV0YWxfYmluZGluZycsICctaW1hZScsICc8aW5maWxlLm1hZT4nLCAnLW9tYWUnLCAnPG91dGZpbGUubWFlPic=

> <r_lp_tautomer_probability>
1

> <r_epik_Ionization_Penalty>
0.000375855

> <r_epik_Ionization_Penalty_Charging>
0.000355659

> <r_epik_Ionization_Penalty_Neutral>
2.01955e-05

> <r_epik_State_Penalty>
0.000216264

> <r_epik_Charging_Adjusted_Penalty>
0.000571923

> <i_epik_Tot_Q>
1

> <i_epik_Tot_abs_Q>
1

> <r_epik_Metal_State_Penalty>
-0

> <b_epik_Metal_Only>
0

> <s_lp_Force_Field>
OPLS_2005

> <r_lp_Energy>
21.7492

> <b_lp_Chiralities_Consistent>
1

> <s_lp_Variant>
AV-unprocessed.smi:3013-1

> <Gold.Version>
5.8.1

> <Gold.Id.Protein>
6NUR|6NUR_protein|mol2

> <Gold.PLP.Fitness>
46.2489

> <Gold.PLP.PLP>
-38.9314

> <Gold.PLP.part.hbond>
-5.0000

> <Gold.PLP.part.metal>
0.0000

> <Gold.PLP.part.buried>
-3.8413

> <Gold.PLP.part.nonpolar>
-30.5239

> <Gold.PLP.part.repulsive>
0.2620

> <Gold.PLP.ligand.clash>
0.0000

> <Gold.PLP.ligand.torsion>
1.4703

> <Gold.PLP.Chemscore.Hbond>
3.3648

> <Gold.PLP.Chemscore.CHOScore>
0.0000

> <Gold.PLP.Chemscore.Metal>
0.0000

> <Gold.Chemscore.Hbonds>
donor molecule, donor type, donor heavy atom, donor atom, acceptor molecule, acceptor atom, score
      L1  H     5    29       P1  7948  0.91
      L1  H     8    30       P1  7948  1.00
      P1  H  7989  7998       L1    12  0.85
      P1  H 10752 10765       L1    10  0.53

> <Gold.PLP.Chemscore.Internal.Correction>
0.1637

> <Gold.Rescore>
     Score         DG    S(hbond)    S(metal)    S(lipo)     H(rot)  DE(clash)    DE(int)     intcor
     13.98     -15.47       2.26        0.00      65.11       2.01       0.14       1.36       ----

> <Gold.Chemscore.Fitness>
13.9767

> <Gold.Chemscore.DG>
-15.4742

> <Gold.Chemscore.ZeroCoef>
-5.4800

> <Gold.Chemscore.Hbond>
2.2559

> <Gold.Chemscore.Metal>
0.0000

> <Gold.Chemscore.Lipo>
65.1055

> <Gold.Chemscore.Internal_Hbond>
0.0000

> <Gold.Chemscore.DEClash>
0.1416

> <Gold.Chemscore.DEInternal>
1.3559

> <Gold.Chemscore.Rot>
2.0148

> <Gold.Chemscore.Internal.Correction>
   9.000000E+99

> <Gold.Chemscore.Hbonds>
donor molecule, donor type, donor heavy atom, donor atom, acceptor molecule, acceptor atom, score
      L1  H     5    29       P1  7948  0.58
      L1  H     8    30       P1  7948  0.38
      P1  H  7989  7998       L1    12  0.14
      P1  H 10752 10765       L1    10  0.31

> <Gold.Chemscore.Hbond.Weighted>
-7.5347

> <Gold.Chemscore.Metal.Weighted>
-0.0000

> <Gold.Chemscore.Lipo.Weighted>
-7.6173

> <Gold.Chemscore.Internal_Hbond.Weighted>
0.0000

> <Gold.Chemscore.DEClash.Weighted>
0.1416

> <Gold.Chemscore.DEInternal.Weighted>
1.3559

> <Gold.Chemscore.Rot.Weighted>
5.1579

> <Gold.Chemscore.Internal.Correction.Weighted>
   9.000000E+99

> <Gold.Protein.RotatedTorsions>
[ 6907 6896 6895 6894 ] final -101.74 input  -60.11 | X-H torsion
[ 7974 7965 7964 7962 ] final  116.33 input  175.53 | X-H torsion
[ 8008 7997 7996 7995 ] final  -42.61 input   59.86 | X-H torsion
[ 10167 10162 10161 10158 ] final    2.05 input  -65.29 | X-H torsion
[ 10718 10713 10712 10709 ] final  -38.46 input   66.30 | X-H torsion
[ 10763 10752 10751 10750 ] final  164.81 input  -60.55 | X-H torsion
[ 11005 11000 10999 10996 ] final   -3.45 input  -57.11 | X-H torsion

> <Gold.Protein.ActiveResidues>
 VAL166  LYS551  ARG553  GLY616  TRP617  ASP618  TYR619  PRO620  LYS621  CYS622 
 ASP623  PHE694  ASN695  SER759  ASP760  ASP761  ALA762  ILE779  LEU786  VAL792 
 PHE793  MET794  SER795  GLU796  ALA797  LYS798  CYS799  TRP800  GLU811  SER814 

> <Gold.Protein.RotatedAtoms>
  150.7167  134.0687  159.3856 H   0  0  0  0  0  0  0  0  0  0  0  0  # atno 6907 bound_to 6896
  151.8669  135.0501  160.0484 H   0  0  0  0  0  0  0  0  0  0  0  0  # atno 6908 bound_to 6896
  152.2674  133.5315  159.5454 H   0  0  0  0  0  0  0  0  0  0  0  0  # atno 6909 bound_to 6896
  145.1810  139.3050  143.4418 H   0  0  0  0  0  0  0  0  0  0  0  0  # atno 7974 bound_to 7965
  154.3998  140.1469  156.3384 H   0  0  0  0  0  0  0  0  0  0  0  0  # atno 8008 bound_to 7997
  155.8379  140.3463  155.5592 H   0  0  0  0  0  0  0  0  0  0  0  0  # atno 8009 bound_to 7997
  155.8118  140.0885  157.1890 H   0  0  0  0  0  0  0  0  0  0  0  0  # atno 8010 bound_to 7997
  140.6654  143.7194  150.7816 H   0  0  0  0  0  0  0  0  0  0  0  0  # atno 10167 bound_to 10162
  156.3035  130.4243  149.8119 H   0  0  0  0  0  0  0  0  0  0  0  0  # atno 10718 bound_to 10713
  154.3146  135.2757  155.2549 H   0  0  0  0  0  0  0  0  0  0  0  0  # atno 10763 bound_to 10752
  154.4929  135.5828  153.6476 H   0  0  0  0  0  0  0  0  0  0  0  0  # atno 10764 bound_to 10752
  152.9884  135.6139  154.3326 H   0  0  0  0  0  0  0  0  0  0  0  0  # atno 10765 bound_to 10752
  140.6695  133.9249  155.8486 H   0  0  0  0  0  0  0  0  0  0  0  0  # atno 11005 bound_to 11000
  146.3453  140.1989  142.8589 LP  0  0  0  0  0  0  0  0  0  0  0  0  # atno 17320 bound_to 7965
  145.0136  140.8735  143.5209 LP  0  0  0  0  0  0  0  0  0  0  0  0  # atno 17321 bound_to 7965
  140.0870  143.4914  152.2499 LP  0  0  0  0  0  0  0  0  0  0  0  0  # atno 17342 bound_to 10162
  139.5901  144.7546  151.3423 LP  0  0  0  0  0  0  0  0  0  0  0  0  # atno 17343 bound_to 10162
  156.5489  130.8333  151.3293 LP  0  0  0  0  0  0  0  0  0  0  0  0  # atno 17370 bound_to 10713
  157.7374  130.9795  150.2190 LP  0  0  0  0  0  0  0  0  0  0  0  0  # atno 17371 bound_to 10713
  141.0403  134.0631  157.3910 LP  0  0  0  0  0  0  0  0  0  0  0  0  # atno 17394 bound_to 11000
  139.8986  135.0155  156.7157 LP  0  0  0  0  0  0  0  0  0  0  0  0  # atno 17395 bound_to 11000

$$$$
