AV-unprocessed.smi:1620|AV-procd|sdf|6492|dock1
  -GOLD-   22720 7153D 1   1.00000     0.00000
 Structure written by MMmdl.
 40 40  0  0  0  0  0  0  0  0  1 V2000
  150.1369  144.9889  160.3099 C   0  0  0  0  0  0  0  0  0  0  0  0
  151.1572  143.8358  160.2505 C   0  0  0  0  0  0  0  0  0  0  0  0
  152.2244  144.0395  161.3411 C   0  0  0  0  0  0  0  0  0  0  0  0
  151.7875  143.6608  158.8382 C   0  0  1  0  0  0  0  0  0  0  0  0
  152.7890  144.7679  158.4449 C   0  0  0  0  0  0  0  0  0  0  0  0
  152.3983  142.3177  158.6575 N   0  0  0  0  0  0  0  0  0  0  0  0
  153.5842  142.0415  159.4796 C   0  0  0  0  0  0  0  0  0  0  0  0
  152.0190  141.3890  157.7388 C   0  0  0  0  0  0  0  0  0  0  0  0
  152.6051  140.3133  157.6054 O   0  0  0  0  0  0  0  0  0  0  0  0
  150.9086  141.7071  157.0455 N   0  0  0  0  0  0  0  0  0  0  0  0
  150.2623  140.9493  156.0367 C   0  0  0  0  0  0  0  0  0  0  0  0
  150.4981  139.5724  155.7876 C   0  0  0  0  0  0  0  0  0  0  0  0
  149.7549  139.1327  154.7838 N   0  0  0  0  0  0  0  0  0  0  0  0
  149.0390  140.2113  154.3768 N   0  0  0  0  0  0  0  0  0  0  0  0
  148.1103  140.0817  153.2677 C   0  0  0  0  0  0  0  0  0  0  0  0
  146.9849  139.0989  153.5970 C   0  0  0  0  0  0  0  0  0  0  0  0
  147.0300  137.9002  153.0091 N   0  0  0  0  0  0  0  0  0  0  0  0
  146.0885  139.4160  154.3757 O   0  0  0  0  0  0  0  0  0  0  0  0
  149.3241  141.3384  155.1229 C   0  0  0  0  0  0  0  0  0  0  0  0
  150.5959  145.9388  160.0342 H   0  0  0  0  0  0  0  0  0  0  0  0
  149.7271  145.0992  161.3144 H   0  0  0  0  0  0  0  0  0  0  0  0
  149.2926  144.8187  159.6419 H   0  0  0  0  0  0  0  0  0  0  0  0
  150.6191  142.9220  160.5034 H   0  0  0  0  0  0  0  0  0  0  0  0
  152.8448  144.9116  161.1320 H   0  0  0  0  0  0  0  0  0  0  0  0
  152.8803  143.1743  161.4324 H   0  0  0  0  0  0  0  0  0  0  0  0
  151.7636  144.1894  162.3178 H   0  0  0  0  0  0  0  0  0  0  0  0
  150.9704  143.7981  158.1303 H   0  0  0  0  0  0  0  0  0  0  0  0
  152.2948  145.7334  158.3400 H   0  0  0  0  0  0  0  0  0  0  0  0
  153.2558  144.5478  157.4841 H   0  0  0  0  0  0  0  0  0  0  0  0
  153.5830  144.8877  159.1820 H   0  0  0  0  0  0  0  0  0  0  0  0
  153.5567  141.0288  159.8855 H   0  0  0  0  0  0  0  0  0  0  0  0
  153.6703  142.7131  160.3329 H   0  0  0  0  0  0  0  0  0  0  0  0
  154.4912  142.1442  158.8825 H   0  0  0  0  0  0  0  0  0  0  0  0
  150.4889  142.6000  157.2600 H   0  0  0  0  0  0  0  0  0  0  0  0
  151.1691  138.8917  156.2904 H   0  0  0  0  0  0  0  0  0  0  0  0
  147.6929  141.0593  153.0208 H   0  0  0  0  0  0  0  0  0  0  0  0
  148.6606  139.7376  152.3910 H   0  0  0  0  0  0  0  0  0  0  0  0
  146.3132  137.2164  153.2059 H   0  0  0  0  0  0  0  0  0  0  0  0
  147.7865  137.6786  152.3782 H   0  0  0  0  0  0  0  0  0  0  0  0
  148.8443  142.2871  154.9322 H   0  0  0  0  0  0  0  0  0  0  0  0
  1  2  1  0  0  0  0
  1 20  1  0  0  0  0
  1 21  1  0  0  0  0
  1 22  1  0  0  0  0
  2  3  1  0  0  0  0
  2  4  1  0  0  0  0
  2 23  1  0  0  0  0
  3 24  1  0  0  0  0
  3 25  1  0  0  0  0
  3 26  1  0  0  0  0
  4  5  1  0  0  0  0
  4  6  1  0  0  0  0
  4 27  1  0  0  0  0
  5 28  1  0  0  0  0
  5 29  1  0  0  0  0
  5 30  1  0  0  0  0
  6  7  1  0  0  0  0
  6  8  1  0  0  0  0
  7 31  1  0  0  0  0
  7 32  1  0  0  0  0
  7 33  1  0  0  0  0
  8  9  2  0  0  0  0
  8 10  1  0  0  0  0
 10 11  1  0  0  0  0
 10 34  1  0  0  0  0
 11 19  2  0  0  0  0
 11 12  1  0  0  0  0
 12 13  2  0  0  0  0
 12 35  1  0  0  0  0
 13 14  1  0  0  0  0
 14 15  1  0  0  0  0
 14 19  1  0  0  0  0
 15 16  1  0  0  0  0
 15 36  1  0  0  0  0
 15 37  1  0  0  0  0
 16 17  1  0  0  0  0
 16 18  2  0  0  0  0
 17 38  1  0  0  0  0
 17 39  1  0  0  0  0
 19 40  1  0  0  0  0
M  END
> <s_m_source_file>
AV-unprocessed.smi

> <i_m_source_file_index>
1620

> <i_lp_mmshare_version>
43012

> <i_f3d_flags>
0

> <s_epik_input>
W0NIM11bQ0hdKFtDSDNdKVtDQEhdKFtDSDNdKU4oW0NIM10pQyg9TylbTkhdYzFbY0hdbm4oW2NIXTEpW0NIMl1DKD1PKVtOSDJd

> <s_epik_cmdline>
J2VwaWtfcHl0aG9uJywgJy1waCcsICc3LjAnLCAnLXRuJywgJzgnLCAnLW1hJywgJzIwMCcsICctbWV0YWxfYmluZGluZycsICctaW1hZScsICc8aW5maWxlLm1hZT4nLCAnLW9tYWUnLCAnPG91dGZpbGUubWFlPic=

> <r_lp_tautomer_probability>
1

> <r_epik_Ionization_Penalty>
4.85642e-05

> <r_epik_Ionization_Penalty_Charging>
0

> <r_epik_Ionization_Penalty_Neutral>
4.85642e-05

> <r_epik_State_Penalty>
-0

> <r_epik_Charging_Adjusted_Penalty>
0

> <i_epik_Tot_Q>
0

> <i_epik_Tot_abs_Q>
0

> <r_epik_Metal_State_Penalty>
-0

> <b_epik_Metal_Only>
0

> <s_lp_Force_Field>
OPLS_2005

> <r_lp_Energy>
32.9866

> <b_lp_Chiralities_Consistent>
1

> <s_lp_Variant>
AV-unprocessed.smi:1620-2

> <Gold.Version>
5.8.1

> <Gold.Id.Protein>
6NUR|6NUR_protein|mol2

> <Gold.PLP.Fitness>
42.6563

> <Gold.PLP.PLP>
-34.9678

> <Gold.PLP.part.hbond>
-2.0000

> <Gold.PLP.part.metal>
0.0000

> <Gold.PLP.part.buried>
-1.5974

> <Gold.PLP.part.nonpolar>
-32.0363

> <Gold.PLP.part.repulsive>
0.3146

> <Gold.PLP.ligand.clash>
0.0000

> <Gold.PLP.ligand.torsion>
0.4809

> <Gold.PLP.Chemscore.Hbond>
1.7851

> <Gold.PLP.Chemscore.CHOScore>
1.0000

> <Gold.PLP.Chemscore.Metal>
0.0000

> <Gold.Chemscore.Hbonds>
donor molecule, donor type, donor heavy atom, donor atom, acceptor molecule, acceptor atom, score
      L1  H    17    39       P1  7948  0.86
      P1  H  7997  8009       L1     9  0.93
      L1  C    19    40       P1  8028  1.00

> <Gold.PLP.Chemscore.Internal.Correction>
0.2951

> <Gold.Rescore>
     Score         DG    S(hbond)    S(metal)    S(lipo)     H(rot)  DE(clash)    DE(int)     intcor
     15.53     -17.41       1.91        0.00      93.41       2.10       0.14       1.75       ----

> <Gold.Chemscore.Fitness>
15.5268

> <Gold.Chemscore.DG>
-17.4121

> <Gold.Chemscore.ZeroCoef>
-5.4800

> <Gold.Chemscore.Hbond>
1.9128

> <Gold.Chemscore.Metal>
0.0000

> <Gold.Chemscore.Lipo>
93.4119

> <Gold.Chemscore.Internal_Hbond>
0.0000

> <Gold.Chemscore.DEClash>
0.1374

> <Gold.Chemscore.DEInternal>
1.7478

> <Gold.Chemscore.Rot>
2.1039

> <Gold.Chemscore.Internal.Correction>
   9.000000E+99

> <Gold.Chemscore.Hbonds>
donor molecule, donor type, donor heavy atom, donor atom, acceptor molecule, acceptor atom, score
      L1  H    17    39       P1  7948  0.85
      P1  H  7997  8009       L1     9  0.84

> <Gold.Chemscore.Hbond.Weighted>
-6.3889

> <Gold.Chemscore.Metal.Weighted>
-0.0000

> <Gold.Chemscore.Lipo.Weighted>
-10.9292

> <Gold.Chemscore.Internal_Hbond.Weighted>
0.0000

> <Gold.Chemscore.DEClash.Weighted>
0.1374

> <Gold.Chemscore.DEInternal.Weighted>
1.7478

> <Gold.Chemscore.Rot.Weighted>
5.3860

> <Gold.Chemscore.Internal.Correction.Weighted>
   9.000000E+99

> <Gold.Protein.RotatedTorsions>
[ 6907 6896 6895 6894 ] final    4.71 input  -60.11 | X-H torsion
[ 7974 7965 7964 7962 ] final  -33.85 input  175.53 | X-H torsion
[ 8008 7997 7996 7995 ] final  165.30 input   59.86 | X-H torsion
[ 10167 10162 10161 10158 ] final  173.07 input  -65.29 | X-H torsion
[ 10718 10713 10712 10709 ] final  148.89 input   66.30 | X-H torsion
[ 10763 10752 10751 10750 ] final   -4.27 input  -60.55 | X-H torsion
[ 11005 11000 10999 10996 ] final  -50.36 input  -57.11 | X-H torsion

> <Gold.Protein.ActiveResidues>
 VAL166  LYS551  ARG553  GLY616  TRP617  ASP618  TYR619  PRO620  LYS621  CYS622 
 ASP623  PHE694  ASN695  SER759  ASP760  ASP761  ALA762  ILE779  LEU786  VAL792 
 PHE793  MET794  SER795  GLU796  ALA797  LYS798  CYS799  TRP800  GLU811  SER814 

> <Gold.Protein.RotatedAtoms>
  151.6458  135.1007  160.0150 H   0  0  0  0  0  0  0  0  0  0  0  0  # atno 6907 bound_to 6896
  152.4029  133.6840  159.6340 H   0  0  0  0  0  0  0  0  0  0  0  0  # atno 6908 bound_to 6896
  150.7926  133.8677  159.3291 H   0  0  0  0  0  0  0  0  0  0  0  0  # atno 6909 bound_to 6896
  146.0877  140.5967  142.8879 H   0  0  0  0  0  0  0  0  0  0  0  0  # atno 7974 bound_to 7965
  156.1811  140.1673  156.8272 H   0  0  0  0  0  0  0  0  0  0  0  0  # atno 8008 bound_to 7997
  154.5361  140.0746  156.8463 H   0  0  0  0  0  0  0  0  0  0  0  0  # atno 8009 bound_to 7997
  155.3308  140.3379  155.4242 H   0  0  0  0  0  0  0  0  0  0  0  0  # atno 8010 bound_to 7997
  139.5096  144.3302  152.0118 H   0  0  0  0  0  0  0  0  0  0  0  0  # atno 10167 bound_to 10162
  157.3029  131.0874  151.1376 H   0  0  0  0  0  0  0  0  0  0  0  0  # atno 10718 bound_to 10713
  153.3825  135.6999  153.6554 H   0  0  0  0  0  0  0  0  0  0  0  0  # atno 10763 bound_to 10752
  153.5160  135.3622  155.2610 H   0  0  0  0  0  0  0  0  0  0  0  0  # atno 10764 bound_to 10752
  154.8694  135.4146  154.3126 H   0  0  0  0  0  0  0  0  0  0  0  0  # atno 10765 bound_to 10752
  141.0812  133.6653  156.3720 H   0  0  0  0  0  0  0  0  0  0  0  0  # atno 11005 bound_to 11000
  144.7337  140.4748  143.6919 LP  0  0  0  0  0  0  0  0  0  0  0  0  # atno 17320 bound_to 7965
  145.6098  139.1512  143.3082 LP  0  0  0  0  0  0  0  0  0  0  0  0  # atno 17321 bound_to 7965
  140.2742  144.3930  150.6141 LP  0  0  0  0  0  0  0  0  0  0  0  0  # atno 17342 bound_to 10162
  140.6066  143.2168  151.6969 LP  0  0  0  0  0  0  0  0  0  0  0  0  # atno 17343 bound_to 10162
  157.2728  130.6712  149.6027 LP  0  0  0  0  0  0  0  0  0  0  0  0  # atno 17370 bound_to 10713
  155.9672  130.4474  150.5578 LP  0  0  0  0  0  0  0  0  0  0  0  0  # atno 17371 bound_to 10713
  140.5465  134.6069  157.5395 LP  0  0  0  0  0  0  0  0  0  0  0  0  # atno 17394 bound_to 11000
  139.9626  134.7427  156.0206 LP  0  0  0  0  0  0  0  0  0  0  0  0  # atno 17395 bound_to 11000

$$$$
