AV-unprocessed.smi:957|AV-procd|sdf|4266|dock2
  -GOLD-   22720 2173D 1   1.00000     0.00000
 Structure written by MMmdl.
 30 31  0  0  0  0  0  0  0  0  2 V2000
  150.0320  138.5226  158.5052 C   0  0  0  0  0  0  0  0  0  0  0  0
  150.6651  139.7678  157.8723 C   0  0  0  0  0  0  0  0  0  0  0  0
  152.0038  140.0109  158.3812 N   0  0  0  0  0  0  0  0  0  0  0  0
  153.0480  139.1679  158.3856 C   0  0  0  0  0  0  0  0  0  0  0  0
  154.1659  139.6550  158.9206 N   0  0  0  0  0  0  0  0  0  0  0  0
  153.8346  140.9365  159.3075 N   0  0  0  0  0  0  0  0  0  0  0  0
  152.5500  141.1011  158.9645 C   0  0  0  0  0  0  0  0  0  0  0  0
  151.7900  142.3733  159.2197 C   0  0  1  0  0  0  0  0  0  0  0  0
  152.6881  143.4690  159.8255 C   0  0  0  0  0  0  0  0  0  0  0  0
  151.8838  144.7572  160.0575 C   0  0  0  0  0  0  0  0  0  0  0  0
  151.1908  145.2119  158.7624 C   0  0  0  0  0  0  0  0  0  0  0  0
  150.3364  144.1332  158.2201 N   0  3  0  0  0  0  0  0  0  0  0  0
  151.0835  142.8854  157.9474 C   0  0  0  0  0  0  0  0  0  0  0  0
  149.0341  138.3491  158.1022 H   0  0  0  0  0  0  0  0  0  0  0  0
  149.9393  138.6253  159.5863 H   0  0  0  0  0  0  0  0  0  0  0  0
  150.6300  137.6332  158.3042 H   0  0  0  0  0  0  0  0  0  0  0  0
  150.7226  139.6433  156.7903 H   0  0  0  0  0  0  0  0  0  0  0  0
  150.0496  140.6501  158.0485 H   0  0  0  0  0  0  0  0  0  0  0  0
  152.9896  138.1660  157.9860 H   0  0  0  0  0  0  0  0  0  0  0  0
  151.0093  142.1653  159.9503 H   0  0  0  0  0  0  0  0  0  0  0  0
  153.1206  143.1267  160.7663 H   0  0  0  0  0  0  0  0  0  0  0  0
  153.5239  143.6799  159.1570 H   0  0  0  0  0  0  0  0  0  0  0  0
  151.1366  144.5886  160.8343 H   0  0  0  0  0  0  0  0  0  0  0  0
  152.5405  145.5457  160.4264 H   0  0  0  0  0  0  0  0  0  0  0  0
  150.5766  146.0927  158.9504 H   0  0  0  0  0  0  0  0  0  0  0  0
  151.9325  145.4933  158.0135 H   0  0  0  0  0  0  0  0  0  0  0  0
  149.6083  143.9325  158.8905 H   0  0  0  0  0  0  0  0  0  0  0  0
  151.8077  143.0748  157.1537 H   0  0  0  0  0  0  0  0  0  0  0  0
  150.3881  142.1344  157.5713 H   0  0  0  0  0  0  0  0  0  0  0  0
  149.9099  144.4530  157.3620 H   0  0  0  0  0  0  0  0  0  0  0  0
  1  2  1  0  0  0  0
  1 14  1  0  0  0  0
  1 15  1  0  0  0  0
  1 16  1  0  0  0  0
  2  3  1  0  0  0  0
  2 17  1  0  0  0  0
  2 18  1  0  0  0  0
  3  7  1  0  0  0  0
  3  4  1  0  0  0  0
  4  5  2  0  0  0  0
  4 19  1  0  0  0  0
  5  6  1  0  0  0  0
  6  7  2  0  0  0  0
  7  8  1  0  0  0  0
  8 13  1  0  0  0  0
  8  9  1  0  0  0  0
  8 20  1  0  0  0  0
  9 10  1  0  0  0  0
  9 21  1  0  0  0  0
  9 22  1  0  0  0  0
 10 11  1  0  0  0  0
 10 23  1  0  0  0  0
 10 24  1  0  0  0  0
 11 12  1  0  0  0  0
 11 25  1  0  0  0  0
 11 26  1  0  0  0  0
 12 13  1  0  0  0  0
 12 27  1  0  0  0  0
 12 30  1  0  0  0  0
 13 28  1  0  0  0  0
 13 29  1  0  0  0  0
M  CHG  1  12   1
M  END
> <s_m_source_file>
AV-unprocessed.smi

> <i_m_source_file_index>
957

> <i_lp_mmshare_version>
43012

> <i_f3d_flags>
0

> <s_epik_input>
W0NIM11bQ0gyXW4xW2NIXW5uYzFbQ0BASF0yW0NIMl1bQ0gyXVtDSDJdW05IXVtDSDJdMg==

> <s_epik_cmdline>
J2VwaWtfcHl0aG9uJywgJy1waCcsICc3LjAnLCAnLXRuJywgJzgnLCAnLW1hJywgJzIwMCcsICctbWV0YWxfYmluZGluZycsICctaW1hZScsICc8aW5maWxlLm1hZT4nLCAnLW9tYWUnLCAnPG91dGZpbGUubWFlPic=

> <r_lp_tautomer_probability>
1

> <r_epik_Ionization_Penalty>
0.000442722

> <r_epik_Ionization_Penalty_Charging>
0.000426856

> <r_epik_Ionization_Penalty_Neutral>
1.58656e-05

> <r_epik_State_Penalty>
-0

> <r_epik_Charging_Adjusted_Penalty>
0.000426856

> <i_epik_Tot_Q>
1

> <i_epik_Tot_abs_Q>
1

> <r_epik_Metal_State_Penalty>
-0

> <b_epik_Metal_Only>
0

> <s_lp_Force_Field>
OPLS_2005

> <r_lp_Energy>
16.0383

> <b_lp_Chiralities_Consistent>
1

> <s_lp_Variant>
AV-unprocessed.smi:957-2

> <Gold.Version>
5.8.1

> <Gold.Id.Protein>
6NUR|6NUR_protein|mol2

> <Gold.PLP.Fitness>
35.2319

> <Gold.PLP.PLP>
-26.5642

> <Gold.PLP.part.hbond>
-2.9909

> <Gold.PLP.part.metal>
0.0000

> <Gold.PLP.part.buried>
-3.1122

> <Gold.PLP.part.nonpolar>
-20.7749

> <Gold.PLP.part.repulsive>
0.0731

> <Gold.PLP.ligand.clash>
0.0000

> <Gold.PLP.ligand.torsion>
0.1046

> <Gold.PLP.Chemscore.Hbond>
2.9500

> <Gold.PLP.Chemscore.CHOScore>
0.0000

> <Gold.PLP.Chemscore.Metal>
0.0000

> <Gold.Chemscore.Hbonds>
donor molecule, donor type, donor heavy atom, donor atom, acceptor molecule, acceptor atom, score
      L1  H    12    30       P1  8028  2.00
      P1  H  7997  8010       L1     5  0.85

> <Gold.PLP.Chemscore.Internal.Correction>
0.0268

> <Gold.Rescore>
     Score         DG    S(hbond)    S(metal)    S(lipo)     H(rot)  DE(clash)    DE(int)     intcor
     12.81     -12.86       0.91        0.00      64.46       1.26       0.01       0.04       ----

> <Gold.Chemscore.Fitness>
12.8113

> <Gold.Chemscore.DG>
-12.8574

> <Gold.Chemscore.ZeroCoef>
-5.4800

> <Gold.Chemscore.Hbond>
0.9144

> <Gold.Chemscore.Metal>
0.0000

> <Gold.Chemscore.Lipo>
64.4613

> <Gold.Chemscore.Internal_Hbond>
0.0000

> <Gold.Chemscore.DEClash>
0.0060

> <Gold.Chemscore.DEInternal>
0.0401

> <Gold.Chemscore.Rot>
1.2573

> <Gold.Chemscore.Internal.Correction>
   9.000000E+99

> <Gold.Chemscore.Hbonds>
donor molecule, donor type, donor heavy atom, donor atom, acceptor molecule, acceptor atom, score
      L1  H    12    30       P1  8028  0.25
      P1  H  7997  8010       L1     5  0.04

> <Gold.Chemscore.Hbond.Weighted>
-3.0542

> <Gold.Chemscore.Metal.Weighted>
-0.0000

> <Gold.Chemscore.Lipo.Weighted>
-7.5420

> <Gold.Chemscore.Internal_Hbond.Weighted>
0.0000

> <Gold.Chemscore.DEClash.Weighted>
0.0060

> <Gold.Chemscore.DEInternal.Weighted>
0.0401

> <Gold.Chemscore.Rot.Weighted>
3.2188

> <Gold.Chemscore.Internal.Correction.Weighted>
   9.000000E+99

> <Gold.Protein.RotatedTorsions>
[ 6907 6896 6895 6894 ] final  -99.84 input  -60.11 | X-H torsion
[ 7974 7965 7964 7962 ] final  -65.32 input  175.53 | X-H torsion
[ 8008 7997 7996 7995 ] final    3.08 input   59.86 | X-H torsion
[ 10167 10162 10161 10158 ] final   24.46 input  -65.29 | X-H torsion
[ 10718 10713 10712 10709 ] final  114.18 input   66.30 | X-H torsion
[ 10763 10752 10751 10750 ] final  157.46 input  -60.55 | X-H torsion
[ 11005 11000 10999 10996 ] final   93.26 input  -57.11 | X-H torsion

> <Gold.Protein.ActiveResidues>
 VAL166  LYS551  ARG553  GLY616  TRP617  ASP618  TYR619  PRO620  LYS621  CYS622 
 ASP623  PHE694  ASN695  SER759  ASP760  ASP761  ALA762  ILE779  LEU786  VAL792 
 PHE793  MET794  SER795  GLU796  ALA797  LYS798  CYS799  TRP800  GLU811  SER814 

> <Gold.Protein.RotatedAtoms>
  150.7094  134.0979  159.3955 H   0  0  0  0  0  0  0  0  0  0  0  0  # atno 6907 bound_to 6896
  151.8965  135.0393  160.0512 H   0  0  0  0  0  0  0  0  0  0  0  0  # atno 6908 bound_to 6896
  152.2449  133.5130  159.5328 H   0  0  0  0  0  0  0  0  0  0  0  0  # atno 6909 bound_to 6896
  145.7558  140.8886  143.0456 H   0  0  0  0  0  0  0  0  0  0  0  0  # atno 7974 bound_to 7965
  154.6994  140.2670  155.6734 H   0  0  0  0  0  0  0  0  0  0  0  0  # atno 8008 bound_to 7997
  156.2759  140.2775  156.1523 H   0  0  0  0  0  0  0  0  0  0  0  0  # atno 8009 bound_to 7997
  155.0786  140.0372  157.2622 H   0  0  0  0  0  0  0  0  0  0  0  0  # atno 8010 bound_to 7997
  140.5186  144.0040  150.6406 H   0  0  0  0  0  0  0  0  0  0  0  0  # atno 10167 bound_to 10162
  157.6296  131.0995  150.7149 H   0  0  0  0  0  0  0  0  0  0  0  0  # atno 10718 bound_to 10713
  154.2006  135.2790  155.2992 H   0  0  0  0  0  0  0  0  0  0  0  0  # atno 10763 bound_to 10752
  154.5857  135.5575  153.7232 H   0  0  0  0  0  0  0  0  0  0  0  0  # atno 10764 bound_to 10752
  153.0089  135.6356  154.2145 H   0  0  0  0  0  0  0  0  0  0  0  0  # atno 10765 bound_to 10752
  139.8812  134.8779  156.3691 H   0  0  0  0  0  0  0  0  0  0  0  0  # atno 11005 bound_to 11000
  144.6840  139.9654  143.7481 LP  0  0  0  0  0  0  0  0  0  0  0  0  # atno 17320 bound_to 7965
  146.0312  139.3337  143.0754 LP  0  0  0  0  0  0  0  0  0  0  0  0  # atno 17321 bound_to 7965
  140.3383  143.3035  152.0615 LP  0  0  0  0  0  0  0  0  0  0  0  0  # atno 17342 bound_to 10162
  139.4916  144.6461  151.6776 LP  0  0  0  0  0  0  0  0  0  0  0  0  # atno 17343 bound_to 10162
  156.7491  130.4763  149.5460 LP  0  0  0  0  0  0  0  0  0  0  0  0  # atno 17370 bound_to 10713
  156.1490  130.6297  151.0570 LP  0  0  0  0  0  0  0  0  0  0  0  0  # atno 17371 bound_to 10713
  140.9476  133.7472  156.0229 LP  0  0  0  0  0  0  0  0  0  0  0  0  # atno 17394 bound_to 11000
  140.8144  134.3362  157.5402 LP  0  0  0  0  0  0  0  0  0  0  0  0  # atno 17395 bound_to 11000

$$$$
