AV-unprocessed.smi:584|AV-procd|sdf|2999|dock4
  -GOLD-   2262023503D 1   1.00000     0.00000
 Structure written by MMmdl.
 41 42  0  0  0  0  0  0  0  0  1 V2000
  152.6447  142.6018  162.4229 O   0  0  0  0  0  0  0  0  0  0  0  0
  153.7120  141.9881  162.4678 C   0  0  0  0  0  0  0  0  0  0  0  0
  154.1874  141.1350  161.2831 C   0  0  0  0  0  0  0  0  0  0  0  0
  153.3321  141.2601  160.0910 N   0  0  0  0  0  0  0  0  0  0  0  0
  153.0238  142.5667  159.6647 C   0  0  0  0  0  0  0  0  0  0  0  0
  152.2334  142.8253  158.6056 C   0  0  0  0  0  0  0  0  0  0  0  0
  151.9563  144.2476  158.1444 C   0  0  0  0  0  0  0  0  0  0  0  0
  151.3193  144.9437  159.0862 F   0  0  0  0  0  0  0  0  0  0  0  0
  153.1045  144.8670  157.8748 F   0  0  0  0  0  0  0  0  0  0  0  0
  151.2102  144.2576  157.0390 F   0  0  0  0  0  0  0  0  0  0  0  0
  151.7277  141.6750  157.8825 C   0  0  0  0  0  0  0  0  0  0  0  0
  152.0157  140.4185  158.2749 C   0  0  0  0  0  0  0  0  0  0  0  0
  152.8545  140.1538  159.4462 C   0  0  0  0  0  0  0  0  0  0  0  0
  153.1110  139.0102  159.8232 O   0  0  0  0  0  0  0  0  0  0  0  0
  154.5351  142.0213  163.5272 N   0  0  0  0  0  0  0  0  0  0  0  0
  154.3086  142.7771  164.7558 C   0  0  0  0  0  0  0  0  0  0  0  0
  155.1460  142.2449  165.9385 C   0  0  0  0  0  0  0  0  0  0  0  0
  155.2641  140.7080  165.8689 C   0  0  0  0  0  0  0  0  0  0  0  0
  156.1029  140.1436  167.0268 C   0  0  0  0  0  0  0  0  0  0  0  0
  155.5373  140.5765  168.3870 C   0  0  0  0  0  0  0  0  0  0  0  0
  155.4275  142.1055  168.4736 C   0  0  0  0  0  0  0  0  0  0  0  0
  154.5892  142.6725  167.3163 C   0  0  0  0  0  0  0  0  0  0  0  0
  155.2103  141.4235  161.0350 H   0  0  0  0  0  0  0  0  0  0  0  0
  154.2569  140.0951  161.6069 H   0  0  0  0  0  0  0  0  0  0  0  0
  153.4677  143.3496  160.2628 H   0  0  0  0  0  0  0  0  0  0  0  0
  151.1017  141.8228  157.0149 H   0  0  0  0  0  0  0  0  0  0  0  0
  151.6177  139.5848  157.7152 H   0  0  0  0  0  0  0  0  0  0  0  0
  155.3901  141.4867  163.4765 H   0  0  0  0  0  0  0  0  0  0  0  0
  154.4976  143.8411  164.6039 H   0  0  0  0  0  0  0  0  0  0  0  0
  153.2480  142.6927  164.9939 H   0  0  0  0  0  0  0  0  0  0  0  0
  156.1519  142.6571  165.8439 H   0  0  0  0  0  0  0  0  0  0  0  0
  154.2693  140.2604  165.8900 H   0  0  0  0  0  0  0  0  0  0  0  0
  155.7133  140.4114  164.9205 H   0  0  0  0  0  0  0  0  0  0  0  0
  156.1343  139.0554  166.9666 H   0  0  0  0  0  0  0  0  0  0  0  0
  157.1334  140.4887  166.9330 H   0  0  0  0  0  0  0  0  0  0  0  0
  154.5535  140.1294  168.5347 H   0  0  0  0  0  0  0  0  0  0  0  0
  156.1720  140.2024  169.1909 H   0  0  0  0  0  0  0  0  0  0  0  0
  154.9861  142.3930  169.4284 H   0  0  0  0  0  0  0  0  0  0  0  0
  156.4256  142.5451  168.4505 H   0  0  0  0  0  0  0  0  0  0  0  0
  154.5699  143.7589  167.4005 H   0  0  0  0  0  0  0  0  0  0  0  0
  153.5557  142.3380  167.4163 H   0  0  0  0  0  0  0  0  0  0  0  0
  1  2  2  0  0  0  0
  2  3  1  0  0  0  0
  2 15  1  0  0  0  0
  3  4  1  0  0  0  0
  3 23  1  0  0  0  0
  3 24  1  0  0  0  0
  4 13  1  0  0  0  0
  4  5  1  0  0  0  0
  5  6  2  0  0  0  0
  5 25  1  0  0  0  0
  6  7  1  0  0  0  0
  6 11  1  0  0  0  0
  7  8  1  0  0  0  0
  7  9  1  0  0  0  0
  7 10  1  0  0  0  0
 11 12  2  0  0  0  0
 11 26  1  0  0  0  0
 12 13  1  0  0  0  0
 12 27  1  0  0  0  0
 13 14  2  0  0  0  0
 15 16  1  0  0  0  0
 15 28  1  0  0  0  0
 16 17  1  0  0  0  0
 16 29  1  0  0  0  0
 16 30  1  0  0  0  0
 17 22  1  0  0  0  0
 17 18  1  0  0  0  0
 17 31  1  0  0  0  0
 18 19  1  0  0  0  0
 18 32  1  0  0  0  0
 18 33  1  0  0  0  0
 19 20  1  0  0  0  0
 19 34  1  0  0  0  0
 19 35  1  0  0  0  0
 20 21  1  0  0  0  0
 20 36  1  0  0  0  0
 20 37  1  0  0  0  0
 21 22  1  0  0  0  0
 21 38  1  0  0  0  0
 21 39  1  0  0  0  0
 22 40  1  0  0  0  0
 22 41  1  0  0  0  0
M  END
> <s_m_source_file>
AV-unprocessed.smi

> <i_m_source_file_index>
584

> <i_lp_mmshare_version>
43012

> <i_f3d_flags>
0

> <s_epik_input>
W0NIMl0xW0NIMl1bQ0gyXVtDSDJdW0NIMl1bQ0hdMVtDSDJdW05IXUMoPU8pW0NIMl1uMltjSF1jKEMoRikoRilGKVtjSF1bY0hdYzI9Tw==

> <s_epik_cmdline>
J2VwaWtfcHl0aG9uJywgJy1waCcsICc3LjAnLCAnLXRuJywgJzgnLCAnLW1hJywgJzIwMCcsICctbWV0YWxfYmluZGluZycsICctaW1hZScsICc8aW5maWxlLm1hZT4nLCAnLW9tYWUnLCAnPG91dGZpbGUubWFlPic=

> <r_lp_tautomer_probability>
1

> <r_epik_Ionization_Penalty>
3.78989e-08

> <r_epik_Ionization_Penalty_Charging>
1.81011e-08

> <r_epik_Ionization_Penalty_Neutral>
1.97978e-08

> <r_epik_State_Penalty>
-0

> <r_epik_Charging_Adjusted_Penalty>
1.81011e-08

> <i_epik_Tot_Q>
0

> <i_epik_Tot_abs_Q>
0

> <r_epik_Metal_State_Penalty>
-0

> <b_epik_Metal_Only>
0

> <s_lp_Force_Field>
OPLS_2005

> <r_lp_Energy>
22.635

> <b_lp_Chiralities_Consistent>
1

> <s_lp_Variant>
AV-unprocessed.smi:584-1

> <Gold.Version>
5.8.1

> <Gold.Id.Protein>
6NUR|6NUR_protein|mol2

> <Gold.PLP.Fitness>
51.0465

> <Gold.PLP.PLP>
-52.0235

> <Gold.PLP.part.hbond>
-1.0000

> <Gold.PLP.part.metal>
0.0000

> <Gold.PLP.part.buried>
-3.4232

> <Gold.PLP.part.nonpolar>
-47.7212

> <Gold.PLP.part.repulsive>
0.1432

> <Gold.PLP.ligand.clash>
0.0000

> <Gold.PLP.ligand.torsion>
0.5133

> <Gold.PLP.Chemscore.Hbond>
0.0000

> <Gold.PLP.Chemscore.CHOScore>
0.0000

> <Gold.PLP.Chemscore.Metal>
0.0000

> <Gold.PLP.Chemscore.Internal.Correction>
0.0496

> <Gold.Rescore>
     Score         DG    S(hbond)    S(metal)    S(lipo)     H(rot)  DE(clash)    DE(int)     intcor
      9.31     -13.31       0.00        0.00     105.15       1.75       2.10       1.90       ----

> <Gold.Chemscore.Fitness>
9.3099

> <Gold.Chemscore.DG>
-13.3132

> <Gold.Chemscore.ZeroCoef>
-5.4800

> <Gold.Chemscore.Hbond>
0.0000

> <Gold.Chemscore.Metal>
0.0000

> <Gold.Chemscore.Lipo>
105.1527

> <Gold.Chemscore.Internal_Hbond>
0.0000

> <Gold.Chemscore.DEClash>
2.0993

> <Gold.Chemscore.DEInternal>
1.9040

> <Gold.Chemscore.Rot>
1.7459

> <Gold.Chemscore.Internal.Correction>
   9.000000E+99

> <Gold.Chemscore.Hbond.Weighted>
-0.0000

> <Gold.Chemscore.Metal.Weighted>
-0.0000

> <Gold.Chemscore.Lipo.Weighted>
-12.3029

> <Gold.Chemscore.Internal_Hbond.Weighted>
0.0000

> <Gold.Chemscore.DEClash.Weighted>
2.0993

> <Gold.Chemscore.DEInternal.Weighted>
1.9040

> <Gold.Chemscore.Rot.Weighted>
4.4696

> <Gold.Chemscore.Internal.Correction.Weighted>
   9.000000E+99

> <Gold.Protein.RotatedTorsions>
[ 6907 6896 6895 6894 ] final  -81.40 input  -60.11 | X-H torsion
[ 7974 7965 7964 7962 ] final   27.15 input  175.53 | X-H torsion
[ 8008 7997 7996 7995 ] final  118.01 input   59.86 | X-H torsion
[ 10167 10162 10161 10158 ] final   42.88 input  -65.29 | X-H torsion
[ 10718 10713 10712 10709 ] final -105.96 input   66.30 | X-H torsion
[ 10763 10752 10751 10750 ] final   95.35 input  -60.55 | X-H torsion
[ 11005 11000 10999 10996 ] final   52.60 input  -57.11 | X-H torsion

> <Gold.Protein.ActiveResidues>
 VAL166  LYS551  ARG553  GLY616  TRP617  ASP618  TYR619  PRO620  LYS621  CYS622 
 ASP623  PHE694  ASN695  SER759  ASP760  ASP761  ALA762  ILE779  LEU786  VAL792 
 PHE793  MET794  SER795  GLU796  ALA797  LYS798  CYS799  TRP800  GLU811  SER814 

> <Gold.Protein.RotatedAtoms>
  150.6913  134.3823  159.5039 H   0  0  0  0  0  0  0  0  0  0  0  0  # atno 6907 bound_to 6896
  152.1623  134.8899  160.0550 H   0  0  0  0  0  0  0  0  0  0  0  0  # atno 6908 bound_to 6896
  151.9956  133.3772  159.4198 H   0  0  0  0  0  0  0  0  0  0  0  0  # atno 6909 bound_to 6896
  146.1800  139.7231  142.8907 H   0  0  0  0  0  0  0  0  0  0  0  0  # atno 7974 bound_to 7965
  156.2524  140.2884  156.0768 H   0  0  0  0  0  0  0  0  0  0  0  0  # atno 8008 bound_to 7997
  155.1610  140.0399  157.2860 H   0  0  0  0  0  0  0  0  0  0  0  0  # atno 8009 bound_to 7997
  154.6393  140.2518  155.7348 H   0  0  0  0  0  0  0  0  0  0  0  0  # atno 8010 bound_to 7997
  140.3500  144.2362  150.6146 H   0  0  0  0  0  0  0  0  0  0  0  0  # atno 10167 bound_to 10162
  156.0369  130.5589  150.7613 H   0  0  0  0  0  0  0  0  0  0  0  0  # atno 10718 bound_to 10713
  153.2521  135.4257  155.0808 H   0  0  0  0  0  0  0  0  0  0  0  0  # atno 10763 bound_to 10752
  154.8386  135.3428  154.6497 H   0  0  0  0  0  0  0  0  0  0  0  0  # atno 10764 bound_to 10752
  153.6919  135.7033  153.5144 H   0  0  0  0  0  0  0  0  0  0  0  0  # atno 10765 bound_to 10752
  140.0836  134.5305  155.8921 H   0  0  0  0  0  0  0  0  0  0  0  0  # atno 11005 bound_to 11000
  145.4104  141.0396  143.3020 LP  0  0  0  0  0  0  0  0  0  0  0  0  # atno 17320 bound_to 7965
  144.8299  139.5647  143.6948 LP  0  0  0  0  0  0  0  0  0  0  0  0  # atno 17321 bound_to 7965
  140.5228  143.2261  151.8362 LP  0  0  0  0  0  0  0  0  0  0  0  0  # atno 17342 bound_to 10162
  139.4828  144.4816  151.9299 LP  0  0  0  0  0  0  0  0  0  0  0  0  # atno 17343 bound_to 10162
  157.5132  131.0927  151.0172 LP  0  0  0  0  0  0  0  0  0  0  0  0  # atno 17370 bound_to 10713
  157.0522  130.5792  149.5372 LP  0  0  0  0  0  0  0  0  0  0  0  0  # atno 17371 bound_to 10713
  141.2055  133.6647  156.6185 LP  0  0  0  0  0  0  0  0  0  0  0  0  # atno 17394 bound_to 11000
  140.3452  134.7815  157.4427 LP  0  0  0  0  0  0  0  0  0  0  0  0  # atno 17395 bound_to 11000

$$$$
