AV-unprocessed.smi:3252|AV-procd|sdf|12440|dock3
  -GOLD-   2272018333D 1   1.00000     0.00000
 Structure written by MMmdl.
 37 38  0  0  0  0  0  0  0  0  2 V2000
  145.1587  135.8596  151.0949 C   0  0  0  0  0  0  0  0  0  0  0  0
  144.4650  134.6553  150.4436 C   0  0  0  0  0  0  0  0  0  0  0  0
  145.4332  133.6271  149.9781 N   0  3  2  0  0  0  0  0  0  0  0  0
  144.7890  132.3740  149.5158 C   0  0  0  0  0  0  0  0  0  0  0  0
  144.3605  131.4993  150.7066 C   0  0  0  0  0  0  0  0  0  0  0  0
  145.4945  131.2320  151.5204 O   0  0  0  0  0  0  0  0  0  0  0  0
  146.0576  132.4115  152.0861 C   0  0  1  0  0  0  0  0  0  0  0  0
  147.2291  132.0163  153.0026 C   0  0  0  0  0  0  0  0  0  0  0  0
  147.9357  133.1739  153.5393 N   0  0  0  0  0  0  0  0  0  0  0  0
  148.9814  133.0387  154.4646 C   0  0  0  0  0  0  0  0  0  0  0  0
  149.4303  131.7407  154.7873 C   0  0  0  0  0  0  0  0  0  0  0  0
  150.4798  131.5946  155.7158 C   0  0  0  0  0  0  0  0  0  0  0  0
  151.0434  132.7515  156.2891 C   0  0  0  0  0  0  0  0  0  0  0  0
  152.1288  132.6543  157.2498 C   0  0  0  0  0  0  0  0  0  0  0  0
  152.9934  132.5769  158.0147 N   0  0  0  0  0  0  0  0  0  0  0  0
  150.5272  134.0060  155.9072 C   0  0  0  0  0  0  0  0  0  0  0  0
  149.5204  134.1509  155.0187 N   0  0  0  0  0  0  0  0  0  0  0  0
  146.5313  133.3246  150.9329 C   0  0  0  0  0  0  0  0  0  0  0  0
  144.4320  136.6365  151.3341 H   0  0  0  0  0  0  0  0  0  0  0  0
  145.8996  136.2973  150.4250 H   0  0  0  0  0  0  0  0  0  0  0  0
  145.6606  135.5911  152.0240 H   0  0  0  0  0  0  0  0  0  0  0  0
  143.7319  134.2239  151.1246 H   0  0  0  0  0  0  0  0  0  0  0  0
  143.9022  135.0257  149.5859 H   0  0  0  0  0  0  0  0  0  0  0  0
  143.9404  132.5902  148.8660 H   0  0  0  0  0  0  0  0  0  0  0  0
  145.5075  131.8238  148.9070 H   0  0  0  0  0  0  0  0  0  0  0  0
  143.5756  131.9789  151.2931 H   0  0  0  0  0  0  0  0  0  0  0  0
  143.9548  130.5529  150.3487 H   0  0  0  0  0  0  0  0  0  0  0  0
  145.3048  132.9273  152.6845 H   0  0  0  0  0  0  0  0  0  0  0  0
  146.8952  131.3507  153.7991 H   0  0  0  0  0  0  0  0  0  0  0  0
  147.9574  131.4478  152.4238 H   0  0  0  0  0  0  0  0  0  0  0  0
  147.5686  134.0942  153.3436 H   0  0  0  0  0  0  0  0  0  0  0  0
  148.9821  130.8688  154.3333 H   0  0  0  0  0  0  0  0  0  0  0  0
  150.8413  130.6107  155.9784 H   0  0  0  0  0  0  0  0  0  0  0  0
  150.9282  134.9202  156.3209 H   0  0  0  0  0  0  0  0  0  0  0  0
  147.3256  132.8207  150.3799 H   0  0  0  0  0  0  0  0  0  0  0  0
  146.9727  134.2408  151.3231 H   0  0  0  0  0  0  0  0  0  0  0  0
  145.8672  134.0293  149.1595 H   0  0  0  0  0  0  0  0  0  0  0  0
  1  2  1  0  0  0  0
  1 19  1  0  0  0  0
  1 20  1  0  0  0  0
  1 21  1  0  0  0  0
  2  3  1  0  0  0  0
  2 22  1  0  0  0  0
  2 23  1  0  0  0  0
  3 18  1  0  0  0  0
  3  4  1  0  0  0  0
  3 37  1  0  0  0  0
  4  5  1  0  0  0  0
  4 24  1  0  0  0  0
  4 25  1  0  0  0  0
  5  6  1  0  0  0  0
  5 26  1  0  0  0  0
  5 27  1  0  0  0  0
  6  7  1  0  0  0  0
  7  8  1  0  0  0  0
  7 18  1  0  0  0  0
  7 28  1  0  0  0  0
  8  9  1  0  0  0  0
  8 29  1  0  0  0  0
  8 30  1  0  0  0  0
  9 10  1  0  0  0  0
  9 31  1  0  0  0  0
 10 17  1  0  0  0  0
 10 11  2  0  0  0  0
 11 12  1  0  0  0  0
 11 32  1  0  0  0  0
 12 13  2  0  0  0  0
 12 33  1  0  0  0  0
 13 14  1  0  0  0  0
 13 16  1  0  0  0  0
 14 15  3  0  0  0  0
 16 17  2  0  0  0  0
 16 34  1  0  0  0  0
 18 35  1  0  0  0  0
 18 36  1  0  0  0  0
M  CHG  1   3   1
M  END
> <s_m_source_file>
AV-unprocessed.smi

> <i_m_source_file_index>
3252

> <i_lp_mmshare_version>
43012

> <i_f3d_flags>
0

> <s_epik_input>
W0NIM11bQ0gyXU4xW0NIMl1bQ0gyXU9bQ0BIXShbQ0gyXTEpW0NIMl1bTkhdYzJbY0hdW2NIXWMoQyNOKVtjSF1uMg==

> <s_epik_cmdline>
J2VwaWtfcHl0aG9uJywgJy1waCcsICc3LjAnLCAnLXRuJywgJzgnLCAnLW1hJywgJzIwMCcsICctbWV0YWxfYmluZGluZycsICctaW1hZScsICc8aW5maWxlLm1hZT4nLCAnLW9tYWUnLCAnPG91dGZpbGUubWFlPic=

> <r_epik_Ionization_Penalty>
0.178512

> <r_epik_Ionization_Penalty_Charging>
0.178504

> <r_epik_Ionization_Penalty_Neutral>
8.15545e-06

> <r_epik_State_Penalty>
0.167974

> <r_epik_Charging_Adjusted_Penalty>
0.346478

> <i_epik_Tot_Q>
1

> <i_epik_Tot_abs_Q>
1

> <r_epik_Metal_State_Penalty>
0.167974

> <b_epik_Metal_Only>
0

> <s_lp_Force_Field>
OPLS_2005

> <r_lp_Energy>
19.5584

> <b_lp_Chiralities_Consistent>
1

> <s_lp_Variant>
AV-unprocessed.smi:3252-2

> <Gold.Version>
5.8.1

> <Gold.Id.Protein>
6NUR|6NUR_protein|mol2

> <Gold.PLP.Fitness>
38.7546

> <Gold.PLP.PLP>
-32.9689

> <Gold.PLP.part.hbond>
-2.0000

> <Gold.PLP.part.metal>
0.0000

> <Gold.PLP.part.buried>
-4.6615

> <Gold.PLP.part.nonpolar>
-27.5757

> <Gold.PLP.part.repulsive>
0.3596

> <Gold.PLP.ligand.clash>
0.0000

> <Gold.PLP.ligand.torsion>
0.1062

> <Gold.PLP.Chemscore.Hbond>
1.9913

> <Gold.PLP.Chemscore.CHOScore>
0.0000

> <Gold.PLP.Chemscore.Metal>
0.0000

> <Gold.Chemscore.Hbonds>
donor molecule, donor type, donor heavy atom, donor atom, acceptor molecule, acceptor atom, score
      L1  H     3    37       P1  7921  1.00
      P1  H  6896  6909       L1    15  1.00

> <Gold.PLP.Chemscore.Internal.Correction>
0.0244

> <Gold.Rescore>
     Score         DG    S(hbond)    S(metal)    S(lipo)     H(rot)  DE(clash)    DE(int)     intcor
     15.27     -15.75       1.62        0.00      73.58       1.47       0.33       0.16       ----

> <Gold.Chemscore.Fitness>
15.2708

> <Gold.Chemscore.DG>
-15.7529

> <Gold.Chemscore.ZeroCoef>
-5.4800

> <Gold.Chemscore.Hbond>
1.6236

> <Gold.Chemscore.Metal>
0.0000

> <Gold.Chemscore.Lipo>
73.5774

> <Gold.Chemscore.Internal_Hbond>
0.0000

> <Gold.Chemscore.DEClash>
0.3264

> <Gold.Chemscore.DEInternal>
0.1558

> <Gold.Chemscore.Rot>
1.4681

> <Gold.Chemscore.Internal.Correction>
   9.000000E+99

> <Gold.Chemscore.Hbonds>
donor molecule, donor type, donor heavy atom, donor atom, acceptor molecule, acceptor atom, score
      L1  H     3    37       P1  7921  0.30
      P1  H  6896  6909       L1    15  0.33

> <Gold.Chemscore.Hbond.Weighted>
-5.4228

> <Gold.Chemscore.Metal.Weighted>
-0.0000

> <Gold.Chemscore.Lipo.Weighted>
-8.6086

> <Gold.Chemscore.Internal_Hbond.Weighted>
0.0000

> <Gold.Chemscore.DEClash.Weighted>
0.3264

> <Gold.Chemscore.DEInternal.Weighted>
0.1558

> <Gold.Chemscore.Rot.Weighted>
3.7584

> <Gold.Chemscore.Internal.Correction.Weighted>
   9.000000E+99

> <Gold.Protein.RotatedTorsions>
[ 6907 6896 6895 6894 ] final -101.50 input  -60.11 | X-H torsion
[ 7974 7965 7964 7962 ] final -159.58 input  175.53 | X-H torsion
[ 8008 7997 7996 7995 ] final -104.53 input   59.86 | X-H torsion
[ 10167 10162 10161 10158 ] final  -46.37 input  -65.29 | X-H torsion
[ 10718 10713 10712 10709 ] final -102.52 input   66.30 | X-H torsion
[ 10763 10752 10751 10750 ] final   -7.43 input  -60.55 | X-H torsion
[ 11005 11000 10999 10996 ] final  159.91 input  -57.11 | X-H torsion

> <Gold.Protein.ActiveResidues>
 VAL166  LYS551  ARG553  GLY616  TRP617  ASP618  TYR619  PRO620  LYS621  CYS622 
 ASP623  PHE694  ASN695  SER759  ASP760  ASP761  ALA762  ILE779  LEU786  VAL792 
 PHE793  MET794  SER795  GLU796  ALA797  LYS798  CYS799  TRP800  GLU811  SER814 

> <Gold.Protein.RotatedAtoms>
  150.7157  134.0724  159.3868 H   0  0  0  0  0  0  0  0  0  0  0  0  # atno 6907 bound_to 6896
  151.8706  135.0488  160.0488 H   0  0  0  0  0  0  0  0  0  0  0  0  # atno 6908 bound_to 6896
  152.2646  133.5292  159.5438 H   0  0  0  0  0  0  0  0  0  0  0  0  # atno 6909 bound_to 6896
  144.7460  140.3664  143.6085 H   0  0  0  0  0  0  0  0  0  0  0  0  # atno 7974 bound_to 7965
  154.8867  140.0417  157.1814 H   0  0  0  0  0  0  0  0  0  0  0  0  # atno 8008 bound_to 7997
  154.8583  140.2940  155.5534 H   0  0  0  0  0  0  0  0  0  0  0  0  # atno 8009 bound_to 7997
  156.2998  140.2452  156.3553 H   0  0  0  0  0  0  0  0  0  0  0  0  # atno 8010 bound_to 7997
  140.6820  143.2834  151.3774 H   0  0  0  0  0  0  0  0  0  0  0  0  # atno 10167 bound_to 10162
  156.0231  130.5424  150.7120 H   0  0  0  0  0  0  0  0  0  0  0  0  # atno 10718 bound_to 10713
  153.4262  135.7011  153.6261 H   0  0  0  0  0  0  0  0  0  0  0  0  # atno 10763 bound_to 10752
  153.4695  135.3718  155.2383 H   0  0  0  0  0  0  0  0  0  0  0  0  # atno 10764 bound_to 10752
  154.8724  135.4039  154.3638 H   0  0  0  0  0  0  0  0  0  0  0  0  # atno 10765 bound_to 10752
  140.2008  134.8339  157.3015 H   0  0  0  0  0  0  0  0  0  0  0  0  # atno 11005 bound_to 11000
  145.7123  139.1688  143.2531 LP  0  0  0  0  0  0  0  0  0  0  0  0  # atno 17320 bound_to 7965
  146.1338  140.7150  142.9399 LP  0  0  0  0  0  0  0  0  0  0  0  0  # atno 17321 bound_to 7965
  139.6149  144.1023  152.2336 LP  0  0  0  0  0  0  0  0  0  0  0  0  # atno 17342 bound_to 10162
  140.0449  144.5979  150.7382 LP  0  0  0  0  0  0  0  0  0  0  0  0  # atno 17343 bound_to 10162
  157.4756  131.0897  151.0594 LP  0  0  0  0  0  0  0  0  0  0  0  0  # atno 17370 bound_to 10713
  157.1042  130.5994  149.5467 LP  0  0  0  0  0  0  0  0  0  0  0  0  # atno 17371 bound_to 10713
  140.2056  134.4201  155.7639 LP  0  0  0  0  0  0  0  0  0  0  0  0  # atno 17394 bound_to 11000
  141.2227  133.7093  156.8255 LP  0  0  0  0  0  0  0  0  0  0  0  0  # atno 17395 bound_to 11000

$$$$
