AV-unprocessed.smi:1625|AV-procd|sdf|6505|dock2
  -GOLD-   22720 7173D 1   1.00000     0.00000
 Structure written by MMmdl.
 49 51  0  0  0  0  0  0  0  0  2 V2000
  147.1823  140.5928  153.9038 O   0  0  0  0  0  0  0  0  0  0  0  0
  147.9220  139.6292  153.7073 C   0  0  0  0  0  0  0  0  0  0  0  0
  147.6515  138.6607  152.8209 N   0  0  0  0  0  0  0  0  0  0  0  0
  146.4616  138.6002  151.9744 C   0  0  0  0  0  0  0  0  0  0  0  0
  145.5345  137.4091  152.3007 C   0  0  0  0  0  0  0  0  0  0  0  0
  146.0946  136.1062  151.8688 N   0  3  0  0  0  0  0  0  0  0  0  0
  146.1954  135.0762  152.9302 C   0  0  0  0  0  0  0  0  0  0  0  0
  145.7551  133.7463  152.3024 C   0  0  0  0  0  0  0  0  0  0  0  0
  145.7445  134.0124  150.8001 C   0  0  0  0  0  0  0  0  0  0  0  0
  145.3973  135.4951  150.7207 C   0  0  0  0  0  0  0  0  0  0  0  0
  149.0827  139.3980  154.3431 N   0  0  0  0  0  0  0  0  0  0  0  0
  149.7348  140.2165  155.3037 C   0  0  0  0  0  0  0  0  0  0  0  0
  151.0983  139.9804  155.5641 C   0  0  0  0  0  0  0  0  0  0  0  0
  151.7705  140.7891  156.4997 C   0  0  0  0  0  0  0  0  0  0  0  0
  151.0624  141.8265  157.1509 C   0  0  0  0  0  0  0  0  0  0  0  0
  151.7127  142.6445  158.1005 N   0  0  0  0  0  0  0  0  0  0  0  0
  151.0889  143.9205  158.4469 C   0  0  0  0  0  0  0  0  0  0  0  0
  152.0609  144.7886  159.2636 C   0  0  0  0  0  0  0  0  0  0  0  0
  152.5014  144.0664  160.4084 O   0  0  0  0  0  0  0  0  0  0  0  0
  153.2046  142.8824  160.0476 C   0  0  0  0  0  0  0  0  0  0  0  0
  152.2780  141.9459  159.2527 C   0  0  0  0  0  0  0  0  0  0  0  0
  149.7563  142.0693  156.8796 N   0  0  0  0  0  0  0  0  0  0  0  0
  149.1139  141.2896  155.9852 C   0  0  0  0  0  0  0  0  0  0  0  0
  148.3082  137.8979  152.7382 H   0  0  0  0  0  0  0  0  0  0  0  0
  145.9177  139.5353  152.1098 H   0  0  0  0  0  0  0  0  0  0  0  0
  146.7577  138.5700  150.9249 H   0  0  0  0  0  0  0  0  0  0  0  0
  145.3080  137.3850  153.3675 H   0  0  0  0  0  0  0  0  0  0  0  0
  144.5807  137.5537  151.7916 H   0  0  0  0  0  0  0  0  0  0  0  0
  147.2287  135.0272  153.2746 H   0  0  0  0  0  0  0  0  0  0  0  0
  145.5706  135.3143  153.7922 H   0  0  0  0  0  0  0  0  0  0  0  0
  146.4064  132.9158  152.5763 H   0  0  0  0  0  0  0  0  0  0  0  0
  144.7458  133.5010  152.6360 H   0  0  0  0  0  0  0  0  0  0  0  0
  146.7383  133.8404  150.3837 H   0  0  0  0  0  0  0  0  0  0  0  0
  145.0382  133.3806  150.2605 H   0  0  0  0  0  0  0  0  0  0  0  0
  144.3194  135.6266  150.8308 H   0  0  0  0  0  0  0  0  0  0  0  0
  145.7005  135.9494  149.7767 H   0  0  0  0  0  0  0  0  0  0  0  0
  149.5311  138.5139  154.1513 H   0  0  0  0  0  0  0  0  0  0  0  0
  151.6270  139.1867  155.0565 H   0  0  0  0  0  0  0  0  0  0  0  0
  152.8178  140.6137  156.6950 H   0  0  0  0  0  0  0  0  0  0  0  0
  150.7984  144.4574  157.5430 H   0  0  0  0  0  0  0  0  0  0  0  0
  150.1813  143.7346  159.0227 H   0  0  0  0  0  0  0  0  0  0  0  0
  152.9172  145.0899  158.6578 H   0  0  0  0  0  0  0  0  0  0  0  0
  151.5644  145.7027  159.5892 H   0  0  0  0  0  0  0  0  0  0  0  0
  154.0923  143.1366  159.4658 H   0  0  0  0  0  0  0  0  0  0  0  0
  153.5509  142.3857  160.9539 H   0  0  0  0  0  0  0  0  0  0  0  0
  151.4618  141.6019  159.8892 H   0  0  0  0  0  0  0  0  0  0  0  0
  152.8406  141.0626  158.9543 H   0  0  0  0  0  0  0  0  0  0  0  0
  148.0847  141.5603  155.8081 H   0  0  0  0  0  0  0  0  0  0  0  0
  147.0384  136.2808  151.5537 H   0  0  0  0  0  0  0  0  0  0  0  0
  1  2  2  0  0  0  0
  2  3  1  0  0  0  0
  2 11  1  0  0  0  0
  3  4  1  0  0  0  0
  3 24  1  0  0  0  0
  4  5  1  0  0  0  0
  4 25  1  0  0  0  0
  4 26  1  0  0  0  0
  5  6  1  0  0  0  0
  5 27  1  0  0  0  0
  5 28  1  0  0  0  0
  6 10  1  0  0  0  0
  6  7  1  0  0  0  0
  6 49  1  0  0  0  0
  7  8  1  0  0  0  0
  7 29  1  0  0  0  0
  7 30  1  0  0  0  0
  8  9  1  0  0  0  0
  8 31  1  0  0  0  0
  8 32  1  0  0  0  0
  9 10  1  0  0  0  0
  9 33  1  0  0  0  0
  9 34  1  0  0  0  0
 10 35  1  0  0  0  0
 10 36  1  0  0  0  0
 11 12  1  0  0  0  0
 11 37  1  0  0  0  0
 12 23  1  0  0  0  0
 12 13  2  0  0  0  0
 13 14  1  0  0  0  0
 13 38  1  0  0  0  0
 14 15  2  0  0  0  0
 14 39  1  0  0  0  0
 15 16  1  0  0  0  0
 15 22  1  0  0  0  0
 16 21  1  0  0  0  0
 16 17  1  0  0  0  0
 17 18  1  0  0  0  0
 17 40  1  0  0  0  0
 17 41  1  0  0  0  0
 18 19  1  0  0  0  0
 18 42  1  0  0  0  0
 18 43  1  0  0  0  0
 19 20  1  0  0  0  0
 20 21  1  0  0  0  0
 20 44  1  0  0  0  0
 20 45  1  0  0  0  0
 21 46  1  0  0  0  0
 21 47  1  0  0  0  0
 22 23  2  0  0  0  0
 23 48  1  0  0  0  0
M  CHG  1   6   1
M  END
> <s_m_source_file>
AV-unprocessed.smi

> <i_m_source_file_index>
1625

> <i_lp_mmshare_version>
43012

> <i_f3d_flags>
0

> <s_epik_input>
W0NIMl0xW0NIMl1bQ0gyXVtDSDJdTjFbQ0gyXVtDSDJdW05IXUMoPU8pW05IXWMyW2NIXVtjSF1jKG5bY0hdMilOM1tDSDJdW0NIMl1PW0NIMl1bQ0gyXTM=

> <s_epik_cmdline>
J2VwaWtfcHl0aG9uJywgJy1waCcsICc3LjAnLCAnLXRuJywgJzgnLCAnLW1hJywgJzIwMCcsICctbWV0YWxfYmluZGluZycsICctaW1hZScsICc8aW5maWxlLm1hZT4nLCAnLW9tYWUnLCAnPG91dGZpbGUubWFlPic=

> <r_lp_tautomer_probability>
1

> <r_epik_Ionization_Penalty>
0.00378777

> <r_epik_Ionization_Penalty_Charging>
0.00210487

> <r_epik_Ionization_Penalty_Neutral>
0.0016829

> <r_epik_State_Penalty>
-0

> <r_epik_Charging_Adjusted_Penalty>
0.00210487

> <i_epik_Tot_Q>
1

> <i_epik_Tot_abs_Q>
1

> <r_epik_Metal_State_Penalty>
-0

> <b_epik_Metal_Only>
0

> <s_lp_Force_Field>
OPLS_2005

> <r_lp_Energy>
50.0619

> <b_lp_Chiralities_Consistent>
1

> <s_lp_Variant>
AV-unprocessed.smi:1625-1

> <Gold.Version>
5.8.1

> <Gold.Id.Protein>
6NUR|6NUR_protein|mol2

> <Gold.PLP.Fitness>
50.3889

> <Gold.PLP.PLP>
-43.1047

> <Gold.PLP.part.hbond>
-3.0918

> <Gold.PLP.part.metal>
0.0000

> <Gold.PLP.part.buried>
-4.4452

> <Gold.PLP.part.nonpolar>
-36.6447

> <Gold.PLP.part.repulsive>
1.1046

> <Gold.PLP.ligand.clash>
0.0000

> <Gold.PLP.ligand.torsion>
1.0670

> <Gold.PLP.Chemscore.Hbond>
3.0000

> <Gold.PLP.Chemscore.CHOScore>
0.0000

> <Gold.PLP.Chemscore.Metal>
0.0000

> <Gold.Chemscore.Hbonds>
donor molecule, donor type, donor heavy atom, donor atom, acceptor molecule, acceptor atom, score
      L1  H     3    24       P1  7948  1.00
      L1  H     6    49       P1  7948  2.00

> <Gold.PLP.Chemscore.Internal.Correction>
0.4182

> <Gold.Rescore>
     Score         DG    S(hbond)    S(metal)    S(lipo)     H(rot)  DE(clash)    DE(int)     intcor
     17.41     -19.71       1.95        0.00     101.99       1.65       0.05       2.24       ----

> <Gold.Chemscore.Fitness>
17.4094

> <Gold.Chemscore.DG>
-19.7081

> <Gold.Chemscore.ZeroCoef>
-5.4800

> <Gold.Chemscore.Hbond>
1.9514

> <Gold.Chemscore.Metal>
0.0000

> <Gold.Chemscore.Lipo>
101.9939

> <Gold.Chemscore.Internal_Hbond>
0.0000

> <Gold.Chemscore.DEClash>
0.0539

> <Gold.Chemscore.DEInternal>
2.2448

> <Gold.Chemscore.Rot>
1.6495

> <Gold.Chemscore.Internal.Correction>
   9.000000E+99

> <Gold.Chemscore.Hbonds>
donor molecule, donor type, donor heavy atom, donor atom, acceptor molecule, acceptor atom, score
      L1  H     3    24       P1  7948  0.95
      L1  H     6    49       P1  7948  0.96

> <Gold.Chemscore.Hbond.Weighted>
-6.5176

> <Gold.Chemscore.Metal.Weighted>
-0.0000

> <Gold.Chemscore.Lipo.Weighted>
-11.9333

> <Gold.Chemscore.Internal_Hbond.Weighted>
0.0000

> <Gold.Chemscore.DEClash.Weighted>
0.0539

> <Gold.Chemscore.DEInternal.Weighted>
2.2448

> <Gold.Chemscore.Rot.Weighted>
4.2228

> <Gold.Chemscore.Internal.Correction.Weighted>
   9.000000E+99

> <Gold.Protein.RotatedTorsions>
[ 6907 6896 6895 6894 ] final -158.79 input  -60.11 | X-H torsion
[ 7974 7965 7964 7962 ] final   75.18 input  175.53 | X-H torsion
[ 8008 7997 7996 7995 ] final  -90.71 input   59.86 | X-H torsion
[ 10167 10162 10161 10158 ] final   22.46 input  -65.29 | X-H torsion
[ 10718 10713 10712 10709 ] final -160.74 input   66.30 | X-H torsion
[ 10763 10752 10751 10750 ] final   85.18 input  -60.55 | X-H torsion
[ 11005 11000 10999 10996 ] final   92.70 input  -57.11 | X-H torsion

> <Gold.Protein.ActiveResidues>
 VAL166  LYS551  ARG553  GLY616  TRP617  ASP618  TYR619  PRO620  LYS621  CYS622 
 ASP623  PHE694  ASN695  SER759  ASP760  ASP761  ALA762  ILE779  LEU786  VAL792 
 PHE793  MET794  SER795  GLU796  ALA797  LYS798  CYS799  TRP800  GLU811  SER814 

> <Gold.Protein.RotatedAtoms>
  151.3236  133.4030  159.2656 H   0  0  0  0  0  0  0  0  0  0  0  0  # atno 6907 bound_to 6896
  151.0014  134.9326  159.7966 H   0  0  0  0  0  0  0  0  0  0  0  0  # atno 6908 bound_to 6896
  152.5276  134.3201  159.9197 H   0  0  0  0  0  0  0  0  0  0  0  0  # atno 6909 bound_to 6896
  145.7189  139.2641  143.1607 H   0  0  0  0  0  0  0  0  0  0  0  0  # atno 7974 bound_to 7965
  154.7018  140.0527  157.0465 H   0  0  0  0  0  0  0  0  0  0  0  0  # atno 8008 bound_to 7997
  155.0674  140.3196  155.4622 H   0  0  0  0  0  0  0  0  0  0  0  0  # atno 8009 bound_to 7997
  156.2762  140.2088  156.5801 H   0  0  0  0  0  0  0  0  0  0  0  0  # atno 8010 bound_to 7997
  140.5346  143.9782  150.6484 H   0  0  0  0  0  0  0  0  0  0  0  0  # atno 10167 bound_to 10162
  156.5864  130.8751  151.2878 H   0  0  0  0  0  0  0  0  0  0  0  0  # atno 10718 bound_to 10713
  153.1451  135.4627  154.9553 H   0  0  0  0  0  0  0  0  0  0  0  0  # atno 10763 bound_to 10752
  154.7779  135.3179  154.8055 H   0  0  0  0  0  0  0  0  0  0  0  0  # atno 10764 bound_to 10752
  153.8571  135.6916  153.4840 H   0  0  0  0  0  0  0  0  0  0  0  0  # atno 10765 bound_to 10752
  139.8820  134.8748  156.3610 H   0  0  0  0  0  0  0  0  0  0  0  0  # atno 11005 bound_to 11000
  146.0644  140.7936  142.9719 LP  0  0  0  0  0  0  0  0  0  0  0  0  # atno 17320 bound_to 7965
  144.6922  140.3246  143.7226 LP  0  0  0  0  0  0  0  0  0  0  0  0  # atno 17321 bound_to 7965
  140.3166  143.3164  152.0826 LP  0  0  0  0  0  0  0  0  0  0  0  0  # atno 17342 bound_to 10162
  139.4966  144.6601  151.6483 LP  0  0  0  0  0  0  0  0  0  0  0  0  # atno 17343 bound_to 10162
  157.7314  130.9700  150.1879 LP  0  0  0  0  0  0  0  0  0  0  0  0  # atno 17370 bound_to 10713
  156.2587  130.3708  149.8154 LP  0  0  0  0  0  0  0  0  0  0  0  0  # atno 17371 bound_to 10713
  140.9529  133.7439  156.0296 LP  0  0  0  0  0  0  0  0  0  0  0  0  # atno 17394 bound_to 11000
  140.8083  134.3428  157.5419 LP  0  0  0  0  0  0  0  0  0  0  0  0  # atno 17395 bound_to 11000

$$$$
