AV-unprocessed.smi:738|AV-procd|sdf|3539|dock9
  -GOLD-   22720 0533D 1   1.00000     0.00000
 Structure written by MMmdl.
 35 37  0  0  0  0  0  0  0  0  1 V2000
  152.6975  130.7593  156.2737 N   0  0  0  0  0  0  0  0  0  0  0  0
  151.8631  131.7491  156.6060 C   0  0  0  0  0  0  0  0  0  0  0  0
  152.0868  132.5130  157.5430 O   0  0  0  0  0  0  0  0  0  0  0  0
  150.6592  131.9257  155.7264 C   0  0  0  0  0  0  0  0  0  0  0  0
  150.2147  130.8723  154.8976 C   0  0  0  0  0  0  0  0  0  0  0  0
  149.1532  130.9717  154.0699 N   0  0  0  0  0  0  0  0  0  0  0  0
  148.4801  132.1462  154.0182 C   0  0  0  0  0  0  0  0  0  0  0  0
  147.3758  132.2349  153.1544 N   0  0  0  0  0  0  0  0  0  0  0  0
  147.5250  133.2807  152.1414 C   0  0  0  0  0  0  0  0  0  0  0  0
  146.2665  133.3751  151.2438 C   0  0  0  0  0  0  0  0  0  0  0  0
  145.9259  132.0972  150.6962 O   0  0  0  0  0  0  0  0  0  0  0  0
  145.7071  131.1626  151.7440 C   0  0  1  0  0  0  0  0  0  0  0  0
  145.3693  129.7343  151.3257 C   0  0  0  0  0  0  0  0  0  0  0  0
  145.8161  128.8773  152.5298 C   0  0  0  0  0  0  0  0  0  0  0  0
  146.6847  129.7893  153.4213 C   0  0  0  0  0  0  0  0  0  0  0  0
  147.0058  130.9792  152.5147 C   0  0  2  0  0  0  0  0  0  0  0  0
  148.8521  133.2656  154.7985 C   0  0  0  0  0  0  0  0  0  0  0  0
  147.9794  134.7558  154.7167 Cl  0  0  0  0  0  0  0  0  0  0  0  0
  149.9600  133.1517  155.6604 C   0  0  0  0  0  0  0  0  0  0  0  0
  153.5267  130.5983  156.8269 H   0  0  0  0  0  0  0  0  0  0  0  0
  152.5020  130.1799  155.4706 H   0  0  0  0  0  0  0  0  0  0  0  0
  150.7177  129.9163  154.8971 H   0  0  0  0  0  0  0  0  0  0  0  0
  147.7097  134.2395  152.6275 H   0  0  0  0  0  0  0  0  0  0  0  0
  148.3950  133.0658  151.5190 H   0  0  0  0  0  0  0  0  0  0  0  0
  145.4220  133.7654  151.8140 H   0  0  0  0  0  0  0  0  0  0  0  0
  146.4416  134.0750  150.4269 H   0  0  0  0  0  0  0  0  0  0  0  0
  144.9177  131.5275  152.4058 H   0  0  0  0  0  0  0  0  0  0  0  0
  144.3132  129.6091  151.0857 H   0  0  0  0  0  0  0  0  0  0  0  0
  145.9474  129.4589  150.4426 H   0  0  0  0  0  0  0  0  0  0  0  0
  144.9571  128.5069  153.0902 H   0  0  0  0  0  0  0  0  0  0  0  0
  146.3803  128.0092  152.1875 H   0  0  0  0  0  0  0  0  0  0  0  0
  146.1071  130.1179  154.2868 H   0  0  0  0  0  0  0  0  0  0  0  0
  147.5812  129.2881  153.7874 H   0  0  0  0  0  0  0  0  0  0  0  0
  147.7940  130.6874  151.8174 H   0  0  0  0  0  0  0  0  0  0  0  0
  150.2626  134.0003  156.2563 H   0  0  0  0  0  0  0  0  0  0  0  0
  1  2  1  0  0  0  0
  1 20  1  0  0  0  0
  1 21  1  0  0  0  0
  2  3  2  0  0  0  0
  2  4  1  0  0  0  0
  4 19  1  0  0  0  0
  4  5  2  0  0  0  0
  5  6  1  0  0  0  0
  5 22  1  0  0  0  0
  6  7  2  0  0  0  0
  7  8  1  0  0  0  0
  7 17  1  0  0  0  0
  8 16  1  0  0  0  0
  8  9  1  0  0  0  0
  9 10  1  0  0  0  0
  9 23  1  0  0  0  0
  9 24  1  0  0  0  0
 10 11  1  0  0  0  0
 10 25  1  0  0  0  0
 10 26  1  0  0  0  0
 11 12  1  0  0  0  0
 12 16  1  0  0  0  0
 12 13  1  0  0  0  0
 12 27  1  0  0  0  0
 13 14  1  0  0  0  0
 13 28  1  0  0  0  0
 13 29  1  0  0  0  0
 14 15  1  0  0  0  0
 14 30  1  0  0  0  0
 14 31  1  0  0  0  0
 15 16  1  0  0  0  0
 15 32  1  0  0  0  0
 15 33  1  0  0  0  0
 16 34  1  0  0  0  0
 17 18  1  0  0  0  0
 17 19  2  0  0  0  0
 19 35  1  0  0  0  0
M  END
> <s_m_source_file>
AV-unprocessed.smi

> <i_m_source_file_index>
738

> <i_lp_mmshare_version>
43012

> <i_f3d_flags>
0

> <s_epik_input>
W05IMl1DKD1PKWMxW2NIXW5jKGMoQ2wpW2NIXTEpTihbQ0gyXVtDSDJdTzIpW0NASF0oW0NASF0yMylbQ0gyXVtDSDJdW0NIMl0z

> <s_epik_cmdline>
J2VwaWtfcHl0aG9uJywgJy1waCcsICc3LjAnLCAnLXRuJywgJzgnLCAnLW1hJywgJzIwMCcsICctbWV0YWxfYmluZGluZycsICctaW1hZScsICc8aW5maWxlLm1hZT4nLCAnLW9tYWUnLCAnPG91dGZpbGUubWFlPic=

> <r_lp_tautomer_probability>
1

> <r_epik_Ionization_Penalty>
6.75978e-06

> <r_epik_Ionization_Penalty_Charging>
0

> <r_epik_Ionization_Penalty_Neutral>
6.75978e-06

> <r_epik_State_Penalty>
-0

> <r_epik_Charging_Adjusted_Penalty>
0

> <i_epik_Tot_Q>
0

> <i_epik_Tot_abs_Q>
0

> <r_epik_Metal_State_Penalty>
-0

> <b_epik_Metal_Only>
0

> <s_lp_Force_Field>
OPLS_2005

> <r_lp_Energy>
40.6009

> <b_lp_Chiralities_Consistent>
1

> <s_lp_Variant>
AV-unprocessed.smi:738-2

> <Gold.Version>
5.8.1

> <Gold.Id.Protein>
6NUR|6NUR_protein|mol2

> <Gold.PLP.Fitness>
31.7857

> <Gold.PLP.PLP>
-29.1508

> <Gold.PLP.part.hbond>
-1.0000

> <Gold.PLP.part.metal>
0.0000

> <Gold.PLP.part.buried>
-2.8016

> <Gold.PLP.part.nonpolar>
-24.8360

> <Gold.PLP.part.repulsive>
0.3196

> <Gold.PLP.ligand.clash>
0.0000

> <Gold.PLP.ligand.torsion>
0.2066

> <Gold.PLP.Chemscore.Hbond>
1.0000

> <Gold.PLP.Chemscore.CHOScore>
0.0000

> <Gold.PLP.Chemscore.Metal>
0.0000

> <Gold.Chemscore.Hbonds>
donor molecule, donor type, donor heavy atom, donor atom, acceptor molecule, acceptor atom, score
      P1  H  6896  6908       L1     3  1.00

> <Gold.PLP.Chemscore.Internal.Correction>
0.0482

> <Gold.Rescore>
     Score         DG    S(hbond)    S(metal)    S(lipo)     H(rot)  DE(clash)    DE(int)     intcor
     13.08     -14.62       0.93        0.00      73.37       1.00       0.02       1.53       ----

> <Gold.Chemscore.Fitness>
13.0754

> <Gold.Chemscore.DG>
-14.6215

> <Gold.Chemscore.ZeroCoef>
-5.4800

> <Gold.Chemscore.Hbond>
0.9332

> <Gold.Chemscore.Metal>
0.0000

> <Gold.Chemscore.Lipo>
73.3741

> <Gold.Chemscore.Internal_Hbond>
0.0000

> <Gold.Chemscore.DEClash>
0.0174

> <Gold.Chemscore.DEInternal>
1.5286

> <Gold.Chemscore.Rot>
1.0000

> <Gold.Chemscore.Internal.Correction>
   9.000000E+99

> <Gold.Chemscore.Hbonds>
donor molecule, donor type, donor heavy atom, donor atom, acceptor molecule, acceptor atom, score
      P1  H  6896  6908       L1     3  0.95

> <Gold.Chemscore.Hbond.Weighted>
-3.1167

> <Gold.Chemscore.Metal.Weighted>
-0.0000

> <Gold.Chemscore.Lipo.Weighted>
-8.5848

> <Gold.Chemscore.Internal_Hbond.Weighted>
0.0000

> <Gold.Chemscore.DEClash.Weighted>
0.0174

> <Gold.Chemscore.DEInternal.Weighted>
1.5286

> <Gold.Chemscore.Rot.Weighted>
2.5600

> <Gold.Chemscore.Internal.Correction.Weighted>
   9.000000E+99

> <Gold.Protein.RotatedTorsions>
[ 6907 6896 6895 6894 ] final   49.36 input  -60.11 | X-H torsion
[ 7974 7965 7964 7962 ] final  142.66 input  175.53 | X-H torsion
[ 8008 7997 7996 7995 ] final   84.33 input   59.86 | X-H torsion
[ 10167 10162 10161 10158 ] final   16.92 input  -65.29 | X-H torsion
[ 10718 10713 10712 10709 ] final   25.99 input   66.30 | X-H torsion
[ 10763 10752 10751 10750 ] final  -98.86 input  -60.55 | X-H torsion
[ 11005 11000 10999 10996 ] final  -20.01 input  -57.11 | X-H torsion

> <Gold.Protein.ActiveResidues>
 VAL166  LYS551  ARG553  GLY616  TRP617  ASP618  TYR619  PRO620  LYS621  CYS622 
 ASP623  PHE694  ASN695  SER759  ASP760  ASP761  ALA762  ILE779  LEU786  VAL792 
 PHE793  MET794  SER795  GLU796  ALA797  LYS798  CYS799  TRP800  GLU811  SER814 

> <Gold.Protein.RotatedAtoms>
  152.2899  134.7733  160.0379 H   0  0  0  0  0  0  0  0  0  0  0  0  # atno 6907 bound_to 6896
  151.8283  133.3399  159.3613 H   0  0  0  0  0  0  0  0  0  0  0  0  # atno 6908 bound_to 6896
  150.7226  134.5436  159.5804 H   0  0  0  0  0  0  0  0  0  0  0  0  # atno 6909 bound_to 6896
  144.8988  139.5453  143.5763 H   0  0  0  0  0  0  0  0  0  0  0  0  # atno 7974 bound_to 7965
  155.9357  140.3411  155.6285 H   0  0  0  0  0  0  0  0  0  0  0  0  # atno 8008 bound_to 7997
  155.7102  140.0771  157.2392 H   0  0  0  0  0  0  0  0  0  0  0  0  # atno 8009 bound_to 7997
  154.4093  140.1624  156.2275 H   0  0  0  0  0  0  0  0  0  0  0  0  # atno 8010 bound_to 7997
  140.5763  143.9067  150.6752 H   0  0  0  0  0  0  0  0  0  0  0  0  # atno 10167 bound_to 10162
  157.2007  130.6889  149.6187 H   0  0  0  0  0  0  0  0  0  0  0  0  # atno 10718 bound_to 10713
  154.7450  135.4994  153.9188 H   0  0  0  0  0  0  0  0  0  0  0  0  # atno 10763 bound_to 10752
  153.1082  135.6702  153.9556 H   0  0  0  0  0  0  0  0  0  0  0  0  # atno 10764 bound_to 10752
  153.9323  135.3076  155.3424 H   0  0  0  0  0  0  0  0  0  0  0  0  # atno 10765 bound_to 10752
  140.8422  133.7918  155.9873 H   0  0  0  0  0  0  0  0  0  0  0  0  # atno 11005 bound_to 11000
  146.3096  139.7701  142.9029 LP  0  0  0  0  0  0  0  0  0  0  0  0  # atno 17320 bound_to 7965
  145.3653  141.0333  143.3262 LP  0  0  0  0  0  0  0  0  0  0  0  0  # atno 17321 bound_to 7965
  140.2555  143.3562  152.1369 LP  0  0  0  0  0  0  0  0  0  0  0  0  # atno 17342 bound_to 10162
  139.5144  144.6948  151.5662 LP  0  0  0  0  0  0  0  0  0  0  0  0  # atno 17343 bound_to 10162
  155.9701  130.4583  150.5996 LP  0  0  0  0  0  0  0  0  0  0  0  0  # atno 17370 bound_to 10713
  157.3769  131.0775  151.1510 LP  0  0  0  0  0  0  0  0  0  0  0  0  # atno 17371 bound_to 10713
  140.8882  134.2528  157.5108 LP  0  0  0  0  0  0  0  0  0  0  0  0  # atno 17394 bound_to 11000
  139.8703  134.9648  156.4509 LP  0  0  0  0  0  0  0  0  0  0  0  0  # atno 17395 bound_to 11000

$$$$
