AV-unprocessed.smi:1843|AV-procd|sdf|7506|dock8
  -GOLD-   22720 9213D 1   1.00000     0.00000
 Structure written by MMmdl.
 36 38  0  0  0  0  0  0  0  0  2 V2000
  152.3897  140.0696  157.0757 O   0  0  0  0  0  0  0  0  0  0  0  0
  151.5901  140.6985  156.3788 C   0  0  0  0  0  0  0  0  0  0  0  0
  150.9152  140.2237  155.3071 N   0  5  0  0  0  0  0  0  0  0  0  0
  150.8770  138.9023  155.0690 C   0  0  0  0  0  0  0  0  0  0  0  0
  151.9759  138.1934  154.7746 N   0  0  0  0  0  0  0  0  0  0  0  0
  151.7158  136.8463  154.5689 N   0  0  0  0  0  0  0  0  0  0  0  0
  150.4223  136.5537  154.7221 C   0  0  0  0  0  0  0  0  0  0  0  0
  149.8909  135.1695  154.5552 C   0  0  0  0  0  0  0  0  0  0  0  0
  148.4084  134.8752  154.6278 C   0  0  0  0  0  0  0  0  0  0  0  0
  149.3223  134.4122  155.7333 C   0  0  0  0  0  0  0  0  0  0  0  0
  149.4088  137.9280  155.1339 S   0  0  0  0  0  0  0  0  0  0  0  0
  151.3258  141.9835  156.6555 N   0  0  0  0  0  0  0  0  0  0  0  0
  151.9131  142.7715  157.7380 C   0  0  2  0  0  0  0  0  0  0  0  0
  151.8291  142.0012  159.0699 C   0  0  0  0  0  0  0  0  0  0  0  0
  152.4495  142.8104  160.2201 C   0  0  0  0  0  0  0  0  0  0  0  0
  151.7944  144.1950  160.3466 C   0  0  0  0  0  0  0  0  0  0  0  0
  151.8593  144.9730  159.0194 C   0  0  0  0  0  0  0  0  0  0  0  0
  151.2628  144.1732  157.8448 C   0  0  2  0  0  0  0  0  0  0  0  0
  149.8618  144.0678  158.0207 O   0  0  0  0  0  0  0  0  0  0  0  0
  150.4834  134.6159  153.8294 H   0  0  0  0  0  0  0  0  0  0  0  0
  147.7305  135.6957  154.8547 H   0  0  0  0  0  0  0  0  0  0  0  0
  148.0145  134.1195  153.9515 H   0  0  0  0  0  0  0  0  0  0  0  0
  149.5373  133.3476  155.7965 H   0  0  0  0  0  0  0  0  0  0  0  0
  149.2579  134.9332  156.6865 H   0  0  0  0  0  0  0  0  0  0  0  0
  150.6622  142.4562  156.0597 H   0  0  0  0  0  0  0  0  0  0  0  0
  152.9729  142.9080  157.5144 H   0  0  0  0  0  0  0  0  0  0  0  0
  150.7891  141.7710  159.3048 H   0  0  0  0  0  0  0  0  0  0  0  0
  152.3429  141.0435  158.9789 H   0  0  0  0  0  0  0  0  0  0  0  0
  152.3457  142.2630  161.1572 H   0  0  0  0  0  0  0  0  0  0  0  0
  153.5201  142.9275  160.0476 H   0  0  0  0  0  0  0  0  0  0  0  0
  150.7544  144.0789  160.6543 H   0  0  0  0  0  0  0  0  0  0  0  0
  152.2846  144.7670  161.1347 H   0  0  0  0  0  0  0  0  0  0  0  0
  151.3492  145.9315  159.1218 H   0  0  0  0  0  0  0  0  0  0  0  0
  152.9013  145.2065  158.7970 H   0  0  0  0  0  0  0  0  0  0  0  0
  151.4312  144.7280  156.9211 H   0  0  0  0  0  0  0  0  0  0  0  0
  149.4567  144.0821  157.1664 H   0  0  0  0  0  0  0  0  0  0  0  0
  1  2  2  0  0  0  0
  2  3  1  0  0  0  0
  2 12  1  0  0  0  0
  3  4  1  0  0  0  0
  4 11  1  0  0  0  0
  4  5  2  0  0  0  0
  5  6  1  0  0  0  0
  6  7  2  0  0  0  0
  7  8  1  0  0  0  0
  7 11  1  0  0  0  0
  8 10  1  0  0  0  0
  8  9  1  0  0  0  0
  8 20  1  0  0  0  0
  9 10  1  0  0  0  0
  9 21  1  0  0  0  0
  9 22  1  0  0  0  0
 10 23  1  0  0  0  0
 10 24  1  0  0  0  0
 12 13  1  0  0  0  0
 12 25  1  0  0  0  0
 13 18  1  0  0  0  0
 13 14  1  0  0  0  0
 13 26  1  0  0  0  0
 14 15  1  0  0  0  0
 14 27  1  0  0  0  0
 14 28  1  0  0  0  0
 15 16  1  0  0  0  0
 15 29  1  0  0  0  0
 15 30  1  0  0  0  0
 16 17  1  0  0  0  0
 16 31  1  0  0  0  0
 16 32  1  0  0  0  0
 17 18  1  0  0  0  0
 17 33  1  0  0  0  0
 17 34  1  0  0  0  0
 18 19  1  0  0  0  0
 18 35  1  0  0  0  0
 19 36  1  0  0  0  0
M  CHG  1   3  -1
M  END
> <s_m_source_file>
AV-unprocessed.smi

> <i_m_source_file_index>
1843

> <i_lp_mmshare_version>
43012

> <i_f3d_flags>
0

> <s_epik_input>
W09IXVtDQEBIXTFbQ0gyXVtDSDJdW0NIMl1bQ0gyXVtDQEhdMVtOSF1DKD1PKVtOSF1jMm5uYyhzMilbQ0hdM1tDSDJdW0NIMl0z

> <s_epik_cmdline>
J2VwaWtfcHl0aG9uJywgJy1waCcsICc3LjAnLCAnLXRuJywgJzgnLCAnLW1hJywgJzIwMCcsICctbWV0YWxfYmluZGluZycsICctaW1hZScsICc8aW5maWxlLm1hZT4nLCAnLW9tYWUnLCAnPG91dGZpbGUubWFlPic=

> <r_lp_tautomer_probability>
1

> <r_epik_Ionization_Penalty>
4.7996

> <r_epik_Ionization_Penalty_Charging>
4.64516

> <r_epik_Ionization_Penalty_Neutral>
0.154442

> <r_epik_State_Penalty>
4.64493

> <r_epik_Charging_Adjusted_Penalty>
9.29009

> <i_epik_Tot_Q>
-1

> <i_epik_Tot_abs_Q>
1

> <r_epik_Metal_State_Penalty>
0.896144

> <b_epik_Metal_Only>
1

> <s_lp_Force_Field>
OPLS_2005

> <r_lp_Energy>
9.09011

> <b_lp_Chiralities_Consistent>
1

> <s_lp_Variant>
AV-unprocessed.smi:1843-7

> <Gold.Version>
5.8.1

> <Gold.Id.Protein>
6NUR|6NUR_protein|mol2

> <Gold.PLP.Fitness>
44.5613

> <Gold.PLP.PLP>
-35.0642

> <Gold.PLP.part.hbond>
-4.6539

> <Gold.PLP.part.metal>
0.0000

> <Gold.PLP.part.buried>
-4.5632

> <Gold.PLP.part.nonpolar>
-26.6789

> <Gold.PLP.part.repulsive>
0.3217

> <Gold.PLP.ligand.clash>
0.0000

> <Gold.PLP.ligand.torsion>
0.7886

> <Gold.PLP.Chemscore.Hbond>
3.6338

> <Gold.PLP.Chemscore.CHOScore>
0.0000

> <Gold.PLP.Chemscore.Metal>
0.0000

> <Gold.Chemscore.Hbonds>
donor molecule, donor type, donor heavy atom, donor atom, acceptor molecule, acceptor atom, score
      L1  H    19    36       P1  8028  1.00
      P1  H  7989  7998       L1     3  0.96
      P1  H  7997  8008       L1     1  0.93
      P1  H 10752 10765       L1     6  1.00

> <Gold.PLP.Chemscore.Internal.Correction>
0.1731

> <Gold.Rescore>
     Score         DG    S(hbond)    S(metal)    S(lipo)     H(rot)  DE(clash)    DE(int)     intcor
     16.70     -21.29       2.88        0.00      90.36       1.72       1.53       3.06       ----

> <Gold.Chemscore.Fitness>
16.7005

> <Gold.Chemscore.DG>
-21.2865

> <Gold.Chemscore.ZeroCoef>
-5.4800

> <Gold.Chemscore.Hbond>
2.8826

> <Gold.Chemscore.Metal>
0.0000

> <Gold.Chemscore.Lipo>
90.3557

> <Gold.Chemscore.Internal_Hbond>
0.0000

> <Gold.Chemscore.DEClash>
1.5286

> <Gold.Chemscore.DEInternal>
3.0574

> <Gold.Chemscore.Rot>
1.7160

> <Gold.Chemscore.Internal.Correction>
   9.000000E+99

> <Gold.Chemscore.Hbonds>
donor molecule, donor type, donor heavy atom, donor atom, acceptor molecule, acceptor atom, score
      L1  H    19    36       P1  8028  0.39
      P1  H  7989  7998       L1     3  0.20
      P1  H  7997  8008       L1     1  0.84
      P1  H 10752 10765       L1     6  0.98

> <Gold.Chemscore.Hbond.Weighted>
-9.6279

> <Gold.Chemscore.Metal.Weighted>
-0.0000

> <Gold.Chemscore.Lipo.Weighted>
-10.5716

> <Gold.Chemscore.Internal_Hbond.Weighted>
0.0000

> <Gold.Chemscore.DEClash.Weighted>
1.5286

> <Gold.Chemscore.DEInternal.Weighted>
3.0574

> <Gold.Chemscore.Rot.Weighted>
4.3930

> <Gold.Chemscore.Internal.Correction.Weighted>
   9.000000E+99

> <Gold.Protein.RotatedTorsions>
[ 6907 6896 6895 6894 ] final  145.78 input  -60.11 | X-H torsion
[ 7974 7965 7964 7962 ] final -169.66 input  175.53 | X-H torsion
[ 8008 7997 7996 7995 ] final  -70.12 input   59.86 | X-H torsion
[ 10167 10162 10161 10158 ] final   10.42 input  -65.29 | X-H torsion
[ 10718 10713 10712 10709 ] final   56.14 input   66.30 | X-H torsion
[ 10763 10752 10751 10750 ] final  176.87 input  -60.55 | X-H torsion
[ 11005 11000 10999 10996 ] final  135.78 input  -57.11 | X-H torsion

> <Gold.Protein.ActiveResidues>
 VAL166  LYS551  ARG553  GLY616  TRP617  ASP618  TYR619  PRO620  LYS621  CYS622 
 ASP623  PHE694  ASN695  SER759  ASP760  ASP761  ALA762  ILE779  LEU786  VAL792 
 PHE793  MET794  SER795  GLU796  ALA797  LYS798  CYS799  TRP800  GLU811  SER814 

> <Gold.Protein.RotatedAtoms>
  152.1765  133.4678  159.4935 H   0  0  0  0  0  0  0  0  0  0  0  0  # atno 6907 bound_to 6896
  150.6927  134.1887  159.4286 H   0  0  0  0  0  0  0  0  0  0  0  0  # atno 6908 bound_to 6896
  151.9797  135.0034  160.0607 H   0  0  0  0  0  0  0  0  0  0  0  0  # atno 6909 bound_to 6896
  144.7182  140.2188  143.6318 H   0  0  0  0  0  0  0  0  0  0  0  0  # atno 7974 bound_to 7965
  154.4988  140.0840  156.7754 H   0  0  0  0  0  0  0  0  0  0  0  0  # atno 8008 bound_to 7997
  155.4051  140.3439  155.4241 H   0  0  0  0  0  0  0  0  0  0  0  0  # atno 8009 bound_to 7997
  156.1430  140.1535  156.8879 H   0  0  0  0  0  0  0  0  0  0  0  0  # atno 8010 bound_to 7997
  140.6195  143.8235  150.7158 H   0  0  0  0  0  0  0  0  0  0  0  0  # atno 10167 bound_to 10162
  157.5405  130.8694  149.8815 H   0  0  0  0  0  0  0  0  0  0  0  0  # atno 10718 bound_to 10713
  154.4869  135.2777  155.1527 H   0  0  0  0  0  0  0  0  0  0  0  0  # atno 10763 bound_to 10752
  154.3215  135.6208  153.5513 H   0  0  0  0  0  0  0  0  0  0  0  0  # atno 10764 bound_to 10752
  152.9882  135.5744  154.5281 H   0  0  0  0  0  0  0  0  0  0  0  0  # atno 10765 bound_to 10752
  140.0002  134.9481  157.0055 H   0  0  0  0  0  0  0  0  0  0  0  0  # atno 11005 bound_to 11000
  145.8521  139.2180  143.1766 LP  0  0  0  0  0  0  0  0  0  0  0  0  # atno 17320 bound_to 7965
  146.0251  140.8311  142.9904 LP  0  0  0  0  0  0  0  0  0  0  0  0  # atno 17321 bound_to 7965
  140.1822  143.4105  152.1924 LP  0  0  0  0  0  0  0  0  0  0  0  0  # atno 17342 bound_to 10162
  139.5426  144.7270  151.4683 LP  0  0  0  0  0  0  0  0  0  0  0  0  # atno 17343 bound_to 10162
  156.0493  130.3721  150.1240 LP  0  0  0  0  0  0  0  0  0  0  0  0  # atno 17370 bound_to 10713
  156.9420  130.9747  151.3514 LP  0  0  0  0  0  0  0  0  0  0  0  0  # atno 17371 bound_to 10713
  140.4742  134.1355  155.7207 LP  0  0  0  0  0  0  0  0  0  0  0  0  # atno 17394 bound_to 11000
  141.1636  133.8746  157.1779 LP  0  0  0  0  0  0  0  0  0  0  0  0  # atno 17395 bound_to 11000

$$$$
