AV-unprocessed.smi:2855|AV-procd|sdf|10978|dock2
  -GOLD-   2272015433D 1   1.00000     0.00000
 Structure written by MMmdl.
 47 48  0  0  0  0  0  0  0  0  1 V2000
  152.2265  143.9429  159.5117 C   0  0  0  0  0  0  0  0  0  0  0  0
  152.0899  142.9211  158.3740 C   0  0  1  0  0  0  0  0  0  0  0  0
  152.6113  141.5328  158.7973 C   0  0  0  0  0  0  0  0  0  0  0  0
  152.4090  140.4832  157.6880 C   0  0  0  0  0  0  0  0  0  0  0  0
  150.9231  140.3592  157.2649 C   0  0  1  0  0  0  0  0  0  0  0  0
  150.0164  139.7148  158.3729 C   0  0  0  0  0  0  0  0  0  0  0  0
  150.5541  138.3512  158.8527 C   0  0  0  0  0  0  0  0  0  0  0  0
  148.5463  139.5230  157.9500 C   0  0  0  0  0  0  0  0  0  0  0  0
  150.5063  141.7724  156.7525 C   0  0  1  0  0  0  0  0  0  0  0  0
  149.1888  141.8304  156.1265 N   0  0  0  0  0  0  0  0  0  0  0  0
  148.8800  141.3493  154.9121 C   0  0  0  0  0  0  0  0  0  0  0  0
  149.7035  140.8078  154.1729 O   0  0  0  0  0  0  0  0  0  0  0  0
  147.4098  141.4930  154.4926 C   0  0  0  0  0  0  0  0  0  0  0  0
  146.7124  140.2051  154.3633 N   0  0  0  0  0  0  0  0  0  0  0  0
  147.0066  139.3571  153.3048 C   0  0  0  0  0  0  0  0  0  0  0  0
  146.3917  138.1665  153.1099 C   0  0  0  0  0  0  0  0  0  0  0  0
  145.3586  137.7089  154.0326 C   0  0  0  0  0  0  0  0  0  0  0  0
  144.7446  136.6482  153.9406 O   0  0  0  0  0  0  0  0  0  0  0  0
  145.0900  138.5901  155.0833 N   0  0  0  0  0  0  0  0  0  0  0  0
  145.7189  139.8191  155.2896 C   0  0  0  0  0  0  0  0  0  0  0  0
  145.4009  140.5228  156.2474 O   0  0  0  0  0  0  0  0  0  0  0  0
  150.6385  142.8365  157.8588 C   0  0  0  0  0  0  0  0  0  0  0  0
  144.3792  138.3171  155.7464 H   0  0  0  0  0  0  0  0  0  0  0  0
  151.6339  143.6512  160.3793 H   0  0  0  0  0  0  0  0  0  0  0  0
  151.8904  144.9306  159.1954 H   0  0  0  0  0  0  0  0  0  0  0  0
  153.2644  144.0348  159.8333 H   0  0  0  0  0  0  0  0  0  0  0  0
  152.7124  143.2681  157.5478 H   0  0  0  0  0  0  0  0  0  0  0  0
  153.6718  141.5991  159.0426 H   0  0  0  0  0  0  0  0  0  0  0  0
  152.1117  141.2083  159.7104 H   0  0  0  0  0  0  0  0  0  0  0  0
  153.0017  140.7763  156.8204 H   0  0  0  0  0  0  0  0  0  0  0  0
  152.8260  139.5242  157.9905 H   0  0  0  0  0  0  0  0  0  0  0  0
  150.9027  139.6793  156.4120 H   0  0  0  0  0  0  0  0  0  0  0  0
  150.0078  140.3655  159.2465 H   0  0  0  0  0  0  0  0  0  0  0  0
  150.7016  137.6661  158.0172 H   0  0  0  0  0  0  0  0  0  0  0  0
  149.8648  137.8756  159.5510 H   0  0  0  0  0  0  0  0  0  0  0  0
  151.4996  138.4485  159.3847 H   0  0  0  0  0  0  0  0  0  0  0  0
  148.4700  139.0282  156.9813 H   0  0  0  0  0  0  0  0  0  0  0  0
  148.0106  140.4689  157.8974 H   0  0  0  0  0  0  0  0  0  0  0  0
  148.0000  138.9154  158.6719 H   0  0  0  0  0  0  0  0  0  0  0  0
  151.2109  142.0589  155.9686 H   0  0  0  0  0  0  0  0  0  0  0  0
  148.4501  142.2582  156.6658 H   0  0  0  0  0  0  0  0  0  0  0  0
  146.9012  142.1145  155.2315 H   0  0  0  0  0  0  0  0  0  0  0  0
  147.3575  142.0573  153.5594 H   0  0  0  0  0  0  0  0  0  0  0  0
  147.7619  139.6585  152.5929 H   0  0  0  0  0  0  0  0  0  0  0  0
  146.6639  137.5504  152.2650 H   0  0  0  0  0  0  0  0  0  0  0  0
  149.9559  142.6175  158.6799 H   0  0  0  0  0  0  0  0  0  0  0  0
  150.3394  143.8101  157.4686 H   0  0  0  0  0  0  0  0  0  0  0  0
  1  2  1  0  0  0  0
  1 24  1  0  0  0  0
  1 25  1  0  0  0  0
  1 26  1  0  0  0  0
  2 22  1  0  0  0  0
  2  3  1  0  0  0  0
  2 27  1  0  0  0  0
  3  4  1  0  0  0  0
  3 28  1  0  0  0  0
  3 29  1  0  0  0  0
  4  5  1  0  0  0  0
  4 30  1  0  0  0  0
  4 31  1  0  0  0  0
  5  6  1  0  0  0  0
  5  9  1  0  0  0  0
  5 32  1  0  0  0  0
  6  7  1  0  0  0  0
  6  8  1  0  0  0  0
  6 33  1  0  0  0  0
  7 34  1  0  0  0  0
  7 35  1  0  0  0  0
  7 36  1  0  0  0  0
  8 37  1  0  0  0  0
  8 38  1  0  0  0  0
  8 39  1  0  0  0  0
  9 10  1  0  0  0  0
  9 22  1  0  0  0  0
  9 40  1  0  0  0  0
 10 11  1  0  0  0  0
 10 41  1  0  0  0  0
 11 12  2  0  0  0  0
 11 13  1  0  0  0  0
 13 14  1  0  0  0  0
 13 42  1  0  0  0  0
 13 43  1  0  0  0  0
 14 20  1  0  0  0  0
 14 15  1  0  0  0  0
 15 16  2  0  0  0  0
 15 44  1  0  0  0  0
 16 17  1  0  0  0  0
 16 45  1  0  0  0  0
 17 18  2  0  0  0  0
 17 19  1  0  0  0  0
 19 23  1  0  0  0  0
 19 20  1  0  0  0  0
 20 21  2  0  0  0  0
 22 46  1  0  0  0  0
 22 47  1  0  0  0  0
M  END
> <s_m_source_file>
AV-unprocessed.smi

> <i_m_source_file_index>
2855

> <i_lp_mmshare_version>
43012

> <i_f3d_flags>
0

> <s_epik_input>
W0NIM11bQ0BASF0xW0NIMl1bQ0gyXVtDQEBIXShbQ0hdKFtDSDNdKVtDSDNdKVtDQEhdKFtDSDJdMSlbTkhdQyg9TylbQ0gyXW4yW2NIXVtjSF1jKD1PKVtuSF1jMj1P

> <s_epik_cmdline>
J2VwaWtfcHl0aG9uJywgJy1waCcsICc3LjAnLCAnLXRuJywgJzgnLCAnLW1hJywgJzIwMCcsICctbWV0YWxfYmluZGluZycsICctaW1hZScsICc8aW5maWxlLm1hZT4nLCAnLW9tYWUnLCAnPG91dGZpbGUubWFlPic=

> <r_lp_tautomer_probability>
0.999537

> <r_epik_Ionization_Penalty>
0.00306256

> <r_epik_Ionization_Penalty_Charging>
0.00306254

> <r_epik_Ionization_Penalty_Neutral>
2.0223e-08

> <r_epik_State_Penalty>
0.0021533

> <r_epik_Charging_Adjusted_Penalty>
0.00521583

> <i_epik_Tot_Q>
0

> <i_epik_Tot_abs_Q>
0

> <r_epik_Metal_State_Penalty>
0.362116

> <b_epik_Metal_Only>
0

> <s_lp_Force_Field>
OPLS_2005

> <r_lp_Energy>
18.9466

> <b_lp_Chiralities_Consistent>
1

> <s_lp_Variant>
AV-unprocessed.smi:2855-2

> <Gold.Version>
5.8.1

> <Gold.Id.Protein>
6NUR|6NUR_protein|mol2

> <Gold.PLP.Fitness>
38.0627

> <Gold.PLP.PLP>
-32.7963

> <Gold.PLP.part.hbond>
-3.8430

> <Gold.PLP.part.metal>
0.0000

> <Gold.PLP.part.buried>
-1.2286

> <Gold.PLP.part.nonpolar>
-29.2685

> <Gold.PLP.part.repulsive>
1.2030

> <Gold.PLP.ligand.clash>
0.0000

> <Gold.PLP.ligand.torsion>
0.3892

> <Gold.PLP.Chemscore.Hbond>
0.9888

> <Gold.PLP.Chemscore.CHOScore>
1.0000

> <Gold.PLP.Chemscore.Metal>
0.0000

> <Gold.Chemscore.Hbonds>
donor molecule, donor type, donor heavy atom, donor atom, acceptor molecule, acceptor atom, score
      P1  H  7989  7998       L1    12  0.58
      L1  C    15    44       P1  7957  1.00

> <Gold.PLP.Chemscore.Internal.Correction>
0.0784

> <Gold.Rescore>
     Score         DG    S(hbond)    S(metal)    S(lipo)     H(rot)  DE(clash)    DE(int)     intcor
     12.41     -12.89       0.78        0.00      81.49       1.85       0.08       0.41       ----

> <Gold.Chemscore.Fitness>
12.4072

> <Gold.Chemscore.DG>
-12.8891

> <Gold.Chemscore.ZeroCoef>
-5.4800

> <Gold.Chemscore.Hbond>
0.7848

> <Gold.Chemscore.Metal>
0.0000

> <Gold.Chemscore.Lipo>
81.4873

> <Gold.Chemscore.Internal_Hbond>
0.0000

> <Gold.Chemscore.DEClash>
0.0760

> <Gold.Chemscore.DEInternal>
0.4060

> <Gold.Chemscore.Rot>
1.8539

> <Gold.Chemscore.Internal.Correction>
   9.000000E+99

> <Gold.Chemscore.Hbonds>
donor molecule, donor type, donor heavy atom, donor atom, acceptor molecule, acceptor atom, score
      P1  H  7989  7998       L1    12  0.54
      P1  H  8011  8017       L1    12  0.01

> <Gold.Chemscore.Hbond.Weighted>
-2.6211

> <Gold.Chemscore.Metal.Weighted>
-0.0000

> <Gold.Chemscore.Lipo.Weighted>
-9.5340

> <Gold.Chemscore.Internal_Hbond.Weighted>
0.0000

> <Gold.Chemscore.DEClash.Weighted>
0.0760

> <Gold.Chemscore.DEInternal.Weighted>
0.4060

> <Gold.Chemscore.Rot.Weighted>
4.7460

> <Gold.Chemscore.Internal.Correction.Weighted>
   9.000000E+99

> <Gold.Protein.RotatedTorsions>
[ 6907 6896 6895 6894 ] final  -58.19 input  -60.11 | X-H torsion
[ 7974 7965 7964 7962 ] final -102.03 input  175.53 | X-H torsion
[ 8008 7997 7996 7995 ] final  -64.49 input   59.86 | X-H torsion
[ 10167 10162 10161 10158 ] final -135.15 input  -65.29 | X-H torsion
[ 10718 10713 10712 10709 ] final -163.24 input   66.30 | X-H torsion
[ 10763 10752 10751 10750 ] final   19.89 input  -60.55 | X-H torsion
[ 11005 11000 10999 10996 ] final   85.54 input  -57.11 | X-H torsion

> <Gold.Protein.ActiveResidues>
 VAL166  LYS551  ARG553  GLY616  TRP617  ASP618  TYR619  PRO620  LYS621  CYS622 
 ASP623  PHE694  ASN695  SER759  ASP760  ASP761  ALA762  ILE779  LEU786  VAL792 
 PHE793  MET794  SER795  GLU796  ALA797  LYS798  CYS799  TRP800  GLU811  SER814 

> <Gold.Protein.RotatedAtoms>
  150.8026  134.7130  159.6614 H   0  0  0  0  0  0  0  0  0  0  0  0  # atno 6907 bound_to 6896
  152.4144  134.6064  160.0024 H   0  0  0  0  0  0  0  0  0  0  0  0  # atno 6908 bound_to 6896
  151.6298  133.3296  159.3142 H   0  0  0  0  0  0  0  0  0  0  0  0  # atno 6909 bound_to 6896
  145.2739  140.9307  143.2970 H   0  0  0  0  0  0  0  0  0  0  0  0  # atno 7974 bound_to 7965
  154.4615  140.0952  156.6906 H   0  0  0  0  0  0  0  0  0  0  0  0  # atno 8008 bound_to 7997
  155.4980  140.3473  155.4348 H   0  0  0  0  0  0  0  0  0  0  0  0  # atno 8009 bound_to 7997
  156.0879  140.1389  156.9618 H   0  0  0  0  0  0  0  0  0  0  0  0  # atno 8010 bound_to 7997
  139.8808  143.6841  152.2627 H   0  0  0  0  0  0  0  0  0  0  0  0  # atno 10167 bound_to 10162
  156.6218  130.8893  151.2959 H   0  0  0  0  0  0  0  0  0  0  0  0  # atno 10718 bound_to 10713
  153.1123  135.6700  153.9478 H   0  0  0  0  0  0  0  0  0  0  0  0  # atno 10763 bound_to 10752
  153.9017  135.3035  155.3450 H   0  0  0  0  0  0  0  0  0  0  0  0  # atno 10764 bound_to 10752
  154.7542  135.5020  153.9422 H   0  0  0  0  0  0  0  0  0  0  0  0  # atno 10765 bound_to 10752
  139.8968  134.8294  156.2597 H   0  0  0  0  0  0  0  0  0  0  0  0  # atno 11005 bound_to 11000
  144.9311  139.4297  143.6494 LP  0  0  0  0  0  0  0  0  0  0  0  0  # atno 17320 bound_to 7965
  146.3238  139.8222  142.8924 LP  0  0  0  0  0  0  0  0  0  0  0  0  # atno 17321 bound_to 7965
  139.7198  144.7605  151.0974 LP  0  0  0  0  0  0  0  0  0  0  0  0  # atno 17342 bound_to 10162
  140.7745  143.5223  150.9522 LP  0  0  0  0  0  0  0  0  0  0  0  0  # atno 17343 bound_to 10162
  157.7225  130.9578  150.1498 LP  0  0  0  0  0  0  0  0  0  0  0  0  # atno 17370 bound_to 10713
  156.2305  130.3681  149.8450 LP  0  0  0  0  0  0  0  0  0  0  0  0  # atno 17371 bound_to 10713
  141.0171  133.7062  156.1206 LP  0  0  0  0  0  0  0  0  0  0  0  0  # atno 17394 bound_to 11000
  140.7287  134.4279  157.5568 LP  0  0  0  0  0  0  0  0  0  0  0  0  # atno 17395 bound_to 11000

$$$$
