AV-unprocessed.smi:2937|AV-procd|sdf|11259|dock7
  -GOLD-   2272016153D 1   1.00000     0.00000
 Structure written by MMmdl.
 33 34  0  0  0  0  0  0  0  0  1 V2000
  153.4629  142.3507  162.0968 C   0  0  0  0  0  0  0  0  0  0  0  0
  153.5214  141.6283  160.8722 O   0  0  0  0  0  0  0  0  0  0  0  0
  152.8210  142.1180  159.7874 C   0  0  0  0  0  0  0  0  0  0  0  0
  152.6346  143.4569  159.6798 N   0  0  0  0  0  0  0  0  0  0  0  0
  151.9499  143.8885  158.6226 C   0  0  0  0  0  0  0  0  0  0  0  0
  151.7614  145.2453  158.5239 N   0  0  0  0  0  0  0  0  0  0  0  0
  151.4291  143.1420  157.6502 N   0  0  0  0  0  0  0  0  0  0  0  0
  151.6043  141.8001  157.7288 C   0  0  0  0  0  0  0  0  0  0  0  0
  151.0830  141.0073  156.6892 N   0  0  0  0  0  0  0  0  0  0  0  0
  152.0885  140.1769  156.0378 C   0  0  0  0  0  0  0  0  0  0  0  0
  151.4081  139.1736  155.0906 C   0  0  0  0  0  0  0  0  0  0  0  0
  150.5879  139.8725  154.1579 O   0  0  0  0  0  0  0  0  0  0  0  0
  149.5616  140.6218  154.8025 C   0  0  0  0  0  0  0  0  0  0  0  0
  150.1966  141.6668  155.7353 C   0  0  0  0  0  0  0  0  0  0  0  0
  152.3121  141.2218  158.8174 C   0  0  0  0  0  0  0  0  0  0  0  0
  152.5110  139.7199  158.9776 C   0  0  0  0  0  0  0  0  0  0  0  0
  153.8696  139.3419  158.9139 O   0  0  0  0  0  0  0  0  0  0  0  0
  154.0657  141.8383  162.8465 H   0  0  0  0  0  0  0  0  0  0  0  0
  152.4424  142.4109  162.4775 H   0  0  0  0  0  0  0  0  0  0  0  0
  153.8631  143.3592  161.9836 H   0  0  0  0  0  0  0  0  0  0  0  0
  152.1324  145.8651  159.2292 H   0  0  0  0  0  0  0  0  0  0  0  0
  151.2393  145.6338  157.7520 H   0  0  0  0  0  0  0  0  0  0  0  0
  152.7714  140.8166  155.4771 H   0  0  0  0  0  0  0  0  0  0  0  0
  152.6878  139.6427  156.7744 H   0  0  0  0  0  0  0  0  0  0  0  0
  152.1595  138.6026  154.5452 H   0  0  0  0  0  0  0  0  0  0  0  0
  150.8076  138.4562  155.6523 H   0  0  0  0  0  0  0  0  0  0  0  0
  148.9521  141.1146  154.0450 H   0  0  0  0  0  0  0  0  0  0  0  0
  148.9021  139.9530  155.3579 H   0  0  0  0  0  0  0  0  0  0  0  0
  149.4192  142.2160  156.2682 H   0  0  0  0  0  0  0  0  0  0  0  0
  150.7608  142.3901  155.1446 H   0  0  0  0  0  0  0  0  0  0  0  0
  152.1084  139.4060  159.9412 H   0  0  0  0  0  0  0  0  0  0  0  0
  151.9526  139.1643  158.2247 H   0  0  0  0  0  0  0  0  0  0  0  0
  154.1637  139.1302  159.7867 H   0  0  0  0  0  0  0  0  0  0  0  0
  1  2  1  0  0  0  0
  1 18  1  0  0  0  0
  1 19  1  0  0  0  0
  1 20  1  0  0  0  0
  2  3  1  0  0  0  0
  3 15  1  0  0  0  0
  3  4  2  0  0  0  0
  4  5  1  0  0  0  0
  5  6  1  0  0  0  0
  5  7  2  0  0  0  0
  6 21  1  0  0  0  0
  6 22  1  0  0  0  0
  7  8  1  0  0  0  0
  8  9  1  0  0  0  0
  8 15  2  0  0  0  0
  9 14  1  0  0  0  0
  9 10  1  0  0  0  0
 10 11  1  0  0  0  0
 10 23  1  0  0  0  0
 10 24  1  0  0  0  0
 11 12  1  0  0  0  0
 11 25  1  0  0  0  0
 11 26  1  0  0  0  0
 12 13  1  0  0  0  0
 13 14  1  0  0  0  0
 13 27  1  0  0  0  0
 13 28  1  0  0  0  0
 14 29  1  0  0  0  0
 14 30  1  0  0  0  0
 15 16  1  0  0  0  0
 16 17  1  0  0  0  0
 16 31  1  0  0  0  0
 16 32  1  0  0  0  0
 17 33  1  0  0  0  0
M  END
> <s_m_source_file>
AV-unprocessed.smi

> <i_m_source_file_index>
2937

> <i_lp_mmshare_version>
43012

> <i_f3d_flags>
0

> <s_epik_input>
W0NIM11PYzFuYyhbTkgyXSluYyhjMVtDSDJdW09IXSlOMltDSDJdW0NIMl1PW0NIMl1bQ0gyXTI=

> <s_epik_cmdline>
J2VwaWtfcHl0aG9uJywgJy1waCcsICc3LjAnLCAnLXRuJywgJzgnLCAnLW1hJywgJzIwMCcsICctbWV0YWxfYmluZGluZycsICctaW1hZScsICc8aW5maWxlLm1hZT4nLCAnLW9tYWUnLCAnPG91dGZpbGUubWFlPic=

> <r_lp_tautomer_probability>
1

> <r_epik_Ionization_Penalty>
0.000679252

> <r_epik_Ionization_Penalty_Charging>
0

> <r_epik_Ionization_Penalty_Neutral>
0.000679252

> <r_epik_State_Penalty>
0.00040271

> <r_epik_Charging_Adjusted_Penalty>
0.00040271

> <i_epik_Tot_Q>
0

> <i_epik_Tot_abs_Q>
0

> <r_epik_Metal_State_Penalty>
-0

> <b_epik_Metal_Only>
0

> <s_lp_Force_Field>
OPLS_2005

> <r_lp_Energy>
14.7013

> <b_lp_Chiralities_Consistent>
1

> <s_lp_Variant>
AV-unprocessed.smi:2937-1

> <Gold.Version>
5.8.1

> <Gold.Id.Protein>
6NUR|6NUR_protein|mol2

> <Gold.PLP.Fitness>
38.2335

> <Gold.PLP.PLP>
-33.0538

> <Gold.PLP.part.hbond>
-2.0000

> <Gold.PLP.part.metal>
0.0000

> <Gold.PLP.part.buried>
-5.3192

> <Gold.PLP.part.nonpolar>
-25.3533

> <Gold.PLP.part.repulsive>
0.6364

> <Gold.PLP.ligand.clash>
0.0000

> <Gold.PLP.ligand.torsion>
0.5006

> <Gold.PLP.Chemscore.Hbond>
2.0000

> <Gold.PLP.Chemscore.CHOScore>
0.0000

> <Gold.PLP.Chemscore.Metal>
0.0000

> <Gold.Chemscore.Hbonds>
donor molecule, donor type, donor heavy atom, donor atom, acceptor molecule, acceptor atom, score
      P1  H  7989  7998       L1    12  1.00
      P1  H  7997  8010       L1    17  0.93

> <Gold.PLP.Chemscore.Internal.Correction>
0.1809

> <Gold.Rescore>
     Score         DG    S(hbond)    S(metal)    S(lipo)     H(rot)  DE(clash)    DE(int)     intcor
      8.93      -9.91       1.21        0.00      53.99       2.31       0.33       0.66       ----

> <Gold.Chemscore.Fitness>
8.9271

> <Gold.Chemscore.DG>
-9.9130

> <Gold.Chemscore.ZeroCoef>
-5.4800

> <Gold.Chemscore.Hbond>
1.2078

> <Gold.Chemscore.Metal>
0.0000

> <Gold.Chemscore.Lipo>
53.9938

> <Gold.Chemscore.Internal_Hbond>
0.0000

> <Gold.Chemscore.DEClash>
0.3295

> <Gold.Chemscore.DEInternal>
0.6565

> <Gold.Chemscore.Rot>
2.3118

> <Gold.Chemscore.Internal.Correction>
   9.000000E+99

> <Gold.Chemscore.Hbonds>
donor molecule, donor type, donor heavy atom, donor atom, acceptor molecule, acceptor atom, score
      P1  H  7989  7998       L1    12  0.25
      P1  H  7997  8010       L1    17  0.80

> <Gold.Chemscore.Hbond.Weighted>
-4.0339

> <Gold.Chemscore.Metal.Weighted>
-0.0000

> <Gold.Chemscore.Lipo.Weighted>
-6.3173

> <Gold.Chemscore.Internal_Hbond.Weighted>
0.0000

> <Gold.Chemscore.DEClash.Weighted>
0.3295

> <Gold.Chemscore.DEInternal.Weighted>
0.6565

> <Gold.Chemscore.Rot.Weighted>
5.9181

> <Gold.Chemscore.Internal.Correction.Weighted>
   9.000000E+99

> <Gold.Protein.RotatedTorsions>
[ 6907 6896 6895 6894 ] final  -55.66 input  -60.11 | X-H torsion
[ 7974 7965 7964 7962 ] final   93.46 input  175.53 | X-H torsion
[ 8008 7997 7996 7995 ] final   13.32 input   59.86 | X-H torsion
[ 10167 10162 10161 10158 ] final -177.53 input  -65.29 | X-H torsion
[ 10718 10713 10712 10709 ] final -156.11 input   66.30 | X-H torsion
[ 10763 10752 10751 10750 ] final  109.95 input  -60.55 | X-H torsion
[ 11005 11000 10999 10996 ] final   43.01 input  -57.11 | X-H torsion

> <Gold.Protein.ActiveResidues>
 VAL166  LYS551  ARG553  GLY616  TRP617  ASP618  TYR619  PRO620  LYS621  CYS622 
 ASP623  PHE694  ASN695  SER759  ASP760  ASP761  ALA762  ILE779  LEU786  VAL792 
 PHE793  MET794  SER795  GLU796  ALA797  LYS798  CYS799  TRP800  GLU811  SER814 

> <Gold.Protein.RotatedAtoms>
  150.8233  134.7451  159.6790 H   0  0  0  0  0  0  0  0  0  0  0  0  # atno 6907 bound_to 6896
  152.4346  134.5708  159.9930 H   0  0  0  0  0  0  0  0  0  0  0  0  # atno 6908 bound_to 6896
  151.5886  133.3331  159.3059 H   0  0  0  0  0  0  0  0  0  0  0  0  # atno 6909 bound_to 6896
  145.4787  139.2279  143.2895 H   0  0  0  0  0  0  0  0  0  0  0  0  # atno 7974 bound_to 7965
  154.8328  140.2902  155.5711 H   0  0  0  0  0  0  0  0  0  0  0  0  # atno 8008 bound_to 7997
  156.3006  140.2529  156.3187 H   0  0  0  0  0  0  0  0  0  0  0  0  # atno 8009 bound_to 7997
  154.9212  140.0386  157.1988 H   0  0  0  0  0  0  0  0  0  0  0  0  # atno 8010 bound_to 7997
  139.5476  144.2195  152.1017 H   0  0  0  0  0  0  0  0  0  0  0  0  # atno 10167 bound_to 10162
  156.5220  130.8482  151.2685 H   0  0  0  0  0  0  0  0  0  0  0  0  # atno 10718 bound_to 10713
  153.4421  135.3764  155.2234 H   0  0  0  0  0  0  0  0  0  0  0  0  # atno 10763 bound_to 10752
  154.8754  135.3865  154.4141 H   0  0  0  0  0  0  0  0  0  0  0  0  # atno 10764 bound_to 10752
  153.4688  135.7087  153.6069 H   0  0  0  0  0  0  0  0  0  0  0  0  # atno 10765 bound_to 10752
  140.1685  134.4251  155.8272 H   0  0  0  0  0  0  0  0  0  0  0  0  # atno 11005 bound_to 11000
  146.2354  140.5571  142.8957 LP  0  0  0  0  0  0  0  0  0  0  0  0  # atno 17320 bound_to 7965
  144.7902  140.6016  143.6547 LP  0  0  0  0  0  0  0  0  0  0  0  0  # atno 17321 bound_to 7965
  140.1684  144.4959  150.6593 LP  0  0  0  0  0  0  0  0  0  0  0  0  # atno 17342 bound_to 10162
  140.6729  143.2293  151.5581 LP  0  0  0  0  0  0  0  0  0  0  0  0  # atno 17343 bound_to 10162
  157.7435  130.9914  150.2599 LP  0  0  0  0  0  0  0  0  0  0  0  0  # atno 17370 bound_to 10713
  156.3140  130.3776  149.7635 LP  0  0  0  0  0  0  0  0  0  0  0  0  # atno 17371 bound_to 10713
  141.2215  133.6945  156.7722 LP  0  0  0  0  0  0  0  0  0  0  0  0  # atno 17394 bound_to 11000
  140.2405  134.8617  157.3568 LP  0  0  0  0  0  0  0  0  0  0  0  0  # atno 17395 bound_to 11000

$$$$
