AV-unprocessed.smi:2621|AV-procd|sdf|10226|dock2
  -GOLD-   2272014233D 1   1.00000     0.00000
 Structure written by MMmdl.
 24 25  0  0  0  0  0  0  0  0  1 V2000
  152.2069  145.3491  159.3071 C   0  0  0  0  0  0  0  0  0  0  0  0
  152.0057  143.9279  158.8231 C   0  0  0  0  0  0  0  0  0  0  0  0
  152.5791  142.8705  159.4388 C   0  0  0  0  0  0  0  0  0  0  0  0
  152.3645  141.5114  158.9448 C   0  0  0  0  0  0  0  0  0  0  0  0
  152.8539  140.5293  159.5044 O   0  0  0  0  0  0  0  0  0  0  0  0
  151.5876  141.4124  157.8223 N   0  0  0  0  0  0  0  0  0  0  0  0
  151.3642  140.0755  157.2234 C   0  0  0  0  0  0  0  0  0  0  0  0
  151.9246  139.8561  155.8254 C   0  0  1  0  0  0  0  0  0  0  0  0
  151.4182  138.8252  154.8428 C   0  0  0  0  0  0  0  0  0  0  0  0
  151.0219  140.1971  154.7617 O   0  0  0  0  0  0  0  0  0  0  0  0
  150.9767  142.5590  157.2383 C   0  0  0  0  0  0  0  0  0  0  0  0
  150.1419  142.3261  156.1592 N   0  0  0  0  0  0  0  0  0  0  0  0
  151.1844  143.7475  157.7093 N   0  0  0  0  0  0  0  0  0  0  0  0
  152.9172  145.3920  160.1332 H   0  0  0  0  0  0  0  0  0  0  0  0
  151.2603  145.7683  159.6492 H   0  0  0  0  0  0  0  0  0  0  0  0
  152.5878  145.9744  158.4993 H   0  0  0  0  0  0  0  0  0  0  0  0
  153.2075  143.0225  160.3045 H   0  0  0  0  0  0  0  0  0  0  0  0
  151.7054  139.2634  157.8661 H   0  0  0  0  0  0  0  0  0  0  0  0
  150.2906  139.8873  157.1682 H   0  0  0  0  0  0  0  0  0  0  0  0
  152.9267  140.2502  155.6687 H   0  0  0  0  0  0  0  0  0  0  0  0
  152.0776  138.4970  154.0421 H   0  0  0  0  0  0  0  0  0  0  0  0
  150.6226  138.1420  155.1321 H   0  0  0  0  0  0  0  0  0  0  0  0
  149.9594  141.4053  155.7873 H   0  0  0  0  0  0  0  0  0  0  0  0
  149.6766  143.0601  155.6447 H   0  0  0  0  0  0  0  0  0  0  0  0
  1  2  1  0  0  0  0
  1 14  1  0  0  0  0
  1 15  1  0  0  0  0
  1 16  1  0  0  0  0
  2 13  1  0  0  0  0
  2  3  2  0  0  0  0
  3  4  1  0  0  0  0
  3 17  1  0  0  0  0
  4  5  2  0  0  0  0
  4  6  1  0  0  0  0
  6  7  1  0  0  0  0
  6 11  1  0  0  0  0
  7  8  1  0  0  0  0
  7 18  1  0  0  0  0
  7 19  1  0  0  0  0
  8 10  1  0  0  0  0
  8  9  1  0  0  0  0
  8 20  1  0  0  0  0
  9 10  1  0  0  0  0
  9 21  1  0  0  0  0
  9 22  1  0  0  0  0
 11 12  1  0  0  0  0
 11 13  2  0  0  0  0
 12 23  1  0  0  0  0
 12 24  1  0  0  0  0
M  END
> <s_m_source_file>
AV-unprocessed.smi

> <i_m_source_file_index>
2621

> <i_lp_mmshare_version>
43012

> <i_f3d_flags>
0

> <s_epik_input>
W0NIM11jMVtjSF1jKD1PKW4oYyhuMSlbTkgyXSlbQ0gyXVtDQEBIXTJbQ0gyXU8y

> <s_epik_cmdline>
J2VwaWtfcHl0aG9uJywgJy1waCcsICc3LjAnLCAnLXRuJywgJzgnLCAnLW1hJywgJzIwMCcsICctbWV0YWxfYmluZGluZycsICctaW1hZScsICc8aW5maWxlLm1hZT4nLCAnLW9tYWUnLCAnPG91dGZpbGUubWFlPic=

> <r_lp_tautomer_probability>
1

> <r_epik_Ionization_Penalty>
0.000262373

> <r_epik_Ionization_Penalty_Charging>
1.89272e-07

> <r_epik_Ionization_Penalty_Neutral>
0.000262184

> <r_epik_State_Penalty>
-0

> <r_epik_Charging_Adjusted_Penalty>
1.89272e-07

> <i_epik_Tot_Q>
0

> <i_epik_Tot_abs_Q>
0

> <r_epik_Metal_State_Penalty>
-0

> <b_epik_Metal_Only>
0

> <s_epik_Chemistry_Notes>
This compound has an imine and may undergo hydrolysis.

> <s_lp_Force_Field>
OPLS_2005

> <r_lp_Energy>
23.2986

> <b_lp_Chiralities_Consistent>
1

> <s_lp_Variant>
AV-unprocessed.smi:2621-2

> <Gold.Version>
5.8.1

> <Gold.Id.Protein>
6NUR|6NUR_protein|mol2

> <Gold.PLP.Fitness>
37.0870

> <Gold.PLP.PLP>
-31.2077

> <Gold.PLP.part.hbond>
-2.0000

> <Gold.PLP.part.metal>
0.0000

> <Gold.PLP.part.buried>
-5.3254

> <Gold.PLP.part.nonpolar>
-24.4097

> <Gold.PLP.part.repulsive>
0.3273

> <Gold.PLP.ligand.clash>
0.0000

> <Gold.PLP.ligand.torsion>
0.3324

> <Gold.PLP.Chemscore.Hbond>
1.9760

> <Gold.PLP.Chemscore.CHOScore>
0.0000

> <Gold.PLP.Chemscore.Metal>
0.0000

> <Gold.Chemscore.Hbonds>
donor molecule, donor type, donor heavy atom, donor atom, acceptor molecule, acceptor atom, score
      L1  H    12    24       P1  8028  0.98
      P1  H  7989  7998       L1    10  1.00

> <Gold.PLP.Chemscore.Internal.Correction>
0.6161

> <Gold.Rescore>
     Score         DG    S(hbond)    S(metal)    S(lipo)     H(rot)  DE(clash)    DE(int)     intcor
     14.74     -15.18       1.94        0.00      56.36       1.31       0.00       0.44       ----

> <Gold.Chemscore.Fitness>
14.7397

> <Gold.Chemscore.DG>
-15.1797

> <Gold.Chemscore.ZeroCoef>
-5.4800

> <Gold.Chemscore.Hbond>
1.9367

> <Gold.Chemscore.Metal>
0.0000

> <Gold.Chemscore.Lipo>
56.3646

> <Gold.Chemscore.Internal_Hbond>
0.0000

> <Gold.Chemscore.DEClash>
0.0000

> <Gold.Chemscore.DEInternal>
0.4400

> <Gold.Chemscore.Rot>
1.3139

> <Gold.Chemscore.Internal.Correction>
   9.000000E+99

> <Gold.Chemscore.Hbonds>
donor molecule, donor type, donor heavy atom, donor atom, acceptor molecule, acceptor atom, score
      L1  H    12    24       P1  8028  0.93
      P1  H  7989  7998       L1    10  0.71

> <Gold.Chemscore.Hbond.Weighted>
-6.4686

> <Gold.Chemscore.Metal.Weighted>
-0.0000

> <Gold.Chemscore.Lipo.Weighted>
-6.5947

> <Gold.Chemscore.Internal_Hbond.Weighted>
0.0000

> <Gold.Chemscore.DEClash.Weighted>
0.0000

> <Gold.Chemscore.DEInternal.Weighted>
0.4400

> <Gold.Chemscore.Rot.Weighted>
3.3636

> <Gold.Chemscore.Internal.Correction.Weighted>
   9.000000E+99

> <Gold.Protein.RotatedTorsions>
[ 6907 6896 6895 6894 ] final -126.91 input  -60.11 | X-H torsion
[ 7974 7965 7964 7962 ] final   10.49 input  175.53 | X-H torsion
[ 8008 7997 7996 7995 ] final  179.44 input   59.86 | X-H torsion
[ 10167 10162 10161 10158 ] final  107.08 input  -65.29 | X-H torsion
[ 10718 10713 10712 10709 ] final  -29.34 input   66.30 | X-H torsion
[ 10763 10752 10751 10750 ] final   98.35 input  -60.55 | X-H torsion
[ 11005 11000 10999 10996 ] final  170.92 input  -57.11 | X-H torsion

> <Gold.Protein.ActiveResidues>
 VAL166  LYS551  ARG553  GLY616  TRP617  ASP618  TYR619  PRO620  LYS621  CYS622 
 ASP623  PHE694  ASN695  SER759  ASP760  ASP761  ALA762  ILE779  LEU786  VAL792 
 PHE793  MET794  SER795  GLU796  ALA797  LYS798  CYS799  TRP800  GLU811  SER814 

> <Gold.Protein.RotatedAtoms>
  150.9018  133.7108  159.2876 H   0  0  0  0  0  0  0  0  0  0  0  0  # atno 6907 bound_to 6896
  151.4624  135.1038  159.9738 H   0  0  0  0  0  0  0  0  0  0  0  0  # atno 6908 bound_to 6896
  152.4881  133.8378  159.7192 H   0  0  0  0  0  0  0  0  0  0  0  0  # atno 6909 bound_to 6896
  146.2387  139.9627  142.8456 H   0  0  0  0  0  0  0  0  0  0  0  0  # atno 7974 bound_to 7965
  156.0434  140.1308  157.0131 H   0  0  0  0  0  0  0  0  0  0  0  0  # atno 8008 bound_to 7997
  154.4401  140.1025  156.6340 H   0  0  0  0  0  0  0  0  0  0  0  0  # atno 8009 bound_to 7997
  155.5633  140.3465  155.4499 H   0  0  0  0  0  0  0  0  0  0  0  0  # atno 8010 bound_to 7997
  139.6956  144.7102  151.1272 H   0  0  0  0  0  0  0  0  0  0  0  0  # atno 10167 bound_to 10162
  156.4137  130.4413  149.7234 H   0  0  0  0  0  0  0  0  0  0  0  0  # atno 10718 bound_to 10713
  153.2880  135.4151  155.1141 H   0  0  0  0  0  0  0  0  0  0  0  0  # atno 10763 bound_to 10752
  154.8511  135.3511  154.6020 H   0  0  0  0  0  0  0  0  0  0  0  0  # atno 10764 bound_to 10752
  153.6442  135.7055  153.5289 H   0  0  0  0  0  0  0  0  0  0  0  0  # atno 10765 bound_to 10752
  140.3135  134.7497  157.4009 H   0  0  0  0  0  0  0  0  0  0  0  0  # atno 11005 bound_to 11000
  145.1756  140.9742  143.4296 LP  0  0  0  0  0  0  0  0  0  0  0  0  # atno 17320 bound_to 7965
  144.9989  139.3617  143.6177 LP  0  0  0  0  0  0  0  0  0  0  0  0  # atno 17321 bound_to 7965
  140.7695  143.5496  150.9220 LP  0  0  0  0  0  0  0  0  0  0  0  0  # atno 17342 bound_to 10162
  139.9175  143.6645  152.3103 LP  0  0  0  0  0  0  0  0  0  0  0  0  # atno 17343 bound_to 10162
  156.4202  130.7765  151.2782 LP  0  0  0  0  0  0  0  0  0  0  0  0  # atno 17370 bound_to 10713
  157.7507  131.0185  150.3628 LP  0  0  0  0  0  0  0  0  0  0  0  0  # atno 17371 bound_to 10713
  140.1004  134.5480  155.8358 LP  0  0  0  0  0  0  0  0  0  0  0  0  # atno 17394 bound_to 11000
  141.2103  133.6693  156.6499 LP  0  0  0  0  0  0  0  0  0  0  0  0  # atno 17395 bound_to 11000

$$$$
