AV-unprocessed.smi:2553|AV-procd|sdf|10018|dock1
  -GOLD-   2272014 63D 1   1.00000     0.00000
 Structure written by MMmdl.
 28 29  0  0  0  0  0  0  0  0  2 V2000
  150.4543  135.6372  155.0728 O   0  0  0  0  0  0  0  0  0  0  0  0
  150.6610  136.8401  155.2277 C   0  0  0  0  0  0  0  0  0  0  0  0
  151.8723  137.4177  154.9759 N   0  5  0  0  0  0  0  0  0  0  0  0
  152.1211  138.7536  155.1400 C   0  0  0  0  0  0  0  0  0  0  0  0
  153.2268  139.2493  154.9206 O   0  0  0  0  0  0  0  0  0  0  0  0
  151.1071  139.5634  155.5658 N   0  0  0  0  0  0  0  0  0  0  0  0
  151.2877  141.0052  155.7852 C   0  0  0  0  0  0  0  0  0  0  0  0
  150.9834  141.3941  157.2400 C   0  0  0  0  0  0  0  0  0  0  0  0
  152.1224  141.0935  158.0350 O   0  0  0  0  0  0  0  0  0  0  0  0
  152.3188  141.7976  159.2029 C   0  0  0  0  0  0  0  0  0  0  0  0
  151.6325  142.9947  159.5292 C   0  0  0  0  0  0  0  0  0  0  0  0
  151.8870  143.6536  160.7476 C   0  0  0  0  0  0  0  0  0  0  0  0
  152.8269  143.1275  161.6525 C   0  0  0  0  0  0  0  0  0  0  0  0
  153.0702  143.7619  162.8238 F   0  0  0  0  0  0  0  0  0  0  0  0
  153.5127  141.9401  161.3383 C   0  0  0  0  0  0  0  0  0  0  0  0
  153.2600  141.2791  160.1202 C   0  0  0  0  0  0  0  0  0  0  0  0
  154.1172  139.8244  159.7541 Cl  0  0  0  0  0  0  0  0  0  0  0  0
  149.8431  139.0181  155.8472 C   0  0  0  0  0  0  0  0  0  0  0  0
  149.5816  137.7050  155.7002 C   0  0  0  0  0  0  0  0  0  0  0  0
  148.0206  137.0618  156.0664 Cl  0  0  0  0  0  0  0  0  0  0  0  0
  152.3056  141.3034  155.5296 H   0  0  0  0  0  0  0  0  0  0  0  0
  150.6480  141.5752  155.1098 H   0  0  0  0  0  0  0  0  0  0  0  0
  150.7334  142.4545  157.3021 H   0  0  0  0  0  0  0  0  0  0  0  0
  150.1242  140.8235  157.5948 H   0  0  0  0  0  0  0  0  0  0  0  0
  150.9026  143.4266  158.8618 H   0  0  0  0  0  0  0  0  0  0  0  0
  151.3588  144.5644  160.9881 H   0  0  0  0  0  0  0  0  0  0  0  0
  154.2342  141.5360  162.0329 H   0  0  0  0  0  0  0  0  0  0  0  0
  149.1079  139.7275  156.1989 H   0  0  0  0  0  0  0  0  0  0  0  0
  1  2  2  0  0  0  0
  2 19  1  0  0  0  0
  2  3  1  0  0  0  0
  3  4  1  0  0  0  0
  4  5  2  0  0  0  0
  4  6  1  0  0  0  0
  6  7  1  0  0  0  0
  6 18  1  0  0  0  0
  7  8  1  0  0  0  0
  7 21  1  0  0  0  0
  7 22  1  0  0  0  0
  8  9  1  0  0  0  0
  8 23  1  0  0  0  0
  8 24  1  0  0  0  0
  9 10  1  0  0  0  0
 10 16  1  0  0  0  0
 10 11  2  0  0  0  0
 11 12  1  0  0  0  0
 11 25  1  0  0  0  0
 12 13  2  0  0  0  0
 12 26  1  0  0  0  0
 13 14  1  0  0  0  0
 13 15  1  0  0  0  0
 15 16  2  0  0  0  0
 15 27  1  0  0  0  0
 16 17  1  0  0  0  0
 18 19  2  0  0  0  0
 18 28  1  0  0  0  0
 19 20  1  0  0  0  0
M  CHG  1   3  -1
M  END
> <s_m_source_file>
AV-unprocessed.smi

> <i_m_source_file_index>
2553

> <i_lp_mmshare_version>
43012

> <i_f3d_flags>
0

> <s_epik_input>
Tz1jMVtuSF1jKD1PKW4oW2NIXWMxQ2wpW0NIMl1bQ0gyXU9jMltjSF1bY0hdYyhGKVtjSF1jMkNs

> <s_epik_cmdline>
J2VwaWtfcHl0aG9uJywgJy1waCcsICc3LjAnLCAnLXRuJywgJzgnLCAnLW1hJywgJzIwMCcsICctbWV0YWxfYmluZGluZycsICctaW1hZScsICc8aW5maWxlLm1hZT4nLCAnLW9tYWUnLCAnPG91dGZpbGUubWFlPic=

> <r_lp_tautomer_probability>
1

> <r_epik_Ionization_Penalty>
1.51646

> <r_epik_Ionization_Penalty_Charging>
6.90068e-09

> <r_epik_Ionization_Penalty_Neutral>
1.51646

> <r_epik_State_Penalty>
1.60792

> <r_epik_Charging_Adjusted_Penalty>
1.60792

> <i_epik_Tot_Q>
-1

> <i_epik_Tot_abs_Q>
1

> <r_epik_Metal_State_Penalty>
0.00828827

> <b_epik_Metal_Only>
0

> <s_lp_Force_Field>
OPLS_2005

> <r_lp_Energy>
21.8883

> <b_lp_Chiralities_Consistent>
1

> <s_lp_Variant>
AV-unprocessed.smi:2553-2

> <Gold.Version>
5.8.1

> <Gold.Id.Protein>
6NUR|6NUR_protein|mol2

> <Gold.PLP.Fitness>
47.1364

> <Gold.PLP.PLP>
-39.2864

> <Gold.PLP.part.hbond>
-2.0000

> <Gold.PLP.part.metal>
0.0000

> <Gold.PLP.part.buried>
-5.8218

> <Gold.PLP.part.nonpolar>
-31.8403

> <Gold.PLP.part.repulsive>
0.1989

> <Gold.PLP.ligand.clash>
0.0000

> <Gold.PLP.ligand.torsion>
0.4216

> <Gold.PLP.Chemscore.Hbond>
2.8880

> <Gold.PLP.Chemscore.CHOScore>
0.0000

> <Gold.PLP.Chemscore.Metal>
0.0000

> <Gold.Chemscore.Hbonds>
donor molecule, donor type, donor heavy atom, donor atom, acceptor molecule, acceptor atom, score
      P1  H  7997  8010       L1     5  1.00
      P1  H 10752 10765       L1     3  1.11

> <Gold.PLP.Chemscore.Internal.Correction>
0.0292

> <Gold.Rescore>
     Score         DG    S(hbond)    S(metal)    S(lipo)     H(rot)  DE(clash)    DE(int)     intcor
     16.21     -16.76       1.73        0.00      88.09       1.88       0.23       0.33       ----

> <Gold.Chemscore.Fitness>
16.2085

> <Gold.Chemscore.DG>
-16.7619

> <Gold.Chemscore.ZeroCoef>
-5.4800

> <Gold.Chemscore.Hbond>
1.7342

> <Gold.Chemscore.Metal>
0.0000

> <Gold.Chemscore.Lipo>
88.0857

> <Gold.Chemscore.Internal_Hbond>
0.0000

> <Gold.Chemscore.DEClash>
0.2268

> <Gold.Chemscore.DEInternal>
0.3266

> <Gold.Chemscore.Rot>
1.8814

> <Gold.Chemscore.Internal.Correction>
   9.000000E+99

> <Gold.Chemscore.Hbonds>
donor molecule, donor type, donor heavy atom, donor atom, acceptor molecule, acceptor atom, score
      P1  H  7997  8010       L1     5  1.00
      P1  H 10752 10765       L1     3  0.09

> <Gold.Chemscore.Hbond.Weighted>
-5.7922

> <Gold.Chemscore.Metal.Weighted>
-0.0000

> <Gold.Chemscore.Lipo.Weighted>
-10.3060

> <Gold.Chemscore.Internal_Hbond.Weighted>
0.0000

> <Gold.Chemscore.DEClash.Weighted>
0.2268

> <Gold.Chemscore.DEInternal.Weighted>
0.3266

> <Gold.Chemscore.Rot.Weighted>
4.8163

> <Gold.Chemscore.Internal.Correction.Weighted>
   9.000000E+99

> <Gold.Protein.RotatedTorsions>
[ 6907 6896 6895 6894 ] final -138.07 input  -60.11 | X-H torsion
[ 7974 7965 7964 7962 ] final  -65.46 input  175.53 | X-H torsion
[ 8008 7997 7996 7995 ] final  108.96 input   59.86 | X-H torsion
[ 10167 10162 10161 10158 ] final  140.74 input  -65.29 | X-H torsion
[ 10718 10713 10712 10709 ] final  -61.54 input   66.30 | X-H torsion
[ 10763 10752 10751 10750 ] final -177.10 input  -60.55 | X-H torsion
[ 11005 11000 10999 10996 ] final -103.15 input  -57.11 | X-H torsion

> <Gold.Protein.ActiveResidues>
 VAL166  LYS551  ARG553  GLY616  TRP617  ASP618  TYR619  PRO620  LYS621  CYS622 
 ASP623  PHE694  ASN695  SER759  ASP760  ASP761  ALA762  ILE779  LEU786  VAL792 
 PHE793  MET794  SER795  GLU796  ALA797  LYS798  CYS799  TRP800  GLU811  SER814 

> <Gold.Protein.RotatedAtoms>
  151.0304  133.5795  159.2661 H   0  0  0  0  0  0  0  0  0  0  0  0  # atno 6907 bound_to 6896
  151.2879  135.0732  159.9203 H   0  0  0  0  0  0  0  0  0  0  0  0  # atno 6908 bound_to 6896
  152.5343  134.0007  159.7947 H   0  0  0  0  0  0  0  0  0  0  0  0  # atno 6909 bound_to 6896
  145.7540  140.8894  143.0465 H   0  0  0  0  0  0  0  0  0  0  0  0  # atno 7974 bound_to 7965
  156.1943  140.3066  155.9396 H   0  0  0  0  0  0  0  0  0  0  0  0  # atno 8008 bound_to 7997
  155.3101  140.0450  157.3051 H   0  0  0  0  0  0  0  0  0  0  0  0  # atno 8009 bound_to 7997
  154.5490  140.2285  155.8524 H   0  0  0  0  0  0  0  0  0  0  0  0  # atno 8010 bound_to 7997
  139.5040  144.6215  151.6039 H   0  0  0  0  0  0  0  0  0  0  0  0  # atno 10167 bound_to 10162
  156.0915  130.4199  150.1008 H   0  0  0  0  0  0  0  0  0  0  0  0  # atno 10718 bound_to 10713
  154.5642  135.2822  155.0890 H   0  0  0  0  0  0  0  0  0  0  0  0  # atno 10763 bound_to 10752
  154.2287  135.6378  153.5172 H   0  0  0  0  0  0  0  0  0  0  0  0  # atno 10764 bound_to 10752
  153.0038  135.5532  154.6246 H   0  0  0  0  0  0  0  0  0  0  0  0  # atno 10765 bound_to 10752
  141.1158  133.8616  157.1449 H   0  0  0  0  0  0  0  0  0  0  0  0  # atno 11005 bound_to 11000
  144.6844  139.9630  143.7480 LP  0  0  0  0  0  0  0  0  0  0  0  0  # atno 17320 bound_to 7965
  146.0329  139.3351  143.0744 LP  0  0  0  0  0  0  0  0  0  0  0  0  # atno 17321 bound_to 7965
  140.5919  143.9765  150.6330 LP  0  0  0  0  0  0  0  0  0  0  0  0  # atno 17342 bound_to 10162
  140.2948  143.3300  152.1028 LP  0  0  0  0  0  0  0  0  0  0  0  0  # atno 17343 bound_to 10162
  156.9017  130.9622  151.3575 LP  0  0  0  0  0  0  0  0  0  0  0  0  # atno 17370 bound_to 10713
  157.6065  130.8551  149.8884 LP  0  0  0  0  0  0  0  0  0  0  0  0  # atno 17371 bound_to 10713
  140.0080  135.0000  157.0334 LP  0  0  0  0  0  0  0  0  0  0  0  0  # atno 17394 bound_to 11000
  140.4648  134.1447  155.7195 LP  0  0  0  0  0  0  0  0  0  0  0  0  # atno 17395 bound_to 11000

$$$$
