AV-unprocessed.smi:1278|AV-procd|sdf|5348|dock3
  -GOLD-   22720 4483D 1   1.00000     0.00000
 Structure written by MMmdl.
 39 40  0  0  0  0  0  0  0  0  2 V2000
  143.6937  132.6677  148.4116 C   0  0  0  0  0  0  0  0  0  0  0  0
  143.7658  132.7087  149.9483 C   0  0  1  0  0  0  0  0  0  0  0  0
  144.8958  131.8306  150.5173 C   0  0  0  0  0  0  0  0  0  0  0  0
  146.2704  132.4757  150.2921 C   0  0  0  0  0  0  0  0  0  0  0  0
  146.3003  133.9152  150.8298 C   0  0  0  0  0  0  0  0  0  0  0  0
  145.2197  134.7356  150.2245 N   0  3  2  0  0  0  0  0  0  0  0  0
  145.3202  136.1667  150.6049 C   0  0  0  0  0  0  0  0  0  0  0  0
  144.7719  136.4364  152.0196 C   0  0  0  0  0  0  0  0  0  0  0  0
  145.0804  137.7904  152.4648 N   0  0  0  0  0  0  0  0  0  0  0  0
  146.2213  138.1552  153.0676 C   0  0  0  0  0  0  0  0  0  0  0  0
  147.1332  137.3666  153.3192 O   0  0  0  0  0  0  0  0  0  0  0  0
  146.2270  139.4691  153.3527 N   0  0  0  0  0  0  0  0  0  0  0  0
  147.2482  140.2234  153.9881 C   0  0  0  0  0  0  0  0  0  0  0  0
  147.0451  141.3856  154.6198 N   0  0  0  0  0  0  0  0  0  0  0  0
  148.2276  141.9066  155.1516 C   0  0  0  0  0  0  0  0  0  0  0  0
  149.3291  141.1230  154.9124 C   0  0  0  0  0  0  0  0  0  0  0  0
  148.9234  139.6914  154.0037 S   0  0  0  0  0  0  0  0  0  0  0  0
  143.8766  134.1500  150.4868 C   0  0  0  0  0  0  0  0  0  0  0  0
  144.5875  133.0865  147.9492 H   0  0  0  0  0  0  0  0  0  0  0  0
  142.8385  133.2366  148.0458 H   0  0  0  0  0  0  0  0  0  0  0  0
  143.5829  131.6443  148.0521 H   0  0  0  0  0  0  0  0  0  0  0  0
  142.8227  132.2966  150.3100 H   0  0  0  0  0  0  0  0  0  0  0  0
  144.7391  131.6939  151.5883 H   0  0  0  0  0  0  0  0  0  0  0  0
  144.8675  130.8336  150.0759 H   0  0  0  0  0  0  0  0  0  0  0  0
  147.0421  131.8813  150.7819 H   0  0  0  0  0  0  0  0  0  0  0  0
  146.5142  132.4746  149.2293 H   0  0  0  0  0  0  0  0  0  0  0  0
  146.1953  133.9164  151.9160 H   0  0  0  0  0  0  0  0  0  0  0  0
  147.2717  134.3568  150.6044 H   0  0  0  0  0  0  0  0  0  0  0  0
  146.3546  136.5028  150.5173 H   0  0  0  0  0  0  0  0  0  0  0  0
  144.7436  136.7618  149.8954 H   0  0  0  0  0  0  0  0  0  0  0  0
  143.6930  136.2728  152.0488 H   0  0  0  0  0  0  0  0  0  0  0  0
  145.2086  135.7503  152.7442 H   0  0  0  0  0  0  0  0  0  0  0  0
  144.3823  138.4997  152.2937 H   0  0  0  0  0  0  0  0  0  0  0  0
  145.4079  139.9929  153.0814 H   0  0  0  0  0  0  0  0  0  0  0  0
  148.1938  142.8438  155.6872 H   0  0  0  0  0  0  0  0  0  0  0  0
  150.3505  141.3009  155.2145 H   0  0  0  0  0  0  0  0  0  0  0  0
  143.0950  134.7611  150.0368 H   0  0  0  0  0  0  0  0  0  0  0  0
  143.6913  134.1564  151.5622 H   0  0  0  0  0  0  0  0  0  0  0  0
  145.3683  134.6972  149.2260 H   0  0  0  0  0  0  0  0  0  0  0  0
  1  2  1  0  0  0  0
  1 19  1  0  0  0  0
  1 20  1  0  0  0  0
  1 21  1  0  0  0  0
  2 18  1  0  0  0  0
  2  3  1  0  0  0  0
  2 22  1  0  0  0  0
  3  4  1  0  0  0  0
  3 23  1  0  0  0  0
  3 24  1  0  0  0  0
  4  5  1  0  0  0  0
  4 25  1  0  0  0  0
  4 26  1  0  0  0  0
  5  6  1  0  0  0  0
  5 27  1  0  0  0  0
  5 28  1  0  0  0  0
  6  7  1  0  0  0  0
  6 18  1  0  0  0  0
  6 39  1  0  0  0  0
  7  8  1  0  0  0  0
  7 29  1  0  0  0  0
  7 30  1  0  0  0  0
  8  9  1  0  0  0  0
  8 31  1  0  0  0  0
  8 32  1  0  0  0  0
  9 10  1  0  0  0  0
  9 33  1  0  0  0  0
 10 11  2  0  0  0  0
 10 12  1  0  0  0  0
 12 13  1  0  0  0  0
 12 34  1  0  0  0  0
 13 17  1  0  0  0  0
 13 14  2  0  0  0  0
 14 15  1  0  0  0  0
 15 16  2  0  0  0  0
 15 35  1  0  0  0  0
 16 17  1  0  0  0  0
 16 36  1  0  0  0  0
 18 37  1  0  0  0  0
 18 38  1  0  0  0  0
M  CHG  1   6   1
M  END
> <s_m_source_file>
AV-unprocessed.smi

> <i_m_source_file_index>
1278

> <i_lp_mmshare_version>
43012

> <i_f3d_flags>
0

> <s_epik_input>
W0NIM11bQ0BASF0xW0NIMl1bQ0gyXVtDSDJdTihbQ0gyXTEpW0NIMl1bQ0gyXVtOSF1DKD1PKVtOSF1jMm5bY0hdW2NIXXMy

> <s_epik_cmdline>
J2VwaWtfcHl0aG9uJywgJy1waCcsICc3LjAnLCAnLXRuJywgJzgnLCAnLW1hJywgJzIwMCcsICctbWV0YWxfYmluZGluZycsICctaW1hZScsICc8aW5maWxlLm1hZT4nLCAnLW9tYWUnLCAnPG91dGZpbGUubWFlPic=

> <r_lp_tautomer_probability>
0.999

> <r_epik_Ionization_Penalty>
0.00222194

> <r_epik_Ionization_Penalty_Charging>
0.00208169

> <r_epik_Ionization_Penalty_Neutral>
0.000140251

> <r_epik_State_Penalty>
0.00142585

> <r_epik_Charging_Adjusted_Penalty>
0.00350754

> <i_epik_Tot_Q>
1

> <i_epik_Tot_abs_Q>
1

> <r_epik_Metal_State_Penalty>
0.0570424

> <b_epik_Metal_Only>
0

> <s_lp_Force_Field>
OPLS_2005

> <r_lp_Energy>
16.7193

> <b_lp_Chiralities_Consistent>
1

> <s_lp_Variant>
AV-unprocessed.smi:1278-2

> <Gold.Version>
5.8.1

> <Gold.Id.Protein>
6NUR|6NUR_protein|mol2

> <Gold.PLP.Fitness>
41.3697

> <Gold.PLP.PLP>
-30.3039

> <Gold.PLP.part.hbond>
-4.0000

> <Gold.PLP.part.metal>
0.0000

> <Gold.PLP.part.buried>
2.7337

> <Gold.PLP.part.nonpolar>
-31.5412

> <Gold.PLP.part.repulsive>
2.8407

> <Gold.PLP.ligand.clash>
0.0000

> <Gold.PLP.ligand.torsion>
0.4327

> <Gold.PLP.Chemscore.Hbond>
2.9675

> <Gold.PLP.Chemscore.CHOScore>
1.0000

> <Gold.PLP.Chemscore.Metal>
0.0000

> <Gold.Chemscore.Hbonds>
donor molecule, donor type, donor heavy atom, donor atom, acceptor molecule, acceptor atom, score
      L1  H     6    39       P1  7921  1.00
      L1  H     9    33       P1 10175  0.89
      L1  H    12    34       P1 10175  1.00
      L1  C    15    35       P1  8028  0.88

> <Gold.PLP.Chemscore.Internal.Correction>
0.0288

> <Gold.Rescore>
     Score         DG    S(hbond)    S(metal)    S(lipo)     H(rot)  DE(clash)    DE(int)     intcor
     17.03     -21.82       2.93        0.00      91.17       1.60       3.27       1.52       ----

> <Gold.Chemscore.Fitness>
17.0309

> <Gold.Chemscore.DG>
-21.8210

> <Gold.Chemscore.ZeroCoef>
-5.4800

> <Gold.Chemscore.Hbond>
2.9254

> <Gold.Chemscore.Metal>
0.0000

> <Gold.Chemscore.Lipo>
91.1671

> <Gold.Chemscore.Internal_Hbond>
0.0000

> <Gold.Chemscore.DEClash>
3.2702

> <Gold.Chemscore.DEInternal>
1.5199

> <Gold.Chemscore.Rot>
1.6001

> <Gold.Chemscore.Internal.Correction>
   9.000000E+99

> <Gold.Chemscore.Hbonds>
donor molecule, donor type, donor heavy atom, donor atom, acceptor molecule, acceptor atom, score
      L1  H     6    39       P1  7921  1.00
      L1  H     9    33       P1 10175  0.83
      L1  H    12    34       P1 10175  1.00

> <Gold.Chemscore.Hbond.Weighted>
-9.7707

> <Gold.Chemscore.Metal.Weighted>
-0.0000

> <Gold.Chemscore.Lipo.Weighted>
-10.6665

> <Gold.Chemscore.Internal_Hbond.Weighted>
0.0000

> <Gold.Chemscore.DEClash.Weighted>
3.2702

> <Gold.Chemscore.DEInternal.Weighted>
1.5199

> <Gold.Chemscore.Rot.Weighted>
4.0963

> <Gold.Chemscore.Internal.Correction.Weighted>
   9.000000E+99

> <Gold.Protein.RotatedTorsions>
[ 6907 6896 6895 6894 ] final    7.93 input  -60.11 | X-H torsion
[ 7974 7965 7964 7962 ] final  141.35 input  175.53 | X-H torsion
[ 8008 7997 7996 7995 ] final  107.17 input   59.86 | X-H torsion
[ 10167 10162 10161 10158 ] final   97.97 input  -65.29 | X-H torsion
[ 10718 10713 10712 10709 ] final   97.36 input   66.30 | X-H torsion
[ 10763 10752 10751 10750 ] final  148.58 input  -60.55 | X-H torsion
[ 11005 11000 10999 10996 ] final   26.40 input  -57.11 | X-H torsion

> <Gold.Protein.ActiveResidues>
 VAL166  LYS551  ARG553  GLY616  TRP617  ASP618  TYR619  PRO620  LYS621  CYS622 
 ASP623  PHE694  ASN695  SER759  ASP760  ASP761  ALA762  ILE779  LEU786  VAL792 
 PHE793  MET794  SER795  GLU796  ALA797  LYS798  CYS799  TRP800  GLU811  SER814 

> <Gold.Protein.RotatedAtoms>
  151.6978  135.0935  160.0245 H   0  0  0  0  0  0  0  0  0  0  0  0  # atno 6907 bound_to 6896
  152.3739  133.6451  159.6117 H   0  0  0  0  0  0  0  0  0  0  0  0  # atno 6908 bound_to 6896
  150.7694  133.9141  159.3420 H   0  0  0  0  0  0  0  0  0  0  0  0  # atno 6909 bound_to 6896
  144.9104  139.5301  143.5711 H   0  0  0  0  0  0  0  0  0  0  0  0  # atno 7974 bound_to 7965
  156.1803  140.3099  155.9135 H   0  0  0  0  0  0  0  0  0  0  0  0  # atno 8008 bound_to 7997
  155.3399  140.0465  157.3061 H   0  0  0  0  0  0  0  0  0  0  0  0  # atno 8009 bound_to 7997
  154.5335  140.2238  155.8773 H   0  0  0  0  0  0  0  0  0  0  0  0  # atno 8010 bound_to 7997
  139.7752  144.6908  151.0100 H   0  0  0  0  0  0  0  0  0  0  0  0  # atno 10167 bound_to 10162
  157.6913  131.0607  150.4632 H   0  0  0  0  0  0  0  0  0  0  0  0  # atno 10718 bound_to 10713
  154.0572  135.2877  155.3331 H   0  0  0  0  0  0  0  0  0  0  0  0  # atno 10763 bound_to 10752
  154.6832  135.5255  153.8294 H   0  0  0  0  0  0  0  0  0  0  0  0  # atno 10764 bound_to 10752
  153.0537  135.6587  154.0763 H   0  0  0  0  0  0  0  0  0  0  0  0  # atno 10765 bound_to 10752
  140.3374  134.2370  155.7694 H   0  0  0  0  0  0  0  0  0  0  0  0  # atno 11005 bound_to 11000
  146.3155  139.7905  142.8986 LP  0  0  0  0  0  0  0  0  0  0  0  0  # atno 17320 bound_to 7965
  145.3464  141.0298  143.3363 LP  0  0  0  0  0  0  0  0  0  0  0  0  # atno 17321 bound_to 7965
  140.7816  143.4544  151.0367 LP  0  0  0  0  0  0  0  0  0  0  0  0  # atno 17342 bound_to 10162
  139.8226  143.7799  152.3177 LP  0  0  0  0  0  0  0  0  0  0  0  0  # atno 17343 bound_to 10162
  156.4975  130.4109  149.6371 LP  0  0  0  0  0  0  0  0  0  0  0  0  # atno 17370 bound_to 10713
  156.3359  130.7356  151.2293 LP  0  0  0  0  0  0  0  0  0  0  0  0  # atno 17371 bound_to 10713
  141.2047  133.7878  157.0270 LP  0  0  0  0  0  0  0  0  0  0  0  0  # atno 17394 bound_to 11000
  140.0809  134.9648  157.1623 LP  0  0  0  0  0  0  0  0  0  0  0  0  # atno 17395 bound_to 11000

$$$$
