AV-unprocessed.smi:149|AV-procd|sdf|1237|dock9
  -GOLD-   2262018453D 1   1.00000     0.00000
 Structure written by MMmdl.
 60 64  0  0  0  0  0  0  0  0  2 V2000
  146.7618  129.6864  152.5319 C   0  0  0  0  0  0  0  0  0  0  0  0
  146.9042  131.0585  153.2186 C   0  0  1  0  0  0  0  0  0  0  0  0
  148.0412  131.0171  154.2559 C   0  0  0  0  0  0  0  0  0  0  0  0
  148.7569  132.2772  154.1482 N   0  0  0  0  0  0  0  0  0  0  0  0
  149.4510  132.7741  155.2061 C   0  0  0  0  0  0  0  0  0  0  0  0
  149.8194  131.9254  156.2026 N   0  0  0  0  0  0  0  0  0  0  0  0
  150.5103  132.3723  157.2548 C   0  0  0  0  0  0  0  0  0  0  0  0
  150.9229  133.6134  157.5141 N   0  0  0  0  0  0  0  0  0  0  0  0
  150.5421  134.4784  156.5313 C   0  0  0  0  0  0  0  0  0  0  0  0
  149.8154  134.1458  155.3516 C   0  0  0  0  0  0  0  0  0  0  0  0
  149.6237  135.2900  154.5860 N   0  0  0  0  0  0  0  0  0  0  0  0
  150.2159  136.2355  155.2621 C   0  0  0  0  0  0  0  0  0  0  0  0
  150.7673  135.8436  156.4623 N   0  0  0  0  0  0  0  0  0  0  0  0
  151.5033  136.6569  157.3940 C   0  0  0  0  0  0  0  0  0  0  0  0
  150.8094  137.8168  158.1226 C   0  0  0  0  0  0  0  0  0  0  0  0
  151.4976  138.8259  157.1774 C   0  0  0  0  0  0  0  0  0  0  0  0
  150.6396  139.2297  155.9630 C   0  0  0  0  0  0  0  0  0  0  0  0
  151.2887  140.2006  155.1670 O   0  0  0  0  0  0  0  0  0  0  0  0
  152.0195  140.1276  157.8175 C   0  0  0  0  0  0  0  0  0  0  0  0
  153.0827  139.9017  158.7215 O   0  0  0  0  0  0  0  0  0  0  0  0
  152.5245  137.7011  156.9181 C   0  0  0  0  0  0  0  0  0  0  0  0
  148.0663  133.1560  153.2227 C   0  0  0  0  0  0  0  0  0  0  0  0
  147.2797  132.2327  152.2829 C   0  0  2  0  0  0  0  0  0  0  0  0
  146.1416  132.9697  151.6545 N   0  3  0  0  0  0  0  0  0  0  0  0
  145.3161  132.0917  150.7838 C   0  0  0  0  0  0  0  0  0  0  0  0
  144.2019  132.8919  150.0901 C   0  0  0  0  0  0  0  0  0  0  0  0
  143.3952  133.5265  151.0716 O   0  0  0  0  0  0  0  0  0  0  0  0
  144.1461  134.4505  151.8461 C   0  0  0  0  0  0  0  0  0  0  0  0
  145.2691  133.7147  152.5976 C   0  0  0  0  0  0  0  0  0  0  0  0
  147.6758  129.4154  152.0022 H   0  0  0  0  0  0  0  0  0  0  0  0
  145.9478  129.6525  151.8112 H   0  0  0  0  0  0  0  0  0  0  0  0
  146.5676  128.9064  153.2688 H   0  0  0  0  0  0  0  0  0  0  0  0
  145.9820  131.3051  153.7471 H   0  0  0  0  0  0  0  0  0  0  0  0
  147.6421  130.8631  155.2595 H   0  0  0  0  0  0  0  0  0  0  0  0
  148.7401  130.2071  154.0433 H   0  0  0  0  0  0  0  0  0  0  0  0
  150.7690  131.6299  157.9953 H   0  0  0  0  0  0  0  0  0  0  0  0
  150.2556  137.2501  154.8953 H   0  0  0  0  0  0  0  0  0  0  0  0
  151.9536  135.9593  158.1014 H   0  0  0  0  0  0  0  0  0  0  0  0
  149.7209  137.8195  158.0592 H   0  0  0  0  0  0  0  0  0  0  0  0
  151.1306  137.8945  159.1622 H   0  0  0  0  0  0  0  0  0  0  0  0
  150.4209  138.3716  155.3277 H   0  0  0  0  0  0  0  0  0  0  0  0
  149.6736  139.6247  156.2796 H   0  0  0  0  0  0  0  0  0  0  0  0
  151.6037  140.8902  155.7314 H   0  0  0  0  0  0  0  0  0  0  0  0
  152.3791  140.8220  157.0578 H   0  0  0  0  0  0  0  0  0  0  0  0
  151.2237  140.6393  158.3597 H   0  0  0  0  0  0  0  0  0  0  0  0
  152.7465  139.4315  159.4691 H   0  0  0  0  0  0  0  0  0  0  0  0
  153.3929  137.7470  157.5770 H   0  0  0  0  0  0  0  0  0  0  0  0
  152.8458  137.6156  155.8807 H   0  0  0  0  0  0  0  0  0  0  0  0
  147.3912  133.8069  153.7807 H   0  0  0  0  0  0  0  0  0  0  0  0
  148.7753  133.7796  152.6770 H   0  0  0  0  0  0  0  0  0  0  0  0
  147.9491  131.8597  151.5054 H   0  0  0  0  0  0  0  0  0  0  0  0
  145.9340  131.6162  150.0224 H   0  0  0  0  0  0  0  0  0  0  0  0
  144.8781  131.2920  151.3831 H   0  0  0  0  0  0  0  0  0  0  0  0
  144.6190  133.6318  149.4050 H   0  0  0  0  0  0  0  0  0  0  0  0
  143.5754  132.2258  149.4964 H   0  0  0  0  0  0  0  0  0  0  0  0
  144.5553  135.2327  151.2045 H   0  0  0  0  0  0  0  0  0  0  0  0
  143.4786  134.9401  152.5554 H   0  0  0  0  0  0  0  0  0  0  0  0
  144.8435  133.0254  153.3287 H   0  0  0  0  0  0  0  0  0  0  0  0
  145.8482  134.4610  153.1390 H   0  0  0  0  0  0  0  0  0  0  0  0
  146.5563  133.6671  151.0527 H   0  0  0  0  0  0  0  0  0  0  0  0
  1  2  1  0  0  0  0
  1 30  1  0  0  0  0
  1 31  1  0  0  0  0
  1 32  1  0  0  0  0
  2 23  1  0  0  0  0
  2  3  1  0  0  0  0
  2 33  1  0  0  0  0
  3  4  1  0  0  0  0
  3 34  1  0  0  0  0
  3 35  1  0  0  0  0
  4  5  1  0  0  0  0
  4 22  1  0  0  0  0
  5 10  1  0  0  0  0
  5  6  2  0  0  0  0
  6  7  1  0  0  0  0
  7  8  2  0  0  0  0
  7 36  1  0  0  0  0
  8  9  1  0  0  0  0
  9 13  1  0  0  0  0
  9 10  2  0  0  0  0
 10 11  1  0  0  0  0
 11 12  2  0  0  0  0
 12 13  1  0  0  0  0
 12 37  1  0  0  0  0
 13 14  1  0  0  0  0
 14 21  1  0  0  0  0
 14 15  1  0  0  0  0
 14 38  1  0  0  0  0
 15 16  1  0  0  0  0
 15 39  1  0  0  0  0
 15 40  1  0  0  0  0
 16 17  1  0  0  0  0
 16 19  1  0  0  0  0
 16 21  1  0  0  0  0
 17 18  1  0  0  0  0
 17 41  1  0  0  0  0
 17 42  1  0  0  0  0
 18 43  1  0  0  0  0
 19 20  1  0  0  0  0
 19 44  1  0  0  0  0
 19 45  1  0  0  0  0
 20 46  1  0  0  0  0
 21 47  1  0  0  0  0
 21 48  1  0  0  0  0
 22 23  1  0  0  0  0
 22 49  1  0  0  0  0
 22 50  1  0  0  0  0
 23 24  1  0  0  0  0
 23 51  1  0  0  0  0
 24 29  1  0  0  0  0
 24 25  1  0  0  0  0
 24 60  1  0  0  0  0
 25 26  1  0  0  0  0
 25 52  1  0  0  0  0
 25 53  1  0  0  0  0
 26 27  1  0  0  0  0
 26 54  1  0  0  0  0
 26 55  1  0  0  0  0
 27 28  1  0  0  0  0
 28 29  1  0  0  0  0
 28 56  1  0  0  0  0
 28 57  1  0  0  0  0
 29 58  1  0  0  0  0
 29 59  1  0  0  0  0
M  CHG  1  24   1
M  END
> <s_m_source_file>
AV-unprocessed.smi

> <i_m_source_file_index>
149

> <i_lp_mmshare_version>
43012

> <i_f3d_flags>
0

> <s_epik_input>
W0NIMl0xW0NIMl1PW0NIMl1bQ0gyXU4xW0NAQEhdMltDSDJdTihbQ0gyXVtDQEhdMltDSDNdKWMobltjSF1uMyljKGMzNCluW2NIXW40W0NIXShbQ0gyXTUpW0NIMl1DNShbQ0gyXVtPSF0pW0NIMl1bT0hd

> <s_epik_cmdline>
J2VwaWtfcHl0aG9uJywgJy1waCcsICc3LjAnLCAnLXRuJywgJzgnLCAnLW1hJywgJzIwMCcsICctbWV0YWxfYmluZGluZycsICctaW1hZScsICc8aW5maWxlLm1hZT4nLCAnLW9tYWUnLCAnPG91dGZpbGUubWFlPic=

> <r_lp_tautomer_probability>
1

> <r_epik_Ionization_Penalty>
0.404847

> <r_epik_Ionization_Penalty_Charging>
0.404623

> <r_epik_Ionization_Penalty_Neutral>
0.000224096

> <r_epik_State_Penalty>
0.238803

> <r_epik_Charging_Adjusted_Penalty>
0.643425

> <i_epik_Tot_Q>
1

> <i_epik_Tot_abs_Q>
1

> <r_epik_Metal_State_Penalty>
0.239083

> <b_epik_Metal_Only>
0

> <s_lp_Force_Field>
OPLS_2005

> <r_lp_Energy>
71.3702

> <b_lp_Chiralities_Consistent>
1

> <s_lp_Variant>
AV-unprocessed.smi:149-4

> <Gold.Version>
5.8.1

> <Gold.Id.Protein>
6NUR|6NUR_protein|mol2

> <Gold.PLP.Fitness>
47.1099

> <Gold.PLP.PLP>
-40.0629

> <Gold.PLP.part.hbond>
-3.0000

> <Gold.PLP.part.metal>
0.0000

> <Gold.PLP.part.buried>
-6.3270

> <Gold.PLP.part.nonpolar>
-33.1849

> <Gold.PLP.part.repulsive>
1.9597

> <Gold.PLP.ligand.clash>
0.0000

> <Gold.PLP.ligand.torsion>
0.8276

> <Gold.PLP.Chemscore.Hbond>
2.6400

> <Gold.PLP.Chemscore.CHOScore>
0.0000

> <Gold.PLP.Chemscore.Metal>
0.0000

> <Gold.Chemscore.Hbonds>
donor molecule, donor type, donor heavy atom, donor atom, acceptor molecule, acceptor atom, score
      P1  H  6896  6908       L1     8  0.61
      P1  H  7989  7998       L1    18  1.00
      P1  H  7997  8009       L1    20  0.30

> <Gold.PLP.Chemscore.Internal.Correction>
0.7822

> <Gold.Rescore>
     Score         DG    S(hbond)    S(metal)    S(lipo)     H(rot)  DE(clash)    DE(int)     intcor
      9.35     -13.69       1.75        0.00      87.82       3.09       1.91       2.43       ----

> <Gold.Chemscore.Fitness>
9.3473

> <Gold.Chemscore.DG>
-13.6878

> <Gold.Chemscore.ZeroCoef>
-5.4800

> <Gold.Chemscore.Hbond>
1.7505

> <Gold.Chemscore.Metal>
0.0000

> <Gold.Chemscore.Lipo>
87.8183

> <Gold.Chemscore.Internal_Hbond>
0.0000

> <Gold.Chemscore.DEClash>
1.9122

> <Gold.Chemscore.DEInternal>
2.4284

> <Gold.Chemscore.Rot>
3.0912

> <Gold.Chemscore.Internal.Correction>
   9.000000E+99

> <Gold.Chemscore.Hbonds>
donor molecule, donor type, donor heavy atom, donor atom, acceptor molecule, acceptor atom, score
      P1  H  6896  6908       L1     8  0.14
      P1  H  7989  7998       L1    18  0.34
      P1  H  7997  8009       L1    20  0.05

> <Gold.Chemscore.Hbond.Weighted>
-5.8465

> <Gold.Chemscore.Metal.Weighted>
-0.0000

> <Gold.Chemscore.Lipo.Weighted>
-10.2747

> <Gold.Chemscore.Internal_Hbond.Weighted>
0.0000

> <Gold.Chemscore.DEClash.Weighted>
1.9122

> <Gold.Chemscore.DEInternal.Weighted>
2.4284

> <Gold.Chemscore.Rot.Weighted>
7.9135

> <Gold.Chemscore.Internal.Correction.Weighted>
   9.000000E+99

> <Gold.Protein.RotatedTorsions>
[ 6907 6896 6895 6894 ] final   86.04 input  -60.11 | X-H torsion
[ 7974 7965 7964 7962 ] final    3.24 input  175.53 | X-H torsion
[ 8008 7997 7996 7995 ] final  139.55 input   59.86 | X-H torsion
[ 10167 10162 10161 10158 ] final -136.09 input  -65.29 | X-H torsion
[ 10718 10713 10712 10709 ] final   46.27 input   66.30 | X-H torsion
[ 10763 10752 10751 10750 ] final  126.03 input  -60.55 | X-H torsion
[ 11005 11000 10999 10996 ] final   28.85 input  -57.11 | X-H torsion

> <Gold.Protein.ActiveResidues>
 VAL166  LYS551  ARG553  GLY616  TRP617  ASP618  TYR619  PRO620  LYS621  CYS622 
 ASP623  PHE694  ASN695  SER759  ASP760  ASP761  ALA762  ILE779  LEU786  VAL792 
 PHE793  MET794  SER795  GLU796  ALA797  LYS798  CYS799  TRP800  GLU811  SER814 

> <Gold.Protein.RotatedAtoms>
  152.5387  134.2493  159.8892 H   0  0  0  0  0  0  0  0  0  0  0  0  # atno 6907 bound_to 6896
  151.2457  133.4369  159.2617 H   0  0  0  0  0  0  0  0  0  0  0  0  # atno 6908 bound_to 6896
  151.0585  134.9735  159.8304 H   0  0  0  0  0  0  0  0  0  0  0  0  # atno 6909 bound_to 6896
  146.2445  140.0715  142.8362 H   0  0  0  0  0  0  0  0  0  0  0  0  # atno 7974 bound_to 7965
  156.2988  140.2364  156.4256 H   0  0  0  0  0  0  0  0  0  0  0  0  # atno 8008 bound_to 7997
  154.8316  140.0432  157.1501 H   0  0  0  0  0  0  0  0  0  0  0  0  # atno 8009 bound_to 7997
  154.9202  140.3002  155.5224 H   0  0  0  0  0  0  0  0  0  0  0  0  # atno 8010 bound_to 7997
  139.8713  143.6953  152.2639 H   0  0  0  0  0  0  0  0  0  0  0  0  # atno 10167 bound_to 10162
  157.4464  130.8112  149.7744 H   0  0  0  0  0  0  0  0  0  0  0  0  # atno 10718 bound_to 10713
  153.6868  135.3305  155.3192 H   0  0  0  0  0  0  0  0  0  0  0  0  # atno 10763 bound_to 10752
  154.8451  135.4422  154.1549 H   0  0  0  0  0  0  0  0  0  0  0  0  # atno 10764 bound_to 10752
  153.2580  135.6988  153.7685 H   0  0  0  0  0  0  0  0  0  0  0  0  # atno 10765 bound_to 10752
  140.3112  134.2647  155.7734 H   0  0  0  0  0  0  0  0  0  0  0  0  # atno 11005 bound_to 11000
  145.0812  140.9222  143.4824 LP  0  0  0  0  0  0  0  0  0  0  0  0  # atno 17320 bound_to 7965
  145.0868  139.2919  143.5755 LP  0  0  0  0  0  0  0  0  0  0  0  0  # atno 17321 bound_to 7965
  139.7281  144.7588  151.0846 LP  0  0  0  0  0  0  0  0  0  0  0  0  # atno 17342 bound_to 10162
  140.7760  143.5122  150.9638 LP  0  0  0  0  0  0  0  0  0  0  0  0  # atno 17343 bound_to 10162
  155.9969  130.3903  150.2761 LP  0  0  0  0  0  0  0  0  0  0  0  0  # atno 17370 bound_to 10713
  157.0930  131.0175  151.3114 LP  0  0  0  0  0  0  0  0  0  0  0  0  # atno 17371 bound_to 10713
  141.2107  133.7710  156.9910 LP  0  0  0  0  0  0  0  0  0  0  0  0  # atno 17394 bound_to 11000
  140.1023  134.9528  157.1941 LP  0  0  0  0  0  0  0  0  0  0  0  0  # atno 17395 bound_to 11000

$$$$
