AV-unprocessed.smi:2005|AV-procd|sdf|8126|dock5
  -GOLD-   2272010363D 1   1.00000     0.00000
 Structure written by MMmdl.
 39 40  0  0  0  0  0  0  0  0  1 V2000
  148.3900  123.2351  150.1805 C   0  0  0  0  0  0  0  0  0  0  0  0
  149.0187  123.8320  151.4480 C   0  0  0  0  0  0  0  0  0  0  0  0
  148.9028  122.9097  152.6705 C   0  0  0  0  0  0  0  0  0  0  0  0
  148.5135  125.2120  151.7331 C   0  0  0  0  0  0  0  0  0  0  0  0
  147.9264  125.5507  152.8890 N   0  0  0  0  0  0  0  0  0  0  0  0
  147.5486  126.8855  152.9189 N   0  0  0  0  0  0  0  0  0  0  0  0
  147.8613  127.5184  151.7802 C   0  0  0  0  0  0  0  0  0  0  0  0
  147.5916  128.8914  151.5398 N   0  0  0  0  0  0  0  0  0  0  0  0
  146.4618  129.5764  151.7891 C   0  0  0  0  0  0  0  0  0  0  0  0
  145.4349  129.1041  152.2777 O   0  0  0  0  0  0  0  0  0  0  0  0
  146.5916  130.8648  151.4405 N   0  0  0  0  0  0  0  0  0  0  0  0
  145.5652  131.8911  151.5963 C   0  0  2  0  0  0  0  0  0  0  0  0
  144.8113  132.0695  150.2657 C   0  0  0  0  0  0  0  0  0  0  0  0
  143.7579  133.1876  150.3548 C   0  0  0  0  0  0  0  0  0  0  0  0
  144.3614  134.5213  150.8333 C   0  0  2  0  0  0  0  0  0  0  0  0
  145.1982  135.0620  149.8296 O   0  0  0  0  0  0  0  0  0  0  0  0
  145.1515  134.3459  152.1437 C   0  0  0  0  0  0  0  0  0  0  0  0
  146.1987  133.2224  152.0488 C   0  0  0  0  0  0  0  0  0  0  0  0
  148.6460  126.5235  150.5661 S   0  0  0  0  0  0  0  0  0  0  0  0
  148.5681  123.8752  149.3158 H   0  0  0  0  0  0  0  0  0  0  0  0
  147.3117  123.1161  150.2909 H   0  0  0  0  0  0  0  0  0  0  0  0
  148.8110  122.2544  149.9573 H   0  0  0  0  0  0  0  0  0  0  0  0
  150.0852  123.9324  151.2420 H   0  0  0  0  0  0  0  0  0  0  0  0
  149.4292  123.3283  153.5291 H   0  0  0  0  0  0  0  0  0  0  0  0
  149.3335  121.9294  152.4649 H   0  0  0  0  0  0  0  0  0  0  0  0
  147.8615  122.7606  152.9584 H   0  0  0  0  0  0  0  0  0  0  0  0
  148.3550  129.4181  151.1417 H   0  0  0  0  0  0  0  0  0  0  0  0
  147.4722  131.1635  151.0474 H   0  0  0  0  0  0  0  0  0  0  0  0
  144.8466  131.5670  152.3518 H   0  0  0  0  0  0  0  0  0  0  0  0
  145.5185  132.3007  149.4677 H   0  0  0  0  0  0  0  0  0  0  0  0
  144.3262  131.1342  149.9839 H   0  0  0  0  0  0  0  0  0  0  0  0
  143.2681  133.3190  149.3892 H   0  0  0  0  0  0  0  0  0  0  0  0
  142.9767  132.8815  151.0515 H   0  0  0  0  0  0  0  0  0  0  0  0
  143.5563  135.2387  150.9954 H   0  0  0  0  0  0  0  0  0  0  0  0
  145.3446  134.3998  149.1715 H   0  0  0  0  0  0  0  0  0  0  0  0
  145.6323  135.2834  152.4251 H   0  0  0  0  0  0  0  0  0  0  0  0
  144.4548  134.1096  152.9489 H   0  0  0  0  0  0  0  0  0  0  0  0
  146.6840  133.0977  153.0174 H   0  0  0  0  0  0  0  0  0  0  0  0
  146.9829  133.5149  151.3491 H   0  0  0  0  0  0  0  0  0  0  0  0
  1  2  1  0  0  0  0
  1 20  1  0  0  0  0
  1 21  1  0  0  0  0
  1 22  1  0  0  0  0
  2  3  1  0  0  0  0
  2  4  1  0  0  0  0
  2 23  1  0  0  0  0
  3 24  1  0  0  0  0
  3 25  1  0  0  0  0
  3 26  1  0  0  0  0
  4 19  1  0  0  0  0
  4  5  2  0  0  0  0
  5  6  1  0  0  0  0
  6  7  2  0  0  0  0
  7  8  1  0  0  0  0
  7 19  1  0  0  0  0
  8  9  1  0  0  0  0
  8 27  1  0  0  0  0
  9 10  2  0  0  0  0
  9 11  1  0  0  0  0
 11 12  1  0  0  0  0
 11 28  1  0  0  0  0
 12 18  1  0  0  0  0
 12 13  1  0  0  0  0
 12 29  1  0  0  0  0
 13 14  1  0  0  0  0
 13 30  1  0  0  0  0
 13 31  1  0  0  0  0
 14 15  1  0  0  0  0
 14 32  1  0  0  0  0
 14 33  1  0  0  0  0
 15 16  1  0  0  0  0
 15 17  1  0  0  0  0
 15 34  1  0  0  0  0
 16 35  1  0  0  0  0
 17 18  1  0  0  0  0
 17 36  1  0  0  0  0
 17 37  1  0  0  0  0
 18 38  1  0  0  0  0
 18 39  1  0  0  0  0
M  END
> <s_m_source_file>
AV-unprocessed.smi

> <i_m_source_file_index>
2005

> <i_lp_mmshare_version>
43012

> <i_f3d_flags>
0

> <s_epik_input>
W0NIM11bQ0hdKFtDSDNdKWMxbm5jKHMxKVtOSF1DKD1PKVtOSF1bQ0BASF0yW0NIMl1bQ0gyXVtDQEBIXShbT0hdKVtDSDJdW0NIMl0y

> <s_epik_cmdline>
J2VwaWtfcHl0aG9uJywgJy1waCcsICc3LjAnLCAnLXRuJywgJzgnLCAnLW1hJywgJzIwMCcsICctbWV0YWxfYmluZGluZycsICctaW1hZScsICc8aW5maWxlLm1hZT4nLCAnLW9tYWUnLCAnPG91dGZpbGUubWFlPic=

> <r_lp_tautomer_probability>
1

> <r_epik_Ionization_Penalty>
0.000372581

> <r_epik_Ionization_Penalty_Charging>
0

> <r_epik_Ionization_Penalty_Neutral>
0.000372581

> <r_epik_State_Penalty>
-0

> <r_epik_Charging_Adjusted_Penalty>
0

> <i_epik_Tot_Q>
0

> <i_epik_Tot_abs_Q>
0

> <r_epik_Metal_State_Penalty>
0.186152

> <b_epik_Metal_Only>
0

> <s_lp_Force_Field>
OPLS_2005

> <r_lp_Energy>
3.3573

> <b_lp_Chiralities_Consistent>
1

> <s_lp_Variant>
AV-unprocessed.smi:2005-2

> <Gold.Version>
5.8.1

> <Gold.Id.Protein>
6NUR|6NUR_protein|mol2

> <Gold.PLP.Fitness>
42.2315

> <Gold.PLP.PLP>
-36.0718

> <Gold.PLP.part.hbond>
-4.3801

> <Gold.PLP.part.metal>
0.0000

> <Gold.PLP.part.buried>
-6.1181

> <Gold.PLP.part.nonpolar>
-26.4762

> <Gold.PLP.part.repulsive>
0.2816

> <Gold.PLP.ligand.clash>
0.0000

> <Gold.PLP.ligand.torsion>
0.7247

> <Gold.PLP.Chemscore.Hbond>
2.5100

> <Gold.PLP.Chemscore.CHOScore>
0.0000

> <Gold.PLP.Chemscore.Metal>
0.0000

> <Gold.Chemscore.Hbonds>
donor molecule, donor type, donor heavy atom, donor atom, acceptor molecule, acceptor atom, score
      L1  H     8    27       P1 10747  0.95
      L1  H    11    28       P1 10747  1.00
      L1  H    16    35       P1  7921  0.42

> <Gold.PLP.Chemscore.Internal.Correction>
0.0790

> <Gold.Rescore>
     Score         DG    S(hbond)    S(metal)    S(lipo)     H(rot)  DE(clash)    DE(int)     intcor
     13.29     -14.62       1.75        0.00      65.76       1.72       0.56       0.77       ----

> <Gold.Chemscore.Fitness>
13.2862

> <Gold.Chemscore.DG>
-14.6203

> <Gold.Chemscore.ZeroCoef>
-5.4800

> <Gold.Chemscore.Hbond>
1.7519

> <Gold.Chemscore.Metal>
0.0000

> <Gold.Chemscore.Lipo>
65.7610

> <Gold.Chemscore.Internal_Hbond>
0.0000

> <Gold.Chemscore.DEClash>
0.5596

> <Gold.Chemscore.DEInternal>
0.7745

> <Gold.Chemscore.Rot>
1.7207

> <Gold.Chemscore.Internal.Correction>
   9.000000E+99

> <Gold.Chemscore.Hbonds>
donor molecule, donor type, donor heavy atom, donor atom, acceptor molecule, acceptor atom, score
      L1  H     8    27       P1 10747  0.21
      L1  H    11    28       P1 10747  0.96
      L1  H    16    35       P1  7921  0.41

> <Gold.Chemscore.Hbond.Weighted>
-5.8514

> <Gold.Chemscore.Metal.Weighted>
-0.0000

> <Gold.Chemscore.Lipo.Weighted>
-7.6940

> <Gold.Chemscore.Internal_Hbond.Weighted>
0.0000

> <Gold.Chemscore.DEClash.Weighted>
0.5596

> <Gold.Chemscore.DEInternal.Weighted>
0.7745

> <Gold.Chemscore.Rot.Weighted>
4.4051

> <Gold.Chemscore.Internal.Correction.Weighted>
   9.000000E+99

> <Gold.Protein.RotatedTorsions>
[ 6907 6896 6895 6894 ] final  -83.29 input  -60.11 | X-H torsion
[ 7974 7965 7964 7962 ] final -107.53 input  175.53 | X-H torsion
[ 8008 7997 7996 7995 ] final  -21.19 input   59.86 | X-H torsion
[ 10167 10162 10161 10158 ] final   50.82 input  -65.29 | X-H torsion
[ 10718 10713 10712 10709 ] final   37.84 input   66.30 | X-H torsion
[ 10763 10752 10751 10750 ] final  -67.34 input  -60.55 | X-H torsion
[ 11005 11000 10999 10996 ] final -127.64 input  -57.11 | X-H torsion

> <Gold.Protein.ActiveResidues>
 VAL166  LYS551  ARG553  GLY616  TRP617  ASP618  TYR619  PRO620  LYS621  CYS622 
 ASP623  PHE694  ASN695  SER759  ASP760  ASP761  ALA762  ILE779  LEU786  VAL792 
 PHE793  MET794  SER795  GLU796  ALA797  LYS798  CYS799  TRP800  GLU811  SER814 

> <Gold.Protein.RotatedAtoms>
  150.6887  134.3535  159.4918 H   0  0  0  0  0  0  0  0  0  0  0  0  # atno 6907 bound_to 6896
  152.1373  134.9087  160.0565 H   0  0  0  0  0  0  0  0  0  0  0  0  # atno 6908 bound_to 6896
  152.0234  133.3873  159.4304 H   0  0  0  0  0  0  0  0  0  0  0  0  # atno 6909 bound_to 6896
  145.2042  140.9069  143.3352 H   0  0  0  0  0  0  0  0  0  0  0  0  # atno 7974 bound_to 7965
  154.4721  140.2041  155.9968 H   0  0  0  0  0  0  0  0  0  0  0  0  # atno 8008 bound_to 7997
  156.1029  140.3241  155.7937 H   0  0  0  0  0  0  0  0  0  0  0  0  # atno 8009 bound_to 7997
  155.4767  140.0535  157.2963 H   0  0  0  0  0  0  0  0  0  0  0  0  # atno 8010 bound_to 7997
  140.2684  144.3294  150.6297 H   0  0  0  0  0  0  0  0  0  0  0  0  # atno 10167 bound_to 10162
  157.3517  130.7602  149.6983 H   0  0  0  0  0  0  0  0  0  0  0  0  # atno 10718 bound_to 10713
  154.3730  135.6091  153.5750 H   0  0  0  0  0  0  0  0  0  0  0  0  # atno 10763 bound_to 10752
  152.9790  135.5842  154.4500 H   0  0  0  0  0  0  0  0  0  0  0  0  # atno 10764 bound_to 10752
  154.4257  135.2847  155.1924 H   0  0  0  0  0  0  0  0  0  0  0  0  # atno 10765 bound_to 10752
  140.9583  134.0971  157.3994 H   0  0  0  0  0  0  0  0  0  0  0  0  # atno 11005 bound_to 11000
  144.9918  139.3682  143.6211 LP  0  0  0  0  0  0  0  0  0  0  0  0  # atno 17320 bound_to 7965
  146.3411  139.9104  142.8781 LP  0  0  0  0  0  0  0  0  0  0  0  0  # atno 17321 bound_to 7965
  140.5910  143.2168  151.7253 LP  0  0  0  0  0  0  0  0  0  0  0  0  # atno 17342 bound_to 10162
  139.4996  144.3939  152.0251 LP  0  0  0  0  0  0  0  0  0  0  0  0  # atno 17343 bound_to 10162
  155.9722  130.4139  150.4104 LP  0  0  0  0  0  0  0  0  0  0  0  0  # atno 17370 bound_to 10713
  157.2167  131.0473  151.2569 LP  0  0  0  0  0  0  0  0  0  0  0  0  # atno 17371 bound_to 10713
  139.8869  135.0085  156.6530 LP  0  0  0  0  0  0  0  0  0  0  0  0  # atno 17394 bound_to 11000
  140.7504  133.8902  155.8343 LP  0  0  0  0  0  0  0  0  0  0  0  0  # atno 17395 bound_to 11000

$$$$
