AV-unprocessed.smi:1080|AV-procd|sdf|4707|dock6
  -GOLD-   22720 3233D 1   1.00000     0.00000
 Structure written by MMmdl.
 48 50  0  0  0  0  0  0  0  0  1 V2000
  144.5041  136.5032  152.3833 O   0  0  0  0  0  0  0  0  0  0  0  0
  145.7009  136.4044  152.1134 C   0  0  0  0  0  0  0  0  0  0  0  0
  146.2750  135.3583  151.4929 N   0  0  0  0  0  0  0  0  0  0  0  0
  145.6636  134.1900  150.9611 C   0  0  0  0  0  0  0  0  0  0  0  0
  146.5094  133.1611  150.4972 C   0  0  0  0  0  0  0  0  0  0  0  0
  145.9292  132.0005  149.9474 C   0  0  0  0  0  0  0  0  0  0  0  0
  144.5968  131.8209  149.8307 N   0  0  0  0  0  0  0  0  0  0  0  0
  143.7889  132.8122  150.2625 C   0  0  0  0  0  0  0  0  0  0  0  0
  144.2652  134.0119  150.8284 C   0  0  0  0  0  0  0  0  0  0  0  0
  146.6131  137.3370  152.4250 N   0  0  0  0  0  0  0  0  0  0  0  0
  146.3490  138.6072  153.0961 C   0  0  2  0  0  0  0  0  0  0  0  0
  147.0535  139.7458  152.3378 C   0  0  0  0  0  0  0  0  0  0  0  0
  146.9235  141.0972  153.0702 C   0  0  0  0  0  0  0  0  0  0  0  0
  147.3294  141.0574  154.5662 C   0  0  2  0  0  0  0  0  0  0  0  0
  148.8612  141.0493  154.7990 C   0  0  0  0  0  0  0  0  0  0  0  0
  149.6084  141.0911  153.8210 O   0  0  0  0  0  0  0  0  0  0  0  0
  149.3539  141.0317  156.0645 N   0  0  0  0  0  0  0  0  0  0  0  0
  150.7833  141.2116  156.3506 C   0  0  0  0  0  0  0  0  0  0  0  0
  151.0224  142.6614  156.8056 C   0  0  0  0  0  0  0  0  0  0  0  0
  150.1194  143.0238  158.3448 S   0  0  0  0  0  0  0  0  0  0  0  0
  148.4697  142.4044  157.8874 C   0  0  0  0  0  0  0  0  0  0  0  0
  148.5614  140.9867  157.2999 C   0  0  0  0  0  0  0  0  0  0  0  0
  146.6294  139.8768  155.2777 C   0  0  0  0  0  0  0  0  0  0  0  0
  146.8334  138.5345  154.5547 C   0  0  0  0  0  0  0  0  0  0  0  0
  147.2814  135.3868  151.4209 H   0  0  0  0  0  0  0  0  0  0  0  0
  147.5836  133.2526  150.5631 H   0  0  0  0  0  0  0  0  0  0  0  0
  146.5535  131.1954  149.5891 H   0  0  0  0  0  0  0  0  0  0  0  0
  142.7277  132.6477  150.1476 H   0  0  0  0  0  0  0  0  0  0  0  0
  143.5558  134.7656  151.1323 H   0  0  0  0  0  0  0  0  0  0  0  0
  147.5729  137.1596  152.1674 H   0  0  0  0  0  0  0  0  0  0  0  0
  145.2783  138.8193  153.1046 H   0  0  0  0  0  0  0  0  0  0  0  0
  148.1038  139.4957  152.1907 H   0  0  0  0  0  0  0  0  0  0  0  0
  146.6302  139.8374  151.3370 H   0  0  0  0  0  0  0  0  0  0  0  0
  147.5026  141.8559  152.5423 H   0  0  0  0  0  0  0  0  0  0  0  0
  145.8849  141.4241  153.0040 H   0  0  0  0  0  0  0  0  0  0  0  0
  146.9405  141.9871  154.9785 H   0  0  0  0  0  0  0  0  0  0  0  0
  151.1049  140.5158  157.1267 H   0  0  0  0  0  0  0  0  0  0  0  0
  151.4117  140.9875  155.4875 H   0  0  0  0  0  0  0  0  0  0  0  0
  152.0848  142.8380  156.9736 H   0  0  0  0  0  0  0  0  0  0  0  0
  150.7009  143.3598  156.0320 H   0  0  0  0  0  0  0  0  0  0  0  0
  147.8364  142.4088  158.7747 H   0  0  0  0  0  0  0  0  0  0  0  0
  148.0184  143.0890  157.1684 H   0  0  0  0  0  0  0  0  0  0  0  0
  147.5675  140.5674  157.1535 H   0  0  0  0  0  0  0  0  0  0  0  0
  149.0354  140.3190  158.0207 H   0  0  0  0  0  0  0  0  0  0  0  0
  146.9785  139.7880  156.3069 H   0  0  0  0  0  0  0  0  0  0  0  0
  145.5610  140.0858  155.3446 H   0  0  0  0  0  0  0  0  0  0  0  0
  146.2917  137.7507  155.0856 H   0  0  0  0  0  0  0  0  0  0  0  0
  147.8870  138.2537  154.5864 H   0  0  0  0  0  0  0  0  0  0  0  0
  1  2  2  0  0  0  0
  2  3  1  0  0  0  0
  2 10  1  0  0  0  0
  3  4  1  0  0  0  0
  3 25  1  0  0  0  0
  4  9  1  0  0  0  0
  4  5  2  0  0  0  0
  5  6  1  0  0  0  0
  5 26  1  0  0  0  0
  6  7  2  0  0  0  0
  6 27  1  0  0  0  0
  7  8  1  0  0  0  0
  8  9  2  0  0  0  0
  8 28  1  0  0  0  0
  9 29  1  0  0  0  0
 10 11  1  0  0  0  0
 10 30  1  0  0  0  0
 11 24  1  0  0  0  0
 11 12  1  0  0  0  0
 11 31  1  0  0  0  0
 12 13  1  0  0  0  0
 12 32  1  0  0  0  0
 12 33  1  0  0  0  0
 13 14  1  0  0  0  0
 13 34  1  0  0  0  0
 13 35  1  0  0  0  0
 14 15  1  0  0  0  0
 14 23  1  0  0  0  0
 14 36  1  0  0  0  0
 15 16  2  0  0  0  0
 15 17  1  0  0  0  0
 17 22  1  0  0  0  0
 17 18  1  0  0  0  0
 18 19  1  0  0  0  0
 18 37  1  0  0  0  0
 18 38  1  0  0  0  0
 19 20  1  0  0  0  0
 19 39  1  0  0  0  0
 19 40  1  0  0  0  0
 20 21  1  0  0  0  0
 21 22  1  0  0  0  0
 21 41  1  0  0  0  0
 21 42  1  0  0  0  0
 22 43  1  0  0  0  0
 22 44  1  0  0  0  0
 23 24  1  0  0  0  0
 23 45  1  0  0  0  0
 23 46  1  0  0  0  0
 24 47  1  0  0  0  0
 24 48  1  0  0  0  0
M  END
> <s_m_source_file>
AV-unprocessed.smi

> <i_m_source_file_index>
1080

> <i_lp_mmshare_version>
43012

> <i_f3d_flags>
0

> <s_epik_input>
W2NIXTFbY0hdbltjSF1bY0hdYzFbTkhdQyg9TylbTkhdW0NAQEhdMltDSDJdW0NIMl1bQ0BIXShbQ0gyXVtDSDJdMilDKD1PKU4zW0NIMl1bQ0gyXVNbQ0gyXVtDSDJdMw==

> <s_epik_cmdline>
J2VwaWtfcHl0aG9uJywgJy1waCcsICc3LjAnLCAnLXRuJywgJzgnLCAnLW1hJywgJzIwMCcsICctbWV0YWxfYmluZGluZycsICctaW1hZScsICc8aW5maWxlLm1hZT4nLCAnLW9tYWUnLCAnPG91dGZpbGUubWFlPic=

> <r_epik_Ionization_Penalty>
0.118325

> <r_epik_Ionization_Penalty_Charging>
0

> <r_epik_Ionization_Penalty_Neutral>
0.118325

> <r_epik_State_Penalty>
0.107868

> <r_epik_Charging_Adjusted_Penalty>
0.107868

> <i_epik_Tot_Q>
0

> <i_epik_Tot_abs_Q>
0

> <r_epik_Metal_State_Penalty>
0.0897632

> <b_epik_Metal_Only>
0

> <s_lp_Force_Field>
OPLS_2005

> <r_lp_Energy>
32.5604

> <b_lp_Chiralities_Consistent>
1

> <s_lp_Variant>
AV-unprocessed.smi:1080-2

> <Gold.Version>
5.8.1

> <Gold.Id.Protein>
6NUR|6NUR_protein|mol2

> <Gold.PLP.Fitness>
54.0462

> <Gold.PLP.PLP>
-39.0741

> <Gold.PLP.part.hbond>
-4.7403

> <Gold.PLP.part.metal>
0.0000

> <Gold.PLP.part.buried>
-3.8584

> <Gold.PLP.part.nonpolar>
-32.9603

> <Gold.PLP.part.repulsive>
2.2721

> <Gold.PLP.ligand.clash>
0.0000

> <Gold.PLP.ligand.torsion>
0.2232

> <Gold.PLP.Chemscore.Hbond>
3.2970

> <Gold.PLP.Chemscore.CHOScore>
1.8184

> <Gold.PLP.Chemscore.Metal>
0.0000

> <Gold.Chemscore.Hbonds>
donor molecule, donor type, donor heavy atom, donor atom, acceptor molecule, acceptor atom, score
      L1  H     3    25       P1  7948  1.00
      L1  H    10    30       P1  7948  1.00
      P1  H  7989  7998       L1    16  0.34
      P1  H  8011  8017       L1    16  0.90
      L1  C     6    27       P1 10747  0.90
      L1  C     8    28       P1 10186  0.91

> <Gold.PLP.Chemscore.Internal.Correction>
0.0723

> <Gold.Rescore>
     Score         DG    S(hbond)    S(metal)    S(lipo)     H(rot)  DE(clash)    DE(int)     intcor
     19.43     -21.54       2.65        0.00      88.59       1.23       0.56       1.55       ----

> <Gold.Chemscore.Fitness>
19.4303

> <Gold.Chemscore.DG>
-21.5399

> <Gold.Chemscore.ZeroCoef>
-5.4800

> <Gold.Chemscore.Hbond>
2.6511

> <Gold.Chemscore.Metal>
0.0000

> <Gold.Chemscore.Lipo>
88.5927

> <Gold.Chemscore.Internal_Hbond>
0.0000

> <Gold.Chemscore.DEClash>
0.5598

> <Gold.Chemscore.DEInternal>
1.5498

> <Gold.Chemscore.Rot>
1.2344

> <Gold.Chemscore.Internal.Correction>
   9.000000E+99

> <Gold.Chemscore.Hbonds>
donor molecule, donor type, donor heavy atom, donor atom, acceptor molecule, acceptor atom, score
      L1  H     3    25       P1  7948  0.86
      L1  H    10    30       P1  7948  0.99
      P1  H  7989  7998       L1    16  0.32
      P1  H  8011  8017       L1    16  0.85
      P1  H 10785 10796       L1     7  0.03

> <Gold.Chemscore.Hbond.Weighted>
-8.8545

> <Gold.Chemscore.Metal.Weighted>
-0.0000

> <Gold.Chemscore.Lipo.Weighted>
-10.3653

> <Gold.Chemscore.Internal_Hbond.Weighted>
0.0000

> <Gold.Chemscore.DEClash.Weighted>
0.5598

> <Gold.Chemscore.DEInternal.Weighted>
1.5498

> <Gold.Chemscore.Rot.Weighted>
3.1600

> <Gold.Chemscore.Internal.Correction.Weighted>
   9.000000E+99

> <Gold.Protein.RotatedTorsions>
[ 6907 6896 6895 6894 ] final   88.22 input  -60.11 | X-H torsion
[ 7974 7965 7964 7962 ] final   46.90 input  175.53 | X-H torsion
[ 8008 7997 7996 7995 ] final   68.20 input   59.86 | X-H torsion
[ 10167 10162 10161 10158 ] final  -61.06 input  -65.29 | X-H torsion
[ 10718 10713 10712 10709 ] final    0.58 input   66.30 | X-H torsion
[ 10763 10752 10751 10750 ] final  -39.38 input  -60.55 | X-H torsion
[ 11005 11000 10999 10996 ] final   44.67 input  -57.11 | X-H torsion

> <Gold.Protein.ActiveResidues>
 VAL166  LYS551  ARG553  GLY616  TRP617  ASP618  TYR619  PRO620  LYS621  CYS622 
 ASP623  PHE694  ASN695  SER759  ASP760  ASP761  ALA762  ILE779  LEU786  VAL792 
 PHE793  MET794  SER795  GLU796  ALA797  LYS798  CYS799  TRP800  GLU811  SER814 

> <Gold.Protein.RotatedAtoms>
  152.5422  134.2155  159.8766 H   0  0  0  0  0  0  0  0  0  0  0  0  # atno 6907 bound_to 6896
  151.2135  133.4535  159.2606 H   0  0  0  0  0  0  0  0  0  0  0  0  # atno 6908 bound_to 6896
  151.0874  134.9908  159.8441 H   0  0  0  0  0  0  0  0  0  0  0  0  # atno 6909 bound_to 6896
  146.0347  139.4806  142.9816 H   0  0  0  0  0  0  0  0  0  0  0  0  # atno 7974 bound_to 7965
  155.7046  140.3495  155.4948 H   0  0  0  0  0  0  0  0  0  0  0  0  # atno 8008 bound_to 7997
  155.9410  140.1101  157.1078 H   0  0  0  0  0  0  0  0  0  0  0  0  # atno 8009 bound_to 7997
  154.4102  140.1213  156.4913 H   0  0  0  0  0  0  0  0  0  0  0  0  # atno 8010 bound_to 7997
  140.6030  143.2366  151.5884 H   0  0  0  0  0  0  0  0  0  0  0  0  # atno 10167 bound_to 10162
  156.8355  130.5503  149.5682 H   0  0  0  0  0  0  0  0  0  0  0  0  # atno 10718 bound_to 10713
  153.9284  135.6774  153.4746 H   0  0  0  0  0  0  0  0  0  0  0  0  # atno 10763 bound_to 10752
  153.0992  135.4836  154.8832 H   0  0  0  0  0  0  0  0  0  0  0  0  # atno 10764 bound_to 10752
  154.7441  135.3168  154.8634 H   0  0  0  0  0  0  0  0  0  0  0  0  # atno 10765 bound_to 10752
  140.1531  134.4437  155.8368 H   0  0  0  0  0  0  0  0  0  0  0  0  # atno 11005 bound_to 11000
  145.6983  141.0143  143.1518 LP  0  0  0  0  0  0  0  0  0  0  0  0  # atno 17320 bound_to 7965
  144.7046  139.8614  143.7434 LP  0  0  0  0  0  0  0  0  0  0  0  0  # atno 17321 bound_to 7965
  139.5305  144.2931  152.1136 LP  0  0  0  0  0  0  0  0  0  0  0  0  # atno 17342 bound_to 10162
  140.2115  144.4558  150.6383 LP  0  0  0  0  0  0  0  0  0  0  0  0  # atno 17343 bound_to 10162
  156.0910  130.5895  150.9732 LP  0  0  0  0  0  0  0  0  0  0  0  0  # atno 17370 bound_to 10713
  157.6384  131.0913  150.8302 LP  0  0  0  0  0  0  0  0  0  0  0  0  # atno 17371 bound_to 10713
  141.2201  133.6881  156.7457 LP  0  0  0  0  0  0  0  0  0  0  0  0  # atno 17394 bound_to 11000
  140.2581  134.8488  157.3732 LP  0  0  0  0  0  0  0  0  0  0  0  0  # atno 17395 bound_to 11000

$$$$
