AV-unprocessed.smi:47|AV-procd|sdf|433|dock9
  -GOLD-   2262016303D 1   1.00000     0.00000
 Structure written by MMmdl.
 32 34  0  0  0  0  0  0  0  0  2 V2000
  146.4106  139.6714  153.7140 O   0  0  0  0  0  0  0  0  0  0  0  0
  147.3110  140.7536  153.8183 C   0  0  1  0  0  0  0  0  0  0  0  0
  147.0340  141.6209  155.0516 C   0  0  0  0  0  0  0  0  0  0  0  0
  148.3374  142.1831  155.4596 N   0  3  0  0  0  0  0  0  0  0  0  0
  149.3957  141.5224  154.6666 C   0  0  1  0  0  0  0  0  0  0  0  0
  150.4993  141.2295  155.6392 C   0  0  0  0  0  0  0  0  0  0  0  0
  151.4675  140.3506  155.3596 N   0  0  0  0  0  0  0  0  0  0  0  0
  152.3185  140.2681  156.4046 N   0  0  0  0  0  0  0  0  0  0  0  0
  151.7743  141.1293  157.2626 C   0  0  0  0  0  0  0  0  0  0  0  0
  152.3705  141.3867  158.5945 C   0  0  0  0  0  0  0  0  0  0  0  0
  153.2787  140.4693  159.1774 C   0  0  0  0  0  0  0  0  0  0  0  0
  153.8472  140.7100  160.4434 C   0  0  0  0  0  0  0  0  0  0  0  0
  153.5166  141.8775  161.1535 C   0  0  0  0  0  0  0  0  0  0  0  0
  152.6175  142.8016  160.5928 C   0  0  0  0  0  0  0  0  0  0  0  0
  152.0516  142.5566  159.3266 C   0  0  0  0  0  0  0  0  0  0  0  0
  150.6357  141.7656  156.8512 N   0  0  0  0  0  0  0  0  0  0  0  0
  148.7478  140.2887  154.0338 C   0  0  0  0  0  0  0  0  0  0  0  0
  147.2530  141.3644  152.9160 H   0  0  0  0  0  0  0  0  0  0  0  0
  149.7377  142.2144  153.8954 H   0  0  0  0  0  0  0  0  0  0  0  0
  145.6372  139.9621  153.2546 H   0  0  0  0  0  0  0  0  0  0  0  0
  146.3011  142.4037  154.8551 H   0  0  0  0  0  0  0  0  0  0  0  0
  146.6625  141.0118  155.8772 H   0  0  0  0  0  0  0  0  0  0  0  0
  148.3624  143.1804  155.3036 H   0  0  0  0  0  0  0  0  0  0  0  0
  153.5530  139.5641  158.6560 H   0  0  0  0  0  0  0  0  0  0  0  0
  154.5380  139.9972  160.8692 H   0  0  0  0  0  0  0  0  0  0  0  0
  153.9516  142.0640  162.1245 H   0  0  0  0  0  0  0  0  0  0  0  0
  152.3605  143.7004  161.1336 H   0  0  0  0  0  0  0  0  0  0  0  0
  151.3637  143.2847  158.9224 H   0  0  0  0  0  0  0  0  0  0  0  0
  148.7585  139.4559  154.7400 H   0  0  0  0  0  0  0  0  0  0  0  0
  149.2463  139.9616  153.1208 H   0  0  0  0  0  0  0  0  0  0  0  0
  148.4861  141.9869  156.4396 H   0  0  0  0  0  0  0  0  0  0  0  0
  151.5824  139.8092  154.5142 H   0  0  0  0  0  0  0  0  0  0  0  0
  1  2  1  0  0  0  0
  1 20  1  0  0  0  0
  2 18  1  0  0  0  0
  2 17  1  0  0  0  0
  2  3  1  0  0  0  0
  3  4  1  0  0  0  0
  3 21  1  0  0  0  0
  3 22  1  0  0  0  0
  4  5  1  0  0  0  0
  4 23  1  0  0  0  0
  4 31  1  0  0  0  0
  5 19  1  0  0  0  0
  5  6  1  0  0  0  0
  5 17  1  0  0  0  0
  6 16  2  0  0  0  0
  6  7  1  0  0  0  0
  7  8  1  0  0  0  0
  7 32  1  0  0  0  0
  8  9  2  0  0  0  0
  9 10  1  0  0  0  0
  9 16  1  0  0  0  0
 10 15  1  0  0  0  0
 10 11  2  0  0  0  0
 11 12  1  0  0  0  0
 11 24  1  0  0  0  0
 12 13  2  0  0  0  0
 12 25  1  0  0  0  0
 13 14  1  0  0  0  0
 13 26  1  0  0  0  0
 14 15  2  0  0  0  0
 14 27  1  0  0  0  0
 15 28  1  0  0  0  0
 17 29  1  0  0  0  0
 17 30  1  0  0  0  0
M  CHG  1   4   1
M  END
> <s_m_source_file>
AV-unprocessed.smi

> <i_m_source_file_index>
47

> <i_lp_mmshare_version>
43012

> <i_f3d_flags>
0

> <s_epik_input>
W09IXVtDQEhdMVtDSDJdW05IXVtDQEBIXShbQ0gyXTEpYzJuW25IXWMobjIpLWMzW2NIXVtjSF1bY0hdW2NIXVtjSF0z

> <s_epik_cmdline>
J2VwaWtfcHl0aG9uJywgJy1waCcsICc3LjAnLCAnLXRuJywgJzgnLCAnLW1hJywgJzIwMCcsICctbWV0YWxfYmluZGluZycsICctaW1hZScsICc8aW5maWxlLm1hZT4nLCAnLW9tYWUnLCAnPG91dGZpbGUubWFlPic=

> <r_epik_Ionization_Penalty>
1.14296

> <r_epik_Ionization_Penalty_Charging>
0.0688988

> <r_epik_Ionization_Penalty_Neutral>
1.07406

> <r_epik_State_Penalty>
1.72347

> <r_epik_Charging_Adjusted_Penalty>
1.79237

> <i_epik_Tot_Q>
1

> <i_epik_Tot_abs_Q>
1

> <r_epik_Metal_State_Penalty>
2.22085

> <b_epik_Metal_Only>
0

> <s_lp_Force_Field>
OPLS_2005

> <r_lp_Energy>
30.8137

> <b_lp_Chiralities_Consistent>
1

> <s_lp_Variant>
AV-unprocessed.smi:47-11

> <Gold.Version>
5.8.1

> <Gold.Id.Protein>
6NUR|6NUR_protein|mol2

> <Gold.PLP.Fitness>
45.6682

> <Gold.PLP.PLP>
-35.7371

> <Gold.PLP.part.hbond>
-2.4564

> <Gold.PLP.part.metal>
0.0000

> <Gold.PLP.part.buried>
-4.2798

> <Gold.PLP.part.nonpolar>
-29.3076

> <Gold.PLP.part.repulsive>
0.8990

> <Gold.PLP.ligand.clash>
0.0000

> <Gold.PLP.ligand.torsion>
0.5273

> <Gold.PLP.Chemscore.Hbond>
3.6575

> <Gold.PLP.Chemscore.CHOScore>
0.0000

> <Gold.PLP.Chemscore.Metal>
0.0000

> <Gold.Chemscore.Hbonds>
donor molecule, donor type, donor heavy atom, donor atom, acceptor molecule, acceptor atom, score
      L1  H     1    20       P1 10175  0.67
      L1  H     4    23       P1  8028  2.00
      P1  H  7997  8008       L1     8  1.00

> <Gold.PLP.Chemscore.Internal.Correction>
0.0133

> <Gold.Rescore>
     Score         DG    S(hbond)    S(metal)    S(lipo)     H(rot)  DE(clash)    DE(int)     intcor
     18.58     -19.28       2.28        0.00      85.46       1.50       0.05       0.64       ----

> <Gold.Chemscore.Fitness>
18.5819

> <Gold.Chemscore.DG>
-19.2773

> <Gold.Chemscore.ZeroCoef>
-5.4800

> <Gold.Chemscore.Hbond>
2.2842

> <Gold.Chemscore.Metal>
0.0000

> <Gold.Chemscore.Lipo>
85.4644

> <Gold.Chemscore.Internal_Hbond>
0.0000

> <Gold.Chemscore.DEClash>
0.0526

> <Gold.Chemscore.DEInternal>
0.6428

> <Gold.Chemscore.Rot>
1.4966

> <Gold.Chemscore.Internal.Correction>
   9.000000E+99

> <Gold.Chemscore.Hbonds>
donor molecule, donor type, donor heavy atom, donor atom, acceptor molecule, acceptor atom, score
      L1  H     1    20       P1 10175  0.67
      L1  H     4    23       P1  8028  0.96
      P1  H  7997  8008       L1     8  0.87

> <Gold.Chemscore.Hbond.Weighted>
-7.6292

> <Gold.Chemscore.Metal.Weighted>
-0.0000

> <Gold.Chemscore.Lipo.Weighted>
-9.9993

> <Gold.Chemscore.Internal_Hbond.Weighted>
0.0000

> <Gold.Chemscore.DEClash.Weighted>
0.0526

> <Gold.Chemscore.DEInternal.Weighted>
0.6428

> <Gold.Chemscore.Rot.Weighted>
3.8312

> <Gold.Chemscore.Internal.Correction.Weighted>
   9.000000E+99

> <Gold.Protein.RotatedTorsions>
[ 6907 6896 6895 6894 ] final  -78.21 input  -60.11 | X-H torsion
[ 7974 7965 7964 7962 ] final  -60.32 input  175.53 | X-H torsion
[ 8008 7997 7996 7995 ] final  -44.69 input   59.86 | X-H torsion
[ 10167 10162 10161 10158 ] final  111.33 input  -65.29 | X-H torsion
[ 10718 10713 10712 10709 ] final  166.04 input   66.30 | X-H torsion
[ 10763 10752 10751 10750 ] final  -87.99 input  -60.55 | X-H torsion
[ 11005 11000 10999 10996 ] final  171.80 input  -57.11 | X-H torsion

> <Gold.Protein.ActiveResidues>
 VAL166  LYS551  ARG553  GLY616  TRP617  ASP618  TYR619  PRO620  LYS621  CYS622 
 ASP623  PHE694  ASN695  SER759  ASP760  ASP761  ALA762  ILE779  LEU786  VAL792 
 PHE793  MET794  SER795  GLU796  ALA797  LYS798  CYS799  TRP800  GLU811  SER814 

> <Gold.Protein.RotatedAtoms>
  150.6978  134.4307  159.5246 H   0  0  0  0  0  0  0  0  0  0  0  0  # atno 6907 bound_to 6896
  152.2034  134.8565  160.0514 H   0  0  0  0  0  0  0  0  0  0  0  0  # atno 6908 bound_to 6896
  151.9477  133.3621  159.4025 H   0  0  0  0  0  0  0  0  0  0  0  0  # atno 6909 bound_to 6896
  145.8169  140.8564  143.0153 H   0  0  0  0  0  0  0  0  0  0  0  0  # atno 7974 bound_to 7965
  154.3998  140.1416  156.3725 H   0  0  0  0  0  0  0  0  0  0  0  0  # atno 8008 bound_to 7997
  155.8080  140.3474  155.5420 H   0  0  0  0  0  0  0  0  0  0  0  0  # atno 8009 bound_to 7997
  155.8416  140.0927  157.1721 H   0  0  0  0  0  0  0  0  0  0  0  0  # atno 8010 bound_to 7997
  139.6619  144.7128  151.1848 H   0  0  0  0  0  0  0  0  0  0  0  0  # atno 10167 bound_to 10162
  157.0716  131.0368  151.2609 H   0  0  0  0  0  0  0  0  0  0  0  0  # atno 10718 bound_to 10713
  154.6396  135.5393  153.7774 H   0  0  0  0  0  0  0  0  0  0  0  0  # atno 10763 bound_to 10752
  153.0327  135.6456  154.1179 H   0  0  0  0  0  0  0  0  0  0  0  0  # atno 10764 bound_to 10752
  154.1104  135.2927  155.3212 H   0  0  0  0  0  0  0  0  0  0  0  0  # atno 10765 bound_to 10752
  140.3229  134.7422  157.4077 H   0  0  0  0  0  0  0  0  0  0  0  0  # atno 11005 bound_to 11000
  144.6751  140.0476  143.7479 LP  0  0  0  0  0  0  0  0  0  0  0  0  # atno 17320 bound_to 7965
  145.9717  139.2875  143.1095 LP  0  0  0  0  0  0  0  0  0  0  0  0  # atno 17321 bound_to 7965
  140.7584  143.5980  150.8729 LP  0  0  0  0  0  0  0  0  0  0  0  0  # atno 17342 bound_to 10162
  139.9638  143.6134  152.2994 LP  0  0  0  0  0  0  0  0  0  0  0  0  # atno 17343 bound_to 10162
  157.4873  130.7801  149.7473 LP  0  0  0  0  0  0  0  0  0  0  0  0  # atno 17370 bound_to 10713
  155.9949  130.3915  150.2841 LP  0  0  0  0  0  0  0  0  0  0  0  0  # atno 17371 bound_to 10713
  140.0926  134.5580  155.8429 LP  0  0  0  0  0  0  0  0  0  0  0  0  # atno 17394 bound_to 11000
  141.2082  133.6671  156.6357 LP  0  0  0  0  0  0  0  0  0  0  0  0  # atno 17395 bound_to 11000

$$$$
