AV-unprocessed.smi:193|AV-procd|sdf|1497|dock1
  -GOLD-   2262019323D 1   1.00000     0.00000
 Structure written by MMmdl.
 62 66  0  0  0  0  0  0  0  0  2 V2000
  150.5160  132.9252  155.3992 C   0  0  0  0  0  0  0  0  0  0  0  0
  149.6298  134.1668  155.2133 C   0  0  1  0  0  0  0  0  0  0  0  0
  150.4440  135.3347  154.6225 C   0  0  0  0  0  0  0  0  0  0  0  0
  149.9129  136.6360  155.0360 N   0  0  0  0  0  0  0  0  0  0  0  0
  150.8102  137.6425  155.1837 C   0  0  0  0  0  0  0  0  0  0  0  0
  152.1160  137.4406  154.8624 N   0  0  0  0  0  0  0  0  0  0  0  0
  153.0017  138.4333  154.9931 C   0  0  0  0  0  0  0  0  0  0  0  0
  152.7987  139.6826  155.4160 N   0  0  0  0  0  0  0  0  0  0  0  0
  151.4897  139.8905  155.7372 C   0  0  0  0  0  0  0  0  0  0  0  0
  150.4397  138.9340  155.6506 C   0  0  0  0  0  0  0  0  0  0  0  0
  149.2425  139.5034  156.0670 N   0  0  0  0  0  0  0  0  0  0  0  0
  149.5654  140.7299  156.3757 C   0  0  0  0  0  0  0  0  0  0  0  0
  150.8934  141.0492  156.2030 N   0  0  0  0  0  0  0  0  0  0  0  0
  151.5208  142.3351  156.4682 C   0  0  0  0  0  0  0  0  0  0  0  0
  151.2851  142.8642  157.9045 C   0  0  0  0  0  0  0  0  0  0  0  0
  151.7019  141.8549  158.8082 O   0  0  0  0  0  0  0  0  0  0  0  0
  152.1343  144.1257  158.1599 C   0  0  0  0  0  0  0  0  0  0  0  0
  151.8069  144.7814  159.5132 C   0  0  0  0  0  0  0  0  0  0  0  0
  150.4166  145.0718  159.5887 O   0  0  0  0  0  0  0  0  0  0  0  0
  149.6075  143.9031  159.5324 C   0  0  0  0  0  0  0  0  0  0  0  0
  149.8011  143.1884  158.1831 C   0  0  0  0  0  0  0  0  0  0  0  0
  148.6231  137.0881  154.5185 C   0  0  0  0  0  0  0  0  0  0  0  0
  147.4782  136.0939  154.7613 C   0  0  0  0  0  0  0  0  0  0  0  0
  147.5962  134.9338  153.8468 N   0  3  2  0  0  0  0  0  0  0  0  0
  146.2843  134.4957  153.3197 C   0  0  2  0  0  0  0  0  0  0  0  0
  146.3873  133.5231  152.1679 C   0  0  0  0  0  0  0  0  0  0  0  0
  146.0078  134.9654  151.9086 C   0  0  1  0  0  0  0  0  0  0  0  0
  144.6014  135.3177  151.4772 C   0  0  0  0  0  0  0  0  0  0  0  0
  148.3799  133.7907  154.3831 C   0  0  0  0  0  0  0  0  0  0  0  0
  150.9116  132.5721  154.4462 H   0  0  0  0  0  0  0  0  0  0  0  0
  149.9559  132.1066  155.8518 H   0  0  0  0  0  0  0  0  0  0  0  0
  151.3636  133.1391  156.0513 H   0  0  0  0  0  0  0  0  0  0  0  0
  149.3069  134.4572  156.2144 H   0  0  0  0  0  0  0  0  0  0  0  0
  151.4720  135.2490  154.9785 H   0  0  0  0  0  0  0  0  0  0  0  0
  150.4870  135.2705  153.5344 H   0  0  0  0  0  0  0  0  0  0  0  0
  154.0181  138.1928  154.7188 H   0  0  0  0  0  0  0  0  0  0  0  0
  148.8387  141.4433  156.7370 H   0  0  0  0  0  0  0  0  0  0  0  0
  152.5897  142.2396  156.2704 H   0  0  0  0  0  0  0  0  0  0  0  0
  151.1427  143.0527  155.7390 H   0  0  0  0  0  0  0  0  0  0  0  0
  151.0421  141.1786  158.8268 H   0  0  0  0  0  0  0  0  0  0  0  0
  153.1978  143.8891  158.1060 H   0  0  0  0  0  0  0  0  0  0  0  0
  151.9440  144.8542  157.3705 H   0  0  0  0  0  0  0  0  0  0  0  0
  152.1020  144.1389  160.3441 H   0  0  0  0  0  0  0  0  0  0  0  0
  152.3660  145.7110  159.6214 H   0  0  0  0  0  0  0  0  0  0  0  0
  149.8470  143.2414  160.3661 H   0  0  0  0  0  0  0  0  0  0  0  0
  148.5636  144.1940  159.6517 H   0  0  0  0  0  0  0  0  0  0  0  0
  149.4210  143.8357  157.3918 H   0  0  0  0  0  0  0  0  0  0  0  0
  149.1922  142.2838  158.1577 H   0  0  0  0  0  0  0  0  0  0  0  0
  148.3493  138.0343  154.9858 H   0  0  0  0  0  0  0  0  0  0  0  0
  148.7190  137.2965  153.4519 H   0  0  0  0  0  0  0  0  0  0  0  0
  147.4088  135.7857  155.8053 H   0  0  0  0  0  0  0  0  0  0  0  0
  146.5475  136.6212  154.5465 H   0  0  0  0  0  0  0  0  0  0  0  0
  145.4767  134.4088  154.0448 H   0  0  0  0  0  0  0  0  0  0  0  0
  147.3766  133.2016  151.8476 H   0  0  0  0  0  0  0  0  0  0  0  0
  145.6049  132.7723  152.0769 H   0  0  0  0  0  0  0  0  0  0  0  0
  146.7732  135.5812  151.4387 H   0  0  0  0  0  0  0  0  0  0  0  0
  143.8724  134.6732  151.9695 H   0  0  0  0  0  0  0  0  0  0  0  0
  144.4993  135.1979  150.3987 H   0  0  0  0  0  0  0  0  0  0  0  0
  144.3795  136.3532  151.7357 H   0  0  0  0  0  0  0  0  0  0  0  0
  148.6761  133.1749  153.5329 H   0  0  0  0  0  0  0  0  0  0  0  0
  147.7294  133.1683  154.9997 H   0  0  0  0  0  0  0  0  0  0  0  0
  148.1106  135.2777  153.0485 H   0  0  0  0  0  0  0  0  0  0  0  0
  1  2  1  0  0  0  0
  1 30  1  0  0  0  0
  1 31  1  0  0  0  0
  1 32  1  0  0  0  0
  2 29  1  0  0  0  0
  2  3  1  0  0  0  0
  2 33  1  0  0  0  0
  3  4  1  0  0  0  0
  3 34  1  0  0  0  0
  3 35  1  0  0  0  0
  4  5  1  0  0  0  0
  4 22  1  0  0  0  0
  5 10  1  0  0  0  0
  5  6  2  0  0  0  0
  6  7  1  0  0  0  0
  7  8  2  0  0  0  0
  7 36  1  0  0  0  0
  8  9  1  0  0  0  0
  9 13  1  0  0  0  0
  9 10  2  0  0  0  0
 10 11  1  0  0  0  0
 11 12  2  0  0  0  0
 12 13  1  0  0  0  0
 12 37  1  0  0  0  0
 13 14  1  0  0  0  0
 14 15  1  0  0  0  0
 14 38  1  0  0  0  0
 14 39  1  0  0  0  0
 15 21  1  0  0  0  0
 15 16  1  0  0  0  0
 15 17  1  0  0  0  0
 16 40  1  0  0  0  0
 17 18  1  0  0  0  0
 17 41  1  0  0  0  0
 17 42  1  0  0  0  0
 18 19  1  0  0  0  0
 18 43  1  0  0  0  0
 18 44  1  0  0  0  0
 19 20  1  0  0  0  0
 20 21  1  0  0  0  0
 20 45  1  0  0  0  0
 20 46  1  0  0  0  0
 21 47  1  0  0  0  0
 21 48  1  0  0  0  0
 22 23  1  0  0  0  0
 22 49  1  0  0  0  0
 22 50  1  0  0  0  0
 23 24  1  0  0  0  0
 23 51  1  0  0  0  0
 23 52  1  0  0  0  0
 24 25  1  0  0  0  0
 24 29  1  0  0  0  0
 24 62  1  0  0  0  0
 25 27  1  0  0  0  0
 25 26  1  0  0  0  0
 25 53  1  0  0  0  0
 26 27  1  0  0  0  0
 26 54  1  0  0  0  0
 26 55  1  0  0  0  0
 27 28  1  0  0  0  0
 27 56  1  0  0  0  0
 28 57  1  0  0  0  0
 28 58  1  0  0  0  0
 28 59  1  0  0  0  0
 29 60  1  0  0  0  0
 29 61  1  0  0  0  0
M  CHG  1  24   1
M  END
> <s_m_source_file>
AV-unprocessed.smi

> <i_m_source_file_index>
193

> <i_lp_mmshare_version>
43012

> <i_f3d_flags>
0

> <s_epik_input>
W0NIM11bQ0BASF0xW0NIMl1bQ0BIXTFOKFtDSDJdMilbQ0gyXVtDSDJdTihbQ0gyXVtDQEhdMltDSDNdKWMobltjSF1uMyljKGMzNCluW2NIXW40W0NIMl1DNShbT0hdKVtDSDJdW0NIMl1PW0NIMl1bQ0gyXTU=

> <s_epik_cmdline>
J2VwaWtfcHl0aG9uJywgJy1waCcsICc3LjAnLCAnLXRuJywgJzgnLCAnLW1hJywgJzIwMCcsICctbWV0YWxfYmluZGluZycsICctaW1hZScsICc8aW5maWxlLm1hZT4nLCAnLW9tYWUnLCAnPG91dGZpbGUubWFlPic=

> <r_lp_tautomer_probability>
1

> <r_epik_Ionization_Penalty>
0.0540825

> <r_epik_Ionization_Penalty_Charging>
0.0538476

> <r_epik_Ionization_Penalty_Neutral>
0.000234891

> <r_epik_State_Penalty>
0.0200719

> <r_epik_Charging_Adjusted_Penalty>
0.0739194

> <i_epik_Tot_Q>
1

> <i_epik_Tot_abs_Q>
1

> <r_epik_Metal_State_Penalty>
0.0199414

> <b_epik_Metal_Only>
0

> <s_lp_Force_Field>
OPLS_2005

> <r_lp_Energy>
54.7229

> <b_lp_Chiralities_Consistent>
1

> <s_lp_Variant>
AV-unprocessed.smi:193-2

> <Gold.Version>
5.8.1

> <Gold.Id.Protein>
6NUR|6NUR_protein|mol2

> <Gold.PLP.Fitness>
52.9275

> <Gold.PLP.PLP>
-41.7544

> <Gold.PLP.part.hbond>
-3.1354

> <Gold.PLP.part.metal>
0.0000

> <Gold.PLP.part.buried>
-3.4119

> <Gold.PLP.part.nonpolar>
-36.7335

> <Gold.PLP.part.repulsive>
0.4085

> <Gold.PLP.ligand.clash>
0.0000

> <Gold.PLP.ligand.torsion>
1.0601

> <Gold.PLP.Chemscore.Hbond>
3.8089

> <Gold.PLP.Chemscore.CHOScore>
0.0000

> <Gold.PLP.Chemscore.Metal>
0.0000

> <Gold.Chemscore.Hbonds>
donor molecule, donor type, donor heavy atom, donor atom, acceptor molecule, acceptor atom, score
      L1  H    24    62       P1  7948  2.00
      P1  H  7997  8008       L1     8  1.00
      P1  H 10752 10763       L1     6  0.78

> <Gold.PLP.Chemscore.Internal.Correction>
1.8668

> <Gold.Rescore>
     Score         DG    S(hbond)    S(metal)    S(lipo)     H(rot)  DE(clash)    DE(int)     intcor
     15.37     -20.49       2.48        0.00     105.56       2.20       2.78       2.33       ----

> <Gold.Chemscore.Fitness>
15.3740

> <Gold.Chemscore.DG>
-20.4890

> <Gold.Chemscore.ZeroCoef>
-5.4800

> <Gold.Chemscore.Hbond>
2.4836

> <Gold.Chemscore.Metal>
0.0000

> <Gold.Chemscore.Lipo>
105.5592

> <Gold.Chemscore.Internal_Hbond>
0.0000

> <Gold.Chemscore.DEClash>
2.7802

> <Gold.Chemscore.DEInternal>
2.3349

> <Gold.Chemscore.Rot>
2.2018

> <Gold.Chemscore.Internal.Correction>
   9.000000E+99

> <Gold.Chemscore.Hbonds>
donor molecule, donor type, donor heavy atom, donor atom, acceptor molecule, acceptor atom, score
      L1  H    24    62       P1  7948  0.99
      P1  H  7997  8008       L1     8  0.45
      P1  H 10752 10763       L1     6  0.66

> <Gold.Chemscore.Hbond.Weighted>
-8.2952

> <Gold.Chemscore.Metal.Weighted>
-0.0000

> <Gold.Chemscore.Lipo.Weighted>
-12.3504

> <Gold.Chemscore.Internal_Hbond.Weighted>
0.0000

> <Gold.Chemscore.DEClash.Weighted>
2.7802

> <Gold.Chemscore.DEInternal.Weighted>
2.3349

> <Gold.Chemscore.Rot.Weighted>
5.6366

> <Gold.Chemscore.Internal.Correction.Weighted>
   9.000000E+99

> <Gold.Protein.RotatedTorsions>
[ 6907 6896 6895 6894 ] final   45.62 input  -60.11 | X-H torsion
[ 7974 7965 7964 7962 ] final -129.71 input  175.53 | X-H torsion
[ 8008 7997 7996 7995 ] final  -30.47 input   59.86 | X-H torsion
[ 10167 10162 10161 10158 ] final  -33.04 input  -65.29 | X-H torsion
[ 10718 10713 10712 10709 ] final   59.99 input   66.30 | X-H torsion
[ 10763 10752 10751 10750 ] final   55.53 input  -60.55 | X-H torsion
[ 11005 11000 10999 10996 ] final   54.96 input  -57.11 | X-H torsion

> <Gold.Protein.ActiveResidues>
 VAL166  LYS551  ARG553  GLY616  TRP617  ASP618  TYR619  PRO620  LYS621  CYS622 
 ASP623  PHE694  ASN695  SER759  ASP760  ASP761  ALA762  ILE779  LEU786  VAL792 
 PHE793  MET794  SER795  GLU796  ALA797  LYS798  CYS799  TRP800  GLU811  SER814 

> <Gold.Protein.RotatedAtoms>
  152.2467  134.8174  160.0452 H   0  0  0  0  0  0  0  0  0  0  0  0  # atno 6907 bound_to 6896
  151.8870  133.3502  159.3793 H   0  0  0  0  0  0  0  0  0  0  0  0  # atno 6908 bound_to 6896
  150.7070  134.4888  159.5550 H   0  0  0  0  0  0  0  0  0  0  0  0  # atno 6909 bound_to 6896
  144.9545  140.7380  143.4767 H   0  0  0  0  0  0  0  0  0  0  0  0  # atno 7974 bound_to 7965
  154.4249  140.1790  156.1412 H   0  0  0  0  0  0  0  0  0  0  0  0  # atno 8008 bound_to 7997
  155.9990  140.3362  155.6802 H   0  0  0  0  0  0  0  0  0  0  0  0  # atno 8009 bound_to 7997
  155.6269  140.0665  157.2652 H   0  0  0  0  0  0  0  0  0  0  0  0  # atno 8010 bound_to 7997
  140.7211  143.3649  151.1889 H   0  0  0  0  0  0  0  0  0  0  0  0  # atno 10167 bound_to 10162
  157.5718  130.8913  149.9280 H   0  0  0  0  0  0  0  0  0  0  0  0  # atno 10718 bound_to 10713
  152.9818  135.5707  154.5081 H   0  0  0  0  0  0  0  0  0  0  0  0  # atno 10763 bound_to 10752
  154.4590  135.2781  155.1729 H   0  0  0  0  0  0  0  0  0  0  0  0  # atno 10764 bound_to 10752
  154.3324  135.6246  153.5611 H   0  0  0  0  0  0  0  0  0  0  0  0  # atno 10765 bound_to 10752
  140.0645  134.5556  155.9115 H   0  0  0  0  0  0  0  0  0  0  0  0  # atno 11005 bound_to 11000
  145.2793  139.1924  143.4799 LP  0  0  0  0  0  0  0  0  0  0  0  0  # atno 17320 bound_to 7965
  146.3332  140.2753  142.8607 LP  0  0  0  0  0  0  0  0  0  0  0  0  # atno 17321 bound_to 7965
  139.7209  143.9225  152.2985 LP  0  0  0  0  0  0  0  0  0  0  0  0  # atno 17342 bound_to 10162
  139.8981  144.6927  150.8695 LP  0  0  0  0  0  0  0  0  0  0  0  0  # atno 17343 bound_to 10162
  156.0763  130.3678  150.0670 LP  0  0  0  0  0  0  0  0  0  0  0  0  # atno 17370 bound_to 10713
  156.8822  130.9560  151.3598 LP  0  0  0  0  0  0  0  0  0  0  0  0  # atno 17371 bound_to 10713
  141.1987  133.6603  156.5805 LP  0  0  0  0  0  0  0  0  0  0  0  0  # atno 17394 bound_to 11000
  140.3720  134.7597  157.4605 LP  0  0  0  0  0  0  0  0  0  0  0  0  # atno 17395 bound_to 11000

$$$$
