AV-unprocessed.smi:2358|AV-procd|sdf|9406|dock3
  -GOLD-   2272013 43D 1   1.00000     0.00000
 Structure written by MMmdl.
 46 48  0  0  0  0  0  0  0  0  2 V2000
  153.2902  140.7553  160.5643 C   0  0  0  0  0  0  0  0  0  0  0  0
  152.5799  141.8217  159.7562 C   0  0  0  0  0  0  0  0  0  0  0  0
  152.4829  143.1386  160.2482 C   0  0  0  0  0  0  0  0  0  0  0  0
  151.8173  144.1260  159.4964 C   0  0  0  0  0  0  0  0  0  0  0  0
  151.7163  145.5401  160.0300 C   0  0  0  0  0  0  0  0  0  0  0  0
  151.2505  143.7919  158.2496 C   0  0  0  0  0  0  0  0  0  0  0  0
  151.3377  142.4793  157.7429 C   0  0  0  0  0  0  0  0  0  0  0  0
  150.7516  142.2431  156.5177 O   0  0  0  0  0  0  0  0  0  0  0  0
  150.9175  140.9609  155.9262 C   0  0  0  0  0  0  0  0  0  0  0  0
  149.7564  140.7107  154.9484 C   0  0  1  0  0  0  0  0  0  0  0  0
  150.1192  139.5974  154.1553 O   0  0  0  0  0  0  0  0  0  0  0  0
  148.4422  140.3667  155.6853 C   0  0  0  0  0  0  0  0  0  0  0  0
  148.1585  138.9266  155.6522 N   0  0  0  0  0  0  0  0  0  0  0  0
  147.3674  138.5315  154.5873 N   0  0  0  0  0  0  0  0  0  0  0  0
  147.0433  137.2907  154.4203 C   0  0  0  0  0  0  0  0  0  0  0  0
  146.2145  136.8840  153.2959 N   0  0  0  0  0  0  0  0  0  0  0  0
  145.9123  135.6014  152.9098 C   0  0  0  0  0  0  0  0  0  0  0  0
  145.1050  135.7095  151.8069 C   0  0  0  0  0  0  0  0  0  0  0  0
  144.9491  137.0492  151.5678 N   0  3  0  0  0  0  0  0  0  0  0  0
  145.6233  137.7673  152.4733 C   0  0  0  0  0  0  0  0  0  0  0  0
  147.5144  136.2890  155.3709 C   0  0  0  0  0  0  0  0  0  0  0  0
  148.2900  136.6852  156.4030 C   0  0  0  0  0  0  0  0  0  0  0  0
  148.6695  138.0831  156.5956 C   0  0  0  0  0  0  0  0  0  0  0  0
  149.3875  138.4647  157.5187 O   0  0  0  0  0  0  0  0  0  0  0  0
  152.0088  141.4935  158.5096 C   0  0  0  0  0  0  0  0  0  0  0  0
  153.9005  141.1966  161.3528 H   0  0  0  0  0  0  0  0  0  0  0  0
  153.9432  140.1617  159.9239 H   0  0  0  0  0  0  0  0  0  0  0  0
  152.5629  140.0878  161.0267 H   0  0  0  0  0  0  0  0  0  0  0  0
  152.9182  143.3936  161.2036 H   0  0  0  0  0  0  0  0  0  0  0  0
  151.0120  146.1350  159.4478 H   0  0  0  0  0  0  0  0  0  0  0  0
  152.6906  146.0278  159.9910 H   0  0  0  0  0  0  0  0  0  0  0  0
  151.3770  145.5322  161.0663 H   0  0  0  0  0  0  0  0  0  0  0  0
  150.7409  144.5487  157.6711 H   0  0  0  0  0  0  0  0  0  0  0  0
  151.8809  140.8698  155.4207 H   0  0  0  0  0  0  0  0  0  0  0  0
  150.8877  140.2170  156.7238 H   0  0  0  0  0  0  0  0  0  0  0  0
  149.6165  141.5906  154.3186 H   0  0  0  0  0  0  0  0  0  0  0  0
  149.9718  139.8128  153.2468 H   0  0  0  0  0  0  0  0  0  0  0  0
  148.4431  140.7617  156.7034 H   0  0  0  0  0  0  0  0  0  0  0  0
  147.6075  140.8738  155.1979 H   0  0  0  0  0  0  0  0  0  0  0  0
  146.2808  134.7288  153.4302 H   0  0  0  0  0  0  0  0  0  0  0  0
  144.6416  134.9529  151.1904 H   0  0  0  0  0  0  0  0  0  0  0  0
  145.6571  138.8404  152.5008 H   0  0  0  0  0  0  0  0  0  0  0  0
  147.2670  135.2442  155.2827 H   0  0  0  0  0  0  0  0  0  0  0  0
  148.6415  135.9482  157.1102 H   0  0  0  0  0  0  0  0  0  0  0  0
  152.0979  140.4757  158.1613 H   0  0  0  0  0  0  0  0  0  0  0  0
  144.4011  137.4430  150.8130 H   0  0  0  0  0  0  0  0  0  0  0  0
  1  2  1  0  0  0  0
  1 26  1  0  0  0  0
  1 27  1  0  0  0  0
  1 28  1  0  0  0  0
  2 25  1  0  0  0  0
  2  3  2  0  0  0  0
  3  4  1  0  0  0  0
  3 29  1  0  0  0  0
  4  5  1  0  0  0  0
  4  6  2  0  0  0  0
  5 30  1  0  0  0  0
  5 31  1  0  0  0  0
  5 32  1  0  0  0  0
  6  7  1  0  0  0  0
  6 33  1  0  0  0  0
  7  8  1  0  0  0  0
  7 25  2  0  0  0  0
  8  9  1  0  0  0  0
  9 10  1  0  0  0  0
  9 34  1  0  0  0  0
  9 35  1  0  0  0  0
 10 11  1  0  0  0  0
 10 12  1  0  0  0  0
 10 36  1  0  0  0  0
 11 37  1  0  0  0  0
 12 13  1  0  0  0  0
 12 38  1  0  0  0  0
 12 39  1  0  0  0  0
 13 23  1  0  0  0  0
 13 14  1  0  0  0  0
 14 15  2  0  0  0  0
 15 16  1  0  0  0  0
 15 21  1  0  0  0  0
 16 20  1  0  0  0  0
 16 17  1  0  0  0  0
 17 18  2  0  0  0  0
 17 40  1  0  0  0  0
 18 19  1  0  0  0  0
 18 41  1  0  0  0  0
 19 20  2  0  0  0  0
 19 46  1  0  0  0  0
 20 42  1  0  0  0  0
 21 22  2  0  0  0  0
 21 43  1  0  0  0  0
 22 23  1  0  0  0  0
 22 44  1  0  0  0  0
 23 24  2  0  0  0  0
 25 45  1  0  0  0  0
M  CHG  1  19   1
M  END
> <s_m_source_file>
AV-unprocessed.smi

> <i_m_source_file_index>
2358

> <i_lp_mmshare_version>
43012

> <i_f3d_flags>
0

> <s_epik_input>
W0NIM11jMVtjSF1jKFtDSDNdKVtjSF1jKFtjSF0xKU9bQ0gyXVtDQEhdKFtPSF0pW0NIMl1uMm5jKFtjSF1bY0hdYzI9TyktbjNbY0hdW2NIXW5bY0hdMw==

> <s_epik_cmdline>
J2VwaWtfcHl0aG9uJywgJy1waCcsICc3LjAnLCAnLXRuJywgJzgnLCAnLW1hJywgJzIwMCcsICctbWV0YWxfYmluZGluZycsICctaW1hZScsICc8aW5maWxlLm1hZT4nLCAnLW9tYWUnLCAnPG91dGZpbGUubWFlPic=

> <r_lp_tautomer_probability>
1

> <r_epik_Ionization_Penalty>
1.66053

> <r_epik_Ionization_Penalty_Charging>
2.42216e-09

> <r_epik_Ionization_Penalty_Neutral>
1.66053

> <r_epik_State_Penalty>
1.76336

> <r_epik_Charging_Adjusted_Penalty>
1.76336

> <i_epik_Tot_Q>
1

> <i_epik_Tot_abs_Q>
1

> <r_epik_Metal_State_Penalty>
1.79856

> <b_epik_Metal_Only>
0

> <s_lp_Force_Field>
OPLS_2005

> <r_lp_Energy>
39.182

> <b_lp_Chiralities_Consistent>
1

> <s_lp_Variant>
AV-unprocessed.smi:2358-4

> <Gold.Version>
5.8.1

> <Gold.Id.Protein>
6NUR|6NUR_protein|mol2

> <Gold.PLP.Fitness>
48.7677

> <Gold.PLP.PLP>
-42.2617

> <Gold.PLP.part.hbond>
-3.0000

> <Gold.PLP.part.metal>
0.0000

> <Gold.PLP.part.buried>
-4.6430

> <Gold.PLP.part.nonpolar>
-35.5092

> <Gold.PLP.part.repulsive>
0.3270

> <Gold.PLP.ligand.clash>
0.0000

> <Gold.PLP.ligand.torsion>
1.2735

> <Gold.PLP.Chemscore.Hbond>
1.9913

> <Gold.PLP.Chemscore.CHOScore>
0.9875

> <Gold.PLP.Chemscore.Metal>
0.0000

> <Gold.Chemscore.Hbonds>
donor molecule, donor type, donor heavy atom, donor atom, acceptor molecule, acceptor atom, score
      L1  H    11    37       P1  7957  0.76
      L1  H    19    46       P1 10171  1.00
      L1  C    20    42       P1 10175  0.89

> <Gold.PLP.Chemscore.Internal.Correction>
0.1167

> <Gold.Rescore>
     Score         DG    S(hbond)    S(metal)    S(lipo)     H(rot)  DE(clash)    DE(int)     intcor
     15.89     -18.63       1.97        0.00     114.10       2.65       0.25       2.49       ----

> <Gold.Chemscore.Fitness>
15.8892

> <Gold.Chemscore.DG>
-18.6316

> <Gold.Chemscore.ZeroCoef>
-5.4800

> <Gold.Chemscore.Hbond>
1.9747

> <Gold.Chemscore.Metal>
0.0000

> <Gold.Chemscore.Lipo>
114.0988

> <Gold.Chemscore.Internal_Hbond>
0.0000

> <Gold.Chemscore.DEClash>
0.2520

> <Gold.Chemscore.DEInternal>
2.4904

> <Gold.Chemscore.Rot>
2.6537

> <Gold.Chemscore.Internal.Correction>
   9.000000E+99

> <Gold.Chemscore.Hbonds>
donor molecule, donor type, donor heavy atom, donor atom, acceptor molecule, acceptor atom, score
      L1  H    11    37       P1  7957  0.75
      L1  H    19    46       P1 10171  0.98

> <Gold.Chemscore.Hbond.Weighted>
-6.5956

> <Gold.Chemscore.Metal.Weighted>
-0.0000

> <Gold.Chemscore.Lipo.Weighted>
-13.3496

> <Gold.Chemscore.Internal_Hbond.Weighted>
0.0000

> <Gold.Chemscore.DEClash.Weighted>
0.2520

> <Gold.Chemscore.DEInternal.Weighted>
2.4904

> <Gold.Chemscore.Rot.Weighted>
6.7935

> <Gold.Chemscore.Internal.Correction.Weighted>
   9.000000E+99

> <Gold.Protein.RotatedTorsions>
[ 6907 6896 6895 6894 ] final  123.60 input  -60.11 | X-H torsion
[ 7974 7965 7964 7962 ] final  108.33 input  175.53 | X-H torsion
[ 8008 7997 7996 7995 ] final   51.15 input   59.86 | X-H torsion
[ 10167 10162 10161 10158 ] final  107.32 input  -65.29 | X-H torsion
[ 10718 10713 10712 10709 ] final -165.94 input   66.30 | X-H torsion
[ 10763 10752 10751 10750 ] final   79.12 input  -60.55 | X-H torsion
[ 11005 11000 10999 10996 ] final  -58.19 input  -57.11 | X-H torsion

> <Gold.Protein.ActiveResidues>
 VAL166  LYS551  ARG553  GLY616  TRP617  ASP618  TYR619  PRO620  LYS621  CYS622 
 ASP623  PHE694  ASN695  SER759  ASP760  ASP761  ALA762  ILE779  LEU786  VAL792 
 PHE793  MET794  SER795  GLU796  ALA797  LYS798  CYS799  TRP800  GLU811  SER814 

> <Gold.Protein.RotatedAtoms>
  152.4148  133.7020  159.6429 H   0  0  0  0  0  0  0  0  0  0  0  0  # atno 6907 bound_to 6896
  150.8026  133.8560  159.3227 H   0  0  0  0  0  0  0  0  0  0  0  0  # atno 6908 bound_to 6896
  151.6293  135.1026  160.0170 H   0  0  0  0  0  0  0  0  0  0  0  0  # atno 6909 bound_to 6896
  145.2821  139.2629  143.3910 H   0  0  0  0  0  0  0  0  0  0  0  0  # atno 7974 bound_to 7965
  155.4305  140.3450  155.4279 H   0  0  0  0  0  0  0  0  0  0  0  0  # atno 8008 bound_to 7997
  156.1339  140.1522  156.9054 H   0  0  0  0  0  0  0  0  0  0  0  0  # atno 8009 bound_to 7997
  154.4916  140.0839  156.7588 H   0  0  0  0  0  0  0  0  0  0  0  0  # atno 8010 bound_to 7997
  139.6937  144.7104  151.1304 H   0  0  0  0  0  0  0  0  0  0  0  0  # atno 10167 bound_to 10162
  156.6607  130.9045  151.3028 H   0  0  0  0  0  0  0  0  0  0  0  0  # atno 10718 bound_to 10713
  153.0927  135.4852  154.8721 H   0  0  0  0  0  0  0  0  0  0  0  0  # atno 10763 bound_to 10752
  154.7288  135.3055  154.8928 H   0  0  0  0  0  0  0  0  0  0  0  0  # atno 10764 bound_to 10752
  153.9569  135.6817  153.4798 H   0  0  0  0  0  0  0  0  0  0  0  0  # atno 10765 bound_to 10752
  141.1197  133.6612  156.4883 H   0  0  0  0  0  0  0  0  0  0  0  0  # atno 11005 bound_to 11000
  146.3213  140.3291  142.8639 LP  0  0  0  0  0  0  0  0  0  0  0  0  # atno 17320 bound_to 7965
  144.9244  140.7905  143.5728 LP  0  0  0  0  0  0  0  0  0  0  0  0  # atno 17321 bound_to 7965
  140.7690  143.5523  150.9191 LP  0  0  0  0  0  0  0  0  0  0  0  0  # atno 17342 bound_to 10162
  139.9201  143.6616  152.3098 LP  0  0  0  0  0  0  0  0  0  0  0  0  # atno 17343 bound_to 10162
  157.7110  130.9441  150.1091 LP  0  0  0  0  0  0  0  0  0  0  0  0  # atno 17370 bound_to 10713
  156.2013  130.3660  149.8785 LP  0  0  0  0  0  0  0  0  0  0  0  0  # atno 17371 bound_to 10713
  140.4544  134.6899  157.5055 LP  0  0  0  0  0  0  0  0  0  0  0  0  # atno 17394 bound_to 11000
  140.0144  134.6641  155.9331 LP  0  0  0  0  0  0  0  0  0  0  0  0  # atno 17395 bound_to 11000

$$$$
