AV-unprocessed.smi:1346|AV-procd|sdf|5515|dock4
  -GOLD-   22720 5103D 1   1.00000     0.00000
 Structure written by MMmdl.
 47 48  0  0  0  0  0  0  0  0  1 V2000
  154.3607  133.1968  161.6387 C   0  0  0  0  0  0  0  0  0  0  0  0
  154.0136  134.2149  162.6872 C   0  0  0  0  0  0  0  0  0  0  0  0
  153.3604  133.8280  163.7698 N   0  0  0  0  0  0  0  0  0  0  0  0
  153.1737  134.9809  164.5381 O   0  0  0  0  0  0  0  0  0  0  0  0
  153.7257  136.0304  163.8781 C   0  0  0  0  0  0  0  0  0  0  0  0
  153.6236  137.3645  164.5364 C   0  0  0  0  0  0  0  0  0  0  0  0
  154.2789  135.6160  162.6980 C   0  0  0  0  0  0  0  0  0  0  0  0
  154.9896  136.4444  161.6579 C   0  0  0  0  0  0  0  0  0  0  0  0
  153.9611  137.1137  160.7468 C   0  0  0  0  0  0  0  0  0  0  0  0
  153.0477  136.4525  160.2537 O   0  0  0  0  0  0  0  0  0  0  0  0
  154.1346  138.4226  160.5190 N   0  0  0  0  0  0  0  0  0  0  0  0
  153.3293  139.2260  159.6111 C   0  0  0  0  0  0  0  0  0  0  0  0
  153.1219  140.6274  160.1947 C   0  0  0  0  0  0  0  0  0  0  0  0
  152.8462  141.5238  159.1279 O   0  0  0  0  0  0  0  0  0  0  0  0
  152.0078  142.6202  159.4691 C   0  0  1  0  0  0  0  0  0  0  0  0
  152.5037  143.2615  160.7837 C   0  0  0  0  0  0  0  0  0  0  0  0
  151.7229  144.5404  161.1197 C   0  0  0  0  0  0  0  0  0  0  0  0
  151.7923  145.5469  159.9634 C   0  0  0  0  0  0  0  0  0  0  0  0
  151.2877  144.9182  158.6561 C   0  0  0  0  0  0  0  0  0  0  0  0
  152.0636  143.6334  158.3026 C   0  0  2  0  0  0  0  0  0  0  0  0
  151.5357  143.0251  156.9930 C   0  0  0  0  0  0  0  0  0  0  0  0
  155.2113  133.5178  161.0381 H   0  0  0  0  0  0  0  0  0  0  0  0
  153.5202  133.0354  160.9639 H   0  0  0  0  0  0  0  0  0  0  0  0
  154.6181  132.2357  162.0846 H   0  0  0  0  0  0  0  0  0  0  0  0
  153.4050  138.1414  163.8034 H   0  0  0  0  0  0  0  0  0  0  0  0
  154.5591  137.6211  165.0329 H   0  0  0  0  0  0  0  0  0  0  0  0
  152.8290  137.3741  165.2829 H   0  0  0  0  0  0  0  0  0  0  0  0
  155.6063  137.2174  162.1176 H   0  0  0  0  0  0  0  0  0  0  0  0
  155.6689  135.8358  161.0595 H   0  0  0  0  0  0  0  0  0  0  0  0
  154.9137  138.8841  160.9656 H   0  0  0  0  0  0  0  0  0  0  0  0
  153.8180  139.2962  158.6380 H   0  0  0  0  0  0  0  0  0  0  0  0
  152.3665  138.7373  159.4569 H   0  0  0  0  0  0  0  0  0  0  0  0
  152.2840  140.6179  160.8933 H   0  0  0  0  0  0  0  0  0  0  0  0
  154.0082  140.9321  160.7512 H   0  0  0  0  0  0  0  0  0  0  0  0
  150.9766  142.2823  159.5887 H   0  0  0  0  0  0  0  0  0  0  0  0
  152.4128  142.5617  161.6136 H   0  0  0  0  0  0  0  0  0  0  0  0
  153.5645  143.4991  160.6973 H   0  0  0  0  0  0  0  0  0  0  0  0
  150.6817  144.2900  161.3271 H   0  0  0  0  0  0  0  0  0  0  0  0
  152.1208  144.9911  162.0293 H   0  0  0  0  0  0  0  0  0  0  0  0
  151.2012  146.4311  160.2037 H   0  0  0  0  0  0  0  0  0  0  0  0
  152.8206  145.8870  159.8339 H   0  0  0  0  0  0  0  0  0  0  0  0
  150.2243  144.6931  158.7496 H   0  0  0  0  0  0  0  0  0  0  0  0
  151.3785  145.6430  157.8464 H   0  0  0  0  0  0  0  0  0  0  0  0
  153.1072  143.9088  158.1419 H   0  0  0  0  0  0  0  0  0  0  0  0
  150.4953  142.7141  157.0917 H   0  0  0  0  0  0  0  0  0  0  0  0
  152.1171  142.1515  156.6971 H   0  0  0  0  0  0  0  0  0  0  0  0
  151.5919  143.7446  156.1758 H   0  0  0  0  0  0  0  0  0  0  0  0
  1  2  1  0  0  0  0
  1 22  1  0  0  0  0
  1 23  1  0  0  0  0
  1 24  1  0  0  0  0
  2  7  1  0  0  0  0
  2  3  2  0  0  0  0
  3  4  1  0  0  0  0
  4  5  1  0  0  0  0
  5  6  1  0  0  0  0
  5  7  2  0  0  0  0
  6 25  1  0  0  0  0
  6 26  1  0  0  0  0
  6 27  1  0  0  0  0
  7  8  1  0  0  0  0
  8  9  1  0  0  0  0
  8 28  1  0  0  0  0
  8 29  1  0  0  0  0
  9 10  2  0  0  0  0
  9 11  1  0  0  0  0
 11 12  1  0  0  0  0
 11 30  1  0  0  0  0
 12 13  1  0  0  0  0
 12 31  1  0  0  0  0
 12 32  1  0  0  0  0
 13 14  1  0  0  0  0
 13 33  1  0  0  0  0
 13 34  1  0  0  0  0
 14 15  1  0  0  0  0
 15 20  1  0  0  0  0
 15 16  1  0  0  0  0
 15 35  1  0  0  0  0
 16 17  1  0  0  0  0
 16 36  1  0  0  0  0
 16 37  1  0  0  0  0
 17 18  1  0  0  0  0
 17 38  1  0  0  0  0
 17 39  1  0  0  0  0
 18 19  1  0  0  0  0
 18 40  1  0  0  0  0
 18 41  1  0  0  0  0
 19 20  1  0  0  0  0
 19 42  1  0  0  0  0
 19 43  1  0  0  0  0
 20 21  1  0  0  0  0
 20 44  1  0  0  0  0
 21 45  1  0  0  0  0
 21 46  1  0  0  0  0
 21 47  1  0  0  0  0
M  END
> <s_m_source_file>
AV-unprocessed.smi

> <i_m_source_file_index>
1346

> <i_lp_mmshare_version>
43012

> <i_f3d_flags>
0

> <s_epik_input>
W0NIM11jMW5vYyhbQ0gzXSljMVtDSDJdQyg9TylbTkhdW0NIMl1bQ0gyXU9bQ0BASF0yW0NIMl1bQ0gyXVtDSDJdW0NIMl1bQ0BIXTJbQ0gzXQ==

> <s_epik_cmdline>
J2VwaWtfcHl0aG9uJywgJy1waCcsICc3LjAnLCAnLXRuJywgJzgnLCAnLW1hJywgJzIwMCcsICctbWV0YWxfYmluZGluZycsICctaW1hZScsICc8aW5maWxlLm1hZT4nLCAnLW9tYWUnLCAnPG91dGZpbGUubWFlPic=

> <r_lp_tautomer_probability>
1

> <r_epik_Ionization_Penalty>
3.26154e-08

> <r_epik_Ionization_Penalty_Charging>
0

> <r_epik_Ionization_Penalty_Neutral>
3.26154e-08

> <r_epik_State_Penalty>
-0

> <r_epik_Charging_Adjusted_Penalty>
0

> <i_epik_Tot_Q>
0

> <i_epik_Tot_abs_Q>
0

> <r_epik_Metal_State_Penalty>
-0

> <b_epik_Metal_Only>
0

> <s_lp_Force_Field>
OPLS_2005

> <r_lp_Energy>
4.3429

> <b_lp_Chiralities_Consistent>
1

> <s_lp_Variant>
AV-unprocessed.smi:1346-4

> <Gold.Version>
5.8.1

> <Gold.Id.Protein>
6NUR|6NUR_protein|mol2

> <Gold.PLP.Fitness>
44.5791

> <Gold.PLP.PLP>
-43.5092

> <Gold.PLP.part.hbond>
-1.0000

> <Gold.PLP.part.metal>
0.0000

> <Gold.PLP.part.buried>
-6.2226

> <Gold.PLP.part.nonpolar>
-36.2497

> <Gold.PLP.part.repulsive>
0.1433

> <Gold.PLP.ligand.clash>
0.0000

> <Gold.PLP.ligand.torsion>
1.0054

> <Gold.PLP.Chemscore.Hbond>
1.0000

> <Gold.PLP.Chemscore.CHOScore>
0.0000

> <Gold.PLP.Chemscore.Metal>
0.0000

> <Gold.Chemscore.Hbonds>
donor molecule, donor type, donor heavy atom, donor atom, acceptor molecule, acceptor atom, score
      P1  H  6896  6907       L1    10  1.00

> <Gold.PLP.Chemscore.Internal.Correction>
0.0807

> <Gold.Rescore>
     Score         DG    S(hbond)    S(metal)    S(lipo)     H(rot)  DE(clash)    DE(int)     intcor
     18.64     -19.67       1.00        0.00     130.68       1.74       0.12       0.91       ----

> <Gold.Chemscore.Fitness>
18.6351

> <Gold.Chemscore.DG>
-19.6676

> <Gold.Chemscore.ZeroCoef>
-5.4800

> <Gold.Chemscore.Hbond>
0.9999

> <Gold.Chemscore.Metal>
0.0000

> <Gold.Chemscore.Lipo>
130.6821

> <Gold.Chemscore.Internal_Hbond>
0.0000

> <Gold.Chemscore.DEClash>
0.1209

> <Gold.Chemscore.DEInternal>
0.9115

> <Gold.Chemscore.Rot>
1.7352

> <Gold.Chemscore.Internal.Correction>
   9.000000E+99

> <Gold.Chemscore.Hbonds>
donor molecule, donor type, donor heavy atom, donor atom, acceptor molecule, acceptor atom, score
      P1  H  6896  6907       L1    10  1.00

> <Gold.Chemscore.Hbond.Weighted>
-3.3398

> <Gold.Chemscore.Metal.Weighted>
-0.0000

> <Gold.Chemscore.Lipo.Weighted>
-15.2898

> <Gold.Chemscore.Internal_Hbond.Weighted>
0.0000

> <Gold.Chemscore.DEClash.Weighted>
0.1209

> <Gold.Chemscore.DEInternal.Weighted>
0.9115

> <Gold.Chemscore.Rot.Weighted>
4.4420

> <Gold.Chemscore.Internal.Correction.Weighted>
   9.000000E+99

> <Gold.Protein.RotatedTorsions>
[ 6907 6896 6895 6894 ] final   28.38 input  -60.11 | X-H torsion
[ 7974 7965 7964 7962 ] final  -77.44 input  175.53 | X-H torsion
[ 8008 7997 7996 7995 ] final -159.39 input   59.86 | X-H torsion
[ 10167 10162 10161 10158 ] final  -84.74 input  -65.29 | X-H torsion
[ 10718 10713 10712 10709 ] final   70.06 input   66.30 | X-H torsion
[ 10763 10752 10751 10750 ] final  119.56 input  -60.55 | X-H torsion
[ 11005 11000 10999 10996 ] final  -28.83 input  -57.11 | X-H torsion

> <Gold.Protein.ActiveResidues>
 VAL166  LYS551  ARG553  GLY616  TRP617  ASP618  TYR619  PRO620  LYS621  CYS622 
 ASP623  PHE694  ASN695  SER759  ASP760  ASP761  ALA762  ILE779  LEU786  VAL792 
 PHE793  MET794  SER795  GLU796  ALA797  LYS798  CYS799  TRP800  GLU811  SER814 

> <Gold.Protein.RotatedAtoms>
  152.0161  134.9849  160.0569 H   0  0  0  0  0  0  0  0  0  0  0  0  # atno 6907 bound_to 6896
  152.1382  133.4443  159.4762 H   0  0  0  0  0  0  0  0  0  0  0  0  # atno 6908 bound_to 6896
  150.6862  134.2256  159.4457 H   0  0  0  0  0  0  0  0  0  0  0  0  # atno 6909 bound_to 6896
  145.5997  140.9411  143.1247 H   0  0  0  0  0  0  0  0  0  0  0  0  # atno 7974 bound_to 7965
  155.7619  140.0840  157.2151 H   0  0  0  0  0  0  0  0  0  0  0  0  # atno 8008 bound_to 7997
  154.4003  140.1541  156.2898 H   0  0  0  0  0  0  0  0  0  0  0  0  # atno 8009 bound_to 7997
  155.8831  140.3419  155.5905 H   0  0  0  0  0  0  0  0  0  0  0  0  # atno 8010 bound_to 7997
  140.4104  143.2625  151.9025 H   0  0  0  0  0  0  0  0  0  0  0  0  # atno 10167 bound_to 10162
  157.6380  130.9458  150.0599 H   0  0  0  0  0  0  0  0  0  0  0  0  # atno 10718 bound_to 10713
  153.5849  135.3477  155.2889 H   0  0  0  0  0  0  0  0  0  0  0  0  # atno 10763 bound_to 10752
  154.8662  135.4191  154.2579 H   0  0  0  0  0  0  0  0  0  0  0  0  # atno 10764 bound_to 10752
  153.3374  135.7048  153.6966 H   0  0  0  0  0  0  0  0  0  0  0  0  # atno 10765 bound_to 10752
  140.9243  133.7379  156.0845 H   0  0  0  0  0  0  0  0  0  0  0  0  # atno 11005 bound_to 11000
  144.7315  139.7711  143.7345 LP  0  0  0  0  0  0  0  0  0  0  0  0  # atno 17320 bound_to 7965
  146.1586  139.4692  143.0003 LP  0  0  0  0  0  0  0  0  0  0  0  0  # atno 17321 bound_to 7965
  139.4782  144.5543  151.8338 LP  0  0  0  0  0  0  0  0  0  0  0  0  # atno 17342 bound_to 10162
  140.4644  144.1676  150.5910 LP  0  0  0  0  0  0  0  0  0  0  0  0  # atno 17343 bound_to 10162
  156.1635  130.3644  149.9265 LP  0  0  0  0  0  0  0  0  0  0  0  0  # atno 17370 bound_to 10713
  156.7258  130.9024  151.3622 LP  0  0  0  0  0  0  0  0  0  0  0  0  # atno 17371 bound_to 10713
  140.7946  134.3578  157.5455 LP  0  0  0  0  0  0  0  0  0  0  0  0  # atno 17394 bound_to 11000
  139.8782  134.9161  156.3147 LP  0  0  0  0  0  0  0  0  0  0  0  0  # atno 17395 bound_to 11000

$$$$
