AV-unprocessed.smi:110|AV-procd|sdf|1076|dock1
  -GOLD-   2262018163D 1   1.00000     0.00000
 Structure written by MMmdl.
 46 50  0  0  0  0  0  0  0  0  1 V2000
  145.2141  143.6701  154.8768 O   0  0  0  0  0  0  0  0  0  0  0  0
  145.7466  142.8327  153.8719 C   0  0  0  0  0  0  0  0  0  0  0  0
  146.7822  141.8412  154.4319 C   0  0  2  0  0  0  0  0  0  0  0  0
  148.1010  142.3507  154.2842 O   0  0  0  0  0  0  0  0  0  0  0  0
  149.0186  141.2972  154.3523 C   0  0  1  0  0  0  0  0  0  0  0  0
  149.7777  141.4208  155.6373 N   0  0  0  0  0  0  0  0  0  0  0  0
  149.5233  142.2242  156.7274 C   0  0  0  0  0  0  0  0  0  0  0  0
  150.3740  142.1100  157.7112 N   0  0  0  0  0  0  0  0  0  0  0  0
  151.2910  141.1642  157.2661 C   0  0  0  0  0  0  0  0  0  0  0  0
  152.4603  140.5649  157.8160 C   0  0  0  0  0  0  0  0  0  0  0  0
  152.9731  140.8537  159.0350 N   0  0  0  0  0  0  0  0  0  0  0  0
  153.6961  139.8138  159.7808 C   0  0  0  0  0  0  0  0  0  0  0  0
  153.7542  140.2556  161.2555 C   0  0  0  0  0  0  0  0  0  0  0  0
  153.1436  141.6171  161.1696 C   0  0  0  0  0  0  0  0  0  0  0  0
  152.9968  142.5519  162.2091 C   0  0  0  0  0  0  0  0  0  0  0  0
  152.4094  143.7985  161.9044 C   0  0  0  0  0  0  0  0  0  0  0  0
  151.9943  144.0892  160.5839 C   0  0  0  0  0  0  0  0  0  0  0  0
  152.1543  143.1352  159.5549 C   0  0  0  0  0  0  0  0  0  0  0  0
  152.7215  141.8833  159.8708 C   0  0  0  0  0  0  0  0  0  0  0  0
  153.0748  139.6007  157.0837 N   0  0  0  0  0  0  0  0  0  0  0  0
  152.6078  139.2725  155.8757 C   0  0  0  0  0  0  0  0  0  0  0  0
  151.5505  139.7655  155.2278 N   0  0  0  0  0  0  0  0  0  0  0  0
  150.9112  140.7141  155.9705 C   0  0  0  0  0  0  0  0  0  0  0  0
  148.2222  139.9712  154.2584 C   0  0  1  0  0  0  0  0  0  0  0  0
  148.1383  139.2687  155.4906 O   0  0  0  0  0  0  0  0  0  0  0  0
  146.8606  140.4621  153.7753 C   0  0  1  0  0  0  0  0  0  0  0  0
  145.7873  139.6107  154.1314 O   0  0  0  0  0  0  0  0  0  0  0  0
  146.6046  141.7217  155.5025 H   0  0  0  0  0  0  0  0  0  0  0  0
  149.7704  141.4127  153.5703 H   0  0  0  0  0  0  0  0  0  0  0  0
  148.6924  139.3167  153.5240 H   0  0  0  0  0  0  0  0  0  0  0  0
  146.8906  140.5576  152.6894 H   0  0  0  0  0  0  0  0  0  0  0  0
  145.4350  143.3053  155.7202 H   0  0  0  0  0  0  0  0  0  0  0  0
  144.9375  142.2994  153.3722 H   0  0  0  0  0  0  0  0  0  0  0  0
  146.2173  143.4705  153.1234 H   0  0  0  0  0  0  0  0  0  0  0  0
  148.6834  142.9015  156.7753 H   0  0  0  0  0  0  0  0  0  0  0  0
  153.2008  138.8471  159.6810 H   0  0  0  0  0  0  0  0  0  0  0  0
  154.7030  139.7169  159.3730 H   0  0  0  0  0  0  0  0  0  0  0  0
  153.1541  139.6113  161.8988 H   0  0  0  0  0  0  0  0  0  0  0  0
  154.7751  140.3001  161.6355 H   0  0  0  0  0  0  0  0  0  0  0  0
  153.3279  142.3250  163.2118 H   0  0  0  0  0  0  0  0  0  0  0  0
  152.2840  144.5374  162.6821 H   0  0  0  0  0  0  0  0  0  0  0  0
  151.5554  145.0500  160.3591 H   0  0  0  0  0  0  0  0  0  0  0  0
  151.8493  143.3710  158.5461 H   0  0  0  0  0  0  0  0  0  0  0  0
  153.1604  138.5050  155.3543 H   0  0  0  0  0  0  0  0  0  0  0  0
  147.8702  139.8767  156.1626 H   0  0  0  0  0  0  0  0  0  0  0  0
  145.0003  139.9322  153.7189 H   0  0  0  0  0  0  0  0  0  0  0  0
  1  2  1  0  0  0  0
  1 32  1  0  0  0  0
  2  3  1  0  0  0  0
  2 33  1  0  0  0  0
  2 34  1  0  0  0  0
  3 28  1  0  0  0  0
  3 26  1  0  0  0  0
  3  4  1  0  0  0  0
  4  5  1  0  0  0  0
  5 29  1  0  0  0  0
  5  6  1  0  0  0  0
  5 24  1  0  0  0  0
  6 23  1  0  0  0  0
  6  7  1  0  0  0  0
  7  8  2  0  0  0  0
  7 35  1  0  0  0  0
  8  9  1  0  0  0  0
  9 23  2  0  0  0  0
  9 10  1  0  0  0  0
 10 11  1  0  0  0  0
 10 20  2  0  0  0  0
 11 19  1  0  0  0  0
 11 12  1  0  0  0  0
 12 13  1  0  0  0  0
 12 36  1  0  0  0  0
 12 37  1  0  0  0  0
 13 14  1  0  0  0  0
 13 38  1  0  0  0  0
 13 39  1  0  0  0  0
 14 19  2  0  0  0  0
 14 15  1  0  0  0  0
 15 16  2  0  0  0  0
 15 40  1  0  0  0  0
 16 17  1  0  0  0  0
 16 41  1  0  0  0  0
 17 18  2  0  0  0  0
 17 42  1  0  0  0  0
 18 19  1  0  0  0  0
 18 43  1  0  0  0  0
 20 21  1  0  0  0  0
 21 22  2  0  0  0  0
 21 44  1  0  0  0  0
 22 23  1  0  0  0  0
 24 30  1  0  0  0  0
 24 25  1  0  0  0  0
 24 26  1  0  0  0  0
 25 45  1  0  0  0  0
 26 31  1  0  0  0  0
 26 27  1  0  0  0  0
 27 46  1  0  0  0  0
M  END
> <s_m_source_file>
AV-unprocessed.smi

> <i_m_source_file_index>
110

> <i_lp_mmshare_version>
43012

> <i_f3d_flags>
0

> <s_epik_input>
W09IXVtDSDJdW0NASF0xT1tDQEhdKFtDQEhdKFtPSF0pW0NAQEhdMVtPSF0pbihbY0hdbjIpYyhjMjMpbltjSF1uYzNOKFtDSDJdW0NIMl00KWMoYzQ1KVtjSF1bY0hdW2NIXVtjSF01

> <s_epik_cmdline>
J2VwaWtfcHl0aG9uJywgJy1waCcsICc3LjAnLCAnLXRuJywgJzgnLCAnLW1hJywgJzIwMCcsICctbWV0YWxfYmluZGluZycsICctaW1hZScsICc8aW5maWxlLm1hZT4nLCAnLW9tYWUnLCAnPG91dGZpbGUubWFlPic=

> <r_lp_tautomer_probability>
1

> <r_epik_Ionization_Penalty>
0.00068475

> <r_epik_Ionization_Penalty_Charging>
0

> <r_epik_Ionization_Penalty_Neutral>
0.00068475

> <r_epik_State_Penalty>
0.000417442

> <r_epik_Charging_Adjusted_Penalty>
0.000417442

> <i_epik_Tot_Q>
0

> <i_epik_Tot_abs_Q>
0

> <r_epik_Metal_State_Penalty>
-0

> <b_epik_Metal_Only>
0

> <s_epik_Chemistry_Notes>
This compound contains an acetal/aminal-like group ( X-CH(R)-Y where X, Y are N, S, or O) that may be acid/base labile, releasing an aldehyde.

> <s_lp_Force_Field>
OPLS_2005

> <r_lp_Energy>
66.8802

> <b_lp_Chiralities_Consistent>
1

> <s_lp_Variant>
AV-unprocessed.smi:110-14

> <Gold.Version>
5.8.1

> <Gold.Id.Protein>
6NUR|6NUR_protein|mol2

> <Gold.PLP.Fitness>
61.4152

> <Gold.PLP.PLP>
-52.5167

> <Gold.PLP.part.hbond>
-3.8114

> <Gold.PLP.part.metal>
0.0000

> <Gold.PLP.part.buried>
-0.4829

> <Gold.PLP.part.nonpolar>
-49.8552

> <Gold.PLP.part.repulsive>
2.4087

> <Gold.PLP.ligand.clash>
0.0000

> <Gold.PLP.ligand.torsion>
0.9463

> <Gold.PLP.Chemscore.Hbond>
2.8000

> <Gold.PLP.Chemscore.CHOScore>
0.7627

> <Gold.PLP.Chemscore.Metal>
0.0000

> <Gold.Chemscore.Hbonds>
donor molecule, donor type, donor heavy atom, donor atom, acceptor molecule, acceptor atom, score
      L1  H    27    46       P1 10175  1.00
      P1  H  7989  7998       L1    22  0.77
      P1  H  7997  8008       L1    20  0.96
      L1  C     7    35       P1  8028  0.73

> <Gold.PLP.Chemscore.Internal.Correction>
0.1032

> <Gold.Rescore>
     Score         DG    S(hbond)    S(metal)    S(lipo)     H(rot)  DE(clash)    DE(int)     intcor
     12.00     -17.86       2.37        0.00     112.06       3.38       3.48       2.37       ----

> <Gold.Chemscore.Fitness>
12.0033

> <Gold.Chemscore.DG>
-17.8567

> <Gold.Chemscore.ZeroCoef>
-5.4800

> <Gold.Chemscore.Hbond>
2.3735

> <Gold.Chemscore.Metal>
0.0000

> <Gold.Chemscore.Lipo>
112.0621

> <Gold.Chemscore.Internal_Hbond>
0.0000

> <Gold.Chemscore.DEClash>
3.4828

> <Gold.Chemscore.DEInternal>
2.3706

> <Gold.Chemscore.Rot>
3.3837

> <Gold.Chemscore.Internal.Correction>
   9.000000E+99

> <Gold.Chemscore.Hbonds>
donor molecule, donor type, donor heavy atom, donor atom, acceptor molecule, acceptor atom, score
      L1  H    27    46       P1 10175  1.00
      P1  H  7989  7998       L1    22  0.11
      P1  H  7997  8008       L1    20  0.32

> <Gold.Chemscore.Hbond.Weighted>
-7.9276

> <Gold.Chemscore.Metal.Weighted>
-0.0000

> <Gold.Chemscore.Lipo.Weighted>
-13.1113

> <Gold.Chemscore.Internal_Hbond.Weighted>
0.0000

> <Gold.Chemscore.DEClash.Weighted>
3.4828

> <Gold.Chemscore.DEInternal.Weighted>
2.3706

> <Gold.Chemscore.Rot.Weighted>
8.6622

> <Gold.Chemscore.Internal.Correction.Weighted>
   9.000000E+99

> <Gold.Protein.RotatedTorsions>
[ 6907 6896 6895 6894 ] final -157.96 input  -60.11 | X-H torsion
[ 7974 7965 7964 7962 ] final  -82.29 input  175.53 | X-H torsion
[ 8008 7997 7996 7995 ] final  -79.34 input   59.86 | X-H torsion
[ 10167 10162 10161 10158 ] final  141.40 input  -65.29 | X-H torsion
[ 10718 10713 10712 10709 ] final -135.37 input   66.30 | X-H torsion
[ 10763 10752 10751 10750 ] final  -49.18 input  -60.55 | X-H torsion
[ 11005 11000 10999 10996 ] final  159.45 input  -57.11 | X-H torsion

> <Gold.Protein.ActiveResidues>
 VAL166  LYS551  ARG553  GLY616  TRP617  ASP618  TYR619  PRO620  LYS621  CYS622 
 ASP623  PHE694  ASN695  SER759  ASP760  ASP761  ALA762  ILE779  LEU786  VAL792 
 PHE793  MET794  SER795  GLU796  ALA797  LYS798  CYS799  TRP800  GLU811  SER814 

> <Gold.Protein.RotatedAtoms>
  151.3108  133.4081  159.2646 H   0  0  0  0  0  0  0  0  0  0  0  0  # atno 6907 bound_to 6896
  151.0116  134.9401  159.8020 H   0  0  0  0  0  0  0  0  0  0  0  0  # atno 6908 bound_to 6896
  152.5302  134.3072  159.9153 H   0  0  0  0  0  0  0  0  0  0  0  0  # atno 6909 bound_to 6896
  145.5352  140.9516  143.1581 H   0  0  0  0  0  0  0  0  0  0  0  0  # atno 7974 bound_to 7965
  154.5776  140.0680  156.9056 H   0  0  0  0  0  0  0  0  0  0  0  0  # atno 8008 bound_to 7997
  155.2521  140.3352  155.4263 H   0  0  0  0  0  0  0  0  0  0  0  0  # atno 8009 bound_to 7997
  156.2165  140.1780  156.7561 H   0  0  0  0  0  0  0  0  0  0  0  0  # atno 8010 bound_to 7997
  139.5021  144.6173  151.6133 H   0  0  0  0  0  0  0  0  0  0  0  0  # atno 10167 bound_to 10162
  156.2654  130.7234  151.1183 H   0  0  0  0  0  0  0  0  0  0  0  0  # atno 10718 bound_to 10713
  154.0899  135.6579  153.4851 H   0  0  0  0  0  0  0  0  0  0  0  0  # atno 10763 bound_to 10752
  153.0325  135.5200  154.7390 H   0  0  0  0  0  0  0  0  0  0  0  0  # atno 10764 bound_to 10752
  154.6511  135.3001  154.9954 H   0  0  0  0  0  0  0  0  0  0  0  0  # atno 10765 bound_to 10752
  140.1962  134.8371  157.2968 H   0  0  0  0  0  0  0  0  0  0  0  0  # atno 11005 bound_to 11000
  144.7605  139.6968  143.7236 LP  0  0  0  0  0  0  0  0  0  0  0  0  # atno 17320 bound_to 7965
  146.2017  139.5317  142.9739 LP  0  0  0  0  0  0  0  0  0  0  0  0  # atno 17321 bound_to 7965
  140.5865  143.9854  150.6299 LP  0  0  0  0  0  0  0  0  0  0  0  0  # atno 17342 bound_to 10162
  140.3021  143.3254  152.0962 LP  0  0  0  0  0  0  0  0  0  0  0  0  # atno 17343 bound_to 10162
  157.7265  131.0645  150.5905 LP  0  0  0  0  0  0  0  0  0  0  0  0  # atno 17370 bound_to 10713
  156.5996  130.4351  149.5902 LP  0  0  0  0  0  0  0  0  0  0  0  0  # atno 17371 bound_to 10713
  140.2104  134.4145  155.7616 LP  0  0  0  0  0  0  0  0  0  0  0  0  # atno 17394 bound_to 11000
  141.2227  133.7115  156.8329 LP  0  0  0  0  0  0  0  0  0  0  0  0  # atno 17395 bound_to 11000

$$$$
