AV-unprocessed.smi:220|AV-procd|sdf|1682|dock9
  -GOLD-   2262020113D 1   1.00000     0.00000
 Structure written by MMmdl.
 51 55  0  0  0  0  0  0  0  0  1 V2000
  152.0941  138.7854  159.2537 N   0  0  0  0  0  0  0  0  0  0  0  0
  152.8664  139.8744  159.2529 C   0  0  0  0  0  0  0  0  0  0  0  0
  153.8150  140.0035  160.0251 O   0  0  0  0  0  0  0  0  0  0  0  0
  152.5246  140.9625  158.2226 C   0  0  2  0  0  0  0  0  0  0  0  0
  152.0362  142.2639  158.8924 C   0  0  1  0  0  0  0  0  0  0  0  0
  153.0998  143.3552  159.0996 C   0  0  0  0  0  0  0  0  0  0  0  0
  152.3969  144.6582  158.7143 C   0  0  0  0  0  0  0  0  0  0  0  0
  151.4764  144.2575  157.5609 C   0  0  0  0  0  0  0  0  0  0  0  0
  150.9891  142.8516  157.9380 C   0  0  1  0  0  0  0  0  0  0  0  0
  150.8824  141.8401  156.7927 C   0  0  0  0  0  0  0  0  0  0  0  0
  151.4141  140.6028  157.3407 N   0  0  0  0  0  0  0  0  0  0  0  0
  151.6151  139.6269  156.4261 C   0  0  0  0  0  0  0  0  0  0  0  0
  152.5410  139.8755  155.4685 N   0  0  0  0  0  0  0  0  0  0  0  0
  152.7942  138.9602  154.5288 C   0  0  0  0  0  0  0  0  0  0  0  0
  152.2489  137.7522  154.3720 N   0  0  0  0  0  0  0  0  0  0  0  0
  151.3258  137.4936  155.3424 C   0  0  0  0  0  0  0  0  0  0  0  0
  150.9501  138.3674  156.4016 C   0  0  0  0  0  0  0  0  0  0  0  0
  149.9872  137.7569  157.1966 N   0  0  0  0  0  0  0  0  0  0  0  0
  149.7961  136.5958  156.6331 C   0  0  0  0  0  0  0  0  0  0  0  0
  150.5660  136.3498  155.5188 N   0  0  0  0  0  0  0  0  0  0  0  0
  150.5586  135.1466  154.7007 C   0  0  0  0  0  0  0  0  0  0  0  0
  149.4930  134.1140  155.1205 C   0  0  0  0  0  0  0  0  0  0  0  0
  148.0812  134.7109  154.9851 C   0  0  0  0  0  0  0  0  0  0  0  0
  147.6928  134.8125  153.6303 O   0  0  0  0  0  0  0  0  0  0  0  0
  149.6460  132.7086  154.5213 C   0  0  0  0  0  0  0  0  0  0  0  0
  149.5687  132.0837  155.8195 O   0  0  0  0  0  0  0  0  0  0  0  0
  149.7601  133.3736  156.4380 C   0  0  0  0  0  0  0  0  0  0  0  0
  152.2799  138.0407  159.9098 H   0  0  0  0  0  0  0  0  0  0  0  0
  151.3302  138.7079  158.5983 H   0  0  0  0  0  0  0  0  0  0  0  0
  153.4084  141.1705  157.6203 H   0  0  0  0  0  0  0  0  0  0  0  0
  151.5425  142.0525  159.8434 H   0  0  0  0  0  0  0  0  0  0  0  0
  153.4826  143.3743  160.1204 H   0  0  0  0  0  0  0  0  0  0  0  0
  153.9496  143.2006  158.4339 H   0  0  0  0  0  0  0  0  0  0  0  0
  151.8005  145.0182  159.5537 H   0  0  0  0  0  0  0  0  0  0  0  0
  153.0969  145.4473  158.4385 H   0  0  0  0  0  0  0  0  0  0  0  0
  150.6548  144.9594  157.4171 H   0  0  0  0  0  0  0  0  0  0  0  0
  152.0549  144.2321  156.6367 H   0  0  0  0  0  0  0  0  0  0  0  0
  150.0371  142.9175  158.4672 H   0  0  0  0  0  0  0  0  0  0  0  0
  149.8485  141.7138  156.4691 H   0  0  0  0  0  0  0  0  0  0  0  0
  151.4685  142.1531  155.9271 H   0  0  0  0  0  0  0  0  0  0  0  0
  153.5404  139.2352  153.7981 H   0  0  0  0  0  0  0  0  0  0  0  0
  149.0838  135.8828  157.0209 H   0  0  0  0  0  0  0  0  0  0  0  0
  150.4032  135.4549  153.6660 H   0  0  0  0  0  0  0  0  0  0  0  0
  151.5549  134.7038  154.7235 H   0  0  0  0  0  0  0  0  0  0  0  0
  147.3399  134.1222  155.5256 H   0  0  0  0  0  0  0  0  0  0  0  0
  148.0447  135.7116  155.4171 H   0  0  0  0  0  0  0  0  0  0  0  0
  148.1582  135.5351  153.2375 H   0  0  0  0  0  0  0  0  0  0  0  0
  148.8285  132.4132  153.8624 H   0  0  0  0  0  0  0  0  0  0  0  0
  150.6122  132.5260  154.0489 H   0  0  0  0  0  0  0  0  0  0  0  0
  150.7765  133.4946  156.8160 H   0  0  0  0  0  0  0  0  0  0  0  0
  149.0284  133.5762  157.2210 H   0  0  0  0  0  0  0  0  0  0  0  0
  1  2  1  0  0  0  0
  1 28  1  0  0  0  0
  1 29  1  0  0  0  0
  2  3  2  0  0  0  0
  2  4  1  0  0  0  0
  4 11  1  0  0  0  0
  4  5  1  0  0  0  0
  4 30  1  0  0  0  0
  5  9  1  0  0  0  0
  5  6  1  0  0  0  0
  5 31  1  0  0  0  0
  6  7  1  0  0  0  0
  6 32  1  0  0  0  0
  6 33  1  0  0  0  0
  7  8  1  0  0  0  0
  7 34  1  0  0  0  0
  7 35  1  0  0  0  0
  8  9  1  0  0  0  0
  8 36  1  0  0  0  0
  8 37  1  0  0  0  0
  9 10  1  0  0  0  0
  9 38  1  0  0  0  0
 10 11  1  0  0  0  0
 10 39  1  0  0  0  0
 10 40  1  0  0  0  0
 11 12  1  0  0  0  0
 12 17  1  0  0  0  0
 12 13  2  0  0  0  0
 13 14  1  0  0  0  0
 14 15  2  0  0  0  0
 14 41  1  0  0  0  0
 15 16  1  0  0  0  0
 16 20  1  0  0  0  0
 16 17  2  0  0  0  0
 17 18  1  0  0  0  0
 18 19  2  0  0  0  0
 19 20  1  0  0  0  0
 19 42  1  0  0  0  0
 20 21  1  0  0  0  0
 21 22  1  0  0  0  0
 21 43  1  0  0  0  0
 21 44  1  0  0  0  0
 22 27  1  0  0  0  0
 22 23  1  0  0  0  0
 22 25  1  0  0  0  0
 23 24  1  0  0  0  0
 23 45  1  0  0  0  0
 23 46  1  0  0  0  0
 24 47  1  0  0  0  0
 25 26  1  0  0  0  0
 25 48  1  0  0  0  0
 25 49  1  0  0  0  0
 26 27  1  0  0  0  0
 27 50  1  0  0  0  0
 27 51  1  0  0  0  0
M  END
> <s_m_source_file>
AV-unprocessed.smi

> <i_m_source_file_index>
220

> <i_lp_mmshare_version>
43012

> <i_f3d_flags>
0

> <s_epik_input>
W0NIMl0xW0NIMl1bQ0gyXVtDQEhdKFtDQEhdMTIpW0NIMl1OKFtDQEBIXTJDKD1PKVtOSDJdKWMobltjSF1uMyljKGMzNCluW2NIXW40W0NIMl1DNShbQ0gyXVtPSF0pW0NIMl1PW0NIMl01

> <s_epik_cmdline>
J2VwaWtfcHl0aG9uJywgJy1waCcsICc3LjAnLCAnLXRuJywgJzgnLCAnLW1hJywgJzIwMCcsICctbWV0YWxfYmluZGluZycsICctaW1hZScsICc8aW5maWxlLm1hZT4nLCAnLW9tYWUnLCAnPG91dGZpbGUubWFlPic=

> <r_lp_tautomer_probability>
1

> <r_epik_Ionization_Penalty>
0.00118987

> <r_epik_Ionization_Penalty_Charging>
0

> <r_epik_Ionization_Penalty_Neutral>
0.00118987

> <r_epik_State_Penalty>
0.000654261

> <r_epik_Charging_Adjusted_Penalty>
0.000654261

> <i_epik_Tot_Q>
0

> <i_epik_Tot_abs_Q>
0

> <r_epik_Metal_State_Penalty>
-0

> <b_epik_Metal_Only>
0

> <s_lp_Force_Field>
OPLS_2005

> <r_lp_Energy>
61.293

> <b_lp_Chiralities_Consistent>
1

> <s_lp_Variant>
AV-unprocessed.smi:220-1

> <Gold.Version>
5.8.1

> <Gold.Id.Protein>
6NUR|6NUR_protein|mol2

> <Gold.PLP.Fitness>
52.4217

> <Gold.PLP.PLP>
-44.8809

> <Gold.PLP.part.hbond>
-3.1022

> <Gold.PLP.part.metal>
0.0000

> <Gold.PLP.part.buried>
-7.7370

> <Gold.PLP.part.nonpolar>
-36.4714

> <Gold.PLP.part.repulsive>
0.2400

> <Gold.PLP.ligand.clash>
0.3744

> <Gold.PLP.ligand.torsion>
0.3844

> <Gold.PLP.Chemscore.Hbond>
2.7520

> <Gold.PLP.Chemscore.CHOScore>
0.0000

> <Gold.PLP.Chemscore.Metal>
0.0000

> <Gold.Chemscore.Hbonds>
donor molecule, donor type, donor heavy atom, donor atom, acceptor molecule, acceptor atom, score
      L1  H    24    47       P1  7948  0.98
      P1  H  7997  8008       L1    13  1.00
      P1  H 10752 10765       L1    15  0.30

> <Gold.PLP.Chemscore.Internal.Correction>
0.4280

> <Gold.Rescore>
     Score         DG    S(hbond)    S(metal)    S(lipo)     H(rot)  DE(clash)    DE(int)     intcor
     15.19     -16.81       2.53        0.00      96.21       3.27       0.13       1.49       ----

> <Gold.Chemscore.Fitness>
15.1871

> <Gold.Chemscore.DG>
-16.8056

> <Gold.Chemscore.ZeroCoef>
-5.4800

> <Gold.Chemscore.Hbond>
2.5273

> <Gold.Chemscore.Metal>
0.0000

> <Gold.Chemscore.Lipo>
96.2077

> <Gold.Chemscore.Internal_Hbond>
0.0000

> <Gold.Chemscore.DEClash>
0.1334

> <Gold.Chemscore.DEInternal>
1.4851

> <Gold.Chemscore.Rot>
3.2703

> <Gold.Chemscore.Internal.Correction>
   9.000000E+99

> <Gold.Chemscore.Hbonds>
donor molecule, donor type, donor heavy atom, donor atom, acceptor molecule, acceptor atom, score
      L1  H    24    47       P1  7948  0.93
      P1  H  7997  8008       L1    13  0.26
      P1  H 10752 10765       L1    15  0.03

> <Gold.Chemscore.Hbond.Weighted>
-8.4413

> <Gold.Chemscore.Metal.Weighted>
-0.0000

> <Gold.Chemscore.Lipo.Weighted>
-11.2563

> <Gold.Chemscore.Internal_Hbond.Weighted>
0.0000

> <Gold.Chemscore.DEClash.Weighted>
0.1334

> <Gold.Chemscore.DEInternal.Weighted>
1.4851

> <Gold.Chemscore.Rot.Weighted>
8.3721

> <Gold.Chemscore.Internal.Correction.Weighted>
   9.000000E+99

> <Gold.Protein.RotatedTorsions>
[ 6907 6896 6895 6894 ] final   96.44 input  -60.11 | X-H torsion
[ 7974 7965 7964 7962 ] final -157.70 input  175.53 | X-H torsion
[ 8008 7997 7996 7995 ] final  -40.93 input   59.86 | X-H torsion
[ 10167 10162 10161 10158 ] final  139.13 input  -65.29 | X-H torsion
[ 10718 10713 10712 10709 ] final   48.01 input   66.30 | X-H torsion
[ 10763 10752 10751 10750 ] final  163.40 input  -60.55 | X-H torsion
[ 11005 11000 10999 10996 ] final  -64.45 input  -57.11 | X-H torsion

> <Gold.Protein.ActiveResidues>
 VAL166  LYS551  ARG553  GLY616  TRP617  ASP618  TYR619  PRO620  LYS621  CYS622 
 ASP623  PHE694  ASN695  SER759  ASP760  ASP761  ALA762  ILE779  LEU786  VAL792 
 PHE793  MET794  SER795  GLU796  ALA797  LYS798  CYS799  TRP800  GLU811  SER814 

> <Gold.Protein.RotatedAtoms>
  152.5435  134.0886  159.8266 H   0  0  0  0  0  0  0  0  0  0  0  0  # atno 6907 bound_to 6896
  151.0978  133.5259  159.2619 H   0  0  0  0  0  0  0  0  0  0  0  0  # atno 6908 bound_to 6896
  151.2025  135.0457  159.8932 H   0  0  0  0  0  0  0  0  0  0  0  0  # atno 6909 bound_to 6896
  144.7537  140.3931  143.6029 H   0  0  0  0  0  0  0  0  0  0  0  0  # atno 7974 bound_to 7965
  154.4008  140.1512  156.3108 H   0  0  0  0  0  0  0  0  0  0  0  0  # atno 8008 bound_to 7997
  155.8617  140.3453  155.5739 H   0  0  0  0  0  0  0  0  0  0  0  0  # atno 8009 bound_to 7997
  155.7873  140.0852  157.2018 H   0  0  0  0  0  0  0  0  0  0  0  0  # atno 8010 bound_to 7997
  139.5088  144.6313  151.5811 H   0  0  0  0  0  0  0  0  0  0  0  0  # atno 10167 bound_to 10162
  157.4644  130.8216  149.7920 H   0  0  0  0  0  0  0  0  0  0  0  0  # atno 10718 bound_to 10713
  154.2931  135.2760  155.2646 H   0  0  0  0  0  0  0  0  0  0  0  0  # atno 10763 bound_to 10752
  154.5116  135.5781  153.6613 H   0  0  0  0  0  0  0  0  0  0  0  0  # atno 10764 bound_to 10752
  152.9911  135.6182  154.3097 H   0  0  0  0  0  0  0  0  0  0  0  0  # atno 10765 bound_to 10752
  141.1425  133.6666  156.5834 H   0  0  0  0  0  0  0  0  0  0  0  0  # atno 11005 bound_to 11000
  145.6855  139.1627  143.2677 LP  0  0  0  0  0  0  0  0  0  0  0  0  # atno 17320 bound_to 7965
  146.1520  140.6912  142.9318 LP  0  0  0  0  0  0  0  0  0  0  0  0  # atno 17321 bound_to 7965
  140.6046  143.9547  150.6410 LP  0  0  0  0  0  0  0  0  0  0  0  0  # atno 17342 bound_to 10162
  140.2770  143.3416  152.1186 LP  0  0  0  0  0  0  0  0  0  0  0  0  # atno 17343 bound_to 10162
  156.0043  130.3863  150.2488 LP  0  0  0  0  0  0  0  0  0  0  0  0  # atno 17370 bound_to 10713
  157.0667  131.0105  151.3204 LP  0  0  0  0  0  0  0  0  0  0  0  0  # atno 17371 bound_to 10713
  140.3819  134.7515  157.4667 LP  0  0  0  0  0  0  0  0  0  0  0  0  # atno 17394 bound_to 11000
  140.0631  134.5968  155.8726 LP  0  0  0  0  0  0  0  0  0  0  0  0  # atno 17395 bound_to 11000

$$$$
