AV-unprocessed.smi:1047|AV-procd|sdf|4576|dock6
  -GOLD-   22720 3 33D 1   1.00000     0.00000
 Structure written by MMmdl.
 56 58  0  0  0  0  0  0  0  0  2 V2000
  142.0977  145.1766  156.6860 C   0  0  0  0  0  0  0  0  0  0  0  0
  141.7318  144.0707  155.6860 C   0  0  0  0  0  0  0  0  0  0  0  0
  142.8836  143.6609  154.8443 N   0  3  1  0  0  0  0  0  0  0  0  0
  143.5308  144.7908  154.1330 C   0  0  0  0  0  0  0  0  0  0  0  0
  144.6788  144.2808  153.2458 C   0  0  0  0  0  0  0  0  0  0  0  0
  145.6219  143.5683  154.0368 O   0  0  0  0  0  0  0  0  0  0  0  0
  145.0420  142.4382  154.6806 C   0  0  1  0  0  0  0  0  0  0  0  0
  146.1483  141.6483  155.4002 C   0  0  0  0  0  0  0  0  0  0  0  0
  146.6670  140.5572  154.5794 N   0  0  0  0  0  0  0  0  0  0  0  0
  147.8768  140.9137  153.8444 C   0  0  0  0  0  0  0  0  0  0  0  0
  149.1433  140.4878  154.6123 C   0  0  1  0  0  0  0  0  0  0  0  0
  150.2133  140.4046  153.6944 O   0  0  0  0  0  0  0  0  0  0  0  0
  149.5610  141.4817  155.7139 C   0  0  0  0  0  0  0  0  0  0  0  0
  150.5034  140.9070  156.6571 N   0  0  0  0  0  0  0  0  0  0  0  0
  150.9951  139.6534  156.6456 C   0  0  0  0  0  0  0  0  0  0  0  0
  151.8483  139.3250  157.6111 N   0  0  0  0  0  0  0  0  0  0  0  0
  151.9232  140.5052  158.3306 C   0  0  0  0  0  0  0  0  0  0  0  0
  152.6628  140.8265  159.4897 C   0  0  0  0  0  0  0  0  0  0  0  0
  152.5847  142.1147  160.0655 C   0  0  0  0  0  0  0  0  0  0  0  0
  153.3972  142.4166  161.3121 C   0  0  0  0  0  0  0  0  0  0  0  0
  151.7561  143.1057  159.4802 C   0  0  0  0  0  0  0  0  0  0  0  0
  151.6574  144.4972  160.0800 C   0  0  0  0  0  0  0  0  0  0  0  0
  151.0095  142.8008  158.3229 C   0  0  0  0  0  0  0  0  0  0  0  0
  151.0959  141.5156  157.7587 C   0  0  0  0  0  0  0  0  0  0  0  0
  143.8925  142.8881  155.6070 C   0  0  0  0  0  0  0  0  0  0  0  0
  141.2113  145.5167  157.2218 H   0  0  0  0  0  0  0  0  0  0  0  0
  142.5270  146.0408  156.1784 H   0  0  0  0  0  0  0  0  0  0  0  0
  142.8127  144.8334  157.4328 H   0  0  0  0  0  0  0  0  0  0  0  0
  141.3185  143.2043  156.2041 H   0  0  0  0  0  0  0  0  0  0  0  0
  140.9391  144.4532  155.0418 H   0  0  0  0  0  0  0  0  0  0  0  0
  142.8064  145.3167  153.5122 H   0  0  0  0  0  0  0  0  0  0  0  0
  143.9131  145.5106  154.8587 H   0  0  0  0  0  0  0  0  0  0  0  0
  144.2986  143.6416  152.4474 H   0  0  0  0  0  0  0  0  0  0  0  0
  145.1838  145.1199  152.7672 H   0  0  0  0  0  0  0  0  0  0  0  0
  144.6303  141.7845  153.9092 H   0  0  0  0  0  0  0  0  0  0  0  0
  146.9598  142.3257  155.6689 H   0  0  0  0  0  0  0  0  0  0  0  0
  145.7536  141.2531  156.3370 H   0  0  0  0  0  0  0  0  0  0  0  0
  146.8520  139.7494  155.1660 H   0  0  0  0  0  0  0  0  0  0  0  0
  147.8693  140.4761  152.8451 H   0  0  0  0  0  0  0  0  0  0  0  0
  147.8832  141.9942  153.7036 H   0  0  0  0  0  0  0  0  0  0  0  0
  148.9948  139.5055  155.0632 H   0  0  0  0  0  0  0  0  0  0  0  0
  149.8539  140.3148  152.8250 H   0  0  0  0  0  0  0  0  0  0  0  0
  150.0238  142.3643  155.2698 H   0  0  0  0  0  0  0  0  0  0  0  0
  148.6866  141.8335  156.2630 H   0  0  0  0  0  0  0  0  0  0  0  0
  150.7059  138.9401  155.8874 H   0  0  0  0  0  0  0  0  0  0  0  0
  153.2933  140.0714  159.9355 H   0  0  0  0  0  0  0  0  0  0  0  0
  154.0973  143.2308  161.1237 H   0  0  0  0  0  0  0  0  0  0  0  0
  153.9733  141.5478  161.6321 H   0  0  0  0  0  0  0  0  0  0  0  0
  152.7426  142.7052  162.1346 H   0  0  0  0  0  0  0  0  0  0  0  0
  150.9918  145.1350  159.4979 H   0  0  0  0  0  0  0  0  0  0  0  0
  152.6379  144.9735  160.1051 H   0  0  0  0  0  0  0  0  0  0  0  0
  151.2690  144.4482  161.0974 H   0  0  0  0  0  0  0  0  0  0  0  0
  150.3723  143.5456  157.8693 H   0  0  0  0  0  0  0  0  0  0  0  0
  144.2718  143.5062  156.4222 H   0  0  0  0  0  0  0  0  0  0  0  0
  143.4233  142.0134  156.0592 H   0  0  0  0  0  0  0  0  0  0  0  0
  142.5196  143.0352  154.1399 H   0  0  0  0  0  0  0  0  0  0  0  0
  1  2  1  0  0  0  0
  1 26  1  0  0  0  0
  1 27  1  0  0  0  0
  1 28  1  0  0  0  0
  2  3  1  0  0  0  0
  2 29  1  0  0  0  0
  2 30  1  0  0  0  0
  3 25  1  0  0  0  0
  3  4  1  0  0  0  0
  3 56  1  0  0  0  0
  4  5  1  0  0  0  0
  4 31  1  0  0  0  0
  4 32  1  0  0  0  0
  5  6  1  0  0  0  0
  5 33  1  0  0  0  0
  5 34  1  0  0  0  0
  6  7  1  0  0  0  0
  7  8  1  0  0  0  0
  7 25  1  0  0  0  0
  7 35  1  0  0  0  0
  8  9  1  0  0  0  0
  8 36  1  0  0  0  0
  8 37  1  0  0  0  0
  9 10  1  0  0  0  0
  9 38  1  0  0  0  0
 10 11  1  0  0  0  0
 10 39  1  0  0  0  0
 10 40  1  0  0  0  0
 11 12  1  0  0  0  0
 11 13  1  0  0  0  0
 11 41  1  0  0  0  0
 12 42  1  0  0  0  0
 13 14  1  0  0  0  0
 13 43  1  0  0  0  0
 13 44  1  0  0  0  0
 14 24  1  0  0  0  0
 14 15  1  0  0  0  0
 15 16  2  0  0  0  0
 15 45  1  0  0  0  0
 16 17  1  0  0  0  0
 17 24  2  0  0  0  0
 17 18  1  0  0  0  0
 18 19  2  0  0  0  0
 18 46  1  0  0  0  0
 19 20  1  0  0  0  0
 19 21  1  0  0  0  0
 20 47  1  0  0  0  0
 20 48  1  0  0  0  0
 20 49  1  0  0  0  0
 21 22  1  0  0  0  0
 21 23  2  0  0  0  0
 22 50  1  0  0  0  0
 22 51  1  0  0  0  0
 22 52  1  0  0  0  0
 23 24  1  0  0  0  0
 23 53  1  0  0  0  0
 25 54  1  0  0  0  0
 25 55  1  0  0  0  0
M  CHG  1   3   1
M  END
> <s_m_source_file>
AV-unprocessed.smi

> <i_m_source_file_index>
1047

> <i_lp_mmshare_version>
43012

> <i_f3d_flags>
0

> <s_epik_input>
W0NIM11bQ0gyXU4xW0NIMl1bQ0gyXU9bQ0BIXShbQ0gyXTEpW0NIMl1bTkhdW0NIMl1bQ0BIXShbT0hdKVtDSDJdbihbY0hdbjIpYyhjMjMpW2NIXWMoW0NIM10pYyhbY0hdMylbQ0gzXQ==

> <s_epik_cmdline>
J2VwaWtfcHl0aG9uJywgJy1waCcsICc3LjAnLCAnLXRuJywgJzgnLCAnLW1hJywgJzIwMCcsICctbWV0YWxfYmluZGluZycsICctaW1hZScsICc8aW5maWxlLm1hZT4nLCAnLW9tYWUnLCAnPG91dGZpbGUubWFlPic=

> <r_epik_Ionization_Penalty>
1.19246

> <r_epik_Ionization_Penalty_Charging>
0.210041

> <r_epik_Ionization_Penalty_Neutral>
0.982415

> <r_epik_State_Penalty>
1.57595

> <r_epik_Charging_Adjusted_Penalty>
1.78599

> <i_epik_Tot_Q>
1

> <i_epik_Tot_abs_Q>
1

> <r_epik_Metal_State_Penalty>
1.46172

> <b_epik_Metal_Only>
0

> <s_lp_Force_Field>
OPLS_2005

> <r_lp_Energy>
33.3203

> <b_lp_Chiralities_Consistent>
1

> <s_lp_Variant>
AV-unprocessed.smi:1047-17

> <Gold.Version>
5.8.1

> <Gold.Id.Protein>
6NUR|6NUR_protein|mol2

> <Gold.PLP.Fitness>
62.5750

> <Gold.PLP.PLP>
-53.7329

> <Gold.PLP.part.hbond>
-4.0000

> <Gold.PLP.part.metal>
0.0000

> <Gold.PLP.part.buried>
-3.3536

> <Gold.PLP.part.nonpolar>
-47.2006

> <Gold.PLP.part.repulsive>
0.3018

> <Gold.PLP.ligand.clash>
0.0000

> <Gold.PLP.ligand.torsion>
1.3606

> <Gold.PLP.Chemscore.Hbond>
3.8160

> <Gold.PLP.Chemscore.CHOScore>
0.0000

> <Gold.PLP.Chemscore.Metal>
0.0000

> <Gold.Chemscore.Hbonds>
donor molecule, donor type, donor heavy atom, donor atom, acceptor molecule, acceptor atom, score
      L1  H     3    56       P1 10174  1.57
      L1  H    12    42       P1  7957  1.00
      P1  H  7989  7998       L1    12  0.59

> <Gold.PLP.Chemscore.Internal.Correction>
0.1153

> <Gold.Rescore>
     Score         DG    S(hbond)    S(metal)    S(lipo)     H(rot)  DE(clash)    DE(int)     intcor
     21.57     -23.88       2.48        0.00     143.72       2.62       1.07       1.24       ----

> <Gold.Chemscore.Fitness>
21.5728

> <Gold.Chemscore.DG>
-23.8835

> <Gold.Chemscore.ZeroCoef>
-5.4800

> <Gold.Chemscore.Hbond>
2.4845

> <Gold.Chemscore.Metal>
0.0000

> <Gold.Chemscore.Lipo>
143.7165

> <Gold.Chemscore.Internal_Hbond>
0.0000

> <Gold.Chemscore.DEClash>
1.0694

> <Gold.Chemscore.DEInternal>
1.2413

> <Gold.Chemscore.Rot>
2.6209

> <Gold.Chemscore.Internal.Correction>
   9.000000E+99

> <Gold.Chemscore.Hbonds>
donor molecule, donor type, donor heavy atom, donor atom, acceptor molecule, acceptor atom, score
      L1  H     3    56       P1 10174  0.73
      L1  H    12    42       P1  7957  1.00
      P1  H  7989  7998       L1    12  0.26

> <Gold.Chemscore.Hbond.Weighted>
-8.2982

> <Gold.Chemscore.Metal.Weighted>
-0.0000

> <Gold.Chemscore.Lipo.Weighted>
-16.8148

> <Gold.Chemscore.Internal_Hbond.Weighted>
0.0000

> <Gold.Chemscore.DEClash.Weighted>
1.0694

> <Gold.Chemscore.DEInternal.Weighted>
1.2413

> <Gold.Chemscore.Rot.Weighted>
6.7096

> <Gold.Chemscore.Internal.Correction.Weighted>
   9.000000E+99

> <Gold.Protein.RotatedTorsions>
[ 6907 6896 6895 6894 ] final -145.71 input  -60.11 | X-H torsion
[ 7974 7965 7964 7962 ] final   40.62 input  175.53 | X-H torsion
[ 8008 7997 7996 7995 ] final  176.72 input   59.86 | X-H torsion
[ 10167 10162 10161 10158 ] final  -66.06 input  -65.29 | X-H torsion
[ 10718 10713 10712 10709 ] final -130.94 input   66.30 | X-H torsion
[ 10763 10752 10751 10750 ] final  -54.24 input  -60.55 | X-H torsion
[ 11005 11000 10999 10996 ] final -148.86 input  -57.11 | X-H torsion

> <Gold.Protein.ActiveResidues>
 VAL166  LYS551  ARG553  GLY616  TRP617  ASP618  TYR619  PRO620  LYS621  CYS622 
 ASP623  PHE694  ASN695  SER759  ASP760  ASP761  ALA762  ILE779  LEU786  VAL792 
 PHE793  MET794  SER795  GLU796  ALA797  LYS798  CYS799  TRP800  GLU811  SER814 

> <Gold.Protein.RotatedAtoms>
  151.1315  133.5033  159.2598 H   0  0  0  0  0  0  0  0  0  0  0  0  # atno 6907 bound_to 6896
  151.1752  135.0336  159.8779 H   0  0  0  0  0  0  0  0  0  0  0  0  # atno 6908 bound_to 6896
  152.5460  134.1174  159.8437 H   0  0  0  0  0  0  0  0  0  0  0  0  # atno 6909 bound_to 6896
  146.0890  139.5511  142.9488 H   0  0  0  0  0  0  0  0  0  0  0  0  # atno 7974 bound_to 7965
  156.0734  140.1376  156.9801 H   0  0  0  0  0  0  0  0  0  0  0  0  # atno 8008 bound_to 7997
  154.4544  140.0967  156.6766 H   0  0  0  0  0  0  0  0  0  0  0  0  # atno 8009 bound_to 7997
  155.5191  140.3456  155.4405 H   0  0  0  0  0  0  0  0  0  0  0  0  # atno 8010 bound_to 7997
  140.5685  143.2316  151.6587 H   0  0  0  0  0  0  0  0  0  0  0  0  # atno 10167 bound_to 10162
  156.2195  130.6969  151.0740 H   0  0  0  0  0  0  0  0  0  0  0  0  # atno 10718 bound_to 10713
  154.1716  135.6458  153.5011 H   0  0  0  0  0  0  0  0  0  0  0  0  # atno 10763 bound_to 10752
  153.0083  135.5385  154.6606 H   0  0  0  0  0  0  0  0  0  0  0  0  # atno 10764 bound_to 10752
  154.5947  135.2937  155.0571 H   0  0  0  0  0  0  0  0  0  0  0  0  # atno 10765 bound_to 10752
  140.7568  134.3344  157.5112 H   0  0  0  0  0  0  0  0  0  0  0  0  # atno 11005 bound_to 11000
  145.6075  141.0345  143.1984 LP  0  0  0  0  0  0  0  0  0  0  0  0  # atno 17320 bound_to 7965
  144.7346  139.7623  143.7334 LP  0  0  0  0  0  0  0  0  0  0  0  0  # atno 17321 bound_to 7965
  139.5105  144.3541  152.0625 LP  0  0  0  0  0  0  0  0  0  0  0  0  # atno 17342 bound_to 10162
  140.2675  144.4000  150.6163 LP  0  0  0  0  0  0  0  0  0  0  0  0  # atno 17343 bound_to 10162
  157.7080  131.0747  150.6600 LP  0  0  0  0  0  0  0  0  0  0  0  0  # atno 17370 bound_to 10713
  156.6663  130.4526  149.5671 LP  0  0  0  0  0  0  0  0  0  0  0  0  # atno 17371 bound_to 10713
  139.8778  134.9177  156.3184 LP  0  0  0  0  0  0  0  0  0  0  0  0  # atno 17394 bound_to 11000
  140.9700  133.7333  156.0521 LP  0  0  0  0  0  0  0  0  0  0  0  0  # atno 17395 bound_to 11000

$$$$
