AV-unprocessed.smi:204|AV-procd|sdf|1599|dock1
  -GOLD-   2262019503D 1   1.00000     0.00000
 Structure written by MMmdl.
 53 56  0  0  0  0  0  0  0  0  1 V2000
  151.1996  145.3313  158.8168 C   0  0  0  0  0  0  0  0  0  0  0  0
  151.5740  143.9444  158.3052 C   0  0  0  0  0  0  0  0  0  0  0  0
  152.5826  143.3804  158.7284 O   0  0  0  0  0  0  0  0  0  0  0  0
  150.7521  143.4056  157.3940 N   0  0  0  0  0  0  0  0  0  0  0  0
  150.9384  142.0909  156.7925 C   0  0  0  0  0  0  0  0  0  0  0  0
  149.6182  141.5277  156.2347 C   0  0  1  0  0  0  0  0  0  0  0  0
  149.7175  141.1433  154.7428 C   0  0  0  0  0  0  0  0  0  0  0  0
  148.3885  140.5542  154.2463 C   0  0  0  0  0  0  0  0  0  0  0  0
  147.9467  139.3715  155.1218 C   0  0  0  0  0  0  0  0  0  0  0  0
  147.9047  139.7582  156.5328 N   0  0  0  0  0  0  0  0  0  0  0  0
  147.2296  138.9510  157.3913 C   0  0  0  0  0  0  0  0  0  0  0  0
  145.9025  139.1534  157.6098 N   0  0  0  0  0  0  0  0  0  0  0  0
  145.2259  138.3598  158.4449 C   0  0  0  0  0  0  0  0  0  0  0  0
  145.6735  137.3253  159.1583 N   0  0  0  0  0  0  0  0  0  0  0  0
  147.0060  137.1213  158.9536 C   0  0  0  0  0  0  0  0  0  0  0  0
  147.8506  137.8776  158.0918 C   0  0  0  0  0  0  0  0  0  0  0  0
  149.1464  137.3772  158.1439 N   0  0  0  0  0  0  0  0  0  0  0  0
  149.0682  136.3739  158.9743 C   0  0  0  0  0  0  0  0  0  0  0  0
  147.8230  136.1586  159.5211 N   0  0  0  0  0  0  0  0  0  0  0  0
  147.4610  135.1205  160.4747 C   0  0  0  0  0  0  0  0  0  0  0  0
  147.0306  135.6547  161.8570 C   0  0  0  0  0  0  0  0  0  0  0  0
  146.5359  134.5089  162.7573 C   0  0  0  0  0  0  0  0  0  0  0  0
  145.4445  133.8254  162.1739 O   0  0  0  0  0  0  0  0  0  0  0  0
  148.0122  136.6152  162.5438 C   0  0  0  0  0  0  0  0  0  0  0  0
  146.9759  137.5906  162.7829 O   0  0  0  0  0  0  0  0  0  0  0  0
  146.1284  136.8966  161.8432 C   0  0  0  0  0  0  0  0  0  0  0  0
  149.1532  140.3104  157.0587 C   0  0  0  0  0  0  0  0  0  0  0  0
  150.1793  145.3341  159.2017 H   0  0  0  0  0  0  0  0  0  0  0  0
  151.2689  146.0642  158.0127 H   0  0  0  0  0  0  0  0  0  0  0  0
  151.8675  145.6417  159.6212 H   0  0  0  0  0  0  0  0  0  0  0  0
  149.9470  143.9381  157.0982 H   0  0  0  0  0  0  0  0  0  0  0  0
  151.6838  142.1591  155.9984 H   0  0  0  0  0  0  0  0  0  0  0  0
  151.3387  141.4113  157.5471 H   0  0  0  0  0  0  0  0  0  0  0  0
  148.8570  142.3036  156.3346 H   0  0  0  0  0  0  0  0  0  0  0  0
  149.9769  142.0109  154.1357 H   0  0  0  0  0  0  0  0  0  0  0  0
  150.5162  140.4139  154.6013 H   0  0  0  0  0  0  0  0  0  0  0  0
  147.6186  141.3268  154.2633 H   0  0  0  0  0  0  0  0  0  0  0  0
  148.4842  140.2350  153.2081 H   0  0  0  0  0  0  0  0  0  0  0  0
  146.9639  139.0283  154.7955 H   0  0  0  0  0  0  0  0  0  0  0  0
  148.6392  138.5375  154.9973 H   0  0  0  0  0  0  0  0  0  0  0  0
  144.1759  138.5862  158.5577 H   0  0  0  0  0  0  0  0  0  0  0  0
  149.9258  135.7652  159.2221 H   0  0  0  0  0  0  0  0  0  0  0  0
  146.6616  134.5258  160.0307 H   0  0  0  0  0  0  0  0  0  0  0  0
  148.3067  134.4388  160.5723 H   0  0  0  0  0  0  0  0  0  0  0  0
  147.3306  133.7964  162.9772 H   0  0  0  0  0  0  0  0  0  0  0  0
  146.2066  134.8969  163.7219 H   0  0  0  0  0  0  0  0  0  0  0  0
  145.1388  134.3252  161.4322 H   0  0  0  0  0  0  0  0  0  0  0  0
  148.4464  136.2255  163.4652 H   0  0  0  0  0  0  0  0  0  0  0  0
  148.7861  137.0124  161.8863 H   0  0  0  0  0  0  0  0  0  0  0  0
  146.0903  137.4069  160.8793 H   0  0  0  0  0  0  0  0  0  0  0  0
  145.1238  136.7235  162.2311 H   0  0  0  0  0  0  0  0  0  0  0  0
  149.9148  139.5298  157.0312 H   0  0  0  0  0  0  0  0  0  0  0  0
  149.0493  140.6018  158.1032 H   0  0  0  0  0  0  0  0  0  0  0  0
  1  2  1  0  0  0  0
  1 28  1  0  0  0  0
  1 29  1  0  0  0  0
  1 30  1  0  0  0  0
  2  3  2  0  0  0  0
  2  4  1  0  0  0  0
  4  5  1  0  0  0  0
  4 31  1  0  0  0  0
  5  6  1  0  0  0  0
  5 32  1  0  0  0  0
  5 33  1  0  0  0  0
  6 27  1  0  0  0  0
  6  7  1  0  0  0  0
  6 34  1  0  0  0  0
  7  8  1  0  0  0  0
  7 35  1  0  0  0  0
  7 36  1  0  0  0  0
  8  9  1  0  0  0  0
  8 37  1  0  0  0  0
  8 38  1  0  0  0  0
  9 10  1  0  0  0  0
  9 39  1  0  0  0  0
  9 40  1  0  0  0  0
 10 11  1  0  0  0  0
 10 27  1  0  0  0  0
 11 16  1  0  0  0  0
 11 12  2  0  0  0  0
 12 13  1  0  0  0  0
 13 14  2  0  0  0  0
 13 41  1  0  0  0  0
 14 15  1  0  0  0  0
 15 19  1  0  0  0  0
 15 16  2  0  0  0  0
 16 17  1  0  0  0  0
 17 18  2  0  0  0  0
 18 19  1  0  0  0  0
 18 42  1  0  0  0  0
 19 20  1  0  0  0  0
 20 21  1  0  0  0  0
 20 43  1  0  0  0  0
 20 44  1  0  0  0  0
 21 26  1  0  0  0  0
 21 22  1  0  0  0  0
 21 24  1  0  0  0  0
 22 23  1  0  0  0  0
 22 45  1  0  0  0  0
 22 46  1  0  0  0  0
 23 47  1  0  0  0  0
 24 25  1  0  0  0  0
 24 48  1  0  0  0  0
 24 49  1  0  0  0  0
 25 26  1  0  0  0  0
 26 50  1  0  0  0  0
 26 51  1  0  0  0  0
 27 52  1  0  0  0  0
 27 53  1  0  0  0  0
M  END
> <s_m_source_file>
AV-unprocessed.smi

> <i_m_source_file_index>
204

> <i_lp_mmshare_version>
43012

> <i_f3d_flags>
0

> <s_epik_input>
W0NIM11DKD1PKVtOSF1bQ0gyXVtDQEBIXTFbQ0gyXVtDSDJdW0NIMl1OKFtDSDJdMSljKG5bY0hdbjIpYyhjMjMpbltjSF1uM1tDSDJdQzQoW0NIMl1bT0hdKVtDSDJdT1tDSDJdNA==

> <s_epik_cmdline>
J2VwaWtfcHl0aG9uJywgJy1waCcsICc3LjAnLCAnLXRuJywgJzgnLCAnLW1hJywgJzIwMCcsICctbWV0YWxfYmluZGluZycsICctaW1hZScsICc8aW5maWxlLm1hZT4nLCAnLW9tYWUnLCAnPG91dGZpbGUubWFlPic=

> <r_lp_tautomer_probability>
1

> <r_epik_Ionization_Penalty>
0.00166599

> <r_epik_Ionization_Penalty_Charging>
0

> <r_epik_Ionization_Penalty_Neutral>
0.00166599

> <r_epik_State_Penalty>
0.000989951

> <r_epik_Charging_Adjusted_Penalty>
0.000989951

> <i_epik_Tot_Q>
0

> <i_epik_Tot_abs_Q>
0

> <r_epik_Metal_State_Penalty>
-0

> <b_epik_Metal_Only>
0

> <s_lp_Force_Field>
OPLS_2005

> <r_lp_Energy>
35.563

> <b_lp_Chiralities_Consistent>
1

> <s_lp_Variant>
AV-unprocessed.smi:204-2

> <Gold.Version>
5.8.1

> <Gold.Id.Protein>
6NUR|6NUR_protein|mol2

> <Gold.PLP.Fitness>
40.5539

> <Gold.PLP.PLP>
-39.8738

> <Gold.PLP.part.hbond>
-3.0000

> <Gold.PLP.part.metal>
0.0000

> <Gold.PLP.part.buried>
-4.8907

> <Gold.PLP.part.nonpolar>
-32.8084

> <Gold.PLP.part.repulsive>
0.0000

> <Gold.PLP.ligand.clash>
0.0000

> <Gold.PLP.ligand.torsion>
1.5824

> <Gold.PLP.Chemscore.Hbond>
1.0044

> <Gold.PLP.Chemscore.CHOScore>
0.0000

> <Gold.PLP.Chemscore.Metal>
0.0000

> <Gold.Chemscore.Hbonds>
donor molecule, donor type, donor heavy atom, donor atom, acceptor molecule, acceptor atom, score
      L1  H     4    31       P1  8028  1.00
      P1  H  6934  6947       L1    25  0.01

> <Gold.PLP.Chemscore.Internal.Correction>
0.8317

> <Gold.Rescore>
     Score         DG    S(hbond)    S(metal)    S(lipo)     H(rot)  DE(clash)    DE(int)     intcor
      7.66     -10.59       0.99        0.00      88.03       3.33       0.27       2.65       ----

> <Gold.Chemscore.Fitness>
7.6634

> <Gold.Chemscore.DG>
-10.5858

> <Gold.Chemscore.ZeroCoef>
-5.4800

> <Gold.Chemscore.Hbond>
0.9942

> <Gold.Chemscore.Metal>
0.0000

> <Gold.Chemscore.Lipo>
88.0346

> <Gold.Chemscore.Internal_Hbond>
0.0000

> <Gold.Chemscore.DEClash>
0.2696

> <Gold.Chemscore.DEInternal>
2.6528

> <Gold.Chemscore.Rot>
3.3261

> <Gold.Chemscore.Internal.Correction>
   9.000000E+99

> <Gold.Chemscore.Hbonds>
donor molecule, donor type, donor heavy atom, donor atom, acceptor molecule, acceptor atom, score
      L1  H     4    31       P1  8028  0.85

> <Gold.Chemscore.Hbond.Weighted>
-3.3206

> <Gold.Chemscore.Metal.Weighted>
-0.0000

> <Gold.Chemscore.Lipo.Weighted>
-10.3000

> <Gold.Chemscore.Internal_Hbond.Weighted>
0.0000

> <Gold.Chemscore.DEClash.Weighted>
0.2696

> <Gold.Chemscore.DEInternal.Weighted>
2.6528

> <Gold.Chemscore.Rot.Weighted>
8.5149

> <Gold.Chemscore.Internal.Correction.Weighted>
   9.000000E+99

> <Gold.Protein.RotatedTorsions>
[ 6907 6896 6895 6894 ] final  -58.45 input  -60.11 | X-H torsion
[ 7974 7965 7964 7962 ] final   96.55 input  175.53 | X-H torsion
[ 8008 7997 7996 7995 ] final   -1.25 input   59.86 | X-H torsion
[ 10167 10162 10161 10158 ] final  -20.68 input  -65.29 | X-H torsion
[ 10718 10713 10712 10709 ] final -160.36 input   66.30 | X-H torsion
[ 10763 10752 10751 10750 ] final  -42.78 input  -60.55 | X-H torsion
[ 11005 11000 10999 10996 ] final   17.34 input  -57.11 | X-H torsion

> <Gold.Protein.ActiveResidues>
 VAL166  LYS551  ARG553  GLY616  TRP617  ASP618  TYR619  PRO620  LYS621  CYS622 
 ASP623  PHE694  ASN695  SER759  ASP760  ASP761  ALA762  ILE779  LEU786  VAL792 
 PHE793  MET794  SER795  GLU796  ALA797  LYS798  CYS799  TRP800  GLU811  SER814 

> <Gold.Protein.RotatedAtoms>
  150.8006  134.7097  159.6596 H   0  0  0  0  0  0  0  0  0  0  0  0  # atno 6907 bound_to 6896
  152.4123  134.6100  160.0033 H   0  0  0  0  0  0  0  0  0  0  0  0  # atno 6908 bound_to 6896
  151.6340  133.3293  159.3151 H   0  0  0  0  0  0  0  0  0  0  0  0  # atno 6909 bound_to 6896
  145.4373  139.2304  143.3111 H   0  0  0  0  0  0  0  0  0  0  0  0  # atno 7974 bound_to 7965
  154.6489  140.2564  155.7236 H   0  0  0  0  0  0  0  0  0  0  0  0  # atno 8008 bound_to 7997
  156.2565  140.2872  156.0835 H   0  0  0  0  0  0  0  0  0  0  0  0  # atno 8009 bound_to 7997
  155.1481  140.0381  157.2805 H   0  0  0  0  0  0  0  0  0  0  0  0  # atno 8010 bound_to 7997
  140.7277  143.4700  151.0260 H   0  0  0  0  0  0  0  0  0  0  0  0  # atno 10167 bound_to 10162
  156.5811  130.8730  151.2864 H   0  0  0  0  0  0  0  0  0  0  0  0  # atno 10718 bound_to 10713
  153.9847  135.6712  153.4751 H   0  0  0  0  0  0  0  0  0  0  0  0  # atno 10763 bound_to 10752
  153.0732  135.4963  154.8345 H   0  0  0  0  0  0  0  0  0  0  0  0  # atno 10764 bound_to 10752
  154.7144  135.3104  154.9109 H   0  0  0  0  0  0  0  0  0  0  0  0  # atno 10765 bound_to 10752
  140.4371  134.1360  155.7686 H   0  0  0  0  0  0  0  0  0  0  0  0  # atno 11005 bound_to 11000
  146.2575  140.5117  142.8867 LP  0  0  0  0  0  0  0  0  0  0  0  0  # atno 17320 bound_to 7965
  144.8144  140.6442  143.6394 LP  0  0  0  0  0  0  0  0  0  0  0  0  # atno 17321 bound_to 7965
  139.8391  143.7588  152.3180 LP  0  0  0  0  0  0  0  0  0  0  0  0  # atno 17342 bound_to 10162
  139.7730  144.7470  151.0196 LP  0  0  0  0  0  0  0  0  0  0  0  0  # atno 17343 bound_to 10162
  157.7326  130.9718  150.1937 LP  0  0  0  0  0  0  0  0  0  0  0  0  # atno 17370 bound_to 10713
  156.2631  130.3713  149.8110 LP  0  0  0  0  0  0  0  0  0  0  0  0  # atno 17371 bound_to 10713
  141.1721  133.8587  157.1537 LP  0  0  0  0  0  0  0  0  0  0  0  0  # atno 17394 bound_to 11000
  140.0095  134.9994  157.0365 LP  0  0  0  0  0  0  0  0  0  0  0  0  # atno 17395 bound_to 11000

$$$$
