AV-unprocessed.smi:2393|AV-procd|sdf|9489|dock6
  -GOLD-   2272013113D 1   1.00000     0.00000
 Structure written by MMmdl.
 43 44  0  0  0  0  0  0  0  0  1 V2000
  152.2606  143.6737  160.8736 C   0  0  0  0  0  0  0  0  0  0  0  0
  152.7002  142.4278  160.1335 C   0  0  0  0  0  0  0  0  0  0  0  0
  153.8193  141.6886  160.5626 C   0  0  0  0  0  0  0  0  0  0  0  0
  154.1786  140.5408  159.8291 C   0  0  0  0  0  0  0  0  0  0  0  0
  155.3699  139.6981  160.2345 C   0  0  0  0  0  0  0  0  0  0  0  0
  153.5031  140.1233  158.7371 N   0  0  0  0  0  0  0  0  0  0  0  0
  152.4242  140.8278  158.3143 C   0  0  0  0  0  0  0  0  0  0  0  0
  151.6420  140.4675  157.1851 N   0  0  0  0  0  0  0  0  0  0  0  0
  150.3323  140.6915  156.9777 C   0  0  0  0  0  0  0  0  0  0  0  0
  149.5612  141.2070  157.7877 O   0  0  0  0  0  0  0  0  0  0  0  0
  149.9531  140.2682  155.7627 N   0  0  0  0  0  0  0  0  0  0  0  0
  148.5969  140.3594  155.2288 C   0  0  1  0  0  0  0  0  0  0  0  0
  148.3807  141.7304  154.5779 C   0  0  0  0  0  0  0  0  0  0  0  0
  146.9959  141.7984  153.9190 C   0  0  0  0  0  0  0  0  0  0  0  0
  146.8424  140.7439  152.9709 O   0  0  0  0  0  0  0  0  0  0  0  0
  146.9780  139.4111  153.4765 C   0  0  0  0  0  0  0  0  0  0  0  0
  145.7973  139.0528  154.4050 C   0  0  0  0  0  0  0  0  0  0  0  0
  146.9289  138.5056  152.2349 C   0  0  0  0  0  0  0  0  0  0  0  0
  148.3478  139.2595  154.1816 C   0  0  0  0  0  0  0  0  0  0  0  0
  151.9937  141.9882  158.9960 C   0  0  0  0  0  0  0  0  0  0  0  0
  152.8395  143.8179  161.7864 H   0  0  0  0  0  0  0  0  0  0  0  0
  151.2076  143.6016  161.1463 H   0  0  0  0  0  0  0  0  0  0  0  0
  152.3930  144.5524  160.2419 H   0  0  0  0  0  0  0  0  0  0  0  0
  154.3868  141.9925  161.4302 H   0  0  0  0  0  0  0  0  0  0  0  0
  155.7642  140.0108  161.2018 H   0  0  0  0  0  0  0  0  0  0  0  0
  156.1658  139.7898  159.4951 H   0  0  0  0  0  0  0  0  0  0  0  0
  155.0878  138.6473  160.3074 H   0  0  0  0  0  0  0  0  0  0  0  0
  152.1404  139.9973  156.4443 H   0  0  0  0  0  0  0  0  0  0  0  0
  150.6514  139.8552  155.1620 H   0  0  0  0  0  0  0  0  0  0  0  0
  147.8848  140.2538  156.0487 H   0  0  0  0  0  0  0  0  0  0  0  0
  148.4792  142.5233  155.3201 H   0  0  0  0  0  0  0  0  0  0  0  0
  149.1473  141.9107  153.8227 H   0  0  0  0  0  0  0  0  0  0  0  0
  146.2050  141.7652  154.6681 H   0  0  0  0  0  0  0  0  0  0  0  0
  146.8824  142.7483  153.3967 H   0  0  0  0  0  0  0  0  0  0  0  0
  145.8469  138.0075  154.7118 H   0  0  0  0  0  0  0  0  0  0  0  0
  144.8426  139.2014  153.8996 H   0  0  0  0  0  0  0  0  0  0  0  0
  145.7794  139.6491  155.3161 H   0  0  0  0  0  0  0  0  0  0  0  0
  147.0421  137.4551  152.5048 H   0  0  0  0  0  0  0  0  0  0  0  0
  147.7240  138.7537  151.5310 H   0  0  0  0  0  0  0  0  0  0  0  0
  145.9811  138.6115  151.7060 H   0  0  0  0  0  0  0  0  0  0  0  0
  149.1409  139.3067  153.4334 H   0  0  0  0  0  0  0  0  0  0  0  0
  148.4253  138.2733  154.6415 H   0  0  0  0  0  0  0  0  0  0  0  0
  151.1316  142.5399  158.6497 H   0  0  0  0  0  0  0  0  0  0  0  0
  1  2  1  0  0  0  0
  1 21  1  0  0  0  0
  1 22  1  0  0  0  0
  1 23  1  0  0  0  0
  2 20  1  0  0  0  0
  2  3  2  0  0  0  0
  3  4  1  0  0  0  0
  3 24  1  0  0  0  0
  4  5  1  0  0  0  0
  4  6  2  0  0  0  0
  5 25  1  0  0  0  0
  5 26  1  0  0  0  0
  5 27  1  0  0  0  0
  6  7  1  0  0  0  0
  7  8  1  0  0  0  0
  7 20  2  0  0  0  0
  8  9  1  0  0  0  0
  8 28  1  0  0  0  0
  9 10  2  0  0  0  0
  9 11  1  0  0  0  0
 11 12  1  0  0  0  0
 11 29  1  0  0  0  0
 12 19  1  0  0  0  0
 12 13  1  0  0  0  0
 12 30  1  0  0  0  0
 13 14  1  0  0  0  0
 13 31  1  0  0  0  0
 13 32  1  0  0  0  0
 14 15  1  0  0  0  0
 14 33  1  0  0  0  0
 14 34  1  0  0  0  0
 15 16  1  0  0  0  0
 16 17  1  0  0  0  0
 16 18  1  0  0  0  0
 16 19  1  0  0  0  0
 17 35  1  0  0  0  0
 17 36  1  0  0  0  0
 17 37  1  0  0  0  0
 18 38  1  0  0  0  0
 18 39  1  0  0  0  0
 18 40  1  0  0  0  0
 19 41  1  0  0  0  0
 19 42  1  0  0  0  0
 20 43  1  0  0  0  0
M  END
> <s_m_source_file>
AV-unprocessed.smi

> <i_m_source_file_index>
2393

> <i_lp_mmshare_version>
43012

> <i_f3d_flags>
0

> <s_epik_input>
W0NIM11jMVtjSF1jKFtDSDNdKW5jKFtjSF0xKVtOSF1DKD1PKVtOSF1bQ0BASF0oW0NIMl0yKVtDSDJdW0NIMl1PQzIoW0NIM10pW0NIM10=

> <s_epik_cmdline>
J2VwaWtfcHl0aG9uJywgJy1waCcsICc3LjAnLCAnLXRuJywgJzgnLCAnLW1hJywgJzIwMCcsICctbWV0YWxfYmluZGluZycsICctaW1hZScsICc8aW5maWxlLm1hZT4nLCAnLW9tYWUnLCAnPG91dGZpbGUubWFlPic=

> <r_lp_tautomer_probability>
1

> <r_epik_Ionization_Penalty>
0.000261351

> <r_epik_Ionization_Penalty_Charging>
0

> <r_epik_Ionization_Penalty_Neutral>
0.000261351

> <r_epik_State_Penalty>
-0

> <r_epik_Charging_Adjusted_Penalty>
0

> <i_epik_Tot_Q>
0

> <i_epik_Tot_abs_Q>
0

> <r_epik_Metal_State_Penalty>
-0

> <b_epik_Metal_Only>
0

> <s_lp_Force_Field>
OPLS_2005

> <r_lp_Energy>
12.7135

> <b_lp_Chiralities_Consistent>
1

> <s_lp_Variant>
AV-unprocessed.smi:2393-2

> <Gold.Version>
5.8.1

> <Gold.Id.Protein>
6NUR|6NUR_protein|mol2

> <Gold.PLP.Fitness>
36.3211

> <Gold.PLP.PLP>
-34.4823

> <Gold.PLP.part.hbond>
-1.0000

> <Gold.PLP.part.metal>
0.0000

> <Gold.PLP.part.buried>
-0.9021

> <Gold.PLP.part.nonpolar>
-32.5817

> <Gold.PLP.part.repulsive>
0.4223

> <Gold.PLP.ligand.clash>
0.0000

> <Gold.PLP.ligand.torsion>
0.5448

> <Gold.PLP.Chemscore.Hbond>
0.9760

> <Gold.PLP.Chemscore.CHOScore>
0.0000

> <Gold.PLP.Chemscore.Metal>
0.0000

> <Gold.Chemscore.Hbonds>
donor molecule, donor type, donor heavy atom, donor atom, acceptor molecule, acceptor atom, score
      P1  H  7997  8008       L1     6  0.99

> <Gold.PLP.Chemscore.Internal.Correction>
0.0003

> <Gold.Rescore>
     Score         DG    S(hbond)    S(metal)    S(lipo)     H(rot)  DE(clash)    DE(int)     intcor
     14.21     -16.37       0.51        0.00     100.32       1.00       0.24       1.91       ----

> <Gold.Chemscore.Fitness>
14.2103

> <Gold.Chemscore.DG>
-16.3656

> <Gold.Chemscore.ZeroCoef>
-5.4800

> <Gold.Chemscore.Hbond>
0.5115

> <Gold.Chemscore.Metal>
0.0000

> <Gold.Chemscore.Lipo>
100.3170

> <Gold.Chemscore.Internal_Hbond>
0.0000

> <Gold.Chemscore.DEClash>
0.2428

> <Gold.Chemscore.DEInternal>
1.9125

> <Gold.Chemscore.Rot>
1.0000

> <Gold.Chemscore.Internal.Correction>
   9.000000E+99

> <Gold.Chemscore.Hbonds>
donor molecule, donor type, donor heavy atom, donor atom, acceptor molecule, acceptor atom, score
      P1  H  7997  8008       L1     6  0.32

> <Gold.Chemscore.Hbond.Weighted>
-1.7085

> <Gold.Chemscore.Metal.Weighted>
-0.0000

> <Gold.Chemscore.Lipo.Weighted>
-11.7371

> <Gold.Chemscore.Internal_Hbond.Weighted>
0.0000

> <Gold.Chemscore.DEClash.Weighted>
0.2428

> <Gold.Chemscore.DEInternal.Weighted>
1.9125

> <Gold.Chemscore.Rot.Weighted>
2.5600

> <Gold.Chemscore.Internal.Correction.Weighted>
   9.000000E+99

> <Gold.Protein.RotatedTorsions>
[ 6907 6896 6895 6894 ] final -164.68 input  -60.11 | X-H torsion
[ 7974 7965 7964 7962 ] final  127.48 input  175.53 | X-H torsion
[ 8008 7997 7996 7995 ] final  -94.56 input   59.86 | X-H torsion
[ 10167 10162 10161 10158 ] final  -97.82 input  -65.29 | X-H torsion
[ 10718 10713 10712 10709 ] final  -28.25 input   66.30 | X-H torsion
[ 10763 10752 10751 10750 ] final -124.19 input  -60.55 | X-H torsion
[ 11005 11000 10999 10996 ] final  138.88 input  -57.11 | X-H torsion

> <Gold.Protein.ActiveResidues>
 VAL166  LYS551  ARG553  GLY616  TRP617  ASP618  TYR619  PRO620  LYS621  CYS622 
 ASP623  PHE694  ASN695  SER759  ASP760  ASP761  ALA762  ILE779  LEU786  VAL792 
 PHE793  MET794  SER795  GLU796  ALA797  LYS798  CYS799  TRP800  GLU811  SER814 

> <Gold.Protein.RotatedAtoms>
  151.4157  133.3713  159.2749 H   0  0  0  0  0  0  0  0  0  0  0  0  # atno 6907 bound_to 6896
  150.9330  134.8746  159.7574 H   0  0  0  0  0  0  0  0  0  0  0  0  # atno 6908 bound_to 6896
  152.5037  134.4103  159.9498 H   0  0  0  0  0  0  0  0  0  0  0  0  # atno 6909 bound_to 6896
  145.0501  139.3890  143.5058 H   0  0  0  0  0  0  0  0  0  0  0  0  # atno 7974 bound_to 7965
  154.7500  140.0488  157.0885 H   0  0  0  0  0  0  0  0  0  0  0  0  # atno 8008 bound_to 7997
  155.0069  140.3131  155.4825 H   0  0  0  0  0  0  0  0  0  0  0  0  # atno 8009 bound_to 7997
  156.2883  140.2191  156.5182 H   0  0  0  0  0  0  0  0  0  0  0  0  # atno 8010 bound_to 7997
  140.2794  143.3291  152.0456 H   0  0  0  0  0  0  0  0  0  0  0  0  # atno 10167 bound_to 10162
  156.4277  130.4439  149.7139 H   0  0  0  0  0  0  0  0  0  0  0  0  # atno 10718 bound_to 10713
  154.8719  135.4072  154.3066 H   0  0  0  0  0  0  0  0  0  0  0  0  # atno 10763 bound_to 10752
  153.3916  135.7015  153.6496 H   0  0  0  0  0  0  0  0  0  0  0  0  # atno 10764 bound_to 10752
  153.5276  135.3674  155.2632 H   0  0  0  0  0  0  0  0  0  0  0  0  # atno 10765 bound_to 10752
  140.0215  134.9394  157.0483 H   0  0  0  0  0  0  0  0  0  0  0  0  # atno 11005 bound_to 11000
  146.3517  140.0147  142.8664 LP  0  0  0  0  0  0  0  0  0  0  0  0  # atno 17320 bound_to 7965
  145.1538  140.9637  143.4417 LP  0  0  0  0  0  0  0  0  0  0  0  0  # atno 17321 bound_to 7965
  139.4966  144.6602  151.6482 LP  0  0  0  0  0  0  0  0  0  0  0  0  # atno 17342 bound_to 10162
  140.5824  143.9923  150.6276 LP  0  0  0  0  0  0  0  0  0  0  0  0  # atno 17343 bound_to 10162
  156.4055  130.7696  151.2706 LP  0  0  0  0  0  0  0  0  0  0  0  0  # atno 17370 bound_to 10713
  157.7508  131.0227  150.3803 LP  0  0  0  0  0  0  0  0  0  0  0  0  # atno 17371 bound_to 10713
  140.4379  134.1711  155.7172 LP  0  0  0  0  0  0  0  0  0  0  0  0  # atno 17394 bound_to 11000
  141.1776  133.8480  157.1367 LP  0  0  0  0  0  0  0  0  0  0  0  0  # atno 17395 bound_to 11000

$$$$
