AV-unprocessed.smi:2804|AV-procd|sdf|10812|dock1
  -GOLD-   2272015243D 1   1.00000     0.00000
 Structure written by MMmdl.
 34 35  0  0  0  0  0  0  0  0  2 V2000
  153.4070  142.2366  162.2519 C   0  0  0  0  0  0  0  0  0  0  0  0
  154.1972  141.0796  161.6322 C   0  0  0  0  0  0  0  0  0  0  0  0
  154.5627  141.3388  160.1627 C   0  0  0  0  0  0  0  0  0  0  0  0
  153.3673  141.4492  159.3304 N   0  0  0  0  0  0  0  0  0  0  0  0
  152.8061  140.4631  158.5916 C   0  0  0  0  0  0  0  0  0  0  0  0
  153.2104  139.3022  158.5202 O   0  0  0  0  0  0  0  0  0  0  0  0
  151.7085  140.9692  157.9724 N   0  0  0  0  0  0  0  0  0  0  0  0
  150.7771  140.2393  157.0967 C   0  0  0  0  0  0  0  0  0  0  0  0
  150.5381  140.9114  155.7130 C   0  0  1  0  0  0  0  0  0  0  0  0
  151.2209  140.2268  154.8266 O   0  5  0  0  0  0  0  0  0  0  0  0
  149.0459  140.8474  155.3044 C   0  0  0  0  0  0  0  0  0  0  0  0
  148.2877  141.4586  156.2168 F   0  0  0  0  0  0  0  0  0  0  0  0
  148.8355  141.4107  154.1123 F   0  0  0  0  0  0  0  0  0  0  0  0
  148.6545  139.5738  155.2399 F   0  0  0  0  0  0  0  0  0  0  0  0
  151.5403  142.3069  158.3751 C   0  0  0  0  0  0  0  0  0  0  0  0
  150.5506  143.2532  158.0541 C   0  0  0  0  0  0  0  0  0  0  0  0
  150.6674  144.5373  158.6353 C   0  0  0  0  0  0  0  0  0  0  0  0
  151.7429  144.8445  159.5080 C   0  0  0  0  0  0  0  0  0  0  0  0
  152.7240  143.8737  159.8172 C   0  0  0  0  0  0  0  0  0  0  0  0
  152.5854  142.6070  159.2232 C   0  0  0  0  0  0  0  0  0  0  0  0
  153.1589  142.0247  163.2919 H   0  0  0  0  0  0  0  0  0  0  0  0
  152.4735  142.4072  161.7151 H   0  0  0  0  0  0  0  0  0  0  0  0
  153.9822  143.1624  162.2288 H   0  0  0  0  0  0  0  0  0  0  0  0
  155.1055  140.9140  162.2130 H   0  0  0  0  0  0  0  0  0  0  0  0
  153.6106  140.1634  161.7089 H   0  0  0  0  0  0  0  0  0  0  0  0
  155.1512  142.2525  160.0745 H   0  0  0  0  0  0  0  0  0  0  0  0
  155.1978  140.5346  159.7878 H   0  0  0  0  0  0  0  0  0  0  0  0
  151.1204  139.2108  156.9673 H   0  0  0  0  0  0  0  0  0  0  0  0
  149.8286  140.1546  157.6276 H   0  0  0  0  0  0  0  0  0  0  0  0
  150.7467  141.9720  155.8619 H   0  0  0  0  0  0  0  0  0  0  0  0
  149.7343  143.0138  157.3887 H   0  0  0  0  0  0  0  0  0  0  0  0
  149.9284  145.2925  158.4117 H   0  0  0  0  0  0  0  0  0  0  0  0
  151.8131  145.8308  159.9423 H   0  0  0  0  0  0  0  0  0  0  0  0
  153.5424  144.1002  160.4843 H   0  0  0  0  0  0  0  0  0  0  0  0
  1  2  1  0  0  0  0
  1 21  1  0  0  0  0
  1 22  1  0  0  0  0
  1 23  1  0  0  0  0
  2  3  1  0  0  0  0
  2 24  1  0  0  0  0
  2 25  1  0  0  0  0
  3  4  1  0  0  0  0
  3 26  1  0  0  0  0
  3 27  1  0  0  0  0
  4 20  1  0  0  0  0
  4  5  1  0  0  0  0
  5  6  2  0  0  0  0
  5  7  1  0  0  0  0
  7  8  1  0  0  0  0
  7 15  1  0  0  0  0
  8  9  1  0  0  0  0
  8 28  1  0  0  0  0
  8 29  1  0  0  0  0
  9 10  1  0  0  0  0
  9 11  1  0  0  0  0
  9 30  1  0  0  0  0
 11 12  1  0  0  0  0
 11 13  1  0  0  0  0
 11 14  1  0  0  0  0
 15 20  2  0  0  0  0
 15 16  1  0  0  0  0
 16 17  2  0  0  0  0
 16 31  1  0  0  0  0
 17 18  1  0  0  0  0
 17 32  1  0  0  0  0
 18 19  2  0  0  0  0
 18 33  1  0  0  0  0
 19 20  1  0  0  0  0
 19 34  1  0  0  0  0
M  CHG  1  10  -1
M  END
> <s_m_source_file>
AV-unprocessed.smi

> <i_m_source_file_index>
2804

> <i_lp_mmshare_version>
43012

> <i_f3d_flags>
0

> <s_epik_input>
W2NIXTFbY0hdW2NIXVtjSF1jKGMxMiluKFtDSDJdW0NIMl1bQ0gzXSljKD1PKW4yW0NIMl1bQ0BIXShbT0hdKUMoRikoRilG

> <s_epik_cmdline>
J2VwaWtfcHl0aG9uJywgJy1waCcsICc3LjAnLCAnLXRuJywgJzgnLCAnLW1hJywgJzIwMCcsICctbWV0YWxfYmluZGluZycsICctaW1hZScsICc8aW5maWxlLm1hZT4nLCAnLW9tYWUnLCAnPG91dGZpbGUubWFlPic=

> <r_epik_Ionization_Penalty>
2.32651

> <r_epik_Ionization_Penalty_Charging>
2.32651

> <r_epik_Ionization_Penalty_Neutral>
0

> <r_epik_State_Penalty>
2.47909

> <r_epik_Charging_Adjusted_Penalty>
4.8056

> <i_epik_Tot_Q>
-1

> <i_epik_Tot_abs_Q>
1

> <r_epik_Metal_State_Penalty>
2.47909

> <b_epik_Metal_Only>
0

> <s_lp_Force_Field>
OPLS_2005

> <r_lp_Energy>
44.9553

> <b_lp_Chiralities_Consistent>
1

> <s_lp_Variant>
AV-unprocessed.smi:2804-4

> <Gold.Version>
5.8.1

> <Gold.Id.Protein>
6NUR|6NUR_protein|mol2

> <Gold.PLP.Fitness>
48.2386

> <Gold.PLP.PLP>
-46.1794

> <Gold.PLP.part.hbond>
-1.5711

> <Gold.PLP.part.metal>
0.0000

> <Gold.PLP.part.buried>
-2.4601

> <Gold.PLP.part.nonpolar>
-40.7457

> <Gold.PLP.part.repulsive>
0.0653

> <Gold.PLP.ligand.clash>
0.0000

> <Gold.PLP.ligand.torsion>
0.9596

> <Gold.PLP.Chemscore.Hbond>
1.2925

> <Gold.PLP.Chemscore.CHOScore>
0.0000

> <Gold.PLP.Chemscore.Metal>
0.0000

> <Gold.Chemscore.Hbonds>
donor molecule, donor type, donor heavy atom, donor atom, acceptor molecule, acceptor atom, score
      P1  H  7989  7998       L1    10  0.99
      P1  H  7997  8009       L1     6  0.22

> <Gold.PLP.Chemscore.Internal.Correction>
0.1010

> <Gold.Rescore>
     Score         DG    S(hbond)    S(metal)    S(lipo)     H(rot)  DE(clash)    DE(int)     intcor
     16.24     -17.33       0.99        0.00     110.61       1.72       0.01       1.08       ----

> <Gold.Chemscore.Fitness>
16.2363

> <Gold.Chemscore.DG>
-17.3275

> <Gold.Chemscore.ZeroCoef>
-5.4800

> <Gold.Chemscore.Hbond>
0.9897

> <Gold.Chemscore.Metal>
0.0000

> <Gold.Chemscore.Lipo>
110.6065

> <Gold.Chemscore.Internal_Hbond>
0.0000

> <Gold.Chemscore.DEClash>
0.0074

> <Gold.Chemscore.DEInternal>
1.0837

> <Gold.Chemscore.Rot>
1.7185

> <Gold.Chemscore.Internal.Correction>
   9.000000E+99

> <Gold.Chemscore.Hbonds>
donor molecule, donor type, donor heavy atom, donor atom, acceptor molecule, acceptor atom, score
      P1  H  7989  7998       L1    10  0.91
      P1  H  7997  8009       L1     6  0.01

> <Gold.Chemscore.Hbond.Weighted>
-3.3057

> <Gold.Chemscore.Metal.Weighted>
-0.0000

> <Gold.Chemscore.Lipo.Weighted>
-12.9410

> <Gold.Chemscore.Internal_Hbond.Weighted>
0.0000

> <Gold.Chemscore.DEClash.Weighted>
0.0074

> <Gold.Chemscore.DEInternal.Weighted>
1.0837

> <Gold.Chemscore.Rot.Weighted>
4.3992

> <Gold.Chemscore.Internal.Correction.Weighted>
   9.000000E+99

> <Gold.Protein.RotatedTorsions>
[ 6907 6896 6895 6894 ] final  141.90 input  -60.11 | X-H torsion
[ 7974 7965 7964 7962 ] final -163.93 input  175.53 | X-H torsion
[ 8008 7997 7996 7995 ] final  134.31 input   59.86 | X-H torsion
[ 10167 10162 10161 10158 ] final -155.75 input  -65.29 | X-H torsion
[ 10718 10713 10712 10709 ] final  -82.26 input   66.30 | X-H torsion
[ 10763 10752 10751 10750 ] final  172.18 input  -60.55 | X-H torsion
[ 11005 11000 10999 10996 ] final  151.51 input  -57.11 | X-H torsion

> <Gold.Protein.ActiveResidues>
 VAL166  LYS551  ARG553  GLY616  TRP617  ASP618  TYR619  PRO620  LYS621  CYS622 
 ASP623  PHE694  ASN695  SER759  ASP760  ASP761  ALA762  ILE779  LEU786  VAL792 
 PHE793  MET794  SER795  GLU796  ALA797  LYS798  CYS799  TRP800  GLU811  SER814 

> <Gold.Protein.RotatedAtoms>
  152.2254  133.5016  159.5185 H   0  0  0  0  0  0  0  0  0  0  0  0  # atno 6907 bound_to 6896
  150.7023  134.1287  159.4071 H   0  0  0  0  0  0  0  0  0  0  0  0  # atno 6908 bound_to 6896
  151.9208  135.0299  160.0572 H   0  0  0  0  0  0  0  0  0  0  0  0  # atno 6909 bound_to 6896
  144.7311  140.3036  143.6200 H   0  0  0  0  0  0  0  0  0  0  0  0  # atno 7974 bound_to 7965
  156.2998  140.2499  156.3396 H   0  0  0  0  0  0  0  0  0  0  0  0  # atno 8008 bound_to 7997
  154.9068  140.0404  157.1943 H   0  0  0  0  0  0  0  0  0  0  0  0  # atno 8009 bound_to 7997
  154.8445  140.2896  155.5642 H   0  0  0  0  0  0  0  0  0  0  0  0  # atno 8010 bound_to 7997
  139.6906  143.9427  152.2383 H   0  0  0  0  0  0  0  0  0  0  0  0  # atno 10167 bound_to 10162
  156.0036  130.4629  150.4078 H   0  0  0  0  0  0  0  0  0  0  0  0  # atno 10718 bound_to 10713
  154.4224  135.2758  155.1966 H   0  0  0  0  0  0  0  0  0  0  0  0  # atno 10763 bound_to 10752
  154.3906  135.6067  153.5845 H   0  0  0  0  0  0  0  0  0  0  0  0  # atno 10764 bound_to 10752
  152.9833  135.5902  154.4522 H   0  0  0  0  0  0  0  0  0  0  0  0  # atno 10765 bound_to 10752
  140.1225  134.8854  157.2092 H   0  0  0  0  0  0  0  0  0  0  0  0  # atno 11005 bound_to 11000
  145.7736  139.1866  143.2198 LP  0  0  0  0  0  0  0  0  0  0  0  0  # atno 17320 bound_to 7965
  146.0891  140.7676  142.9604 LP  0  0  0  0  0  0  0  0  0  0  0  0  # atno 17321 bound_to 7965
  139.9242  144.6781  150.8429 LP  0  0  0  0  0  0  0  0  0  0  0  0  # atno 17342 bound_to 10162
  140.7681  143.3353  151.2321 LP  0  0  0  0  0  0  0  0  0  0  0  0  # atno 17343 bound_to 10162
  157.2143  131.0467  151.2582 LP  0  0  0  0  0  0  0  0  0  0  0  0  # atno 17370 bound_to 10713
  157.3860  130.7256  149.6663 LP  0  0  0  0  0  0  0  0  0  0  0  0  # atno 17371 bound_to 10713
  140.2946  134.3201  155.7306 LP  0  0  0  0  0  0  0  0  0  0  0  0  # atno 17394 bound_to 11000
  141.2154  133.7555  156.9553 LP  0  0  0  0  0  0  0  0  0  0  0  0  # atno 17395 bound_to 11000

$$$$
