AV-unprocessed.smi:3064|AV-procd|sdf|11689|dock5
  -GOLD-   2272017 93D 1   1.00000     0.00000
 Structure written by MMmdl.
 21 22  0  0  0  0  0  0  0  0  1 V2000
  151.4629  145.3117  160.0513 C   0  0  0  0  0  0  0  0  0  0  0  0
  150.3869  144.9002  159.3071 C   0  0  0  0  0  0  0  0  0  0  0  0
  150.6288  143.3042  158.6515 S   0  0  0  0  0  0  0  0  0  0  0  0
  152.2176  143.2632  159.4107 C   0  0  0  0  0  0  0  0  0  0  0  0
  153.1253  142.0773  159.3265 C   0  0  2  0  0  0  0  0  0  0  0  0
  152.4854  140.9038  158.5596 C   0  0  0  0  0  0  0  0  0  0  0  0
  153.3774  139.7456  158.5708 N   0  0  0  0  0  0  0  0  0  0  0  0
  153.7442  139.3749  159.9368 C   0  0  0  0  0  0  0  0  0  0  0  0
  154.3466  140.5833  160.6763 C   0  0  0  0  0  0  0  0  0  0  0  0
  153.4213  141.6653  160.6592 O   0  0  0  0  0  0  0  0  0  0  0  0
  152.4918  144.3688  160.1116 N   0  0  0  0  0  0  0  0  0  0  0  0
  151.5791  146.2506  160.5720 H   0  0  0  0  0  0  0  0  0  0  0  0
  149.4700  145.4349  159.1088 H   0  0  0  0  0  0  0  0  0  0  0  0
  154.0459  142.3926  158.8317 H   0  0  0  0  0  0  0  0  0  0  0  0
  151.5316  140.6398  159.0184 H   0  0  0  0  0  0  0  0  0  0  0  0
  152.2684  141.1982  157.5326 H   0  0  0  0  0  0  0  0  0  0  0  0
  152.9219  138.9608  158.1160 H   0  0  0  0  0  0  0  0  0  0  0  0
  152.8643  139.0189  160.4741 H   0  0  0  0  0  0  0  0  0  0  0  0
  154.4573  138.5504  159.9223 H   0  0  0  0  0  0  0  0  0  0  0  0
  154.5615  140.3193  161.7118 H   0  0  0  0  0  0  0  0  0  0  0  0
  155.2914  140.8876  160.2232 H   0  0  0  0  0  0  0  0  0  0  0  0
  1 11  1  0  0  0  0
  1  2  2  0  0  0  0
  1 12  1  0  0  0  0
  2  3  1  0  0  0  0
  2 13  1  0  0  0  0
  3  4  1  0  0  0  0
  4  5  1  0  0  0  0
  4 11  2  0  0  0  0
  5 10  1  0  0  0  0
  5  6  1  0  0  0  0
  5 14  1  0  0  0  0
  6  7  1  0  0  0  0
  6 15  1  0  0  0  0
  6 16  1  0  0  0  0
  7  8  1  0  0  0  0
  7 17  1  0  0  0  0
  8  9  1  0  0  0  0
  8 18  1  0  0  0  0
  8 19  1  0  0  0  0
  9 10  1  0  0  0  0
  9 20  1  0  0  0  0
  9 21  1  0  0  0  0
M  END
> <s_m_source_file>
AV-unprocessed.smi

> <i_m_source_file_index>
3064

> <i_lp_mmshare_version>
43012

> <i_f3d_flags>
0

> <s_epik_input>
bjFbY0hdW2NIXXNjMVtDQEBIXTJbQ0gyXVtOSF1bQ0gyXVtDSDJdTzI=

> <s_epik_cmdline>
J2VwaWtfcHl0aG9uJywgJy1waCcsICc3LjAnLCAnLXRuJywgJzgnLCAnLW1hJywgJzIwMCcsICctbWV0YWxfYmluZGluZycsICctaW1hZScsICc8aW5maWxlLm1hZT4nLCAnLW9tYWUnLCAnPG91dGZpbGUubWFlPic=

> <r_epik_Ionization_Penalty>
0.980767

> <r_epik_Ionization_Penalty_Charging>
0

> <r_epik_Ionization_Penalty_Neutral>
0.980767

> <r_epik_State_Penalty>
1.0271

> <r_epik_Charging_Adjusted_Penalty>
1.0271

> <i_epik_Tot_Q>
0

> <i_epik_Tot_abs_Q>
0

> <r_epik_Metal_State_Penalty>
1.02673

> <b_epik_Metal_Only>
0

> <s_lp_Force_Field>
OPLS_2005

> <r_lp_Energy>
8.04051

> <b_lp_Chiralities_Consistent>
1

> <s_lp_Variant>
AV-unprocessed.smi:3064-3

> <Gold.Version>
5.8.1

> <Gold.Id.Protein>
6NUR|6NUR_protein|mol2

> <Gold.PLP.Fitness>
29.9612

> <Gold.PLP.PLP>
-24.0274

> <Gold.PLP.part.hbond>
-1.0000

> <Gold.PLP.part.metal>
0.0000

> <Gold.PLP.part.buried>
-3.7644

> <Gold.PLP.part.nonpolar>
-19.5449

> <Gold.PLP.part.repulsive>
0.0379

> <Gold.PLP.ligand.clash>
0.0000

> <Gold.PLP.ligand.torsion>
0.0384

> <Gold.PLP.Chemscore.Hbond>
1.0000

> <Gold.PLP.Chemscore.CHOScore>
1.0000

> <Gold.PLP.Chemscore.Metal>
0.0000

> <Gold.Chemscore.Hbonds>
donor molecule, donor type, donor heavy atom, donor atom, acceptor molecule, acceptor atom, score
      P1  H  7997  8008       L1     7  0.85
      L1  C     2    13       P1  8029  1.00

> <Gold.PLP.Chemscore.Internal.Correction>
0.0106

> <Gold.Rescore>
     Score         DG    S(hbond)    S(metal)    S(lipo)     H(rot)  DE(clash)    DE(int)     intcor
     12.28     -12.35       0.29        0.00      72.25       1.00       0.03       0.05       ----

> <Gold.Chemscore.Fitness>
12.2761

> <Gold.Chemscore.DG>
-12.3475

> <Gold.Chemscore.ZeroCoef>
-5.4800

> <Gold.Chemscore.Hbond>
0.2916

> <Gold.Chemscore.Metal>
0.0000

> <Gold.Chemscore.Lipo>
72.2527

> <Gold.Chemscore.Internal_Hbond>
0.0000

> <Gold.Chemscore.DEClash>
0.0263

> <Gold.Chemscore.DEInternal>
0.0451

> <Gold.Chemscore.Rot>
1.0000

> <Gold.Chemscore.Internal.Correction>
   9.000000E+99

> <Gold.Chemscore.Hbonds>
donor molecule, donor type, donor heavy atom, donor atom, acceptor molecule, acceptor atom, score
      P1  H  7997  8008       L1     7  0.10

> <Gold.Chemscore.Hbond.Weighted>
-0.9740

> <Gold.Chemscore.Metal.Weighted>
-0.0000

> <Gold.Chemscore.Lipo.Weighted>
-8.4536

> <Gold.Chemscore.Internal_Hbond.Weighted>
0.0000

> <Gold.Chemscore.DEClash.Weighted>
0.0263

> <Gold.Chemscore.DEInternal.Weighted>
0.0451

> <Gold.Chemscore.Rot.Weighted>
2.5600

> <Gold.Chemscore.Internal.Correction.Weighted>
   9.000000E+99

> <Gold.Protein.RotatedTorsions>
[ 6907 6896 6895 6894 ] final   22.41 input  -60.11 | X-H torsion
[ 7974 7965 7964 7962 ] final   62.20 input  175.53 | X-H torsion
[ 8008 7997 7996 7995 ] final -102.27 input   59.86 | X-H torsion
[ 10167 10162 10161 10158 ] final  -13.39 input  -65.29 | X-H torsion
[ 10718 10713 10712 10709 ] final -135.04 input   66.30 | X-H torsion
[ 10763 10752 10751 10750 ] final -152.37 input  -60.55 | X-H torsion
[ 11005 11000 10999 10996 ] final -178.08 input  -57.11 | X-H torsion

> <Gold.Protein.ActiveResidues>
 VAL166  LYS551  ARG553  GLY616  TRP617  ASP618  TYR619  PRO620  LYS621  CYS622 
 ASP623  PHE694  ASN695  SER759  ASP760  ASP761  ALA762  ILE779  LEU786  VAL792 
 PHE793  MET794  SER795  GLU796  ALA797  LYS798  CYS799  TRP800  GLU811  SER814 

> <Gold.Protein.RotatedAtoms>
  151.9267  135.0274  160.0525 H   0  0  0  0  0  0  0  0  0  0  0  0  # atno 6907 bound_to 6896
  152.2153  133.4938  159.5141 H   0  0  0  0  0  0  0  0  0  0  0  0  # atno 6908 bound_to 6896
  150.6986  134.1330  159.4119 H   0  0  0  0  0  0  0  0  0  0  0  0  # atno 6909 bound_to 6896
  145.8761  139.3411  143.0734 H   0  0  0  0  0  0  0  0  0  0  0  0  # atno 7974 bound_to 7965
  154.8544  140.0429  157.1625 H   0  0  0  0  0  0  0  0  0  0  0  0  # atno 8008 bound_to 7997
  154.8908  140.2986  155.5351 H   0  0  0  0  0  0  0  0  0  0  0  0  # atno 8009 bound_to 7997
  156.2997  140.2394  156.3923 H   0  0  0  0  0  0  0  0  0  0  0  0  # atno 8010 bound_to 7997
  140.7181  143.5431  150.9386 H   0  0  0  0  0  0  0  0  0  0  0  0  # atno 10167 bound_to 10162
  156.2619  130.7214  151.1151 H   0  0  0  0  0  0  0  0  0  0  0  0  # atno 10718 bound_to 10713
  154.7998  135.3238  154.7577 H   0  0  0  0  0  0  0  0  0  0  0  0  # atno 10763 bound_to 10752
  153.8248  135.6884  153.4826 H   0  0  0  0  0  0  0  0  0  0  0  0  # atno 10764 bound_to 10752
  153.1709  135.4623  154.9844 H   0  0  0  0  0  0  0  0  0  0  0  0  # atno 10765 bound_to 10752
  140.4338  134.6494  157.4725 H   0  0  0  0  0  0  0  0  0  0  0  0  # atno 11005 bound_to 11000
  145.9080  140.9199  143.0469 LP  0  0  0  0  0  0  0  0  0  0  0  0  # atno 17320 bound_to 7965
  144.6726  140.1121  143.7455 LP  0  0  0  0  0  0  0  0  0  0  0  0  # atno 17321 bound_to 7965
  139.9154  143.6669  152.3107 LP  0  0  0  0  0  0  0  0  0  0  0  0  # atno 17342 bound_to 10162
  139.7067  144.7627  151.1180 LP  0  0  0  0  0  0  0  0  0  0  0  0  # atno 17343 bound_to 10162
  157.7253  131.0654  150.5957 LP  0  0  0  0  0  0  0  0  0  0  0  0  # atno 17370 bound_to 10713
  156.6045  130.4363  149.5883 LP  0  0  0  0  0  0  0  0  0  0  0  0  # atno 17371 bound_to 10713
  140.0116  134.6682  155.9372 LP  0  0  0  0  0  0  0  0  0  0  0  0  # atno 17394 bound_to 11000
  141.1734  133.6538  156.4738 LP  0  0  0  0  0  0  0  0  0  0  0  0  # atno 17395 bound_to 11000

$$$$
