AV-unprocessed.smi:1945|AV-procd|sdf|7860|dock9
  -GOLD-   2272010 13D 1   1.00000     0.00000
 Structure written by MMmdl.
 47 48  0  0  0  0  0  0  0  0  1 V2000
  153.5561  139.0281  155.5042 C   0  0  0  0  0  0  0  0  0  0  0  0
  152.1461  139.1093  154.9990 C   0  0  0  0  0  0  0  0  0  0  0  0
  151.3923  138.0991  154.3344 C   0  0  0  0  0  0  0  0  0  0  0  0
  150.1928  138.7173  154.1073 C   0  0  0  0  0  0  0  0  0  0  0  0
  149.0821  138.2240  153.4972 N   0  0  0  0  0  0  0  0  0  0  0  0
  147.7943  138.3594  153.8585 C   0  0  0  0  0  0  0  0  0  0  0  0
  147.3881  139.0077  154.8232 O   0  0  0  0  0  0  0  0  0  0  0  0
  146.9868  137.6815  153.0300 N   0  0  0  0  0  0  0  0  0  0  0  0
  145.5406  137.5580  153.1819 C   0  0  0  0  0  0  0  0  0  0  0  0
  144.9561  136.5732  152.1592 C   0  0  0  0  0  0  0  0  0  0  0  0
  145.9186  135.5667  151.8831 O   0  0  0  0  0  0  0  0  0  0  0  0
  145.4007  134.2452  151.8258 C   0  0  1  0  0  0  0  0  0  0  0  0
  144.2929  134.1825  150.7522 C   0  0  0  0  0  0  0  0  0  0  0  0
  143.7953  132.7464  150.5338 C   0  0  0  0  0  0  0  0  0  0  0  0
  144.9572  131.8102  150.1742 C   0  0  0  0  0  0  0  0  0  0  0  0
  146.0573  131.8611  151.2451 C   0  0  0  0  0  0  0  0  0  0  0  0
  146.5693  133.2979  151.4714 C   0  0  2  0  0  0  0  0  0  0  0  0
  147.6676  133.3198  152.5466 C   0  0  0  0  0  0  0  0  0  0  0  0
  150.2507  139.9984  154.6134 N   0  0  0  0  0  0  0  0  0  0  0  0
  149.2491  141.0473  154.6231 C   0  0  0  0  0  0  0  0  0  0  0  0
  151.4617  140.2358  155.1610 N   0  0  0  0  0  0  0  0  0  0  0  0
  153.9862  138.0445  155.3154 H   0  0  0  0  0  0  0  0  0  0  0  0
  153.5995  139.2082  156.5784 H   0  0  0  0  0  0  0  0  0  0  0  0
  154.1911  139.7670  155.0149 H   0  0  0  0  0  0  0  0  0  0  0  0
  151.7004  137.0969  154.0773 H   0  0  0  0  0  0  0  0  0  0  0  0
  149.2567  137.6563  152.6813 H   0  0  0  0  0  0  0  0  0  0  0  0
  147.4058  137.1826  152.2590 H   0  0  0  0  0  0  0  0  0  0  0  0
  145.2743  137.2638  154.1986 H   0  0  0  0  0  0  0  0  0  0  0  0
  145.1069  138.5454  153.0234 H   0  0  0  0  0  0  0  0  0  0  0  0
  144.0579  136.1057  152.5643 H   0  0  0  0  0  0  0  0  0  0  0  0
  144.6629  137.1079  151.2554 H   0  0  0  0  0  0  0  0  0  0  0  0
  144.9954  133.9541  152.7970 H   0  0  0  0  0  0  0  0  0  0  0  0
  143.4499  134.8142  151.0302 H   0  0  0  0  0  0  0  0  0  0  0  0
  144.6760  134.5797  149.8112 H   0  0  0  0  0  0  0  0  0  0  0  0
  143.3010  132.3885  151.4376 H   0  0  0  0  0  0  0  0  0  0  0  0
  143.0455  132.7294  149.7424 H   0  0  0  0  0  0  0  0  0  0  0  0
  144.5917  130.7890  150.0638 H   0  0  0  0  0  0  0  0  0  0  0  0
  145.3732  132.0966  149.2075 H   0  0  0  0  0  0  0  0  0  0  0  0
  145.6700  131.4563  152.1813 H   0  0  0  0  0  0  0  0  0  0  0  0
  146.8830  131.2136  150.9480 H   0  0  0  0  0  0  0  0  0  0  0  0
  147.0142  133.6446  150.5373 H   0  0  0  0  0  0  0  0  0  0  0  0
  147.2842  132.9876  153.5118 H   0  0  0  0  0  0  0  0  0  0  0  0
  148.0759  134.3223  152.6780 H   0  0  0  0  0  0  0  0  0  0  0  0
  148.4956  132.6648  152.2738 H   0  0  0  0  0  0  0  0  0  0  0  0
  148.2799  140.6575  154.3118 H   0  0  0  0  0  0  0  0  0  0  0  0
  149.5465  141.8433  153.9400 H   0  0  0  0  0  0  0  0  0  0  0  0
  149.1538  141.4578  155.6288 H   0  0  0  0  0  0  0  0  0  0  0  0
  1  2  1  0  0  0  0
  1 22  1  0  0  0  0
  1 23  1  0  0  0  0
  1 24  1  0  0  0  0
  2 21  2  0  0  0  0
  2  3  1  0  0  0  0
  3  4  2  0  0  0  0
  3 25  1  0  0  0  0
  4  5  1  0  0  0  0
  4 19  1  0  0  0  0
  5  6  1  0  0  0  0
  5 26  1  0  0  0  0
  6  7  2  0  0  0  0
  6  8  1  0  0  0  0
  8  9  1  0  0  0  0
  8 27  1  0  0  0  0
  9 10  1  0  0  0  0
  9 28  1  0  0  0  0
  9 29  1  0  0  0  0
 10 11  1  0  0  0  0
 10 30  1  0  0  0  0
 10 31  1  0  0  0  0
 11 12  1  0  0  0  0
 12 17  1  0  0  0  0
 12 13  1  0  0  0  0
 12 32  1  0  0  0  0
 13 14  1  0  0  0  0
 13 33  1  0  0  0  0
 13 34  1  0  0  0  0
 14 15  1  0  0  0  0
 14 35  1  0  0  0  0
 14 36  1  0  0  0  0
 15 16  1  0  0  0  0
 15 37  1  0  0  0  0
 15 38  1  0  0  0  0
 16 17  1  0  0  0  0
 16 39  1  0  0  0  0
 16 40  1  0  0  0  0
 17 18  1  0  0  0  0
 17 41  1  0  0  0  0
 18 42  1  0  0  0  0
 18 43  1  0  0  0  0
 18 44  1  0  0  0  0
 19 20  1  0  0  0  0
 19 21  1  0  0  0  0
 20 45  1  0  0  0  0
 20 46  1  0  0  0  0
 20 47  1  0  0  0  0
M  END
> <s_m_source_file>
AV-unprocessed.smi

> <i_m_source_file_index>
1945

> <i_lp_mmshare_version>
43012

> <i_f3d_flags>
0

> <s_epik_input>
W0NIM11jMVtjSF1jKG4objEpW0NIM10pW05IXUMoPU8pW05IXVtDSDJdW0NIMl1PW0NAQEhdMltDSDJdW0NIMl1bQ0gyXVtDSDJdW0NASF0yW0NIM10=

> <s_epik_cmdline>
J2VwaWtfcHl0aG9uJywgJy1waCcsICc3LjAnLCAnLXRuJywgJzgnLCAnLW1hJywgJzIwMCcsICctbWV0YWxfYmluZGluZycsICctaW1hZScsICc8aW5maWxlLm1hZT4nLCAnLW9tYWUnLCAnPG91dGZpbGUubWFlPic=

> <r_lp_tautomer_probability>
1

> <r_epik_Ionization_Penalty>
9.47735e-05

> <r_epik_Ionization_Penalty_Charging>
0

> <r_epik_Ionization_Penalty_Neutral>
9.47735e-05

> <r_epik_State_Penalty>
-0

> <r_epik_Charging_Adjusted_Penalty>
0

> <i_epik_Tot_Q>
0

> <i_epik_Tot_abs_Q>
0

> <r_epik_Metal_State_Penalty>
-0

> <b_epik_Metal_Only>
0

> <s_lp_Force_Field>
OPLS_2005

> <r_lp_Energy>
11.6834

> <b_lp_Chiralities_Consistent>
1

> <s_lp_Variant>
AV-unprocessed.smi:1945-4

> <Gold.Version>
5.8.1

> <Gold.Id.Protein>
6NUR|6NUR_protein|mol2

> <Gold.PLP.Fitness>
42.1121

> <Gold.PLP.PLP>
-38.2841

> <Gold.PLP.part.hbond>
-3.9875

> <Gold.PLP.part.metal>
0.0000

> <Gold.PLP.part.buried>
1.2776

> <Gold.PLP.part.nonpolar>
-36.7068

> <Gold.PLP.part.repulsive>
0.5579

> <Gold.PLP.ligand.clash>
0.0000

> <Gold.PLP.ligand.torsion>
0.8458

> <Gold.PLP.Chemscore.Hbond>
1.8320

> <Gold.PLP.Chemscore.CHOScore>
0.0000

> <Gold.PLP.Chemscore.Metal>
0.0000

> <Gold.Chemscore.Hbonds>
donor molecule, donor type, donor heavy atom, donor atom, acceptor molecule, acceptor atom, score
      L1  H     5    26       P1  7948  0.99
      L1  H     8    27       P1  7948  0.82

> <Gold.PLP.Chemscore.Internal.Correction>
0.0236

> <Gold.Rescore>
     Score         DG    S(hbond)    S(metal)    S(lipo)     H(rot)  DE(clash)    DE(int)     intcor
     15.87     -18.00       1.89        0.00      88.73       1.63       0.05       2.09       ----

> <Gold.Chemscore.Fitness>
15.8693

> <Gold.Chemscore.DG>
-18.0040

> <Gold.Chemscore.ZeroCoef>
-5.4800

> <Gold.Chemscore.Hbond>
1.8921

> <Gold.Chemscore.Metal>
0.0000

> <Gold.Chemscore.Lipo>
88.7284

> <Gold.Chemscore.Internal_Hbond>
0.0000

> <Gold.Chemscore.DEClash>
0.0460

> <Gold.Chemscore.DEInternal>
2.0887

> <Gold.Chemscore.Rot>
1.6316

> <Gold.Chemscore.Internal.Correction>
   9.000000E+99

> <Gold.Chemscore.Hbonds>
donor molecule, donor type, donor heavy atom, donor atom, acceptor molecule, acceptor atom, score
      L1  H     5    26       P1  7948  0.89
      L1  H     8    27       P1  7948  0.81

> <Gold.Chemscore.Hbond.Weighted>
-6.3195

> <Gold.Chemscore.Metal.Weighted>
-0.0000

> <Gold.Chemscore.Lipo.Weighted>
-10.3812

> <Gold.Chemscore.Internal_Hbond.Weighted>
0.0000

> <Gold.Chemscore.DEClash.Weighted>
0.0460

> <Gold.Chemscore.DEInternal.Weighted>
2.0887

> <Gold.Chemscore.Rot.Weighted>
4.1768

> <Gold.Chemscore.Internal.Correction.Weighted>
   9.000000E+99

> <Gold.Protein.RotatedTorsions>
[ 6907 6896 6895 6894 ] final   48.61 input  -60.11 | X-H torsion
[ 7974 7965 7964 7962 ] final   -4.85 input  175.53 | X-H torsion
[ 8008 7997 7996 7995 ] final  -32.35 input   59.86 | X-H torsion
[ 10167 10162 10161 10158 ] final   75.78 input  -65.29 | X-H torsion
[ 10718 10713 10712 10709 ] final  -34.31 input   66.30 | X-H torsion
[ 10763 10752 10751 10750 ] final -171.59 input  -60.55 | X-H torsion
[ 11005 11000 10999 10996 ] final    6.41 input  -57.11 | X-H torsion

> <Gold.Protein.ActiveResidues>
 VAL166  LYS551  ARG553  GLY616  TRP617  ASP618  TYR619  PRO620  LYS621  CYS622 
 ASP623  PHE694  ASN695  SER759  ASP760  ASP761  ALA762  ILE779  LEU786  VAL792 
 PHE793  MET794  SER795  GLU796  ALA797  LYS798  CYS799  TRP800  GLU811  SER814 

> <Gold.Protein.RotatedAtoms>
  152.2814  134.7824  160.0395 H   0  0  0  0  0  0  0  0  0  0  0  0  # atno 6907 bound_to 6896
  151.8401  133.3417  159.3648 H   0  0  0  0  0  0  0  0  0  0  0  0  # atno 6908 bound_to 6896
  150.7191  134.5327  159.5753 H   0  0  0  0  0  0  0  0  0  0  0  0  # atno 6909 bound_to 6896
  146.2364  140.1932  142.8333 H   0  0  0  0  0  0  0  0  0  0  0  0  # atno 7974 bound_to 7965
  154.4183  140.1740  156.1713 H   0  0  0  0  0  0  0  0  0  0  0  0  # atno 8008 bound_to 7997
  155.9758  140.3382  155.6593 H   0  0  0  0  0  0  0  0  0  0  0  0  # atno 8009 bound_to 7997
  155.6565  140.0696  157.2559 H   0  0  0  0  0  0  0  0  0  0  0  0  # atno 8010 bound_to 7997
  139.9993  144.5699  150.7751 H   0  0  0  0  0  0  0  0  0  0  0  0  # atno 10167 bound_to 10162
  156.3520  130.4310  149.7696 H   0  0  0  0  0  0  0  0  0  0  0  0  # atno 10718 bound_to 10713
  154.6288  135.2884  155.0240 H   0  0  0  0  0  0  0  0  0  0  0  0  # atno 10763 bound_to 10752
  154.1408  135.6519  153.4946 H   0  0  0  0  0  0  0  0  0  0  0  0  # atno 10764 bound_to 10752
  153.0270  135.5332  154.7108 H   0  0  0  0  0  0  0  0  0  0  0  0  # atno 10765 bound_to 10752
  140.5598  134.0203  155.7967 H   0  0  0  0  0  0  0  0  0  0  0  0  # atno 11005 bound_to 11000
  144.9841  140.8486  143.5379 LP  0  0  0  0  0  0  0  0  0  0  0  0  # atno 17320 bound_to 7965
  145.1929  139.2291  143.5233 LP  0  0  0  0  0  0  0  0  0  0  0  0  # atno 17321 bound_to 7965
  140.7425  143.2833  151.3536 LP  0  0  0  0  0  0  0  0  0  0  0  0  # atno 17342 bound_to 10162
  139.6283  144.0770  152.2454 LP  0  0  0  0  0  0  0  0  0  0  0  0  # atno 17343 bound_to 10162
  156.4892  130.8077  151.3088 LP  0  0  0  0  0  0  0  0  0  0  0  0  # atno 17370 bound_to 10713
  157.7462  130.9981  150.2839 LP  0  0  0  0  0  0  0  0  0  0  0  0  # atno 17371 bound_to 10713
  141.1121  133.9599  157.2890 LP  0  0  0  0  0  0  0  0  0  0  0  0  # atno 17394 bound_to 11000
  139.9413  135.0190  156.8718 LP  0  0  0  0  0  0  0  0  0  0  0  0  # atno 17395 bound_to 11000

$$$$
