AV-unprocessed.smi:1006|AV-procd|sdf|4397|dock7
  -GOLD-   22720 2333D 1   1.00000     0.00000
 Structure written by MMmdl.
 47 49  0  0  0  0  0  0  0  0  3 V2000
  149.2093  133.0543  153.7253 C   0  0  0  0  0  0  0  0  0  0  0  0
  148.9340  134.0833  154.8013 C   0  0  0  0  0  0  0  0  0  0  0  0
  148.8191  133.7307  156.1616 C   0  0  0  0  0  0  0  0  0  0  0  0
  148.5594  134.7737  157.0676 C   0  0  0  0  0  0  0  0  0  0  0  0
  148.4302  134.5211  158.4309 N   0  0  0  0  0  0  0  0  0  0  0  0
  148.4259  136.0493  156.6537 N   0  0  0  0  0  0  0  0  0  0  0  0
  148.5448  136.3157  155.3461 C   0  0  0  0  0  0  0  0  0  0  0  0
  148.3720  137.9949  154.7666 S   0  0  0  0  0  0  0  0  0  0  0  0
  149.5472  138.9079  155.8158 C   0  0  0  0  0  0  0  0  0  0  0  0
  150.3008  139.9926  155.0286 C   0  0  1  0  0  0  0  0  0  0  0  0
  149.4399  140.5384  154.0474 O   0  0  0  0  0  0  0  0  0  0  0  0
  150.8265  141.1125  155.9479 C   0  0  0  0  0  0  0  0  0  0  0  0
  151.5789  140.5969  157.1013 N   0  0  0  0  0  0  0  0  0  0  0  0
  152.1129  139.3618  157.3054 C   0  0  0  0  0  0  0  0  0  0  0  0
  152.7155  139.3705  158.5262 N   0  3  0  0  0  0  0  0  0  0  0  0
  152.5652  140.6293  159.1111 C   0  0  0  0  0  0  0  0  0  0  0  0
  153.0014  141.1203  160.3361 C   0  0  0  0  0  0  0  0  0  0  0  0
  152.6876  142.4637  160.6412 C   0  0  0  0  0  0  0  0  0  0  0  0
  153.1505  143.0327  161.9717 C   0  0  0  0  0  0  0  0  0  0  0  0
  151.9582  143.2683  159.7279 C   0  0  0  0  0  0  0  0  0  0  0  0
  151.6305  144.7133  160.0642 C   0  0  0  0  0  0  0  0  0  0  0  0
  151.5216  142.7494  158.4879 C   0  0  0  0  0  0  0  0  0  0  0  0
  151.8378  141.4228  158.2025 C   0  0  0  0  0  0  0  0  0  0  0  0
  148.7927  135.3778  154.4204 N   0  3  0  0  0  0  0  0  0  0  0  0
  149.5532  132.1154  154.1606 H   0  0  0  0  0  0  0  0  0  0  0  0
  149.9784  133.4112  153.0395 H   0  0  0  0  0  0  0  0  0  0  0  0
  148.3029  132.8541  153.1534 H   0  0  0  0  0  0  0  0  0  0  0  0
  148.9255  132.7070  156.4915 H   0  0  0  0  0  0  0  0  0  0  0  0
  148.5182  133.5884  158.8084 H   0  0  0  0  0  0  0  0  0  0  0  0
  148.2374  135.2634  159.0881 H   0  0  0  0  0  0  0  0  0  0  0  0
  149.0137  139.3544  156.6560 H   0  0  0  0  0  0  0  0  0  0  0  0
  150.2605  138.1940  156.2293 H   0  0  0  0  0  0  0  0  0  0  0  0
  151.1469  139.5353  154.5136 H   0  0  0  0  0  0  0  0  0  0  0  0
  149.7302  140.2493  153.1960 H   0  0  0  0  0  0  0  0  0  0  0  0
  151.4453  141.8218  155.3978 H   0  0  0  0  0  0  0  0  0  0  0  0
  149.9889  141.6865  156.3463 H   0  0  0  0  0  0  0  0  0  0  0  0
  152.0679  138.5259  156.6224 H   0  0  0  0  0  0  0  0  0  0  0  0
  153.5582  140.5022  161.0253 H   0  0  0  0  0  0  0  0  0  0  0  0
  152.2987  143.3763  162.5593 H   0  0  0  0  0  0  0  0  0  0  0  0
  153.8257  143.8741  161.8138 H   0  0  0  0  0  0  0  0  0  0  0  0
  153.6816  142.2854  162.5619 H   0  0  0  0  0  0  0  0  0  0  0  0
  151.0744  145.1947  159.2592 H   0  0  0  0  0  0  0  0  0  0  0  0
  152.5443  145.2857  160.2252 H   0  0  0  0  0  0  0  0  0  0  0  0
  151.0228  144.7681  160.9677 H   0  0  0  0  0  0  0  0  0  0  0  0
  150.9696  143.3652  157.7939 H   0  0  0  0  0  0  0  0  0  0  0  0
  148.8752  135.6285  153.4348 H   0  0  0  0  0  0  0  0  0  0  0  0
  153.1952  138.5748  158.9272 H   0  0  0  0  0  0  0  0  0  0  0  0
  1  2  1  0  0  0  0
  1 25  1  0  0  0  0
  1 26  1  0  0  0  0
  1 27  1  0  0  0  0
  2 24  1  0  0  0  0
  2  3  2  0  0  0  0
  3  4  1  0  0  0  0
  3 28  1  0  0  0  0
  4  5  1  0  0  0  0
  4  6  2  0  0  0  0
  5 29  1  0  0  0  0
  5 30  1  0  0  0  0
  6  7  1  0  0  0  0
  7  8  1  0  0  0  0
  7 24  2  0  0  0  0
  8  9  1  0  0  0  0
  9 10  1  0  0  0  0
  9 31  1  0  0  0  0
  9 32  1  0  0  0  0
 10 11  1  0  0  0  0
 10 12  1  0  0  0  0
 10 33  1  0  0  0  0
 11 34  1  0  0  0  0
 12 13  1  0  0  0  0
 12 35  1  0  0  0  0
 12 36  1  0  0  0  0
 13 23  1  0  0  0  0
 13 14  1  0  0  0  0
 14 15  2  0  0  0  0
 14 37  1  0  0  0  0
 15 16  1  0  0  0  0
 15 47  1  0  0  0  0
 16 23  2  0  0  0  0
 16 17  1  0  0  0  0
 17 18  2  0  0  0  0
 17 38  1  0  0  0  0
 18 19  1  0  0  0  0
 18 20  1  0  0  0  0
 19 39  1  0  0  0  0
 19 40  1  0  0  0  0
 19 41  1  0  0  0  0
 20 21  1  0  0  0  0
 20 22  2  0  0  0  0
 21 42  1  0  0  0  0
 21 43  1  0  0  0  0
 21 44  1  0  0  0  0
 22 23  1  0  0  0  0
 22 45  1  0  0  0  0
 24 46  1  0  0  0  0
M  CHG  1  15   1
M  CHG  1  24   1
M  END
> <s_m_source_file>
AV-unprocessed.smi

> <i_m_source_file_index>
1006

> <i_lp_mmshare_version>
43012

> <i_f3d_flags>
0

> <s_epik_input>
W0NIM11jMVtjSF1jKFtOSDJdKW5jKG4xKVNbQ0gyXVtDQEhdKFtPSF0pW0NIMl1uKFtjSF1uMiljKGMyMylbY0hdYyhbQ0gzXSljKFtjSF0zKVtDSDNd

> <s_epik_cmdline>
J2VwaWtfcHl0aG9uJywgJy1waCcsICc3LjAnLCAnLXRuJywgJzgnLCAnLW1hJywgJzIwMCcsICctbWV0YWxfYmluZGluZycsICctaW1hZScsICc8aW5maWxlLm1hZT4nLCAnLW9tYWUnLCAnPG91dGZpbGUubWFlPic=

> <r_lp_tautomer_probability>
0.999762

> <r_epik_Ionization_Penalty>
1.50932

> <r_epik_Ionization_Penalty_Charging>
1.50929

> <r_epik_Ionization_Penalty_Neutral>
3.48853e-05

> <r_epik_State_Penalty>
1.56619

> <r_epik_Charging_Adjusted_Penalty>
3.07548

> <i_epik_Tot_Q>
2

> <i_epik_Tot_abs_Q>
2

> <r_epik_Metal_State_Penalty>
1.82892

> <b_epik_Metal_Only>
0

> <s_lp_Force_Field>
OPLS_2005

> <r_lp_Energy>
17.0634

> <b_lp_Chiralities_Consistent>
1

> <s_lp_Variant>
AV-unprocessed.smi:1006-8

> <Gold.Version>
5.8.1

> <Gold.Id.Protein>
6NUR|6NUR_protein|mol2

> <Gold.PLP.Fitness>
50.8473

> <Gold.PLP.PLP>
-43.7463

> <Gold.PLP.part.hbond>
-3.0000

> <Gold.PLP.part.metal>
0.0000

> <Gold.PLP.part.buried>
-5.2853

> <Gold.PLP.part.nonpolar>
-34.7151

> <Gold.PLP.part.repulsive>
0.1972

> <Gold.PLP.ligand.clash>
0.0000

> <Gold.PLP.ligand.torsion>
0.8445

> <Gold.PLP.Chemscore.Hbond>
2.9120

> <Gold.PLP.Chemscore.CHOScore>
0.0000

> <Gold.PLP.Chemscore.Metal>
0.0000

> <Gold.Chemscore.Hbonds>
donor molecule, donor type, donor heavy atom, donor atom, acceptor molecule, acceptor atom, score
      L1  H    11    34       P1  7957  0.96
      L1  H    24    46       P1  7948  2.00

> <Gold.PLP.Chemscore.Internal.Correction>
0.0540

> <Gold.Rescore>
     Score         DG    S(hbond)    S(metal)    S(lipo)     H(rot)  DE(clash)    DE(int)     intcor
     16.26     -17.34       1.97        0.00     109.71       2.96       0.09       0.98       ----

> <Gold.Chemscore.Fitness>
16.2591

> <Gold.Chemscore.DG>
-17.3353

> <Gold.Chemscore.ZeroCoef>
-5.4800

> <Gold.Chemscore.Hbond>
1.9748

> <Gold.Chemscore.Metal>
0.0000

> <Gold.Chemscore.Lipo>
109.7147

> <Gold.Chemscore.Internal_Hbond>
0.0000

> <Gold.Chemscore.DEClash>
0.0942

> <Gold.Chemscore.DEInternal>
0.9820

> <Gold.Chemscore.Rot>
2.9599

> <Gold.Chemscore.Internal.Correction>
   9.000000E+99

> <Gold.Chemscore.Hbonds>
donor molecule, donor type, donor heavy atom, donor atom, acceptor molecule, acceptor atom, score
      L1  H    11    34       P1  7957  0.90
      L1  H    24    46       P1  7948  0.90

> <Gold.Chemscore.Hbond.Weighted>
-6.5959

> <Gold.Chemscore.Metal.Weighted>
-0.0000

> <Gold.Chemscore.Lipo.Weighted>
-12.8366

> <Gold.Chemscore.Internal_Hbond.Weighted>
0.0000

> <Gold.Chemscore.DEClash.Weighted>
0.0942

> <Gold.Chemscore.DEInternal.Weighted>
0.9820

> <Gold.Chemscore.Rot.Weighted>
7.5772

> <Gold.Chemscore.Internal.Correction.Weighted>
   9.000000E+99

> <Gold.Protein.RotatedTorsions>
[ 6907 6896 6895 6894 ] final   84.56 input  -60.11 | X-H torsion
[ 7974 7965 7964 7962 ] final  114.78 input  175.53 | X-H torsion
[ 8008 7997 7996 7995 ] final   44.71 input   59.86 | X-H torsion
[ 10167 10162 10161 10158 ] final -100.81 input  -65.29 | X-H torsion
[ 10718 10713 10712 10709 ] final  -90.35 input   66.30 | X-H torsion
[ 10763 10752 10751 10750 ] final  144.35 input  -60.55 | X-H torsion
[ 11005 11000 10999 10996 ] final   36.64 input  -57.11 | X-H torsion

> <Gold.Protein.ActiveResidues>
 VAL166  LYS551  ARG553  GLY616  TRP617  ASP618  TYR619  PRO620  LYS621  CYS622 
 ASP623  PHE694  ASN695  SER759  ASP760  ASP761  ALA762  ILE779  LEU786  VAL792 
 PHE793  MET794  SER795  GLU796  ALA797  LYS798  CYS799  TRP800  GLU811  SER814 

> <Gold.Protein.RotatedAtoms>
  152.5355  134.2721  159.8975 H   0  0  0  0  0  0  0  0  0  0  0  0  # atno 6907 bound_to 6896
  151.2678  133.4263  159.2627 H   0  0  0  0  0  0  0  0  0  0  0  0  # atno 6908 bound_to 6896
  151.0395  134.9612  159.8210 H   0  0  0  0  0  0  0  0  0  0  0  0  # atno 6909 bound_to 6896
  145.2002  139.2956  143.4322 H   0  0  0  0  0  0  0  0  0  0  0  0  # atno 7974 bound_to 7965
  155.3238  140.3398  155.4240 H   0  0  0  0  0  0  0  0  0  0  0  0  # atno 8008 bound_to 7997
  156.1896  140.1693  156.8155 H   0  0  0  0  0  0  0  0  0  0  0  0  # atno 8009 bound_to 7997
  154.5426  140.0722  156.8519 H   0  0  0  0  0  0  0  0  0  0  0  0  # atno 8010 bound_to 7997
  140.2479  143.3493  152.0742 H   0  0  0  0  0  0  0  0  0  0  0  0  # atno 10167 bound_to 10162
  155.9987  130.4906  150.5309 H   0  0  0  0  0  0  0  0  0  0  0  0  # atno 10718 bound_to 10713
  153.9874  135.2935  155.3415 H   0  0  0  0  0  0  0  0  0  0  0  0  # atno 10763 bound_to 10752
  154.7234  135.5099  153.8851 H   0  0  0  0  0  0  0  0  0  0  0  0  # atno 10764 bound_to 10752
  153.0825  135.6683  154.0130 H   0  0  0  0  0  0  0  0  0  0  0  0  # atno 10765 bound_to 10752
  140.2305  134.3533  155.7966 H   0  0  0  0  0  0  0  0  0  0  0  0  # atno 11005 bound_to 11000
  146.3419  140.2244  142.8592 LP  0  0  0  0  0  0  0  0  0  0  0  0  # atno 17320 bound_to 7965
  144.9955  140.8586  143.5313 LP  0  0  0  0  0  0  0  0  0  0  0  0  # atno 17321 bound_to 7965
  139.5056  144.6797  151.6039 LP  0  0  0  0  0  0  0  0  0  0  0  0  # atno 17342 bound_to 10162
  140.6063  143.9518  150.6421 LP  0  0  0  0  0  0  0  0  0  0  0  0  # atno 17343 bound_to 10162
  157.3258  131.0690  151.1897 LP  0  0  0  0  0  0  0  0  0  0  0  0  # atno 17370 bound_to 10713
  157.2795  130.6743  149.6059 LP  0  0  0  0  0  0  0  0  0  0  0  0  # atno 17371 bound_to 10713
  141.2218  133.7243  156.8724 LP  0  0  0  0  0  0  0  0  0  0  0  0  # atno 17394 bound_to 11000
  140.1755  134.9070  157.2886 LP  0  0  0  0  0  0  0  0  0  0  0  0  # atno 17395 bound_to 11000

$$$$
