AV-unprocessed.smi:1199|AV-procd|sdf|5015|dock9
  -GOLD-   22720 4 33D 1   1.00000     0.00000
 Structure written by MMmdl.
 40 41  0  0  0  0  0  0  0  0  2 V2000
  151.8749  138.3451  156.9329 C   0  0  0  0  0  0  0  0  0  0  0  0
  151.0344  139.1840  157.9118 C   0  0  1  0  0  0  0  0  0  0  0  0
  150.7224  140.6006  157.3681 C   0  0  0  0  0  0  0  0  0  0  0  0
  150.8580  141.7018  158.3247 N   0  0  0  0  0  0  0  0  0  0  0  0
  152.0703  141.6238  159.1350 C   0  0  0  0  0  0  0  0  0  0  0  0
  152.2062  142.8202  160.0940 C   0  0  0  0  0  0  0  0  0  0  0  0
  152.1549  144.0381  159.3594 O   0  0  0  0  0  0  0  0  0  0  0  0
  150.9523  144.1712  158.6100 C   0  0  0  0  0  0  0  0  0  0  0  0
  150.8246  142.9881  157.6356 C   0  0  0  0  0  0  0  0  0  0  0  0
  149.7903  138.4558  158.1464 N   0  0  0  0  0  0  0  0  0  0  0  0
  149.4779  137.7921  159.2705 C   0  0  0  0  0  0  0  0  0  0  0  0
  150.2308  137.7261  160.2437 O   0  0  0  0  0  0  0  0  0  0  0  0
  148.1073  137.0967  159.2736 C   0  0  0  0  0  0  0  0  0  0  0  0
  147.7984  136.3855  160.5228 N   0  0  0  0  0  0  0  0  0  0  0  0
  147.5572  137.2685  161.6604 N   0  5  0  0  0  0  0  0  0  0  0  0
  147.2291  136.7251  162.8625 C   0  0  0  0  0  0  0  0  0  0  0  0
  146.9902  137.4049  163.8580 O   0  0  0  0  0  0  0  0  0  0  0  0
  147.1674  135.2765  162.9646 C   0  0  0  0  0  0  0  0  0  0  0  0
  147.4244  134.4848  161.9048 C   0  0  0  0  0  0  0  0  0  0  0  0
  147.7712  135.0239  160.5953 C   0  0  0  0  0  0  0  0  0  0  0  0
  148.0162  134.3066  159.6251 O   0  0  0  0  0  0  0  0  0  0  0  0
  152.8384  138.8015  156.7152 H   0  0  0  0  0  0  0  0  0  0  0  0
  151.3572  138.2097  155.9825 H   0  0  0  0  0  0  0  0  0  0  0  0
  152.0750  137.3545  157.3427 H   0  0  0  0  0  0  0  0  0  0  0  0
  151.5729  139.2626  158.8583 H   0  0  0  0  0  0  0  0  0  0  0  0
  151.3281  140.7985  156.4823 H   0  0  0  0  0  0  0  0  0  0  0  0
  149.6913  140.6069  157.0114 H   0  0  0  0  0  0  0  0  0  0  0  0
  152.0600  140.7149  159.7342 H   0  0  0  0  0  0  0  0  0  0  0  0
  152.9475  141.5733  158.4881 H   0  0  0  0  0  0  0  0  0  0  0  0
  151.4117  142.8059  160.8418 H   0  0  0  0  0  0  0  0  0  0  0  0
  153.1523  142.7682  160.6328 H   0  0  0  0  0  0  0  0  0  0  0  0
  150.0953  144.2121  159.2844 H   0  0  0  0  0  0  0  0  0  0  0  0
  150.9750  145.1134  158.0625 H   0  0  0  0  0  0  0  0  0  0  0  0
  151.6336  143.0368  156.9048 H   0  0  0  0  0  0  0  0  0  0  0  0
  149.8935  143.0847  157.0762 H   0  0  0  0  0  0  0  0  0  0  0  0
  149.1147  138.4537  157.3963 H   0  0  0  0  0  0  0  0  0  0  0  0
  147.3299  137.8375  159.0777 H   0  0  0  0  0  0  0  0  0  0  0  0
  148.0763  136.4097  158.4262 H   0  0  0  0  0  0  0  0  0  0  0  0
  146.9125  134.8253  163.9122 H   0  0  0  0  0  0  0  0  0  0  0  0
  147.3686  133.4135  162.0267 H   0  0  0  0  0  0  0  0  0  0  0  0
  1  2  1  0  0  0  0
  1 22  1  0  0  0  0
  1 23  1  0  0  0  0
  1 24  1  0  0  0  0
  2  3  1  0  0  0  0
  2 10  1  0  0  0  0
  2 25  1  0  0  0  0
  3  4  1  0  0  0  0
  3 26  1  0  0  0  0
  3 27  1  0  0  0  0
  4  9  1  0  0  0  0
  4  5  1  0  0  0  0
  5  6  1  0  0  0  0
  5 28  1  0  0  0  0
  5 29  1  0  0  0  0
  6  7  1  0  0  0  0
  6 30  1  0  0  0  0
  6 31  1  0  0  0  0
  7  8  1  0  0  0  0
  8  9  1  0  0  0  0
  8 32  1  0  0  0  0
  8 33  1  0  0  0  0
  9 34  1  0  0  0  0
  9 35  1  0  0  0  0
 10 11  1  0  0  0  0
 10 36  1  0  0  0  0
 11 12  2  0  0  0  0
 11 13  1  0  0  0  0
 13 37  1  0  0  0  0
 13 38  1  0  0  0  0
 13 14  1  0  0  0  0
 14 15  1  0  0  0  0
 14 20  1  0  0  0  0
 15 16  1  0  0  0  0
 16 17  2  0  0  0  0
 16 18  1  0  0  0  0
 18 39  1  0  0  0  0
 18 19  2  0  0  0  0
 19 40  1  0  0  0  0
 19 20  1  0  0  0  0
 20 21  2  0  0  0  0
M  CHG  1  15  -1
M  END
> <s_m_source_file>
AV-unprocessed.smi

> <i_m_source_file_index>
1199

> <i_lp_mmshare_version>
43012

> <i_f3d_flags>
0

> <s_epik_input>
W0NIMl0xW0NIMl1PW0NIMl1bQ0gyXU4xW0NIMl1bQ0BASF0oW0NIM10pW05IXUMoPU8pW0NIMl1uMltuSF1jKD1PKVtjSF1bY0hdYzI9Tw==

> <s_epik_cmdline>
J2VwaWtfcHl0aG9uJywgJy1waCcsICc3LjAnLCAnLXRuJywgJzgnLCAnLW1hJywgJzIwMCcsICctbWV0YWxfYmluZGluZycsICctaW1hZScsICc8aW5maWxlLm1hZT4nLCAnLW9tYWUnLCAnPG91dGZpbGUubWFlPic=

> <r_lp_tautomer_probability>
1

> <r_epik_Ionization_Penalty>
0.334996

> <r_epik_Ionization_Penalty_Charging>
0.0976136

> <r_epik_Ionization_Penalty_Neutral>
0.237382

> <r_epik_State_Penalty>
0.26804

> <r_epik_Charging_Adjusted_Penalty>
0.365653

> <i_epik_Tot_Q>
-1

> <i_epik_Tot_abs_Q>
1

> <r_epik_Metal_State_Penalty>
0.26804

> <b_epik_Metal_Only>
0

> <s_lp_Force_Field>
OPLS_2005

> <r_lp_Energy>
39.9629

> <b_lp_Chiralities_Consistent>
1

> <s_lp_Variant>
AV-unprocessed.smi:1199-2

> <Gold.Version>
5.8.1

> <Gold.Id.Protein>
6NUR|6NUR_protein|mol2

> <Gold.PLP.Fitness>
45.0338

> <Gold.PLP.PLP>
-36.5631

> <Gold.PLP.part.hbond>
-3.4027

> <Gold.PLP.part.metal>
0.0000

> <Gold.PLP.part.buried>
-4.1582

> <Gold.PLP.part.nonpolar>
-29.3895

> <Gold.PLP.part.repulsive>
0.1367

> <Gold.PLP.ligand.clash>
0.0000

> <Gold.PLP.ligand.torsion>
0.9459

> <Gold.PLP.Chemscore.Hbond>
3.4400

> <Gold.PLP.Chemscore.CHOScore>
0.0000

> <Gold.PLP.Chemscore.Metal>
0.0000

> <Gold.Chemscore.Hbonds>
donor molecule, donor type, donor heavy atom, donor atom, acceptor molecule, acceptor atom, score
      P1  H  6931  6943       L1    15  1.86
      P1  H  6934  6947       L1    15  1.54

> <Gold.PLP.Chemscore.Internal.Correction>
0.0425

> <Gold.Rescore>
     Score         DG    S(hbond)    S(metal)    S(lipo)     H(rot)  DE(clash)    DE(int)     intcor
     10.52     -11.68       1.08        0.00      72.33       2.30       0.19       0.97       ----

> <Gold.Chemscore.Fitness>
10.5211

> <Gold.Chemscore.DG>
-11.6800

> <Gold.Chemscore.ZeroCoef>
-5.4800

> <Gold.Chemscore.Hbond>
1.0820

> <Gold.Chemscore.Metal>
0.0000

> <Gold.Chemscore.Lipo>
72.3312

> <Gold.Chemscore.Internal_Hbond>
0.0000

> <Gold.Chemscore.DEClash>
0.1917

> <Gold.Chemscore.DEInternal>
0.9672

> <Gold.Chemscore.Rot>
2.2955

> <Gold.Chemscore.Internal.Correction>
   9.000000E+99

> <Gold.Chemscore.Hbonds>
donor molecule, donor type, donor heavy atom, donor atom, acceptor molecule, acceptor atom, score
      P1  H  6931  6943       L1    15  0.36
      P1  H  6934  6947       L1    15  0.46

> <Gold.Chemscore.Hbond.Weighted>
-3.6138

> <Gold.Chemscore.Metal.Weighted>
-0.0000

> <Gold.Chemscore.Lipo.Weighted>
-8.4627

> <Gold.Chemscore.Internal_Hbond.Weighted>
0.0000

> <Gold.Chemscore.DEClash.Weighted>
0.1917

> <Gold.Chemscore.DEInternal.Weighted>
0.9672

> <Gold.Chemscore.Rot.Weighted>
5.8766

> <Gold.Chemscore.Internal.Correction.Weighted>
   9.000000E+99

> <Gold.Protein.RotatedTorsions>
[ 6907 6896 6895 6894 ] final -105.23 input  -60.11 | X-H torsion
[ 7974 7965 7964 7962 ] final   58.37 input  175.53 | X-H torsion
[ 8008 7997 7996 7995 ] final   54.04 input   59.86 | X-H torsion
[ 10167 10162 10161 10158 ] final   10.26 input  -65.29 | X-H torsion
[ 10718 10713 10712 10709 ] final   42.67 input   66.30 | X-H torsion
[ 10763 10752 10751 10750 ] final  -53.31 input  -60.55 | X-H torsion
[ 11005 11000 10999 10996 ] final  171.82 input  -57.11 | X-H torsion

> <Gold.Protein.ActiveResidues>
 VAL166  LYS551  ARG553  GLY616  TRP617  ASP618  TYR619  PRO620  LYS621  CYS622 
 ASP623  PHE694  ASN695  SER759  ASP760  ASP761  ALA762  ILE779  LEU786  VAL792 
 PHE793  MET794  SER795  GLU796  ALA797  LYS798  CYS799  TRP800  GLU811  SER814 

> <Gold.Protein.RotatedAtoms>
  150.7326  134.0158  159.3684 H   0  0  0  0  0  0  0  0  0  0  0  0  # atno 6907 bound_to 6896
  151.8120  135.0675  160.0423 H   0  0  0  0  0  0  0  0  0  0  0  0  # atno 6908 bound_to 6896
  152.3065  133.5673  159.5689 H   0  0  0  0  0  0  0  0  0  0  0  0  # atno 6909 bound_to 6896
  145.9189  139.3713  143.0490 H   0  0  0  0  0  0  0  0  0  0  0  0  # atno 7974 bound_to 7965
  155.4782  140.3467  155.4336 H   0  0  0  0  0  0  0  0  0  0  0  0  # atno 8008 bound_to 7997
  156.1056  140.1447  156.9436 H   0  0  0  0  0  0  0  0  0  0  0  0  # atno 8009 bound_to 7997
  154.4722  140.0897  156.7152 H   0  0  0  0  0  0  0  0  0  0  0  0  # atno 8010 bound_to 7997
  140.6205  143.8214  150.7169 H   0  0  0  0  0  0  0  0  0  0  0  0  # atno 10167 bound_to 10162
  157.4075  130.7895  149.7401 H   0  0  0  0  0  0  0  0  0  0  0  0  # atno 10718 bound_to 10713
  154.1567  135.6481  153.4976 H   0  0  0  0  0  0  0  0  0  0  0  0  # atno 10763 bound_to 10752
  153.0122  135.5351  154.6752 H   0  0  0  0  0  0  0  0  0  0  0  0  # atno 10764 bound_to 10752
  154.6055  135.2948  155.0461 H   0  0  0  0  0  0  0  0  0  0  0  0  # atno 10765 bound_to 10752
  140.3231  134.7420  157.4079 H   0  0  0  0  0  0  0  0  0  0  0  0  # atno 11005 bound_to 11000
  145.8576  140.9494  143.0717 LP  0  0  0  0  0  0  0  0  0  0  0  0  # atno 17320 bound_to 7965
  144.6751  140.0488  143.7479 LP  0  0  0  0  0  0  0  0  0  0  0  0  # atno 17321 bound_to 7965
  140.1803  143.4120  152.1937 LP  0  0  0  0  0  0  0  0  0  0  0  0  # atno 17342 bound_to 10162
  139.5435  144.7277  151.4658 LP  0  0  0  0  0  0  0  0  0  0  0  0  # atno 17343 bound_to 10162
  155.9841  130.3995  150.3331 LP  0  0  0  0  0  0  0  0  0  0  0  0  # atno 17370 bound_to 10713
  157.1465  131.0310  151.2904 LP  0  0  0  0  0  0  0  0  0  0  0  0  # atno 17371 bound_to 10713
  140.0924  134.5582  155.8431 LP  0  0  0  0  0  0  0  0  0  0  0  0  # atno 17394 bound_to 11000
  141.2082  133.6671  156.6353 LP  0  0  0  0  0  0  0  0  0  0  0  0  # atno 17395 bound_to 11000

$$$$
