AV-unprocessed.smi:1651|AV-procd|sdf|6637|dock1
  -GOLD-   22720 7343D 1   1.00000     0.00000
 Structure written by MMmdl.
 42 44  0  0  0  0  0  0  0  0  1 V2000
  146.6420  138.9935  154.4286 O   0  0  0  0  0  0  0  0  0  0  0  0
  147.4187  138.4044  153.6776 C   0  0  0  0  0  0  0  0  0  0  0  0
  147.0171  137.6020  152.6821 N   0  0  0  0  0  0  0  0  0  0  0  0
  145.6274  137.3375  152.3326 C   0  0  0  0  0  0  0  0  0  0  0  0
  145.4261  136.2645  151.2796 C   0  0  0  0  0  0  0  0  0  0  0  0
  144.1788  135.4104  151.2581 C   0  0  0  0  0  0  0  0  0  0  0  0
  145.5013  134.8039  151.6589 C   0  0  0  0  0  0  0  0  0  0  0  0
  148.7601  138.4568  153.7455 N   0  0  0  0  0  0  0  0  0  0  0  0
  149.5816  139.2213  154.6183 C   0  0  0  0  0  0  0  0  0  0  0  0
  150.9833  139.0661  154.7437 C   0  0  0  0  0  0  0  0  0  0  0  0
  151.6778  139.8733  155.6648 C   0  0  0  0  0  0  0  0  0  0  0  0
  150.9531  140.8040  156.4369 C   0  0  0  0  0  0  0  0  0  0  0  0
  151.6397  141.6059  157.3597 N   0  0  0  0  0  0  0  0  0  0  0  0
  151.2979  143.0223  157.2537 C   0  0  0  0  0  0  0  0  0  0  0  0
  152.2233  143.8762  158.1382 C   0  0  0  0  0  0  0  0  0  0  0  0
  152.2095  143.3761  159.5919 C   0  0  0  0  0  0  0  0  0  0  0  0
  152.5464  141.8771  159.6407 C   0  0  0  0  0  0  0  0  0  0  0  0
  151.6100  141.0749  158.7206 C   0  0  0  0  0  0  0  0  0  0  0  0
  149.6119  140.9531  156.3284 N   0  0  0  0  0  0  0  0  0  0  0  0
  148.9523  140.1765  155.4433 C   0  0  0  0  0  0  0  0  0  0  0  0
  147.7223  137.1501  152.1185 H   0  0  0  0  0  0  0  0  0  0  0  0
  145.1158  137.0198  153.2412 H   0  0  0  0  0  0  0  0  0  0  0  0
  145.1394  138.2610  152.0157 H   0  0  0  0  0  0  0  0  0  0  0  0
  145.8550  136.5155  150.3112 H   0  0  0  0  0  0  0  0  0  0  0  0
  143.4408  135.5703  152.0419 H   0  0  0  0  0  0  0  0  0  0  0  0
  143.7738  135.1395  150.2854 H   0  0  0  0  0  0  0  0  0  0  0  0
  145.9780  134.1254  150.9543 H   0  0  0  0  0  0  0  0  0  0  0  0
  145.6417  134.5589  152.7100 H   0  0  0  0  0  0  0  0  0  0  0  0
  149.2578  137.8521  153.1086 H   0  0  0  0  0  0  0  0  0  0  0  0
  151.5382  138.3411  154.1698 H   0  0  0  0  0  0  0  0  0  0  0  0
  152.7473  139.7728  155.7794 H   0  0  0  0  0  0  0  0  0  0  0  0
  151.3779  143.3439  156.2145 H   0  0  0  0  0  0  0  0  0  0  0  0
  150.2597  143.1693  157.5549 H   0  0  0  0  0  0  0  0  0  0  0  0
  153.2409  143.8342  157.7477 H   0  0  0  0  0  0  0  0  0  0  0  0
  151.9180  144.9220  158.0977 H   0  0  0  0  0  0  0  0  0  0  0  0
  152.9203  143.9433  160.1936 H   0  0  0  0  0  0  0  0  0  0  0  0
  151.2244  143.5449  160.0286 H   0  0  0  0  0  0  0  0  0  0  0  0
  153.5809  141.7253  159.3297 H   0  0  0  0  0  0  0  0  0  0  0  0
  152.4723  141.5080  160.6638 H   0  0  0  0  0  0  0  0  0  0  0  0
  150.5901  141.1161  159.1058 H   0  0  0  0  0  0  0  0  0  0  0  0
  151.9067  140.0252  158.7127 H   0  0  0  0  0  0  0  0  0  0  0  0
  147.8834  140.3246  155.3928 H   0  0  0  0  0  0  0  0  0  0  0  0
  1  2  2  0  0  0  0
  2  3  1  0  0  0  0
  2  8  1  0  0  0  0
  3  4  1  0  0  0  0
  3 21  1  0  0  0  0
  4  5  1  0  0  0  0
  4 22  1  0  0  0  0
  4 23  1  0  0  0  0
  5  7  1  0  0  0  0
  5  6  1  0  0  0  0
  5 24  1  0  0  0  0
  6  7  1  0  0  0  0
  6 25  1  0  0  0  0
  6 26  1  0  0  0  0
  7 27  1  0  0  0  0
  7 28  1  0  0  0  0
  8  9  1  0  0  0  0
  8 29  1  0  0  0  0
  9 20  1  0  0  0  0
  9 10  2  0  0  0  0
 10 11  1  0  0  0  0
 10 30  1  0  0  0  0
 11 12  2  0  0  0  0
 11 31  1  0  0  0  0
 12 13  1  0  0  0  0
 12 19  1  0  0  0  0
 13 18  1  0  0  0  0
 13 14  1  0  0  0  0
 14 15  1  0  0  0  0
 14 32  1  0  0  0  0
 14 33  1  0  0  0  0
 15 16  1  0  0  0  0
 15 34  1  0  0  0  0
 15 35  1  0  0  0  0
 16 17  1  0  0  0  0
 16 36  1  0  0  0  0
 16 37  1  0  0  0  0
 17 18  1  0  0  0  0
 17 38  1  0  0  0  0
 17 39  1  0  0  0  0
 18 40  1  0  0  0  0
 18 41  1  0  0  0  0
 19 20  2  0  0  0  0
 20 42  1  0  0  0  0
M  END
> <s_m_source_file>
AV-unprocessed.smi

> <i_m_source_file_index>
1651

> <i_lp_mmshare_version>
43012

> <i_f3d_flags>
0

> <s_epik_input>
W0NIMl0xW0NIMl1bQ0hdMVtDSDJdW05IXUMoPU8pW05IXWMyW2NIXVtjSF1jKG5bY0hdMilOM1tDSDJdW0NIMl1bQ0gyXVtDSDJdW0NIMl0z

> <s_epik_cmdline>
J2VwaWtfcHl0aG9uJywgJy1waCcsICc3LjAnLCAnLXRuJywgJzgnLCAnLW1hJywgJzIwMCcsICctbWV0YWxfYmluZGluZycsICctaW1hZScsICc8aW5maWxlLm1hZT4nLCAnLW9tYWUnLCAnPG91dGZpbGUubWFlPic=

> <r_lp_tautomer_probability>
1

> <r_epik_Ionization_Penalty>
0.1086

> <r_epik_Ionization_Penalty_Charging>
0

> <r_epik_Ionization_Penalty_Neutral>
0.1086

> <r_epik_State_Penalty>
0.0922233

> <r_epik_Charging_Adjusted_Penalty>
0.0922233

> <i_epik_Tot_Q>
0

> <i_epik_Tot_abs_Q>
0

> <r_epik_Metal_State_Penalty>
0.0785278

> <b_epik_Metal_Only>
0

> <s_lp_Force_Field>
OPLS_2005

> <r_lp_Energy>
29.7099

> <b_lp_Chiralities_Consistent>
1

> <s_lp_Variant>
AV-unprocessed.smi:1651-1

> <Gold.Version>
5.8.1

> <Gold.Id.Protein>
6NUR|6NUR_protein|mol2

> <Gold.PLP.Fitness>
43.6300

> <Gold.PLP.PLP>
-38.9663

> <Gold.PLP.part.hbond>
-2.6164

> <Gold.PLP.part.metal>
0.0000

> <Gold.PLP.part.buried>
-2.6677

> <Gold.PLP.part.nonpolar>
-34.7501

> <Gold.PLP.part.repulsive>
0.2877

> <Gold.PLP.ligand.clash>
0.0000

> <Gold.PLP.ligand.torsion>
0.7581

> <Gold.PLP.Chemscore.Hbond>
1.8247

> <Gold.PLP.Chemscore.CHOScore>
0.0000

> <Gold.PLP.Chemscore.Metal>
0.0000

> <Gold.Chemscore.Hbonds>
donor molecule, donor type, donor heavy atom, donor atom, acceptor molecule, acceptor atom, score
      L1  H     3    21       P1  7948  1.00
      L1  H     8    29       P1  7948  0.84

> <Gold.PLP.Chemscore.Internal.Correction>
0.7057

> <Gold.Rescore>
     Score         DG    S(hbond)    S(metal)    S(lipo)     H(rot)  DE(clash)    DE(int)     intcor
     17.66     -19.95       1.87        0.00      99.02       1.31       0.09       2.20       ----

> <Gold.Chemscore.Fitness>
17.6563

> <Gold.Chemscore.DG>
-19.9459

> <Gold.Chemscore.ZeroCoef>
-5.4800

> <Gold.Chemscore.Hbond>
1.8654

> <Gold.Chemscore.Metal>
0.0000

> <Gold.Chemscore.Lipo>
99.0171

> <Gold.Chemscore.Internal_Hbond>
0.0000

> <Gold.Chemscore.DEClash>
0.0850

> <Gold.Chemscore.DEInternal>
2.2046

> <Gold.Chemscore.Rot>
1.3084

> <Gold.Chemscore.Internal.Correction>
   9.000000E+99

> <Gold.Chemscore.Hbonds>
donor molecule, donor type, donor heavy atom, donor atom, acceptor molecule, acceptor atom, score
      L1  H     3    21       P1  7948  0.93
      L1  H     8    29       P1  7948  0.77

> <Gold.Chemscore.Hbond.Weighted>
-6.2305

> <Gold.Chemscore.Metal.Weighted>
-0.0000

> <Gold.Chemscore.Lipo.Weighted>
-11.5850

> <Gold.Chemscore.Internal_Hbond.Weighted>
0.0000

> <Gold.Chemscore.DEClash.Weighted>
0.0850

> <Gold.Chemscore.DEInternal.Weighted>
2.2046

> <Gold.Chemscore.Rot.Weighted>
3.3495

> <Gold.Chemscore.Internal.Correction.Weighted>
   9.000000E+99

> <Gold.Protein.RotatedTorsions>
[ 6907 6896 6895 6894 ] final  -44.72 input  -60.11 | X-H torsion
[ 7974 7965 7964 7962 ] final   21.59 input  175.53 | X-H torsion
[ 8008 7997 7996 7995 ] final  173.17 input   59.86 | X-H torsion
[ 10167 10162 10161 10158 ] final  -29.46 input  -65.29 | X-H torsion
[ 10718 10713 10712 10709 ] final -159.76 input   66.30 | X-H torsion
[ 10763 10752 10751 10750 ] final  105.58 input  -60.55 | X-H torsion
[ 11005 11000 10999 10996 ] final   88.54 input  -57.11 | X-H torsion

> <Gold.Protein.ActiveResidues>
 VAL166  LYS551  ARG553  GLY616  TRP617  ASP618  TYR619  PRO620  LYS621  CYS622 
 ASP623  PHE694  ASN695  SER759  ASP760  ASP761  ALA762  ILE779  LEU786  VAL792 
 PHE793  MET794  SER795  GLU796  ALA797  LYS798  CYS799  TRP800  GLU811  SER814 

> <Gold.Protein.RotatedAtoms>
  150.9298  134.8713  159.7543 H   0  0  0  0  0  0  0  0  0  0  0  0  # atno 6907 bound_to 6896
  152.5032  134.4096  159.9454 H   0  0  0  0  0  0  0  0  0  0  0  0  # atno 6908 bound_to 6896
  151.4124  133.3683  159.2780 H   0  0  0  0  0  0  0  0  0  0  0  0  # atno 6909 bound_to 6896
  146.2065  139.8005  142.8722 H   0  0  0  0  0  0  0  0  0  0  0  0  # atno 7974 bound_to 7965
  156.1102  140.1467  156.9349 H   0  0  0  0  0  0  0  0  0  0  0  0  # atno 8008 bound_to 7997
  154.4762  140.0894  156.7310 H   0  0  0  0  0  0  0  0  0  0  0  0  # atno 8009 bound_to 7997
  155.4609  140.3438  155.4315 H   0  0  0  0  0  0  0  0  0  0  0  0  # atno 8010 bound_to 7997
  140.7260  143.3927  151.1402 H   0  0  0  0  0  0  0  0  0  0  0  0  # atno 10167 bound_to 10162
  156.5726  130.8695  151.2842 H   0  0  0  0  0  0  0  0  0  0  0  0  # atno 10718 bound_to 10713
  153.3812  135.3905  155.1858 H   0  0  0  0  0  0  0  0  0  0  0  0  # atno 10763 bound_to 10752
  154.8708  135.3726  154.4854 H   0  0  0  0  0  0  0  0  0  0  0  0  # atno 10764 bound_to 10752
  153.5331  135.7085  153.5734 H   0  0  0  0  0  0  0  0  0  0  0  0  # atno 10765 bound_to 10752
  139.8894  134.8494  156.3014 H   0  0  0  0  0  0  0  0  0  0  0  0  # atno 11005 bound_to 11000
  145.3301  141.0264  143.3451 LP  0  0  0  0  0  0  0  0  0  0  0  0  # atno 17320 bound_to 7965
  144.8805  139.4911  143.6725 LP  0  0  0  0  0  0  0  0  0  0  0  0  # atno 17321 bound_to 7965
  139.7534  143.8744  152.3082 LP  0  0  0  0  0  0  0  0  0  0  0  0  # atno 17342 bound_to 10162
  139.8605  144.7119  150.9105 LP  0  0  0  0  0  0  0  0  0  0  0  0  # atno 17343 bound_to 10162
  157.7345  130.9747  150.2031 LP  0  0  0  0  0  0  0  0  0  0  0  0  # atno 17370 bound_to 10713
  156.2701  130.3721  149.8040 LP  0  0  0  0  0  0  0  0  0  0  0  0  # atno 17371 bound_to 10713
  140.9911  133.7208  156.0815 LP  0  0  0  0  0  0  0  0  0  0  0  0  # atno 17394 bound_to 11000
  140.7624  134.3924  157.5523 LP  0  0  0  0  0  0  0  0  0  0  0  0  # atno 17395 bound_to 11000

$$$$
