AV-unprocessed.smi:2298|AV-procd|sdf|9226|dock3
  -GOLD-   2272012443D 1   1.00000     0.00000
 Structure written by MMmdl.
 38 39  0  0  0  0  0  0  0  0  2 V2000
  150.5643  141.2475  155.6237 C   0  0  0  0  0  0  0  0  0  0  0  0
  149.2742  140.9705  154.8758 C   0  0  0  0  0  0  0  0  0  0  0  0
  148.3828  141.9800  154.7661 N   0  3  0  0  0  0  0  0  0  0  0  0
  147.1998  141.8502  154.1309 C   0  0  0  0  0  0  0  0  0  0  0  0
  146.8512  140.6207  153.5392 C   0  0  0  0  0  0  0  0  0  0  0  0
  147.7570  139.5317  153.6083 C   0  0  0  0  0  0  0  0  0  0  0  0
  147.4760  138.2516  153.0529 N   0  0  0  0  0  0  0  0  0  0  0  0
  146.2812  137.6722  152.8456 C   0  0  0  0  0  0  0  0  0  0  0  0
  145.1911  138.1793  153.1095 O   0  0  0  0  0  0  0  0  0  0  0  0
  146.4187  136.4590  152.2917 N   0  0  0  0  0  0  0  0  0  0  0  0
  145.3192  135.5686  151.9306 C   0  0  1  0  0  0  0  0  0  0  0  0
  145.0200  135.6994  150.4250 C   0  0  0  0  0  0  0  0  0  0  0  0
  143.9042  134.7363  149.9880 C   0  0  0  0  0  0  0  0  0  0  0  0
  144.2517  133.2831  150.3539 C   0  0  2  0  0  0  0  0  0  0  0  0
  143.1776  132.4372  150.0017 O   0  0  0  0  0  0  0  0  0  0  0  0
  144.5425  133.1459  151.8581 C   0  0  0  0  0  0  0  0  0  0  0  0
  145.6583  134.1082  152.2963 C   0  0  0  0  0  0  0  0  0  0  0  0
  148.9806  139.7114  154.3006 C   0  0  0  0  0  0  0  0  0  0  0  0
  150.1136  138.4088  154.4381 Cl  0  0  0  0  0  0  0  0  0  0  0  0
  144.4242  135.8702  152.4787 H   0  0  0  0  0  0  0  0  0  0  0  0
  145.1273  132.9663  149.7859 H   0  0  0  0  0  0  0  0  0  0  0  0
  151.4211  141.1071  154.9641 H   0  0  0  0  0  0  0  0  0  0  0  0
  150.6663  140.5686  156.4709 H   0  0  0  0  0  0  0  0  0  0  0  0
  150.5942  142.2697  156.0036 H   0  0  0  0  0  0  0  0  0  0  0  0
  146.5683  142.7267  154.1201 H   0  0  0  0  0  0  0  0  0  0  0  0
  145.8906  140.5342  153.0550 H   0  0  0  0  0  0  0  0  0  0  0  0
  148.2783  137.7474  152.7036 H   0  0  0  0  0  0  0  0  0  0  0  0
  147.3522  136.1229  152.1043 H   0  0  0  0  0  0  0  0  0  0  0  0
  144.7315  136.7244  150.1885 H   0  0  0  0  0  0  0  0  0  0  0  0
  145.9221  135.4909  149.8479 H   0  0  0  0  0  0  0  0  0  0  0  0
  142.9686  135.0269  150.4683 H   0  0  0  0  0  0  0  0  0  0  0  0
  143.7415  134.8239  148.9131 H   0  0  0  0  0  0  0  0  0  0  0  0
  142.4052  132.9675  149.8780 H   0  0  0  0  0  0  0  0  0  0  0  0
  143.6387  133.3572  152.4317 H   0  0  0  0  0  0  0  0  0  0  0  0
  144.8265  132.1196  152.0934 H   0  0  0  0  0  0  0  0  0  0  0  0
  146.5948  133.8160  151.8190 H   0  0  0  0  0  0  0  0  0  0  0  0
  145.8169  134.0143  153.3712 H   0  0  0  0  0  0  0  0  0  0  0  0
  148.6126  142.8804  155.1876 H   0  0  0  0  0  0  0  0  0  0  0  0
  1  2  1  0  0  0  0
  1 22  1  0  0  0  0
  1 23  1  0  0  0  0
  1 24  1  0  0  0  0
  2 18  1  0  0  0  0
  2  3  2  0  0  0  0
  3  4  1  0  0  0  0
  3 38  1  0  0  0  0
  4  5  2  0  0  0  0
  4 25  1  0  0  0  0
  5  6  1  0  0  0  0
  5 26  1  0  0  0  0
  6  7  1  0  0  0  0
  6 18  2  0  0  0  0
  7  8  1  0  0  0  0
  7 27  1  0  0  0  0
  8  9  2  0  0  0  0
  8 10  1  0  0  0  0
 10 11  1  0  0  0  0
 10 28  1  0  0  0  0
 11 20  1  0  0  0  0
 11 17  1  0  0  0  0
 11 12  1  0  0  0  0
 12 13  1  0  0  0  0
 12 29  1  0  0  0  0
 12 30  1  0  0  0  0
 13 14  1  0  0  0  0
 13 31  1  0  0  0  0
 13 32  1  0  0  0  0
 14 21  1  0  0  0  0
 14 15  1  0  0  0  0
 14 16  1  0  0  0  0
 15 33  1  0  0  0  0
 16 17  1  0  0  0  0
 16 34  1  0  0  0  0
 16 35  1  0  0  0  0
 17 36  1  0  0  0  0
 17 37  1  0  0  0  0
 18 19  1  0  0  0  0
M  CHG  1   3   1
M  END
> <s_m_source_file>
AV-unprocessed.smi

> <i_m_source_file_index>
2298

> <i_lp_mmshare_version>
43012

> <i_f3d_flags>
0

> <s_epik_input>
W0NIM11jMW5bY0hdW2NIXWMoYzFDbClbTkhdQyg9TylbTkhdW0NASF0yW0NIMl1bQ0gyXVtDQEhdKFtPSF0pW0NIMl1bQ0gyXTI=

> <s_epik_cmdline>
J2VwaWtfcHl0aG9uJywgJy1waCcsICc3LjAnLCAnLXRuJywgJzgnLCAnLW1hJywgJzIwMCcsICctbWV0YWxfYmluZGluZycsICctaW1hZScsICc8aW5maWxlLm1hZT4nLCAnLW9tYWUnLCAnPG91dGZpbGUubWFlPic=

> <r_epik_Ionization_Penalty>
2.42586

> <r_epik_Ionization_Penalty_Charging>
2.42584

> <r_epik_Ionization_Penalty_Neutral>
2.16148e-05

> <r_epik_State_Penalty>
2.58553

> <r_epik_Charging_Adjusted_Penalty>
5.01136

> <i_epik_Tot_Q>
1

> <i_epik_Tot_abs_Q>
1

> <r_epik_Metal_State_Penalty>
2.59536

> <b_epik_Metal_Only>
0

> <s_lp_Force_Field>
OPLS_2005

> <r_lp_Energy>
18.0317

> <b_lp_Chiralities_Consistent>
1

> <s_lp_Variant>
AV-unprocessed.smi:2298-3

> <Gold.Version>
5.8.1

> <Gold.Id.Protein>
6NUR|6NUR_protein|mol2

> <Gold.PLP.Fitness>
46.2629

> <Gold.PLP.PLP>
-32.2123

> <Gold.PLP.part.hbond>
-4.5089

> <Gold.PLP.part.metal>
0.0000

> <Gold.PLP.part.buried>
-0.1663

> <Gold.PLP.part.nonpolar>
-29.9192

> <Gold.PLP.part.repulsive>
2.4869

> <Gold.PLP.ligand.clash>
0.0000

> <Gold.PLP.ligand.torsion>
0.4514

> <Gold.PLP.Chemscore.Hbond>
4.9833

> <Gold.PLP.Chemscore.CHOScore>
0.0000

> <Gold.PLP.Chemscore.Metal>
0.0000

> <Gold.Chemscore.Hbonds>
donor molecule, donor type, donor heavy atom, donor atom, acceptor molecule, acceptor atom, score
      L1  H     3    38       P1  8028  2.00
      L1  H     7    27       P1  7948  0.99
      L1  H    10    28       P1  7948  1.00
      L1  H    15    33       P1 10186  0.98

> <Gold.PLP.Chemscore.Internal.Correction>
0.0037

> <Gold.Rescore>
     Score         DG    S(hbond)    S(metal)    S(lipo)     H(rot)  DE(clash)    DE(int)     intcor
     20.90     -24.73       3.92        0.00      84.10       1.43       2.24       1.59       ----

> <Gold.Chemscore.Fitness>
20.8981

> <Gold.Chemscore.DG>
-24.7307

> <Gold.Chemscore.ZeroCoef>
-5.4800

> <Gold.Chemscore.Hbond>
3.9161

> <Gold.Chemscore.Metal>
0.0000

> <Gold.Chemscore.Lipo>
84.1044

> <Gold.Chemscore.Internal_Hbond>
0.0000

> <Gold.Chemscore.DEClash>
2.2396

> <Gold.Chemscore.DEInternal>
1.5931

> <Gold.Chemscore.Rot>
1.4333

> <Gold.Chemscore.Internal.Correction>
   9.000000E+99

> <Gold.Chemscore.Hbonds>
donor molecule, donor type, donor heavy atom, donor atom, acceptor molecule, acceptor atom, score
      L1  H     3    38       P1  8028  1.00
      L1  H     7    27       P1  7948  0.93
      L1  H    10    28       P1  7948  0.98
      L1  H    15    33       P1 10186  0.92

> <Gold.Chemscore.Hbond.Weighted>
-13.0799

> <Gold.Chemscore.Metal.Weighted>
-0.0000

> <Gold.Chemscore.Lipo.Weighted>
-9.8402

> <Gold.Chemscore.Internal_Hbond.Weighted>
0.0000

> <Gold.Chemscore.DEClash.Weighted>
2.2396

> <Gold.Chemscore.DEInternal.Weighted>
1.5931

> <Gold.Chemscore.Rot.Weighted>
3.6693

> <Gold.Chemscore.Internal.Correction.Weighted>
   9.000000E+99

> <Gold.Protein.RotatedTorsions>
[ 6907 6896 6895 6894 ] final  -53.01 input  -60.11 | X-H torsion
[ 7974 7965 7964 7962 ] final   24.45 input  175.53 | X-H torsion
[ 8008 7997 7996 7995 ] final  158.36 input   59.86 | X-H torsion
[ 10167 10162 10161 10158 ] final  144.83 input  -65.29 | X-H torsion
[ 10718 10713 10712 10709 ] final  -91.62 input   66.30 | X-H torsion
[ 10763 10752 10751 10750 ] final -152.17 input  -60.55 | X-H torsion
[ 11005 11000 10999 10996 ] final   11.81 input  -57.11 | X-H torsion

> <Gold.Protein.ActiveResidues>
 VAL166  LYS551  ARG553  GLY616  TRP617  ASP618  TYR619  PRO620  LYS621  CYS622 
 ASP623  PHE694  ASN695  SER759  ASP760  ASP761  ALA762  ILE779  LEU786  VAL792 
 PHE793  MET794  SER795  GLU796  ALA797  LYS798  CYS799  TRP800  GLU811  SER814 

> <Gold.Protein.RotatedAtoms>
  150.8465  134.7776  159.6974 H   0  0  0  0  0  0  0  0  0  0  0  0  # atno 6907 bound_to 6896
  152.4541  134.5327  159.9825 H   0  0  0  0  0  0  0  0  0  0  0  0  # atno 6908 bound_to 6896
  151.5457  133.3387  159.2979 H   0  0  0  0  0  0  0  0  0  0  0  0  # atno 6909 bound_to 6896
  146.1937  139.7603  142.8813 H   0  0  0  0  0  0  0  0  0  0  0  0  # atno 7974 bound_to 7965
  156.2307  140.1860  156.7248 H   0  0  0  0  0  0  0  0  0  0  0  0  # atno 8008 bound_to 7997
  154.6018  140.0635  156.9406 H   0  0  0  0  0  0  0  0  0  0  0  0  # atno 8009 bound_to 7997
  155.2161  140.3304  155.4324 H   0  0  0  0  0  0  0  0  0  0  0  0  # atno 8010 bound_to 7997
  139.4939  144.5945  151.6612 H   0  0  0  0  0  0  0  0  0  0  0  0  # atno 10167 bound_to 10162
  155.9995  130.4955  150.5503 H   0  0  0  0  0  0  0  0  0  0  0  0  # atno 10718 bound_to 10713
  154.8011  135.3242  154.7547 H   0  0  0  0  0  0  0  0  0  0  0  0  # atno 10763 bound_to 10752
  153.8215  135.6887  153.4831 H   0  0  0  0  0  0  0  0  0  0  0  0  # atno 10764 bound_to 10752
  153.1728  135.4616  154.9869 H   0  0  0  0  0  0  0  0  0  0  0  0  # atno 10765 bound_to 10752
  140.4991  134.0764  155.7789 H   0  0  0  0  0  0  0  0  0  0  0  0  # atno 11005 bound_to 11000
  145.3713  141.0343  143.3230 LP  0  0  0  0  0  0  0  0  0  0  0  0  # atno 17320 bound_to 7965
  144.8536  139.5283  143.6845 LP  0  0  0  0  0  0  0  0  0  0  0  0  # atno 17321 bound_to 7965
  140.5579  144.0317  150.6156 LP  0  0  0  0  0  0  0  0  0  0  0  0  # atno 17342 bound_to 10162
  140.3393  143.3029  152.0605 LP  0  0  0  0  0  0  0  0  0  0  0  0  # atno 17343 bound_to 10162
  157.3427  131.0719  151.1776 LP  0  0  0  0  0  0  0  0  0  0  0  0  # atno 17370 bound_to 10713
  157.2619  130.6663  149.5978 LP  0  0  0  0  0  0  0  0  0  0  0  0  # atno 17371 bound_to 10713
  141.1445  133.9080  157.2248 LP  0  0  0  0  0  0  0  0  0  0  0  0  # atno 17394 bound_to 11000
  139.9724  135.0124  156.9545 LP  0  0  0  0  0  0  0  0  0  0  0  0  # atno 17395 bound_to 11000

$$$$
