AV-unprocessed.smi:41|AV-procd|sdf|384|dock7
  -GOLD-   2262016243D 1   1.00000     0.00000
 Structure written by MMmdl.
 26 27  0  0  0  0  0  0  0  0  1 V2000
  148.8389  140.4452  153.4977 N   0  0  0  0  0  0  0  0  0  0  0  0
  149.4019  140.7146  154.6843 C   0  0  0  0  0  0  0  0  0  0  0  0
  150.6468  140.3384  154.9030 N   0  0  0  0  0  0  0  0  0  0  0  0
  151.3054  140.5657  156.0830 C   0  0  0  0  0  0  0  0  0  0  0  0
  152.4598  140.1686  156.2362 O   0  0  0  0  0  0  0  0  0  0  0  0
  150.6088  141.2689  157.0992 N   0  0  0  0  0  0  0  0  0  0  0  0
  151.2171  141.4771  158.4112 C   0  0  1  0  0  0  0  0  0  0  0  0
  151.9377  140.2382  158.9847 C   0  0  0  0  0  0  0  0  0  0  0  0
  153.1979  140.8546  160.1139 S   0  0  0  0  0  0  0  0  0  0  0  0
  152.9023  142.5406  159.5317 C   0  0  2  0  0  0  0  0  0  0  0  0
  152.1977  143.4073  160.5925 C   0  0  0  0  0  0  0  0  0  0  0  0
  151.8003  142.6152  161.6920 O   0  0  0  0  0  0  0  0  0  0  0  0
  152.1412  142.5169  158.3332 O   0  0  0  0  0  0  0  0  0  0  0  0
  149.2865  141.6398  156.8856 C   0  0  0  0  0  0  0  0  0  0  0  0
  148.6567  141.3983  155.7158 C   0  0  0  0  0  0  0  0  0  0  0  0
  147.3798  141.7730  155.5255 F   0  0  0  0  0  0  0  0  0  0  0  0
  150.4526  141.7861  159.1247 H   0  0  0  0  0  0  0  0  0  0  0  0
  153.8638  142.9950  159.2901 H   0  0  0  0  0  0  0  0  0  0  0  0
  147.8838  140.7215  153.3194 H   0  0  0  0  0  0  0  0  0  0  0  0
  149.3696  139.9642  152.7858 H   0  0  0  0  0  0  0  0  0  0  0  0
  151.2235  139.5895  159.4923 H   0  0  0  0  0  0  0  0  0  0  0  0
  152.4368  139.6574  158.2124 H   0  0  0  0  0  0  0  0  0  0  0  0
  152.8777  144.1769  160.9589 H   0  0  0  0  0  0  0  0  0  0  0  0
  151.3255  143.9158  160.1809 H   0  0  0  0  0  0  0  0  0  0  0  0
  152.5701  142.3805  162.1874 H   0  0  0  0  0  0  0  0  0  0  0  0
  148.7195  142.1235  157.6668 H   0  0  0  0  0  0  0  0  0  0  0  0
  1  2  1  0  0  0  0
  1 19  1  0  0  0  0
  1 20  1  0  0  0  0
  2 15  1  0  0  0  0
  2  3  2  0  0  0  0
  3  4  1  0  0  0  0
  4  5  2  0  0  0  0
  4  6  1  0  0  0  0
  6  7  1  0  0  0  0
  6 14  1  0  0  0  0
  7 17  1  0  0  0  0
  7 13  1  0  0  0  0
  7  8  1  0  0  0  0
  8  9  1  0  0  0  0
  8 21  1  0  0  0  0
  8 22  1  0  0  0  0
  9 10  1  0  0  0  0
 10 18  1  0  0  0  0
 10 11  1  0  0  0  0
 10 13  1  0  0  0  0
 11 12  1  0  0  0  0
 11 23  1  0  0  0  0
 11 24  1  0  0  0  0
 12 25  1  0  0  0  0
 14 15  2  0  0  0  0
 14 26  1  0  0  0  0
 15 16  1  0  0  0  0
M  END
> <s_m_source_file>
AV-unprocessed.smi

> <i_m_source_file_index>
41

> <i_lp_mmshare_version>
43012

> <i_f3d_flags>
0

> <s_epik_input>
W05IMl1jMW5jKD1PKW4oW2NIXWMxRilbQ0BASF0yW0NIMl1TW0NAQEhdKE8yKVtDSDJdW09IXQ==

> <s_epik_cmdline>
J2VwaWtfcHl0aG9uJywgJy1waCcsICc3LjAnLCAnLXRuJywgJzgnLCAnLW1hJywgJzIwMCcsICctbWV0YWxfYmluZGluZycsICctaW1hZScsICc8aW5maWxlLm1hZT4nLCAnLW9tYWUnLCAnPG91dGZpbGUubWFlPic=

> <r_lp_tautomer_probability>
1

> <r_epik_Ionization_Penalty>
0.000101883

> <r_epik_Ionization_Penalty_Charging>
1.48607e-08

> <r_epik_Ionization_Penalty_Neutral>
0.000101868

> <r_epik_State_Penalty>
-0

> <r_epik_Charging_Adjusted_Penalty>
1.48607e-08

> <i_epik_Tot_Q>
0

> <i_epik_Tot_abs_Q>
0

> <r_epik_Metal_State_Penalty>
-0

> <b_epik_Metal_Only>
0

> <s_epik_Chemistry_Notes>
This compound contains an acetal/aminal-like group ( X-CH(R)-Y where X, Y are N, S, or O) that may be acid/base labile, releasing an aldehyde.

> <s_lp_Force_Field>
OPLS_2005

> <r_lp_Energy>
13.4753

> <b_lp_Chiralities_Consistent>
1

> <s_lp_Variant>
AV-unprocessed.smi:41-2

> <Gold.Version>
5.8.1

> <Gold.Id.Protein>
6NUR|6NUR_protein|mol2

> <Gold.PLP.Fitness>
40.1381

> <Gold.PLP.PLP>
-31.8627

> <Gold.PLP.part.hbond>
-4.0739

> <Gold.PLP.part.metal>
0.0000

> <Gold.PLP.part.buried>
-4.0301

> <Gold.PLP.part.nonpolar>
-23.7119

> <Gold.PLP.part.repulsive>
0.2430

> <Gold.PLP.ligand.clash>
0.1291

> <Gold.PLP.ligand.torsion>
1.0785

> <Gold.PLP.Chemscore.Hbond>
3.5040

> <Gold.PLP.Chemscore.CHOScore>
0.0000

> <Gold.PLP.Chemscore.Metal>
0.0000

> <Gold.Chemscore.Hbonds>
donor molecule, donor type, donor heavy atom, donor atom, acceptor molecule, acceptor atom, score
      L1  H     1    20       P1  7957  0.78
      P1  H  6933  6945       L1    12  0.72
      P1  H  7989  7998       L1     3  1.00
      P1  H  7997  8008       L1     5  1.00

> <Gold.PLP.Chemscore.Internal.Correction>
0.0496

> <Gold.Rescore>
     Score         DG    S(hbond)    S(metal)    S(lipo)     H(rot)  DE(clash)    DE(int)     intcor
     13.13     -16.76       3.45        0.00      46.08       2.19       1.33       2.31       ----

> <Gold.Chemscore.Fitness>
13.1287

> <Gold.Chemscore.DG>
-16.7641

> <Gold.Chemscore.ZeroCoef>
-5.4800

> <Gold.Chemscore.Hbond>
3.4451

> <Gold.Chemscore.Metal>
0.0000

> <Gold.Chemscore.Lipo>
46.0793

> <Gold.Chemscore.Internal_Hbond>
0.0000

> <Gold.Chemscore.DEClash>
1.3256

> <Gold.Chemscore.DEInternal>
2.3098

> <Gold.Chemscore.Rot>
2.1929

> <Gold.Chemscore.Internal.Correction>
   9.000000E+99

> <Gold.Chemscore.Hbonds>
donor molecule, donor type, donor heavy atom, donor atom, acceptor molecule, acceptor atom, score
      L1  H     1    20       P1  7957  0.77
      P1  H  6933  6945       L1    12  0.65
      P1  H  7989  7998       L1     3  0.47
      P1  H  7997  8008       L1     5  0.99

> <Gold.Chemscore.Hbond.Weighted>
-11.5065

> <Gold.Chemscore.Metal.Weighted>
-0.0000

> <Gold.Chemscore.Lipo.Weighted>
-5.3913

> <Gold.Chemscore.Internal_Hbond.Weighted>
0.0000

> <Gold.Chemscore.DEClash.Weighted>
1.3256

> <Gold.Chemscore.DEInternal.Weighted>
2.3098

> <Gold.Chemscore.Rot.Weighted>
5.6137

> <Gold.Chemscore.Internal.Correction.Weighted>
   9.000000E+99

> <Gold.Protein.RotatedTorsions>
[ 6907 6896 6895 6894 ] final  123.43 input  -60.11 | X-H torsion
[ 7974 7965 7964 7962 ] final  -18.86 input  175.53 | X-H torsion
[ 8008 7997 7996 7995 ] final  -44.41 input   59.86 | X-H torsion
[ 10167 10162 10161 10158 ] final  -88.63 input  -65.29 | X-H torsion
[ 10718 10713 10712 10709 ] final -107.42 input   66.30 | X-H torsion
[ 10763 10752 10751 10750 ] final  146.48 input  -60.55 | X-H torsion
[ 11005 11000 10999 10996 ] final  -81.82 input  -57.11 | X-H torsion

> <Gold.Protein.ActiveResidues>
 VAL166  LYS551  ARG553  GLY616  TRP617  ASP618  TYR619  PRO620  LYS621  CYS622 
 ASP623  PHE694  ASN695  SER759  ASP760  ASP761  ALA762  ILE779  LEU786  VAL792 
 PHE793  MET794  SER795  GLU796  ALA797  LYS798  CYS799  TRP800  GLU811  SER814 

> <Gold.Protein.RotatedAtoms>
  152.4162  133.7042  159.6440 H   0  0  0  0  0  0  0  0  0  0  0  0  # atno 6907 bound_to 6896
  150.8039  133.8536  159.3221 H   0  0  0  0  0  0  0  0  0  0  0  0  # atno 6908 bound_to 6896
  151.6265  135.1029  160.0164 H   0  0  0  0  0  0  0  0  0  0  0  0  # atno 6909 bound_to 6896
  146.1871  140.3980  142.8472 H   0  0  0  0  0  0  0  0  0  0  0  0  # atno 7974 bound_to 7965
  154.3997  140.1423  156.3679 H   0  0  0  0  0  0  0  0  0  0  0  0  # atno 8008 bound_to 7997
  155.8120  140.3472  155.5443 H   0  0  0  0  0  0  0  0  0  0  0  0  # atno 8009 bound_to 7997
  155.8376  140.0922  157.1745 H   0  0  0  0  0  0  0  0  0  0  0  0  # atno 8010 bound_to 7997
  140.3728  143.2786  151.9479 H   0  0  0  0  0  0  0  0  0  0  0  0  # atno 10167 bound_to 10162
  156.0436  130.5662  150.7819 H   0  0  0  0  0  0  0  0  0  0  0  0  # atno 10718 bound_to 10713
  154.0226  135.2904  155.3379 H   0  0  0  0  0  0  0  0  0  0  0  0  # atno 10763 bound_to 10752
  154.7037  135.5178  153.8567 H   0  0  0  0  0  0  0  0  0  0  0  0  # atno 10764 bound_to 10752
  153.0674  135.6636  154.0446 H   0  0  0  0  0  0  0  0  0  0  0  0  # atno 10765 bound_to 10752
  141.1665  133.7214  156.8479 H   0  0  0  0  0  0  0  0  0  0  0  0  # atno 11005 bound_to 11000
  144.8417  140.6867  143.6225 LP  0  0  0  0  0  0  0  0  0  0  0  0  # atno 17320 bound_to 7965
  145.3906  139.1617  143.4231 LP  0  0  0  0  0  0  0  0  0  0  0  0  # atno 17321 bound_to 7965
  139.4802  144.5891  151.7802 LP  0  0  0  0  0  0  0  0  0  0  0  0  # atno 17342 bound_to 10162
  140.5016  144.1160  150.5972 LP  0  0  0  0  0  0  0  0  0  0  0  0  # atno 17343 bound_to 10162
  157.5284  131.0935  150.9987 LP  0  0  0  0  0  0  0  0  0  0  0  0  # atno 17370 bound_to 10713
  157.0300  130.5707  149.5342 LP  0  0  0  0  0  0  0  0  0  0  0  0  # atno 17371 bound_to 10713
  140.1936  134.8947  157.3089 LP  0  0  0  0  0  0  0  0  0  0  0  0  # atno 17394 bound_to 11000
  140.2263  134.3963  155.7542 LP  0  0  0  0  0  0  0  0  0  0  0  0  # atno 17395 bound_to 11000

$$$$
