AV-unprocessed.smi:2195|AV-procd|sdf|8906|dock8
  -GOLD-   2272012123D 1   1.00000     0.00000
 Structure written by MMmdl.
 40 42  0  0  0  0  0  0  0  0  2 V2000
  146.1990  132.2484  161.4599 C   0  0  0  0  0  0  0  0  0  0  0  0
  146.8793  133.5421  161.0616 C   0  0  0  0  0  0  0  0  0  0  0  0
  147.0056  134.5977  161.9862 C   0  0  0  0  0  0  0  0  0  0  0  0
  147.6400  135.7963  161.6071 C   0  0  0  0  0  0  0  0  0  0  0  0
  148.1564  135.9604  160.3052 C   0  0  0  0  0  0  0  0  0  0  0  0
  148.7621  137.1653  160.0208 O   0  0  0  0  0  0  0  0  0  0  0  0
  149.5855  137.2507  158.8643 C   0  0  0  0  0  0  0  0  0  0  0  0
  149.5382  138.6764  158.2901 C   0  0  2  0  0  0  0  0  0  0  0  0
  148.8506  138.6598  157.0547 O   0  0  0  0  0  0  0  0  0  0  0  0
  150.9269  139.3359  158.1651 C   0  0  0  0  0  0  0  0  0  0  0  0
  150.8528  140.7836  157.9235 N   0  0  0  0  0  0  0  0  0  0  0  0
  150.0792  141.4794  157.0467 C   0  0  0  0  0  0  0  0  0  0  0  0
  150.3657  142.8015  157.2035 N   0  3  0  0  0  0  0  0  0  0  0  0
  151.3381  142.9535  158.1942 C   0  0  0  0  0  0  0  0  0  0  0  0
  151.9478  144.0956  158.7046 C   0  0  0  0  0  0  0  0  0  0  0  0
  152.9097  143.9007  159.7175 C   0  0  0  0  0  0  0  0  0  0  0  0
  153.2342  142.6102  160.1839 C   0  0  0  0  0  0  0  0  0  0  0  0
  152.6092  141.4595  159.6599 C   0  0  0  0  0  0  0  0  0  0  0  0
  151.6576  141.6603  158.6605 C   0  0  0  0  0  0  0  0  0  0  0  0
  148.0237  134.8953  159.3789 C   0  0  0  0  0  0  0  0  0  0  0  0
  147.3888  133.6962  159.7573 C   0  0  0  0  0  0  0  0  0  0  0  0
  145.9705  132.2314  162.5259 H   0  0  0  0  0  0  0  0  0  0  0  0
  146.8430  131.3970  161.2382 H   0  0  0  0  0  0  0  0  0  0  0  0
  145.2663  132.1271  160.9086 H   0  0  0  0  0  0  0  0  0  0  0  0
  146.6175  134.4938  162.9889 H   0  0  0  0  0  0  0  0  0  0  0  0
  147.7326  136.5990  162.3239 H   0  0  0  0  0  0  0  0  0  0  0  0
  150.6143  136.9664  159.0925 H   0  0  0  0  0  0  0  0  0  0  0  0
  149.2103  136.5584  158.1088 H   0  0  0  0  0  0  0  0  0  0  0  0
  148.9300  139.2816  158.9634 H   0  0  0  0  0  0  0  0  0  0  0  0
  147.9569  138.3952  157.2115 H   0  0  0  0  0  0  0  0  0  0  0  0
  151.4854  139.1947  159.0912 H   0  0  0  0  0  0  0  0  0  0  0  0
  151.5228  138.8741  157.3773 H   0  0  0  0  0  0  0  0  0  0  0  0
  149.3650  141.0589  156.3534 H   0  0  0  0  0  0  0  0  0  0  0  0
  151.7027  145.0852  158.3478 H   0  0  0  0  0  0  0  0  0  0  0  0
  153.4098  144.7579  160.1443 H   0  0  0  0  0  0  0  0  0  0  0  0
  153.9789  142.4997  160.9588 H   0  0  0  0  0  0  0  0  0  0  0  0
  152.8700  140.4751  160.0197 H   0  0  0  0  0  0  0  0  0  0  0  0
  148.4007  134.9719  158.3704 H   0  0  0  0  0  0  0  0  0  0  0  0
  147.2934  132.8932  159.0411 H   0  0  0  0  0  0  0  0  0  0  0  0
  149.9279  143.5433  156.6722 H   0  0  0  0  0  0  0  0  0  0  0  0
  1  2  1  0  0  0  0
  1 22  1  0  0  0  0
  1 23  1  0  0  0  0
  1 24  1  0  0  0  0
  2 21  1  0  0  0  0
  2  3  2  0  0  0  0
  3  4  1  0  0  0  0
  3 25  1  0  0  0  0
  4  5  2  0  0  0  0
  4 26  1  0  0  0  0
  5  6  1  0  0  0  0
  5 20  1  0  0  0  0
  6  7  1  0  0  0  0
  7  8  1  0  0  0  0
  7 27  1  0  0  0  0
  7 28  1  0  0  0  0
  8  9  1  0  0  0  0
  8 10  1  0  0  0  0
  8 29  1  0  0  0  0
  9 30  1  0  0  0  0
 10 11  1  0  0  0  0
 10 31  1  0  0  0  0
 10 32  1  0  0  0  0
 11 19  1  0  0  0  0
 11 12  1  0  0  0  0
 12 13  2  0  0  0  0
 12 33  1  0  0  0  0
 13 14  1  0  0  0  0
 13 40  1  0  0  0  0
 14 19  2  0  0  0  0
 14 15  1  0  0  0  0
 15 16  2  0  0  0  0
 15 34  1  0  0  0  0
 16 17  1  0  0  0  0
 16 35  1  0  0  0  0
 17 18  2  0  0  0  0
 17 36  1  0  0  0  0
 18 19  1  0  0  0  0
 18 37  1  0  0  0  0
 20 21  2  0  0  0  0
 20 38  1  0  0  0  0
 21 39  1  0  0  0  0
M  CHG  1  13   1
M  END
> <s_m_source_file>
AV-unprocessed.smi

> <i_m_source_file_index>
2195

> <i_lp_mmshare_version>
43012

> <i_f3d_flags>
0

> <s_epik_input>
W0NIM11jMVtjSF1bY0hdYyhbY0hdW2NIXTEpT1tDSDJdW0NASF0oW09IXSlbQ0gyXW4oW2NIXW4yKWMoYzIzKVtjSF1bY0hdW2NIXVtjSF0z

> <s_epik_cmdline>
J2VwaWtfcHl0aG9uJywgJy1waCcsICc3LjAnLCAnLXRuJywgJzgnLCAnLW1hJywgJzIwMCcsICctbWV0YWxfYmluZGluZycsICctaW1hZScsICc8aW5maWxlLm1hZT4nLCAnLW9tYWUnLCAnPG91dGZpbGUubWFlPic=

> <r_lp_tautomer_probability>
1

> <r_epik_Ionization_Penalty>
1.3774

> <r_epik_Ionization_Penalty_Charging>
1.37739

> <r_epik_Ionization_Penalty_Neutral>
2.3993e-06

> <r_epik_State_Penalty>
1.45762

> <r_epik_Charging_Adjusted_Penalty>
2.83501

> <i_epik_Tot_Q>
1

> <i_epik_Tot_abs_Q>
1

> <r_epik_Metal_State_Penalty>
5.49752

> <b_epik_Metal_Only>
0

> <s_lp_Force_Field>
OPLS_2005

> <r_lp_Energy>
21.3932

> <b_lp_Chiralities_Consistent>
1

> <s_lp_Variant>
AV-unprocessed.smi:2195-3

> <Gold.Version>
5.8.1

> <Gold.Id.Protein>
6NUR|6NUR_protein|mol2

> <Gold.PLP.Fitness>
52.1157

> <Gold.PLP.PLP>
-46.8006

> <Gold.PLP.part.hbond>
-3.0000

> <Gold.PLP.part.metal>
0.0000

> <Gold.PLP.part.buried>
-5.0119

> <Gold.PLP.part.nonpolar>
-39.9509

> <Gold.PLP.part.repulsive>
0.0542

> <Gold.PLP.ligand.clash>
0.0000

> <Gold.PLP.ligand.torsion>
1.3471

> <Gold.PLP.Chemscore.Hbond>
2.6520

> <Gold.PLP.Chemscore.CHOScore>
0.0000

> <Gold.PLP.Chemscore.Metal>
0.0000

> <Gold.Chemscore.Hbonds>
donor molecule, donor type, donor heavy atom, donor atom, acceptor molecule, acceptor atom, score
      L1  H    13    40       P1  8028  2.00
      P1  H  6931  6943       L1     6  0.35

> <Gold.PLP.Chemscore.Internal.Correction>
0.0533

> <Gold.Rescore>
     Score         DG    S(hbond)    S(metal)    S(lipo)     H(rot)  DE(clash)    DE(int)     intcor
     17.88     -19.15       1.49        0.00     124.00       2.27       0.04       1.23       ----

> <Gold.Chemscore.Fitness>
17.8825

> <Gold.Chemscore.DG>
-19.1511

> <Gold.Chemscore.ZeroCoef>
-5.4800

> <Gold.Chemscore.Hbond>
1.4910

> <Gold.Chemscore.Metal>
0.0000

> <Gold.Chemscore.Lipo>
124.0027

> <Gold.Chemscore.Internal_Hbond>
0.0000

> <Gold.Chemscore.DEClash>
0.0368

> <Gold.Chemscore.DEInternal>
1.2317

> <Gold.Chemscore.Rot>
2.2723

> <Gold.Chemscore.Internal.Correction>
   9.000000E+99

> <Gold.Chemscore.Hbonds>
donor molecule, donor type, donor heavy atom, donor atom, acceptor molecule, acceptor atom, score
      L1  H    13    40       P1  8028  1.00
      P1  H  6931  6943       L1     6  0.24

> <Gold.Chemscore.Hbond.Weighted>
-4.9798

> <Gold.Chemscore.Metal.Weighted>
-0.0000

> <Gold.Chemscore.Lipo.Weighted>
-14.5083

> <Gold.Chemscore.Internal_Hbond.Weighted>
0.0000

> <Gold.Chemscore.DEClash.Weighted>
0.0368

> <Gold.Chemscore.DEInternal.Weighted>
1.2317

> <Gold.Chemscore.Rot.Weighted>
5.8170

> <Gold.Chemscore.Internal.Correction.Weighted>
   9.000000E+99

> <Gold.Protein.RotatedTorsions>
[ 6907 6896 6895 6894 ] final -129.18 input  -60.11 | X-H torsion
[ 7974 7965 7964 7962 ] final   18.71 input  175.53 | X-H torsion
[ 8008 7997 7996 7995 ] final   95.32 input   59.86 | X-H torsion
[ 10167 10162 10161 10158 ] final -154.04 input  -65.29 | X-H torsion
[ 10718 10713 10712 10709 ] final  -24.16 input   66.30 | X-H torsion
[ 10763 10752 10751 10750 ] final   73.19 input  -60.55 | X-H torsion
[ 11005 11000 10999 10996 ] final  137.64 input  -57.11 | X-H torsion

> <Gold.Protein.ActiveResidues>
 VAL166  LYS551  ARG553  GLY616  TRP617  ASP618  TYR619  PRO620  LYS621  CYS622 
 ASP623  PHE694  ASN695  SER759  ASP760  ASP761  ALA762  ILE779  LEU786  VAL792 
 PHE793  MET794  SER795  GLU796  ALA797  LYS798  CYS799  TRP800  GLU811  SER814 

> <Gold.Protein.RotatedAtoms>
  150.9259  133.6824  159.2821 H   0  0  0  0  0  0  0  0  0  0  0  0  # atno 6907 bound_to 6896
  151.4263  135.1003  159.9638 H   0  0  0  0  0  0  0  0  0  0  0  0  # atno 6908 bound_to 6896
  152.5002  133.8700  159.7348 H   0  0  0  0  0  0  0  0  0  0  0  0  # atno 6909 bound_to 6896
  146.2175  139.8418  142.8639 H   0  0  0  0  0  0  0  0  0  0  0  0  # atno 7974 bound_to 7965
  156.0676  140.3288  155.7536 H   0  0  0  0  0  0  0  0  0  0  0  0  # atno 8008 bound_to 7997
  155.5357  140.0597  157.2897 H   0  0  0  0  0  0  0  0  0  0  0  0  # atno 8009 bound_to 7997
  154.4513  140.1919  156.0529 H   0  0  0  0  0  0  0  0  0  0  0  0  # atno 8010 bound_to 7997
  139.7046  143.9207  152.2443 H   0  0  0  0  0  0  0  0  0  0  0  0  # atno 10167 bound_to 10162
  156.4814  130.4546  149.6809 H   0  0  0  0  0  0  0  0  0  0  0  0  # atno 10718 bound_to 10713
  153.0506  135.5072  154.7857 H   0  0  0  0  0  0  0  0  0  0  0  0  # atno 10763 bound_to 10752
  154.6722  135.2955  154.9729 H   0  0  0  0  0  0  0  0  0  0  0  0  # atno 10764 bound_to 10752
  154.0543  135.6699  153.4856 H   0  0  0  0  0  0  0  0  0  0  0  0  # atno 10765 bound_to 10752
  140.0128  134.9431  157.0313 H   0  0  0  0  0  0  0  0  0  0  0  0  # atno 11005 bound_to 11000
  145.2891  141.0162  143.3673 LP  0  0  0  0  0  0  0  0  0  0  0  0  # atno 17320 bound_to 7965
  144.9091  139.4552  143.6596 LP  0  0  0  0  0  0  0  0  0  0  0  0  # atno 17321 bound_to 7965
  139.9059  144.6885  150.8614 LP  0  0  0  0  0  0  0  0  0  0  0  0  # atno 17342 bound_to 10162
  140.7718  143.3479  151.2074 LP  0  0  0  0  0  0  0  0  0  0  0  0  # atno 17343 bound_to 10162
  156.3518  130.7436  151.2396 LP  0  0  0  0  0  0  0  0  0  0  0  0  # atno 17370 bound_to 10713
  157.7483  131.0375  150.4458 LP  0  0  0  0  0  0  0  0  0  0  0  0  # atno 17371 bound_to 10713
  140.4524  134.1569  155.7183 LP  0  0  0  0  0  0  0  0  0  0  0  0  # atno 17394 bound_to 11000
  141.1722  133.8585  157.1533 LP  0  0  0  0  0  0  0  0  0  0  0  0  # atno 17395 bound_to 11000

$$$$
