AV-unprocessed.smi:3117|AV-procd|sdf|11878|dock1
  -GOLD-   2272017263D 1   1.00000     0.00000
 Structure written by MMmdl.
 37 37  0  0  0  0  0  0  0  0  2 V2000
  151.7053  140.9200  157.4334 C   0  0  0  0  0  0  0  0  0  0  0  0
  150.5634  141.9521  157.3751 C   0  0  2  0  0  0  0  0  0  0  0  0
  149.9715  141.9700  156.0173 N   0  3  0  0  0  0  0  0  0  0  0  0
  149.0112  140.8850  155.7213 C   0  0  0  0  0  0  0  0  0  0  0  0
  148.4264  141.0078  154.2984 C   0  0  0  0  0  0  0  0  0  0  0  0
  147.6450  139.7354  153.9312 C   0  0  0  0  0  0  0  0  0  0  0  0
  147.5289  142.2503  154.1418 C   0  0  0  0  0  0  0  0  0  0  0  0
  149.4991  141.1095  153.3821 O   0  0  0  0  0  0  0  0  0  0  0  0
  151.0247  143.3819  157.7601 C   0  0  2  0  0  0  0  0  0  0  0  0
  151.9798  144.0189  156.7328 C   0  0  0  0  0  0  0  0  0  0  0  0
  151.6437  143.3831  159.0821 N   0  0  0  0  0  0  0  0  0  0  0  0
  151.2831  144.0964  160.2087 C   0  0  0  0  0  0  0  0  0  0  0  0
  152.1901  143.8033  161.1862 C   0  0  0  0  0  0  0  0  0  0  0  0
  153.0874  142.8983  160.5547 C   0  0  0  0  0  0  0  0  0  0  0  0
  152.7640  142.6575  159.2947 N   0  0  0  0  0  0  0  0  0  0  0  0
  152.1049  140.8186  158.4420 H   0  0  0  0  0  0  0  0  0  0  0  0
  152.5275  141.2009  156.7745 H   0  0  0  0  0  0  0  0  0  0  0  0
  151.3659  139.9288  157.1339 H   0  0  0  0  0  0  0  0  0  0  0  0
  149.7884  141.6512  158.0820 H   0  0  0  0  0  0  0  0  0  0  0  0
  149.4659  142.8401  155.9254 H   0  0  0  0  0  0  0  0  0  0  0  0
  149.5051  139.9207  155.8443 H   0  0  0  0  0  0  0  0  0  0  0  0
  148.1993  140.9198  156.4492 H   0  0  0  0  0  0  0  0  0  0  0  0
  146.7971  139.5869  154.6007 H   0  0  0  0  0  0  0  0  0  0  0  0
  148.2745  138.8472  153.9971 H   0  0  0  0  0  0  0  0  0  0  0  0
  147.2541  139.7861  152.9141 H   0  0  0  0  0  0  0  0  0  0  0  0
  146.6964  142.2250  154.8458 H   0  0  0  0  0  0  0  0  0  0  0  0
  147.1070  142.3097  153.1378 H   0  0  0  0  0  0  0  0  0  0  0  0
  148.0783  143.1761  154.3162 H   0  0  0  0  0  0  0  0  0  0  0  0
  149.4239  140.4104  152.7499 H   0  0  0  0  0  0  0  0  0  0  0  0
  150.1413  144.0215  157.8122 H   0  0  0  0  0  0  0  0  0  0  0  0
  151.4837  144.1978  155.7793 H   0  0  0  0  0  0  0  0  0  0  0  0
  152.8472  143.3862  156.5430 H   0  0  0  0  0  0  0  0  0  0  0  0
  152.3434  144.9849  157.0849 H   0  0  0  0  0  0  0  0  0  0  0  0
  150.4222  144.7482  160.2216 H   0  0  0  0  0  0  0  0  0  0  0  0
  152.2114  144.1807  162.1979 H   0  0  0  0  0  0  0  0  0  0  0  0
  153.9613  142.4176  160.9693 H   0  0  0  0  0  0  0  0  0  0  0  0
  150.7098  141.9615  155.3278 H   0  0  0  0  0  0  0  0  0  0  0  0
  1  2  1  0  0  0  0
  1 16  1  0  0  0  0
  1 17  1  0  0  0  0
  1 18  1  0  0  0  0
  2  3  1  0  0  0  0
  2  9  1  0  0  0  0
  2 19  1  0  0  0  0
  3  4  1  0  0  0  0
  3 20  1  0  0  0  0
  3 37  1  0  0  0  0
  4  5  1  0  0  0  0
  4 21  1  0  0  0  0
  4 22  1  0  0  0  0
  5  6  1  0  0  0  0
  5  7  1  0  0  0  0
  5  8  1  0  0  0  0
  6 23  1  0  0  0  0
  6 24  1  0  0  0  0
  6 25  1  0  0  0  0
  7 26  1  0  0  0  0
  7 27  1  0  0  0  0
  7 28  1  0  0  0  0
  8 29  1  0  0  0  0
  9 10  1  0  0  0  0
  9 11  1  0  0  0  0
  9 30  1  0  0  0  0
 10 31  1  0  0  0  0
 10 32  1  0  0  0  0
 10 33  1  0  0  0  0
 11 15  1  0  0  0  0
 11 12  1  0  0  0  0
 12 13  2  0  0  0  0
 12 34  1  0  0  0  0
 13 14  1  0  0  0  0
 13 35  1  0  0  0  0
 14 15  2  0  0  0  0
 14 36  1  0  0  0  0
M  CHG  1   3   1
M  END
> <s_m_source_file>
AV-unprocessed.smi

> <i_m_source_file_index>
3117

> <i_lp_mmshare_version>
43012

> <i_f3d_flags>
0

> <s_epik_input>
W0NIM11DKFtDSDNdKShbT0hdKVtDSDJdW05IXVtDQEBIXShbQ0gzXSlbQ0BIXShbQ0gzXSluMVtjSF1bY0hdW2NIXW4x

> <s_epik_cmdline>
J2VwaWtfcHl0aG9uJywgJy1waCcsICc3LjAnLCAnLXRuJywgJzgnLCAnLW1hJywgJzIwMCcsICctbWV0YWxfYmluZGluZycsICctaW1hZScsICc8aW5maWxlLm1hZT4nLCAnLW9tYWUnLCAnPG91dGZpbGUubWFlPic=

> <r_lp_tautomer_probability>
1

> <r_epik_Ionization_Penalty>
0.0164263

> <r_epik_Ionization_Penalty_Charging>
0.0164138

> <r_epik_Ionization_Penalty_Neutral>
1.24697e-05

> <r_epik_State_Penalty>
0.0129543

> <r_epik_Charging_Adjusted_Penalty>
0.0293681

> <i_epik_Tot_Q>
1

> <i_epik_Tot_abs_Q>
1

> <r_epik_Metal_State_Penalty>
0.0129806

> <b_epik_Metal_Only>
0

> <s_lp_Force_Field>
OPLS_2005

> <r_lp_Energy>
12.2787

> <b_lp_Chiralities_Consistent>
1

> <s_lp_Variant>
AV-unprocessed.smi:3117-1

> <Gold.Version>
5.8.1

> <Gold.Id.Protein>
6NUR|6NUR_protein|mol2

> <Gold.PLP.Fitness>
45.2814

> <Gold.PLP.PLP>
-33.9774

> <Gold.PLP.part.hbond>
-3.7561

> <Gold.PLP.part.metal>
0.0000

> <Gold.PLP.part.buried>
-4.6857

> <Gold.PLP.part.nonpolar>
-25.8284

> <Gold.PLP.part.repulsive>
0.1068

> <Gold.PLP.ligand.clash>
0.0000

> <Gold.PLP.ligand.torsion>
0.3492

> <Gold.PLP.Chemscore.Hbond>
3.9515

> <Gold.PLP.Chemscore.CHOScore>
0.0000

> <Gold.PLP.Chemscore.Metal>
0.0000

> <Gold.Chemscore.Hbonds>
donor molecule, donor type, donor heavy atom, donor atom, acceptor molecule, acceptor atom, score
      L1  H     3    20       P1  8028  2.00
      L1  H     8    29       P1  7957  0.86
      P1  H  7989  7998       L1     8  0.09
      P1  H  8011  8017       L1     8  0.95

> <Gold.PLP.Chemscore.Internal.Correction>
0.1478

> <Gold.Rescore>
     Score         DG    S(hbond)    S(metal)    S(lipo)     H(rot)  DE(clash)    DE(int)     intcor
     15.63     -18.96       2.35        0.00      97.88       2.27       1.49       1.84       ----

> <Gold.Chemscore.Fitness>
15.6272

> <Gold.Chemscore.DG>
-18.9609

> <Gold.Chemscore.ZeroCoef>
-5.4800

> <Gold.Chemscore.Hbond>
2.3492

> <Gold.Chemscore.Metal>
0.0000

> <Gold.Chemscore.Lipo>
97.8812

> <Gold.Chemscore.Internal_Hbond>
0.0000

> <Gold.Chemscore.DEClash>
1.4890

> <Gold.Chemscore.DEInternal>
1.8446

> <Gold.Chemscore.Rot>
2.2725

> <Gold.Chemscore.Internal.Correction>
   9.000000E+99

> <Gold.Chemscore.Hbonds>
donor molecule, donor type, donor heavy atom, donor atom, acceptor molecule, acceptor atom, score
      L1  H     3    20       P1  8028  0.97
      L1  H     8    29       P1  7957  0.85
      P1  H  7989  7998       L1     8  0.01
      P1  H  8011  8017       L1     8  0.21

> <Gold.Chemscore.Hbond.Weighted>
-7.8464

> <Gold.Chemscore.Metal.Weighted>
-0.0000

> <Gold.Chemscore.Lipo.Weighted>
-11.4521

> <Gold.Chemscore.Internal_Hbond.Weighted>
0.0000

> <Gold.Chemscore.DEClash.Weighted>
1.4890

> <Gold.Chemscore.DEInternal.Weighted>
1.8446

> <Gold.Chemscore.Rot.Weighted>
5.8176

> <Gold.Chemscore.Internal.Correction.Weighted>
   9.000000E+99

> <Gold.Protein.RotatedTorsions>
[ 6907 6896 6895 6894 ] final  148.30 input  -60.11 | X-H torsion
[ 7974 7965 7964 7962 ] final  -86.02 input  175.53 | X-H torsion
[ 8008 7997 7996 7995 ] final  144.83 input   59.86 | X-H torsion
[ 10167 10162 10161 10158 ] final  102.80 input  -65.29 | X-H torsion
[ 10718 10713 10712 10709 ] final   71.36 input   66.30 | X-H torsion
[ 10763 10752 10751 10750 ] final -152.43 input  -60.55 | X-H torsion
[ 11005 11000 10999 10996 ] final    8.25 input  -57.11 | X-H torsion

> <Gold.Protein.ActiveResidues>
 VAL166  LYS551  ARG553  GLY616  TRP617  ASP618  TYR619  PRO620  LYS621  CYS622 
 ASP623  PHE694  ASN695  SER759  ASP760  ASP761  ALA762  ILE779  LEU786  VAL792 
 PHE793  MET794  SER795  GLU796  ALA797  LYS798  CYS799  TRP800  GLU811  SER814 

> <Gold.Protein.RotatedAtoms>
  152.1434  133.4477  159.4777 H   0  0  0  0  0  0  0  0  0  0  0  0  # atno 6907 bound_to 6896
  150.6888  134.2278  159.4431 H   0  0  0  0  0  0  0  0  0  0  0  0  # atno 6908 bound_to 6896
  152.0170  134.9844  160.0620 H   0  0  0  0  0  0  0  0  0  0  0  0  # atno 6909 bound_to 6896
  145.4855  140.9555  143.1841 H   0  0  0  0  0  0  0  0  0  0  0  0  # atno 7974 bound_to 7965
  156.2898  140.2225  156.5117 H   0  0  0  0  0  0  0  0  0  0  0  0  # atno 8008 bound_to 7997
  154.7603  140.0474  157.0990 H   0  0  0  0  0  0  0  0  0  0  0  0  # atno 8009 bound_to 7997
  154.9999  140.3100  155.4875 H   0  0  0  0  0  0  0  0  0  0  0  0  # atno 8010 bound_to 7997
  139.7318  144.7034  151.0710 H   0  0  0  0  0  0  0  0  0  0  0  0  # atno 10167 bound_to 10162
  157.6447  130.9524  150.0778 H   0  0  0  0  0  0  0  0  0  0  0  0  # atno 10718 bound_to 10713
  154.7994  135.3236  154.7587 H   0  0  0  0  0  0  0  0  0  0  0  0  # atno 10763 bound_to 10752
  153.8258  135.6883  153.4825 H   0  0  0  0  0  0  0  0  0  0  0  0  # atno 10764 bound_to 10752
  153.1703  135.4626  154.9836 H   0  0  0  0  0  0  0  0  0  0  0  0  # atno 10765 bound_to 10752
  140.5391  134.0392  155.7898 H   0  0  0  0  0  0  0  0  0  0  0  0  # atno 11005 bound_to 11000
  144.7864  139.6419  143.7132 LP  0  0  0  0  0  0  0  0  0  0  0  0  # atno 17320 bound_to 7965
  146.2315  139.5823  142.9552 LP  0  0  0  0  0  0  0  0  0  0  0  0  # atno 17321 bound_to 7965
  140.7772  143.5033  150.9743 LP  0  0  0  0  0  0  0  0  0  0  0  0  # atno 17342 bound_to 10162
  139.8721  143.7179  152.3165 LP  0  0  0  0  0  0  0  0  0  0  0  0  # atno 17343 bound_to 10162
  156.1763  130.3648  149.9096 LP  0  0  0  0  0  0  0  0  0  0  0  0  # atno 17370 bound_to 10713
  156.7059  130.8951  151.3604 LP  0  0  0  0  0  0  0  0  0  0  0  0  # atno 17371 bound_to 10713
  141.1237  133.9418  157.2677 LP  0  0  0  0  0  0  0  0  0  0  0  0  # atno 17394 bound_to 11000
  139.9513  135.0175  156.9003 LP  0  0  0  0  0  0  0  0  0  0  0  0  # atno 17395 bound_to 11000

$$$$
