AV-unprocessed.smi:456|AV-procd|sdf|2617|dock5
  -GOLD-   2262023 13D 1   1.00000     0.00000
 Structure written by MMmdl.
 33 35  0  0  0  0  0  0  0  0  2 V2000
  151.6680  137.2052  154.1002 O   0  0  0  0  0  0  0  0  0  0  0  0
  151.0046  138.4121  154.4124 C   0  0  2  0  0  0  0  0  0  0  0  0
  151.5667  138.9360  155.7489 C   0  0  0  0  0  0  0  0  0  0  0  0
  151.0944  140.2892  156.0682 N   0  0  0  0  0  0  0  0  0  0  0  0
  150.2328  141.0966  155.3916 C   0  0  0  0  0  0  0  0  0  0  0  0
  150.1244  142.2595  156.0924 N   0  3  0  0  0  0  0  0  0  0  0  0
  150.9266  142.1927  157.2341 C   0  0  0  0  0  0  0  0  0  0  0  0
  151.1482  143.1174  158.2497 C   0  0  0  0  0  0  0  0  0  0  0  0
  152.0351  142.7327  159.2768 C   0  0  0  0  0  0  0  0  0  0  0  0
  152.2859  143.5950  160.2902 F   0  0  0  0  0  0  0  0  0  0  0  0
  152.6652  141.4698  159.2680 C   0  0  0  0  0  0  0  0  0  0  0  0
  153.5113  141.1412  160.2728 F   0  0  0  0  0  0  0  0  0  0  0  0
  152.4323  140.5404  158.2329 C   0  0  0  0  0  0  0  0  0  0  0  0
  151.5532  140.9293  157.2236 C   0  0  0  0  0  0  0  0  0  0  0  0
  149.4918  138.2457  154.4494 C   0  0  0  0  0  0  0  0  0  0  0  0
  148.6555  139.0984  153.6955 C   0  0  0  0  0  0  0  0  0  0  0  0
  147.2577  138.9282  153.7239 C   0  0  0  0  0  0  0  0  0  0  0  0
  146.6882  137.9032  154.5033 C   0  0  0  0  0  0  0  0  0  0  0  0
  147.5172  137.0478  155.2539 C   0  0  0  0  0  0  0  0  0  0  0  0
  148.9149  137.2183  155.2268 C   0  0  0  0  0  0  0  0  0  0  0  0
  151.3510  136.8959  153.2651 H   0  0  0  0  0  0  0  0  0  0  0  0
  151.2576  139.1149  153.6176 H   0  0  0  0  0  0  0  0  0  0  0  0
  151.2775  138.2805  156.5718 H   0  0  0  0  0  0  0  0  0  0  0  0
  152.6575  138.9517  155.7358 H   0  0  0  0  0  0  0  0  0  0  0  0
  149.7322  140.8597  154.4634 H   0  0  0  0  0  0  0  0  0  0  0  0
  150.6692  144.0853  158.2600 H   0  0  0  0  0  0  0  0  0  0  0  0
  152.9194  139.5766  158.2349 H   0  0  0  0  0  0  0  0  0  0  0  0
  149.0835  139.8846  153.0907 H   0  0  0  0  0  0  0  0  0  0  0  0
  146.6226  139.5840  153.1466 H   0  0  0  0  0  0  0  0  0  0  0  0
  145.6162  137.7730  154.5249 H   0  0  0  0  0  0  0  0  0  0  0  0
  147.0808  136.2604  155.8507 H   0  0  0  0  0  0  0  0  0  0  0  0
  149.5430  136.5539  155.8020 H   0  0  0  0  0  0  0  0  0  0  0  0
  149.5444  143.0391  155.8091 H   0  0  0  0  0  0  0  0  0  0  0  0
  1  2  1  0  0  0  0
  1 21  1  0  0  0  0
  2  3  1  0  0  0  0
  2 15  1  0  0  0  0
  2 22  1  0  0  0  0
  3  4  1  0  0  0  0
  3 23  1  0  0  0  0
  3 24  1  0  0  0  0
  4 14  1  0  0  0  0
  4  5  1  0  0  0  0
  5  6  2  0  0  0  0
  5 25  1  0  0  0  0
  6  7  1  0  0  0  0
  6 33  1  0  0  0  0
  7 14  2  0  0  0  0
  7  8  1  0  0  0  0
  8  9  2  0  0  0  0
  8 26  1  0  0  0  0
  9 10  1  0  0  0  0
  9 11  1  0  0  0  0
 11 12  1  0  0  0  0
 11 13  2  0  0  0  0
 13 14  1  0  0  0  0
 13 27  1  0  0  0  0
 15 20  1  0  0  0  0
 15 16  2  0  0  0  0
 16 17  1  0  0  0  0
 16 28  1  0  0  0  0
 17 18  2  0  0  0  0
 17 29  1  0  0  0  0
 18 19  1  0  0  0  0
 18 30  1  0  0  0  0
 19 20  2  0  0  0  0
 19 31  1  0  0  0  0
 20 32  1  0  0  0  0
M  CHG  1   6   1
M  END
> <s_m_source_file>
AV-unprocessed.smi

> <i_m_source_file_index>
456

> <i_lp_mmshare_version>
43012

> <i_f3d_flags>
0

> <s_epik_input>
W2NIXTFbY0hdW2NIXVtjSF1bY0hdYzFbQ0BIXShbT0hdKVtDSDJdbihbY0hdbjIpYyhjMjMpW2NIXWMoRiljKEYpW2NIXTM=

> <s_epik_cmdline>
J2VwaWtfcHl0aG9uJywgJy1waCcsICc3LjAnLCAnLXRuJywgJzgnLCAnLW1hJywgJzIwMCcsICctbWV0YWxfYmluZGluZycsICctaW1hZScsICc8aW5maWxlLm1hZT4nLCAnLW9tYWUnLCAnPG91dGZpbGUubWFlPic=

> <r_epik_Ionization_Penalty>
2.16139

> <r_epik_Ionization_Penalty_Charging>
2.16138

> <r_epik_Ionization_Penalty_Neutral>
1.34362e-06

> <r_epik_State_Penalty>
2.30198

> <r_epik_Charging_Adjusted_Penalty>
4.46337

> <i_epik_Tot_Q>
1

> <i_epik_Tot_abs_Q>
1

> <r_epik_Metal_State_Penalty>
6.38245

> <b_epik_Metal_Only>
0

> <s_lp_Force_Field>
OPLS_2005

> <r_lp_Energy>
16.094

> <b_lp_Chiralities_Consistent>
1

> <s_lp_Variant>
AV-unprocessed.smi:456-3

> <Gold.Version>
5.8.1

> <Gold.Id.Protein>
6NUR|6NUR_protein|mol2

> <Gold.PLP.Fitness>
50.3861

> <Gold.PLP.PLP>
-39.3552

> <Gold.PLP.part.hbond>
-3.0000

> <Gold.PLP.part.metal>
0.0000

> <Gold.PLP.part.buried>
-3.1724

> <Gold.PLP.part.nonpolar>
-33.8962

> <Gold.PLP.part.repulsive>
0.1103

> <Gold.PLP.ligand.clash>
0.0000

> <Gold.PLP.ligand.torsion>
0.1807

> <Gold.PLP.Chemscore.Hbond>
3.7930

> <Gold.PLP.Chemscore.CHOScore>
0.0000

> <Gold.PLP.Chemscore.Metal>
0.0000

> <Gold.Chemscore.Hbonds>
donor molecule, donor type, donor heavy atom, donor atom, acceptor molecule, acceptor atom, score
      L1  H     1    21       P1  7949  1.00
      L1  H     6    33       P1  8028  2.00
      P1  H 10752 10763       L1     1  0.74

> <Gold.PLP.Chemscore.Internal.Correction>
0.0133

> <Gold.Rescore>
     Score         DG    S(hbond)    S(metal)    S(lipo)     H(rot)  DE(clash)    DE(int)     intcor
     16.73     -17.10       2.04        0.00      85.51       2.03       0.25       0.12       ----

> <Gold.Chemscore.Fitness>
16.7295

> <Gold.Chemscore.DG>
-17.1008

> <Gold.Chemscore.ZeroCoef>
-5.4800

> <Gold.Chemscore.Hbond>
2.0365

> <Gold.Chemscore.Metal>
0.0000

> <Gold.Chemscore.Lipo>
85.5073

> <Gold.Chemscore.Internal_Hbond>
0.0000

> <Gold.Chemscore.DEClash>
0.2474

> <Gold.Chemscore.DEInternal>
0.1238

> <Gold.Chemscore.Rot>
2.0256

> <Gold.Chemscore.Internal.Correction>
   9.000000E+99

> <Gold.Chemscore.Hbonds>
donor molecule, donor type, donor heavy atom, donor atom, acceptor molecule, acceptor atom, score
      L1  H     1    21       P1  7949  0.71
      L1  H     6    33       P1  8028  1.00
      P1  H 10752 10763       L1     1  0.08

> <Gold.Chemscore.Hbond.Weighted>
-6.8019

> <Gold.Chemscore.Metal.Weighted>
-0.0000

> <Gold.Chemscore.Lipo.Weighted>
-10.0044

> <Gold.Chemscore.Internal_Hbond.Weighted>
0.0000

> <Gold.Chemscore.DEClash.Weighted>
0.2474

> <Gold.Chemscore.DEInternal.Weighted>
0.1238

> <Gold.Chemscore.Rot.Weighted>
5.1855

> <Gold.Chemscore.Internal.Correction.Weighted>
   9.000000E+99

> <Gold.Protein.RotatedTorsions>
[ 6907 6896 6895 6894 ] final  114.31 input  -60.11 | X-H torsion
[ 7974 7965 7964 7962 ] final   10.35 input  175.53 | X-H torsion
[ 8008 7997 7996 7995 ] final  -71.03 input   59.86 | X-H torsion
[ 10167 10162 10161 10158 ] final    3.58 input  -65.29 | X-H torsion
[ 10718 10713 10712 10709 ] final  -63.02 input   66.30 | X-H torsion
[ 10763 10752 10751 10750 ] final   50.24 input  -60.55 | X-H torsion
[ 11005 11000 10999 10996 ] final  -43.50 input  -57.11 | X-H torsion

> <Gold.Protein.ActiveResidues>
 VAL166  LYS551  ARG553  GLY616  TRP617  ASP618  TYR619  PRO620  LYS621  CYS622 
 ASP623  PHE694  ASN695  SER759  ASP760  ASP761  ALA762  ILE779  LEU786  VAL792 
 PHE793  MET794  SER795  GLU796  ALA797  LYS798  CYS799  TRP800  GLU811  SER814 

> <Gold.Protein.RotatedAtoms>
  152.4810  133.8253  159.7074 H   0  0  0  0  0  0  0  0  0  0  0  0  # atno 6907 bound_to 6896
  150.8859  133.7299  159.2925 H   0  0  0  0  0  0  0  0  0  0  0  0  # atno 6908 bound_to 6896
  151.4788  135.1054  159.9824 H   0  0  0  0  0  0  0  0  0  0  0  0  # atno 6909 bound_to 6896
  146.2389  139.9646  142.8454 H   0  0  0  0  0  0  0  0  0  0  0  0  # atno 7974 bound_to 7965
  154.5057  140.0823  156.7888 H   0  0  0  0  0  0  0  0  0  0  0  0  # atno 8008 bound_to 7997
  155.3900  140.3432  155.4233 H   0  0  0  0  0  0  0  0  0  0  0  0  # atno 8009 bound_to 7997
  156.1512  140.1559  156.8754 H   0  0  0  0  0  0  0  0  0  0  0  0  # atno 8010 bound_to 7997
  140.6579  143.7381  150.7685 H   0  0  0  0  0  0  0  0  0  0  0  0  # atno 10167 bound_to 10162
  156.0818  130.4216  150.1217 H   0  0  0  0  0  0  0  0  0  0  0  0  # atno 10718 bound_to 10713
  152.9785  135.5885  154.4221 H   0  0  0  0  0  0  0  0  0  0  0  0  # atno 10763 bound_to 10752
  154.3844  135.2767  155.2194 H   0  0  0  0  0  0  0  0  0  0  0  0  # atno 10764 bound_to 10752
  154.4094  135.6085  153.5998 H   0  0  0  0  0  0  0  0  0  0  0  0  # atno 10765 bound_to 10752
  141.0388  133.6789  156.2741 H   0  0  0  0  0  0  0  0  0  0  0  0  # atno 11005 bound_to 11000
  145.1738  140.9734  143.4306 LP  0  0  0  0  0  0  0  0  0  0  0  0  # atno 17320 bound_to 7965
  145.0004  139.3604  143.6170 LP  0  0  0  0  0  0  0  0  0  0  0  0  # atno 17321 bound_to 7965
  140.1044  143.4758  152.2407 LP  0  0  0  0  0  0  0  0  0  0  0  0  # atno 17342 bound_to 10162
  139.5805  144.7508  151.3652 LP  0  0  0  0  0  0  0  0  0  0  0  0  # atno 17343 bound_to 10162
  156.9247  130.9694  151.3543 LP  0  0  0  0  0  0  0  0  0  0  0  0  # atno 17370 bound_to 10713
  157.5937  130.8462  149.8697 LP  0  0  0  0  0  0  0  0  0  0  0  0  # atno 17371 bound_to 10713
  140.6273  134.5300  157.5555 LP  0  0  0  0  0  0  0  0  0  0  0  0  # atno 17394 bound_to 11000
  139.9260  134.8055  156.1068 LP  0  0  0  0  0  0  0  0  0  0  0  0  # atno 17395 bound_to 11000

$$$$
