AV-unprocessed.smi:1900|AV-procd|sdf|7713|dock2
  -GOLD-   22720 9453D 1   1.00000     0.00000
 Structure written by MMmdl.
 43 44  0  0  0  0  0  0  0  0  1 V2000
  151.8818  140.9200  157.9994 C   0  0  0  0  0  0  0  0  0  0  0  0
  151.8827  140.3313  156.5850 C   0  0  2  0  0  0  0  0  0  0  0  0
  150.5466  140.5691  155.8582 C   0  0  0  0  0  0  0  0  0  0  0  0
  150.5207  139.9335  154.5479 N   0  0  0  0  0  0  0  0  0  0  0  0
  149.2704  140.2197  153.8442 C   0  0  0  0  0  0  0  0  0  0  0  0
  148.0454  139.4224  154.3284 C   0  0  0  0  0  0  0  0  0  0  0  0
  146.9489  139.2936  153.2558 C   0  0  0  0  0  0  0  0  0  0  0  0
  146.9818  137.9873  152.6089 N   0  0  0  0  0  0  0  0  0  0  0  0
  145.8970  137.2799  152.2610 C   0  0  0  0  0  0  0  0  0  0  0  0
  144.7434  137.6672  152.4485 O   0  0  0  0  0  0  0  0  0  0  0  0
  146.2366  136.1135  151.6886 N   0  0  0  0  0  0  0  0  0  0  0  0
  145.3610  135.1136  151.1961 C   0  0  0  0  0  0  0  0  0  0  0  0
  145.5579  133.7039  151.1100 C   0  0  0  0  0  0  0  0  0  0  0  0
  144.4984  133.1027  150.5871 N   0  0  0  0  0  0  0  0  0  0  0  0
  143.6313  134.1100  150.3396 N   0  0  0  0  0  0  0  0  0  0  0  0
  144.1161  135.3496  150.6943 C   0  0  0  0  0  0  0  0  0  0  0  0
  150.7678  138.5022  154.7079 C   0  0  0  0  0  0  0  0  0  0  0  0
  152.0828  138.2089  155.4564 C   0  0  1  0  0  0  0  0  0  0  0  0
  153.3353  138.4665  154.6011 C   0  0  0  0  0  0  0  0  0  0  0  0
  152.1233  138.9290  156.6899 O   0  0  0  0  0  0  0  0  0  0  0  0
  142.7230  133.9369  149.9330 H   0  0  0  0  0  0  0  0  0  0  0  0
  151.7092  141.9962  157.9770 H   0  0  0  0  0  0  0  0  0  0  0  0
  152.8380  140.7468  158.4933 H   0  0  0  0  0  0  0  0  0  0  0  0
  151.1027  140.4683  158.6138 H   0  0  0  0  0  0  0  0  0  0  0  0
  152.6917  140.7959  156.0206 H   0  0  0  0  0  0  0  0  0  0  0  0
  149.7251  140.1895  156.4681 H   0  0  0  0  0  0  0  0  0  0  0  0
  150.3844  141.6421  155.7503 H   0  0  0  0  0  0  0  0  0  0  0  0
  149.0516  141.2863  153.9111 H   0  0  0  0  0  0  0  0  0  0  0  0
  149.4040  140.0101  152.7820 H   0  0  0  0  0  0  0  0  0  0  0  0
  148.3499  138.4379  154.6826 H   0  0  0  0  0  0  0  0  0  0  0  0
  147.6267  139.9262  155.2000 H   0  0  0  0  0  0  0  0  0  0  0  0
  145.9672  139.4275  153.7103 H   0  0  0  0  0  0  0  0  0  0  0  0
  147.0496  140.0770  152.5024 H   0  0  0  0  0  0  0  0  0  0  0  0
  147.8919  137.5948  152.4174 H   0  0  0  0  0  0  0  0  0  0  0  0
  147.2230  135.9209  151.5947 H   0  0  0  0  0  0  0  0  0  0  0  0
  146.4070  133.1030  151.3990 H   0  0  0  0  0  0  0  0  0  0  0  0
  143.5494  136.2595  150.5626 H   0  0  0  0  0  0  0  0  0  0  0  0
  149.9397  138.0508  155.2562 H   0  0  0  0  0  0  0  0  0  0  0  0
  150.8025  138.0069  153.7383 H   0  0  0  0  0  0  0  0  0  0  0  0
  152.0897  137.1507  155.7190 H   0  0  0  0  0  0  0  0  0  0  0  0
  153.3385  137.8274  153.7178 H   0  0  0  0  0  0  0  0  0  0  0  0
  154.2432  138.2548  155.1659 H   0  0  0  0  0  0  0  0  0  0  0  0
  153.3893  139.4981  154.2541 H   0  0  0  0  0  0  0  0  0  0  0  0
  1  2  1  0  0  0  0
  1 22  1  0  0  0  0
  1 23  1  0  0  0  0
  1 24  1  0  0  0  0
  2 20  1  0  0  0  0
  2  3  1  0  0  0  0
  2 25  1  0  0  0  0
  3  4  1  0  0  0  0
  3 26  1  0  0  0  0
  3 27  1  0  0  0  0
  4  5  1  0  0  0  0
  4 17  1  0  0  0  0
  5  6  1  0  0  0  0
  5 28  1  0  0  0  0
  5 29  1  0  0  0  0
  6  7  1  0  0  0  0
  6 30  1  0  0  0  0
  6 31  1  0  0  0  0
  7  8  1  0  0  0  0
  7 32  1  0  0  0  0
  7 33  1  0  0  0  0
  8  9  1  0  0  0  0
  8 34  1  0  0  0  0
  9 10  2  0  0  0  0
  9 11  1  0  0  0  0
 11 12  1  0  0  0  0
 11 35  1  0  0  0  0
 12 16  2  0  0  0  0
 12 13  1  0  0  0  0
 13 14  2  0  0  0  0
 13 36  1  0  0  0  0
 14 15  1  0  0  0  0
 15 21  1  0  0  0  0
 15 16  1  0  0  0  0
 16 37  1  0  0  0  0
 17 18  1  0  0  0  0
 17 38  1  0  0  0  0
 17 39  1  0  0  0  0
 18 19  1  0  0  0  0
 18 20  1  0  0  0  0
 18 40  1  0  0  0  0
 19 41  1  0  0  0  0
 19 42  1  0  0  0  0
 19 43  1  0  0  0  0
M  END
> <s_m_source_file>
AV-unprocessed.smi

> <i_m_source_file_index>
1900

> <i_lp_mmshare_version>
43012

> <i_f3d_flags>
0

> <s_epik_input>
W0NIM11bQ0BASF0xW0NIMl1OKFtDSDJdW0NASF0oTzEpW0NIM10pW0NIMl1bQ0gyXVtDSDJdW05IXUMoPU8pW05IXWMyW2NIXW5bbkhdW2NIXTI=

> <s_epik_cmdline>
J2VwaWtfcHl0aG9uJywgJy1waCcsICc3LjAnLCAnLXRuJywgJzgnLCAnLW1hJywgJzIwMCcsICctbWV0YWxfYmluZGluZycsICctaW1hZScsICc8aW5maWxlLm1hZT4nLCAnLW9tYWUnLCAnPG91dGZpbGUubWFlPic=

> <r_lp_tautomer_probability>
0.5

> <r_epik_Ionization_Penalty>
0.594715

> <r_epik_Ionization_Penalty_Charging>
0

> <r_epik_Ionization_Penalty_Neutral>
0.594715

> <r_epik_State_Penalty>
0.608529

> <r_epik_Charging_Adjusted_Penalty>
0.608529

> <i_epik_Tot_Q>
0

> <i_epik_Tot_abs_Q>
0

> <r_epik_Metal_State_Penalty>
0.608528

> <b_epik_Metal_Only>
0

> <s_lp_Force_Field>
OPLS_2005

> <r_lp_Energy>
27.7437

> <b_lp_Chiralities_Consistent>
1

> <s_lp_Variant>
AV-unprocessed.smi:1900-5

> <Gold.Version>
5.8.1

> <Gold.Id.Protein>
6NUR|6NUR_protein|mol2

> <Gold.PLP.Fitness>
46.9900

> <Gold.PLP.PLP>
-33.7520

> <Gold.PLP.part.hbond>
-4.0000

> <Gold.PLP.part.metal>
0.0000

> <Gold.PLP.part.buried>
-4.9275

> <Gold.PLP.part.nonpolar>
-26.0465

> <Gold.PLP.part.repulsive>
1.2301

> <Gold.PLP.ligand.clash>
0.0000

> <Gold.PLP.ligand.torsion>
0.8531

> <Gold.PLP.Chemscore.Hbond>
3.9680

> <Gold.PLP.Chemscore.CHOScore>
1.0000

> <Gold.PLP.Chemscore.Metal>
0.0000

> <Gold.Chemscore.Hbonds>
donor molecule, donor type, donor heavy atom, donor atom, acceptor molecule, acceptor atom, score
      L1  H     8    34       P1  7948  1.00
      L1  H    11    35       P1  7948  1.00
      L1  H    15    21       P1 10186  1.00
      P1  H  7989  7998       L1     4  0.90
      L1  C    16    37       P1 10171  1.00

> <Gold.PLP.Chemscore.Internal.Correction>
0.0402

> <Gold.Rescore>
     Score         DG    S(hbond)    S(metal)    S(lipo)     H(rot)  DE(clash)    DE(int)     intcor
     18.05     -19.84       3.08        0.00      75.92       1.88       0.15       1.63       ----

> <Gold.Chemscore.Fitness>
18.0483

> <Gold.Chemscore.DG>
-19.8359

> <Gold.Chemscore.ZeroCoef>
-5.4800

> <Gold.Chemscore.Hbond>
3.0795

> <Gold.Chemscore.Metal>
0.0000

> <Gold.Chemscore.Lipo>
75.9238

> <Gold.Chemscore.Internal_Hbond>
0.0000

> <Gold.Chemscore.DEClash>
0.1531

> <Gold.Chemscore.DEInternal>
1.6345

> <Gold.Chemscore.Rot>
1.8799

> <Gold.Chemscore.Internal.Correction>
   9.000000E+99

> <Gold.Chemscore.Hbonds>
donor molecule, donor type, donor heavy atom, donor atom, acceptor molecule, acceptor atom, score
      L1  H     8    34       P1  7948  0.96
      L1  H    11    35       P1  7948  0.99
      L1  H    15    21       P1 10186  0.96
      P1  H  7989  7998       L1     4  0.10

> <Gold.Chemscore.Hbond.Weighted>
-10.2854

> <Gold.Chemscore.Metal.Weighted>
-0.0000

> <Gold.Chemscore.Lipo.Weighted>
-8.8831

> <Gold.Chemscore.Internal_Hbond.Weighted>
0.0000

> <Gold.Chemscore.DEClash.Weighted>
0.1531

> <Gold.Chemscore.DEInternal.Weighted>
1.6345

> <Gold.Chemscore.Rot.Weighted>
4.8126

> <Gold.Chemscore.Internal.Correction.Weighted>
   9.000000E+99

> <Gold.Protein.RotatedTorsions>
[ 6907 6896 6895 6894 ] final   32.42 input  -60.11 | X-H torsion
[ 7974 7965 7964 7962 ] final -132.34 input  175.53 | X-H torsion
[ 8008 7997 7996 7995 ] final -170.47 input   59.86 | X-H torsion
[ 10167 10162 10161 10158 ] final  -12.29 input  -65.29 | X-H torsion
[ 10718 10713 10712 10709 ] final   81.97 input   66.30 | X-H torsion
[ 10763 10752 10751 10750 ] final  -10.98 input  -60.55 | X-H torsion
[ 11005 11000 10999 10996 ] final   53.10 input  -57.11 | X-H torsion

> <Gold.Protein.ActiveResidues>
 VAL166  LYS551  ARG553  GLY616  TRP617  ASP618  TYR619  PRO620  LYS621  CYS622 
 ASP623  PHE694  ASN695  SER759  ASP760  ASP761  ALA762  ILE779  LEU786  VAL792 
 PHE793  MET794  SER795  GLU796  ALA797  LYS798  CYS799  TRP800  GLU811  SER814 

> <Gold.Protein.RotatedAtoms>
  152.0743  134.9513  160.0573 H   0  0  0  0  0  0  0  0  0  0  0  0  # atno 6907 bound_to 6896
  152.0827  133.4156  159.4516 H   0  0  0  0  0  0  0  0  0  0  0  0  # atno 6908 bound_to 6896
  150.6836  134.2883  159.4699 H   0  0  0  0  0  0  0  0  0  0  0  0  # atno 6909 bound_to 6896
  144.9294  140.7111  143.4915 H   0  0  0  0  0  0  0  0  0  0  0  0  # atno 7974 bound_to 7965
  155.9188  140.1070  157.1223 H   0  0  0  0  0  0  0  0  0  0  0  0  # atno 8008 bound_to 7997
  154.4051  140.1260  156.4718 H   0  0  0  0  0  0  0  0  0  0  0  0  # atno 8009 bound_to 7997
  155.7221  140.3469  155.5023 H   0  0  0  0  0  0  0  0  0  0  0  0  # atno 8010 bound_to 7997
  140.7158  143.5548  150.9261 H   0  0  0  0  0  0  0  0  0  0  0  0  # atno 10167 bound_to 10162
  157.6846  131.0027  150.2306 H   0  0  0  0  0  0  0  0  0  0  0  0  # atno 10718 bound_to 10713
  153.4771  135.7017  153.5959 H   0  0  0  0  0  0  0  0  0  0  0  0  # atno 10763 bound_to 10752
  153.4189  135.3830  155.2098 H   0  0  0  0  0  0  0  0  0  0  0  0  # atno 10764 bound_to 10752
  154.8723  135.3923  154.4216 H   0  0  0  0  0  0  0  0  0  0  0  0  # atno 10765 bound_to 10752
  140.0795  134.5358  155.8961 H   0  0  0  0  0  0  0  0  0  0  0  0  # atno 11005 bound_to 11000
  145.3166  139.1802  143.4610 LP  0  0  0  0  0  0  0  0  0  0  0  0  # atno 17320 bound_to 7965
  146.3240  140.3177  142.8631 LP  0  0  0  0  0  0  0  0  0  0  0  0  # atno 17321 bound_to 7965
  139.9273  143.6535  152.3084 LP  0  0  0  0  0  0  0  0  0  0  0  0  # atno 17342 bound_to 10162
  139.6973  144.7639  151.1334 LP  0  0  0  0  0  0  0  0  0  0  0  0  # atno 17343 bound_to 10162
  156.2939  130.3749  149.7814 LP  0  0  0  0  0  0  0  0  0  0  0  0  # atno 17370 bound_to 10713
  156.5465  130.8323  151.3286 LP  0  0  0  0  0  0  0  0  0  0  0  0  # atno 17371 bound_to 10713
  141.2041  133.6637  156.6104 LP  0  0  0  0  0  0  0  0  0  0  0  0  # atno 17394 bound_to 11000
  140.3509  134.7769  157.4466 LP  0  0  0  0  0  0  0  0  0  0  0  0  # atno 17395 bound_to 11000

$$$$
