AV-unprocessed.smi:160|AV-procd|sdf|1369|dock3
  -GOLD-   2262019 83D 1   1.00000     0.00000
 Structure written by MMmdl.
 28 29  0  0  0  0  0  0  0  0  2 V2000
  153.9374  135.6197  157.1805 N   0  5  0  0  0  0  0  0  0  0  0  0
  153.8787  136.8740  157.6783 C   0  0  0  0  0  0  0  0  0  0  0  0
  154.4716  137.2902  158.6733 O   0  0  0  0  0  0  0  0  0  0  0  0
  152.9901  137.8162  156.9012 C   0  0  0  0  0  0  0  0  0  0  0  0
  152.8888  139.1325  157.2589 N   0  0  0  0  0  0  0  0  0  0  0  0
  152.0385  139.5410  156.3268 C   0  0  0  0  0  0  0  0  0  0  0  0
  151.6553  138.5849  155.4760 N   0  0  0  0  0  0  0  0  0  0  0  0
  150.7147  138.6643  154.3097 C   0  0  2  0  0  0  0  0  0  0  0  0
  150.2795  139.9847  154.1807 O   0  0  0  0  0  0  0  0  0  0  0  0
  148.9602  140.1093  154.7008 C   0  0  1  0  0  0  0  0  0  0  0  0
  148.2627  141.3692  154.1576 C   0  0  0  0  0  0  0  0  0  0  0  0
  149.0460  142.5131  154.4224 O   0  0  0  0  0  0  0  0  0  0  0  0
  148.3174  138.7726  154.3027 C   0  0  1  0  0  0  0  0  0  0  0  0
  147.8738  138.8020  152.9575 O   0  0  0  0  0  0  0  0  0  0  0  0
  149.4577  137.7717  154.4608 C   0  0  2  0  0  0  0  0  0  0  0  0
  149.3530  137.1038  155.7061 O   0  0  0  0  0  0  0  0  0  0  0  0
  152.2687  137.4320  155.8435 N   0  0  0  0  0  0  0  0  0  0  0  0
  151.3296  138.3955  153.4501 H   0  0  0  0  0  0  0  0  0  0  0  0
  149.0061  140.1527  155.7904 H   0  0  0  0  0  0  0  0  0  0  0  0
  147.4588  138.5353  154.9327 H   0  0  0  0  0  0  0  0  0  0  0  0
  149.4535  137.0182  153.6721 H   0  0  0  0  0  0  0  0  0  0  0  0
  154.5844  134.9512  157.6157 H   0  0  0  0  0  0  0  0  0  0  0  0
  151.6899  140.5610  156.2606 H   0  0  0  0  0  0  0  0  0  0  0  0
  148.0664  141.2865  153.0882 H   0  0  0  0  0  0  0  0  0  0  0  0
  147.3033  141.5110  154.6560 H   0  0  0  0  0  0  0  0  0  0  0  0
  148.4995  143.1649  154.8336 H   0  0  0  0  0  0  0  0  0  0  0  0
  148.5179  139.2606  152.4403 H   0  0  0  0  0  0  0  0  0  0  0  0
  148.4524  136.8508  155.8385 H   0  0  0  0  0  0  0  0  0  0  0  0
  1  2  1  0  0  0  0
  1 22  1  0  0  0  0
  2  3  2  0  0  0  0
  2  4  1  0  0  0  0
  4 17  2  0  0  0  0
  4  5  1  0  0  0  0
  5  6  2  0  0  0  0
  6  7  1  0  0  0  0
  6 23  1  0  0  0  0
  7  8  1  0  0  0  0
  7 17  1  0  0  0  0
  8 18  1  0  0  0  0
  8 15  1  0  0  0  0
  8  9  1  0  0  0  0
  9 10  1  0  0  0  0
 10 19  1  0  0  0  0
 10 11  1  0  0  0  0
 10 13  1  0  0  0  0
 11 12  1  0  0  0  0
 11 24  1  0  0  0  0
 11 25  1  0  0  0  0
 12 26  1  0  0  0  0
 13 20  1  0  0  0  0
 13 14  1  0  0  0  0
 13 15  1  0  0  0  0
 14 27  1  0  0  0  0
 15 21  1  0  0  0  0
 15 16  1  0  0  0  0
 16 28  1  0  0  0  0
M  CHG  1   1  -1
M  END
> <s_m_source_file>
AV-unprocessed.smi

> <i_m_source_file_index>
160

> <i_lp_mmshare_version>
43012

> <i_f3d_flags>
0

> <s_epik_input>
W05IMl1DKD1PKWMxbltjSF1uKG4xKVtDQEBIXTJPW0NASF0oW0NIMl1bT0hdKVtDQEBIXShbT0hdKVtDQEhdMltPSF0=

> <s_epik_cmdline>
J2VwaWtfcHl0aG9uJywgJy1waCcsICc3LjAnLCAnLXRuJywgJzgnLCAnLW1hJywgJzIwMCcsICctbWV0YWxfYmluZGluZycsICctaW1hZScsICc8aW5maWxlLm1hZT4nLCAnLW9tYWUnLCAnPG91dGZpbGUubWFlPic=

> <r_lp_tautomer_probability>
1

> <r_epik_Ionization_Penalty>
6.6993

> <r_epik_Ionization_Penalty_Charging>
6.6993

> <r_epik_Ionization_Penalty_Neutral>
6.01698e-06

> <r_epik_State_Penalty>
6.69929

> <r_epik_Charging_Adjusted_Penalty>
13.3986

> <i_epik_Tot_Q>
-1

> <i_epik_Tot_abs_Q>
1

> <r_epik_Metal_State_Penalty>
2.62798

> <b_epik_Metal_Only>
1

> <s_epik_Chemistry_Notes>
This compound contains an acetal/aminal-like group ( X-CH(R)-Y where X, Y are N, S, or O) that may be acid/base labile, releasing an aldehyde.

> <s_lp_Force_Field>
OPLS_2005

> <r_lp_Energy>
46.3304

> <b_lp_Chiralities_Consistent>
1

> <s_lp_Variant>
AV-unprocessed.smi:160-27

> <Gold.Version>
5.8.1

> <Gold.Id.Protein>
6NUR|6NUR_protein|mol2

> <Gold.PLP.Fitness>
42.3785

> <Gold.PLP.PLP>
-25.3240

> <Gold.PLP.part.hbond>
-7.9634

> <Gold.PLP.part.metal>
0.0000

> <Gold.PLP.part.buried>
-2.0332

> <Gold.PLP.part.nonpolar>
-15.8684

> <Gold.PLP.part.repulsive>
0.8525

> <Gold.PLP.ligand.clash>
0.0000

> <Gold.PLP.ligand.torsion>
0.0358

> <Gold.PLP.Chemscore.Hbond>
5.7066

> <Gold.PLP.Chemscore.CHOScore>
0.0000

> <Gold.PLP.Chemscore.Metal>
0.0000

> <Gold.Chemscore.Hbonds>
donor molecule, donor type, donor heavy atom, donor atom, acceptor molecule, acceptor atom, score
      L1  H    12    26       P1  8028  0.66
      L1  H    14    27       P1  7957  1.00
      P1  H  7989  7998       L1     9  1.00
      P1  H  7997  8008       L1     5  1.00
      P1  H  8011  8017       L1    12  0.03
      P1  H 10752 10763       L1     1  2.00

> <Gold.PLP.Chemscore.Internal.Correction>
0.0065

> <Gold.Rescore>
     Score         DG    S(hbond)    S(metal)    S(lipo)     H(rot)  DE(clash)    DE(int)     intcor
      9.22     -10.76       3.90        0.00      22.03       4.04       0.07       1.46       ----

> <Gold.Chemscore.Fitness>
9.2182

> <Gold.Chemscore.DG>
-10.7559

> <Gold.Chemscore.ZeroCoef>
-5.4800

> <Gold.Chemscore.Hbond>
3.9048

> <Gold.Chemscore.Metal>
0.0000

> <Gold.Chemscore.Lipo>
22.0256

> <Gold.Chemscore.Internal_Hbond>
0.0000

> <Gold.Chemscore.DEClash>
0.0742

> <Gold.Chemscore.DEInternal>
1.4635

> <Gold.Chemscore.Rot>
4.0403

> <Gold.Chemscore.Internal.Correction>
   9.000000E+99

> <Gold.Chemscore.Hbonds>
donor molecule, donor type, donor heavy atom, donor atom, acceptor molecule, acceptor atom, score
      L1  H    12    26       P1  8028  0.66
      L1  H    14    27       P1  7957  1.00
      P1  H  7989  7998       L1     9  0.54
      P1  H  7997  8008       L1     5  0.33
      P1  H 10752 10763       L1     1  0.64

> <Gold.Chemscore.Hbond.Weighted>
-13.0420

> <Gold.Chemscore.Metal.Weighted>
-0.0000

> <Gold.Chemscore.Lipo.Weighted>
-2.5770

> <Gold.Chemscore.Internal_Hbond.Weighted>
0.0000

> <Gold.Chemscore.DEClash.Weighted>
0.0742

> <Gold.Chemscore.DEInternal.Weighted>
1.4635

> <Gold.Chemscore.Rot.Weighted>
10.3431

> <Gold.Chemscore.Internal.Correction.Weighted>
   9.000000E+99

> <Gold.Protein.RotatedTorsions>
[ 6907 6896 6895 6894 ] final  -76.34 input  -60.11 | X-H torsion
[ 7974 7965 7964 7962 ] final   87.23 input  175.53 | X-H torsion
[ 8008 7997 7996 7995 ] final  -75.43 input   59.86 | X-H torsion
[ 10167 10162 10161 10158 ] final  -27.16 input  -65.29 | X-H torsion
[ 10718 10713 10712 10709 ] final -133.44 input   66.30 | X-H torsion
[ 10763 10752 10751 10750 ] final  140.74 input  -60.55 | X-H torsion
[ 11005 11000 10999 10996 ] final -134.17 input  -57.11 | X-H torsion

> <Gold.Protein.ActiveResidues>
 VAL166  LYS551  ARG553  GLY616  TRP617  ASP618  TYR619  PRO620  LYS621  CYS622 
 ASP623  PHE694  ASN695  SER759  ASP760  ASP761  ALA762  ILE779  LEU786  VAL792 
 PHE793  MET794  SER795  GLU796  ALA797  LYS798  CYS799  TRP800  GLU811  SER814 

> <Gold.Protein.RotatedAtoms>
  150.7030  134.4586  159.5369 H   0  0  0  0  0  0  0  0  0  0  0  0  # atno 6907 bound_to 6896
  152.2265  134.8360  160.0488 H   0  0  0  0  0  0  0  0  0  0  0  0  # atno 6908 bound_to 6896
  151.9191  133.3546  159.3927 H   0  0  0  0  0  0  0  0  0  0  0  0  # atno 6909 bound_to 6896
  145.5617  139.2304  143.2456 H   0  0  0  0  0  0  0  0  0  0  0  0  # atno 7974 bound_to 7965
  154.5416  140.0744  156.8520 H   0  0  0  0  0  0  0  0  0  0  0  0  # atno 8008 bound_to 7997
  155.3169  140.3393  155.4224 H   0  0  0  0  0  0  0  0  0  0  0  0  # atno 8009 bound_to 7997
  156.1880  140.1676  156.8134 H   0  0  0  0  0  0  0  0  0  0  0  0  # atno 8010 bound_to 7997
  140.7279  143.4117  151.1095 H   0  0  0  0  0  0  0  0  0  0  0  0  # atno 10167 bound_to 10162
  156.2450  130.7119  151.0995 H   0  0  0  0  0  0  0  0  0  0  0  0  # atno 10718 bound_to 10713
  153.9277  135.2993  155.3446 H   0  0  0  0  0  0  0  0  0  0  0  0  # atno 10763 bound_to 10752
  154.7543  135.4965  153.9349 H   0  0  0  0  0  0  0  0  0  0  0  0  # atno 10764 bound_to 10752
  153.1108  135.6758  153.9608 H   0  0  0  0  0  0  0  0  0  0  0  0  # atno 10765 bound_to 10752
  140.9014  134.1685  157.4457 H   0  0  0  0  0  0  0  0  0  0  0  0  # atno 11005 bound_to 11000
  146.1846  140.6442  142.9173 LP  0  0  0  0  0  0  0  0  0  0  0  0  # atno 17320 bound_to 7965
  144.7480  140.5117  143.6822 LP  0  0  0  0  0  0  0  0  0  0  0  0  # atno 17321 bound_to 7965
  139.7751  143.8437  152.3128 LP  0  0  0  0  0  0  0  0  0  0  0  0  # atno 17342 bound_to 10162
  139.8369  144.7228  150.9380 LP  0  0  0  0  0  0  0  0  0  0  0  0  # atno 17343 bound_to 10162
  157.7191  131.0692  150.6208 LP  0  0  0  0  0  0  0  0  0  0  0  0  # atno 17370 bound_to 10713
  156.6284  130.4425  149.5796 LP  0  0  0  0  0  0  0  0  0  0  0  0  # atno 17371 bound_to 10713
  139.8743  134.9899  156.5481 LP  0  0  0  0  0  0  0  0  0  0  0  0  # atno 17394 bound_to 11000
  140.8225  133.8343  155.8908 LP  0  0  0  0  0  0  0  0  0  0  0  0  # atno 17395 bound_to 11000

$$$$
