AV-unprocessed.smi:3053|AV-procd|sdf|11637|dock6
  -GOLD-   2272017 33D 1   1.00000     0.00000
 Structure written by MMmdl.
 31 32  0  0  0  0  0  0  0  0  1 V2000
  152.7196  143.2740  162.7962 C   0  0  0  0  0  0  0  0  0  0  0  0
  152.6125  142.8077  161.3853 C   0  0  0  0  0  0  0  0  0  0  0  0
  151.6542  143.2097  160.5467 N   0  0  0  0  0  0  0  0  0  0  0  0
  151.7548  142.6092  159.2879 C   0  0  0  0  0  0  0  0  0  0  0  0
  150.7265  142.9014  158.2336 C   0  0  0  0  0  0  0  0  0  0  0  0
  150.9625  142.1396  156.9136 C   0  0  0  0  0  0  0  0  0  0  0  0
  149.8254  142.2446  156.0011 N   0  0  0  0  0  0  0  0  0  0  0  0
  149.5677  141.4122  154.9793 C   0  0  0  0  0  0  0  0  0  0  0  0
  150.2487  140.4167  154.7287 O   0  0  0  0  0  0  0  0  0  0  0  0
  148.3540  141.7622  154.1079 C   0  0  2  0  0  0  0  0  0  0  0  0
  147.0141  141.6449  154.8522 C   0  0  0  0  0  0  0  0  0  0  0  0
  146.3471  140.5685  154.1453 N   0  0  0  0  0  0  0  0  0  0  0  0
  147.0452  140.1066  153.1059 C   0  0  0  0  0  0  0  0  0  0  0  0
  146.6938  139.2126  152.3406 O   0  0  0  0  0  0  0  0  0  0  0  0
  148.1927  140.7863  153.0430 N   0  0  0  0  0  0  0  0  0  0  0  0
  152.8274  141.7592  159.1777 C   0  0  0  0  0  0  0  0  0  0  0  0
  153.7310  141.6578  160.6628 S   0  0  0  0  0  0  0  0  0  0  0  0
  152.2284  144.2398  162.9180 H   0  0  0  0  0  0  0  0  0  0  0  0
  153.7673  143.3773  163.0793 H   0  0  0  0  0  0  0  0  0  0  0  0
  152.2456  142.5524  163.4617 H   0  0  0  0  0  0  0  0  0  0  0  0
  149.7314  142.6618  158.6096 H   0  0  0  0  0  0  0  0  0  0  0  0
  150.7100  143.9717  158.0250 H   0  0  0  0  0  0  0  0  0  0  0  0
  151.8734  142.5014  156.4335 H   0  0  0  0  0  0  0  0  0  0  0  0
  151.1339  141.0845  157.1268 H   0  0  0  0  0  0  0  0  0  0  0  0
  149.2059  143.0305  156.1366 H   0  0  0  0  0  0  0  0  0  0  0  0
  148.4689  142.7539  153.6671 H   0  0  0  0  0  0  0  0  0  0  0  0
  147.1232  141.3938  155.9086 H   0  0  0  0  0  0  0  0  0  0  0  0
  146.4297  142.5624  154.7744 H   0  0  0  0  0  0  0  0  0  0  0  0
  145.4394  140.2189  154.4165 H   0  0  0  0  0  0  0  0  0  0  0  0
  148.9093  140.6167  152.3523 H   0  0  0  0  0  0  0  0  0  0  0  0
  153.1275  141.1733  158.3218 H   0  0  0  0  0  0  0  0  0  0  0  0
  1  2  1  0  0  0  0
  1 18  1  0  0  0  0
  1 19  1  0  0  0  0
  1 20  1  0  0  0  0
  2 17  1  0  0  0  0
  2  3  2  0  0  0  0
  3  4  1  0  0  0  0
  4  5  1  0  0  0  0
  4 16  2  0  0  0  0
  5  6  1  0  0  0  0
  5 21  1  0  0  0  0
  5 22  1  0  0  0  0
  6  7  1  0  0  0  0
  6 23  1  0  0  0  0
  6 24  1  0  0  0  0
  7  8  1  0  0  0  0
  7 25  1  0  0  0  0
  8  9  2  0  0  0  0
  8 10  1  0  0  0  0
 10 15  1  0  0  0  0
 10 11  1  0  0  0  0
 10 26  1  0  0  0  0
 11 12  1  0  0  0  0
 11 27  1  0  0  0  0
 11 28  1  0  0  0  0
 12 13  1  0  0  0  0
 12 29  1  0  0  0  0
 13 14  2  0  0  0  0
 13 15  1  0  0  0  0
 15 30  1  0  0  0  0
 16 17  1  0  0  0  0
 16 31  1  0  0  0  0
M  END
> <s_m_source_file>
AV-unprocessed.smi

> <i_m_source_file_index>
3053

> <i_lp_mmshare_version>
43012

> <i_f3d_flags>
0

> <s_epik_input>
W0NIM11jMW5jKFtjSF1zMSlbQ0gyXVtDSDJdW05IXUMoPU8pW0NAQEhdMltDSDJdW05IXUMoPU8pW05IXTI=

> <s_epik_cmdline>
J2VwaWtfcHl0aG9uJywgJy1waCcsICc3LjAnLCAnLXRuJywgJzgnLCAnLW1hJywgJzIwMCcsICctbWV0YWxfYmluZGluZycsICctaW1hZScsICc8aW5maWxlLm1hZT4nLCAnLW9tYWUnLCAnPG91dGZpbGUubWFlPic=

> <r_epik_Ionization_Penalty>
0.00110852

> <r_epik_Ionization_Penalty_Charging>
0

> <r_epik_Ionization_Penalty_Neutral>
0.00110852

> <r_epik_State_Penalty>
0.000695988

> <r_epik_Charging_Adjusted_Penalty>
0.000695988

> <i_epik_Tot_Q>
0

> <i_epik_Tot_abs_Q>
0

> <r_epik_Metal_State_Penalty>
-0

> <b_epik_Metal_Only>
0

> <s_lp_Force_Field>
OPLS_2005

> <r_lp_Energy>
23.9072

> <b_lp_Chiralities_Consistent>
1

> <s_lp_Variant>
AV-unprocessed.smi:3053-1

> <Gold.Version>
5.8.1

> <Gold.Id.Protein>
6NUR|6NUR_protein|mol2

> <Gold.PLP.Fitness>
46.6617

> <Gold.PLP.PLP>
-38.5804

> <Gold.PLP.part.hbond>
-3.6375

> <Gold.PLP.part.metal>
0.0000

> <Gold.PLP.part.buried>
-4.9980

> <Gold.PLP.part.nonpolar>
-30.7046

> <Gold.PLP.part.repulsive>
0.7348

> <Gold.PLP.ligand.clash>
0.0000

> <Gold.PLP.ligand.torsion>
0.2121

> <Gold.PLP.Chemscore.Hbond>
2.8160

> <Gold.PLP.Chemscore.CHOScore>
0.0000

> <Gold.PLP.Chemscore.Metal>
0.0000

> <Gold.Chemscore.Hbonds>
donor molecule, donor type, donor heavy atom, donor atom, acceptor molecule, acceptor atom, score
      L1  H     7    25       P1  8028  0.90
      L1  H    15    30       P1  7957  0.89
      P1  H  7989  7998       L1     9  1.00

> <Gold.PLP.Chemscore.Internal.Correction>
0.0576

> <Gold.Rescore>
     Score         DG    S(hbond)    S(metal)    S(lipo)     H(rot)  DE(clash)    DE(int)     intcor
     18.59     -18.85       2.61        0.00      84.16       2.02       0.05       0.22       ----

> <Gold.Chemscore.Fitness>
18.5916

> <Gold.Chemscore.DG>
-18.8541

> <Gold.Chemscore.ZeroCoef>
-5.4800

> <Gold.Chemscore.Hbond>
2.6081

> <Gold.Chemscore.Metal>
0.0000

> <Gold.Chemscore.Lipo>
84.1624

> <Gold.Chemscore.Internal_Hbond>
0.0000

> <Gold.Chemscore.DEClash>
0.0474

> <Gold.Chemscore.DEInternal>
0.2152

> <Gold.Chemscore.Rot>
2.0250

> <Gold.Chemscore.Internal.Correction>
   9.000000E+99

> <Gold.Chemscore.Hbonds>
donor molecule, donor type, donor heavy atom, donor atom, acceptor molecule, acceptor atom, score
      L1  H     7    25       P1  8028  0.87
      L1  H    15    30       P1  7957  0.87
      P1  H  7989  7998       L1     9  0.66

> <Gold.Chemscore.Hbond.Weighted>
-8.7111

> <Gold.Chemscore.Metal.Weighted>
-0.0000

> <Gold.Chemscore.Lipo.Weighted>
-9.8470

> <Gold.Chemscore.Internal_Hbond.Weighted>
0.0000

> <Gold.Chemscore.DEClash.Weighted>
0.0474

> <Gold.Chemscore.DEInternal.Weighted>
0.2152

> <Gold.Chemscore.Rot.Weighted>
5.1840

> <Gold.Chemscore.Internal.Correction.Weighted>
   9.000000E+99

> <Gold.Protein.RotatedTorsions>
[ 6907 6896 6895 6894 ] final  -41.02 input  -60.11 | X-H torsion
[ 7974 7965 7964 7962 ] final   37.93 input  175.53 | X-H torsion
[ 8008 7997 7996 7995 ] final  -93.89 input   59.86 | X-H torsion
[ 10167 10162 10161 10158 ] final -149.12 input  -65.29 | X-H torsion
[ 10718 10713 10712 10709 ] final    4.05 input   66.30 | X-H torsion
[ 10763 10752 10751 10750 ] final -115.38 input  -60.55 | X-H torsion
[ 11005 11000 10999 10996 ] final  -66.87 input  -57.11 | X-H torsion

> <Gold.Protein.ActiveResidues>
 VAL166  LYS551  ARG553  GLY616  TRP617  ASP618  TYR619  PRO620  LYS621  CYS622 
 ASP623  PHE694  ASN695  SER759  ASP760  ASP761  ALA762  ILE779  LEU786  VAL792 
 PHE793  MET794  SER795  GLU796  ALA797  LYS798  CYS799  TRP800  GLU811  SER814 

> <Gold.Protein.RotatedAtoms>
  150.9716  134.9088  159.7791 H   0  0  0  0  0  0  0  0  0  0  0  0  # atno 6907 bound_to 6896
  152.5192  134.3532  159.9268 H   0  0  0  0  0  0  0  0  0  0  0  0  # atno 6908 bound_to 6896
  151.3541  133.3873  159.2718 H   0  0  0  0  0  0  0  0  0  0  0  0  # atno 6909 bound_to 6896
  146.1101  139.5834  142.9358 H   0  0  0  0  0  0  0  0  0  0  0  0  # atno 7974 bound_to 7965
  154.7415  140.0494  157.0815 H   0  0  0  0  0  0  0  0  0  0  0  0  # atno 8008 bound_to 7997
  155.0173  140.3143  155.4787 H   0  0  0  0  0  0  0  0  0  0  0  0  # atno 8009 bound_to 7997
  156.2865  140.2173  156.5289 H   0  0  0  0  0  0  0  0  0  0  0  0  # atno 8010 bound_to 7997
  139.7470  143.8575  152.2577 H   0  0  0  0  0  0  0  0  0  0  0  0  # atno 10167 bound_to 10162
  156.8869  130.5673  149.5651 H   0  0  0  0  0  0  0  0  0  0  0  0  # atno 10718 bound_to 10713
  154.8479  135.4383  154.1654 H   0  0  0  0  0  0  0  0  0  0  0  0  # atno 10763 bound_to 10752
  153.2781  135.6951  153.7419 H   0  0  0  0  0  0  0  0  0  0  0  0  # atno 10764 bound_to 10752
  153.6634  135.3431  155.3108 H   0  0  0  0  0  0  0  0  0  0  0  0  # atno 10765 bound_to 10752
  141.1493  133.6708  156.6206 H   0  0  0  0  0  0  0  0  0  0  0  0  # atno 11005 bound_to 11000
  145.5681  141.0397  143.2189 LP  0  0  0  0  0  0  0  0  0  0  0  0  # atno 17320 bound_to 7965
  144.7504  139.7209  143.7275 LP  0  0  0  0  0  0  0  0  0  0  0  0  # atno 17321 bound_to 7965
  139.8542  144.7149  150.9177 LP  0  0  0  0  0  0  0  0  0  0  0  0  # atno 17342 bound_to 10162
  140.7793  143.3872  151.1372 LP  0  0  0  0  0  0  0  0  0  0  0  0  # atno 17343 bound_to 10162
  156.0649  130.5694  150.9268 LP  0  0  0  0  0  0  0  0  0  0  0  0  # atno 17370 bound_to 10713
  157.6107  131.0936  150.8800 LP  0  0  0  0  0  0  0  0  0  0  0  0  # atno 17371 bound_to 10713
  140.3543  134.7741  157.4489 LP  0  0  0  0  0  0  0  0  0  0  0  0  # atno 17394 bound_to 11000
  140.0835  134.5698  155.8516 LP  0  0  0  0  0  0  0  0  0  0  0  0  # atno 17395 bound_to 11000

$$$$
