AV-unprocessed.smi:1639|AV-procd|sdf|6548|dock3
  -GOLD-   22720 7233D 1   1.00000     0.00000
 Structure written by MMmdl.
 37 38  0  0  0  0  0  0  0  0  1 V2000
  155.2024  139.2363  162.6830 C   0  0  0  0  0  0  0  0  0  0  0  0
  154.9608  140.0606  161.4169 C   0  0  0  0  0  0  0  0  0  0  0  0
  153.9270  140.9994  161.6744 O   0  0  0  0  0  0  0  0  0  0  0  0
  153.5737  141.8103  160.5607 C   0  0  2  0  0  0  0  0  0  0  0  0
  152.7606  142.9993  161.0966 C   0  0  0  0  0  0  0  0  0  0  0  0
  152.2759  143.8769  159.9343 C   0  0  0  0  0  0  0  0  0  0  0  0
  151.4739  143.0489  158.9171 C   0  0  0  0  0  0  0  0  0  0  0  0
  152.2379  141.8850  158.4645 N   0  0  0  0  0  0  0  0  0  0  0  0
  151.7608  141.2672  157.2879 C   0  0  0  0  0  0  0  0  0  0  0  0
  150.5637  141.7048  156.6713 C   0  0  0  0  0  0  0  0  0  0  0  0
  150.1638  141.0265  155.5005 C   0  0  0  0  0  0  0  0  0  0  0  0
  148.9011  141.4108  154.7591 C   0  0  0  0  0  0  0  0  0  0  0  0
  150.8825  140.0051  154.9874 N   0  0  0  0  0  0  0  0  0  0  0  0
  151.9963  139.6743  155.6412 C   0  0  0  0  0  0  0  0  0  0  0  0
  152.7306  138.6378  155.1191 N   0  0  0  0  0  0  0  0  0  0  0  0
  152.4716  140.2438  156.7501 N   0  0  0  0  0  0  0  0  0  0  0  0
  152.7455  141.0146  159.5289 C   0  0  0  0  0  0  0  0  0  0  0  0
  155.9954  138.5051  162.5259 H   0  0  0  0  0  0  0  0  0  0  0  0
  154.3020  138.6958  162.9759 H   0  0  0  0  0  0  0  0  0  0  0  0
  155.4965  139.8755  163.5158 H   0  0  0  0  0  0  0  0  0  0  0  0
  155.8792  140.5772  161.1343 H   0  0  0  0  0  0  0  0  0  0  0  0
  154.6875  139.3974  160.5962 H   0  0  0  0  0  0  0  0  0  0  0  0
  154.4767  142.1993  160.0864 H   0  0  0  0  0  0  0  0  0  0  0  0
  151.9025  142.6366  161.6641 H   0  0  0  0  0  0  0  0  0  0  0  0
  153.3650  143.5899  161.7856 H   0  0  0  0  0  0  0  0  0  0  0  0
  151.6640  144.6954  160.3137 H   0  0  0  0  0  0  0  0  0  0  0  0
  153.1334  144.3341  159.4389 H   0  0  0  0  0  0  0  0  0  0  0  0
  150.5470  142.6987  159.3733 H   0  0  0  0  0  0  0  0  0  0  0  0
  151.1882  143.6941  158.0875 H   0  0  0  0  0  0  0  0  0  0  0  0
  149.9827  142.5272  157.0607 H   0  0  0  0  0  0  0  0  0  0  0  0
  148.6045  142.4325  154.9984 H   0  0  0  0  0  0  0  0  0  0  0  0
  148.0854  140.7423  155.0352 H   0  0  0  0  0  0  0  0  0  0  0  0
  149.0503  141.3461  153.6808 H   0  0  0  0  0  0  0  0  0  0  0  0
  152.4227  138.1654  154.2818 H   0  0  0  0  0  0  0  0  0  0  0  0
  153.6067  138.3693  155.5424 H   0  0  0  0  0  0  0  0  0  0  0  0
  153.3641  140.2302  159.0930 H   0  0  0  0  0  0  0  0  0  0  0  0
  151.9030  140.5270  160.0212 H   0  0  0  0  0  0  0  0  0  0  0  0
  1  2  1  0  0  0  0
  1 18  1  0  0  0  0
  1 19  1  0  0  0  0
  1 20  1  0  0  0  0
  2  3  1  0  0  0  0
  2 21  1  0  0  0  0
  2 22  1  0  0  0  0
  3  4  1  0  0  0  0
  4 17  1  0  0  0  0
  4  5  1  0  0  0  0
  4 23  1  0  0  0  0
  5  6  1  0  0  0  0
  5 24  1  0  0  0  0
  5 25  1  0  0  0  0
  6  7  1  0  0  0  0
  6 26  1  0  0  0  0
  6 27  1  0  0  0  0
  7  8  1  0  0  0  0
  7 28  1  0  0  0  0
  7 29  1  0  0  0  0
  8  9  1  0  0  0  0
  8 17  1  0  0  0  0
  9 16  1  0  0  0  0
  9 10  2  0  0  0  0
 10 11  1  0  0  0  0
 10 30  1  0  0  0  0
 11 12  1  0  0  0  0
 11 13  2  0  0  0  0
 12 31  1  0  0  0  0
 12 32  1  0  0  0  0
 12 33  1  0  0  0  0
 13 14  1  0  0  0  0
 14 15  1  0  0  0  0
 14 16  2  0  0  0  0
 15 34  1  0  0  0  0
 15 35  1  0  0  0  0
 17 36  1  0  0  0  0
 17 37  1  0  0  0  0
M  END
> <s_m_source_file>
AV-unprocessed.smi

> <i_m_source_file_index>
1639

> <i_lp_mmshare_version>
43012

> <i_f3d_flags>
0

> <s_epik_input>
W0NIM11bQ0gyXU9bQ0BASF0xW0NIMl1bQ0gyXVtDSDJdTihbQ0gyXTEpYzJbY0hdYyhbQ0gzXSluYyhuMilbTkgyXQ==

> <s_epik_cmdline>
J2VwaWtfcHl0aG9uJywgJy1waCcsICc3LjAnLCAnLXRuJywgJzgnLCAnLW1hJywgJzIwMCcsICctbWV0YWxfYmluZGluZycsICctaW1hZScsICc8aW5maWxlLm1hZT4nLCAnLW9tYWUnLCAnPG91dGZpbGUubWFlPic=

> <r_lp_tautomer_probability>
1

> <r_epik_Ionization_Penalty>
0.383805

> <r_epik_Ionization_Penalty_Charging>
0

> <r_epik_Ionization_Penalty_Neutral>
0.383805

> <r_epik_State_Penalty>
0.0922942

> <r_epik_Charging_Adjusted_Penalty>
0.0922942

> <i_epik_Tot_Q>
0

> <i_epik_Tot_abs_Q>
0

> <r_epik_Metal_State_Penalty>
0.050432

> <b_epik_Metal_Only>
0

> <s_lp_Force_Field>
OPLS_2005

> <r_lp_Energy>
9.62656

> <b_lp_Chiralities_Consistent>
1

> <s_lp_Variant>
AV-unprocessed.smi:1639-1

> <Gold.Version>
5.8.1

> <Gold.Id.Protein>
6NUR|6NUR_protein|mol2

> <Gold.PLP.Fitness>
41.4340

> <Gold.PLP.PLP>
-35.7225

> <Gold.PLP.part.hbond>
-2.0000

> <Gold.PLP.part.metal>
0.0000

> <Gold.PLP.part.buried>
-3.8691

> <Gold.PLP.part.nonpolar>
-29.4199

> <Gold.PLP.part.repulsive>
0.2726

> <Gold.PLP.ligand.clash>
0.0000

> <Gold.PLP.ligand.torsion>
0.3596

> <Gold.PLP.Chemscore.Hbond>
2.0000

> <Gold.PLP.Chemscore.CHOScore>
0.0000

> <Gold.PLP.Chemscore.Metal>
0.0000

> <Gold.Chemscore.Hbonds>
donor molecule, donor type, donor heavy atom, donor atom, acceptor molecule, acceptor atom, score
      P1  H  7989  7998       L1    13  1.00
      P1  H  7997  8009       L1    16  1.00

> <Gold.PLP.Chemscore.Internal.Correction>
0.4307

> <Gold.Rescore>
     Score         DG    S(hbond)    S(metal)    S(lipo)     H(rot)  DE(clash)    DE(int)     intcor
     14.27     -14.68       0.75        0.00      88.48       1.43       0.01       0.40       ----

> <Gold.Chemscore.Fitness>
14.2742

> <Gold.Chemscore.DG>
-14.6773

> <Gold.Chemscore.ZeroCoef>
-5.4800

> <Gold.Chemscore.Hbond>
0.7496

> <Gold.Chemscore.Metal>
0.0000

> <Gold.Chemscore.Lipo>
88.4825

> <Gold.Chemscore.Internal_Hbond>
0.0000

> <Gold.Chemscore.DEClash>
0.0060

> <Gold.Chemscore.DEInternal>
0.3971

> <Gold.Chemscore.Rot>
1.4293

> <Gold.Chemscore.Internal.Correction>
   9.000000E+99

> <Gold.Chemscore.Hbonds>
donor molecule, donor type, donor heavy atom, donor atom, acceptor molecule, acceptor atom, score
      P1  H  7989  7998       L1    13  0.07
      P1  H  7997  8009       L1    16  0.29

> <Gold.Chemscore.Hbond.Weighted>
-2.5038

> <Gold.Chemscore.Metal.Weighted>
-0.0000

> <Gold.Chemscore.Lipo.Weighted>
-10.3525

> <Gold.Chemscore.Internal_Hbond.Weighted>
0.0000

> <Gold.Chemscore.DEClash.Weighted>
0.0060

> <Gold.Chemscore.DEInternal.Weighted>
0.3971

> <Gold.Chemscore.Rot.Weighted>
3.6589

> <Gold.Chemscore.Internal.Correction.Weighted>
   9.000000E+99

> <Gold.Protein.RotatedTorsions>
[ 6907 6896 6895 6894 ] final -102.64 input  -60.11 | X-H torsion
[ 7974 7965 7964 7962 ] final  -43.84 input  175.53 | X-H torsion
[ 8008 7997 7996 7995 ] final -167.10 input   59.86 | X-H torsion
[ 10167 10162 10161 10158 ] final   -0.57 input  -65.29 | X-H torsion
[ 10718 10713 10712 10709 ] final  -39.10 input   66.30 | X-H torsion
[ 10763 10752 10751 10750 ] final  -88.98 input  -60.55 | X-H torsion
[ 11005 11000 10999 10996 ] final -142.51 input  -57.11 | X-H torsion

> <Gold.Protein.ActiveResidues>
 VAL166  LYS551  ARG553  GLY616  TRP617  ASP618  TYR619  PRO620  LYS621  CYS622 
 ASP623  PHE694  ASN695  SER759  ASP760  ASP761  ALA762  ILE779  LEU786  VAL792 
 PHE793  MET794  SER795  GLU796  ALA797  LYS798  CYS799  TRP800  GLU811  SER814 

> <Gold.Protein.RotatedAtoms>
  150.7205  134.0550  159.3811 H   0  0  0  0  0  0  0  0  0  0  0  0  # atno 6907 bound_to 6896
  151.8529  135.0549  160.0470 H   0  0  0  0  0  0  0  0  0  0  0  0  # atno 6908 bound_to 6896
  152.2777  133.5405  159.5514 H   0  0  0  0  0  0  0  0  0  0  0  0  # atno 6909 bound_to 6896
  145.9980  140.7107  142.9284 H   0  0  0  0  0  0  0  0  0  0  0  0  # atno 7974 bound_to 7965
  155.8730  140.0996  157.1537 H   0  0  0  0  0  0  0  0  0  0  0  0  # atno 8008 bound_to 7997
  154.3998  140.1343  156.4165 H   0  0  0  0  0  0  0  0  0  0  0  0  # atno 8009 bound_to 7997
  155.7729  140.3460  155.5259 H   0  0  0  0  0  0  0  0  0  0  0  0  # atno 8010 bound_to 7997
  140.6773  143.6878  150.8052 H   0  0  0  0  0  0  0  0  0  0  0  0  # atno 10167 bound_to 10162
  156.2962  130.4234  149.8189 H   0  0  0  0  0  0  0  0  0  0  0  0  # atno 10718 bound_to 10713
  154.6503  135.5357  153.7894 H   0  0  0  0  0  0  0  0  0  0  0  0  # atno 10763 bound_to 10752
  153.0382  135.6481  154.1026 H   0  0  0  0  0  0  0  0  0  0  0  0  # atno 10764 bound_to 10752
  154.0944  135.2937  155.3245 H   0  0  0  0  0  0  0  0  0  0  0  0  # atno 10765 bound_to 10752
  140.8218  134.2622  157.4897 H   0  0  0  0  0  0  0  0  0  0  0  0  # atno 11005 bound_to 11000
  144.6910  140.3183  143.7236 LP  0  0  0  0  0  0  0  0  0  0  0  0  # atno 17320 bound_to 7965
  145.7531  139.1800  143.2310 LP  0  0  0  0  0  0  0  0  0  0  0  0  # atno 17321 bound_to 7965
  140.0573  143.5189  152.2645 LP  0  0  0  0  0  0  0  0  0  0  0  0  # atno 17342 bound_to 10162
  139.6073  144.7599  151.3032 LP  0  0  0  0  0  0  0  0  0  0  0  0  # atno 17343 bound_to 10162
  156.5583  130.8372  151.3321 LP  0  0  0  0  0  0  0  0  0  0  0  0  # atno 17370 bound_to 10713
  157.7356  130.9765  150.2090 LP  0  0  0  0  0  0  0  0  0  0  0  0  # atno 17371 bound_to 10713
  139.8708  134.9539  156.4160 LP  0  0  0  0  0  0  0  0  0  0  0  0  # atno 17394 bound_to 11000
  140.9091  133.7725  155.9770 LP  0  0  0  0  0  0  0  0  0  0  0  0  # atno 17395 bound_to 11000

$$$$
