AV-unprocessed.smi:157|AV-procd|sdf|1306|dock4
  -GOLD-   2262018593D 1   1.00000     0.00000
 Structure written by MMmdl.
 35 37  0  0  0  0  0  0  0  0  1 V2000
  151.9204  137.3321  154.9746 O   0  0  0  0  0  0  0  0  0  0  0  0
  150.6531  137.9495  155.0563 C   0  0  0  0  0  0  0  0  0  0  0  0
  150.7668  139.4462  154.7309 C   0  0  2  0  0  0  0  0  0  0  0  0
  151.4917  140.0844  155.7786 O   0  0  0  0  0  0  0  0  0  0  0  0
  151.0074  141.3785  155.8969 C   0  0  2  0  0  0  0  0  0  0  0  0
  151.3553  141.9061  157.2529 N   0  0  0  0  0  0  0  0  0  0  0  0
  150.8876  143.0311  157.8095 C   0  0  0  0  0  0  0  0  0  0  0  0
  151.3546  143.2799  159.0214 N   0  0  0  0  0  0  0  0  0  0  0  0
  152.2115  142.2106  159.2772 C   0  0  0  0  0  0  0  0  0  0  0  0
  152.2303  141.3489  158.1896 C   0  0  0  0  0  0  0  0  0  0  0  0
  152.8816  140.1753  157.8612 N   0  0  0  0  0  0  0  0  0  0  0  0
  153.3909  139.4734  158.8240 C   0  0  0  0  0  0  0  0  0  0  0  0
  153.4813  139.7488  160.1808 N   0  0  0  0  0  0  0  0  0  0  0  0
  153.9713  141.0119  160.7059 C   0  0  0  0  0  0  0  0  0  0  0  0
  152.9659  142.1629  160.5750 C   0  0  2  0  0  0  0  0  0  0  0  0
  152.0065  142.0616  161.6076 O   0  0  0  0  0  0  0  0  0  0  0  0
  149.5012  141.2528  155.7301 C   0  0  0  0  0  0  0  0  0  0  0  0
  149.4097  140.1831  154.6527 C   0  0  1  0  0  0  0  0  0  0  0  0
  149.2514  140.7863  153.3836 O   0  0  0  0  0  0  0  0  0  0  0  0
  151.3380  139.5839  153.8104 H   0  0  0  0  0  0  0  0  0  0  0  0
  151.4834  142.0362  155.1681 H   0  0  0  0  0  0  0  0  0  0  0  0
  153.4963  143.1030  160.7295 H   0  0  0  0  0  0  0  0  0  0  0  0
  148.5626  139.5208  154.8349 H   0  0  0  0  0  0  0  0  0  0  0  0
  152.5377  137.8481  155.4703 H   0  0  0  0  0  0  0  0  0  0  0  0
  149.9558  137.4538  154.3801 H   0  0  0  0  0  0  0  0  0  0  0  0
  150.2726  137.8143  156.0690 H   0  0  0  0  0  0  0  0  0  0  0  0
  150.1883  143.6869  157.3117 H   0  0  0  0  0  0  0  0  0  0  0  0
  153.8376  138.5081  158.5814 H   0  0  0  0  0  0  0  0  0  0  0  0
  153.6836  138.9876  160.8126 H   0  0  0  0  0  0  0  0  0  0  0  0
  154.2845  140.8866  161.7428 H   0  0  0  0  0  0  0  0  0  0  0  0
  154.8719  141.2667  160.1454 H   0  0  0  0  0  0  0  0  0  0  0  0
  152.4656  141.9906  162.4308 H   0  0  0  0  0  0  0  0  0  0  0  0
  149.0651  140.8875  156.6611 H   0  0  0  0  0  0  0  0  0  0  0  0
  149.0448  142.2092  155.4711 H   0  0  0  0  0  0  0  0  0  0  0  0
  149.3622  140.1213  152.7210 H   0  0  0  0  0  0  0  0  0  0  0  0
  1  2  1  0  0  0  0
  1 24  1  0  0  0  0
  2  3  1  0  0  0  0
  2 25  1  0  0  0  0
  2 26  1  0  0  0  0
  3 20  1  0  0  0  0
  3 18  1  0  0  0  0
  3  4  1  0  0  0  0
  4  5  1  0  0  0  0
  5 21  1  0  0  0  0
  5  6  1  0  0  0  0
  5 17  1  0  0  0  0
  6 10  1  0  0  0  0
  6  7  1  0  0  0  0
  7  8  2  0  0  0  0
  7 27  1  0  0  0  0
  8  9  1  0  0  0  0
  9 15  1  0  0  0  0
  9 10  2  0  0  0  0
 10 11  1  0  0  0  0
 11 12  2  0  0  0  0
 12 13  1  0  0  0  0
 12 28  1  0  0  0  0
 13 14  1  0  0  0  0
 13 29  1  0  0  0  0
 14 15  1  0  0  0  0
 14 30  1  0  0  0  0
 14 31  1  0  0  0  0
 15 22  1  0  0  0  0
 15 16  1  0  0  0  0
 16 32  1  0  0  0  0
 17 18  1  0  0  0  0
 17 33  1  0  0  0  0
 17 34  1  0  0  0  0
 18 23  1  0  0  0  0
 18 19  1  0  0  0  0
 19 35  1  0  0  0  0
M  END
> <s_m_source_file>
AV-unprocessed.smi

> <i_m_source_file_index>
157

> <i_lp_mmshare_version>
43012

> <i_f3d_flags>
0

> <s_epik_input>
W09IXVtDSDJdW0NASF0xT1tDQEhdKFtDSDJdW0NAQEhdMVtPSF0pbihbY0hdbjIpYyhjMjMpTj1bQ0hdW05IXVtDSDJdW0NASF0zW09IXQ==

> <s_epik_cmdline>
J2VwaWtfcHl0aG9uJywgJy1waCcsICc3LjAnLCAnLXRuJywgJzgnLCAnLW1hJywgJzIwMCcsICctbWV0YWxfYmluZGluZycsICctaW1hZScsICc8aW5maWxlLm1hZT4nLCAnLW9tYWUnLCAnPG91dGZpbGUubWFlPic=

> <r_lp_tautomer_probability>
1

> <r_epik_Ionization_Penalty>
0.0357149

> <r_epik_Ionization_Penalty_Charging>
0.0355056

> <r_epik_Ionization_Penalty_Neutral>
0.000209255

> <r_epik_State_Penalty>
0.0296046

> <r_epik_Charging_Adjusted_Penalty>
0.0651102

> <i_epik_Tot_Q>
0

> <i_epik_Tot_abs_Q>
0

> <r_epik_Metal_State_Penalty>
3.03559e-05

> <b_epik_Metal_Only>
0

> <s_epik_Chemistry_Notes>
This compound has an imine and may undergo hydrolysis. This compound contains an acetal/aminal-like group ( X-CH(R)-Y where X, Y are N, S, or O) that may be acid/base labile, releasing an aldehyde.

> <s_lp_Force_Field>
OPLS_2005

> <r_lp_Energy>
43.6155

> <b_lp_Chiralities_Consistent>
1

> <s_lp_Variant>
AV-unprocessed.smi:157-16

> <Gold.Version>
5.8.1

> <Gold.Id.Protein>
6NUR|6NUR_protein|mol2

> <Gold.PLP.Fitness>
50.0100

> <Gold.PLP.PLP>
-34.4610

> <Gold.PLP.part.hbond>
-5.4237

> <Gold.PLP.part.metal>
0.0000

> <Gold.PLP.part.buried>
-3.1878

> <Gold.PLP.part.nonpolar>
-25.5731

> <Gold.PLP.part.repulsive>
0.1189

> <Gold.PLP.ligand.clash>
0.0000

> <Gold.PLP.ligand.torsion>
0.1800

> <Gold.PLP.Chemscore.Hbond>
4.2946

> <Gold.PLP.Chemscore.CHOScore>
1.0000

> <Gold.PLP.Chemscore.Metal>
0.0000

> <Gold.Chemscore.Hbonds>
donor molecule, donor type, donor heavy atom, donor atom, acceptor molecule, acceptor atom, score
      L1  H    19    35       P1  7957  0.77
      P1  H  6933  6945       L1    16  0.62
      P1  H  7997  8008       L1    11  0.79
      P1  H  8011  8017       L1    19  0.95
      P1  H 10752 10765       L1     1  0.92
      L1  C     7    27       P1  8028  1.00

> <Gold.PLP.Chemscore.Internal.Correction>
0.0251

> <Gold.Rescore>
     Score         DG    S(hbond)    S(metal)    S(lipo)     H(rot)  DE(clash)    DE(int)     intcor
      8.10     -10.52       2.29        0.00      57.11       3.64       0.50       1.91       ----

> <Gold.Chemscore.Fitness>
8.1050

> <Gold.Chemscore.DG>
-10.5174

> <Gold.Chemscore.ZeroCoef>
-5.4800

> <Gold.Chemscore.Hbond>
2.2945

> <Gold.Chemscore.Metal>
0.0000

> <Gold.Chemscore.Lipo>
57.1150

> <Gold.Chemscore.Internal_Hbond>
0.0000

> <Gold.Chemscore.DEClash>
0.5017

> <Gold.Chemscore.DEInternal>
1.9107

> <Gold.Chemscore.Rot>
3.6362

> <Gold.Chemscore.Internal.Correction>
   9.000000E+99

> <Gold.Chemscore.Hbonds>
donor molecule, donor type, donor heavy atom, donor atom, acceptor molecule, acceptor atom, score
      L1  H    19    35       P1  7957  0.74
      P1  H  6933  6945       L1    16  0.18
      P1  H  7997  8008       L1    11  0.15
      P1  H  8011  8017       L1    19  0.20
      P1  H 10752 10765       L1     1  0.33

> <Gold.Chemscore.Hbond.Weighted>
-7.6637

> <Gold.Chemscore.Metal.Weighted>
-0.0000

> <Gold.Chemscore.Lipo.Weighted>
-6.6825

> <Gold.Chemscore.Internal_Hbond.Weighted>
0.0000

> <Gold.Chemscore.DEClash.Weighted>
0.5017

> <Gold.Chemscore.DEInternal.Weighted>
1.9107

> <Gold.Chemscore.Rot.Weighted>
9.3087

> <Gold.Chemscore.Internal.Correction.Weighted>
   9.000000E+99

> <Gold.Protein.RotatedTorsions>
[ 6907 6896 6895 6894 ] final -172.17 input  -60.11 | X-H torsion
[ 7974 7965 7964 7962 ] final  -10.28 input  175.53 | X-H torsion
[ 8008 7997 7996 7995 ] final  -60.25 input   59.86 | X-H torsion
[ 10167 10162 10161 10158 ] final  -50.19 input  -65.29 | X-H torsion
[ 10718 10713 10712 10709 ] final   38.48 input   66.30 | X-H torsion
[ 10763 10752 10751 10750 ] final  178.51 input  -60.55 | X-H torsion
[ 11005 11000 10999 10996 ] final  169.55 input  -57.11 | X-H torsion

> <Gold.Protein.ActiveResidues>
 VAL166  LYS551  ARG553  GLY616  TRP617  ASP618  TYR619  PRO620  LYS621  CYS622 
 ASP623  PHE694  ASN695  SER759  ASP760  ASP761  ALA762  ILE779  LEU786  VAL792 
 PHE793  MET794  SER795  GLU796  ALA797  LYS798  CYS799  TRP800  GLU811  SER814 

> <Gold.Protein.RotatedAtoms>
  151.5356  133.3441  159.2925 H   0  0  0  0  0  0  0  0  0  0  0  0  # atno 6907 bound_to 6896
  150.8567  134.7910  159.7062 H   0  0  0  0  0  0  0  0  0  0  0  0  # atno 6908 bound_to 6896
  152.4598  134.5218  159.9836 H   0  0  0  0  0  0  0  0  0  0  0  0  # atno 6909 bound_to 6896
  146.2226  140.2740  142.8358 H   0  0  0  0  0  0  0  0  0  0  0  0  # atno 7974 bound_to 7965
  154.4390  140.1044  156.6244 H   0  0  0  0  0  0  0  0  0  0  0  0  # atno 8008 bound_to 7997
  155.5673  140.3488  155.4487 H   0  0  0  0  0  0  0  0  0  0  0  0  # atno 8009 bound_to 7997
  156.0416  140.1283  157.0139 H   0  0  0  0  0  0  0  0  0  0  0  0  # atno 8010 bound_to 7997
  140.6649  143.2667  151.4324 H   0  0  0  0  0  0  0  0  0  0  0  0  # atno 10167 bound_to 10162
  157.3594  130.7641  149.7036 H   0  0  0  0  0  0  0  0  0  0  0  0  # atno 10718 bound_to 10713
  154.5086  135.2787  155.1361 H   0  0  0  0  0  0  0  0  0  0  0  0  # atno 10763 bound_to 10752
  154.2965  135.6256  153.5410 H   0  0  0  0  0  0  0  0  0  0  0  0  # atno 10764 bound_to 10752
  152.9915  135.5686  154.5546 H   0  0  0  0  0  0  0  0  0  0  0  0  # atno 10765 bound_to 10752
  140.2990  134.7611  157.3900 H   0  0  0  0  0  0  0  0  0  0  0  0  # atno 11005 bound_to 11000
  144.9246  140.7907  143.5727 LP  0  0  0  0  0  0  0  0  0  0  0  0  # atno 17320 bound_to 7965
  145.2679  139.1966  143.4857 LP  0  0  0  0  0  0  0  0  0  0  0  0  # atno 17321 bound_to 7965
  139.5895  144.1531  152.2070 LP  0  0  0  0  0  0  0  0  0  0  0  0  # atno 17342 bound_to 10162
  140.0881  144.5644  150.7074 LP  0  0  0  0  0  0  0  0  0  0  0  0  # atno 17343 bound_to 10162
  155.9735  130.4118  150.4000 LP  0  0  0  0  0  0  0  0  0  0  0  0  # atno 17370 bound_to 10713
  157.2075  131.0452  151.2617 LP  0  0  0  0  0  0  0  0  0  0  0  0  # atno 17371 bound_to 10713
  140.1126  134.5325  155.8252 LP  0  0  0  0  0  0  0  0  0  0  0  0  # atno 17394 bound_to 11000
  141.2132  133.6729  156.6718 LP  0  0  0  0  0  0  0  0  0  0  0  0  # atno 17395 bound_to 11000

$$$$
