AV-unprocessed.smi:1513|AV-procd|sdf|6111|dock1
  -GOLD-   22720 6243D 1   1.00000     0.00000
 Structure written by MMmdl.
 33 34  0  0  0  0  0  0  0  0  2 V2000
  153.5449  136.3220  159.6291 N   0  5  0  0  0  0  0  0  0  0  0  0
  154.1740  136.7889  158.2200 S   0  0  0  0  0  0  0  0  0  0  0  0
  155.6329  136.6222  158.1327 O   0  0  0  0  0  0  0  0  0  0  0  0
  153.3581  136.4019  157.0588 O   0  0  0  0  0  0  0  0  0  0  0  0
  153.9072  138.4727  158.4502 N   0  0  0  0  0  0  0  0  0  0  0  0
  152.5708  138.9708  158.7712 C   0  0  0  0  0  0  0  0  0  0  0  0
  152.5210  140.4869  158.8871 C   0  0  0  0  0  0  0  0  0  0  0  0
  153.1486  141.1280  159.9756 C   0  0  0  0  0  0  0  0  0  0  0  0
  153.1026  142.5315  160.0634 C   0  0  0  0  0  0  0  0  0  0  0  0
  152.4274  143.2417  159.0534 C   0  0  0  0  0  0  0  0  0  0  0  0
  151.8214  142.6435  158.0069 N   0  0  0  0  0  0  0  0  0  0  0  0
  151.8632  141.2915  157.9212 C   0  0  0  0  0  0  0  0  0  0  0  0
  151.2119  140.6929  156.8312 N   0  0  0  0  0  0  0  0  0  0  0  0
  150.3465  141.6039  156.0935 C   0  0  0  0  0  0  0  0  0  0  0  0
  149.5438  140.8247  155.0373 C   0  0  0  0  0  0  0  0  0  0  0  0
  150.4379  140.1059  154.1908 O   0  0  0  0  0  0  0  0  0  0  0  0
  151.2230  139.1647  154.9181 C   0  0  0  0  0  0  0  0  0  0  0  0
  152.0754  139.9044  155.9635 C   0  0  0  0  0  0  0  0  0  0  0  0
  154.2769  136.3934  160.3459 H   0  0  0  0  0  0  0  0  0  0  0  0
  154.6761  138.9538  158.9153 H   0  0  0  0  0  0  0  0  0  0  0  0
  151.8735  138.6196  158.0101 H   0  0  0  0  0  0  0  0  0  0  0  0
  152.2386  138.5410  159.7164 H   0  0  0  0  0  0  0  0  0  0  0  0
  153.6603  140.5545  160.7345 H   0  0  0  0  0  0  0  0  0  0  0  0
  153.5739  143.0504  160.8849 H   0  0  0  0  0  0  0  0  0  0  0  0
  152.3717  144.3197  159.0865 H   0  0  0  0  0  0  0  0  0  0  0  0
  149.6678  142.1110  156.7803 H   0  0  0  0  0  0  0  0  0  0  0  0
  150.9506  142.3720  155.6086 H   0  0  0  0  0  0  0  0  0  0  0  0
  148.8420  140.1371  155.5109 H   0  0  0  0  0  0  0  0  0  0  0  0
  148.9540  141.5123  154.4312 H   0  0  0  0  0  0  0  0  0  0  0  0
  150.5756  138.4271  155.3957 H   0  0  0  0  0  0  0  0  0  0  0  0
  151.8654  138.6239  154.2233 H   0  0  0  0  0  0  0  0  0  0  0  0
  152.7932  140.5565  155.4640 H   0  0  0  0  0  0  0  0  0  0  0  0
  152.6443  139.1895  156.5592 H   0  0  0  0  0  0  0  0  0  0  0  0
  1  2  1  0  0  0  0
  1 19  1  0  0  0  0
  2  3  2  0  0  0  0
  2  4  2  0  0  0  0
  2  5  1  0  0  0  0
  5  6  1  0  0  0  0
  5 20  1  0  0  0  0
  6  7  1  0  0  0  0
  6 21  1  0  0  0  0
  6 22  1  0  0  0  0
  7 12  1  0  0  0  0
  7  8  2  0  0  0  0
  8  9  1  0  0  0  0
  8 23  1  0  0  0  0
  9 10  2  0  0  0  0
  9 24  1  0  0  0  0
 10 11  1  0  0  0  0
 10 25  1  0  0  0  0
 11 12  2  0  0  0  0
 12 13  1  0  0  0  0
 13 18  1  0  0  0  0
 13 14  1  0  0  0  0
 14 15  1  0  0  0  0
 14 26  1  0  0  0  0
 14 27  1  0  0  0  0
 15 16  1  0  0  0  0
 15 28  1  0  0  0  0
 15 29  1  0  0  0  0
 16 17  1  0  0  0  0
 17 18  1  0  0  0  0
 17 30  1  0  0  0  0
 17 31  1  0  0  0  0
 18 32  1  0  0  0  0
 18 33  1  0  0  0  0
M  CHG  1   1  -1
M  END
> <s_m_source_file>
AV-unprocessed.smi

> <i_m_source_file_index>
1513

> <i_lp_mmshare_version>
43012

> <i_f3d_flags>
0

> <s_epik_input>
W05IMl1TKD1PKSg9TylbTkhdW0NIMl1jMVtjSF1bY0hdW2NIXW5jMU4yW0NIMl1bQ0gyXU9bQ0gyXVtDSDJdMg==

> <s_epik_cmdline>
J2VwaWtfcHl0aG9uJywgJy1waCcsICc3LjAnLCAnLXRuJywgJzgnLCAnLW1hJywgJzIwMCcsICctbWV0YWxfYmluZGluZycsICctaW1hZScsICc8aW5maWxlLm1hZT4nLCAnLW9tYWUnLCAnPG91dGZpbGUubWFlPic=

> <r_lp_tautomer_probability>
1

> <r_epik_Ionization_Penalty>
2.76303

> <r_epik_Ionization_Penalty_Charging>
2.75358

> <r_epik_Ionization_Penalty_Neutral>
0.00945191

> <r_epik_State_Penalty>
2.93489

> <r_epik_Charging_Adjusted_Penalty>
5.68847

> <i_epik_Tot_Q>
-1

> <i_epik_Tot_abs_Q>
1

> <r_epik_Metal_State_Penalty>
0.838637

> <b_epik_Metal_Only>
1

> <s_lp_Force_Field>
OPLS_2005

> <r_lp_Energy>
17.6636

> <b_lp_Chiralities_Consistent>
1

> <s_lp_Variant>
AV-unprocessed.smi:1513-4

> <Gold.Version>
5.8.1

> <Gold.Id.Protein>
6NUR|6NUR_protein|mol2

> <Gold.PLP.Fitness>
44.0032

> <Gold.PLP.PLP>
-32.3575

> <Gold.PLP.part.hbond>
-3.3416

> <Gold.PLP.part.metal>
0.0000

> <Gold.PLP.part.buried>
-3.5991

> <Gold.PLP.part.nonpolar>
-25.6494

> <Gold.PLP.part.repulsive>
0.1780

> <Gold.PLP.ligand.clash>
0.0000

> <Gold.PLP.ligand.torsion>
0.2913

> <Gold.PLP.Chemscore.Hbond>
4.0032

> <Gold.PLP.Chemscore.CHOScore>
0.0000

> <Gold.PLP.Chemscore.Metal>
0.0000

> <Gold.Chemscore.Hbonds>
donor molecule, donor type, donor heavy atom, donor atom, acceptor molecule, acceptor atom, score
      P1  H  6896  6909       L1     1  2.00
      P1  H  7989  7998       L1    16  0.90
      P1  H 10752 10763       L1     4  1.00

> <Gold.PLP.Chemscore.Internal.Correction>
0.2189

> <Gold.Rescore>
     Score         DG    S(hbond)    S(metal)    S(lipo)     H(rot)  DE(clash)    DE(int)     intcor
     14.78     -16.33       2.58        0.00      72.71       2.45       0.01       1.55       ----

> <Gold.Chemscore.Fitness>
14.7825

> <Gold.Chemscore.DG>
-16.3333

> <Gold.Chemscore.ZeroCoef>
-5.4800

> <Gold.Chemscore.Hbond>
2.5779

> <Gold.Chemscore.Metal>
0.0000

> <Gold.Chemscore.Lipo>
72.7112

> <Gold.Chemscore.Internal_Hbond>
0.0000

> <Gold.Chemscore.DEClash>
0.0052

> <Gold.Chemscore.DEInternal>
1.5456

> <Gold.Chemscore.Rot>
2.4470

> <Gold.Chemscore.Internal.Correction>
   9.000000E+99

> <Gold.Chemscore.Hbonds>
donor molecule, donor type, donor heavy atom, donor atom, acceptor molecule, acceptor atom, score
      P1  H  6896  6909       L1     1  0.83
      P1  H  7989  7998       L1    16  0.17
      P1  H 10752 10763       L1     4  0.95

> <Gold.Chemscore.Hbond.Weighted>
-8.6103

> <Gold.Chemscore.Metal.Weighted>
-0.0000

> <Gold.Chemscore.Lipo.Weighted>
-8.5072

> <Gold.Chemscore.Internal_Hbond.Weighted>
0.0000

> <Gold.Chemscore.DEClash.Weighted>
0.0052

> <Gold.Chemscore.DEInternal.Weighted>
1.5456

> <Gold.Chemscore.Rot.Weighted>
6.2642

> <Gold.Chemscore.Internal.Correction.Weighted>
   9.000000E+99

> <Gold.Protein.RotatedTorsions>
[ 6907 6896 6895 6894 ] final  155.74 input  -60.11 | X-H torsion
[ 7974 7965 7964 7962 ] final  -58.64 input  175.53 | X-H torsion
[ 8008 7997 7996 7995 ] final   52.65 input   59.86 | X-H torsion
[ 10167 10162 10161 10158 ] final  -40.81 input  -65.29 | X-H torsion
[ 10718 10713 10712 10709 ] final -171.80 input   66.30 | X-H torsion
[ 10763 10752 10751 10750 ] final  129.03 input  -60.55 | X-H torsion
[ 11005 11000 10999 10996 ] final  141.49 input  -57.11 | X-H torsion

> <Gold.Protein.ActiveResidues>
 VAL166  LYS551  ARG553  GLY616  TRP617  ASP618  TYR619  PRO620  LYS621  CYS622 
 ASP623  PHE694  ASN695  SER759  ASP760  ASP761  ALA762  ILE779  LEU786  VAL792 
 PHE793  MET794  SER795  GLU796  ALA797  LYS798  CYS799  TRP800  GLU811  SER814 

> <Gold.Protein.RotatedAtoms>
  152.0397  133.3972  159.4331 H   0  0  0  0  0  0  0  0  0  0  0  0  # atno 6907 bound_to 6896
  150.6876  134.3428  159.4884 H   0  0  0  0  0  0  0  0  0  0  0  0  # atno 6908 bound_to 6896
  152.1225  134.9195  160.0613 H   0  0  0  0  0  0  0  0  0  0  0  0  # atno 6909 bound_to 6896
  145.8369  140.8443  143.0055 H   0  0  0  0  0  0  0  0  0  0  0  0  # atno 7974 bound_to 7965
  155.4552  140.3459  155.4306 H   0  0  0  0  0  0  0  0  0  0  0  0  # atno 8008 bound_to 7997
  156.1195  140.1483  156.9254 H   0  0  0  0  0  0  0  0  0  0  0  0  # atno 8009 bound_to 7997
  154.4813  140.0869  156.7363 H   0  0  0  0  0  0  0  0  0  0  0  0  # atno 8010 bound_to 7997
  140.7023  143.3131  151.2977 H   0  0  0  0  0  0  0  0  0  0  0  0  # atno 10167 bound_to 10162
  156.7462  130.9361  151.3112 H   0  0  0  0  0  0  0  0  0  0  0  0  # atno 10718 bound_to 10713
  153.7352  135.3232  155.3293 H   0  0  0  0  0  0  0  0  0  0  0  0  # atno 10763 bound_to 10752
  154.8313  135.4531  154.1082 H   0  0  0  0  0  0  0  0  0  0  0  0  # atno 10764 bound_to 10752
  153.2241  135.6952  153.8047 H   0  0  0  0  0  0  0  0  0  0  0  0  # atno 10765 bound_to 10752
  140.0405  134.9307  157.0834 H   0  0  0  0  0  0  0  0  0  0  0  0  # atno 11005 bound_to 11000
  144.6736  140.0754  143.7471 LP  0  0  0  0  0  0  0  0  0  0  0  0  # atno 17320 bound_to 7965
  145.9509  139.2733  143.1213 LP  0  0  0  0  0  0  0  0  0  0  0  0  # atno 17321 bound_to 7965
  139.6561  144.0274  152.2660 LP  0  0  0  0  0  0  0  0  0  0  0  0  # atno 17342 bound_to 10162
  139.9826  144.6418  150.7887 LP  0  0  0  0  0  0  0  0  0  0  0  0  # atno 17343 bound_to 10162
  157.6797  130.9128  150.0237 LP  0  0  0  0  0  0  0  0  0  0  0  0  # atno 17370 bound_to 10713
  156.1432  130.3642  149.9551 LP  0  0  0  0  0  0  0  0  0  0  0  0  # atno 17371 bound_to 10713
  140.4077  134.2015  155.7163 LP  0  0  0  0  0  0  0  0  0  0  0  0  # atno 17394 bound_to 11000
  141.1880  133.8268  157.1009 LP  0  0  0  0  0  0  0  0  0  0  0  0  # atno 17395 bound_to 11000

$$$$
