AV-unprocessed.smi:640|AV-procd|sdf|3150|dock5
  -GOLD-   22720 0 73D 1   1.00000     0.00000
 Structure written by MMmdl.
 38 40  0  0  0  0  0  0  0  0  3 V2000
  154.5124  139.9962  159.3527 O   0  0  0  0  0  0  0  0  0  0  0  0
  153.3123  139.8689  159.5980 C   0  0  0  0  0  0  0  0  0  0  0  0
  152.6823  138.4733  159.7037 C   0  0  0  0  0  0  0  0  0  0  0  0
  151.7287  138.1929  158.6175 N   0  0  0  0  0  0  0  0  0  0  0  0
  152.0501  138.6846  157.3367 C   0  0  0  0  0  0  0  0  0  0  0  0
  151.2528  138.4786  156.2701 C   0  0  0  0  0  0  0  0  0  0  0  0
  151.6014  138.9841  154.9604 N   0  3  0  0  0  0  0  0  0  0  0  0
  150.7028  139.1905  154.1510 O   0  0  0  0  0  0  0  0  0  0  0  0
  152.7821  139.1919  154.6971 O   0  5  0  0  0  0  0  0  0  0  0  0
  150.0304  137.7262  156.4775 C   0  0  0  0  0  0  0  0  0  0  0  0
  149.7197  137.2499  157.6991 C   0  0  0  0  0  0  0  0  0  0  0  0
  150.5921  137.4699  158.8571 C   0  0  0  0  0  0  0  0  0  0  0  0
  150.3177  137.0310  159.9742 O   0  0  0  0  0  0  0  0  0  0  0  0
  152.4779  140.9068  159.7639 N   0  0  0  0  0  0  0  0  0  0  0  0
  152.8482  142.3163  159.6922 C   0  0  0  0  0  0  0  0  0  0  0  0
  153.3502  142.8320  161.0284 C   0  0  0  0  0  0  0  0  0  0  0  0
  153.7228  141.8874  162.1468 C   0  0  0  0  0  0  0  0  0  0  0  0
  152.4896  142.7550  162.2664 C   0  0  0  0  0  0  0  0  0  0  0  0
  151.7117  143.1857  159.1815 C   0  0  0  0  0  0  0  0  0  0  0  0
  151.4318  143.3245  157.7039 C   0  0  0  0  0  0  0  0  0  0  0  0
  151.9777  144.4989  158.4837 C   0  0  0  0  0  0  0  0  0  0  0  0
  153.4666  137.7140  159.7219 H   0  0  0  0  0  0  0  0  0  0  0  0
  152.1912  138.3978  160.6748 H   0  0  0  0  0  0  0  0  0  0  0  0
  152.9844  139.2250  157.2857 H   0  0  0  0  0  0  0  0  0  0  0  0
  149.3558  137.5382  155.6552 H   0  0  0  0  0  0  0  0  0  0  0  0
  148.8046  136.6912  157.8308 H   0  0  0  0  0  0  0  0  0  0  0  0
  151.5074  140.7044  159.9559 H   0  0  0  0  0  0  0  0  0  0  0  0
  153.6773  142.4176  158.9885 H   0  0  0  0  0  0  0  0  0  0  0  0
  153.9696  143.7233  160.9427 H   0  0  0  0  0  0  0  0  0  0  0  0
  153.5688  140.8217  161.9896 H   0  0  0  0  0  0  0  0  0  0  0  0
  154.5839  142.1486  162.7584 H   0  0  0  0  0  0  0  0  0  0  0  0
  152.5291  143.5938  162.9581 H   0  0  0  0  0  0  0  0  0  0  0  0
  151.5207  142.2666  162.1802 H   0  0  0  0  0  0  0  0  0  0  0  0
  150.8342  143.1690  159.8256 H   0  0  0  0  0  0  0  0  0  0  0  0
  152.1064  142.8282  157.0092 H   0  0  0  0  0  0  0  0  0  0  0  0
  150.3898  143.3654  157.3933 H   0  0  0  0  0  0  0  0  0  0  0  0
  151.2997  145.3242  158.6914 H   0  0  0  0  0  0  0  0  0  0  0  0
  153.0125  144.7803  158.2993 H   0  0  0  0  0  0  0  0  0  0  0  0
  1  2  2  0  0  0  0
  2  3  1  0  0  0  0
  2 14  1  0  0  0  0
  3  4  1  0  0  0  0
  3 22  1  0  0  0  0
  3 23  1  0  0  0  0
  4 12  1  0  0  0  0
  4  5  1  0  0  0  0
  5  6  2  0  0  0  0
  5 24  1  0  0  0  0
  6  7  1  0  0  0  0
  6 10  1  0  0  0  0
  7  8  2  0  0  0  0
  7  9  1  0  0  0  0
 10 11  2  0  0  0  0
 10 25  1  0  0  0  0
 11 12  1  0  0  0  0
 11 26  1  0  0  0  0
 12 13  2  0  0  0  0
 14 15  1  0  0  0  0
 14 27  1  0  0  0  0
 15 16  1  0  0  0  0
 15 19  1  0  0  0  0
 15 28  1  0  0  0  0
 16 18  1  0  0  0  0
 16 17  1  0  0  0  0
 16 29  1  0  0  0  0
 17 18  1  0  0  0  0
 17 30  1  0  0  0  0
 17 31  1  0  0  0  0
 18 32  1  0  0  0  0
 18 33  1  0  0  0  0
 19 21  1  0  0  0  0
 19 20  1  0  0  0  0
 19 34  1  0  0  0  0
 20 21  1  0  0  0  0
 20 35  1  0  0  0  0
 20 36  1  0  0  0  0
 21 37  1  0  0  0  0
 21 38  1  0  0  0  0
M  CHG  1   7   1
M  CHG  1   9  -1
M  END
> <s_m_source_file>
AV-unprocessed.smi

> <i_m_source_file_index>
640

> <i_lp_mmshare_version>
43012

> <i_f3d_flags>
0

> <s_epik_input>
W0NIMl0xW0NIMl1bQ0hdMVtDSF0oW0NIXTJbQ0gyXVtDSDJdMilbTkhdQyg9TylbQ0gyXW4zW2NIXWMoW04rXSg9TylbTy1dKVtjSF1bY0hdYzM9Tw==

> <s_epik_cmdline>
J2VwaWtfcHl0aG9uJywgJy1waCcsICc3LjAnLCAnLXRuJywgJzgnLCAnLW1hJywgJzIwMCcsICctbWV0YWxfYmluZGluZycsICctaW1hZScsICc8aW5maWxlLm1hZT4nLCAnLW9tYWUnLCAnPG91dGZpbGUubWFlPic=

> <r_lp_tautomer_probability>
1

> <r_epik_Ionization_Penalty>
2.04963e-08

> <r_epik_Ionization_Penalty_Charging>
8.36809e-11

> <r_epik_Ionization_Penalty_Neutral>
2.04126e-08

> <r_epik_State_Penalty>
-0

> <r_epik_Charging_Adjusted_Penalty>
8.36809e-11

> <i_epik_Tot_Q>
0

> <i_epik_Tot_abs_Q>
2

> <r_epik_Metal_State_Penalty>
-0

> <b_epik_Metal_Only>
0

> <s_lp_Force_Field>
OPLS_2005

> <r_lp_Energy>
35.0527

> <b_lp_Chiralities_Consistent>
1

> <s_lp_Variant>
AV-unprocessed.smi:640-1

> <Gold.Version>
5.8.1

> <Gold.Id.Protein>
6NUR|6NUR_protein|mol2

> <Gold.PLP.Fitness>
49.0488

> <Gold.PLP.PLP>
-40.0148

> <Gold.PLP.part.hbond>
-5.2971

> <Gold.PLP.part.metal>
0.0000

> <Gold.PLP.part.buried>
-2.8567

> <Gold.PLP.part.nonpolar>
-31.9945

> <Gold.PLP.part.repulsive>
0.3456

> <Gold.PLP.ligand.clash>
0.0000

> <Gold.PLP.ligand.torsion>
2.1570

> <Gold.PLP.Chemscore.Hbond>
3.7363

> <Gold.PLP.Chemscore.CHOScore>
0.0000

> <Gold.PLP.Chemscore.Metal>
0.0000

> <Gold.Chemscore.Hbonds>
donor molecule, donor type, donor heavy atom, donor atom, acceptor molecule, acceptor atom, score
      P1  H  6896  6908       L1    13  0.80
      P1  H  7989  7998       L1     8  0.55
      P1  H  7997  8008       L1     9  0.32
      P1  H  7997  8010       L1     1  0.81

> <Gold.PLP.Chemscore.Internal.Correction>
2.1392

> <Gold.Rescore>
     Score         DG    S(hbond)    S(metal)    S(lipo)     H(rot)  DE(clash)    DE(int)     intcor
     19.20     -21.09       2.70        0.00      98.79       1.94       0.10       1.79       ----

> <Gold.Chemscore.Fitness>
19.1965

> <Gold.Chemscore.DG>
-21.0887

> <Gold.Chemscore.ZeroCoef>
-5.4800

> <Gold.Chemscore.Hbond>
2.6981

> <Gold.Chemscore.Metal>
0.0000

> <Gold.Chemscore.Lipo>
98.7889

> <Gold.Chemscore.Internal_Hbond>
0.0000

> <Gold.Chemscore.DEClash>
0.1005

> <Gold.Chemscore.DEInternal>
1.7916

> <Gold.Chemscore.Rot>
1.9380

> <Gold.Chemscore.Internal.Correction>
   9.000000E+99

> <Gold.Chemscore.Hbonds>
donor molecule, donor type, donor heavy atom, donor atom, acceptor molecule, acceptor atom, score
      P1  H  6896  6908       L1    13  0.24
      P1  H  7989  7998       L1     8  0.03
      P1  H  7997  8008       L1     9  0.33
      P1  H  7997  8010       L1     1  0.75

> <Gold.Chemscore.Hbond.Weighted>
-9.0117

> <Gold.Chemscore.Metal.Weighted>
-0.0000

> <Gold.Chemscore.Lipo.Weighted>
-11.5583

> <Gold.Chemscore.Internal_Hbond.Weighted>
0.0000

> <Gold.Chemscore.DEClash.Weighted>
0.1005

> <Gold.Chemscore.DEInternal.Weighted>
1.7916

> <Gold.Chemscore.Rot.Weighted>
4.9613

> <Gold.Chemscore.Internal.Correction.Weighted>
   9.000000E+99

> <Gold.Protein.RotatedTorsions>
[ 6907 6896 6895 6894 ] final -150.36 input  -60.11 | X-H torsion
[ 7974 7965 7964 7962 ] final  112.79 input  175.53 | X-H torsion
[ 8008 7997 7996 7995 ] final   -4.48 input   59.86 | X-H torsion
[ 10167 10162 10161 10158 ] final  -36.47 input  -65.29 | X-H torsion
[ 10718 10713 10712 10709 ] final  158.44 input   66.30 | X-H torsion
[ 10763 10752 10751 10750 ] final  -13.90 input  -60.55 | X-H torsion
[ 11005 11000 10999 10996 ] final  -13.24 input  -57.11 | X-H torsion

> <Gold.Protein.ActiveResidues>
 VAL166  LYS551  ARG553  GLY616  TRP617  ASP618  TYR619  PRO620  LYS621  CYS622 
 ASP623  PHE694  ASN695  SER759  ASP760  ASP761  ALA762  ILE779  LEU786  VAL792 
 PHE793  MET794  SER795  GLU796  ALA797  LYS798  CYS799  TRP800  GLU811  SER814 

> <Gold.Protein.RotatedAtoms>
  151.1974  133.4631  159.2595 H   0  0  0  0  0  0  0  0  0  0  0  0  # atno 6907 bound_to 6896
  151.1103  135.0022  159.8501 H   0  0  0  0  0  0  0  0  0  0  0  0  # atno 6908 bound_to 6896
  152.5450  134.1894  159.8721 H   0  0  0  0  0  0  0  0  0  0  0  0  # atno 6909 bound_to 6896
  145.2251  139.2844  143.4198 H   0  0  0  0  0  0  0  0  0  0  0  0  # atno 7974 bound_to 7965
  154.6139  140.2483  155.7634 H   0  0  0  0  0  0  0  0  0  0  0  0  # atno 8008 bound_to 7997
  156.2387  140.2941  156.0333 H   0  0  0  0  0  0  0  0  0  0  0  0  # atno 8009 bound_to 7997
  155.2007  140.0394  157.2907 H   0  0  0  0  0  0  0  0  0  0  0  0  # atno 8010 bound_to 7997
  140.7142  143.3407  151.2364 H   0  0  0  0  0  0  0  0  0  0  0  0  # atno 10167 bound_to 10162
  157.1778  131.0625  151.2148 H   0  0  0  0  0  0  0  0  0  0  0  0  # atno 10718 bound_to 10713
  153.5203  135.7016  153.5735 H   0  0  0  0  0  0  0  0  0  0  0  0  # atno 10763 bound_to 10752
  153.3787  135.3926  155.1841 H   0  0  0  0  0  0  0  0  0  0  0  0  # atno 10764 bound_to 10752
  154.8695  135.3829  154.4691 H   0  0  0  0  0  0  0  0  0  0  0  0  # atno 10765 bound_to 10752
  140.7741  133.8415  155.9233 H   0  0  0  0  0  0  0  0  0  0  0  0  # atno 11005 bound_to 11000
  146.3367  140.2568  142.8600 LP  0  0  0  0  0  0  0  0  0  0  0  0  # atno 17320 bound_to 7965
  144.9729  140.8386  143.5444 LP  0  0  0  0  0  0  0  0  0  0  0  0  # atno 17321 bound_to 7965
  139.6913  143.9687  152.2861 LP  0  0  0  0  0  0  0  0  0  0  0  0  # atno 17342 bound_to 10162
  139.9349  144.6718  150.8325 LP  0  0  0  0  0  0  0  0  0  0  0  0  # atno 17343 bound_to 10162
  157.3982  130.7319  149.6747 LP  0  0  0  0  0  0  0  0  0  0  0  0  # atno 17370 bound_to 10713
  155.9729  130.4128  150.4050 LP  0  0  0  0  0  0  0  0  0  0  0  0  # atno 17371 bound_to 10713
  140.9546  134.1735  157.4702 LP  0  0  0  0  0  0  0  0  0  0  0  0  # atno 17394 bound_to 11000
  139.8751  134.9922  156.5585 LP  0  0  0  0  0  0  0  0  0  0  0  0  # atno 17395 bound_to 11000

$$$$
