AV-unprocessed.smi:1222|AV-procd|sdf|5123|dock10
  -GOLD-   22720 4183D 1   1.00000     0.00000
 Structure written by MMmdl.
 36 38  0  0  0  0  0  0  0  0  3 V2000
  152.9151  139.9410  157.6370 O   0  0  0  0  0  0  0  0  0  0  0  0
  152.3491  140.3914  158.6357 C   0  0  0  0  0  0  0  0  0  0  0  0
  152.9082  140.6035  159.8482 N   0  5  0  0  0  0  0  0  0  0  0  0
  152.7514  141.7877  160.4621 C   0  0  0  0  0  0  0  0  0  0  0  0
  153.0185  141.9772  161.7594 N   0  0  0  0  0  0  0  0  0  0  0  0
  152.7901  143.2861  162.1875 C   0  0  0  0  0  0  0  0  0  0  0  0
  152.3462  144.1146  161.1913 C   0  0  0  0  0  0  0  0  0  0  0  0
  152.2026  143.2706  159.6758 S   0  0  0  0  0  0  0  0  0  0  0  0
  151.0519  140.7248  158.5760 N   0  0  0  0  0  0  0  0  0  0  0  0
  150.1900  140.6096  157.4036 C   0  0  2  0  0  0  0  0  0  0  0  0
  150.8209  141.3144  156.1875 C   0  0  0  0  0  0  0  0  0  0  0  0
  149.8693  141.2963  154.9807 C   0  0  0  0  0  0  0  0  0  0  0  0
  148.5627  141.9096  155.3249 N   0  3  1  0  0  0  0  0  0  0  0  0
  147.6685  142.0133  154.1514 C   0  0  0  0  0  0  0  0  0  0  0  0
  146.2076  142.1549  154.5101 C   0  0  0  0  0  0  0  0  0  0  0  0
  146.7355  140.8353  153.9926 C   0  0  0  0  0  0  0  0  0  0  0  0
  147.9132  141.2143  156.4634 C   0  0  0  0  0  0  0  0  0  0  0  0
  148.8169  141.2315  157.7069 C   0  0  0  0  0  0  0  0  0  0  0  0
  152.9699  143.5405  163.2216 H   0  0  0  0  0  0  0  0  0  0  0  0
  152.0973  145.1630  161.2546 H   0  0  0  0  0  0  0  0  0  0  0  0
  150.6322  141.0868  159.4197 H   0  0  0  0  0  0  0  0  0  0  0  0
  150.0433  139.5534  157.1698 H   0  0  0  0  0  0  0  0  0  0  0  0
  151.0641  142.3473  156.4421 H   0  0  0  0  0  0  0  0  0  0  0  0
  151.7619  140.8340  155.9173 H   0  0  0  0  0  0  0  0  0  0  0  0
  150.3232  141.8414  154.1524 H   0  0  0  0  0  0  0  0  0  0  0  0
  149.7144  140.2716  154.6396 H   0  0  0  0  0  0  0  0  0  0  0  0
  148.0744  142.5192  153.2770 H   0  0  0  0  0  0  0  0  0  0  0  0
  145.9376  142.2093  155.5634 H   0  0  0  0  0  0  0  0  0  0  0  0
  145.5802  142.7383  153.8392 H   0  0  0  0  0  0  0  0  0  0  0  0
  146.4549  140.5488  152.9809 H   0  0  0  0  0  0  0  0  0  0  0  0
  146.8164  140.0139  154.7026 H   0  0  0  0  0  0  0  0  0  0  0  0
  146.9653  141.7004  156.6968 H   0  0  0  0  0  0  0  0  0  0  0  0
  147.6812  140.1860  156.1808 H   0  0  0  0  0  0  0  0  0  0  0  0
  148.3336  140.6917  158.5223 H   0  0  0  0  0  0  0  0  0  0  0  0
  148.9422  142.2604  158.0487 H   0  0  0  0  0  0  0  0  0  0  0  0
  148.7552  142.8531  155.6297 H   0  0  0  0  0  0  0  0  0  0  0  0
  1  2  2  0  0  0  0
  2  3  1  0  0  0  0
  2  9  1  0  0  0  0
  3  4  1  0  0  0  0
  4  8  1  0  0  0  0
  4  5  2  0  0  0  0
  5  6  1  0  0  0  0
  6  7  2  0  0  0  0
  6 19  1  0  0  0  0
  7  8  1  0  0  0  0
  7 20  1  0  0  0  0
  9 10  1  0  0  0  0
  9 21  1  0  0  0  0
 10 18  1  0  0  0  0
 10 11  1  0  0  0  0
 10 22  1  0  0  0  0
 11 12  1  0  0  0  0
 11 23  1  0  0  0  0
 11 24  1  0  0  0  0
 12 13  1  0  0  0  0
 12 25  1  0  0  0  0
 12 26  1  0  0  0  0
 13 14  1  0  0  0  0
 13 17  1  0  0  0  0
 13 36  1  0  0  0  0
 14 16  1  0  0  0  0
 14 15  1  0  0  0  0
 14 27  1  0  0  0  0
 15 16  1  0  0  0  0
 15 28  1  0  0  0  0
 15 29  1  0  0  0  0
 16 30  1  0  0  0  0
 16 31  1  0  0  0  0
 17 18  1  0  0  0  0
 17 32  1  0  0  0  0
 17 33  1  0  0  0  0
 18 34  1  0  0  0  0
 18 35  1  0  0  0  0
M  CHG  1   3  -1
M  CHG  1  13   1
M  END
> <s_m_source_file>
AV-unprocessed.smi

> <i_m_source_file_index>
1222

> <i_lp_mmshare_version>
43012

> <i_f3d_flags>
0

> <s_epik_input>
czFbY0hdW2NIXW5jMVtOSF1DKD1PKVtOSF1bQ0hdMltDSDJdW0NIMl1OKFtDSDJdW0NIMl0yKVtDSF0zW0NIMl1bQ0gyXTM=

> <s_epik_cmdline>
J2VwaWtfcHl0aG9uJywgJy1waCcsICc3LjAnLCAnLXRuJywgJzgnLCAnLW1hJywgJzIwMCcsICctbWV0YWxfYmluZGluZycsICctaW1hZScsICc8aW5maWxlLm1hZT4nLCAnLW9tYWUnLCAnPG91dGZpbGUubWFlPic=

> <r_lp_tautomer_probability>
0.999

> <r_epik_Ionization_Penalty>
6.4609

> <r_epik_Ionization_Penalty_Charging>
5.58663

> <r_epik_Ionization_Penalty_Neutral>
0.874262

> <r_epik_State_Penalty>
5.57752

> <r_epik_Charging_Adjusted_Penalty>
11.1642

> <i_epik_Tot_Q>
0

> <i_epik_Tot_abs_Q>
2

> <r_epik_Metal_State_Penalty>
1.58738

> <b_epik_Metal_Only>
1

> <s_lp_Force_Field>
OPLS_2005

> <r_lp_Energy>
15.8934

> <b_lp_Chiralities_Consistent>
1

> <s_lp_Variant>
AV-unprocessed.smi:1222-4

> <Gold.Version>
5.8.1

> <Gold.Id.Protein>
6NUR|6NUR_protein|mol2

> <Gold.PLP.Fitness>
44.4348

> <Gold.PLP.PLP>
-36.4977

> <Gold.PLP.part.hbond>
-2.0000

> <Gold.PLP.part.metal>
0.0000

> <Gold.PLP.part.buried>
-4.9244

> <Gold.PLP.part.nonpolar>
-28.9375

> <Gold.PLP.part.repulsive>
0.3345

> <Gold.PLP.ligand.clash>
0.0000

> <Gold.PLP.ligand.torsion>
1.1641

> <Gold.PLP.Chemscore.Hbond>
3.0000

> <Gold.PLP.Chemscore.CHOScore>
0.0000

> <Gold.PLP.Chemscore.Metal>
0.0000

> <Gold.Chemscore.Hbonds>
donor molecule, donor type, donor heavy atom, donor atom, acceptor molecule, acceptor atom, score
      L1  H    13    36       P1  8028  2.00
      P1  H  7997  8010       L1     1  1.00

> <Gold.PLP.Chemscore.Internal.Correction>
1.2653

> <Gold.Rescore>
     Score         DG    S(hbond)    S(metal)    S(lipo)     H(rot)  DE(clash)    DE(int)     intcor
     15.67     -18.24       1.99        0.00      79.50       1.25       0.13       2.44       ----

> <Gold.Chemscore.Fitness>
15.6722

> <Gold.Chemscore.DG>
-18.2367

> <Gold.Chemscore.ZeroCoef>
-5.4800

> <Gold.Chemscore.Hbond>
1.9902

> <Gold.Chemscore.Metal>
0.0000

> <Gold.Chemscore.Lipo>
79.5042

> <Gold.Chemscore.Internal_Hbond>
0.0000

> <Gold.Chemscore.DEClash>
0.1271

> <Gold.Chemscore.DEInternal>
2.4375

> <Gold.Chemscore.Rot>
1.2470

> <Gold.Chemscore.Internal.Correction>
   9.000000E+99

> <Gold.Chemscore.Hbonds>
donor molecule, donor type, donor heavy atom, donor atom, acceptor molecule, acceptor atom, score
      L1  H    13    36       P1  8028  1.00
      P1  H  7997  8010       L1     1  0.96

> <Gold.Chemscore.Hbond.Weighted>
-6.6471

> <Gold.Chemscore.Metal.Weighted>
-0.0000

> <Gold.Chemscore.Lipo.Weighted>
-9.3020

> <Gold.Chemscore.Internal_Hbond.Weighted>
0.0000

> <Gold.Chemscore.DEClash.Weighted>
0.1271

> <Gold.Chemscore.DEInternal.Weighted>
2.4375

> <Gold.Chemscore.Rot.Weighted>
3.1924

> <Gold.Chemscore.Internal.Correction.Weighted>
   9.000000E+99

> <Gold.Protein.RotatedTorsions>
[ 6907 6896 6895 6894 ] final  159.51 input  -60.11 | X-H torsion
[ 7974 7965 7964 7962 ] final   26.23 input  175.53 | X-H torsion
[ 8008 7997 7996 7995 ] final   60.06 input   59.86 | X-H torsion
[ 10167 10162 10161 10158 ] final   81.59 input  -65.29 | X-H torsion
[ 10718 10713 10712 10709 ] final  -54.77 input   66.30 | X-H torsion
[ 10763 10752 10751 10750 ] final   65.93 input  -60.55 | X-H torsion
[ 11005 11000 10999 10996 ] final -172.11 input  -57.11 | X-H torsion

> <Gold.Protein.ActiveResidues>
 VAL166  LYS551  ARG553  GLY616  TRP617  ASP618  TYR619  PRO620  LYS621  CYS622 
 ASP623  PHE694  ASN695  SER759  ASP760  ASP761  ALA762  ILE779  LEU786  VAL792 
 PHE793  MET794  SER795  GLU796  ALA797  LYS798  CYS799  TRP800  GLU811  SER814 

> <Gold.Protein.RotatedAtoms>
  151.9845  133.3769  159.4120 H   0  0  0  0  0  0  0  0  0  0  0  0  # atno 6907 bound_to 6896
  150.6930  134.4003  159.5125 H   0  0  0  0  0  0  0  0  0  0  0  0  # atno 6908 bound_to 6896
  152.1727  134.8820  160.0584 H   0  0  0  0  0  0  0  0  0  0  0  0  # atno 6909 bound_to 6896
  146.1848  139.7357  142.8874 H   0  0  0  0  0  0  0  0  0  0  0  0  # atno 7974 bound_to 7965
  155.5763  140.3491  155.4528 H   0  0  0  0  0  0  0  0  0  0  0  0  # atno 8008 bound_to 7997
  156.0407  140.1295  157.0184 H   0  0  0  0  0  0  0  0  0  0  0  0  # atno 8009 bound_to 7997
  154.4390  140.1024  156.6218 H   0  0  0  0  0  0  0  0  0  0  0  0  # atno 8010 bound_to 7997
  139.9377  144.6110  150.8282 H   0  0  0  0  0  0  0  0  0  0  0  0  # atno 10167 bound_to 10162
  156.1423  130.4154  150.0082 H   0  0  0  0  0  0  0  0  0  0  0  0  # atno 10718 bound_to 10713
  153.0117  135.5339  154.6744 H   0  0  0  0  0  0  0  0  0  0  0  0  # atno 10763 bound_to 10752
  154.5920  135.2860  155.0627 H   0  0  0  0  0  0  0  0  0  0  0  0  # atno 10764 bound_to 10752
  154.1717  135.6531  153.5063 H   0  0  0  0  0  0  0  0  0  0  0  0  # atno 10765 bound_to 10752
  140.5006  134.5897  157.4986 H   0  0  0  0  0  0  0  0  0  0  0  0  # atno 11005 bound_to 11000
  145.3970  141.0380  143.3092 LP  0  0  0  0  0  0  0  0  0  0  0  0  # atno 17320 bound_to 7965
  144.8378  139.5521  143.6914 LP  0  0  0  0  0  0  0  0  0  0  0  0  # atno 17321 bound_to 7965
  140.7620  143.3187  151.2672 LP  0  0  0  0  0  0  0  0  0  0  0  0  # atno 17342 bound_to 10162
  139.6730  143.9986  152.2764 LP  0  0  0  0  0  0  0  0  0  0  0  0  # atno 17343 bound_to 10162
  156.7963  130.9274  151.3646 LP  0  0  0  0  0  0  0  0  0  0  0  0  # atno 17370 bound_to 10713
  157.6587  130.8947  149.9783 LP  0  0  0  0  0  0  0  0  0  0  0  0  # atno 17371 bound_to 10713
  139.9715  134.7284  156.0031 LP  0  0  0  0  0  0  0  0  0  0  0  0  # atno 17394 bound_to 11000
  141.1437  133.6560  156.3805 LP  0  0  0  0  0  0  0  0  0  0  0  0  # atno 17395 bound_to 11000

$$$$
