AV-unprocessed.smi:988|AV-procd|sdf|4324|dock5
  -GOLD-   22720 2223D 1   1.00000     0.00000
 Structure written by MMmdl.
 28 28  0  0  0  0  0  0  0  0  1 V2000
  151.5613  144.9755  159.8899 C   0  0  0  0  0  0  0  0  0  0  0  0
  151.6497  143.5825  160.1303 O   0  0  0  0  0  0  0  0  0  0  0  0
  152.9901  143.1216  160.1851 C   0  0  0  0  0  0  0  0  0  0  0  0
  153.0745  141.7066  159.5943 C   0  0  0  0  0  0  0  0  0  0  0  0
  151.9450  141.4423  158.7110 N   0  0  0  0  0  0  0  0  0  0  0  0
  151.9418  140.5579  157.7016 C   0  0  0  0  0  0  0  0  0  0  0  0
  152.8792  139.7992  157.4560 O   0  0  0  0  0  0  0  0  0  0  0  0
  150.6953  140.5427  156.8171 C   0  0  0  0  0  0  0  0  0  0  0  0
  150.8169  139.5381  155.7751 N   0  0  0  0  0  0  0  0  0  0  0  0
  150.9733  138.1743  155.9152 C   0  0  0  0  0  0  0  0  0  0  0  0
  151.0586  137.6449  154.6596 C   0  0  0  0  0  0  0  0  0  0  0  0
  151.2266  136.2871  154.3288 N   0  0  0  0  0  0  0  0  0  0  0  0
  150.9399  138.7770  153.8050 C   0  0  0  0  0  0  0  0  0  0  0  0
  150.7955  139.9089  154.4754 N   0  0  0  0  0  0  0  0  0  0  0  0
  150.5138  145.2736  159.8480 H   0  0  0  0  0  0  0  0  0  0  0  0
  152.0270  145.2431  158.9406 H   0  0  0  0  0  0  0  0  0  0  0  0
  152.0403  145.5432  160.6886 H   0  0  0  0  0  0  0  0  0  0  0  0
  153.6294  143.7973  159.6151 H   0  0  0  0  0  0  0  0  0  0  0  0
  153.3533  143.1210  161.2144 H   0  0  0  0  0  0  0  0  0  0  0  0
  154.0265  141.5573  159.0823 H   0  0  0  0  0  0  0  0  0  0  0  0
  153.0404  140.9743  160.4014 H   0  0  0  0  0  0  0  0  0  0  0  0
  151.1266  142.0211  158.8330 H   0  0  0  0  0  0  0  0  0  0  0  0
  149.8125  140.3187  157.4173 H   0  0  0  0  0  0  0  0  0  0  0  0
  150.5404  141.5252  156.3681 H   0  0  0  0  0  0  0  0  0  0  0  0
  151.0152  137.7035  156.8868 H   0  0  0  0  0  0  0  0  0  0  0  0
  151.2998  135.5705  155.0370 H   0  0  0  0  0  0  0  0  0  0  0  0
  151.2818  135.9734  153.3702 H   0  0  0  0  0  0  0  0  0  0  0  0
  150.9549  138.8105  152.7256 H   0  0  0  0  0  0  0  0  0  0  0  0
  1  2  1  0  0  0  0
  1 15  1  0  0  0  0
  1 16  1  0  0  0  0
  1 17  1  0  0  0  0
  2  3  1  0  0  0  0
  3  4  1  0  0  0  0
  3 18  1  0  0  0  0
  3 19  1  0  0  0  0
  4  5  1  0  0  0  0
  4 20  1  0  0  0  0
  4 21  1  0  0  0  0
  5  6  1  0  0  0  0
  5 22  1  0  0  0  0
  6  7  2  0  0  0  0
  6  8  1  0  0  0  0
  8  9  1  0  0  0  0
  8 23  1  0  0  0  0
  8 24  1  0  0  0  0
  9 14  1  0  0  0  0
  9 10  1  0  0  0  0
 10 11  2  0  0  0  0
 10 25  1  0  0  0  0
 11 12  1  0  0  0  0
 11 13  1  0  0  0  0
 12 26  1  0  0  0  0
 12 27  1  0  0  0  0
 13 14  2  0  0  0  0
 13 28  1  0  0  0  0
M  END
> <s_m_source_file>
AV-unprocessed.smi

> <i_m_source_file_index>
988

> <i_lp_mmshare_version>
43012

> <i_f3d_flags>
0

> <s_epik_input>
W0NIM11PW0NIMl1bQ0gyXVtOSF1DKD1PKVtDSDJdbjFbY0hdYyhbTkgyXSlbY0hdbjE=

> <s_epik_cmdline>
J2VwaWtfcHl0aG9uJywgJy1waCcsICc3LjAnLCAnLXRuJywgJzgnLCAnLW1hJywgJzIwMCcsICctbWV0YWxfYmluZGluZycsICctaW1hZScsICc8aW5maWxlLm1hZT4nLCAnLW9tYWUnLCAnPG91dGZpbGUubWFlPic=

> <r_lp_tautomer_probability>
1

> <r_epik_Ionization_Penalty>
0.00010261

> <r_epik_Ionization_Penalty_Charging>
0

> <r_epik_Ionization_Penalty_Neutral>
0.00010261

> <r_epik_State_Penalty>
-0

> <r_epik_Charging_Adjusted_Penalty>
0

> <i_epik_Tot_Q>
0

> <i_epik_Tot_abs_Q>
0

> <r_epik_Metal_State_Penalty>
-0

> <b_epik_Metal_Only>
0

> <s_lp_Force_Field>
OPLS_2005

> <r_lp_Energy>
5.59493

> <b_lp_Chiralities_Consistent>
1

> <s_lp_Variant>
AV-unprocessed.smi:988-1

> <Gold.Version>
5.8.1

> <Gold.Id.Protein>
6NUR|6NUR_protein|mol2

> <Gold.PLP.Fitness>
35.8795

> <Gold.PLP.PLP>
-26.0655

> <Gold.PLP.part.hbond>
-3.2912

> <Gold.PLP.part.metal>
0.0000

> <Gold.PLP.part.buried>
-4.4362

> <Gold.PLP.part.nonpolar>
-18.5843

> <Gold.PLP.part.repulsive>
1.0207

> <Gold.PLP.ligand.clash>
0.0000

> <Gold.PLP.ligand.torsion>
0.6764

> <Gold.PLP.Chemscore.Hbond>
2.9500

> <Gold.PLP.Chemscore.CHOScore>
0.7682

> <Gold.PLP.Chemscore.Metal>
0.0000

> <Gold.Chemscore.Hbonds>
donor molecule, donor type, donor heavy atom, donor atom, acceptor molecule, acceptor atom, score
      L1  H    12    27       P1  7949  1.00
      P1  H  7989  7998       L1    14  0.90
      P1  H  7997  8008       L1     7  1.00
      L1  C    13    28       P1  7957  0.64

> <Gold.PLP.Chemscore.Internal.Correction>
0.0122

> <Gold.Rescore>
     Score         DG    S(hbond)    S(metal)    S(lipo)     H(rot)  DE(clash)    DE(int)     intcor
     12.59     -13.48       1.99        0.00      62.27       2.31       0.05       0.83       ----

> <Gold.Chemscore.Fitness>
12.5921

> <Gold.Chemscore.DG>
-13.4768

> <Gold.Chemscore.ZeroCoef>
-5.4800

> <Gold.Chemscore.Hbond>
1.9858

> <Gold.Chemscore.Metal>
0.0000

> <Gold.Chemscore.Lipo>
62.2680

> <Gold.Chemscore.Internal_Hbond>
0.0000

> <Gold.Chemscore.DEClash>
0.0540

> <Gold.Chemscore.DEInternal>
0.8307

> <Gold.Chemscore.Rot>
2.3129

> <Gold.Chemscore.Internal.Correction>
   9.000000E+99

> <Gold.Chemscore.Hbonds>
donor molecule, donor type, donor heavy atom, donor atom, acceptor molecule, acceptor atom, score
      L1  H    12    27       P1  7949  0.55
      P1  H  7989  7998       L1    14  0.18
      P1  H  7997  8008       L1     7  0.99

> <Gold.Chemscore.Hbond.Weighted>
-6.6325

> <Gold.Chemscore.Metal.Weighted>
-0.0000

> <Gold.Chemscore.Lipo.Weighted>
-7.2854

> <Gold.Chemscore.Internal_Hbond.Weighted>
0.0000

> <Gold.Chemscore.DEClash.Weighted>
0.0540

> <Gold.Chemscore.DEInternal.Weighted>
0.8307

> <Gold.Chemscore.Rot.Weighted>
5.9211

> <Gold.Chemscore.Internal.Correction.Weighted>
   9.000000E+99

> <Gold.Protein.RotatedTorsions>
[ 6907 6896 6895 6894 ] final -130.56 input  -60.11 | X-H torsion
[ 7974 7965 7964 7962 ] final    3.51 input  175.53 | X-H torsion
[ 8008 7997 7996 7995 ] final  -57.93 input   59.86 | X-H torsion
[ 10167 10162 10161 10158 ] final -109.42 input  -65.29 | X-H torsion
[ 10718 10713 10712 10709 ] final  -48.94 input   66.30 | X-H torsion
[ 10763 10752 10751 10750 ] final -175.40 input  -60.55 | X-H torsion
[ 11005 11000 10999 10996 ] final  -51.68 input  -57.11 | X-H torsion

> <Gold.Protein.ActiveResidues>
 VAL166  LYS551  ARG553  GLY616  TRP617  ASP618  TYR619  PRO620  LYS621  CYS622 
 ASP623  PHE694  ASN695  SER759  ASP760  ASP761  ALA762  ILE779  LEU786  VAL792 
 PHE793  MET794  SER795  GLU796  ALA797  LYS798  CYS799  TRP800  GLU811  SER814 

> <Gold.Protein.RotatedAtoms>
  150.9411  133.6656  159.2790 H   0  0  0  0  0  0  0  0  0  0  0  0  # atno 6907 bound_to 6896
  151.4045  135.0975  159.9576 H   0  0  0  0  0  0  0  0  0  0  0  0  # atno 6908 bound_to 6896
  152.5069  133.8897  159.7442 H   0  0  0  0  0  0  0  0  0  0  0  0  # atno 6909 bound_to 6896
  146.2445  140.0674  142.8364 H   0  0  0  0  0  0  0  0  0  0  0  0  # atno 7974 bound_to 7965
  154.4288  140.1095  156.5877 H   0  0  0  0  0  0  0  0  0  0  0  0  # atno 8008 bound_to 7997
  155.6045  140.3493  155.4585 H   0  0  0  0  0  0  0  0  0  0  0  0  # atno 8009 bound_to 7997
  156.0147  140.1226  157.0408 H   0  0  0  0  0  0  0  0  0  0  0  0  # atno 8010 bound_to 7997
  140.1555  143.4163  152.1464 H   0  0  0  0  0  0  0  0  0  0  0  0  # atno 10167 bound_to 10162
  156.1940  130.4154  149.9332 H   0  0  0  0  0  0  0  0  0  0  0  0  # atno 10718 bound_to 10713
  154.5848  135.2839  155.0696 H   0  0  0  0  0  0  0  0  0  0  0  0  # atno 10763 bound_to 10752
  154.2018  135.6423  153.5093 H   0  0  0  0  0  0  0  0  0  0  0  0  # atno 10764 bound_to 10752
  153.0100  135.5471  154.6514 H   0  0  0  0  0  0  0  0  0  0  0  0  # atno 10765 bound_to 10752
  141.0884  133.6637  156.3913 H   0  0  0  0  0  0  0  0  0  0  0  0  # atno 11005 bound_to 11000
  145.0846  140.9244  143.4805 LP  0  0  0  0  0  0  0  0  0  0  0  0  # atno 17320 bound_to 7965
  145.0834  139.2943  143.5772 LP  0  0  0  0  0  0  0  0  0  0  0  0  # atno 17321 bound_to 7965
  139.5405  144.7252  151.4748 LP  0  0  0  0  0  0  0  0  0  0  0  0  # atno 17342 bound_to 10162
  140.6676  143.8364  150.6960 LP  0  0  0  0  0  0  0  0  0  0  0  0  # atno 17343 bound_to 10162
  156.7063  130.8952  151.3605 LP  0  0  0  0  0  0  0  0  0  0  0  0  # atno 17370 bound_to 10713
  157.6946  130.9269  150.0609 LP  0  0  0  0  0  0  0  0  0  0  0  0  # atno 17371 bound_to 10713
  140.5309  134.6213  157.5349 LP  0  0  0  0  0  0  0  0  0  0  0  0  # atno 17394 bound_to 11000
  139.9706  134.7299  156.0050 LP  0  0  0  0  0  0  0  0  0  0  0  0  # atno 17395 bound_to 11000

$$$$
