AV-unprocessed.smi:1464|AV-procd|sdf|5942|dock2
  -GOLD-   22720 6 23D 1   1.00000     0.00000
 Structure written by MMmdl.
 40 41  0  0  0  0  0  0  0  0  2 V2000
  152.3119  141.6286  158.5810 C   0  0  0  0  0  0  0  0  0  0  0  0
  151.4243  140.6588  157.7808 C   0  0  1  0  0  0  0  0  0  0  0  0
  151.2515  141.1785  156.3382 C   0  0  0  0  0  0  0  0  0  0  0  0
  150.3634  140.2567  155.4915 C   0  0  0  0  0  0  0  0  0  0  0  0
  150.9128  138.8228  155.4837 C   0  0  0  0  0  0  0  0  0  0  0  0
  151.0795  138.2683  156.9124 C   0  0  2  0  0  0  0  0  0  0  0  0
  149.7785  138.0732  157.5451 N   0  0  0  0  0  0  0  0  0  0  0  0
  149.4681  137.1797  158.4977 C   0  0  0  0  0  0  0  0  0  0  0  0
  150.2870  136.3939  158.9739 O   0  0  0  0  0  0  0  0  0  0  0  0
  148.0100  137.1507  158.9899 C   0  0  0  0  0  0  0  0  0  0  0  0
  147.8142  136.4277  160.2586 N   0  0  0  0  0  0  0  0  0  0  0  0
  147.4613  137.2909  161.3827 N   0  5  0  0  0  0  0  0  0  0  0  0
  147.1519  136.7261  162.5799 C   0  0  0  0  0  0  0  0  0  0  0  0
  146.8073  137.3848  163.5581 O   0  0  0  0  0  0  0  0  0  0  0  0
  147.2403  135.2800  162.6971 C   0  0  0  0  0  0  0  0  0  0  0  0
  147.5963  134.5096  161.6503 C   0  0  0  0  0  0  0  0  0  0  0  0
  147.9013  135.0690  160.3391 C   0  0  0  0  0  0  0  0  0  0  0  0
  148.1951  134.3684  159.3706 O   0  0  0  0  0  0  0  0  0  0  0  0
  151.9659  139.2004  157.7793 C   0  0  2  0  0  0  0  0  0  0  0  0
  152.1519  138.6274  159.1995 C   0  0  0  0  0  0  0  0  0  0  0  0
  153.3371  141.6274  158.2101 H   0  0  0  0  0  0  0  0  0  0  0  0
  152.3362  141.3730  159.6400 H   0  0  0  0  0  0  0  0  0  0  0  0
  151.9356  142.6497  158.5122 H   0  0  0  0  0  0  0  0  0  0  0  0
  150.4404  140.6593  158.2528 H   0  0  0  0  0  0  0  0  0  0  0  0
  150.8192  142.1795  156.3525 H   0  0  0  0  0  0  0  0  0  0  0  0
  152.2288  141.2734  155.8627 H   0  0  0  0  0  0  0  0  0  0  0  0
  149.3453  140.2642  155.8831 H   0  0  0  0  0  0  0  0  0  0  0  0
  150.3022  140.6350  154.4710 H   0  0  0  0  0  0  0  0  0  0  0  0
  150.2595  138.1761  154.8965 H   0  0  0  0  0  0  0  0  0  0  0  0
  151.8797  138.8122  154.9794 H   0  0  0  0  0  0  0  0  0  0  0  0
  151.5727  137.2969  156.8454 H   0  0  0  0  0  0  0  0  0  0  0  0
  149.0337  138.6807  157.2336 H   0  0  0  0  0  0  0  0  0  0  0  0
  147.6485  138.1764  159.0802 H   0  0  0  0  0  0  0  0  0  0  0  0
  147.4000  136.6970  158.2068 H   0  0  0  0  0  0  0  0  0  0  0  0
  147.0197  134.8133  163.6460 H   0  0  0  0  0  0  0  0  0  0  0  0
  147.6514  133.4395  161.7839 H   0  0  0  0  0  0  0  0  0  0  0  0
  152.9533  139.2184  157.3157 H   0  0  0  0  0  0  0  0  0  0  0  0
  151.2343  138.6952  159.7857 H   0  0  0  0  0  0  0  0  0  0  0  0
  152.9342  139.1532  159.7460 H   0  0  0  0  0  0  0  0  0  0  0  0
  152.4439  137.5776  159.1621 H   0  0  0  0  0  0  0  0  0  0  0  0
  1  2  1  0  0  0  0
  1 21  1  0  0  0  0
  1 22  1  0  0  0  0
  1 23  1  0  0  0  0
  2 19  1  0  0  0  0
  2  3  1  0  0  0  0
  2 24  1  0  0  0  0
  3  4  1  0  0  0  0
  3 25  1  0  0  0  0
  3 26  1  0  0  0  0
  4  5  1  0  0  0  0
  4 27  1  0  0  0  0
  4 28  1  0  0  0  0
  5  6  1  0  0  0  0
  5 29  1  0  0  0  0
  5 30  1  0  0  0  0
  6  7  1  0  0  0  0
  6 19  1  0  0  0  0
  6 31  1  0  0  0  0
  7  8  1  0  0  0  0
  7 32  1  0  0  0  0
  8  9  2  0  0  0  0
  8 10  1  0  0  0  0
 10 33  1  0  0  0  0
 10 34  1  0  0  0  0
 10 11  1  0  0  0  0
 11 12  1  0  0  0  0
 11 17  1  0  0  0  0
 12 13  1  0  0  0  0
 13 14  2  0  0  0  0
 13 15  1  0  0  0  0
 15 35  1  0  0  0  0
 15 16  2  0  0  0  0
 16 36  1  0  0  0  0
 16 17  1  0  0  0  0
 17 18  2  0  0  0  0
 19 20  1  0  0  0  0
 19 37  1  0  0  0  0
 20 38  1  0  0  0  0
 20 39  1  0  0  0  0
 20 40  1  0  0  0  0
M  CHG  1  12  -1
M  END
> <s_m_source_file>
AV-unprocessed.smi

> <i_m_source_file_index>
1464

> <i_lp_mmshare_version>
43012

> <i_f3d_flags>
0

> <s_epik_input>
W0NIM11bQ0BASF0xW0NIMl1bQ0gyXVtDSDJdW0NASF0oW0NASF0xW0NIM10pW05IXUMoPU8pW0NIMl1uMltuSF1jKD1PKVtjSF1bY0hdYzI9Tw==

> <s_epik_cmdline>
J2VwaWtfcHl0aG9uJywgJy1waCcsICc3LjAnLCAnLXRuJywgJzgnLCAnLW1hJywgJzIwMCcsICctbWV0YWxfYmluZGluZycsICctaW1hZScsICc8aW5maWxlLm1hZT4nLCAnLW9tYWUnLCAnPG91dGZpbGUubWFlPic=

> <r_lp_tautomer_probability>
1

> <r_epik_Ionization_Penalty>
0.101366

> <r_epik_Ionization_Penalty_Charging>
0.101366

> <r_epik_Ionization_Penalty_Neutral>
1.90469e-08

> <r_epik_State_Penalty>
0.035861

> <r_epik_Charging_Adjusted_Penalty>
0.137227

> <i_epik_Tot_Q>
-1

> <i_epik_Tot_abs_Q>
1

> <r_epik_Metal_State_Penalty>
0.035861

> <b_epik_Metal_Only>
0

> <s_lp_Force_Field>
OPLS_2005

> <r_lp_Energy>
23.814

> <b_lp_Chiralities_Consistent>
1

> <s_lp_Variant>
AV-unprocessed.smi:1464-8

> <Gold.Version>
5.8.1

> <Gold.Id.Protein>
6NUR|6NUR_protein|mol2

> <Gold.PLP.Fitness>
44.9405

> <Gold.PLP.PLP>
-32.5035

> <Gold.PLP.part.hbond>
-3.5233

> <Gold.PLP.part.metal>
0.0000

> <Gold.PLP.part.buried>
-2.3988

> <Gold.PLP.part.nonpolar>
-26.4899

> <Gold.PLP.part.repulsive>
0.0871

> <Gold.PLP.ligand.clash>
0.0000

> <Gold.PLP.ligand.torsion>
0.6641

> <Gold.PLP.Chemscore.Hbond>
4.5840

> <Gold.PLP.Chemscore.CHOScore>
0.0000

> <Gold.PLP.Chemscore.Metal>
0.0000

> <Gold.Chemscore.Hbonds>
donor molecule, donor type, donor heavy atom, donor atom, acceptor molecule, acceptor atom, score
      P1  H  6896  6909       L1     9  1.00
      P1  H  6931  6943       L1    12  1.64
      P1  H  6934  6947       L1    12  1.79

> <Gold.PLP.Chemscore.Internal.Correction>
0.0133

> <Gold.Rescore>
     Score         DG    S(hbond)    S(metal)    S(lipo)     H(rot)  DE(clash)    DE(int)     intcor
     14.22     -16.09       2.10        0.00      66.78       1.64       1.20       0.66       ----

> <Gold.Chemscore.Fitness>
14.2219

> <Gold.Chemscore.DG>
-16.0883

> <Gold.Chemscore.ZeroCoef>
-5.4800

> <Gold.Chemscore.Hbond>
2.0968

> <Gold.Chemscore.Metal>
0.0000

> <Gold.Chemscore.Lipo>
66.7783

> <Gold.Chemscore.Internal_Hbond>
0.0000

> <Gold.Chemscore.DEClash>
1.2026

> <Gold.Chemscore.DEInternal>
0.6638

> <Gold.Chemscore.Rot>
1.6438

> <Gold.Chemscore.Internal.Correction>
   9.000000E+99

> <Gold.Chemscore.Hbonds>
donor molecule, donor type, donor heavy atom, donor atom, acceptor molecule, acceptor atom, score
      P1  H  6896  6909       L1     9  1.00
      P1  H  6931  6943       L1    12  0.12
      P1  H  6934  6947       L1    12  0.80

> <Gold.Chemscore.Hbond.Weighted>
-7.0033

> <Gold.Chemscore.Metal.Weighted>
-0.0000

> <Gold.Chemscore.Lipo.Weighted>
-7.8131

> <Gold.Chemscore.Internal_Hbond.Weighted>
0.0000

> <Gold.Chemscore.DEClash.Weighted>
1.2026

> <Gold.Chemscore.DEInternal.Weighted>
0.6638

> <Gold.Chemscore.Rot.Weighted>
4.2080

> <Gold.Chemscore.Internal.Correction.Weighted>
   9.000000E+99

> <Gold.Protein.RotatedTorsions>
[ 6907 6896 6895 6894 ] final   85.76 input  -60.11 | X-H torsion
[ 7974 7965 7964 7962 ] final  125.42 input  175.53 | X-H torsion
[ 8008 7997 7996 7995 ] final  -91.35 input   59.86 | X-H torsion
[ 10167 10162 10161 10158 ] final  -48.04 input  -65.29 | X-H torsion
[ 10718 10713 10712 10709 ] final   79.55 input   66.30 | X-H torsion
[ 10763 10752 10751 10750 ] final   -7.41 input  -60.55 | X-H torsion
[ 11005 11000 10999 10996 ] final  142.07 input  -57.11 | X-H torsion

> <Gold.Protein.ActiveResidues>
 VAL166  LYS551  ARG553  GLY616  TRP617  ASP618  TYR619  PRO620  LYS621  CYS622 
 ASP623  PHE694  ASN695  SER759  ASP760  ASP761  ALA762  ILE779  LEU786  VAL792 
 PHE793  MET794  SER795  GLU796  ALA797  LYS798  CYS799  TRP800  GLU811  SER814 

> <Gold.Protein.RotatedAtoms>
  152.5381  134.2535  159.8907 H   0  0  0  0  0  0  0  0  0  0  0  0  # atno 6907 bound_to 6896
  151.2498  133.4349  159.2618 H   0  0  0  0  0  0  0  0  0  0  0  0  # atno 6908 bound_to 6896
  151.0550  134.9712  159.8287 H   0  0  0  0  0  0  0  0  0  0  0  0  # atno 6909 bound_to 6896
  145.0732  139.3714  143.4947 H   0  0  0  0  0  0  0  0  0  0  0  0  # atno 7974 bound_to 7965
  154.7097  140.0520  157.0538 H   0  0  0  0  0  0  0  0  0  0  0  0  # atno 8008 bound_to 7997
  155.0572  140.3185  155.4653 H   0  0  0  0  0  0  0  0  0  0  0  0  # atno 8009 bound_to 7997
  156.2785  140.2105  156.5698 H   0  0  0  0  0  0  0  0  0  0  0  0  # atno 8010 bound_to 7997
  140.6748  143.2757  151.4014 H   0  0  0  0  0  0  0  0  0  0  0  0  # atno 10167 bound_to 10162
  157.6780  130.9919  150.1949 H   0  0  0  0  0  0  0  0  0  0  0  0  # atno 10718 bound_to 10713
  153.4260  135.7011  153.6262 H   0  0  0  0  0  0  0  0  0  0  0  0  # atno 10763 bound_to 10752
  153.4697  135.3717  155.2384 H   0  0  0  0  0  0  0  0  0  0  0  0  # atno 10764 bound_to 10752
  154.8724  135.4040  154.3636 H   0  0  0  0  0  0  0  0  0  0  0  0  # atno 10765 bound_to 10752
  140.0449  134.9286  157.0911 H   0  0  0  0  0  0  0  0  0  0  0  0  # atno 11005 bound_to 11000
  146.3529  140.0487  142.8637 LP  0  0  0  0  0  0  0  0  0  0  0  0  # atno 17320 bound_to 7965
  145.1267  140.9494  143.4568 LP  0  0  0  0  0  0  0  0  0  0  0  0  # atno 17321 bound_to 7965
  139.6035  144.1245  152.2224 LP  0  0  0  0  0  0  0  0  0  0  0  0  # atno 17342 bound_to 10162
  140.0637  144.5836  150.7244 LP  0  0  0  0  0  0  0  0  0  0  0  0  # atno 17343 bound_to 10162
  156.2652  130.3715  149.8088 LP  0  0  0  0  0  0  0  0  0  0  0  0  # atno 17370 bound_to 10713
  156.5822  130.8470  151.3386 LP  0  0  0  0  0  0  0  0  0  0  0  0  # atno 17371 bound_to 10713
  140.4010  134.2083  155.7163 LP  0  0  0  0  0  0  0  0  0  0  0  0  # atno 17394 bound_to 11000
  141.1902  133.8223  157.0929 LP  0  0  0  0  0  0  0  0  0  0  0  0  # atno 17395 bound_to 11000

$$$$
