AV-unprocessed.smi:3291|AV-procd|sdf|12619|dock9
  -GOLD-   2272018553D 1   1.00000     0.00000
 Structure written by MMmdl.
 43 45  0  0  0  0  0  0  0  0  2 V2000
  149.9896  135.3547  157.1505 C   0  0  0  0  0  0  0  0  0  0  0  0
  149.9473  133.9171  156.7169 C   0  0  0  0  0  0  0  0  0  0  0  0
  150.5136  132.9938  157.4739 N   0  0  0  0  0  0  0  0  0  0  0  0
  150.3057  131.7802  156.8144 O   0  0  0  0  0  0  0  0  0  0  0  0
  149.6134  132.0210  155.6725 C   0  0  0  0  0  0  0  0  0  0  0  0
  149.3008  130.8254  154.8349 C   0  0  0  0  0  0  0  0  0  0  0  0
  149.3549  133.3619  155.5448 C   0  0  0  0  0  0  0  0  0  0  0  0
  148.6244  134.1140  154.4546 C   0  0  2  0  0  0  0  0  0  0  0  0
  147.6972  135.1749  155.0733 C   0  0  0  0  0  0  0  0  0  0  0  0
  147.8658  133.1473  153.5252 C   0  0  0  0  0  0  0  0  0  0  0  0
  147.5404  133.7758  152.2275 N   0  3  0  0  0  0  0  0  0  0  0  0
  146.1529  133.5686  151.7597 C   0  0  0  0  0  0  0  0  0  0  0  0
  146.0285  132.1654  151.1940 C   0  0  0  0  0  0  0  0  0  0  0  0
  146.0900  131.9145  149.7046 C   0  0  0  0  0  0  0  0  0  0  0  0
  144.7884  131.7311  150.4478 C   0  0  0  0  0  0  0  0  0  0  0  0
  145.7757  134.6096  150.7160 C   0  0  0  0  0  0  0  0  0  0  0  0
  145.3122  135.9939  151.1120 C   0  0  0  0  0  0  0  0  0  0  0  0
  144.3346  135.0175  150.5065 C   0  0  0  0  0  0  0  0  0  0  0  0
  148.9827  135.7478  157.2912 H   0  0  0  0  0  0  0  0  0  0  0  0
  150.4864  135.9727  156.4024 H   0  0  0  0  0  0  0  0  0  0  0  0
  150.5277  135.4795  158.0912 H   0  0  0  0  0  0  0  0  0  0  0  0
  148.2870  130.8757  154.4393 H   0  0  0  0  0  0  0  0  0  0  0  0
  149.3849  129.9073  155.4172 H   0  0  0  0  0  0  0  0  0  0  0  0
  149.9908  130.7527  153.9943 H   0  0  0  0  0  0  0  0  0  0  0  0
  149.3513  134.6454  153.8391 H   0  0  0  0  0  0  0  0  0  0  0  0
  148.2599  135.8603  155.7082 H   0  0  0  0  0  0  0  0  0  0  0  0
  146.9181  134.7218  155.6860 H   0  0  0  0  0  0  0  0  0  0  0  0
  147.2061  135.7749  154.3070 H   0  0  0  0  0  0  0  0  0  0  0  0
  148.4761  132.2627  153.3364 H   0  0  0  0  0  0  0  0  0  0  0  0
  146.9488  132.8092  154.0052 H   0  0  0  0  0  0  0  0  0  0  0  0
  147.7180  134.7682  152.2872 H   0  0  0  0  0  0  0  0  0  0  0  0
  145.4746  133.6540  152.6106 H   0  0  0  0  0  0  0  0  0  0  0  0
  146.4995  131.4032  151.8128 H   0  0  0  0  0  0  0  0  0  0  0  0
  146.1639  132.7731  149.0403 H   0  0  0  0  0  0  0  0  0  0  0  0
  146.6089  131.0194  149.3683 H   0  0  0  0  0  0  0  0  0  0  0  0
  144.4386  130.7126  150.6035 H   0  0  0  0  0  0  0  0  0  0  0  0
  144.0083  132.4714  150.2809 H   0  0  0  0  0  0  0  0  0  0  0  0
  146.3721  134.5482  149.8070 H   0  0  0  0  0  0  0  0  0  0  0  0
  145.2092  136.2122  152.1732 H   0  0  0  0  0  0  0  0  0  0  0  0
  145.6412  136.8277  150.4951 H   0  0  0  0  0  0  0  0  0  0  0  0
  144.0084  135.2002  149.4846 H   0  0  0  0  0  0  0  0  0  0  0  0
  143.5792  134.5992  151.1682 H   0  0  0  0  0  0  0  0  0  0  0  0
  148.1614  133.3807  151.5360 H   0  0  0  0  0  0  0  0  0  0  0  0
  1  2  1  0  0  0  0
  1 19  1  0  0  0  0
  1 20  1  0  0  0  0
  1 21  1  0  0  0  0
  2  7  1  0  0  0  0
  2  3  2  0  0  0  0
  3  4  1  0  0  0  0
  4  5  1  0  0  0  0
  5  6  1  0  0  0  0
  5  7  2  0  0  0  0
  6 22  1  0  0  0  0
  6 23  1  0  0  0  0
  6 24  1  0  0  0  0
  7  8  1  0  0  0  0
  8  9  1  0  0  0  0
  8 10  1  0  0  0  0
  8 25  1  0  0  0  0
  9 26  1  0  0  0  0
  9 27  1  0  0  0  0
  9 28  1  0  0  0  0
 10 11  1  0  0  0  0
 10 29  1  0  0  0  0
 10 30  1  0  0  0  0
 11 12  1  0  0  0  0
 11 31  1  0  0  0  0
 11 43  1  0  0  0  0
 12 13  1  0  0  0  0
 12 16  1  0  0  0  0
 12 32  1  0  0  0  0
 13 15  1  0  0  0  0
 13 14  1  0  0  0  0
 13 33  1  0  0  0  0
 14 15  1  0  0  0  0
 14 34  1  0  0  0  0
 14 35  1  0  0  0  0
 15 36  1  0  0  0  0
 15 37  1  0  0  0  0
 16 18  1  0  0  0  0
 16 17  1  0  0  0  0
 16 38  1  0  0  0  0
 17 18  1  0  0  0  0
 17 39  1  0  0  0  0
 17 40  1  0  0  0  0
 18 41  1  0  0  0  0
 18 42  1  0  0  0  0
M  CHG  1  11   1
M  END
> <s_m_source_file>
AV-unprocessed.smi

> <i_m_source_file_index>
3291

> <i_lp_mmshare_version>
43012

> <i_f3d_flags>
0

> <s_epik_input>
W0NIM11jMW5vYyhbQ0gzXSljMVtDQEhdKFtDSDNdKVtDSDJdW05IXVtDSF0oW0NIXTJbQ0gyXVtDSDJdMilbQ0hdM1tDSDJdW0NIMl0z

> <s_epik_cmdline>
J2VwaWtfcHl0aG9uJywgJy1waCcsICc3LjAnLCAnLXRuJywgJzgnLCAnLW1hJywgJzIwMCcsICctbWV0YWxfYmluZGluZycsICctaW1hZScsICc8aW5maWxlLm1hZT4nLCAnLW9tYWUnLCAnPG91dGZpbGUubWFlPic=

> <r_lp_tautomer_probability>
1

> <r_epik_Ionization_Penalty>
0.000158108

> <r_epik_Ionization_Penalty_Charging>
0.000158108

> <r_epik_Ionization_Penalty_Neutral>
1.14678e-10

> <r_epik_State_Penalty>
-0

> <r_epik_Charging_Adjusted_Penalty>
0.000158108

> <i_epik_Tot_Q>
1

> <i_epik_Tot_abs_Q>
1

> <r_epik_Metal_State_Penalty>
-0

> <b_epik_Metal_Only>
0

> <s_lp_Force_Field>
OPLS_2005

> <r_lp_Energy>
25.2548

> <b_lp_Chiralities_Consistent>
1

> <s_lp_Variant>
AV-unprocessed.smi:3291-1

> <Gold.Version>
5.8.1

> <Gold.Id.Protein>
6NUR|6NUR_protein|mol2

> <Gold.PLP.Fitness>
41.8740

> <Gold.PLP.PLP>
-34.9608

> <Gold.PLP.part.hbond>
-2.0000

> <Gold.PLP.part.metal>
0.0000

> <Gold.PLP.part.buried>
-2.4283

> <Gold.PLP.part.nonpolar>
-29.7653

> <Gold.PLP.part.repulsive>
0.0288

> <Gold.PLP.ligand.clash>
0.0000

> <Gold.PLP.ligand.torsion>
2.1348

> <Gold.PLP.Chemscore.Hbond>
2.9833

> <Gold.PLP.Chemscore.CHOScore>
0.0000

> <Gold.PLP.Chemscore.Metal>
0.0000

> <Gold.Chemscore.Hbonds>
donor molecule, donor type, donor heavy atom, donor atom, acceptor molecule, acceptor atom, score
      L1  H    11    31       P1  7948  1.79
      P1  H  6896  6907       L1     3  1.00

> <Gold.PLP.Chemscore.Internal.Correction>
2.2329

> <Gold.Rescore>
     Score         DG    S(hbond)    S(metal)    S(lipo)     H(rot)  DE(clash)    DE(int)     intcor
     13.95     -16.81       1.59        0.00      84.37       1.50       0.00       2.85       ----

> <Gold.Chemscore.Fitness>
13.9517

> <Gold.Chemscore.DG>
-16.8064

> <Gold.Chemscore.ZeroCoef>
-5.4800

> <Gold.Chemscore.Hbond>
1.5867

> <Gold.Chemscore.Metal>
0.0000

> <Gold.Chemscore.Lipo>
84.3653

> <Gold.Chemscore.Internal_Hbond>
0.0000

> <Gold.Chemscore.DEClash>
0.0029

> <Gold.Chemscore.DEInternal>
2.8518

> <Gold.Chemscore.Rot>
1.5015

> <Gold.Chemscore.Internal.Correction>
   9.000000E+99

> <Gold.Chemscore.Hbonds>
donor molecule, donor type, donor heavy atom, donor atom, acceptor molecule, acceptor atom, score
      L1  H    11    31       P1  7948  0.68
      P1  H  6896  6907       L1     3  0.94

> <Gold.Chemscore.Hbond.Weighted>
-5.2995

> <Gold.Chemscore.Metal.Weighted>
-0.0000

> <Gold.Chemscore.Lipo.Weighted>
-9.8707

> <Gold.Chemscore.Internal_Hbond.Weighted>
0.0000

> <Gold.Chemscore.DEClash.Weighted>
0.0029

> <Gold.Chemscore.DEInternal.Weighted>
2.8518

> <Gold.Chemscore.Rot.Weighted>
3.8438

> <Gold.Chemscore.Internal.Correction.Weighted>
   9.000000E+99

> <Gold.Protein.RotatedTorsions>
[ 6907 6896 6895 6894 ] final -154.62 input  -60.11 | X-H torsion
[ 7974 7965 7964 7962 ] final -161.54 input  175.53 | X-H torsion
[ 8008 7997 7996 7995 ] final  123.88 input   59.86 | X-H torsion
[ 10167 10162 10161 10158 ] final  -65.16 input  -65.29 | X-H torsion
[ 10718 10713 10712 10709 ] final  -36.52 input   66.30 | X-H torsion
[ 10763 10752 10751 10750 ] final    4.56 input  -60.55 | X-H torsion
[ 11005 11000 10999 10996 ] final -172.02 input  -57.11 | X-H torsion

> <Gold.Protein.ActiveResidues>
 VAL166  LYS551  ARG553  GLY616  TRP617  ASP618  TYR619  PRO620  LYS621  CYS622 
 ASP623  PHE694  ASN695  SER759  ASP760  ASP761  ALA762  ILE779  LEU786  VAL792 
 PHE793  MET794  SER795  GLU796  ALA797  LYS798  CYS799  TRP800  GLU811  SER814 

> <Gold.Protein.RotatedAtoms>
  151.2602  133.4306  159.2615 H   0  0  0  0  0  0  0  0  0  0  0  0  # atno 6907 bound_to 6896
  151.0538  134.9691  159.8235 H   0  0  0  0  0  0  0  0  0  0  0  0  # atno 6908 bound_to 6896
  152.5387  134.2555  159.8968 H   0  0  0  0  0  0  0  0  0  0  0  0  # atno 6909 bound_to 6896
  144.7387  140.3382  143.6140 H   0  0  0  0  0  0  0  0  0  0  0  0  # atno 7974 bound_to 7965
  156.2782  140.2752  156.1699 H   0  0  0  0  0  0  0  0  0  0  0  0  # atno 8008 bound_to 7997
  155.0666  140.0387  157.2612 H   0  0  0  0  0  0  0  0  0  0  0  0  # atno 8009 bound_to 7997
  154.7074  140.2661  155.6667 H   0  0  0  0  0  0  0  0  0  0  0  0  # atno 8010 bound_to 7997
  140.5750  143.2321  151.6461 H   0  0  0  0  0  0  0  0  0  0  0  0  # atno 10167 bound_to 10162
  156.3259  130.4272  149.7917 H   0  0  0  0  0  0  0  0  0  0  0  0  # atno 10718 bound_to 10713
  153.2698  135.6931  153.7492 H   0  0  0  0  0  0  0  0  0  0  0  0  # atno 10763 bound_to 10752
  153.6520  135.3375  155.3103 H   0  0  0  0  0  0  0  0  0  0  0  0  # atno 10764 bound_to 10752
  154.8460  135.4457  154.1716 H   0  0  0  0  0  0  0  0  0  0  0  0  # atno 10765 bound_to 10752
  140.5017  134.5887  157.4990 H   0  0  0  0  0  0  0  0  0  0  0  0  # atno 11005 bound_to 11000
  145.7402  139.1762  143.2380 LP  0  0  0  0  0  0  0  0  0  0  0  0  # atno 17320 bound_to 7965
  146.1140  140.7393  142.9489 LP  0  0  0  0  0  0  0  0  0  0  0  0  # atno 17321 bound_to 7965
  139.5137  144.3433  152.0720 LP  0  0  0  0  0  0  0  0  0  0  0  0  # atno 17342 bound_to 10162
  140.2575  144.4103  150.6198 LP  0  0  0  0  0  0  0  0  0  0  0  0  # atno 17343 bound_to 10162
  156.5207  130.8214  151.3202 LP  0  0  0  0  0  0  0  0  0  0  0  0  # atno 17370 bound_to 10713
  157.7421  130.9884  150.2493 LP  0  0  0  0  0  0  0  0  0  0  0  0  # atno 17371 bound_to 10713
  139.9709  134.7294  156.0043 LP  0  0  0  0  0  0  0  0  0  0  0  0  # atno 17394 bound_to 11000
  141.1432  133.6561  156.3790 LP  0  0  0  0  0  0  0  0  0  0  0  0  # atno 17395 bound_to 11000

$$$$
