AV-unprocessed.smi:2186|AV-procd|sdf|8877|dock6
  -GOLD-   2272012 73D 1   1.00000     0.00000
 Structure written by MMmdl.
 44 45  0  0  0  0  0  0  0  0  2 V2000
  151.8454  144.2783  160.9812 C   0  0  0  0  0  0  0  0  0  0  0  0
  152.6480  143.7065  159.8038 C   0  0  0  0  0  0  0  0  0  0  0  0
  151.9966  143.9814  158.4398 C   0  0  0  0  0  0  0  0  0  0  0  0
  152.9626  142.2556  159.9872 C   0  0  0  0  0  0  0  0  0  0  0  0
  152.6204  141.3094  159.1089 N   0  0  0  0  0  0  0  0  0  0  0  0
  153.0668  140.0350  159.4782 C   0  0  0  0  0  0  0  0  0  0  0  0
  152.8127  138.8523  158.5828 C   0  0  0  0  0  0  0  0  0  0  0  0
  153.0168  137.5387  159.3450 C   0  0  0  0  0  0  0  0  0  0  0  0
  152.1223  137.0999  160.0676 O   0  0  0  0  0  0  0  0  0  0  0  0
  154.1858  136.9057  159.1544 N   0  0  0  0  0  0  0  0  0  0  0  0
  154.5009  135.5719  159.6480 C   0  0  0  0  0  0  0  0  0  0  0  0
  155.7765  135.6011  160.5126 C   0  0  0  0  0  0  0  0  0  0  0  0
  155.4887  135.7828  161.9568 N   0  3  0  0  0  0  0  0  0  0  0  0
  154.8081  137.0708  162.2329 C   0  0  0  0  0  0  0  0  0  0  0  0
  154.5711  137.2444  163.7423 C   0  0  0  0  0  0  0  0  0  0  0  0
  153.8075  136.1492  164.2312 O   0  0  0  0  0  0  0  0  0  0  0  0
  154.4847  134.9111  164.0571 C   0  0  0  0  0  0  0  0  0  0  0  0
  154.7303  134.6580  162.5594 C   0  0  0  0  0  0  0  0  0  0  0  0
  153.7318  140.0275  160.6795 C   0  0  0  0  0  0  0  0  0  0  0  0
  153.8418  141.6220  161.3737 S   0  0  0  0  0  0  0  0  0  0  0  0
  152.3746  144.1328  161.9236 H   0  0  0  0  0  0  0  0  0  0  0  0
  150.8710  143.7967  161.0687 H   0  0  0  0  0  0  0  0  0  0  0  0
  151.6769  145.3484  160.8588 H   0  0  0  0  0  0  0  0  0  0  0  0
  153.6045  144.2307  159.7999 H   0  0  0  0  0  0  0  0  0  0  0  0
  152.6329  143.6357  157.6245 H   0  0  0  0  0  0  0  0  0  0  0  0
  151.8231  145.0479  158.2952 H   0  0  0  0  0  0  0  0  0  0  0  0
  151.0355  143.4738  158.3497 H   0  0  0  0  0  0  0  0  0  0  0  0
  151.7959  138.8738  158.1891 H   0  0  0  0  0  0  0  0  0  0  0  0
  153.4795  138.8805  157.7200 H   0  0  0  0  0  0  0  0  0  0  0  0
  154.8683  137.3448  158.5532 H   0  0  0  0  0  0  0  0  0  0  0  0
  153.6442  135.2310  160.2280 H   0  0  0  0  0  0  0  0  0  0  0  0
  154.6133  134.8755  158.8153 H   0  0  0  0  0  0  0  0  0  0  0  0
  156.3043  134.6552  160.3802 H   0  0  0  0  0  0  0  0  0  0  0  0
  156.4578  136.3817  160.1695 H   0  0  0  0  0  0  0  0  0  0  0  0
  155.4131  137.8985  161.8607 H   0  0  0  0  0  0  0  0  0  0  0  0
  153.8564  137.1038  161.6999 H   0  0  0  0  0  0  0  0  0  0  0  0
  155.5175  137.3153  164.2812 H   0  0  0  0  0  0  0  0  0  0  0  0
  154.0258  138.1688  163.9336 H   0  0  0  0  0  0  0  0  0  0  0  0
  155.4243  134.9151  164.6120 H   0  0  0  0  0  0  0  0  0  0  0  0
  153.8714  134.1131  164.4762 H   0  0  0  0  0  0  0  0  0  0  0  0
  153.7768  134.5409  162.0419 H   0  0  0  0  0  0  0  0  0  0  0  0
  155.2755  133.7224  162.4421 H   0  0  0  0  0  0  0  0  0  0  0  0
  154.1707  139.1847  161.1929 H   0  0  0  0  0  0  0  0  0  0  0  0
  156.3815  135.8272  162.4272 H   0  0  0  0  0  0  0  0  0  0  0  0
  1  2  1  0  0  0  0
  1 21  1  0  0  0  0
  1 22  1  0  0  0  0
  1 23  1  0  0  0  0
  2  3  1  0  0  0  0
  2  4  1  0  0  0  0
  2 24  1  0  0  0  0
  3 25  1  0  0  0  0
  3 26  1  0  0  0  0
  3 27  1  0  0  0  0
  4 20  1  0  0  0  0
  4  5  2  0  0  0  0
  5  6  1  0  0  0  0
  6  7  1  0  0  0  0
  6 19  2  0  0  0  0
  7  8  1  0  0  0  0
  7 28  1  0  0  0  0
  7 29  1  0  0  0  0
  8  9  2  0  0  0  0
  8 10  1  0  0  0  0
 10 11  1  0  0  0  0
 10 30  1  0  0  0  0
 11 12  1  0  0  0  0
 11 31  1  0  0  0  0
 11 32  1  0  0  0  0
 12 13  1  0  0  0  0
 12 33  1  0  0  0  0
 12 34  1  0  0  0  0
 13 18  1  0  0  0  0
 13 14  1  0  0  0  0
 13 44  1  0  0  0  0
 14 15  1  0  0  0  0
 14 35  1  0  0  0  0
 14 36  1  0  0  0  0
 15 16  1  0  0  0  0
 15 37  1  0  0  0  0
 15 38  1  0  0  0  0
 16 17  1  0  0  0  0
 17 18  1  0  0  0  0
 17 39  1  0  0  0  0
 17 40  1  0  0  0  0
 18 41  1  0  0  0  0
 18 42  1  0  0  0  0
 19 20  1  0  0  0  0
 19 43  1  0  0  0  0
M  CHG  1  13   1
M  END
> <s_m_source_file>
AV-unprocessed.smi

> <i_m_source_file_index>
2186

> <i_lp_mmshare_version>
43012

> <i_f3d_flags>
0

> <s_epik_input>
W0NIM11bQ0hdKFtDSDNdKWMxbmMoW2NIXXMxKVtDSDJdQyg9TylbTkhdW0NIMl1bQ0gyXU4yW0NIMl1bQ0gyXU9bQ0gyXVtDSDJdMg==

> <s_epik_cmdline>
J2VwaWtfcHl0aG9uJywgJy1waCcsICc3LjAnLCAnLXRuJywgJzgnLCAnLW1hJywgJzIwMCcsICctbWV0YWxfYmluZGluZycsICctaW1hZScsICc8aW5maWxlLm1hZT4nLCAnLW9tYWUnLCAnPG91dGZpbGUubWFlPic=

> <r_epik_Ionization_Penalty>
0.678862

> <r_epik_Ionization_Penalty_Charging>
0.678842

> <r_epik_Ionization_Penalty_Neutral>
2.00527e-05

> <r_epik_State_Penalty>
0.699693

> <r_epik_Charging_Adjusted_Penalty>
1.37854

> <i_epik_Tot_Q>
1

> <i_epik_Tot_abs_Q>
1

> <r_epik_Metal_State_Penalty>
0.699708

> <b_epik_Metal_Only>
0

> <s_lp_Force_Field>
OPLS_2005

> <r_lp_Energy>
6.68048

> <b_lp_Chiralities_Consistent>
1

> <s_lp_Variant>
AV-unprocessed.smi:2186-2

> <Gold.Version>
5.8.1

> <Gold.Id.Protein>
6NUR|6NUR_protein|mol2

> <Gold.PLP.Fitness>
39.7964

> <Gold.PLP.PLP>
-38.2457

> <Gold.PLP.part.hbond>
-0.9470

> <Gold.PLP.part.metal>
0.0000

> <Gold.PLP.part.buried>
-5.1011

> <Gold.PLP.part.nonpolar>
-32.6276

> <Gold.PLP.part.repulsive>
0.1469

> <Gold.PLP.ligand.clash>
0.0000

> <Gold.PLP.ligand.torsion>
0.7731

> <Gold.PLP.Chemscore.Hbond>
0.9913

> <Gold.PLP.Chemscore.CHOScore>
0.0000

> <Gold.PLP.Chemscore.Metal>
0.0000

> <Gold.Chemscore.Hbonds>
donor molecule, donor type, donor heavy atom, donor atom, acceptor molecule, acceptor atom, score
      P1  H  6896  6909       L1     9  1.00

> <Gold.PLP.Chemscore.Internal.Correction>
0.1231

> <Gold.Rescore>
     Score         DG    S(hbond)    S(metal)    S(lipo)     H(rot)  DE(clash)    DE(int)     intcor
     16.84     -17.53       0.99        0.00     114.61       1.82       0.01       0.68       ----

> <Gold.Chemscore.Fitness>
16.8387

> <Gold.Chemscore.DG>
-17.5296

> <Gold.Chemscore.ZeroCoef>
-5.4800

> <Gold.Chemscore.Hbond>
0.9890

> <Gold.Chemscore.Metal>
0.0000

> <Gold.Chemscore.Lipo>
114.6137

> <Gold.Chemscore.Internal_Hbond>
0.0000

> <Gold.Chemscore.DEClash>
0.0106

> <Gold.Chemscore.DEInternal>
0.6803

> <Gold.Chemscore.Rot>
1.8217

> <Gold.Chemscore.Internal.Correction>
   9.000000E+99

> <Gold.Chemscore.Hbonds>
donor molecule, donor type, donor heavy atom, donor atom, acceptor molecule, acceptor atom, score
      P1  H  6896  6909       L1     9  0.92

> <Gold.Chemscore.Hbond.Weighted>
-3.3033

> <Gold.Chemscore.Metal.Weighted>
-0.0000

> <Gold.Chemscore.Lipo.Weighted>
-13.4098

> <Gold.Chemscore.Internal_Hbond.Weighted>
0.0000

> <Gold.Chemscore.DEClash.Weighted>
0.0106

> <Gold.Chemscore.DEInternal.Weighted>
0.6803

> <Gold.Chemscore.Rot.Weighted>
4.6635

> <Gold.Chemscore.Internal.Correction.Weighted>
   9.000000E+99

> <Gold.Protein.RotatedTorsions>
[ 6907 6896 6895 6894 ] final  135.30 input  -60.11 | X-H torsion
[ 7974 7965 7964 7962 ] final -109.35 input  175.53 | X-H torsion
[ 8008 7997 7996 7995 ] final  -95.77 input   59.86 | X-H torsion
[ 10167 10162 10161 10158 ] final -137.90 input  -65.29 | X-H torsion
[ 10718 10713 10712 10709 ] final   49.99 input   66.30 | X-H torsion
[ 10763 10752 10751 10750 ] final  131.20 input  -60.55 | X-H torsion
[ 11005 11000 10999 10996 ] final -120.61 input  -57.11 | X-H torsion

> <Gold.Protein.ActiveResidues>
 VAL166  LYS551  ARG553  GLY616  TRP617  ASP618  TYR619  PRO620  LYS621  CYS622 
 ASP623  PHE694  ASN695  SER759  ASP760  ASP761  ALA762  ILE779  LEU786  VAL792 
 PHE793  MET794  SER795  GLU796  ALA797  LYS798  CYS799  TRP800  GLU811  SER814 

> <Gold.Protein.RotatedAtoms>
  152.3020  133.5664  159.5624 H   0  0  0  0  0  0  0  0  0  0  0  0  # atno 6907 bound_to 6896
  150.7282  134.0278  159.3732 H   0  0  0  0  0  0  0  0  0  0  0  0  # atno 6908 bound_to 6896
  151.8177  135.0662  160.0472 H   0  0  0  0  0  0  0  0  0  0  0  0  # atno 6909 bound_to 6896
  145.1816  140.8974  143.3476 H   0  0  0  0  0  0  0  0  0  0  0  0  # atno 7974 bound_to 7965
  154.7657  140.0477  157.1010 H   0  0  0  0  0  0  0  0  0  0  0  0  # atno 8008 bound_to 7997
  154.9882  140.3110  155.4898 H   0  0  0  0  0  0  0  0  0  0  0  0  # atno 8009 bound_to 7997
  156.2912  140.2223  156.4985 H   0  0  0  0  0  0  0  0  0  0  0  0  # atno 8010 bound_to 7997
  139.8532  143.7172  152.2656 H   0  0  0  0  0  0  0  0  0  0  0  0  # atno 10167 bound_to 10162
  157.4840  130.8333  149.8126 H   0  0  0  0  0  0  0  0  0  0  0  0  # atno 10718 bound_to 10713
  153.7704  135.3183  155.3351 H   0  0  0  0  0  0  0  0  0  0  0  0  # atno 10763 bound_to 10752
  154.8198  135.4611  154.0750 H   0  0  0  0  0  0  0  0  0  0  0  0  # atno 10764 bound_to 10752
  153.2008  135.6922  153.8318 H   0  0  0  0  0  0  0  0  0  0  0  0  # atno 10765 bound_to 10752
  141.0131  134.0236  157.3387 H   0  0  0  0  0  0  0  0  0  0  0  0  # atno 11005 bound_to 11000
  145.0130  139.3492  143.6110 LP  0  0  0  0  0  0  0  0  0  0  0  0  # atno 17320 bound_to 7965
  146.3452  139.9400  142.8742 LP  0  0  0  0  0  0  0  0  0  0  0  0  # atno 17321 bound_to 7965
  139.7445  144.7551  151.0601 LP  0  0  0  0  0  0  0  0  0  0  0  0  # atno 17342 bound_to 10162
  140.7785  143.4933  150.9865 LP  0  0  0  0  0  0  0  0  0  0  0  0  # atno 17343 bound_to 10162
  156.0137  130.3822  150.2180 LP  0  0  0  0  0  0  0  0  0  0  0  0  # atno 17370 bound_to 10713
  157.0367  131.0023  151.3296 LP  0  0  0  0  0  0  0  0  0  0  0  0  # atno 17371 bound_to 10713
  139.9101  135.0188  156.7655 LP  0  0  0  0  0  0  0  0  0  0  0  0  # atno 17394 bound_to 11000
  140.6701  133.9567  155.7852 LP  0  0  0  0  0  0  0  0  0  0  0  0  # atno 17395 bound_to 11000

$$$$
