AV-unprocessed.smi:2510|AV-procd|sdf|9877|dock4
  -GOLD-   2272013513D 1   1.00000     0.00000
 Structure written by MMmdl.
 48 49  0  0  0  0  0  0  0  0  1 V2000
  150.8911  142.5517  157.1616 C   0  0  0  0  0  0  0  0  0  0  0  0
  151.0301  141.5116  156.0372 C   0  0  0  0  0  0  0  0  0  0  0  0
  150.0701  140.3011  156.1357 C   0  0  0  0  0  0  0  0  0  0  0  0
  150.7262  139.0937  155.4138 C   0  0  0  0  0  0  0  0  0  0  0  0
  152.2489  138.9761  155.5856 C   0  0  0  0  0  0  0  0  0  0  0  0
  149.4914  140.0781  157.5669 C   0  0  2  0  0  0  0  0  0  0  0  0
  149.1289  138.6900  157.8475 N   0  0  0  0  0  0  0  0  0  0  0  0
  149.7899  137.8729  158.6806 C   0  0  0  0  0  0  0  0  0  0  0  0
  150.7261  138.2390  159.3907 O   0  0  0  0  0  0  0  0  0  0  0  0
  149.3426  136.4103  158.6874 C   0  0  0  0  0  0  0  0  0  0  0  0
  148.5793  136.1198  159.9532 C   0  0  0  0  0  0  0  0  0  0  0  0
  148.1696  134.8502  160.4584 C   0  0  0  0  0  0  0  0  0  0  0  0
  147.4736  135.1473  161.5958 C   0  0  0  0  0  0  0  0  0  0  0  0
  146.7694  134.2716  162.5757 C   0  0  0  0  0  0  0  0  0  0  0  0
  147.5065  136.5171  161.7202 N   0  0  0  0  0  0  0  0  0  0  0  0
  148.1830  137.1220  160.7266 N   0  0  0  0  0  0  0  0  0  0  0  0
  148.2635  140.9210  157.1808 C   0  0  2  0  0  0  0  0  0  0  0  0
  146.8785  140.6091  157.7444 C   0  0  0  0  0  0  0  0  0  0  0  0
  148.6123  140.6274  155.7101 C   0  0  2  0  0  0  0  0  0  0  0  0
  147.9353  139.4791  155.2094 O   0  0  0  0  0  0  0  0  0  0  0  0
  146.5971  139.7420  154.8252 C   0  0  0  0  0  0  0  0  0  0  0  0
  147.0773  137.0448  162.4668 H   0  0  0  0  0  0  0  0  0  0  0  0
  151.5067  143.4259  156.9492 H   0  0  0  0  0  0  0  0  0  0  0  0
  151.2187  142.1576  158.1230 H   0  0  0  0  0  0  0  0  0  0  0  0
  149.8623  142.8940  157.2702 H   0  0  0  0  0  0  0  0  0  0  0  0
  150.8656  142.0358  155.0961 H   0  0  0  0  0  0  0  0  0  0  0  0
  152.0666  141.1815  155.9791 H   0  0  0  0  0  0  0  0  0  0  0  0
  150.2524  138.1580  155.7090 H   0  0  0  0  0  0  0  0  0  0  0  0
  150.5496  139.1551  154.3409 H   0  0  0  0  0  0  0  0  0  0  0  0
  152.6443  138.1926  154.9387 H   0  0  0  0  0  0  0  0  0  0  0  0
  152.5261  138.7184  156.6072 H   0  0  0  0  0  0  0  0  0  0  0  0
  152.7521  139.9059  155.3199 H   0  0  0  0  0  0  0  0  0  0  0  0
  150.0731  140.5456  158.3627 H   0  0  0  0  0  0  0  0  0  0  0  0
  148.3753  138.2984  157.3005 H   0  0  0  0  0  0  0  0  0  0  0  0
  148.7180  136.2148  157.8150 H   0  0  0  0  0  0  0  0  0  0  0  0
  150.2182  135.7655  158.5970 H   0  0  0  0  0  0  0  0  0  0  0  0
  148.3447  133.8716  160.0365 H   0  0  0  0  0  0  0  0  0  0  0  0
  147.2499  133.2951  162.6384 H   0  0  0  0  0  0  0  0  0  0  0  0
  145.7318  134.1186  162.2778 H   0  0  0  0  0  0  0  0  0  0  0  0
  146.7746  134.7132  163.5727 H   0  0  0  0  0  0  0  0  0  0  0  0
  148.4991  141.9670  157.3822 H   0  0  0  0  0  0  0  0  0  0  0  0
  146.5559  139.5959  157.5047 H   0  0  0  0  0  0  0  0  0  0  0  0
  146.1297  141.2930  157.3453 H   0  0  0  0  0  0  0  0  0  0  0  0
  146.8660  140.7089  158.8298 H   0  0  0  0  0  0  0  0  0  0  0  0
  148.5459  141.4933  155.0488 H   0  0  0  0  0  0  0  0  0  0  0  0
  146.1254  138.8179  154.4914 H   0  0  0  0  0  0  0  0  0  0  0  0
  146.5623  140.4541  154.0000 H   0  0  0  0  0  0  0  0  0  0  0  0
  146.0109  140.1402  155.6533 H   0  0  0  0  0  0  0  0  0  0  0  0
  1  2  1  0  0  0  0
  1 23  1  0  0  0  0
  1 24  1  0  0  0  0
  1 25  1  0  0  0  0
  2  3  1  0  0  0  0
  2 26  1  0  0  0  0
  2 27  1  0  0  0  0
  3 19  1  0  0  0  0
  3  4  1  0  0  0  0
  3  6  1  0  0  0  0
  4  5  1  0  0  0  0
  4 28  1  0  0  0  0
  4 29  1  0  0  0  0
  5 30  1  0  0  0  0
  5 31  1  0  0  0  0
  5 32  1  0  0  0  0
  6  7  1  0  0  0  0
  6 17  1  0  0  0  0
  6 33  1  0  0  0  0
  7  8  1  0  0  0  0
  7 34  1  0  0  0  0
  8  9  2  0  0  0  0
  8 10  1  0  0  0  0
 10 11  1  0  0  0  0
 10 35  1  0  0  0  0
 10 36  1  0  0  0  0
 11 16  2  0  0  0  0
 11 12  1  0  0  0  0
 12 13  2  0  0  0  0
 12 37  1  0  0  0  0
 13 14  1  0  0  0  0
 13 15  1  0  0  0  0
 14 38  1  0  0  0  0
 14 39  1  0  0  0  0
 14 40  1  0  0  0  0
 15 22  1  0  0  0  0
 15 16  1  0  0  0  0
 17 18  1  0  0  0  0
 17 19  1  0  0  0  0
 17 41  1  0  0  0  0
 18 42  1  0  0  0  0
 18 43  1  0  0  0  0
 18 44  1  0  0  0  0
 19 20  1  0  0  0  0
 19 45  1  0  0  0  0
 20 21  1  0  0  0  0
 21 46  1  0  0  0  0
 21 47  1  0  0  0  0
 21 48  1  0  0  0  0
M  END
> <s_m_source_file>
AV-unprocessed.smi

> <i_m_source_file_index>
2510

> <i_lp_mmshare_version>
43012

> <i_f3d_flags>
0

> <s_epik_input>
W0NIM11PW0NAQEhdMVtDQEhdKFtDSDNdKVtDQEBIXShDMShbQ0gyXVtDSDNdKVtDSDJdW0NIM10pW05IXUMoPU8pW0NIMl1jMltjSF1jKFtDSDNdKVtuSF1uMg==

> <s_epik_cmdline>
J2VwaWtfcHl0aG9uJywgJy1waCcsICc3LjAnLCAnLXRuJywgJzgnLCAnLW1hJywgJzIwMCcsICctbWV0YWxfYmluZGluZycsICctaW1hZScsICc8aW5maWxlLm1hZT4nLCAnLW9tYWUnLCAnPG91dGZpbGUubWFlPic=

> <r_lp_tautomer_probability>
0.5

> <r_epik_Ionization_Penalty>
9.73156e-05

> <r_epik_Ionization_Penalty_Charging>
0

> <r_epik_Ionization_Penalty_Neutral>
9.73156e-05

> <r_epik_State_Penalty>
0.41068

> <r_epik_Charging_Adjusted_Penalty>
0.41068

> <i_epik_Tot_Q>
0

> <i_epik_Tot_abs_Q>
0

> <r_epik_Metal_State_Penalty>
0.410699

> <b_epik_Metal_Only>
0

> <s_lp_Force_Field>
OPLS_2005

> <r_lp_Energy>
26.3407

> <b_lp_Chiralities_Consistent>
1

> <s_lp_Variant>
AV-unprocessed.smi:2510-8

> <Gold.Version>
5.8.1

> <Gold.Id.Protein>
6NUR|6NUR_protein|mol2

> <Gold.PLP.Fitness>
31.6887

> <Gold.PLP.PLP>
-29.9632

> <Gold.PLP.part.hbond>
-3.0000

> <Gold.PLP.part.metal>
0.0000

> <Gold.PLP.part.buried>
-5.6357

> <Gold.PLP.part.nonpolar>
-23.4025

> <Gold.PLP.part.repulsive>
0.3216

> <Gold.PLP.ligand.clash>
0.0000

> <Gold.PLP.ligand.torsion>
1.5155

> <Gold.PLP.Chemscore.Hbond>
1.3390

> <Gold.PLP.Chemscore.CHOScore>
0.0000

> <Gold.PLP.Chemscore.Metal>
0.0000

> <Gold.Chemscore.Hbonds>
donor molecule, donor type, donor heavy atom, donor atom, acceptor molecule, acceptor atom, score
      P1  H  6931  6943       L1    16  0.57
      P1  H  6934  6947       L1    16  0.38

> <Gold.PLP.Chemscore.Internal.Correction>
0.7396

> <Gold.Rescore>
     Score         DG    S(hbond)    S(metal)    S(lipo)     H(rot)  DE(clash)    DE(int)     intcor
      9.93     -11.32       0.63        0.00      71.60       1.81       0.00       1.38       ----

> <Gold.Chemscore.Fitness>
9.9322

> <Gold.Chemscore.DG>
-11.3160

> <Gold.Chemscore.ZeroCoef>
-5.4800

> <Gold.Chemscore.Hbond>
0.6267

> <Gold.Chemscore.Metal>
0.0000

> <Gold.Chemscore.Lipo>
71.5971

> <Gold.Chemscore.Internal_Hbond>
0.0000

> <Gold.Chemscore.DEClash>
0.0038

> <Gold.Chemscore.DEInternal>
1.3800

> <Gold.Chemscore.Rot>
1.8102

> <Gold.Chemscore.Internal.Correction>
   9.000000E+99

> <Gold.Chemscore.Hbonds>
donor molecule, donor type, donor heavy atom, donor atom, acceptor molecule, acceptor atom, score
      P1  H  6931  6943       L1    16  0.05
      P1  H  6934  6947       L1    16  0.06

> <Gold.Chemscore.Hbond.Weighted>
-2.0932

> <Gold.Chemscore.Metal.Weighted>
-0.0000

> <Gold.Chemscore.Lipo.Weighted>
-8.3769

> <Gold.Chemscore.Internal_Hbond.Weighted>
0.0000

> <Gold.Chemscore.DEClash.Weighted>
0.0038

> <Gold.Chemscore.DEInternal.Weighted>
1.3800

> <Gold.Chemscore.Rot.Weighted>
4.6341

> <Gold.Chemscore.Internal.Correction.Weighted>
   9.000000E+99

> <Gold.Protein.RotatedTorsions>
[ 6907 6896 6895 6894 ] final -109.48 input  -60.11 | X-H torsion
[ 7974 7965 7964 7962 ] final   -8.16 input  175.53 | X-H torsion
[ 8008 7997 7996 7995 ] final  -51.71 input   59.86 | X-H torsion
[ 10167 10162 10161 10158 ] final   35.94 input  -65.29 | X-H torsion
[ 10718 10713 10712 10709 ] final  -14.07 input   66.30 | X-H torsion
[ 10763 10752 10751 10750 ] final -172.15 input  -60.55 | X-H torsion
[ 11005 11000 10999 10996 ] final  130.33 input  -57.11 | X-H torsion

> <Gold.Protein.ActiveResidues>
 VAL166  LYS551  ARG553  GLY616  TRP617  ASP618  TYR619  PRO620  LYS621  CYS622 
 ASP623  PHE694  ASN695  SER759  ASP760  ASP761  ALA762  ILE779  LEU786  VAL792 
 PHE793  MET794  SER795  GLU796  ALA797  LYS798  CYS799  TRP800  GLU811  SER814 

> <Gold.Protein.RotatedAtoms>
  150.7564  133.9524  159.3489 H   0  0  0  0  0  0  0  0  0  0  0  0  # atno 6907 bound_to 6896
  151.7442  135.0845  160.0330 H   0  0  0  0  0  0  0  0  0  0  0  0  # atno 6908 bound_to 6896
  152.3509  133.6141  159.5980 H   0  0  0  0  0  0  0  0  0  0  0  0  # atno 6909 bound_to 6896
  146.2288  140.2426  142.8344 H   0  0  0  0  0  0  0  0  0  0  0  0  # atno 7974 bound_to 7965
  154.4089  140.1241  156.4873 H   0  0  0  0  0  0  0  0  0  0  0  0  # atno 8008 bound_to 7997
  155.7026  140.3494  155.4920 H   0  0  0  0  0  0  0  0  0  0  0  0  # atno 8009 bound_to 7997
  155.9372  140.1080  157.1075 H   0  0  0  0  0  0  0  0  0  0  0  0  # atno 8010 bound_to 7997
  140.4174  144.1507  150.6144 H   0  0  0  0  0  0  0  0  0  0  0  0  # atno 10167 bound_to 10162
  156.6212  130.4876  149.6164 H   0  0  0  0  0  0  0  0  0  0  0  0  # atno 10718 bound_to 10713
  154.6225  135.2877  155.0310 H   0  0  0  0  0  0  0  0  0  0  0  0  # atno 10763 bound_to 10752
  154.1500  135.6505  153.4965 H   0  0  0  0  0  0  0  0  0  0  0  0  # atno 10764 bound_to 10752
  153.0242  135.5353  154.7020 H   0  0  0  0  0  0  0  0  0  0  0  0  # atno 10765 bound_to 10752
  139.9666  134.9589  156.9278 H   0  0  0  0  0  0  0  0  0  0  0  0  # atno 11005 bound_to 11000
  144.9473  140.8141  143.5594 LP  0  0  0  0  0  0  0  0  0  0  0  0  # atno 17320 bound_to 7965
  145.2383  139.2084  143.5006 LP  0  0  0  0  0  0  0  0  0  0  0  0  # atno 17321 bound_to 7965
  140.4571  143.2463  151.9270 LP  0  0  0  0  0  0  0  0  0  0  0  0  # atno 17342 bound_to 10162
  139.4782  144.5505  151.8393 LP  0  0  0  0  0  0  0  0  0  0  0  0  # atno 17343 bound_to 10162
  156.2310  130.6794  151.1464 LP  0  0  0  0  0  0  0  0  0  0  0  0  # atno 17370 bound_to 10713
  157.7227  131.0671  150.6067 LP  0  0  0  0  0  0  0  0  0  0  0  0  # atno 17371 bound_to 10713
  140.5384  134.0744  155.7334 LP  0  0  0  0  0  0  0  0  0  0  0  0  # atno 17394 bound_to 11000
  141.1345  133.9245  157.2463 LP  0  0  0  0  0  0  0  0  0  0  0  0  # atno 17395 bound_to 11000

$$$$
