AV-unprocessed.smi:2442|AV-procd|sdf|9630|dock6
  -GOLD-   2272013263D 1   1.00000     0.00000
 Structure written by MMmdl.
 47 48  0  0  0  0  0  0  0  0  2 V2000
  147.8991  140.4465  154.3460 C   0  0  0  0  0  0  0  0  0  0  0  0
  148.2347  139.1573  154.8341 O   0  0  0  0  0  0  0  0  0  0  0  0
  149.6243  138.8543  154.7814 C   0  0  1  0  0  0  0  0  0  0  0  0
  150.4212  139.9410  155.5342 C   0  0  0  0  0  0  0  0  0  0  0  0
  151.9128  139.5881  155.6298 C   0  0  0  0  0  0  0  0  0  0  0  0
  152.1131  138.2164  156.2886 C   0  0  0  0  0  0  0  0  0  0  0  0
  151.3369  137.1257  155.5364 C   0  0  0  0  0  0  0  0  0  0  0  0
  149.8377  137.4645  155.4250 C   0  0  2  0  0  0  0  0  0  0  0  0
  149.1812  136.4329  154.6248 N   0  0  0  0  0  0  0  0  0  0  0  0
  148.3522  135.4914  155.0967 C   0  0  0  0  0  0  0  0  0  0  0  0
  148.0514  135.3619  156.2836 O   0  0  0  0  0  0  0  0  0  0  0  0
  147.8800  134.7090  154.1162 N   0  0  0  0  0  0  0  0  0  0  0  0
  146.9519  133.6015  154.3101 C   0  0  0  0  0  0  0  0  0  0  0  0
  146.7856  132.7676  153.0279 C   0  0  0  0  0  0  0  0  0  0  0  0
  145.4704  133.0587  152.3218 C   0  0  0  0  0  0  0  0  0  0  0  0
  144.7428  134.2151  152.6827 C   0  0  0  0  0  0  0  0  0  0  0  0
  143.5211  134.4965  152.0402 C   0  0  0  0  0  0  0  0  0  0  0  0
  143.0571  133.6616  151.0868 N   0  3  0  0  0  0  0  0  0  0  0  0
  143.7160  132.5446  150.7099 C   0  0  0  0  0  0  0  0  0  0  0  0
  144.9448  132.2042  151.3173 C   0  0  0  0  0  0  0  0  0  0  0  0
  145.6657  130.9417  150.8797 C   0  0  0  0  0  0  0  0  0  0  0  0
  146.8202  140.5864  154.4063 H   0  0  0  0  0  0  0  0  0  0  0  0
  148.1914  140.5591  153.3013 H   0  0  0  0  0  0  0  0  0  0  0  0
  148.3694  141.2382  154.9288 H   0  0  0  0  0  0  0  0  0  0  0  0
  149.9610  138.8092  153.7433 H   0  0  0  0  0  0  0  0  0  0  0  0
  150.3134  140.9069  155.0414 H   0  0  0  0  0  0  0  0  0  0  0  0
  150.0134  140.0612  156.5387 H   0  0  0  0  0  0  0  0  0  0  0  0
  152.3537  139.5848  154.6323 H   0  0  0  0  0  0  0  0  0  0  0  0
  152.4401  140.3540  156.1995 H   0  0  0  0  0  0  0  0  0  0  0  0
  153.1744  137.9676  156.3134 H   0  0  0  0  0  0  0  0  0  0  0  0
  151.7797  138.2547  157.3263 H   0  0  0  0  0  0  0  0  0  0  0  0
  151.7637  137.0058  154.5395 H   0  0  0  0  0  0  0  0  0  0  0  0
  151.4662  136.1691  156.0441 H   0  0  0  0  0  0  0  0  0  0  0  0
  149.4225  137.4763  156.4349 H   0  0  0  0  0  0  0  0  0  0  0  0
  149.3601  136.4511  153.6316 H   0  0  0  0  0  0  0  0  0  0  0  0
  148.1840  134.8925  153.1711 H   0  0  0  0  0  0  0  0  0  0  0  0
  147.3347  132.9769  155.1174 H   0  0  0  0  0  0  0  0  0  0  0  0
  145.9864  133.9843  154.6459 H   0  0  0  0  0  0  0  0  0  0  0  0
  147.5998  132.9838  152.3347 H   0  0  0  0  0  0  0  0  0  0  0  0
  146.8690  131.7045  153.2537 H   0  0  0  0  0  0  0  0  0  0  0  0
  145.1166  134.8810  153.4473 H   0  0  0  0  0  0  0  0  0  0  0  0
  142.9067  135.3578  152.2582 H   0  0  0  0  0  0  0  0  0  0  0  0
  143.2398  131.9589  149.9368 H   0  0  0  0  0  0  0  0  0  0  0  0
  145.0439  130.3444  150.2119 H   0  0  0  0  0  0  0  0  0  0  0  0
  145.9191  130.3216  151.7395 H   0  0  0  0  0  0  0  0  0  0  0  0
  146.5841  131.1929  150.3487 H   0  0  0  0  0  0  0  0  0  0  0  0
  142.1710  133.8833  150.6319 H   0  0  0  0  0  0  0  0  0  0  0  0
  1  2  1  0  0  0  0
  1 22  1  0  0  0  0
  1 23  1  0  0  0  0
  1 24  1  0  0  0  0
  2  3  1  0  0  0  0
  3  8  1  0  0  0  0
  3  4  1  0  0  0  0
  3 25  1  0  0  0  0
  4  5  1  0  0  0  0
  4 26  1  0  0  0  0
  4 27  1  0  0  0  0
  5  6  1  0  0  0  0
  5 28  1  0  0  0  0
  5 29  1  0  0  0  0
  6  7  1  0  0  0  0
  6 30  1  0  0  0  0
  6 31  1  0  0  0  0
  7  8  1  0  0  0  0
  7 32  1  0  0  0  0
  7 33  1  0  0  0  0
  8  9  1  0  0  0  0
  8 34  1  0  0  0  0
  9 10  1  0  0  0  0
  9 35  1  0  0  0  0
 10 11  2  0  0  0  0
 10 12  1  0  0  0  0
 12 13  1  0  0  0  0
 12 36  1  0  0  0  0
 13 14  1  0  0  0  0
 13 37  1  0  0  0  0
 13 38  1  0  0  0  0
 14 15  1  0  0  0  0
 14 39  1  0  0  0  0
 14 40  1  0  0  0  0
 15 20  1  0  0  0  0
 15 16  2  0  0  0  0
 16 17  1  0  0  0  0
 16 41  1  0  0  0  0
 17 18  2  0  0  0  0
 17 42  1  0  0  0  0
 18 19  1  0  0  0  0
 18 47  1  0  0  0  0
 19 20  2  0  0  0  0
 19 43  1  0  0  0  0
 20 21  1  0  0  0  0
 21 44  1  0  0  0  0
 21 45  1  0  0  0  0
 21 46  1  0  0  0  0
M  CHG  1  18   1
M  END
> <s_m_source_file>
AV-unprocessed.smi

> <i_m_source_file_index>
2442

> <i_lp_mmshare_version>
43012

> <i_f3d_flags>
0

> <s_epik_input>
W0NIM11PW0NAQEhdMVtDSDJdW0NIMl1bQ0gyXVtDSDJdW0NASF0xW05IXUMoPU8pW05IXVtDSDJdW0NIMl1jMltjSF1bY0hdbltjSF1jMltDSDNd

> <s_epik_cmdline>
J2VwaWtfcHl0aG9uJywgJy1waCcsICc3LjAnLCAnLXRuJywgJzgnLCAnLW1hJywgJzIwMCcsICctbWV0YWxfYmluZGluZycsICctaW1hZScsICc8aW5maWxlLm1hZT4nLCAnLW9tYWUnLCAnPG91dGZpbGUubWFlPic=

> <r_epik_Ionization_Penalty>
1.07145

> <r_epik_Ionization_Penalty_Charging>
1.0714

> <r_epik_Ionization_Penalty_Neutral>
4.9109e-05

> <r_epik_State_Penalty>
1.12601

> <r_epik_Charging_Adjusted_Penalty>
2.19741

> <i_epik_Tot_Q>
1

> <i_epik_Tot_abs_Q>
1

> <r_epik_Metal_State_Penalty>
1.2173

> <b_epik_Metal_Only>
0

> <s_lp_Force_Field>
OPLS_2005

> <r_lp_Energy>
14.6153

> <b_lp_Chiralities_Consistent>
1

> <s_lp_Variant>
AV-unprocessed.smi:2442-8

> <Gold.Version>
5.8.1

> <Gold.Id.Protein>
6NUR|6NUR_protein|mol2

> <Gold.PLP.Fitness>
42.4299

> <Gold.PLP.PLP>
-32.0756

> <Gold.PLP.part.hbond>
-3.0000

> <Gold.PLP.part.metal>
0.0000

> <Gold.PLP.part.buried>
-1.8592

> <Gold.PLP.part.nonpolar>
-27.0389

> <Gold.PLP.part.repulsive>
0.1575

> <Gold.PLP.ligand.clash>
0.0000

> <Gold.PLP.ligand.torsion>
0.6664

> <Gold.PLP.Chemscore.Hbond>
3.8800

> <Gold.PLP.Chemscore.CHOScore>
0.0000

> <Gold.PLP.Chemscore.Metal>
0.0000

> <Gold.Chemscore.Hbonds>
donor molecule, donor type, donor heavy atom, donor atom, acceptor molecule, acceptor atom, score
      L1  H     9    35       P1  7948  1.00
      L1  H    12    36       P1  7948  0.98
      L1  H    18    47       P1 10186  2.00

> <Gold.PLP.Chemscore.Internal.Correction>
0.0472

> <Gold.Rescore>
     Score         DG    S(hbond)    S(metal)    S(lipo)     H(rot)  DE(clash)    DE(int)     intcor
     19.44     -20.79       2.82        0.00      88.07       1.72       0.81       0.54       ----

> <Gold.Chemscore.Fitness>
19.4413

> <Gold.Chemscore.DG>
-20.7858

> <Gold.Chemscore.ZeroCoef>
-5.4800

> <Gold.Chemscore.Hbond>
2.8193

> <Gold.Chemscore.Metal>
0.0000

> <Gold.Chemscore.Lipo>
88.0652

> <Gold.Chemscore.Internal_Hbond>
0.0000

> <Gold.Chemscore.DEClash>
0.8060

> <Gold.Chemscore.DEInternal>
0.5385

> <Gold.Chemscore.Rot>
1.7244

> <Gold.Chemscore.Internal.Correction>
   9.000000E+99

> <Gold.Chemscore.Hbonds>
donor molecule, donor type, donor heavy atom, donor atom, acceptor molecule, acceptor atom, score
      L1  H     9    35       P1  7948  0.87
      L1  H    12    36       P1  7948  0.79
      L1  H    18    47       P1 10186  0.74

> <Gold.Chemscore.Hbond.Weighted>
-9.4166

> <Gold.Chemscore.Metal.Weighted>
-0.0000

> <Gold.Chemscore.Lipo.Weighted>
-10.3036

> <Gold.Chemscore.Internal_Hbond.Weighted>
0.0000

> <Gold.Chemscore.DEClash.Weighted>
0.8060

> <Gold.Chemscore.DEInternal.Weighted>
0.5385

> <Gold.Chemscore.Rot.Weighted>
4.4145

> <Gold.Chemscore.Internal.Correction.Weighted>
   9.000000E+99

> <Gold.Protein.RotatedTorsions>
[ 6907 6896 6895 6894 ] final  114.41 input  -60.11 | X-H torsion
[ 7974 7965 7964 7962 ] final  167.91 input  175.53 | X-H torsion
[ 8008 7997 7996 7995 ] final   93.03 input   59.86 | X-H torsion
[ 10167 10162 10161 10158 ] final  -42.41 input  -65.29 | X-H torsion
[ 10718 10713 10712 10709 ] final -133.79 input   66.30 | X-H torsion
[ 10763 10752 10751 10750 ] final   28.12 input  -60.55 | X-H torsion
[ 11005 11000 10999 10996 ] final   -3.88 input  -57.11 | X-H torsion

> <Gold.Protein.ActiveResidues>
 VAL166  LYS551  ARG553  GLY616  TRP617  ASP618  TYR619  PRO620  LYS621  CYS622 
 ASP623  PHE694  ASN695  SER759  ASP760  ASP761  ALA762  ILE779  LEU786  VAL792 
 PHE793  MET794  SER795  GLU796  ALA797  LYS798  CYS799  TRP800  GLU811  SER814 

> <Gold.Protein.RotatedAtoms>
  152.4804  133.8240  159.7068 H   0  0  0  0  0  0  0  0  0  0  0  0  # atno 6907 bound_to 6896
  150.8850  133.7311  159.2927 H   0  0  0  0  0  0  0  0  0  0  0  0  # atno 6908 bound_to 6896
  151.4803  135.1055  159.9828 H   0  0  0  0  0  0  0  0  0  0  0  0  # atno 6909 bound_to 6896
  144.7407  139.8830  143.6397 H   0  0  0  0  0  0  0  0  0  0  0  0  # atno 7974 bound_to 7965
  156.0421  140.3318  155.7255 H   0  0  0  0  0  0  0  0  0  0  0  0  # atno 8008 bound_to 7997
  155.5729  140.0629  157.2820 H   0  0  0  0  0  0  0  0  0  0  0  0  # atno 8009 bound_to 7997
  154.4397  140.1857  156.0886 H   0  0  0  0  0  0  0  0  0  0  0  0  # atno 8010 bound_to 7997
  140.6970  143.3039  151.3206 H   0  0  0  0  0  0  0  0  0  0  0  0  # atno 10167 bound_to 10162
  156.2486  130.7139  151.1030 H   0  0  0  0  0  0  0  0  0  0  0  0  # atno 10718 bound_to 10713
  153.0512  135.6521  154.0690 H   0  0  0  0  0  0  0  0  0  0  0  0  # atno 10763 bound_to 10752
  154.0378  135.2906  155.3361 H   0  0  0  0  0  0  0  0  0  0  0  0  # atno 10764 bound_to 10752
  154.6801  135.5323  153.8318 H   0  0  0  0  0  0  0  0  0  0  0  0  # atno 10765 bound_to 10752
  140.6742  133.9210  155.8513 H   0  0  0  0  0  0  0  0  0  0  0  0  # atno 11005 bound_to 11000
  146.1197  139.4213  143.0236 LP  0  0  0  0  0  0  0  0  0  0  0  0  # atno 17320 bound_to 7965
  145.7322  141.0038  143.1345 LP  0  0  0  0  0  0  0  0  0  0  0  0  # atno 17321 bound_to 7965
  139.6437  144.0490  152.2574 LP  0  0  0  0  0  0  0  0  0  0  0  0  # atno 17342 bound_to 10162
  140.0004  144.6297  150.7735 LP  0  0  0  0  0  0  0  0  0  0  0  0  # atno 17343 bound_to 10162
  157.7205  131.0684  150.6154 LP  0  0  0  0  0  0  0  0  0  0  0  0  # atno 17370 bound_to 10713
  156.6232  130.4411  149.5814 LP  0  0  0  0  0  0  0  0  0  0  0  0  # atno 17371 bound_to 10713
  141.0368  134.0677  157.3949 LP  0  0  0  0  0  0  0  0  0  0  0  0  # atno 17394 bound_to 11000
  139.8972  135.0149  156.7088 LP  0  0  0  0  0  0  0  0  0  0  0  0  # atno 17395 bound_to 11000

$$$$
