AV-unprocessed.smi:389|AV-procd|sdf|2476|dock5
  -GOLD-   2262022413D 1   1.00000     0.00000
 Structure written by MMmdl.
 34 34  0  0  0  0  0  0  0  0  1 V2000
  152.4846  144.1533  161.2146 C   0  0  0  0  0  0  0  0  0  0  0  0
  152.4975  143.5784  159.7903 C   0  0  0  0  0  0  0  0  0  0  0  0
  153.7781  142.7619  159.5504 C   0  0  0  0  0  0  0  0  0  0  0  0
  152.3137  144.7029  158.7459 C   0  0  0  0  0  0  0  0  0  0  0  0
  151.9249  144.2314  157.3287 C   0  0  0  0  0  0  0  0  0  0  0  0
  150.8315  143.2657  157.3454 N   0  0  0  0  0  0  0  0  0  0  0  0
  150.9660  141.9521  157.5809 C   0  0  0  0  0  0  0  0  0  0  0  0
  152.0381  141.4264  157.8832 O   0  0  0  0  0  0  0  0  0  0  0  0
  149.6902  141.1072  157.4626 C   0  0  0  0  0  0  0  0  0  0  0  0
  148.9981  141.3090  156.1812 N   0  0  0  0  0  0  0  0  0  0  0  0
  147.7163  141.8400  156.1509 C   0  0  0  0  0  0  0  0  0  0  0  0
  147.0195  142.0402  155.0071 C   0  0  0  0  0  0  0  0  0  0  0  0
  147.6037  141.6950  153.7157 C   0  0  0  0  0  0  0  0  0  0  0  0
  147.0527  141.8396  152.6266 O   0  0  0  0  0  0  0  0  0  0  0  0
  148.8936  141.1622  153.7877 N   0  0  0  0  0  0  0  0  0  0  0  0
  149.6173  140.9527  154.9625 C   0  0  0  0  0  0  0  0  0  0  0  0
  150.7498  140.4729  154.9143 O   0  0  0  0  0  0  0  0  0  0  0  0
  149.3378  140.9055  152.9180 H   0  0  0  0  0  0  0  0  0  0  0  0
  153.3073  144.8524  161.3679 H   0  0  0  0  0  0  0  0  0  0  0  0
  152.5765  143.3618  161.9590 H   0  0  0  0  0  0  0  0  0  0  0  0
  151.5536  144.6841  161.4161 H   0  0  0  0  0  0  0  0  0  0  0  0
  151.6494  142.8965  159.7218 H   0  0  0  0  0  0  0  0  0  0  0  0
  154.6641  143.3967  159.5805 H   0  0  0  0  0  0  0  0  0  0  0  0
  153.7588  142.2597  158.5835 H   0  0  0  0  0  0  0  0  0  0  0  0
  153.8978  141.9895  160.3104 H   0  0  0  0  0  0  0  0  0  0  0  0
  151.5466  145.3924  159.1014 H   0  0  0  0  0  0  0  0  0  0  0  0
  153.2287  145.2930  158.6841 H   0  0  0  0  0  0  0  0  0  0  0  0
  151.6493  145.0892  156.7132 H   0  0  0  0  0  0  0  0  0  0  0  0
  152.7803  143.7709  156.8347 H   0  0  0  0  0  0  0  0  0  0  0  0
  149.9121  143.6142  157.1151 H   0  0  0  0  0  0  0  0  0  0  0  0
  149.9657  140.0595  157.5901 H   0  0  0  0  0  0  0  0  0  0  0  0
  149.0105  141.3312  158.2876 H   0  0  0  0  0  0  0  0  0  0  0  0
  147.2409  142.1072  157.0840 H   0  0  0  0  0  0  0  0  0  0  0  0
  146.0234  142.4566  155.0483 H   0  0  0  0  0  0  0  0  0  0  0  0
  1  2  1  0  0  0  0
  1 19  1  0  0  0  0
  1 20  1  0  0  0  0
  1 21  1  0  0  0  0
  2  3  1  0  0  0  0
  2  4  1  0  0  0  0
  2 22  1  0  0  0  0
  3 23  1  0  0  0  0
  3 24  1  0  0  0  0
  3 25  1  0  0  0  0
  4  5  1  0  0  0  0
  4 26  1  0  0  0  0
  4 27  1  0  0  0  0
  5  6  1  0  0  0  0
  5 28  1  0  0  0  0
  5 29  1  0  0  0  0
  6  7  1  0  0  0  0
  6 30  1  0  0  0  0
  7  8  2  0  0  0  0
  7  9  1  0  0  0  0
  9 10  1  0  0  0  0
  9 31  1  0  0  0  0
  9 32  1  0  0  0  0
 10 16  1  0  0  0  0
 10 11  1  0  0  0  0
 11 12  2  0  0  0  0
 11 33  1  0  0  0  0
 12 13  1  0  0  0  0
 12 34  1  0  0  0  0
 13 14  2  0  0  0  0
 13 15  1  0  0  0  0
 15 18  1  0  0  0  0
 15 16  1  0  0  0  0
 16 17  2  0  0  0  0
M  END
> <s_m_source_file>
AV-unprocessed.smi

> <i_m_source_file_index>
389

> <i_lp_mmshare_version>
43012

> <i_f3d_flags>
0

> <s_epik_input>
W0NIM11bQ0hdKFtDSDNdKVtDSDJdW0NIMl1bTkhdQyg9TylbQ0gyXW4xW2NIXVtjSF1jKD1PKVtuSF1jMT1P

> <s_epik_cmdline>
J2VwaWtfcHl0aG9uJywgJy1waCcsICc3LjAnLCAnLXRuJywgJzgnLCAnLW1hJywgJzIwMCcsICctbWV0YWxfYmluZGluZycsICctaW1hZScsICc8aW5maWxlLm1hZT4nLCAnLW9tYWUnLCAnPG91dGZpbGUubWFlPic=

> <r_lp_tautomer_probability>
0.999537

> <r_epik_Ionization_Penalty>
0.00305319

> <r_epik_Ionization_Penalty_Charging>
0.00305317

> <r_epik_Ionization_Penalty_Neutral>
2.06703e-08

> <r_epik_State_Penalty>
0.00214626

> <r_epik_Charging_Adjusted_Penalty>
0.00519944

> <i_epik_Tot_Q>
0

> <i_epik_Tot_abs_Q>
0

> <r_epik_Metal_State_Penalty>
0.361976

> <b_epik_Metal_Only>
0

> <s_lp_Force_Field>
OPLS_2005

> <r_lp_Energy>
4.98151

> <b_lp_Chiralities_Consistent>
1

> <s_lp_Variant>
AV-unprocessed.smi:389-1

> <Gold.Version>
5.8.1

> <Gold.Id.Protein>
6NUR|6NUR_protein|mol2

> <Gold.PLP.Fitness>
41.5466

> <Gold.PLP.PLP>
-33.7968

> <Gold.PLP.part.hbond>
-3.0000

> <Gold.PLP.part.metal>
0.0000

> <Gold.PLP.part.buried>
-2.0426

> <Gold.PLP.part.nonpolar>
-29.0573

> <Gold.PLP.part.repulsive>
0.4662

> <Gold.PLP.ligand.clash>
0.0000

> <Gold.PLP.ligand.torsion>
0.3583

> <Gold.PLP.Chemscore.Hbond>
2.8160

> <Gold.PLP.Chemscore.CHOScore>
0.0000

> <Gold.PLP.Chemscore.Metal>
0.0000

> <Gold.Chemscore.Hbonds>
donor molecule, donor type, donor heavy atom, donor atom, acceptor molecule, acceptor atom, score
      L1  H     6    30       P1  8028  0.72
      L1  H    15    18       P1  7957  1.00
      P1  H  7989  7998       L1    17  1.00

> <Gold.PLP.Chemscore.Internal.Correction>
0.0183

> <Gold.Rescore>
     Score         DG    S(hbond)    S(metal)    S(lipo)     H(rot)  DE(clash)    DE(int)     intcor
     15.15     -17.32       2.64        0.00      74.94       2.24       1.75       0.42       ----

> <Gold.Chemscore.Fitness>
15.1530

> <Gold.Chemscore.DG>
-17.3199

> <Gold.Chemscore.ZeroCoef>
-5.4800

> <Gold.Chemscore.Hbond>
2.6378

> <Gold.Chemscore.Metal>
0.0000

> <Gold.Chemscore.Lipo>
74.9380

> <Gold.Chemscore.Internal_Hbond>
0.0000

> <Gold.Chemscore.DEClash>
1.7508

> <Gold.Chemscore.DEInternal>
0.4161

> <Gold.Chemscore.Rot>
2.2414

> <Gold.Chemscore.Internal.Correction>
   9.000000E+99

> <Gold.Chemscore.Hbonds>
donor molecule, donor type, donor heavy atom, donor atom, acceptor molecule, acceptor atom, score
      L1  H     6    30       P1  8028  0.68
      L1  H    15    18       P1  7957  0.98
      P1  H  7989  7998       L1    17  0.85

> <Gold.Chemscore.Hbond.Weighted>
-8.8102

> <Gold.Chemscore.Metal.Weighted>
-0.0000

> <Gold.Chemscore.Lipo.Weighted>
-8.7677

> <Gold.Chemscore.Internal_Hbond.Weighted>
0.0000

> <Gold.Chemscore.DEClash.Weighted>
1.7508

> <Gold.Chemscore.DEInternal.Weighted>
0.4161

> <Gold.Chemscore.Rot.Weighted>
5.7380

> <Gold.Chemscore.Internal.Correction.Weighted>
   9.000000E+99

> <Gold.Protein.RotatedTorsions>
[ 6907 6896 6895 6894 ] final -141.41 input  -60.11 | X-H torsion
[ 7974 7965 7964 7962 ] final   64.86 input  175.53 | X-H torsion
[ 8008 7997 7996 7995 ] final  -29.65 input   59.86 | X-H torsion
[ 10167 10162 10161 10158 ] final   -1.09 input  -65.29 | X-H torsion
[ 10718 10713 10712 10709 ] final  149.78 input   66.30 | X-H torsion
[ 10763 10752 10751 10750 ] final   28.32 input  -60.55 | X-H torsion
[ 11005 11000 10999 10996 ] final   47.18 input  -57.11 | X-H torsion

> <Gold.Protein.ActiveResidues>
 VAL166  LYS551  ARG553  GLY616  TRP617  ASP618  TYR619  PRO620  LYS621  CYS622 
 ASP623  PHE694  ASN695  SER759  ASP760  ASP761  ALA762  ILE779  LEU786  VAL792 
 PHE793  MET794  SER795  GLU796  ALA797  LYS798  CYS799  TRP800  GLU811  SER814 

> <Gold.Protein.RotatedAtoms>
  151.0734  133.5448  159.2625 H   0  0  0  0  0  0  0  0  0  0  0  0  # atno 6907 bound_to 6896
  151.2378  135.0577  159.9023 H   0  0  0  0  0  0  0  0  0  0  0  0  # atno 6908 bound_to 6896
  152.5414  134.0513  159.8165 H   0  0  0  0  0  0  0  0  0  0  0  0  # atno 6909 bound_to 6896
  145.8453  139.3220  143.0907 H   0  0  0  0  0  0  0  0  0  0  0  0  # atno 7974 bound_to 7965
  154.4281  140.1812  156.1282 H   0  0  0  0  0  0  0  0  0  0  0  0  # atno 8008 bound_to 7997
  156.0089  140.3352  155.6895 H   0  0  0  0  0  0  0  0  0  0  0  0  # atno 8009 bound_to 7997
  155.6139  140.0653  157.2689 H   0  0  0  0  0  0  0  0  0  0  0  0  # atno 8010 bound_to 7997
  140.6795  143.6817  150.8100 H   0  0  0  0  0  0  0  0  0  0  0  0  # atno 10167 bound_to 10162
  157.2918  131.0855  151.1456 H   0  0  0  0  0  0  0  0  0  0  0  0  # atno 10718 bound_to 10713
  153.0499  135.6516  154.0720 H   0  0  0  0  0  0  0  0  0  0  0  0  # atno 10763 bound_to 10752
  154.0410  135.2903  155.3356 H   0  0  0  0  0  0  0  0  0  0  0  0  # atno 10764 bound_to 10752
  154.6781  135.5330  153.8293 H   0  0  0  0  0  0  0  0  0  0  0  0  # atno 10765 bound_to 10752
  140.1302  134.4715  155.8527 H   0  0  0  0  0  0  0  0  0  0  0  0  # atno 11005 bound_to 11000
  145.9419  140.8973  143.0303 LP  0  0  0  0  0  0  0  0  0  0  0  0  # atno 17320 bound_to 7965
  144.6731  140.1560  143.7426 LP  0  0  0  0  0  0  0  0  0  0  0  0  # atno 17321 bound_to 7965
  140.0515  143.5245  152.2671 LP  0  0  0  0  0  0  0  0  0  0  0  0  # atno 17342 bound_to 10162
  139.6108  144.7608  151.2955 LP  0  0  0  0  0  0  0  0  0  0  0  0  # atno 17343 bound_to 10162
  157.2849  130.6768  149.6084 LP  0  0  0  0  0  0  0  0  0  0  0  0  # atno 17370 bound_to 10713
  155.9667  130.4438  150.5437 LP  0  0  0  0  0  0  0  0  0  0  0  0  # atno 17371 bound_to 10713
  141.2169  133.6793  156.7055 LP  0  0  0  0  0  0  0  0  0  0  0  0  # atno 17394 bound_to 11000
  140.2852  134.8285  157.3968 LP  0  0  0  0  0  0  0  0  0  0  0  0  # atno 17395 bound_to 11000

$$$$
