AV-unprocessed.smi:1601|AV-procd|sdf|6437|dock4
  -GOLD-   22720 7 83D 1   1.00000     0.00000
 Structure written by MMmdl.
 42 43  0  0  0  0  0  0  0  0  2 V2000
  151.0486  139.0924  154.6309 C   0  0  0  0  0  0  0  0  0  0  0  0
  150.6173  140.0275  155.7873 C   0  0  2  0  0  0  0  0  0  0  0  0
  151.0292  139.4115  157.1559 C   0  0  0  0  0  0  0  0  0  0  0  0
  151.3298  140.4149  158.1737 N   0  0  0  0  0  0  0  0  0  0  0  0
  152.5512  140.6619  158.6739 C   0  0  0  0  0  0  0  0  0  0  0  0
  153.5586  140.0551  158.3082 O   0  0  0  0  0  0  0  0  0  0  0  0
  152.6394  141.7513  159.7541 C   0  0  1  0  0  0  0  0  0  0  0  0
  154.0743  141.9394  160.2880 C   0  0  0  0  0  0  0  0  0  0  0  0
  152.0615  142.9989  159.2670 N   0  0  0  0  0  0  0  0  0  0  0  0
  152.6711  144.2331  159.1661 C   0  0  0  0  0  0  0  0  0  0  0  0
  151.7416  145.1136  158.6917 C   0  0  0  0  0  0  0  0  0  0  0  0
  150.5706  144.3204  158.5417 C   0  0  0  0  0  0  0  0  0  0  0  0
  150.7613  143.0603  158.8953 N   0  0  0  0  0  0  0  0  0  0  0  0
  149.1526  140.3483  155.7044 N   0  3  0  0  0  0  0  0  0  0  0  0
  148.6010  141.0434  156.9018 C   0  0  0  0  0  0  0  0  0  0  0  0
  147.1009  141.3445  156.7415 C   0  0  0  0  0  0  0  0  0  0  0  0
  146.8840  142.1116  155.5683 O   0  0  0  0  0  0  0  0  0  0  0  0
  147.2847  141.3994  154.4091 C   0  0  0  0  0  0  0  0  0  0  0  0
  148.7935  141.1126  154.4763 C   0  0  0  0  0  0  0  0  0  0  0  0
  152.0970  138.8052  154.7040 H   0  0  0  0  0  0  0  0  0  0  0  0
  150.9516  139.5626  153.6539 H   0  0  0  0  0  0  0  0  0  0  0  0
  150.4587  138.1754  154.6244 H   0  0  0  0  0  0  0  0  0  0  0  0
  151.1570  140.9694  155.6764 H   0  0  0  0  0  0  0  0  0  0  0  0
  150.2434  138.7775  157.5665 H   0  0  0  0  0  0  0  0  0  0  0  0
  151.9095  138.7799  157.0324 H   0  0  0  0  0  0  0  0  0  0  0  0
  150.5540  140.9573  158.5258 H   0  0  0  0  0  0  0  0  0  0  0  0
  152.0276  141.4240  160.5967 H   0  0  0  0  0  0  0  0  0  0  0  0
  154.4667  141.0075  160.6967 H   0  0  0  0  0  0  0  0  0  0  0  0
  154.0965  142.6807  161.0872 H   0  0  0  0  0  0  0  0  0  0  0  0
  154.7627  142.2728  159.5104 H   0  0  0  0  0  0  0  0  0  0  0  0
  153.7065  144.3807  159.4357 H   0  0  0  0  0  0  0  0  0  0  0  0
  151.8762  146.1651  158.4859 H   0  0  0  0  0  0  0  0  0  0  0  0
  149.5941  144.6216  158.1926 H   0  0  0  0  0  0  0  0  0  0  0  0
  148.7049  140.4275  157.7936 H   0  0  0  0  0  0  0  0  0  0  0  0
  149.1532  141.9686  157.0743 H   0  0  0  0  0  0  0  0  0  0  0  0
  146.5200  140.4214  156.7010 H   0  0  0  0  0  0  0  0  0  0  0  0
  146.7382  141.9082  157.6013 H   0  0  0  0  0  0  0  0  0  0  0  0
  146.7142  140.4738  154.3151 H   0  0  0  0  0  0  0  0  0  0  0  0
  147.0575  142.0028  153.5301 H   0  0  0  0  0  0  0  0  0  0  0  0
  149.3496  142.0513  154.4551 H   0  0  0  0  0  0  0  0  0  0  0  0
  149.0602  140.5621  153.5767 H   0  0  0  0  0  0  0  0  0  0  0  0
  148.6689  139.4635  155.6475 H   0  0  0  0  0  0  0  0  0  0  0  0
  1  2  1  0  0  0  0
  1 20  1  0  0  0  0
  1 21  1  0  0  0  0
  1 22  1  0  0  0  0
  2  3  1  0  0  0  0
  2 14  1  0  0  0  0
  2 23  1  0  0  0  0
  3  4  1  0  0  0  0
  3 24  1  0  0  0  0
  3 25  1  0  0  0  0
  4  5  1  0  0  0  0
  4 26  1  0  0  0  0
  5  6  2  0  0  0  0
  5  7  1  0  0  0  0
  7  8  1  0  0  0  0
  7  9  1  0  0  0  0
  7 27  1  0  0  0  0
  8 28  1  0  0  0  0
  8 29  1  0  0  0  0
  8 30  1  0  0  0  0
  9 13  1  0  0  0  0
  9 10  1  0  0  0  0
 10 11  2  0  0  0  0
 10 31  1  0  0  0  0
 11 12  1  0  0  0  0
 11 32  1  0  0  0  0
 12 13  2  0  0  0  0
 12 33  1  0  0  0  0
 14 19  1  0  0  0  0
 14 15  1  0  0  0  0
 14 42  1  0  0  0  0
 15 16  1  0  0  0  0
 15 34  1  0  0  0  0
 15 35  1  0  0  0  0
 16 17  1  0  0  0  0
 16 36  1  0  0  0  0
 16 37  1  0  0  0  0
 17 18  1  0  0  0  0
 18 19  1  0  0  0  0
 18 38  1  0  0  0  0
 18 39  1  0  0  0  0
 19 40  1  0  0  0  0
 19 41  1  0  0  0  0
M  CHG  1  14   1
M  END
> <s_m_source_file>
AV-unprocessed.smi

> <i_m_source_file_index>
1601

> <i_lp_mmshare_version>
43012

> <i_f3d_flags>
0

> <s_epik_input>
W0NIMl0xW0NIMl1PW0NIMl1bQ0gyXU4xW0NASF0oW0NIM10pW0NIMl1bTkhdQyg9TylbQ0BIXShbQ0gzXSluMltjSF1bY0hdW2NIXW4y

> <s_epik_cmdline>
J2VwaWtfcHl0aG9uJywgJy1waCcsICc3LjAnLCAnLXRuJywgJzgnLCAnLW1hJywgJzIwMCcsICctbWV0YWxfYmluZGluZycsICctaW1hZScsICc8aW5maWxlLm1hZT4nLCAnLW9tYWUnLCAnPG91dGZpbGUubWFlPic=

> <r_lp_tautomer_probability>
1

> <r_epik_Ionization_Penalty>
0.732551

> <r_epik_Ionization_Penalty_Charging>
0.732531

> <r_epik_Ionization_Penalty_Neutral>
2.04647e-05

> <r_epik_State_Penalty>
0.757939

> <r_epik_Charging_Adjusted_Penalty>
1.49047

> <i_epik_Tot_Q>
1

> <i_epik_Tot_abs_Q>
1

> <r_epik_Metal_State_Penalty>
0.757952

> <b_epik_Metal_Only>
0

> <s_lp_Force_Field>
OPLS_2005

> <r_lp_Energy>
24.7345

> <b_lp_Chiralities_Consistent>
1

> <s_lp_Variant>
AV-unprocessed.smi:1601-7

> <Gold.Version>
5.8.1

> <Gold.Id.Protein>
6NUR|6NUR_protein|mol2

> <Gold.PLP.Fitness>
44.8178

> <Gold.PLP.PLP>
-39.4540

> <Gold.PLP.part.hbond>
-1.0000

> <Gold.PLP.part.metal>
0.0000

> <Gold.PLP.part.buried>
-5.0790

> <Gold.PLP.part.nonpolar>
-34.5163

> <Gold.PLP.part.repulsive>
1.5792

> <Gold.PLP.ligand.clash>
0.0000

> <Gold.PLP.ligand.torsion>
0.5425

> <Gold.PLP.Chemscore.Hbond>
0.9920

> <Gold.PLP.Chemscore.CHOScore>
1.1086

> <Gold.PLP.Chemscore.Metal>
0.0000

> <Gold.Chemscore.Hbonds>
donor molecule, donor type, donor heavy atom, donor atom, acceptor molecule, acceptor atom, score
      P1  H  7997  8010       L1     6  0.96
      L1  C    12    33       P1  8028  0.21
      L1  C    12    33       P1  8029  0.88

> <Gold.PLP.Chemscore.Internal.Correction>
0.1470

> <Gold.Rescore>
     Score         DG    S(hbond)    S(metal)    S(lipo)     H(rot)  DE(clash)    DE(int)     intcor
     13.70     -15.74       0.99        0.00     100.15       1.86       0.03       2.01       ----

> <Gold.Chemscore.Fitness>
13.6962

> <Gold.Chemscore.DG>
-15.7376

> <Gold.Chemscore.ZeroCoef>
-5.4800

> <Gold.Chemscore.Hbond>
0.9908

> <Gold.Chemscore.Metal>
0.0000

> <Gold.Chemscore.Lipo>
100.1550

> <Gold.Chemscore.Internal_Hbond>
0.0000

> <Gold.Chemscore.DEClash>
0.0339

> <Gold.Chemscore.DEInternal>
2.0075

> <Gold.Chemscore.Rot>
1.8631

> <Gold.Chemscore.Internal.Correction>
   9.000000E+99

> <Gold.Chemscore.Hbonds>
donor molecule, donor type, donor heavy atom, donor atom, acceptor molecule, acceptor atom, score
      P1  H  7997  8010       L1     6  0.92

> <Gold.Chemscore.Hbond.Weighted>
-3.3091

> <Gold.Chemscore.Metal.Weighted>
-0.0000

> <Gold.Chemscore.Lipo.Weighted>
-11.7181

> <Gold.Chemscore.Internal_Hbond.Weighted>
0.0000

> <Gold.Chemscore.DEClash.Weighted>
0.0339

> <Gold.Chemscore.DEInternal.Weighted>
2.0075

> <Gold.Chemscore.Rot.Weighted>
4.7697

> <Gold.Chemscore.Internal.Correction.Weighted>
   9.000000E+99

> <Gold.Protein.RotatedTorsions>
[ 6907 6896 6895 6894 ] final -142.57 input  -60.11 | X-H torsion
[ 7974 7965 7964 7962 ] final -121.87 input  175.53 | X-H torsion
[ 8008 7997 7996 7995 ] final   39.17 input   59.86 | X-H torsion
[ 10167 10162 10161 10158 ] final  -84.86 input  -65.29 | X-H torsion
[ 10718 10713 10712 10709 ] final   94.14 input   66.30 | X-H torsion
[ 10763 10752 10751 10750 ] final   83.79 input  -60.55 | X-H torsion
[ 11005 11000 10999 10996 ] final  -28.26 input  -57.11 | X-H torsion

> <Gold.Protein.ActiveResidues>
 VAL166  LYS551  ARG553  GLY616  TRP617  ASP618  TYR619  PRO620  LYS621  CYS622 
 ASP623  PHE694  ASN695  SER759  ASP760  ASP761  ALA762  ILE779  LEU786  VAL792 
 PHE793  MET794  SER795  GLU796  ALA797  LYS798  CYS799  TRP800  GLU811  SER814 

> <Gold.Protein.RotatedAtoms>
  151.0888  133.5332  159.2615 H   0  0  0  0  0  0  0  0  0  0  0  0  # atno 6907 bound_to 6896
  151.2207  135.0517  159.8958 H   0  0  0  0  0  0  0  0  0  0  0  0  # atno 6908 bound_to 6896
  152.5432  134.0691  159.8239 H   0  0  0  0  0  0  0  0  0  0  0  0  # atno 6909 bound_to 6896
  145.0357  140.8103  143.4297 H   0  0  0  0  0  0  0  0  0  0  0  0  # atno 7974 bound_to 7965
  155.2323  140.3339  155.4302 H   0  0  0  0  0  0  0  0  0  0  0  0  # atno 8008 bound_to 7997
  156.2290  140.1842  156.7337 H   0  0  0  0  0  0  0  0  0  0  0  0  # atno 8009 bound_to 7997
  154.5946  140.0632  156.9271 H   0  0  0  0  0  0  0  0  0  0  0  0  # atno 8010 bound_to 7997
  140.4093  143.2629  151.9039 H   0  0  0  0  0  0  0  0  0  0  0  0  # atno 10167 bound_to 10162
  157.6950  131.0502  150.4140 H   0  0  0  0  0  0  0  0  0  0  0  0  # atno 10718 bound_to 10713
  153.1323  135.4678  154.9368 H   0  0  0  0  0  0  0  0  0  0  0  0  # atno 10763 bound_to 10752
  154.7675  135.3149  154.8259 H   0  0  0  0  0  0  0  0  0  0  0  0  # atno 10764 bound_to 10752
  153.8799  135.6895  153.4821 H   0  0  0  0  0  0  0  0  0  0  0  0  # atno 10765 bound_to 10752
  140.9193  133.7409  156.0778 H   0  0  0  0  0  0  0  0  0  0  0  0  # atno 11005 bound_to 11000
  145.1713  139.2402  143.5340 LP  0  0  0  0  0  0  0  0  0  0  0  0  # atno 17320 bound_to 7965
  146.3504  140.1465  142.8593 LP  0  0  0  0  0  0  0  0  0  0  0  0  # atno 17321 bound_to 7965
  139.4783  144.5554  151.8322 LP  0  0  0  0  0  0  0  0  0  0  0  0  # atno 17342 bound_to 10162
  140.4656  144.1660  150.5911 LP  0  0  0  0  0  0  0  0  0  0  0  0  # atno 17343 bound_to 10162
  156.4522  130.4014  149.6629 LP  0  0  0  0  0  0  0  0  0  0  0  0  # atno 17370 bound_to 10713
  156.3774  130.7562  151.2551 LP  0  0  0  0  0  0  0  0  0  0  0  0  # atno 17371 bound_to 10713
  140.8009  134.3510  157.5439 LP  0  0  0  0  0  0  0  0  0  0  0  0  # atno 17394 bound_to 11000
  139.8772  134.9197  156.3233 LP  0  0  0  0  0  0  0  0  0  0  0  0  # atno 17395 bound_to 11000

$$$$
