AV-unprocessed.smi:1265|AV-procd|sdf|5320|dock1
  -GOLD-   22720 4443D 1   1.00000     0.00000
 Structure written by MMmdl.
 45 47  0  0  0  0  0  0  0  0  2 V2000
  144.4108  136.0287  152.8637 O   0  0  0  0  0  0  0  0  0  0  0  0
  145.6054  135.9637  152.5795 C   0  0  0  0  0  0  0  0  0  0  0  0
  146.5388  136.7368  153.1537 N   0  0  0  0  0  0  0  0  0  0  0  0
  146.2844  137.7725  154.1561 C   0  0  0  0  0  0  0  0  0  0  0  0
  147.5496  138.6133  154.5245 C   0  0  2  0  0  0  0  0  0  0  0  0
  148.7143  137.6729  154.7241 N   0  3  0  0  0  0  0  0  0  0  0  0
  150.0044  138.3513  155.0356 C   0  0  0  0  0  0  0  0  0  0  0  0
  151.1670  137.3478  155.0382 C   0  0  0  0  0  0  0  0  0  0  0  0
  150.9048  136.3333  155.9957 O   0  0  0  0  0  0  0  0  0  0  0  0
  149.7367  135.5971  155.6661 C   0  0  0  0  0  0  0  0  0  0  0  0
  148.5080  136.5243  155.6504 C   0  0  0  0  0  0  0  0  0  0  0  0
  147.2542  139.5034  155.7650 C   0  0  0  0  0  0  0  0  0  0  0  0
  146.2744  140.6059  155.3525 C   0  0  0  0  0  0  0  0  0  0  0  0
  146.6689  141.0470  153.6427 S   0  0  0  0  0  0  0  0  0  0  0  0
  147.8181  139.6610  153.4185 C   0  0  0  0  0  0  0  0  0  0  0  0
  146.1555  135.1305  151.6781 N   0  0  0  0  0  0  0  0  0  0  0  0
  145.5414  134.1440  150.8556 C   0  0  0  0  0  0  0  0  0  0  0  0
  146.2566  132.9466  150.6428 C   0  0  0  0  0  0  0  0  0  0  0  0
  145.6852  131.9441  149.8339 C   0  0  0  0  0  0  0  0  0  0  0  0
  144.4780  132.0667  149.2445 N   0  0  0  0  0  0  0  0  0  0  0  0
  143.7936  133.2121  149.4467 C   0  0  0  0  0  0  0  0  0  0  0  0
  144.2738  134.2760  150.2368 C   0  0  0  0  0  0  0  0  0  0  0  0
  147.4944  136.6263  152.8476 H   0  0  0  0  0  0  0  0  0  0  0  0
  145.5106  138.4188  153.7437 H   0  0  0  0  0  0  0  0  0  0  0  0
  145.8141  137.3353  155.0368 H   0  0  0  0  0  0  0  0  0  0  0  0
  150.2232  139.1315  154.3088 H   0  0  0  0  0  0  0  0  0  0  0  0
  149.9508  138.8323  156.0130 H   0  0  0  0  0  0  0  0  0  0  0  0
  151.3125  136.9117  154.0483 H   0  0  0  0  0  0  0  0  0  0  0  0
  152.0965  137.8508  155.3048 H   0  0  0  0  0  0  0  0  0  0  0  0
  149.8645  135.1070  154.6993 H   0  0  0  0  0  0  0  0  0  0  0  0
  149.5987  134.8069  156.4042 H   0  0  0  0  0  0  0  0  0  0  0  0
  148.2987  136.8886  156.6568 H   0  0  0  0  0  0  0  0  0  0  0  0
  147.6639  135.9133  155.3344 H   0  0  0  0  0  0  0  0  0  0  0  0
  146.8971  138.9382  156.6250 H   0  0  0  0  0  0  0  0  0  0  0  0
  148.1496  140.0324  156.0887 H   0  0  0  0  0  0  0  0  0  0  0  0
  145.2446  140.2516  155.3994 H   0  0  0  0  0  0  0  0  0  0  0  0
  146.3478  141.4781  156.0025 H   0  0  0  0  0  0  0  0  0  0  0  0
  148.8259  140.0664  153.5116 H   0  0  0  0  0  0  0  0  0  0  0  0
  147.7250  139.2520  152.4119 H   0  0  0  0  0  0  0  0  0  0  0  0
  147.1555  135.2086  151.5653 H   0  0  0  0  0  0  0  0  0  0  0  0
  147.2280  132.7922  151.0894 H   0  0  0  0  0  0  0  0  0  0  0  0
  146.2128  131.0186  149.6571 H   0  0  0  0  0  0  0  0  0  0  0  0
  142.8308  133.2845  148.9631 H   0  0  0  0  0  0  0  0  0  0  0  0
  143.6595  135.1554  150.3411 H   0  0  0  0  0  0  0  0  0  0  0  0
  148.8453  137.2426  153.8200 H   0  0  0  0  0  0  0  0  0  0  0  0
  1  2  2  0  0  0  0
  2  3  1  0  0  0  0
  2 16  1  0  0  0  0
  3  4  1  0  0  0  0
  3 23  1  0  0  0  0
  4  5  1  0  0  0  0
  4 24  1  0  0  0  0
  4 25  1  0  0  0  0
  5 15  1  0  0  0  0
  5  6  1  0  0  0  0
  5 12  1  0  0  0  0
  6 11  1  0  0  0  0
  6  7  1  0  0  0  0
  6 45  1  0  0  0  0
  7  8  1  0  0  0  0
  7 26  1  0  0  0  0
  7 27  1  0  0  0  0
  8  9  1  0  0  0  0
  8 28  1  0  0  0  0
  8 29  1  0  0  0  0
  9 10  1  0  0  0  0
 10 11  1  0  0  0  0
 10 30  1  0  0  0  0
 10 31  1  0  0  0  0
 11 32  1  0  0  0  0
 11 33  1  0  0  0  0
 12 13  1  0  0  0  0
 12 34  1  0  0  0  0
 12 35  1  0  0  0  0
 13 14  1  0  0  0  0
 13 36  1  0  0  0  0
 13 37  1  0  0  0  0
 14 15  1  0  0  0  0
 15 38  1  0  0  0  0
 15 39  1  0  0  0  0
 16 17  1  0  0  0  0
 16 40  1  0  0  0  0
 17 22  1  0  0  0  0
 17 18  2  0  0  0  0
 18 19  1  0  0  0  0
 18 41  1  0  0  0  0
 19 20  2  0  0  0  0
 19 42  1  0  0  0  0
 20 21  1  0  0  0  0
 21 22  2  0  0  0  0
 21 43  1  0  0  0  0
 22 44  1  0  0  0  0
M  CHG  1   6   1
M  END
> <s_m_source_file>
AV-unprocessed.smi

> <i_m_source_file_index>
1265

> <i_lp_mmshare_version>
43012

> <i_f3d_flags>
0

> <s_epik_input>
W2NIXTFbY0hdbltjSF1bY0hdYzFbTkhdQyg9TylbTkhdW0NIMl1bQ0BdMihbQ0gyXVtDSDJdU1tDSDJdMilOM1tDSDJdW0NIMl1PW0NIMl1bQ0gyXTM=

> <s_epik_cmdline>
J2VwaWtfcHl0aG9uJywgJy1waCcsICc3LjAnLCAnLXRuJywgJzgnLCAnLW1hJywgJzIwMCcsICctbWV0YWxfYmluZGluZycsICctaW1hZScsICc8aW5maWxlLm1hZT4nLCAnLW9tYWUnLCAnPG91dGZpbGUubWFlPic=

> <r_epik_Ionization_Penalty>
2.1318

> <r_epik_Ionization_Penalty_Charging>
2.03219

> <r_epik_Ionization_Penalty_Neutral>
0.0996087

> <r_epik_State_Penalty>
2.24194

> <r_epik_Charging_Adjusted_Penalty>
4.27413

> <i_epik_Tot_Q>
1

> <i_epik_Tot_abs_Q>
1

> <r_epik_Metal_State_Penalty>
2.2363

> <b_epik_Metal_Only>
0

> <s_lp_Force_Field>
OPLS_2005

> <r_lp_Energy>
49.924

> <b_lp_Chiralities_Consistent>
1

> <s_lp_Variant>
AV-unprocessed.smi:1265-6

> <Gold.Version>
5.8.1

> <Gold.Id.Protein>
6NUR|6NUR_protein|mol2

> <Gold.PLP.Fitness>
51.3417

> <Gold.PLP.PLP>
-32.0902

> <Gold.PLP.part.hbond>
-4.6360

> <Gold.PLP.part.metal>
0.0000

> <Gold.PLP.part.buried>
-1.7343

> <Gold.PLP.part.nonpolar>
-27.4879

> <Gold.PLP.part.repulsive>
0.4232

> <Gold.PLP.ligand.clash>
0.0000

> <Gold.PLP.ligand.torsion>
0.5280

> <Gold.PLP.Chemscore.Hbond>
4.9600

> <Gold.PLP.Chemscore.CHOScore>
1.7656

> <Gold.PLP.Chemscore.Metal>
0.0000

> <Gold.Chemscore.Hbonds>
donor molecule, donor type, donor heavy atom, donor atom, acceptor molecule, acceptor atom, score
      L1  H     3    23       P1  7948  1.00
      L1  H     6    45       P1  7948  1.17
      L1  H    16    40       P1  7948  0.98
      P1  H 10785 10796       L1    20  0.10
      L1  C    19    42       P1 10747  0.23
      L1  C    21    43       P1 10186  1.00

> <Gold.PLP.Chemscore.Internal.Correction>
0.1306

> <Gold.Rescore>
     Score         DG    S(hbond)    S(metal)    S(lipo)     H(rot)  DE(clash)    DE(int)     intcor
     21.24     -22.09       3.12        0.00      85.43       1.49       0.38       0.48       ----

> <Gold.Chemscore.Fitness>
21.2376

> <Gold.Chemscore.DG>
-22.0916

> <Gold.Chemscore.ZeroCoef>
-5.4800

> <Gold.Chemscore.Hbond>
3.1200

> <Gold.Chemscore.Metal>
0.0000

> <Gold.Chemscore.Lipo>
85.4279

> <Gold.Chemscore.Internal_Hbond>
0.0000

> <Gold.Chemscore.DEClash>
0.3786

> <Gold.Chemscore.DEInternal>
0.4754

> <Gold.Chemscore.Rot>
1.4860

> <Gold.Chemscore.Internal.Correction>
   9.000000E+99

> <Gold.Chemscore.Hbonds>
donor molecule, donor type, donor heavy atom, donor atom, acceptor molecule, acceptor atom, score
      L1  H     3    23       P1  7948  1.00
      L1  H     6    45       P1  7948  0.58
      L1  H    16    40       P1  7948  0.82
      P1  H 10785 10796       L1    20  0.09

> <Gold.Chemscore.Hbond.Weighted>
-10.4207

> <Gold.Chemscore.Metal.Weighted>
-0.0000

> <Gold.Chemscore.Lipo.Weighted>
-9.9951

> <Gold.Chemscore.Internal_Hbond.Weighted>
0.0000

> <Gold.Chemscore.DEClash.Weighted>
0.3786

> <Gold.Chemscore.DEInternal.Weighted>
0.4754

> <Gold.Chemscore.Rot.Weighted>
3.8042

> <Gold.Chemscore.Internal.Correction.Weighted>
   9.000000E+99

> <Gold.Protein.RotatedTorsions>
[ 6907 6896 6895 6894 ] final  -41.20 input  -60.11 | X-H torsion
[ 7974 7965 7964 7962 ] final -157.65 input  175.53 | X-H torsion
[ 8008 7997 7996 7995 ] final  173.29 input   59.86 | X-H torsion
[ 10167 10162 10161 10158 ] final  157.15 input  -65.29 | X-H torsion
[ 10718 10713 10712 10709 ] final  120.65 input   66.30 | X-H torsion
[ 10763 10752 10751 10750 ] final  -49.61 input  -60.55 | X-H torsion
[ 11005 11000 10999 10996 ] final   46.73 input  -57.11 | X-H torsion

> <Gold.Protein.ActiveResidues>
 VAL166  LYS551  ARG553  GLY616  TRP617  ASP618  TYR619  PRO620  LYS621  CYS622 
 ASP623  PHE694  ASN695  SER759  ASP760  ASP761  ALA762  ILE779  LEU786  VAL792 
 PHE793  MET794  SER795  GLU796  ALA797  LYS798  CYS799  TRP800  GLU811  SER814 

> <Gold.Protein.RotatedAtoms>
  150.9695  134.9070  159.7778 H   0  0  0  0  0  0  0  0  0  0  0  0  # atno 6907 bound_to 6896
  152.5185  134.3561  159.9278 H   0  0  0  0  0  0  0  0  0  0  0  0  # atno 6908 bound_to 6896
  151.3570  133.3863  159.2720 H   0  0  0  0  0  0  0  0  0  0  0  0  # atno 6909 bound_to 6896
  144.7539  140.3939  143.6027 H   0  0  0  0  0  0  0  0  0  0  0  0  # atno 7974 bound_to 7965
  156.1090  140.1464  156.9365 H   0  0  0  0  0  0  0  0  0  0  0  0  # atno 8008 bound_to 7997
  154.4753  140.0896  156.7291 H   0  0  0  0  0  0  0  0  0  0  0  0  # atno 8009 bound_to 7997
  155.4630  140.3439  155.4317 H   0  0  0  0  0  0  0  0  0  0  0  0  # atno 8010 bound_to 7997
  139.4822  144.4944  151.8261 H   0  0  0  0  0  0  0  0  0  0  0  0  # atno 10167 bound_to 10162
  157.5875  131.1068  150.8065 H   0  0  0  0  0  0  0  0  0  0  0  0  # atno 10718 bound_to 10713
  154.0969  135.6569  153.4861 H   0  0  0  0  0  0  0  0  0  0  0  0  # atno 10763 bound_to 10752
  153.0302  135.5215  154.7325 H   0  0  0  0  0  0  0  0  0  0  0  0  # atno 10764 bound_to 10752
  154.6466  135.2995  155.0008 H   0  0  0  0  0  0  0  0  0  0  0  0  # atno 10765 bound_to 10752
  140.1342  134.4666  155.8498 H   0  0  0  0  0  0  0  0  0  0  0  0  # atno 11005 bound_to 11000
  145.6847  139.1626  143.2681 LP  0  0  0  0  0  0  0  0  0  0  0  0  # atno 17320 bound_to 7965
  146.1525  140.6905  142.9315 LP  0  0  0  0  0  0  0  0  0  0  0  0  # atno 17321 bound_to 7965
  140.4431  144.1959  150.5892 LP  0  0  0  0  0  0  0  0  0  0  0  0  # atno 17342 bound_to 10162
  140.4663  143.2430  151.9151 LP  0  0  0  0  0  0  0  0  0  0  0  0  # atno 17343 bound_to 10162
  156.8496  130.5076  149.5313 LP  0  0  0  0  0  0  0  0  0  0  0  0  # atno 17370 bound_to 10713
  156.0926  130.5907  150.9758 LP  0  0  0  0  0  0  0  0  0  0  0  0  # atno 17371 bound_to 10713
  141.2175  133.6807  156.7126 LP  0  0  0  0  0  0  0  0  0  0  0  0  # atno 17394 bound_to 11000
  140.2803  134.8322  157.3927 LP  0  0  0  0  0  0  0  0  0  0  0  0  # atno 17395 bound_to 11000

$$$$
