AV-unprocessed.smi:1815|AV-procd|sdf|7354|dock4
  -GOLD-   22720 9 13D 1   1.00000     0.00000
 Structure written by MMmdl.
 40 41  0  0  0  0  0  0  0  0  2 V2000
  149.1986  141.4074  154.7883 C   0  0  0  0  0  0  0  0  0  0  0  0
  149.7993  140.0136  155.0005 C   0  0  1  0  0  0  0  0  0  0  0  0
  149.2313  138.9796  154.0074 C   0  0  0  0  0  0  0  0  0  0  0  0
  149.8831  137.6575  154.1752 N   0  3  2  0  0  0  0  0  0  0  0  0
  149.3858  136.8940  155.3505 C   0  0  0  0  0  0  0  0  0  0  0  0
  147.9089  136.4807  155.2002 C   0  0  0  0  0  0  0  0  0  0  0  0
  147.6709  135.8018  153.9311 N   0  0  0  0  0  0  0  0  0  0  0  0
  146.5428  135.1510  153.6111 C   0  0  0  0  0  0  0  0  0  0  0  0
  145.5780  135.0599  154.3708 O   0  0  0  0  0  0  0  0  0  0  0  0
  146.6165  134.6195  152.3782 N   0  0  0  0  0  0  0  0  0  0  0  0
  145.6350  133.8562  151.6922 C   0  0  0  0  0  0  0  0  0  0  0  0
  145.9102  132.8348  150.8724 N   0  0  0  0  0  0  0  0  0  0  0  0
  144.7522  132.2674  150.3342 C   0  0  0  0  0  0  0  0  0  0  0  0
  143.5959  132.8740  150.7577 C   0  0  0  0  0  0  0  0  0  0  0  0
  143.9171  134.1882  151.8574 S   0  0  0  0  0  0  0  0  0  0  0  0
  151.3600  137.7966  154.0985 C   0  0  0  0  0  0  0  0  0  0  0  0
  151.8831  138.8793  155.0676 C   0  0  1  0  0  0  0  0  0  0  0  0
  153.3869  139.1221  154.8976 C   0  0  0  0  0  0  0  0  0  0  0  0
  151.2074  140.1062  154.8119 O   0  0  0  0  0  0  0  0  0  0  0  0
  148.1166  141.3935  154.9220 H   0  0  0  0  0  0  0  0  0  0  0  0
  149.4079  141.7801  153.7851 H   0  0  0  0  0  0  0  0  0  0  0  0
  149.6117  142.1217  155.5010 H   0  0  0  0  0  0  0  0  0  0  0  0
  149.5916  139.7033  156.0259 H   0  0  0  0  0  0  0  0  0  0  0  0
  148.1494  138.8899  154.1133 H   0  0  0  0  0  0  0  0  0  0  0  0
  149.4095  139.3199  152.9862 H   0  0  0  0  0  0  0  0  0  0  0  0
  150.0101  136.0202  155.5365 H   0  0  0  0  0  0  0  0  0  0  0  0
  149.4749  137.5243  156.2362 H   0  0  0  0  0  0  0  0  0  0  0  0
  147.6044  135.8390  156.0290 H   0  0  0  0  0  0  0  0  0  0  0  0
  147.2563  137.3523  155.2268 H   0  0  0  0  0  0  0  0  0  0  0  0
  148.4150  135.8318  153.2492 H   0  0  0  0  0  0  0  0  0  0  0  0
  147.4767  134.7716  151.8725 H   0  0  0  0  0  0  0  0  0  0  0  0
  144.8432  131.4320  149.6557 H   0  0  0  0  0  0  0  0  0  0  0  0
  142.5790  132.6279  150.4905 H   0  0  0  0  0  0  0  0  0  0  0  0
  151.8552  136.8438  154.2811 H   0  0  0  0  0  0  0  0  0  0  0  0
  151.6151  138.0765  153.0752 H   0  0  0  0  0  0  0  0  0  0  0  0
  151.7027  138.5811  156.1011 H   0  0  0  0  0  0  0  0  0  0  0  0
  153.9561  138.2129  155.0925 H   0  0  0  0  0  0  0  0  0  0  0  0
  153.7388  139.8883  155.5888 H   0  0  0  0  0  0  0  0  0  0  0  0
  153.6217  139.4534  153.8856 H   0  0  0  0  0  0  0  0  0  0  0  0
  149.6026  137.1115  153.3729 H   0  0  0  0  0  0  0  0  0  0  0  0
  1  2  1  0  0  0  0
  1 20  1  0  0  0  0
  1 21  1  0  0  0  0
  1 22  1  0  0  0  0
  2 19  1  0  0  0  0
  2  3  1  0  0  0  0
  2 23  1  0  0  0  0
  3  4  1  0  0  0  0
  3 24  1  0  0  0  0
  3 25  1  0  0  0  0
  4  5  1  0  0  0  0
  4 16  1  0  0  0  0
  4 40  1  0  0  0  0
  5  6  1  0  0  0  0
  5 26  1  0  0  0  0
  5 27  1  0  0  0  0
  6  7  1  0  0  0  0
  6 28  1  0  0  0  0
  6 29  1  0  0  0  0
  7  8  1  0  0  0  0
  7 30  1  0  0  0  0
  8  9  2  0  0  0  0
  8 10  1  0  0  0  0
 10 11  1  0  0  0  0
 10 31  1  0  0  0  0
 11 15  1  0  0  0  0
 11 12  2  0  0  0  0
 12 13  1  0  0  0  0
 13 14  2  0  0  0  0
 13 32  1  0  0  0  0
 14 15  1  0  0  0  0
 14 33  1  0  0  0  0
 16 17  1  0  0  0  0
 16 34  1  0  0  0  0
 16 35  1  0  0  0  0
 17 18  1  0  0  0  0
 17 19  1  0  0  0  0
 17 36  1  0  0  0  0
 18 37  1  0  0  0  0
 18 38  1  0  0  0  0
 18 39  1  0  0  0  0
M  CHG  1   4   1
M  END
> <s_m_source_file>
AV-unprocessed.smi

> <i_m_source_file_index>
1815

> <i_lp_mmshare_version>
43012

> <i_f3d_flags>
0

> <s_epik_input>
W0NIM11bQ0BASF0xW0NIMl1OKFtDSDJdW0NASF0oTzEpW0NIM10pW0NIMl1bQ0gyXVtOSF1DKD1PKVtOSF1jMm5bY0hdW2NIXXMy

> <s_epik_cmdline>
J2VwaWtfcHl0aG9uJywgJy1waCcsICc3LjAnLCAnLXRuJywgJzgnLCAnLW1hJywgJzIwMCcsICctbWV0YWxfYmluZGluZycsICctaW1hZScsICc8aW5maWxlLm1hZT4nLCAnLW9tYWUnLCAnPG91dGZpbGUubWFlPic=

> <r_lp_tautomer_probability>
0.999

> <r_epik_Ionization_Penalty>
0.695838

> <r_epik_Ionization_Penalty_Charging>
0.695697

> <r_epik_Ionization_Penalty_Neutral>
0.000141198

> <r_epik_State_Penalty>
0.717972

> <r_epik_Charging_Adjusted_Penalty>
1.41367

> <i_epik_Tot_Q>
1

> <i_epik_Tot_abs_Q>
1

> <r_epik_Metal_State_Penalty>
0.756405

> <b_epik_Metal_Only>
0

> <s_lp_Force_Field>
OPLS_2005

> <r_lp_Energy>
15.0409

> <b_lp_Chiralities_Consistent>
1

> <s_lp_Variant>
AV-unprocessed.smi:1815-5

> <Gold.Version>
5.8.1

> <Gold.Id.Protein>
6NUR|6NUR_protein|mol2

> <Gold.PLP.Fitness>
47.1258

> <Gold.PLP.PLP>
-31.1881

> <Gold.PLP.part.hbond>
-3.7992

> <Gold.PLP.part.metal>
0.0000

> <Gold.PLP.part.buried>
0.3060

> <Gold.PLP.part.nonpolar>
-27.2913

> <Gold.PLP.part.repulsive>
0.3176

> <Gold.PLP.ligand.clash>
0.0000

> <Gold.PLP.ligand.torsion>
0.3876

> <Gold.PLP.Chemscore.Hbond>
4.7520

> <Gold.PLP.Chemscore.CHOScore>
0.8109

> <Gold.PLP.Chemscore.Metal>
0.0000

> <Gold.Chemscore.Hbonds>
donor molecule, donor type, donor heavy atom, donor atom, acceptor molecule, acceptor atom, score
      L1  H     4    40       P1  7948  2.00
      L1  H     7    30       P1  7948  1.00
      L1  H    10    31       P1  7948  0.75
      P1  H  7989  7998       L1    19  1.00
      L1  C    14    33       P1 10186  0.77

> <Gold.PLP.Chemscore.Internal.Correction>
0.0243

> <Gold.Rescore>
     Score         DG    S(hbond)    S(metal)    S(lipo)     H(rot)  DE(clash)    DE(int)     intcor
     19.23     -20.77       3.28        0.00      72.87       1.64       1.11       0.43       ----

> <Gold.Chemscore.Fitness>
19.2347

> <Gold.Chemscore.DG>
-20.7734

> <Gold.Chemscore.ZeroCoef>
-5.4800

> <Gold.Chemscore.Hbond>
3.2820

> <Gold.Chemscore.Metal>
0.0000

> <Gold.Chemscore.Lipo>
72.8715

> <Gold.Chemscore.Internal_Hbond>
0.0000

> <Gold.Chemscore.DEClash>
1.1095

> <Gold.Chemscore.DEInternal>
0.4291

> <Gold.Chemscore.Rot>
1.6385

> <Gold.Chemscore.Internal.Correction>
   9.000000E+99

> <Gold.Chemscore.Hbonds>
donor molecule, donor type, donor heavy atom, donor atom, acceptor molecule, acceptor atom, score
      L1  H     4    40       P1  7948  0.78
      L1  H     7    30       P1  7948  0.90
      L1  H    10    31       P1  7948  0.48
      P1  H  7989  7998       L1    19  0.82

> <Gold.Chemscore.Hbond.Weighted>
-10.9619

> <Gold.Chemscore.Metal.Weighted>
-0.0000

> <Gold.Chemscore.Lipo.Weighted>
-8.5260

> <Gold.Chemscore.Internal_Hbond.Weighted>
0.0000

> <Gold.Chemscore.DEClash.Weighted>
1.1095

> <Gold.Chemscore.DEInternal.Weighted>
0.4291

> <Gold.Chemscore.Rot.Weighted>
4.1945

> <Gold.Chemscore.Internal.Correction.Weighted>
   9.000000E+99

> <Gold.Protein.RotatedTorsions>
[ 6907 6896 6895 6894 ] final  140.90 input  -60.11 | X-H torsion
[ 7974 7965 7964 7962 ] final -139.93 input  175.53 | X-H torsion
[ 8008 7997 7996 7995 ] final  -30.92 input   59.86 | X-H torsion
[ 10167 10162 10161 10158 ] final   25.15 input  -65.29 | X-H torsion
[ 10718 10713 10712 10709 ] final  171.92 input   66.30 | X-H torsion
[ 10763 10752 10751 10750 ] final  160.11 input  -60.55 | X-H torsion
[ 11005 11000 10999 10996 ] final   52.48 input  -57.11 | X-H torsion

> <Gold.Protein.ActiveResidues>
 VAL166  LYS551  ARG553  GLY616  TRP617  ASP618  TYR619  PRO620  LYS621  CYS622 
 ASP623  PHE694  ASN695  SER759  ASP760  ASP761  ALA762  ILE779  LEU786  VAL792 
 PHE793  MET794  SER795  GLU796  ALA797  LYS798  CYS799  TRP800  GLU811  SER814 

> <Gold.Protein.RotatedAtoms>
  152.2375  133.5108  159.5250 H   0  0  0  0  0  0  0  0  0  0  0  0  # atno 6907 bound_to 6896
  150.7054  134.1134  159.4017 H   0  0  0  0  0  0  0  0  0  0  0  0  # atno 6908 bound_to 6896
  151.9055  135.0360  160.0561 H   0  0  0  0  0  0  0  0  0  0  0  0  # atno 6909 bound_to 6896
  144.8637  140.6260  143.5311 H   0  0  0  0  0  0  0  0  0  0  0  0  # atno 7974 bound_to 7965
  154.4232  140.1778  156.1483 H   0  0  0  0  0  0  0  0  0  0  0  0  # atno 8008 bound_to 7997
  155.9936  140.3366  155.6752 H   0  0  0  0  0  0  0  0  0  0  0  0  # atno 8009 bound_to 7997
  155.6339  140.0673  157.2631 H   0  0  0  0  0  0  0  0  0  0  0  0  # atno 8010 bound_to 7997
  140.5129  144.0130  150.6381 H   0  0  0  0  0  0  0  0  0  0  0  0  # atno 10167 bound_to 10162
  156.9865  131.0135  151.2868 H   0  0  0  0  0  0  0  0  0  0  0  0  # atno 10718 bound_to 10713
  154.2423  135.2774  155.2849 H   0  0  0  0  0  0  0  0  0  0  0  0  # atno 10763 bound_to 10752
  154.5535  135.5668  153.6946 H   0  0  0  0  0  0  0  0  0  0  0  0  # atno 10764 bound_to 10752
  152.9997  135.6280  154.2567 H   0  0  0  0  0  0  0  0  0  0  0  0  # atno 10765 bound_to 10752
  140.0846  134.5292  155.8912 H   0  0  0  0  0  0  0  0  0  0  0  0  # atno 11005 bound_to 11000
  145.4262  139.1556  143.4047 LP  0  0  0  0  0  0  0  0  0  0  0  0  # atno 17320 bound_to 7965
  146.2880  140.4375  142.8750 LP  0  0  0  0  0  0  0  0  0  0  0  0  # atno 17321 bound_to 7965
  140.3457  143.2992  152.0540 LP  0  0  0  0  0  0  0  0  0  0  0  0  # atno 17342 bound_to 10162
  139.4901  144.6410  151.6877 LP  0  0  0  0  0  0  0  0  0  0  0  0  # atno 17343 bound_to 10162
  157.5489  130.8169  149.8120 LP  0  0  0  0  0  0  0  0  0  0  0  0  # atno 17370 bound_to 10713
  156.0224  130.3791  150.1923 LP  0  0  0  0  0  0  0  0  0  0  0  0  # atno 17371 bound_to 10713
  141.2058  133.6650  156.6204 LP  0  0  0  0  0  0  0  0  0  0  0  0  # atno 17394 bound_to 11000
  140.3439  134.7826  157.4418 LP  0  0  0  0  0  0  0  0  0  0  0  0  # atno 17395 bound_to 11000

$$$$
