AV-unprocessed.smi:156|AV-procd|sdf|1287|dock9
  -GOLD-   2262018563D 1   1.00000     0.00000
 Structure written by MMmdl.
 51 53  0  0  0  0  0  0  0  0  1 V2000
  143.9603  134.7492  156.9475 C   0  0  0  0  0  0  0  0  0  0  0  0
  143.7905  136.2820  157.0396 C   0  0  2  0  0  0  0  0  0  0  0  0
  143.3237  136.8229  158.4273 C   0  0  2  0  0  0  0  0  0  0  0  0
  144.3893  136.5554  159.5091 C   0  0  0  0  0  0  0  0  0  0  0  0
  141.6953  136.0836  158.9447 S   0  0  0  0  0  0  0  0  0  0  0  0
  141.3540  136.8813  160.5697 C   0  0  0  0  0  0  0  0  0  0  0  0
  140.6556  136.5378  158.0086 O   0  0  0  0  0  0  0  0  0  0  0  0
  141.8858  134.6433  159.1744 O   0  0  0  0  0  0  0  0  0  0  0  0
  142.9960  136.8089  155.9175 N   0  0  0  0  0  0  0  0  0  0  0  0
  142.9032  138.2570  155.7622 C   0  0  0  0  0  0  0  0  0  0  0  0
  142.8271  136.1132  154.7608 C   0  0  0  0  0  0  0  0  0  0  0  0
  141.6583  135.4646  154.5161 N   0  0  0  0  0  0  0  0  0  0  0  0
  141.4895  134.7717  153.3868 C   0  0  0  0  0  0  0  0  0  0  0  0
  142.3477  134.5952  152.3815 N   0  0  0  0  0  0  0  0  0  0  0  0
  143.5260  135.2390  152.6181 C   0  0  0  0  0  0  0  0  0  0  0  0
  143.8456  136.0130  153.7699 C   0  0  0  0  0  0  0  0  0  0  0  0
  145.1303  136.5283  153.6479 N   0  0  0  0  0  0  0  0  0  0  0  0
  145.5474  136.0809  152.4955 C   0  0  0  0  0  0  0  0  0  0  0  0
  144.6531  135.2859  151.8144 N   0  0  0  0  0  0  0  0  0  0  0  0
  144.8521  134.6613  150.5139 C   0  0  0  0  0  0  0  0  0  0  0  0
  144.9701  133.1224  150.5579 C   0  0  0  0  0  0  0  0  0  0  0  0
  146.1693  132.6955  151.4211 C   0  0  0  0  0  0  0  0  0  0  0  0
  146.4196  131.3105  151.2969 O   0  0  0  0  0  0  0  0  0  0  0  0
  143.6563  132.3837  150.8474 C   0  0  0  0  0  0  0  0  0  0  0  0
  143.5269  131.9344  149.4825 O   0  0  0  0  0  0  0  0  0  0  0  0
  144.8592  132.4108  149.2008 C   0  0  0  0  0  0  0  0  0  0  0  0
  144.7908  134.4028  157.5613 H   0  0  0  0  0  0  0  0  0  0  0  0
  144.1827  134.4334  155.9283 H   0  0  0  0  0  0  0  0  0  0  0  0
  143.0661  134.2161  157.2693 H   0  0  0  0  0  0  0  0  0  0  0  0
  144.7907  136.6910  156.8902 H   0  0  0  0  0  0  0  0  0  0  0  0
  143.1499  137.8964  158.3743 H   0  0  0  0  0  0  0  0  0  0  0  0
  145.3615  136.9587  159.2263 H   0  0  0  0  0  0  0  0  0  0  0  0
  144.5147  135.4868  159.6845 H   0  0  0  0  0  0  0  0  0  0  0  0
  144.1309  137.0253  160.4565 H   0  0  0  0  0  0  0  0  0  0  0  0
  140.3396  136.6344  160.8821 H   0  0  0  0  0  0  0  0  0  0  0  0
  141.4468  137.9632  160.4748 H   0  0  0  0  0  0  0  0  0  0  0  0
  142.0508  136.5135  161.3219 H   0  0  0  0  0  0  0  0  0  0  0  0
  143.3133  138.5795  154.8042 H   0  0  0  0  0  0  0  0  0  0  0  0
  143.4526  138.7749  156.5487 H   0  0  0  0  0  0  0  0  0  0  0  0
  141.8637  138.5795  155.8196 H   0  0  0  0  0  0  0  0  0  0  0  0
  140.5301  134.2888  153.2738 H   0  0  0  0  0  0  0  0  0  0  0  0
  146.5252  136.3272  152.1091 H   0  0  0  0  0  0  0  0  0  0  0  0
  144.0351  134.9647  149.8586 H   0  0  0  0  0  0  0  0  0  0  0  0
  145.7504  135.0970  150.0746 H   0  0  0  0  0  0  0  0  0  0  0  0
  147.0728  133.2227  151.1131 H   0  0  0  0  0  0  0  0  0  0  0  0
  146.0209  132.9419  152.4724 H   0  0  0  0  0  0  0  0  0  0  0  0
  147.3245  131.1886  151.0529 H   0  0  0  0  0  0  0  0  0  0  0  0
  143.7606  131.5477  151.5407 H   0  0  0  0  0  0  0  0  0  0  0  0
  142.8379  133.0378  151.1503 H   0  0  0  0  0  0  0  0  0  0  0  0
  144.8802  133.0737  148.3369 H   0  0  0  0  0  0  0  0  0  0  0  0
  145.5638  131.5878  149.0716 H   0  0  0  0  0  0  0  0  0  0  0  0
  1  2  1  0  0  0  0
  1 27  1  0  0  0  0
  1 28  1  0  0  0  0
  1 29  1  0  0  0  0
  2  3  1  0  0  0  0
  2  9  1  0  0  0  0
  2 30  1  0  0  0  0
  3  4  1  0  0  0  0
  3  5  1  0  0  0  0
  3 31  1  0  0  0  0
  4 32  1  0  0  0  0
  4 33  1  0  0  0  0
  4 34  1  0  0  0  0
  5  6  1  0  0  0  0
  5  7  2  0  0  0  0
  5  8  2  0  0  0  0
  6 35  1  0  0  0  0
  6 36  1  0  0  0  0
  6 37  1  0  0  0  0
  9 10  1  0  0  0  0
  9 11  1  0  0  0  0
 10 38  1  0  0  0  0
 10 39  1  0  0  0  0
 10 40  1  0  0  0  0
 11 16  1  0  0  0  0
 11 12  2  0  0  0  0
 12 13  1  0  0  0  0
 13 14  2  0  0  0  0
 13 41  1  0  0  0  0
 14 15  1  0  0  0  0
 15 19  1  0  0  0  0
 15 16  2  0  0  0  0
 16 17  1  0  0  0  0
 17 18  2  0  0  0  0
 18 19  1  0  0  0  0
 18 42  1  0  0  0  0
 19 20  1  0  0  0  0
 20 21  1  0  0  0  0
 20 43  1  0  0  0  0
 20 44  1  0  0  0  0
 21 26  1  0  0  0  0
 21 22  1  0  0  0  0
 21 24  1  0  0  0  0
 22 23  1  0  0  0  0
 22 45  1  0  0  0  0
 22 46  1  0  0  0  0
 23 47  1  0  0  0  0
 24 25  1  0  0  0  0
 24 48  1  0  0  0  0
 24 49  1  0  0  0  0
 25 26  1  0  0  0  0
 26 50  1  0  0  0  0
 26 51  1  0  0  0  0
M  END
> <s_m_source_file>
AV-unprocessed.smi

> <i_m_source_file_index>
156

> <i_lp_mmshare_version>
43012

> <i_f3d_flags>
0

> <s_epik_input>
W0NIM11TKD1PKSg9TylbQ0BASF0oW0NIM10pW0NAQEhdKFtDSDNdKU4oW0NIM10pYyhuW2NIXW4xKWMoYzEyKW5bY0hdbjJbQ0gyXUMzKFtDSDJdW09IXSlbQ0gyXU9bQ0gyXTM=

> <s_epik_cmdline>
J2VwaWtfcHl0aG9uJywgJy1waCcsICc3LjAnLCAnLXRuJywgJzgnLCAnLW1hJywgJzIwMCcsICctbWV0YWxfYmluZGluZycsICctaW1hZScsICc8aW5maWxlLm1hZT4nLCAnLW9tYWUnLCAnPG91dGZpbGUubWFlPic=

> <r_lp_tautomer_probability>
1

> <r_epik_Ionization_Penalty>
0.00107697

> <r_epik_Ionization_Penalty_Charging>
0

> <r_epik_Ionization_Penalty_Neutral>
0.00107697

> <r_epik_State_Penalty>
0.000614712

> <r_epik_Charging_Adjusted_Penalty>
0.000614712

> <i_epik_Tot_Q>
0

> <i_epik_Tot_abs_Q>
0

> <r_epik_Metal_State_Penalty>
-0

> <b_epik_Metal_Only>
0

> <s_lp_Force_Field>
OPLS_2005

> <r_lp_Energy>
28.4574

> <b_lp_Chiralities_Consistent>
1

> <s_lp_Variant>
AV-unprocessed.smi:156-1

> <Gold.Version>
5.8.1

> <Gold.Id.Protein>
6NUR|6NUR_protein|mol2

> <Gold.PLP.Fitness>
39.5383

> <Gold.PLP.PLP>
-30.4415

> <Gold.PLP.part.hbond>
-4.6878

> <Gold.PLP.part.metal>
0.0000

> <Gold.PLP.part.buried>
-5.9073

> <Gold.PLP.part.nonpolar>
-20.9145

> <Gold.PLP.part.repulsive>
0.8191

> <Gold.PLP.ligand.clash>
0.0000

> <Gold.PLP.ligand.torsion>
2.2688

> <Gold.PLP.Chemscore.Hbond>
3.0000

> <Gold.PLP.Chemscore.CHOScore>
1.0000

> <Gold.PLP.Chemscore.Metal>
0.0000

> <Gold.Chemscore.Hbonds>
donor molecule, donor type, donor heavy atom, donor atom, acceptor molecule, acceptor atom, score
      L1  H    23    47       P1 10747  1.00
      P1  H 10785 10796       L1    25  0.99
      P1  H 11000 11005       L1     7  0.70
      L1  C    18    42       P1  7948  1.00

> <Gold.PLP.Chemscore.Internal.Correction>
1.6343

> <Gold.Rescore>
     Score         DG    S(hbond)    S(metal)    S(lipo)     H(rot)  DE(clash)    DE(int)     intcor
      9.59     -12.33       2.72        0.00      51.27       3.21       0.30       2.43       ----

> <Gold.Chemscore.Fitness>
9.5897

> <Gold.Chemscore.DG>
-12.3253

> <Gold.Chemscore.ZeroCoef>
-5.4800

> <Gold.Chemscore.Hbond>
2.7152

> <Gold.Chemscore.Metal>
0.0000

> <Gold.Chemscore.Lipo>
51.2661

> <Gold.Chemscore.Internal_Hbond>
0.0000

> <Gold.Chemscore.DEClash>
0.3016

> <Gold.Chemscore.DEInternal>
2.4340

> <Gold.Chemscore.Rot>
3.2115

> <Gold.Chemscore.Internal.Correction>
   9.000000E+99

> <Gold.Chemscore.Hbonds>
donor molecule, donor type, donor heavy atom, donor atom, acceptor molecule, acceptor atom, score
      L1  H    23    47       P1 10747  1.00
      P1  H 10785 10796       L1    25  0.76
      P1  H 11000 11005       L1     7  0.07

> <Gold.Chemscore.Hbond.Weighted>
-9.0687

> <Gold.Chemscore.Metal.Weighted>
-0.0000

> <Gold.Chemscore.Lipo.Weighted>
-5.9981

> <Gold.Chemscore.Internal_Hbond.Weighted>
0.0000

> <Gold.Chemscore.DEClash.Weighted>
0.3016

> <Gold.Chemscore.DEInternal.Weighted>
2.4340

> <Gold.Chemscore.Rot.Weighted>
8.2215

> <Gold.Chemscore.Internal.Correction.Weighted>
   9.000000E+99

> <Gold.Protein.RotatedTorsions>
[ 6907 6896 6895 6894 ] final  163.54 input  -60.11 | X-H torsion
[ 7974 7965 7964 7962 ] final  -45.99 input  175.53 | X-H torsion
[ 8008 7997 7996 7995 ] final -138.73 input   59.86 | X-H torsion
[ 10167 10162 10161 10158 ] final  -66.89 input  -65.29 | X-H torsion
[ 10718 10713 10712 10709 ] final  -63.68 input   66.30 | X-H torsion
[ 10763 10752 10751 10750 ] final  -40.29 input  -60.55 | X-H torsion
[ 11005 11000 10999 10996 ] final  167.10 input  -57.11 | X-H torsion

> <Gold.Protein.ActiveResidues>
 VAL166  LYS551  ARG553  GLY616  TRP617  ASP618  TYR619  PRO620  LYS621  CYS622 
 ASP623  PHE694  ASN695  SER759  ASP760  ASP761  ALA762  ILE779  LEU786  VAL792 
 PHE793  MET794  SER795  GLU796  ALA797  LYS798  CYS799  TRP800  GLU811  SER814 

> <Gold.Protein.RotatedAtoms>
  151.9237  133.3592  159.3905 H   0  0  0  0  0  0  0  0  0  0  0  0  # atno 6907 bound_to 6896
  150.7031  134.4609  159.5389 H   0  0  0  0  0  0  0  0  0  0  0  0  # atno 6908 bound_to 6896
  152.2237  134.8388  160.0533 H   0  0  0  0  0  0  0  0  0  0  0  0  # atno 6909 bound_to 6896
  145.9765  140.7329  142.9385 H   0  0  0  0  0  0  0  0  0  0  0  0  # atno 7974 bound_to 7965
  155.4332  140.0526  157.3017 H   0  0  0  0  0  0  0  0  0  0  0  0  # atno 8008 bound_to 7997
  154.4851  140.2097  155.9633 H   0  0  0  0  0  0  0  0  0  0  0  0  # atno 8009 bound_to 7997
  156.1262  140.3180  155.8286 H   0  0  0  0  0  0  0  0  0  0  0  0  # atno 8010 bound_to 7997
  140.5624  143.2313  151.6702 H   0  0  0  0  0  0  0  0  0  0  0  0  # atno 10167 bound_to 10162
  156.0776  130.4224  150.1311 H   0  0  0  0  0  0  0  0  0  0  0  0  # atno 10718 bound_to 10713
  153.9436  135.6758  153.4744 H   0  0  0  0  0  0  0  0  0  0  0  0  # atno 10763 bound_to 10752
  153.0919  135.4870  154.8703 H   0  0  0  0  0  0  0  0  0  0  0  0  # atno 10764 bound_to 10752
  154.7364  135.3150  154.8763 H   0  0  0  0  0  0  0  0  0  0  0  0  # atno 10765 bound_to 10752
  140.2733  134.7809  157.3694 H   0  0  0  0  0  0  0  0  0  0  0  0  # atno 11005 bound_to 11000
  144.6850  140.2836  143.7288 LP  0  0  0  0  0  0  0  0  0  0  0  0  # atno 17320 bound_to 7965
  145.7831  139.1899  143.2146 LP  0  0  0  0  0  0  0  0  0  0  0  0  # atno 17321 bound_to 7965
  139.5076  144.3640  152.0535 LP  0  0  0  0  0  0  0  0  0  0  0  0  # atno 17342 bound_to 10162
  140.2768  144.3904  150.6132 LP  0  0  0  0  0  0  0  0  0  0  0  0  # atno 17343 bound_to 10162
  156.9349  130.9726  151.3526 LP  0  0  0  0  0  0  0  0  0  0  0  0  # atno 17370 bound_to 10713
  157.5878  130.8422  149.8615 LP  0  0  0  0  0  0  0  0  0  0  0  0  # atno 17371 bound_to 10713
  140.1352  134.5043  155.8074 LP  0  0  0  0  0  0  0  0  0  0  0  0  # atno 17394 bound_to 11000
  141.2174  133.6804  156.7112 LP  0  0  0  0  0  0  0  0  0  0  0  0  # atno 17395 bound_to 11000

$$$$
