AV-unprocessed.smi:2803|AV-procd|sdf|10808|dock7
  -GOLD-   2272015243D 1   1.00000     0.00000
 Structure written by MMmdl.
 42 43  0  0  0  0  0  0  0  0  1 V2000
  149.9113  139.3995  154.0318 C   0  0  0  0  0  0  0  0  0  0  0  0
  150.7641  139.3407  155.3152 C   0  0  2  0  0  0  0  0  0  0  0  0
  152.1806  139.3383  154.9055 C   0  0  0  0  0  0  0  0  0  0  0  0
  153.2926  139.3332  154.5847 N   0  0  0  0  0  0  0  0  0  0  0  0
  150.5155  138.0791  156.0177 N   0  0  0  0  0  0  0  0  0  0  0  0
  150.7630  136.8294  155.5917 C   0  0  0  0  0  0  0  0  0  0  0  0
  151.2536  136.5667  154.4935 O   0  0  0  0  0  0  0  0  0  0  0  0
  150.3667  135.7056  156.5581 C   0  0  0  0  0  0  0  0  0  0  0  0
  150.1267  134.4281  155.8845 N   0  0  0  0  0  0  0  0  0  0  0  0
  149.6482  134.3292  154.6010 C   0  0  0  0  0  0  0  0  0  0  0  0
  149.5219  133.1024  154.2319 N   0  0  0  0  0  0  0  0  0  0  0  0
  149.9375  132.3921  155.3232 N   0  0  0  0  0  0  0  0  0  0  0  0
  149.9377  130.9071  155.2900 C   0  0  0  0  0  0  0  0  0  0  0  0
  151.3830  130.3846  155.4403 C   0  0  0  0  0  0  0  0  0  0  0  0
  149.3699  130.3574  153.9576 C   0  0  0  0  0  0  0  0  0  0  0  0
  149.0607  130.3612  156.4379 C   0  0  0  0  0  0  0  0  0  0  0  0
  150.3120  133.1929  156.3401 C   0  0  0  0  0  0  0  0  0  0  0  0
  150.7321  132.8716  157.4517 O   0  0  0  0  0  0  0  0  0  0  0  0
  150.4851  140.5768  156.1769 C   0  0  0  0  0  0  0  0  0  0  0  0
  151.0116  141.9503  155.8234 C   0  0  0  0  0  0  0  0  0  0  0  0
  151.5445  141.2247  157.0394 C   0  0  0  0  0  0  0  0  0  0  0  0
  150.1630  140.2785  153.4372 H   0  0  0  0  0  0  0  0  0  0  0  0
  148.8444  139.4544  154.2485 H   0  0  0  0  0  0  0  0  0  0  0  0
  150.0778  138.5232  153.4046 H   0  0  0  0  0  0  0  0  0  0  0  0
  150.1053  138.1704  156.9360 H   0  0  0  0  0  0  0  0  0  0  0  0
  151.1574  135.5662  157.2976 H   0  0  0  0  0  0  0  0  0  0  0  0
  149.4807  136.0205  157.1119 H   0  0  0  0  0  0  0  0  0  0  0  0
  149.4287  135.2347  154.0327 H   0  0  0  0  0  0  0  0  0  0  0  0
  151.4186  129.2972  155.3666 H   0  0  0  0  0  0  0  0  0  0  0  0
  151.8212  130.6509  156.4018 H   0  0  0  0  0  0  0  0  0  0  0  0
  152.0306  130.7869  154.6604 H   0  0  0  0  0  0  0  0  0  0  0  0
  149.9583  130.6870  153.1002 H   0  0  0  0  0  0  0  0  0  0  0  0
  148.3377  130.6721  153.7977 H   0  0  0  0  0  0  0  0  0  0  0  0
  149.3755  129.2669  153.9468 H   0  0  0  0  0  0  0  0  0  0  0  0
  148.9990  129.2731  156.4036 H   0  0  0  0  0  0  0  0  0  0  0  0
  148.0431  130.7483  156.3754 H   0  0  0  0  0  0  0  0  0  0  0  0
  149.4537  130.6244  157.4197 H   0  0  0  0  0  0  0  0  0  0  0  0
  149.4819  140.5850  156.5981 H   0  0  0  0  0  0  0  0  0  0  0  0
  151.6743  142.0476  154.9661 H   0  0  0  0  0  0  0  0  0  0  0  0
  150.3514  142.7980  155.9949 H   0  0  0  0  0  0  0  0  0  0  0  0
  151.2367  141.5891  158.0171 H   0  0  0  0  0  0  0  0  0  0  0  0
  152.5598  140.8369  156.9892 H   0  0  0  0  0  0  0  0  0  0  0  0
  1  2  1  0  0  0  0
  1 22  1  0  0  0  0
  1 23  1  0  0  0  0
  1 24  1  0  0  0  0
  2  3  1  0  0  0  0
  2  5  1  0  0  0  0
  2 19  1  0  0  0  0
  3  4  3  0  0  0  0
  5  6  1  0  0  0  0
  5 25  1  0  0  0  0
  6  7  2  0  0  0  0
  6  8  1  0  0  0  0
  8  9  1  0  0  0  0
  8 26  1  0  0  0  0
  8 27  1  0  0  0  0
  9 17  1  0  0  0  0
  9 10  1  0  0  0  0
 10 11  2  0  0  0  0
 10 28  1  0  0  0  0
 11 12  1  0  0  0  0
 12 13  1  0  0  0  0
 12 17  1  0  0  0  0
 13 14  1  0  0  0  0
 13 15  1  0  0  0  0
 13 16  1  0  0  0  0
 14 29  1  0  0  0  0
 14 30  1  0  0  0  0
 14 31  1  0  0  0  0
 15 32  1  0  0  0  0
 15 33  1  0  0  0  0
 15 34  1  0  0  0  0
 16 35  1  0  0  0  0
 16 36  1  0  0  0  0
 16 37  1  0  0  0  0
 17 18  2  0  0  0  0
 19 21  1  0  0  0  0
 19 20  1  0  0  0  0
 19 38  1  0  0  0  0
 20 21  1  0  0  0  0
 20 39  1  0  0  0  0
 20 40  1  0  0  0  0
 21 41  1  0  0  0  0
 21 42  1  0  0  0  0
M  END
> <s_m_source_file>
AV-unprocessed.smi

> <i_m_source_file_index>
2803

> <i_lp_mmshare_version>
43012

> <i_f3d_flags>
0

> <s_epik_input>
W0NIMl0xW0NIMl1bQ0hdMVtDQF0oW0NIM10pKEMjTilbTkhdQyg9TylbQ0gyXW4yW2NIXW5uKGMyPU8pQyhbQ0gzXSkoW0NIM10pW0NIM10=

> <s_epik_cmdline>
J2VwaWtfcHl0aG9uJywgJy1waCcsICc3LjAnLCAnLXRuJywgJzgnLCAnLW1hJywgJzIwMCcsICctbWV0YWxfYmluZGluZycsICctaW1hZScsICc8aW5maWxlLm1hZT4nLCAnLW9tYWUnLCAnPG91dGZpbGUubWFlPic=

> <r_lp_tautomer_probability>
1

> <r_epik_Ionization_Penalty>
4.88615e-06

> <r_epik_Ionization_Penalty_Charging>
4.80261e-08

> <r_epik_Ionization_Penalty_Neutral>
4.83813e-06

> <r_epik_State_Penalty>
-0

> <r_epik_Charging_Adjusted_Penalty>
4.80261e-08

> <i_epik_Tot_Q>
0

> <i_epik_Tot_abs_Q>
0

> <r_epik_Metal_State_Penalty>
-0

> <b_epik_Metal_Only>
0

> <s_lp_Force_Field>
OPLS_2005

> <r_lp_Energy>
31.1455

> <b_lp_Chiralities_Consistent>
1

> <s_lp_Variant>
AV-unprocessed.smi:2803-2

> <Gold.Version>
5.8.1

> <Gold.Id.Protein>
6NUR|6NUR_protein|mol2

> <Gold.PLP.Fitness>
45.0404

> <Gold.PLP.PLP>
-34.6638

> <Gold.PLP.part.hbond>
-3.3591

> <Gold.PLP.part.metal>
0.0000

> <Gold.PLP.part.buried>
-5.5722

> <Gold.PLP.part.nonpolar>
-25.7784

> <Gold.PLP.part.repulsive>
0.3024

> <Gold.PLP.ligand.clash>
0.0000

> <Gold.PLP.ligand.torsion>
1.5571

> <Gold.PLP.Chemscore.Hbond>
3.0000

> <Gold.PLP.Chemscore.CHOScore>
0.9854

> <Gold.PLP.Chemscore.Metal>
0.0000

> <Gold.Chemscore.Hbonds>
donor molecule, donor type, donor heavy atom, donor atom, acceptor molecule, acceptor atom, score
      P1  H  6896  6907       L1    18  1.00
      P1  H  7997  8009       L1     4  1.00
      P1  H 10752 10764       L1     7  1.00
      L1  C    10    28       P1  7948  1.00

> <Gold.PLP.Chemscore.Internal.Correction>
1.5346

> <Gold.Rescore>
     Score         DG    S(hbond)    S(metal)    S(lipo)     H(rot)  DE(clash)    DE(int)     intcor
     12.19     -16.59       2.98        0.00      54.77       2.05       0.01       4.39       ----

> <Gold.Chemscore.Fitness>
12.1886

> <Gold.Chemscore.DG>
-16.5891

> <Gold.Chemscore.ZeroCoef>
-5.4800

> <Gold.Chemscore.Hbond>
2.9756

> <Gold.Chemscore.Metal>
0.0000

> <Gold.Chemscore.Lipo>
54.7674

> <Gold.Chemscore.Internal_Hbond>
0.0000

> <Gold.Chemscore.DEClash>
0.0136

> <Gold.Chemscore.DEInternal>
4.3870

> <Gold.Chemscore.Rot>
2.0457

> <Gold.Chemscore.Internal.Correction>
   9.000000E+99

> <Gold.Chemscore.Hbonds>
donor molecule, donor type, donor heavy atom, donor atom, acceptor molecule, acceptor atom, score
      P1  H  6896  6907       L1    18  0.99
      P1  H  7997  8009       L1     4  0.97
      P1  H 10752 10764       L1     7  0.98

> <Gold.Chemscore.Hbond.Weighted>
-9.9383

> <Gold.Chemscore.Metal.Weighted>
-0.0000

> <Gold.Chemscore.Lipo.Weighted>
-6.4078

> <Gold.Chemscore.Internal_Hbond.Weighted>
0.0000

> <Gold.Chemscore.DEClash.Weighted>
0.0136

> <Gold.Chemscore.DEInternal.Weighted>
4.3870

> <Gold.Chemscore.Rot.Weighted>
5.2370

> <Gold.Chemscore.Internal.Correction.Weighted>
   9.000000E+99

> <Gold.Protein.RotatedTorsions>
[ 6907 6896 6895 6894 ] final -144.05 input  -60.11 | X-H torsion
[ 7974 7965 7964 7962 ] final  178.00 input  175.53 | X-H torsion
[ 8008 7997 7996 7995 ] final -118.72 input   59.86 | X-H torsion
[ 10167 10162 10161 10158 ] final   91.17 input  -65.29 | X-H torsion
[ 10718 10713 10712 10709 ] final -115.99 input   66.30 | X-H torsion
[ 10763 10752 10751 10750 ] final  -72.59 input  -60.55 | X-H torsion
[ 11005 11000 10999 10996 ] final  154.10 input  -57.11 | X-H torsion

> <Gold.Protein.ActiveResidues>
 VAL166  LYS551  ARG553  GLY616  TRP617  ASP618  TYR619  PRO620  LYS621  CYS622 
 ASP623  PHE694  ASN695  SER759  ASP760  ASP761  ALA762  ILE779  LEU786  VAL792 
 PHE793  MET794  SER795  GLU796  ALA797  LYS798  CYS799  TRP800  GLU811  SER814 

> <Gold.Protein.RotatedAtoms>
  151.1088  133.5188  159.2606 H   0  0  0  0  0  0  0  0  0  0  0  0  # atno 6907 bound_to 6896
  151.1990  135.0434  159.8874 H   0  0  0  0  0  0  0  0  0  0  0  0  # atno 6908 bound_to 6896
  152.5448  134.0919  159.8334 H   0  0  0  0  0  0  0  0  0  0  0  0  # atno 6909 bound_to 6896
  144.7161  140.0332  143.6438 H   0  0  0  0  0  0  0  0  0  0  0  0  # atno 7974 bound_to 7965
  155.1042  140.0396  157.2705 H   0  0  0  0  0  0  0  0  0  0  0  0  # atno 8008 bound_to 7997
  154.6735  140.2617  155.6957 H   0  0  0  0  0  0  0  0  0  0  0  0  # atno 8009 bound_to 7997
  156.2667  140.2793  156.1252 H   0  0  0  0  0  0  0  0  0  0  0  0  # atno 8010 bound_to 7997
  139.8400  144.6645  150.9294 H   0  0  0  0  0  0  0  0  0  0  0  0  # atno 10167 bound_to 10162
  156.0933  130.6111  150.8978 H   0  0  0  0  0  0  0  0  0  0  0  0  # atno 10718 bound_to 10713
  154.4478  135.5925  153.6171 H   0  0  0  0  0  0  0  0  0  0  0  0  # atno 10763 bound_to 10752
  152.9811  135.6013  154.3642 H   0  0  0  0  0  0  0  0  0  0  0  0  # atno 10764 bound_to 10752
  154.3500  135.2841  155.2356 H   0  0  0  0  0  0  0  0  0  0  0  0  # atno 10765 bound_to 10752
  140.1458  134.8708  157.2391 H   0  0  0  0  0  0  0  0  0  0  0  0  # atno 11005 bound_to 11000
  146.0085  139.3150  143.0884 LP  0  0  0  0  0  0  0  0  0  0  0  0  # atno 17320 bound_to 7965
  145.8709  140.9420  143.0651 LP  0  0  0  0  0  0  0  0  0  0  0  0  # atno 17321 bound_to 7965
  140.7799  143.3921  151.1292 LP  0  0  0  0  0  0  0  0  0  0  0  0  # atno 17342 bound_to 10162
  139.7568  143.8695  152.3090 LP  0  0  0  0  0  0  0  0  0  0  0  0  # atno 17343 bound_to 10162
  157.6088  131.0937  150.8832 LP  0  0  0  0  0  0  0  0  0  0  0  0  # atno 17370 bound_to 10713
  156.8976  130.5235  149.5284 LP  0  0  0  0  0  0  0  0  0  0  0  0  # atno 17371 bound_to 10713
  140.2665  134.3510  155.7388 LP  0  0  0  0  0  0  0  0  0  0  0  0  # atno 17394 bound_to 11000
  141.2192  133.7399  156.9159 LP  0  0  0  0  0  0  0  0  0  0  0  0  # atno 17395 bound_to 11000

$$$$
