AV-unprocessed.smi:2430|AV-procd|sdf|9584|dock3
  -GOLD-   2272013213D 1   1.00000     0.00000
 Structure written by MMmdl.
 46 47  0  0  0  0  0  0  0  0  1 V2000
  151.8246  145.5905  159.9125 C   0  0  0  0  0  0  0  0  0  0  0  0
  152.3583  144.2641  159.3616 C   0  0  2  0  0  0  0  0  0  0  0  0
  151.3210  143.5455  158.4787 C   0  0  0  0  0  0  0  0  0  0  0  0
  151.8078  142.2290  158.0753 N   0  0  0  0  0  0  0  0  0  0  0  0
  151.1402  141.5477  157.0310 C   0  0  0  0  0  0  0  0  0  0  0  0
  149.8753  141.9641  156.5437 C   0  0  0  0  0  0  0  0  0  0  0  0
  149.2739  141.2476  155.4920 C   0  0  0  0  0  0  0  0  0  0  0  0
  149.9428  140.1395  154.9388 C   0  0  0  0  0  0  0  0  0  0  0  0
  149.3020  139.4252  153.8905 N   0  0  0  0  0  0  0  0  0  0  0  0
  148.0338  139.5329  153.4583 C   0  0  0  0  0  0  0  0  0  0  0  0
  147.1748  140.2676  153.9457 O   0  0  0  0  0  0  0  0  0  0  0  0
  147.8036  138.7140  152.4222 N   0  0  0  0  0  0  0  0  0  0  0  0
  146.5305  138.5890  151.7214 C   0  0  0  0  0  0  0  0  0  0  0  0
  145.9384  137.1781  151.8714 C   0  0  0  0  0  0  0  0  0  0  0  0
  144.7317  137.1486  152.8182 C   0  0  0  0  0  0  0  0  0  0  0  0
  143.6688  137.8927  152.2632 O   0  0  0  0  0  0  0  0  0  0  0  0
  151.1943  139.7879  155.4958 C   0  0  0  0  0  0  0  0  0  0  0  0
  151.7733  140.4717  156.5047 N   0  0  0  0  0  0  0  0  0  0  0  0
  152.2969  141.4127  159.1862 C   0  0  0  0  0  0  0  0  0  0  0  0
  153.3001  142.2054  160.0450 C   0  0  2  0  0  0  0  0  0  0  0  0
  153.7269  141.4280  161.2944 C   0  0  0  0  0  0  0  0  0  0  0  0
  152.6988  143.4272  160.4625 O   0  0  0  0  0  0  0  0  0  0  0  0
  151.5581  146.2724  159.1045 H   0  0  0  0  0  0  0  0  0  0  0  0
  152.5745  146.0851  160.5304 H   0  0  0  0  0  0  0  0  0  0  0  0
  150.9371  145.4345  160.5263 H   0  0  0  0  0  0  0  0  0  0  0  0
  153.2571  144.4698  158.7772 H   0  0  0  0  0  0  0  0  0  0  0  0
  150.3794  143.4292  159.0171 H   0  0  0  0  0  0  0  0  0  0  0  0
  151.1272  144.1620  157.6004 H   0  0  0  0  0  0  0  0  0  0  0  0
  149.3479  142.8101  156.9568 H   0  0  0  0  0  0  0  0  0  0  0  0
  148.3081  141.5513  155.1146 H   0  0  0  0  0  0  0  0  0  0  0  0
  149.8648  138.7166  153.4431 H   0  0  0  0  0  0  0  0  0  0  0  0
  148.5645  138.1398  152.0898 H   0  0  0  0  0  0  0  0  0  0  0  0
  145.8430  139.3262  152.1371 H   0  0  0  0  0  0  0  0  0  0  0  0
  146.6559  138.8417  150.6670 H   0  0  0  0  0  0  0  0  0  0  0  0
  145.6367  136.8004  150.8933 H   0  0  0  0  0  0  0  0  0  0  0  0
  146.7080  136.4988  152.2413 H   0  0  0  0  0  0  0  0  0  0  0  0
  144.3984  136.1244  152.9865 H   0  0  0  0  0  0  0  0  0  0  0  0
  144.9936  137.5721  153.7883 H   0  0  0  0  0  0  0  0  0  0  0  0
  143.9284  138.8004  152.2177 H   0  0  0  0  0  0  0  0  0  0  0  0
  151.7535  138.9306  155.1560 H   0  0  0  0  0  0  0  0  0  0  0  0
  151.4442  141.1023  159.7916 H   0  0  0  0  0  0  0  0  0  0  0  0
  152.7842  140.5038  158.8335 H   0  0  0  0  0  0  0  0  0  0  0  0
  154.1917  142.4277  159.4558 H   0  0  0  0  0  0  0  0  0  0  0  0
  154.2063  140.4864  161.0255 H   0  0  0  0  0  0  0  0  0  0  0  0
  152.8701  141.1988  161.9285 H   0  0  0  0  0  0  0  0  0  0  0  0
  154.4364  142.0043  161.8884 H   0  0  0  0  0  0  0  0  0  0  0  0
  1  2  1  0  0  0  0
  1 23  1  0  0  0  0
  1 24  1  0  0  0  0
  1 25  1  0  0  0  0
  2 22  1  0  0  0  0
  2  3  1  0  0  0  0
  2 26  1  0  0  0  0
  3  4  1  0  0  0  0
  3 27  1  0  0  0  0
  3 28  1  0  0  0  0
  4  5  1  0  0  0  0
  4 19  1  0  0  0  0
  5 18  1  0  0  0  0
  5  6  2  0  0  0  0
  6  7  1  0  0  0  0
  6 29  1  0  0  0  0
  7  8  2  0  0  0  0
  7 30  1  0  0  0  0
  8  9  1  0  0  0  0
  8 17  1  0  0  0  0
  9 10  1  0  0  0  0
  9 31  1  0  0  0  0
 10 11  2  0  0  0  0
 10 12  1  0  0  0  0
 12 13  1  0  0  0  0
 12 32  1  0  0  0  0
 13 14  1  0  0  0  0
 13 33  1  0  0  0  0
 13 34  1  0  0  0  0
 14 15  1  0  0  0  0
 14 35  1  0  0  0  0
 14 36  1  0  0  0  0
 15 16  1  0  0  0  0
 15 37  1  0  0  0  0
 15 38  1  0  0  0  0
 16 39  1  0  0  0  0
 17 18  2  0  0  0  0
 17 40  1  0  0  0  0
 19 20  1  0  0  0  0
 19 41  1  0  0  0  0
 19 42  1  0  0  0  0
 20 21  1  0  0  0  0
 20 22  1  0  0  0  0
 20 43  1  0  0  0  0
 21 44  1  0  0  0  0
 21 45  1  0  0  0  0
 21 46  1  0  0  0  0
M  END
> <s_m_source_file>
AV-unprocessed.smi

> <i_m_source_file_index>
2430

> <i_lp_mmshare_version>
43012

> <i_f3d_flags>
0

> <s_epik_input>
W0NIM11bQ0BASF0xW0NIMl1OKFtDSDJdW0NASF0oTzEpW0NIM10pYzJbY0hdW2NIXWMoW2NIXW4yKVtOSF1DKD1PKVtOSF1bQ0gyXVtDSDJdW0NIMl1bT0hd

> <s_epik_cmdline>
J2VwaWtfcHl0aG9uJywgJy1waCcsICc3LjAnLCAnLXRuJywgJzgnLCAnLW1hJywgJzIwMCcsICctbWV0YWxfYmluZGluZycsICctaW1hZScsICc8aW5maWxlLm1hZT4nLCAnLW9tYWUnLCAnPG91dGZpbGUubWFlPic=

> <r_lp_tautomer_probability>
1

> <r_epik_Ionization_Penalty>
0.00269907

> <r_epik_Ionization_Penalty_Charging>
0

> <r_epik_Ionization_Penalty_Neutral>
0.00269907

> <r_epik_State_Penalty>
0.00185337

> <r_epik_Charging_Adjusted_Penalty>
0.00185337

> <i_epik_Tot_Q>
0

> <i_epik_Tot_abs_Q>
0

> <r_epik_Metal_State_Penalty>
-0

> <b_epik_Metal_Only>
0

> <s_lp_Force_Field>
OPLS_2005

> <r_lp_Energy>
18.4655

> <b_lp_Chiralities_Consistent>
1

> <s_lp_Variant>
AV-unprocessed.smi:2430-2

> <Gold.Version>
5.8.1

> <Gold.Id.Protein>
6NUR|6NUR_protein|mol2

> <Gold.PLP.Fitness>
52.4261

> <Gold.PLP.PLP>
-47.6318

> <Gold.PLP.part.hbond>
-4.8729

> <Gold.PLP.part.metal>
0.0000

> <Gold.PLP.part.buried>
-1.7994

> <Gold.PLP.part.nonpolar>
-41.6524

> <Gold.PLP.part.repulsive>
0.3542

> <Gold.PLP.ligand.clash>
0.0000

> <Gold.PLP.ligand.torsion>
0.6110

> <Gold.PLP.Chemscore.Hbond>
1.8480

> <Gold.PLP.Chemscore.CHOScore>
0.0000

> <Gold.PLP.Chemscore.Metal>
0.0000

> <Gold.Chemscore.Hbonds>
donor molecule, donor type, donor heavy atom, donor atom, acceptor molecule, acceptor atom, score
      L1  H    12    32       P1  7948  0.78
      L1  H    16    39       P1 10175  1.00

> <Gold.PLP.Chemscore.Internal.Correction>
0.4722

> <Gold.Rescore>
     Score         DG    S(hbond)    S(metal)    S(lipo)     H(rot)  DE(clash)    DE(int)     intcor
     17.14     -19.44       2.00        0.00     113.38       2.33       0.24       2.07       ----

> <Gold.Chemscore.Fitness>
17.1429

> <Gold.Chemscore.DG>
-19.4436

> <Gold.Chemscore.ZeroCoef>
-5.4800

> <Gold.Chemscore.Hbond>
1.9985

> <Gold.Chemscore.Metal>
0.0000

> <Gold.Chemscore.Lipo>
113.3768

> <Gold.Chemscore.Internal_Hbond>
0.0000

> <Gold.Chemscore.DEClash>
0.2351

> <Gold.Chemscore.DEInternal>
2.0656

> <Gold.Chemscore.Rot>
2.3346

> <Gold.Chemscore.Internal.Correction>
   9.000000E+99

> <Gold.Chemscore.Hbonds>
donor molecule, donor type, donor heavy atom, donor atom, acceptor molecule, acceptor atom, score
      L1  H    12    32       P1  7948  0.77
      L1  H    16    39       P1 10175  0.96

> <Gold.Chemscore.Hbond.Weighted>
-6.6751

> <Gold.Chemscore.Metal.Weighted>
-0.0000

> <Gold.Chemscore.Lipo.Weighted>
-13.2651

> <Gold.Chemscore.Internal_Hbond.Weighted>
0.0000

> <Gold.Chemscore.DEClash.Weighted>
0.2351

> <Gold.Chemscore.DEInternal.Weighted>
2.0656

> <Gold.Chemscore.Rot.Weighted>
5.9766

> <Gold.Chemscore.Internal.Correction.Weighted>
   9.000000E+99

> <Gold.Protein.RotatedTorsions>
[ 6907 6896 6895 6894 ] final -126.83 input  -60.11 | X-H torsion
[ 7974 7965 7964 7962 ] final  -33.53 input  175.53 | X-H torsion
[ 8008 7997 7996 7995 ] final  172.36 input   59.86 | X-H torsion
[ 10167 10162 10161 10158 ] final   63.12 input  -65.29 | X-H torsion
[ 10718 10713 10712 10709 ] final  -79.96 input   66.30 | X-H torsion
[ 10763 10752 10751 10750 ] final  -61.74 input  -60.55 | X-H torsion
[ 11005 11000 10999 10996 ] final -127.26 input  -57.11 | X-H torsion

> <Gold.Protein.ActiveResidues>
 VAL166  LYS551  ARG553  GLY616  TRP617  ASP618  TYR619  PRO620  LYS621  CYS622 
 ASP623  PHE694  ASN695  SER759  ASP760  ASP761  ALA762  ILE779  LEU786  VAL792 
 PHE793  MET794  SER795  GLU796  ALA797  LYS798  CYS799  TRP800  GLU811  SER814 

> <Gold.Protein.RotatedAtoms>
  150.9010  133.7118  159.2878 H   0  0  0  0  0  0  0  0  0  0  0  0  # atno 6907 bound_to 6896
  151.4637  135.1039  159.9741 H   0  0  0  0  0  0  0  0  0  0  0  0  # atno 6908 bound_to 6896
  152.4876  133.8367  159.7186 H   0  0  0  0  0  0  0  0  0  0  0  0  # atno 6909 bound_to 6896
  146.0903  140.5928  142.8867 H   0  0  0  0  0  0  0  0  0  0  0  0  # atno 7974 bound_to 7965
  156.1182  140.1488  156.9243 H   0  0  0  0  0  0  0  0  0  0  0  0  # atno 8008 bound_to 7997
  154.4816  140.0878  156.7432 H   0  0  0  0  0  0  0  0  0  0  0  0  # atno 8009 bound_to 7997
  155.4476  140.3433  155.4299 H   0  0  0  0  0  0  0  0  0  0  0  0  # atno 8010 bound_to 7997
  140.1365  144.4594  150.6835 H   0  0  0  0  0  0  0  0  0  0  0  0  # atno 10167 bound_to 10162
  156.0080  130.4560  150.3728 H   0  0  0  0  0  0  0  0  0  0  0  0  # atno 10718 bound_to 10713
  154.2893  135.6256  153.5378 H   0  0  0  0  0  0  0  0  0  0  0  0  # atno 10763 bound_to 10752
  152.9855  135.5652  154.5408 H   0  0  0  0  0  0  0  0  0  0  0  0  # atno 10764 bound_to 10752
  154.5015  135.2872  155.1392 H   0  0  0  0  0  0  0  0  0  0  0  0  # atno 10765 bound_to 10752
  140.9614  134.0931  157.3964 H   0  0  0  0  0  0  0  0  0  0  0  0  # atno 11005 bound_to 11000
  144.7355  140.4796  143.6907 LP  0  0  0  0  0  0  0  0  0  0  0  0  # atno 17320 bound_to 7965
  145.6052  139.1507  143.3107 LP  0  0  0  0  0  0  0  0  0  0  0  0  # atno 17321 bound_to 7965
  140.6786  143.2316  151.5443 LP  0  0  0  0  0  0  0  0  0  0  0  0  # atno 17342 bound_to 10162
  139.5493  144.2437  152.1501 LP  0  0  0  0  0  0  0  0  0  0  0  0  # atno 17343 bound_to 10162
  157.1811  131.0392  151.2748 LP  0  0  0  0  0  0  0  0  0  0  0  0  # atno 17370 bound_to 10713
  157.4144  130.7403  149.6864 LP  0  0  0  0  0  0  0  0  0  0  0  0  # atno 17371 bound_to 10713
  139.8879  135.0094  156.6590 LP  0  0  0  0  0  0  0  0  0  0  0  0  # atno 17394 bound_to 11000
  140.7462  133.8936  155.8313 LP  0  0  0  0  0  0  0  0  0  0  0  0  # atno 17395 bound_to 11000

$$$$
