AV-unprocessed.smi:2059|AV-procd|sdf|8350|dock4
  -GOLD-   2272011 23D 1   1.00000     0.00000
 Structure written by MMmdl.
 29 30  0  0  0  0  0  0  0  0  2 V2000
  146.5667  135.9837  163.0210 C   0  0  0  0  0  0  0  0  0  0  0  0
  147.3325  136.0462  161.7437 C   0  0  0  0  0  0  0  0  0  0  0  0
  147.9907  135.1010  161.0094 C   0  0  0  0  0  0  0  0  0  0  0  0
  148.4976  135.8405  159.9064 C   0  0  0  0  0  0  0  0  0  0  0  0
  149.2202  135.3397  158.8888 N   0  5  0  0  0  0  0  0  0  0  0  0
  149.8093  136.1236  157.9471 C   0  0  0  0  0  0  0  0  0  0  0  0
  151.0170  136.1039  157.7120 O   0  0  0  0  0  0  0  0  0  0  0  0
  149.0224  136.9586  157.2414 N   0  0  0  0  0  0  0  0  0  0  0  0
  149.4613  137.8837  156.2017 C   0  0  2  0  0  0  0  0  0  0  0  0
  150.3019  137.1533  155.1385 C   0  0  0  0  0  0  0  0  0  0  0  0
  151.0295  138.1973  154.2829 C   0  0  0  0  0  0  0  0  0  0  0  0
  151.3484  139.6249  155.3880 S   0  0  0  0  0  0  0  0  0  0  0  0
  152.7597  139.6208  155.8027 O   0  0  0  0  0  0  0  0  0  0  0  0
  150.7366  140.8267  154.8009 O   0  0  0  0  0  0  0  0  0  0  0  0
  150.3140  139.0263  156.7761 C   0  0  0  0  0  0  0  0  0  0  0  0
  148.1680  137.1203  159.9615 N   0  0  0  0  0  0  0  0  0  0  0  0
  147.4253  137.2615  161.1397 O   0  0  0  0  0  0  0  0  0  0  0  0
  145.6139  135.4752  162.8730 H   0  0  0  0  0  0  0  0  0  0  0  0
  146.3604  136.9827  163.4057 H   0  0  0  0  0  0  0  0  0  0  0  0
  147.1266  135.4386  163.7810 H   0  0  0  0  0  0  0  0  0  0  0  0
  148.0943  134.0483  161.2251 H   0  0  0  0  0  0  0  0  0  0  0  0
  148.0351  136.9486  157.4515 H   0  0  0  0  0  0  0  0  0  0  0  0
  148.5902  138.3118  155.7022 H   0  0  0  0  0  0  0  0  0  0  0  0
  151.0474  136.5318  155.6372 H   0  0  0  0  0  0  0  0  0  0  0  0
  149.6925  136.4878  154.5262 H   0  0  0  0  0  0  0  0  0  0  0  0
  151.9650  137.8272  153.8637 H   0  0  0  0  0  0  0  0  0  0  0  0
  150.3920  138.5397  153.4675 H   0  0  0  0  0  0  0  0  0  0  0  0
  149.7145  139.8423  157.1802 H   0  0  0  0  0  0  0  0  0  0  0  0
  150.9813  138.6648  157.5593 H   0  0  0  0  0  0  0  0  0  0  0  0
  1  2  1  0  0  0  0
  1 18  1  0  0  0  0
  1 19  1  0  0  0  0
  1 20  1  0  0  0  0
  2 17  1  0  0  0  0
  2  3  2  0  0  0  0
  3  4  1  0  0  0  0
  3 21  1  0  0  0  0
  4  5  1  0  0  0  0
  4 16  2  0  0  0  0
  5  6  1  0  0  0  0
  6  7  2  0  0  0  0
  6  8  1  0  0  0  0
  8  9  1  0  0  0  0
  8 22  1  0  0  0  0
  9 15  1  0  0  0  0
  9 10  1  0  0  0  0
  9 23  1  0  0  0  0
 10 11  1  0  0  0  0
 10 24  1  0  0  0  0
 10 25  1  0  0  0  0
 11 12  1  0  0  0  0
 11 26  1  0  0  0  0
 11 27  1  0  0  0  0
 12 13  2  0  0  0  0
 12 14  2  0  0  0  0
 12 15  1  0  0  0  0
 15 28  1  0  0  0  0
 15 29  1  0  0  0  0
 16 17  1  0  0  0  0
M  CHG  1   5  -1
M  END
> <s_m_source_file>
AV-unprocessed.smi

> <i_m_source_file_index>
2059

> <i_lp_mmshare_version>
43012

> <i_f3d_flags>
0

> <s_epik_input>
W0NIM11jMVtjSF1jKG5vMSlbTkhdQyg9TylbTkhdW0NAQEhdKFtDSDJdMilbQ0gyXVtDSDJdUzIoPU8pPU8=

> <s_epik_cmdline>
J2VwaWtfcHl0aG9uJywgJy1waCcsICc3LjAnLCAnLXRuJywgJzgnLCAnLW1hJywgJzIwMCcsICctbWV0YWxfYmluZGluZycsICctaW1hZScsICc8aW5maWxlLm1hZT4nLCAnLW9tYWUnLCAnPG91dGZpbGUubWFlPic=

> <r_lp_tautomer_probability>
1

> <r_epik_Ionization_Penalty>
6.15571

> <r_epik_Ionization_Penalty_Charging>
6.1556

> <r_epik_Ionization_Penalty_Neutral>
0.000110918

> <r_epik_State_Penalty>
6.15558

> <r_epik_Charging_Adjusted_Penalty>
12.3112

> <i_epik_Tot_Q>
-1

> <i_epik_Tot_abs_Q>
1

> <r_epik_Metal_State_Penalty>
2.1059

> <b_epik_Metal_Only>
1

> <s_lp_Force_Field>
OPLS_2005

> <r_lp_Energy>
-1.67492

> <b_lp_Chiralities_Consistent>
1

> <s_lp_Variant>
AV-unprocessed.smi:2059-3

> <Gold.Version>
5.8.1

> <Gold.Id.Protein>
6NUR|6NUR_protein|mol2

> <Gold.PLP.Fitness>
37.2835

> <Gold.PLP.PLP>
-23.3931

> <Gold.PLP.part.hbond>
-6.7430

> <Gold.PLP.part.metal>
0.0000

> <Gold.PLP.part.buried>
-0.9840

> <Gold.PLP.part.nonpolar>
-15.0847

> <Gold.PLP.part.repulsive>
0.1147

> <Gold.PLP.ligand.clash>
0.0000

> <Gold.PLP.ligand.torsion>
0.6086

> <Gold.PLP.Chemscore.Hbond>
5.0357

> <Gold.PLP.Chemscore.CHOScore>
0.0000

> <Gold.PLP.Chemscore.Metal>
0.0000

> <Gold.Chemscore.Hbonds>
donor molecule, donor type, donor heavy atom, donor atom, acceptor molecule, acceptor atom, score
      P1  H  6896  6907       L1     5  1.89
      P1  H  6931  6943       L1    17  0.29
      P1  H  6934  6947       L1    17  0.69
      P1  H  7989  7998       L1    14  0.75
      P1  H  7997  8008       L1    13  0.91

> <Gold.PLP.Chemscore.Internal.Correction>
0.0005

> <Gold.Rescore>
     Score         DG    S(hbond)    S(metal)    S(lipo)     H(rot)  DE(clash)    DE(int)     intcor
     11.55     -15.26       2.18        0.00      43.40       1.00       0.40       3.32       ----

> <Gold.Chemscore.Fitness>
11.5463

> <Gold.Chemscore.DG>
-15.2641

> <Gold.Chemscore.ZeroCoef>
-5.4800

> <Gold.Chemscore.Hbond>
2.1756

> <Gold.Chemscore.Metal>
0.0000

> <Gold.Chemscore.Lipo>
43.3988

> <Gold.Chemscore.Internal_Hbond>
0.0000

> <Gold.Chemscore.DEClash>
0.3992

> <Gold.Chemscore.DEInternal>
3.3186

> <Gold.Chemscore.Rot>
1.0000

> <Gold.Chemscore.Internal.Correction>
   9.000000E+99

> <Gold.Chemscore.Hbonds>
donor molecule, donor type, donor heavy atom, donor atom, acceptor molecule, acceptor atom, score
      P1  H  6896  6907       L1     5  0.29
      P1  H  6934  6947       L1    17  0.07
      P1  H  7989  7998       L1    14  0.14
      P1  H  7997  8008       L1    13  0.90

> <Gold.Chemscore.Hbond.Weighted>
-7.2665

> <Gold.Chemscore.Metal.Weighted>
-0.0000

> <Gold.Chemscore.Lipo.Weighted>
-5.0777

> <Gold.Chemscore.Internal_Hbond.Weighted>
0.0000

> <Gold.Chemscore.DEClash.Weighted>
0.3992

> <Gold.Chemscore.DEInternal.Weighted>
3.3186

> <Gold.Chemscore.Rot.Weighted>
2.5600

> <Gold.Chemscore.Internal.Correction.Weighted>
   9.000000E+99

> <Gold.Protein.RotatedTorsions>
[ 6907 6896 6895 6894 ] final  -93.75 input  -60.11 | X-H torsion
[ 7974 7965 7964 7962 ] final  -49.92 input  175.53 | X-H torsion
[ 8008 7997 7996 7995 ] final   -9.83 input   59.86 | X-H torsion
[ 10167 10162 10161 10158 ] final   71.35 input  -65.29 | X-H torsion
[ 10718 10713 10712 10709 ] final  -51.16 input   66.30 | X-H torsion
[ 10763 10752 10751 10750 ] final   68.11 input  -60.55 | X-H torsion
[ 11005 11000 10999 10996 ] final  -30.21 input  -57.11 | X-H torsion

> <Gold.Protein.ActiveResidues>
 VAL166  LYS551  ARG553  GLY616  TRP617  ASP618  TYR619  PRO620  LYS621  CYS622 
 ASP623  PHE694  ASN695  SER759  ASP760  ASP761  ALA762  ILE779  LEU786  VAL792 
 PHE793  MET794  SER795  GLU796  ALA797  LYS798  CYS799  TRP800  GLU811  SER814 

> <Gold.Protein.RotatedAtoms>
  150.6928  134.1919  159.4288 H   0  0  0  0  0  0  0  0  0  0  0  0  # atno 6907 bound_to 6896
  151.9890  134.9987  160.0570 H   0  0  0  0  0  0  0  0  0  0  0  0  # atno 6908 bound_to 6896
  152.1685  133.4593  159.4934 H   0  0  0  0  0  0  0  0  0  0  0  0  # atno 6909 bound_to 6896
  145.9353  140.7712  142.9579 H   0  0  0  0  0  0  0  0  0  0  0  0  # atno 7974 bound_to 7965
  154.5610  140.2345  155.8335 H   0  0  0  0  0  0  0  0  0  0  0  0  # atno 8008 bound_to 7997
  156.2029  140.3047  155.9525 H   0  0  0  0  0  0  0  0  0  0  0  0  # atno 8009 bound_to 7997
  155.2889  140.0426  157.3012 H   0  0  0  0  0  0  0  0  0  0  0  0  # atno 8010 bound_to 7997
  140.0470  144.5343  150.7391 H   0  0  0  0  0  0  0  0  0  0  0  0  # atno 10167 bound_to 10162
  156.1735  130.4149  149.9611 H   0  0  0  0  0  0  0  0  0  0  0  0  # atno 10718 bound_to 10713
  153.0219  135.5259  154.7083 H   0  0  0  0  0  0  0  0  0  0  0  0  # atno 10763 bound_to 10752
  154.6173  135.2885  155.0368 H   0  0  0  0  0  0  0  0  0  0  0  0  # atno 10764 bound_to 10752
  154.1367  135.6584  153.4986 H   0  0  0  0  0  0  0  0  0  0  0  0  # atno 10765 bound_to 10752
  140.9363  133.7306  156.1010 H   0  0  0  0  0  0  0  0  0  0  0  0  # atno 11005 bound_to 11000
  144.6771  140.2193  143.7368 LP  0  0  0  0  0  0  0  0  0  0  0  0  # atno 17320 bound_to 7965
  145.8371  139.2112  143.1849 LP  0  0  0  0  0  0  0  0  0  0  0  0  # atno 17321 bound_to 7965
  140.7234  143.2611  151.4202 LP  0  0  0  0  0  0  0  0  0  0  0  0  # atno 17342 bound_to 10162
  139.5977  144.1362  152.2163 LP  0  0  0  0  0  0  0  0  0  0  0  0  # atno 17343 bound_to 10162
  156.7404  130.9077  151.3632 LP  0  0  0  0  0  0  0  0  0  0  0  0  # atno 17370 bound_to 10713
  157.6820  130.9148  150.0290 LP  0  0  0  0  0  0  0  0  0  0  0  0  # atno 17371 bound_to 10713
  140.7794  134.3742  157.5490 LP  0  0  0  0  0  0  0  0  0  0  0  0  # atno 17394 bound_to 11000
  139.8809  134.9072  156.2940 LP  0  0  0  0  0  0  0  0  0  0  0  0  # atno 17395 bound_to 11000

$$$$
