AV-unprocessed.smi:1999|AV-procd|sdf|8098|dock6
  -GOLD-   2272010323D 1   1.00000     0.00000
 Structure written by MMmdl.
 38 39  0  0  0  0  0  0  0  0  3 V2000
  152.9976  137.8399  162.4408 C   0  0  0  0  0  0  0  0  0  0  0  0
  152.7906  138.0104  160.9748 C   0  0  0  0  0  0  0  0  0  0  0  0
  152.1496  137.1124  160.2226 N   0  0  0  0  0  0  0  0  0  0  0  0
  152.0858  137.4960  158.8912 N   0  0  0  0  0  0  0  0  0  0  0  0
  152.6882  138.6698  158.6532 C   0  0  0  0  0  0  0  0  0  0  0  0
  152.7405  139.2148  157.4267 N   0  5  0  0  0  0  0  0  0  0  0  0
  151.7792  138.9269  156.5226 C   0  0  0  0  0  0  0  0  0  0  0  0
  150.9096  139.6988  156.1130 O   0  0  0  0  0  0  0  0  0  0  0  0
  151.8525  137.6779  156.0379 N   0  0  0  0  0  0  0  0  0  0  0  0
  151.0295  137.1031  154.9720 C   0  0  2  0  0  0  0  0  0  0  0  0
  151.1480  137.9748  153.7147 C   0  0  0  0  0  0  0  0  0  0  0  0
  149.5594  136.9660  155.4300 C   0  0  0  0  0  0  0  0  0  0  0  0
  148.8675  135.8163  154.7944 N   0  3  0  0  0  0  0  0  0  0  0  0
  149.5016  134.5097  155.0821 C   0  0  0  0  0  0  0  0  0  0  0  0
  148.7879  133.3964  154.2961 C   0  0  0  0  0  0  0  0  0  0  0  0
  147.4030  133.3890  154.6245 O   0  0  0  0  0  0  0  0  0  0  0  0
  146.7674  134.6167  154.2868 C   0  0  0  0  0  0  0  0  0  0  0  0
  147.4145  135.7627  155.0813 C   0  0  0  0  0  0  0  0  0  0  0  0
  153.3779  139.4120  160.0958 S   0  0  0  0  0  0  0  0  0  0  0  0
  154.0179  137.5096  162.6359 H   0  0  0  0  0  0  0  0  0  0  0  0
  152.3056  137.0987  162.8421 H   0  0  0  0  0  0  0  0  0  0  0  0
  152.8305  138.7864  162.9551 H   0  0  0  0  0  0  0  0  0  0  0  0
  152.5763  137.0845  156.4174 H   0  0  0  0  0  0  0  0  0  0  0  0
  151.4129  136.1164  154.7086 H   0  0  0  0  0  0  0  0  0  0  0  0
  150.5647  137.5584  152.8929 H   0  0  0  0  0  0  0  0  0  0  0  0
  152.1840  138.0425  153.3809 H   0  0  0  0  0  0  0  0  0  0  0  0
  150.7901  138.9887  153.8971 H   0  0  0  0  0  0  0  0  0  0  0  0
  149.5566  136.8255  156.5122 H   0  0  0  0  0  0  0  0  0  0  0  0
  149.0036  137.8858  155.2421 H   0  0  0  0  0  0  0  0  0  0  0  0
  150.5549  134.5374  154.7998 H   0  0  0  0  0  0  0  0  0  0  0  0
  149.4578  134.3068  156.1533 H   0  0  0  0  0  0  0  0  0  0  0  0
  148.9174  133.5350  153.2212 H   0  0  0  0  0  0  0  0  0  0  0  0
  149.2159  132.4254  154.5459 H   0  0  0  0  0  0  0  0  0  0  0  0
  146.8400  134.7971  153.2128 H   0  0  0  0  0  0  0  0  0  0  0  0
  145.7066  134.5444  154.5273 H   0  0  0  0  0  0  0  0  0  0  0  0
  147.2545  135.6155  156.1504 H   0  0  0  0  0  0  0  0  0  0  0  0
  146.9390  136.7062  154.8147 H   0  0  0  0  0  0  0  0  0  0  0  0
  148.9621  135.9569  153.7975 H   0  0  0  0  0  0  0  0  0  0  0  0
  1  2  1  0  0  0  0
  1 20  1  0  0  0  0
  1 21  1  0  0  0  0
  1 22  1  0  0  0  0
  2 19  1  0  0  0  0
  2  3  2  0  0  0  0
  3  4  1  0  0  0  0
  4  5  2  0  0  0  0
  5  6  1  0  0  0  0
  5 19  1  0  0  0  0
  6  7  1  0  0  0  0
  7  8  2  0  0  0  0
  7  9  1  0  0  0  0
  9 10  1  0  0  0  0
  9 23  1  0  0  0  0
 10 11  1  0  0  0  0
 10 12  1  0  0  0  0
 10 24  1  0  0  0  0
 11 25  1  0  0  0  0
 11 26  1  0  0  0  0
 11 27  1  0  0  0  0
 12 13  1  0  0  0  0
 12 28  1  0  0  0  0
 12 29  1  0  0  0  0
 13 18  1  0  0  0  0
 13 14  1  0  0  0  0
 13 38  1  0  0  0  0
 14 15  1  0  0  0  0
 14 30  1  0  0  0  0
 14 31  1  0  0  0  0
 15 16  1  0  0  0  0
 15 32  1  0  0  0  0
 15 33  1  0  0  0  0
 16 17  1  0  0  0  0
 17 18  1  0  0  0  0
 17 34  1  0  0  0  0
 17 35  1  0  0  0  0
 18 36  1  0  0  0  0
 18 37  1  0  0  0  0
M  CHG  1   6  -1
M  CHG  1  13   1
M  END
> <s_m_source_file>
AV-unprocessed.smi

> <i_m_source_file_index>
1999

> <i_lp_mmshare_version>
43012

> <i_f3d_flags>
0

> <s_epik_input>
W0NIM11jMW5uYyhzMSlbTkhdQyg9TylbTkhdW0NASF0oW0NIM10pW0NIMl1OMltDSDJdW0NIMl1PW0NIMl1bQ0gyXTI=

> <s_epik_cmdline>
J2VwaWtfcHl0aG9uJywgJy1waCcsICc3LjAnLCAnLXRuJywgJzgnLCAnLW1hJywgJzIwMCcsICctbWV0YWxfYmluZGluZycsICctaW1hZScsICc8aW5maWxlLm1hZT4nLCAnLW9tYWUnLCAnPG91dGZpbGUubWFlPic=

> <r_lp_tautomer_probability>
1

> <r_epik_Ionization_Penalty>
3.39984

> <r_epik_Ionization_Penalty_Charging>
3.28696

> <r_epik_Ionization_Penalty_Neutral>
0.11288

> <r_epik_State_Penalty>
3.47917

> <r_epik_Charging_Adjusted_Penalty>
6.76613

> <i_epik_Tot_Q>
0

> <i_epik_Tot_abs_Q>
2

> <r_epik_Metal_State_Penalty>
1.13142

> <b_epik_Metal_Only>
1

> <s_lp_Force_Field>
OPLS_2005

> <r_lp_Energy>
12.288

> <b_lp_Chiralities_Consistent>
1

> <s_lp_Variant>
AV-unprocessed.smi:1999-7

> <Gold.Version>
5.8.1

> <Gold.Id.Protein>
6NUR|6NUR_protein|mol2

> <Gold.PLP.Fitness>
37.4526

> <Gold.PLP.PLP>
-24.7761

> <Gold.PLP.part.hbond>
-3.0000

> <Gold.PLP.part.metal>
0.0000

> <Gold.PLP.part.buried>
-4.9597

> <Gold.PLP.part.nonpolar>
-16.8232

> <Gold.PLP.part.repulsive>
0.2118

> <Gold.PLP.ligand.clash>
0.0000

> <Gold.PLP.ligand.torsion>
1.2481

> <Gold.PLP.Chemscore.Hbond>
5.0000

> <Gold.PLP.Chemscore.CHOScore>
0.0000

> <Gold.PLP.Chemscore.Metal>
0.0000

> <Gold.Chemscore.Hbonds>
donor molecule, donor type, donor heavy atom, donor atom, acceptor molecule, acceptor atom, score
      L1  H    13    38       P1  7948  2.00
      P1  H  6896  6907       L1     3  1.00
      P1  H  7997  8008       L1     6  2.00

> <Gold.PLP.Chemscore.Internal.Correction>
0.1727

> <Gold.Rescore>
     Score         DG    S(hbond)    S(metal)    S(lipo)     H(rot)  DE(clash)    DE(int)     intcor
     14.54     -17.39       2.84        0.00      55.70       1.60       0.04       2.81       ----

> <Gold.Chemscore.Fitness>
14.5430

> <Gold.Chemscore.DG>
-17.3908

> <Gold.Chemscore.ZeroCoef>
-5.4800

> <Gold.Chemscore.Hbond>
2.8442

> <Gold.Chemscore.Metal>
0.0000

> <Gold.Chemscore.Lipo>
55.6951

> <Gold.Chemscore.Internal_Hbond>
0.0000

> <Gold.Chemscore.DEClash>
0.0368

> <Gold.Chemscore.DEInternal>
2.8109

> <Gold.Chemscore.Rot>
1.6036

> <Gold.Chemscore.Internal.Correction>
   9.000000E+99

> <Gold.Chemscore.Hbonds>
donor molecule, donor type, donor heavy atom, donor atom, acceptor molecule, acceptor atom, score
      L1  H    13    38       P1  7948  0.96
      P1  H  6896  6907       L1     3  0.24
      P1  H  7997  8008       L1     6  0.90

> <Gold.Chemscore.Hbond.Weighted>
-9.4998

> <Gold.Chemscore.Metal.Weighted>
-0.0000

> <Gold.Chemscore.Lipo.Weighted>
-6.5163

> <Gold.Chemscore.Internal_Hbond.Weighted>
0.0000

> <Gold.Chemscore.DEClash.Weighted>
0.0368

> <Gold.Chemscore.DEInternal.Weighted>
2.8109

> <Gold.Chemscore.Rot.Weighted>
4.1053

> <Gold.Chemscore.Internal.Correction.Weighted>
   9.000000E+99

> <Gold.Protein.RotatedTorsions>
[ 6907 6896 6895 6894 ] final    7.16 input  -60.11 | X-H torsion
[ 7974 7965 7964 7962 ] final  -39.16 input  175.53 | X-H torsion
[ 8008 7997 7996 7995 ] final  -70.53 input   59.86 | X-H torsion
[ 10167 10162 10161 10158 ] final  -29.37 input  -65.29 | X-H torsion
[ 10718 10713 10712 10709 ] final   -0.50 input   66.30 | X-H torsion
[ 10763 10752 10751 10750 ] final  168.17 input  -60.55 | X-H torsion
[ 11005 11000 10999 10996 ] final -141.74 input  -57.11 | X-H torsion

> <Gold.Protein.ActiveResidues>
 VAL166  LYS551  ARG553  GLY616  TRP617  ASP618  TYR619  PRO620  LYS621  CYS622 
 ASP623  PHE694  ASN695  SER759  ASP760  ASP761  ALA762  ILE779  LEU786  VAL792 
 PHE793  MET794  SER795  GLU796  ALA797  LYS798  CYS799  TRP800  GLU811  SER814 

> <Gold.Protein.RotatedAtoms>
  151.6854  135.0955  160.0223 H   0  0  0  0  0  0  0  0  0  0  0  0  # atno 6907 bound_to 6896
  152.3810  133.6542  159.6170 H   0  0  0  0  0  0  0  0  0  0  0  0  # atno 6908 bound_to 6896
  150.7747  133.9030  159.3388 H   0  0  0  0  0  0  0  0  0  0  0  0  # atno 6909 bound_to 6896
  146.0421  140.6594  142.9082 H   0  0  0  0  0  0  0  0  0  0  0  0  # atno 7974 bound_to 7965
  154.5019  140.0832  156.7815 H   0  0  0  0  0  0  0  0  0  0  0  0  # atno 8008 bound_to 7997
  155.3983  140.3436  155.4237 H   0  0  0  0  0  0  0  0  0  0  0  0  # atno 8009 bound_to 7997
  156.1467  140.1546  156.8823 H   0  0  0  0  0  0  0  0  0  0  0  0  # atno 8010 bound_to 7997
  140.7261  143.3934  151.1389 H   0  0  0  0  0  0  0  0  0  0  0  0  # atno 10167 bound_to 10162
  156.8194  130.5451  149.5699 H   0  0  0  0  0  0  0  0  0  0  0  0  # atno 10718 bound_to 10713
  154.3647  135.2753  155.2300 H   0  0  0  0  0  0  0  0  0  0  0  0  # atno 10763 bound_to 10752
  154.4474  135.5939  153.6172 H   0  0  0  0  0  0  0  0  0  0  0  0  # atno 10764 bound_to 10752
  152.9841  135.6033  154.3871 H   0  0  0  0  0  0  0  0  0  0  0  0  # atno 10765 bound_to 10752
  140.8294  134.2535  157.4864 H   0  0  0  0  0  0  0  0  0  0  0  0  # atno 11005 bound_to 11000
  144.7080  140.3927  143.7103 LP  0  0  0  0  0  0  0  0  0  0  0  0  # atno 17320 bound_to 7965
  145.6866  139.1630  143.2670 LP  0  0  0  0  0  0  0  0  0  0  0  0  # atno 17321 bound_to 7965
  139.7543  143.8731  152.3085 LP  0  0  0  0  0  0  0  0  0  0  0  0  # atno 17342 bound_to 10162
  139.8595  144.7124  150.9116 LP  0  0  0  0  0  0  0  0  0  0  0  0  # atno 17343 bound_to 10162
  156.0997  130.5960  150.9874 LP  0  0  0  0  0  0  0  0  0  0  0  0  # atno 17370 bound_to 10713
  157.6464  131.0903  150.8143 LP  0  0  0  0  0  0  0  0  0  0  0  0  # atno 17371 bound_to 10713
  139.8705  134.9578  156.4280 LP  0  0  0  0  0  0  0  0  0  0  0  0  # atno 17394 bound_to 11000
  140.9014  133.7777  155.9685 LP  0  0  0  0  0  0  0  0  0  0  0  0  # atno 17395 bound_to 11000

$$$$
