AV-unprocessed.smi:2742|AV-procd|sdf|10563|dock6
  -GOLD-   2272015 13D 1   1.00000     0.00000
 Structure written by MMmdl.
 37 38  0  0  0  0  0  0  0  0  1 V2000
  153.4411  139.3450  159.5372 C   0  0  0  0  0  0  0  0  0  0  0  0
  154.2828  140.9435  159.6920 S   0  0  0  0  0  0  0  0  0  0  0  0
  152.8609  142.0745  159.7139 C   0  0  1  0  0  0  0  0  0  0  0  0
  153.3071  143.5342  159.9241 C   0  0  0  0  0  0  0  0  0  0  0  0
  152.1082  144.4956  159.9047 C   0  0  0  0  0  0  0  0  0  0  0  0
  151.2981  144.3522  158.6071 C   0  0  0  0  0  0  0  0  0  0  0  0
  150.8410  142.8981  158.3928 C   0  0  1  0  0  0  0  0  0  0  0  0
  150.1191  142.7908  157.1283 N   0  0  0  0  0  0  0  0  0  0  0  0
  149.7856  141.6424  156.5216 C   0  0  0  0  0  0  0  0  0  0  0  0
  150.0596  140.5324  156.9770 O   0  0  0  0  0  0  0  0  0  0  0  0
  149.1151  141.8759  155.3801 N   0  0  0  0  0  0  0  0  0  0  0  0
  148.5706  140.9474  154.4497 C   0  0  0  0  0  0  0  0  0  0  0  0
  149.1119  139.6654  154.1851 C   0  0  0  0  0  0  0  0  0  0  0  0
  148.4779  138.8491  153.2270 C   0  0  0  0  0  0  0  0  0  0  0  0
  147.3800  139.2248  152.5377 N   0  0  0  0  0  0  0  0  0  0  0  0
  146.8734  140.4513  152.7836 C   0  0  0  0  0  0  0  0  0  0  0  0
  147.4300  141.3453  153.7202 C   0  0  0  0  0  0  0  0  0  0  0  0
  146.8724  142.5650  153.9147 F   0  0  0  0  0  0  0  0  0  0  0  0
  152.0484  141.9381  158.4133 C   0  0  0  0  0  0  0  0  0  0  0  0
  154.1752  138.5417  159.4748 H   0  0  0  0  0  0  0  0  0  0  0  0
  152.8280  139.3220  158.6360 H   0  0  0  0  0  0  0  0  0  0  0  0
  152.8023  139.1571  160.3995 H   0  0  0  0  0  0  0  0  0  0  0  0
  152.2205  141.7759  160.5450 H   0  0  0  0  0  0  0  0  0  0  0  0
  153.8358  143.6382  160.8712 H   0  0  0  0  0  0  0  0  0  0  0  0
  154.0139  143.8189  159.1436 H   0  0  0  0  0  0  0  0  0  0  0  0
  151.4643  144.2936  160.7616 H   0  0  0  0  0  0  0  0  0  0  0  0
  152.4547  145.5235  160.0144 H   0  0  0  0  0  0  0  0  0  0  0  0
  150.4331  145.0160  158.6396 H   0  0  0  0  0  0  0  0  0  0  0  0
  151.9073  144.6788  157.7628 H   0  0  0  0  0  0  0  0  0  0  0  0
  150.1675  142.6334  159.2104 H   0  0  0  0  0  0  0  0  0  0  0  0
  149.8510  143.6575  156.6852 H   0  0  0  0  0  0  0  0  0  0  0  0
  148.9225  142.8453  155.1745 H   0  0  0  0  0  0  0  0  0  0  0  0
  149.9953  139.2948  154.6807 H   0  0  0  0  0  0  0  0  0  0  0  0
  148.8681  137.8669  153.0046 H   0  0  0  0  0  0  0  0  0  0  0  0
  145.9985  140.7299  152.2150 H   0  0  0  0  0  0  0  0  0  0  0  0
  152.6938  142.1410  157.5571 H   0  0  0  0  0  0  0  0  0  0  0  0
  151.7060  140.9082  158.3038 H   0  0  0  0  0  0  0  0  0  0  0  0
  1  2  1  0  0  0  0
  1 20  1  0  0  0  0
  1 21  1  0  0  0  0
  1 22  1  0  0  0  0
  2  3  1  0  0  0  0
  3 19  1  0  0  0  0
  3  4  1  0  0  0  0
  3 23  1  0  0  0  0
  4  5  1  0  0  0  0
  4 24  1  0  0  0  0
  4 25  1  0  0  0  0
  5  6  1  0  0  0  0
  5 26  1  0  0  0  0
  5 27  1  0  0  0  0
  6  7  1  0  0  0  0
  6 28  1  0  0  0  0
  6 29  1  0  0  0  0
  7  8  1  0  0  0  0
  7 19  1  0  0  0  0
  7 30  1  0  0  0  0
  8  9  1  0  0  0  0
  8 31  1  0  0  0  0
  9 10  2  0  0  0  0
  9 11  1  0  0  0  0
 11 12  1  0  0  0  0
 11 32  1  0  0  0  0
 12 17  1  0  0  0  0
 12 13  2  0  0  0  0
 13 14  1  0  0  0  0
 13 33  1  0  0  0  0
 14 15  2  0  0  0  0
 14 34  1  0  0  0  0
 15 16  1  0  0  0  0
 16 17  2  0  0  0  0
 16 35  1  0  0  0  0
 17 18  1  0  0  0  0
 19 36  1  0  0  0  0
 19 37  1  0  0  0  0
M  END
> <s_m_source_file>
AV-unprocessed.smi

> <i_m_source_file_index>
2742

> <i_lp_mmshare_version>
43012

> <i_f3d_flags>
0

> <s_epik_input>
W0NIM11TW0NAQEhdMVtDSDJdW0NIMl1bQ0gyXVtDQEhdKFtDSDJdMSlbTkhdQyg9TylbTkhdYzJbY0hdW2NIXW5bY0hdYzJG

> <s_epik_cmdline>
J2VwaWtfcHl0aG9uJywgJy1waCcsICc3LjAnLCAnLXRuJywgJzgnLCAnLW1hJywgJzIwMCcsICctbWV0YWxfYmluZGluZycsICctaW1hZScsICc8aW5maWxlLm1hZT4nLCAnLW9tYWUnLCAnPG91dGZpbGUubWFlPic=

> <r_epik_Ionization_Penalty>
0.00344009

> <r_epik_Ionization_Penalty_Charging>
0

> <r_epik_Ionization_Penalty_Neutral>
0.00344009

> <r_epik_State_Penalty>
0.0024078

> <r_epik_Charging_Adjusted_Penalty>
0.0024078

> <i_epik_Tot_Q>
0

> <i_epik_Tot_abs_Q>
0

> <r_epik_Metal_State_Penalty>
-0

> <b_epik_Metal_Only>
0

> <s_lp_Force_Field>
OPLS_2005

> <r_lp_Energy>
14.4942

> <b_lp_Chiralities_Consistent>
1

> <s_lp_Variant>
AV-unprocessed.smi:2742-2

> <Gold.Version>
5.8.1

> <Gold.Id.Protein>
6NUR|6NUR_protein|mol2

> <Gold.PLP.Fitness>
48.6673

> <Gold.PLP.PLP>
-37.5902

> <Gold.PLP.part.hbond>
-2.0000

> <Gold.PLP.part.metal>
0.0000

> <Gold.PLP.part.buried>
-2.5408

> <Gold.PLP.part.nonpolar>
-33.7822

> <Gold.PLP.part.repulsive>
0.4843

> <Gold.PLP.ligand.clash>
0.0000

> <Gold.PLP.ligand.torsion>
0.3489

> <Gold.PLP.Chemscore.Hbond>
2.0000

> <Gold.PLP.Chemscore.CHOScore>
1.9226

> <Gold.PLP.Chemscore.Metal>
0.0000

> <Gold.Chemscore.Hbonds>
donor molecule, donor type, donor heavy atom, donor atom, acceptor molecule, acceptor atom, score
      L1  H     8    31       P1  8028  1.00
      L1  H    11    32       P1  8028  1.00
      L1  C    14    34       P1  7948  0.86
      L1  C    16    35       P1 10175  0.81

> <Gold.PLP.Chemscore.Internal.Correction>
0.0072

> <Gold.Rescore>
     Score         DG    S(hbond)    S(metal)    S(lipo)     H(rot)  DE(clash)    DE(int)     intcor
     19.53     -22.28       1.97        0.00     113.32       1.19       0.07       2.67       ----

> <Gold.Chemscore.Fitness>
19.5345

> <Gold.Chemscore.DG>
-22.2800

> <Gold.Chemscore.ZeroCoef>
-5.4800

> <Gold.Chemscore.Hbond>
1.9704

> <Gold.Chemscore.Metal>
0.0000

> <Gold.Chemscore.Lipo>
113.3240

> <Gold.Chemscore.Internal_Hbond>
0.0000

> <Gold.Chemscore.DEClash>
0.0733

> <Gold.Chemscore.DEInternal>
2.6722

> <Gold.Chemscore.Rot>
1.1875

> <Gold.Chemscore.Internal.Correction>
   9.000000E+99

> <Gold.Chemscore.Hbonds>
donor molecule, donor type, donor heavy atom, donor atom, acceptor molecule, acceptor atom, score
      L1  H     8    31       P1  8028  0.99
      L1  H    11    32       P1  8028  0.96

> <Gold.Chemscore.Hbond.Weighted>
-6.5811

> <Gold.Chemscore.Metal.Weighted>
-0.0000

> <Gold.Chemscore.Lipo.Weighted>
-13.2589

> <Gold.Chemscore.Internal_Hbond.Weighted>
0.0000

> <Gold.Chemscore.DEClash.Weighted>
0.0733

> <Gold.Chemscore.DEInternal.Weighted>
2.6722

> <Gold.Chemscore.Rot.Weighted>
3.0400

> <Gold.Chemscore.Internal.Correction.Weighted>
   9.000000E+99

> <Gold.Protein.RotatedTorsions>
[ 6907 6896 6895 6894 ] final  116.24 input  -60.11 | X-H torsion
[ 7974 7965 7964 7962 ] final  -38.14 input  175.53 | X-H torsion
[ 8008 7997 7996 7995 ] final -173.35 input   59.86 | X-H torsion
[ 10167 10162 10161 10158 ] final -127.43 input  -65.29 | X-H torsion
[ 10718 10713 10712 10709 ] final  162.74 input   66.30 | X-H torsion
[ 10763 10752 10751 10750 ] final  -22.11 input  -60.55 | X-H torsion
[ 11005 11000 10999 10996 ] final -135.65 input  -57.11 | X-H torsion

> <Gold.Protein.ActiveResidues>
 VAL166  LYS551  ARG553  GLY616  TRP617  ASP618  TYR619  PRO620  LYS621  CYS622 
 ASP623  PHE694  ASN695  SER759  ASP760  ASP761  ALA762  ILE779  LEU786  VAL792 
 PHE793  MET794  SER795  GLU796  ALA797  LYS798  CYS799  TRP800  GLU811  SER814 

> <Gold.Protein.RotatedAtoms>
  152.4690  133.7988  159.6941 H   0  0  0  0  0  0  0  0  0  0  0  0  # atno 6907 bound_to 6896
  150.8670  133.7551  159.2980 H   0  0  0  0  0  0  0  0  0  0  0  0  # atno 6908 bound_to 6896
  151.5098  135.1068  159.9903 H   0  0  0  0  0  0  0  0  0  0  0  0  # atno 6909 bound_to 6896
  146.0513  140.6477  142.9041 H   0  0  0  0  0  0  0  0  0  0  0  0  # atno 7974 bound_to 7965
  155.9563  140.1136  157.0933 H   0  0  0  0  0  0  0  0  0  0  0  0  # atno 8008 bound_to 7997
  154.4121  140.1190  156.5187 H   0  0  0  0  0  0  0  0  0  0  0  0  # atno 8009 bound_to 7997
  155.6777  140.3473  155.4845 H   0  0  0  0  0  0  0  0  0  0  0  0  # atno 8010 bound_to 7997
  139.9610  143.5950  152.2445 H   0  0  0  0  0  0  0  0  0  0  0  0  # atno 10167 bound_to 10162
  157.1183  131.0485  151.2426 H   0  0  0  0  0  0  0  0  0  0  0  0  # atno 10718 bound_to 10713
  153.6467  135.6982  153.5223 H   0  0  0  0  0  0  0  0  0  0  0  0  # atno 10763 bound_to 10752
  153.2739  135.4206  155.1014 H   0  0  0  0  0  0  0  0  0  0  0  0  # atno 10764 bound_to 10752
  154.8486  135.3585  154.6011 H   0  0  0  0  0  0  0  0  0  0  0  0  # atno 10765 bound_to 10752
  140.8878  134.1850  157.4548 H   0  0  0  0  0  0  0  0  0  0  0  0  # atno 11005 bound_to 11000
  144.7124  140.4087  143.7070 LP  0  0  0  0  0  0  0  0  0  0  0  0  # atno 17320 bound_to 7965
  145.6720  139.1601  143.2749 LP  0  0  0  0  0  0  0  0  0  0  0  0  # atno 17321 bound_to 7965
  139.6554  144.7662  151.2065 LP  0  0  0  0  0  0  0  0  0  0  0  0  # atno 17342 bound_to 10162
  140.7553  143.6094  150.8621 LP  0  0  0  0  0  0  0  0  0  0  0  0  # atno 17343 bound_to 10162
  157.4499  130.7592  149.7142 LP  0  0  0  0  0  0  0  0  0  0  0  0  # atno 17370 bound_to 10713
  155.9834  130.4000  150.3363 LP  0  0  0  0  0  0  0  0  0  0  0  0  # atno 17371 bound_to 10713
  139.8726  134.9845  156.5244 LP  0  0  0  0  0  0  0  0  0  0  0  0  # atno 17394 bound_to 11000
  140.8383  133.8224  155.9050 LP  0  0  0  0  0  0  0  0  0  0  0  0  # atno 17395 bound_to 11000

$$$$
