AV-unprocessed.smi:1583|AV-procd|sdf|6363|dock4
  -GOLD-   22720 6593D 1   1.00000     0.00000
 Structure written by MMmdl.
 36 37  0  0  0  0  0  0  0  0  1 V2000
  154.3013  136.1982  164.3012 C   0  0  0  0  0  0  0  0  0  0  0  0
  154.4884  137.3955  163.4962 N   0  0  0  0  0  0  0  0  0  0  0  0
  155.2037  138.4617  163.8831 C   0  0  0  0  0  0  0  0  0  0  0  0
  155.7770  138.5333  164.9700 O   0  0  0  0  0  0  0  0  0  0  0  0
  155.2909  139.6228  162.8961 C   0  0  0  0  0  0  0  0  0  0  0  0
  154.4682  139.2440  161.3205 S   0  0  0  0  0  0  0  0  0  0  0  0
  153.6900  140.7980  160.9809 C   0  0  0  0  0  0  0  0  0  0  0  0
  153.5951  141.7825  161.8778 N   0  0  0  0  0  0  0  0  0  0  0  0
  152.9124  142.7658  161.1907 C   0  0  0  0  0  0  0  0  0  0  0  0
  152.4972  144.0536  161.5989 C   0  0  0  0  0  0  0  0  0  0  0  0
  151.7964  144.8928  160.7080 C   0  0  0  0  0  0  0  0  0  0  0  0
  151.5022  144.4576  159.3996 C   0  0  0  0  0  0  0  0  0  0  0  0
  151.9085  143.1785  158.9729 C   0  0  0  0  0  0  0  0  0  0  0  0
  152.6076  142.3453  159.8667 C   0  0  0  0  0  0  0  0  0  0  0  0
  153.1340  141.0618  159.7709 N   0  0  0  0  0  0  0  0  0  0  0  0
  153.0708  140.2018  158.5978 C   0  0  0  0  0  0  0  0  0  0  0  0
  151.6243  139.9357  158.1584 C   0  0  0  0  0  0  0  0  0  0  0  0
  151.6167  139.1491  156.9785 O   0  0  0  0  0  0  0  0  0  0  0  0
  151.9004  139.9078  155.8169 C   0  0  0  0  0  0  0  0  0  0  0  0
  153.6523  135.4962  163.7778 H   0  0  0  0  0  0  0  0  0  0  0  0
  153.8394  136.4402  165.2595 H   0  0  0  0  0  0  0  0  0  0  0  0
  155.2562  135.7052  164.4888 H   0  0  0  0  0  0  0  0  0  0  0  0
  154.0506  137.4151  162.5866 H   0  0  0  0  0  0  0  0  0  0  0  0
  154.8437  140.5169  163.3330 H   0  0  0  0  0  0  0  0  0  0  0  0
  156.3422  139.8438  162.7090 H   0  0  0  0  0  0  0  0  0  0  0  0
  152.7168  144.3954  162.5996 H   0  0  0  0  0  0  0  0  0  0  0  0
  151.4821  145.8745  161.0304 H   0  0  0  0  0  0  0  0  0  0  0  0
  150.9636  145.1060  158.7240 H   0  0  0  0  0  0  0  0  0  0  0  0
  151.6839  142.8413  157.9720 H   0  0  0  0  0  0  0  0  0  0  0  0
  153.6221  140.6819  157.7888 H   0  0  0  0  0  0  0  0  0  0  0  0
  153.5873  139.2638  158.7990 H   0  0  0  0  0  0  0  0  0  0  0  0
  151.0843  139.4196  158.9539 H   0  0  0  0  0  0  0  0  0  0  0  0
  151.1130  140.8826  157.9796 H   0  0  0  0  0  0  0  0  0  0  0  0
  151.8889  139.2568  154.9429 H   0  0  0  0  0  0  0  0  0  0  0  0
  152.8858  140.3714  155.8790 H   0  0  0  0  0  0  0  0  0  0  0  0
  151.1541  140.6887  155.6645 H   0  0  0  0  0  0  0  0  0  0  0  0
  1  2  1  0  0  0  0
  1 20  1  0  0  0  0
  1 21  1  0  0  0  0
  1 22  1  0  0  0  0
  2  3  1  0  0  0  0
  2 23  1  0  0  0  0
  3  4  2  0  0  0  0
  3  5  1  0  0  0  0
  5  6  1  0  0  0  0
  5 24  1  0  0  0  0
  5 25  1  0  0  0  0
  6  7  1  0  0  0  0
  7 15  1  0  0  0  0
  7  8  2  0  0  0  0
  8  9  1  0  0  0  0
  9 14  2  0  0  0  0
  9 10  1  0  0  0  0
 10 11  2  0  0  0  0
 10 26  1  0  0  0  0
 11 12  1  0  0  0  0
 11 27  1  0  0  0  0
 12 13  2  0  0  0  0
 12 28  1  0  0  0  0
 13 14  1  0  0  0  0
 13 29  1  0  0  0  0
 14 15  1  0  0  0  0
 15 16  1  0  0  0  0
 16 17  1  0  0  0  0
 16 30  1  0  0  0  0
 16 31  1  0  0  0  0
 17 18  1  0  0  0  0
 17 32  1  0  0  0  0
 17 33  1  0  0  0  0
 18 19  1  0  0  0  0
 19 34  1  0  0  0  0
 19 35  1  0  0  0  0
 19 36  1  0  0  0  0
M  END
> <s_m_source_file>
AV-unprocessed.smi

> <i_m_source_file_index>
1583

> <i_lp_mmshare_version>
43012

> <i_f3d_flags>
0

> <s_epik_input>
W0NIM11bTkhdQyg9TylbQ0gyXVNjKG4xKW4oW0NIMl1bQ0gyXU9bQ0gzXSljKGMxMilbY0hdW2NIXVtjSF1bY0hdMg==

> <s_epik_cmdline>
J2VwaWtfcHl0aG9uJywgJy1waCcsICc3LjAnLCAnLXRuJywgJzgnLCAnLW1hJywgJzIwMCcsICctbWV0YWxfYmluZGluZycsICctaW1hZScsICc8aW5maWxlLm1hZT4nLCAnLW9tYWUnLCAnPG91dGZpbGUubWFlPic=

> <r_epik_Ionization_Penalty>
0.0356249

> <r_epik_Ionization_Penalty_Charging>
0

> <r_epik_Ionization_Penalty_Neutral>
0.0356249

> <r_epik_State_Penalty>
0.0297112

> <r_epik_Charging_Adjusted_Penalty>
0.0297112

> <i_epik_Tot_Q>
0

> <i_epik_Tot_abs_Q>
0

> <r_epik_Metal_State_Penalty>
0.0280118

> <b_epik_Metal_Only>
0

> <s_lp_Force_Field>
OPLS_2005

> <r_lp_Energy>
5.95406

> <b_lp_Chiralities_Consistent>
1

> <s_lp_Variant>
AV-unprocessed.smi:1583-1

> <Gold.Version>
5.8.1

> <Gold.Id.Protein>
6NUR|6NUR_protein|mol2

> <Gold.PLP.Fitness>
42.1025

> <Gold.PLP.PLP>
-43.0777

> <Gold.PLP.part.hbond>
0.0000

> <Gold.PLP.part.metal>
0.0000

> <Gold.PLP.part.buried>
-5.0536

> <Gold.PLP.part.nonpolar>
-37.5613

> <Gold.PLP.part.repulsive>
0.0923

> <Gold.PLP.ligand.clash>
0.0000

> <Gold.PLP.ligand.torsion>
0.5008

> <Gold.PLP.Chemscore.Hbond>
0.0000

> <Gold.PLP.Chemscore.CHOScore>
0.0000

> <Gold.PLP.Chemscore.Metal>
0.0000

> <Gold.PLP.Chemscore.Internal.Correction>
0.0265

> <Gold.Rescore>
     Score         DG    S(hbond)    S(metal)    S(lipo)     H(rot)  DE(clash)    DE(int)     intcor
     12.48     -12.92       0.00        0.00     111.36       2.18       0.05       0.40       ----

> <Gold.Chemscore.Fitness>
12.4758

> <Gold.Chemscore.DG>
-12.9219

> <Gold.Chemscore.ZeroCoef>
-5.4800

> <Gold.Chemscore.Hbond>
0.0000

> <Gold.Chemscore.Metal>
0.0000

> <Gold.Chemscore.Lipo>
111.3620

> <Gold.Chemscore.Internal_Hbond>
0.0000

> <Gold.Chemscore.DEClash>
0.0464

> <Gold.Chemscore.DEInternal>
0.3997

> <Gold.Chemscore.Rot>
2.1826

> <Gold.Chemscore.Internal.Correction>
   9.000000E+99

> <Gold.Chemscore.Hbond.Weighted>
-0.0000

> <Gold.Chemscore.Metal.Weighted>
-0.0000

> <Gold.Chemscore.Lipo.Weighted>
-13.0294

> <Gold.Chemscore.Internal_Hbond.Weighted>
0.0000

> <Gold.Chemscore.DEClash.Weighted>
0.0464

> <Gold.Chemscore.DEInternal.Weighted>
0.3997

> <Gold.Chemscore.Rot.Weighted>
5.5874

> <Gold.Chemscore.Internal.Correction.Weighted>
   9.000000E+99

> <Gold.Protein.RotatedTorsions>
[ 6907 6896 6895 6894 ] final  138.13 input  -60.11 | X-H torsion
[ 7974 7965 7964 7962 ] final  128.05 input  175.53 | X-H torsion
[ 8008 7997 7996 7995 ] final  -58.56 input   59.86 | X-H torsion
[ 10167 10162 10161 10158 ] final  175.19 input  -65.29 | X-H torsion
[ 10718 10713 10712 10709 ] final  128.61 input   66.30 | X-H torsion
[ 10763 10752 10751 10750 ] final -127.70 input  -60.55 | X-H torsion
[ 11005 11000 10999 10996 ] final    9.42 input  -57.11 | X-H torsion

> <Gold.Protein.ActiveResidues>
 VAL166  LYS551  ARG553  GLY616  TRP617  ASP618  TYR619  PRO620  LYS621  CYS622 
 ASP623  PHE694  ASN695  SER759  ASP760  ASP761  ALA762  ILE779  LEU786  VAL792 
 PHE793  MET794  SER795  GLU796  ALA797  LYS798  CYS799  TRP800  GLU811  SER814 

> <Gold.Protein.RotatedAtoms>
  152.2701  133.5375  159.5433 H   0  0  0  0  0  0  0  0  0  0  0  0  # atno 6907 bound_to 6896
  150.7156  134.0709  159.3873 H   0  0  0  0  0  0  0  0  0  0  0  0  # atno 6908 bound_to 6896
  151.8624  135.0519  160.0521 H   0  0  0  0  0  0  0  0  0  0  0  0  # atno 6909 bound_to 6896
  145.0438  139.3940  143.5088 H   0  0  0  0  0  0  0  0  0  0  0  0  # atno 7974 bound_to 7965
  154.4314  140.1081  156.5977 H   0  0  0  0  0  0  0  0  0  0  0  0  # atno 8008 bound_to 7997
  155.5945  140.3492  155.4557 H   0  0  0  0  0  0  0  0  0  0  0  0  # atno 8009 bound_to 7997
  156.0221  140.1242  157.0336 H   0  0  0  0  0  0  0  0  0  0  0  0  # atno 8010 bound_to 7997
  139.5168  144.3060  152.0335 H   0  0  0  0  0  0  0  0  0  0  0  0  # atno 10167 bound_to 10162
  157.5229  131.1098  150.9127 H   0  0  0  0  0  0  0  0  0  0  0  0  # atno 10718 bound_to 10713
  154.8753  135.3953  154.3636 H   0  0  0  0  0  0  0  0  0  0  0  0  # atno 10763 bound_to 10752
  153.4405  135.7026  153.6177 H   0  0  0  0  0  0  0  0  0  0  0  0  # atno 10764 bound_to 10752
  153.4760  135.3780  155.2386 H   0  0  0  0  0  0  0  0  0  0  0  0  # atno 10765 bound_to 10752
  140.5259  134.0513  155.7858 H   0  0  0  0  0  0  0  0  0  0  0  0  # atno 11005 bound_to 11000
  146.3512  140.0053  142.8672 LP  0  0  0  0  0  0  0  0  0  0  0  0  # atno 17320 bound_to 7965
  145.1614  140.9674  143.4375 LP  0  0  0  0  0  0  0  0  0  0  0  0  # atno 17321 bound_to 7965
  140.2506  144.4173  150.6223 LP  0  0  0  0  0  0  0  0  0  0  0  0  # atno 17342 bound_to 10162
  140.6227  143.2178  151.6661 LP  0  0  0  0  0  0  0  0  0  0  0  0  # atno 17343 bound_to 10162
  156.9732  130.5499  149.5292 LP  0  0  0  0  0  0  0  0  0  0  0  0  # atno 17370 bound_to 10713
  156.0366  130.5453  150.8668 LP  0  0  0  0  0  0  0  0  0  0  0  0  # atno 17371 bound_to 10713
  141.1308  133.9305  157.2539 LP  0  0  0  0  0  0  0  0  0  0  0  0  # atno 17394 bound_to 11000
  139.9580  135.0161  156.9183 LP  0  0  0  0  0  0  0  0  0  0  0  0  # atno 17395 bound_to 11000

$$$$
