AV-unprocessed.smi:3333|AV-procd|sdf|12834|dock2
  -GOLD-   2272019213D 1   1.00000     0.00000
 Structure written by MMmdl.
 41 43  0  0  0  0  0  0  0  0  1 V2000
  151.3280  134.0052  158.7016 C   0  0  0  0  0  0  0  0  0  0  0  0
  149.9583  134.6765  158.5573 C   0  0  0  0  0  0  0  0  0  0  0  0
  149.8630  135.5266  157.3351 C   0  0  0  0  0  0  0  0  0  0  0  0
  149.4815  136.8066  157.3556 N   0  0  0  0  0  0  0  0  0  0  0  0
  149.4361  137.3760  156.0786 C   0  0  0  0  0  0  0  0  0  0  0  0
  149.0301  138.8120  155.9109 C   0  0  0  0  0  0  0  0  0  0  0  0
  150.2611  139.7170  155.8004 C   0  0  0  0  0  0  0  0  0  0  0  0
  151.0998  139.5217  154.9198 O   0  0  0  0  0  0  0  0  0  0  0  0
  150.3655  140.6986  156.7096 N   0  0  0  0  0  0  0  0  0  0  0  0
  151.4688  141.6499  156.7959 C   0  0  0  0  0  0  0  0  0  0  0  0
  151.4903  142.4012  158.1451 C   0  0  1  0  0  0  0  0  0  0  0  0
  152.6916  143.3630  158.2816 C   0  0  0  0  0  0  0  0  0  0  0  0
  152.0259  144.7046  158.6380 C   0  0  2  0  0  0  0  0  0  0  0  0
  151.4337  144.6279  160.0579 C   0  0  0  0  0  0  0  0  0  0  0  0
  150.2111  143.7104  159.8664 C   0  0  0  0  0  0  0  0  0  0  0  0
  150.2885  143.3509  158.3706 C   0  0  1  0  0  0  0  0  0  0  0  0
  150.7750  144.6662  157.7701 C   0  0  0  0  0  0  0  0  0  0  0  0
  149.7929  136.4991  155.0836 C   0  0  0  0  0  0  0  0  0  0  0  0
  150.1775  134.9215  155.7130 S   0  0  0  0  0  0  0  0  0  0  0  0
  151.3697  133.3985  159.6061 H   0  0  0  0  0  0  0  0  0  0  0  0
  152.1252  134.7468  158.7604 H   0  0  0  0  0  0  0  0  0  0  0  0
  151.5379  133.3534  157.8529 H   0  0  0  0  0  0  0  0  0  0  0  0
  149.1730  133.9204  158.5239 H   0  0  0  0  0  0  0  0  0  0  0  0
  149.7566  135.2982  159.4300 H   0  0  0  0  0  0  0  0  0  0  0  0
  148.3965  138.9299  155.0305 H   0  0  0  0  0  0  0  0  0  0  0  0
  148.4358  139.1427  156.7632 H   0  0  0  0  0  0  0  0  0  0  0  0
  149.6318  140.7884  157.3972 H   0  0  0  0  0  0  0  0  0  0  0  0
  152.4141  141.1265  156.6419 H   0  0  0  0  0  0  0  0  0  0  0  0
  151.3712  142.3534  155.9689 H   0  0  0  0  0  0  0  0  0  0  0  0
  151.5297  141.6627  158.9471 H   0  0  0  0  0  0  0  0  0  0  0  0
  153.3999  143.0357  159.0436 H   0  0  0  0  0  0  0  0  0  0  0  0
  153.2377  143.4512  157.3412 H   0  0  0  0  0  0  0  0  0  0  0  0
  152.6716  145.5685  158.4787 H   0  0  0  0  0  0  0  0  0  0  0  0
  152.1452  144.2280  160.7813 H   0  0  0  0  0  0  0  0  0  0  0  0
  151.1215  145.6141  160.4039 H   0  0  0  0  0  0  0  0  0  0  0  0
  150.2424  142.8312  160.5110 H   0  0  0  0  0  0  0  0  0  0  0  0
  149.2895  144.2509  160.0856 H   0  0  0  0  0  0  0  0  0  0  0  0
  149.3431  142.9850  157.9697 H   0  0  0  0  0  0  0  0  0  0  0  0
  150.0970  145.5022  157.9518 H   0  0  0  0  0  0  0  0  0  0  0  0
  150.9896  144.6079  156.7020 H   0  0  0  0  0  0  0  0  0  0  0  0
  149.8398  136.6832  154.0204 H   0  0  0  0  0  0  0  0  0  0  0  0
  1  2  1  0  0  0  0
  1 20  1  0  0  0  0
  1 21  1  0  0  0  0
  1 22  1  0  0  0  0
  2  3  1  0  0  0  0
  2 23  1  0  0  0  0
  2 24  1  0  0  0  0
  3 19  1  0  0  0  0
  3  4  2  0  0  0  0
  4  5  1  0  0  0  0
  5  6  1  0  0  0  0
  5 18  2  0  0  0  0
  6  7  1  0  0  0  0
  6 25  1  0  0  0  0
  6 26  1  0  0  0  0
  7  8  2  0  0  0  0
  7  9  1  0  0  0  0
  9 10  1  0  0  0  0
  9 27  1  0  0  0  0
 10 11  1  0  0  0  0
 10 28  1  0  0  0  0
 10 29  1  0  0  0  0
 11 16  1  0  0  0  0
 11 12  1  0  0  0  0
 11 30  1  0  0  0  0
 12 13  1  0  0  0  0
 12 31  1  0  0  0  0
 12 32  1  0  0  0  0
 13 17  1  0  0  0  0
 13 14  1  0  0  0  0
 13 33  1  0  0  0  0
 14 15  1  0  0  0  0
 14 34  1  0  0  0  0
 14 35  1  0  0  0  0
 15 16  1  0  0  0  0
 15 36  1  0  0  0  0
 15 37  1  0  0  0  0
 16 17  1  0  0  0  0
 16 38  1  0  0  0  0
 17 39  1  0  0  0  0
 17 40  1  0  0  0  0
 18 19  1  0  0  0  0
 18 41  1  0  0  0  0
M  END
> <s_m_source_file>
AV-unprocessed.smi

> <i_m_source_file_index>
3333

> <i_lp_mmshare_version>
43012

> <i_f3d_flags>
0

> <s_epik_input>
W0NIM11bQ0gyXWMxbmMoW2NIXXMxKVtDSDJdQyg9TylbTkhdW0NIMl1bQ0BIXShbQ0gyXVtDQEBIXTIzKVtDQEBIXShbQ0gyXTMpW0NIMl1bQ0gyXTI=

> <s_epik_cmdline>
J2VwaWtfcHl0aG9uJywgJy1waCcsICc3LjAnLCAnLXRuJywgJzgnLCAnLW1hJywgJzIwMCcsICctbWV0YWxfYmluZGluZycsICctaW1hZScsICc8aW5maWxlLm1hZT4nLCAnLW9tYWUnLCAnPG91dGZpbGUubWFlPic=

> <r_lp_tautomer_probability>
1

> <r_epik_Ionization_Penalty>
6.68371e-05

> <r_epik_Ionization_Penalty_Charging>
0

> <r_epik_Ionization_Penalty_Neutral>
6.68371e-05

> <r_epik_State_Penalty>
-0

> <r_epik_Charging_Adjusted_Penalty>
0

> <i_epik_Tot_Q>
0

> <i_epik_Tot_abs_Q>
0

> <r_epik_Metal_State_Penalty>
-0

> <b_epik_Metal_Only>
0

> <s_lp_Force_Field>
OPLS_2005

> <r_lp_Energy>
43.9975

> <b_lp_Chiralities_Consistent>
1

> <s_lp_Variant>
AV-unprocessed.smi:3333-4

> <Gold.Version>
5.8.1

> <Gold.Id.Protein>
6NUR|6NUR_protein|mol2

> <Gold.PLP.Fitness>
48.2721

> <Gold.PLP.PLP>
-40.1907

> <Gold.PLP.part.hbond>
-2.0000

> <Gold.PLP.part.metal>
0.0000

> <Gold.PLP.part.buried>
-3.6909

> <Gold.PLP.part.nonpolar>
-34.0988

> <Gold.PLP.part.repulsive>
0.2553

> <Gold.PLP.ligand.clash>
0.0000

> <Gold.PLP.ligand.torsion>
0.4656

> <Gold.PLP.Chemscore.Hbond>
1.9920

> <Gold.PLP.Chemscore.CHOScore>
1.0000

> <Gold.PLP.Chemscore.Metal>
0.0000

> <Gold.Chemscore.Hbonds>
donor molecule, donor type, donor heavy atom, donor atom, acceptor molecule, acceptor atom, score
      P1  H  7989  7998       L1     8  1.00
      L1  C    18    41       P1  7948  1.00

> <Gold.PLP.Chemscore.Internal.Correction>
0.0367

> <Gold.Rescore>
     Score         DG    S(hbond)    S(metal)    S(lipo)     H(rot)  DE(clash)    DE(int)     intcor
     20.17     -20.73       1.67        0.00     113.87       1.42       0.06       0.50       ----

> <Gold.Chemscore.Fitness>
20.1693

> <Gold.Chemscore.DG>
-20.7276

> <Gold.Chemscore.ZeroCoef>
-5.4800

> <Gold.Chemscore.Hbond>
1.6668

> <Gold.Chemscore.Metal>
0.0000

> <Gold.Chemscore.Lipo>
113.8689

> <Gold.Chemscore.Internal_Hbond>
0.0000

> <Gold.Chemscore.DEClash>
0.0574

> <Gold.Chemscore.DEInternal>
0.5008

> <Gold.Chemscore.Rot>
1.4227

> <Gold.Chemscore.Internal.Correction>
   9.000000E+99

> <Gold.Chemscore.Hbonds>
donor molecule, donor type, donor heavy atom, donor atom, acceptor molecule, acceptor atom, score
      P1  H  7989  7998       L1     8  0.93

> <Gold.Chemscore.Hbond.Weighted>
-5.5670

> <Gold.Chemscore.Metal.Weighted>
-0.0000

> <Gold.Chemscore.Lipo.Weighted>
-13.3227

> <Gold.Chemscore.Internal_Hbond.Weighted>
0.0000

> <Gold.Chemscore.DEClash.Weighted>
0.0574

> <Gold.Chemscore.DEInternal.Weighted>
0.5008

> <Gold.Chemscore.Rot.Weighted>
3.6421

> <Gold.Chemscore.Internal.Correction.Weighted>
   9.000000E+99

> <Gold.Protein.RotatedTorsions>
[ 6907 6896 6895 6894 ] final  -92.16 input  -60.11 | X-H torsion
[ 7974 7965 7964 7962 ] final  -29.21 input  175.53 | X-H torsion
[ 8008 7997 7996 7995 ] final  -15.66 input   59.86 | X-H torsion
[ 10167 10162 10161 10158 ] final   21.60 input  -65.29 | X-H torsion
[ 10718 10713 10712 10709 ] final   43.03 input   66.30 | X-H torsion
[ 10763 10752 10751 10750 ] final -171.27 input  -60.55 | X-H torsion
[ 11005 11000 10999 10996 ] final -156.93 input  -57.11 | X-H torsion

> <Gold.Protein.ActiveResidues>
 VAL166  LYS551  ARG553  GLY616  TRP617  ASP618  TYR619  PRO620  LYS621  CYS622 
 ASP623  PHE694  ASN695  SER759  ASP760  ASP761  ALA762  ILE779  LEU786  VAL792 
 PHE793  MET794  SER795  GLU796  ALA797  LYS798  CYS799  TRP800  GLU811  SER814 

> <Gold.Protein.RotatedAtoms>
  150.6902  134.2165  159.4379 H   0  0  0  0  0  0  0  0  0  0  0  0  # atno 6907 bound_to 6896
  152.0124  134.9866  160.0578 H   0  0  0  0  0  0  0  0  0  0  0  0  # atno 6908 bound_to 6896
  152.1476  133.4467  159.4834 H   0  0  0  0  0  0  0  0  0  0  0  0  # atno 6909 bound_to 6896
  146.1233  140.5383  142.8726 H   0  0  0  0  0  0  0  0  0  0  0  0  # atno 7974 bound_to 7965
  154.5113  140.2190  155.9152 H   0  0  0  0  0  0  0  0  0  0  0  0  # atno 8008 bound_to 7997
  156.1555  140.3153  155.8685 H   0  0  0  0  0  0  0  0  0  0  0  0  # atno 8009 bound_to 7997
  155.3855  140.0475  157.3033 H   0  0  0  0  0  0  0  0  0  0  0  0  # atno 8010 bound_to 7997
  140.5414  143.9670  150.6521 H   0  0  0  0  0  0  0  0  0  0  0  0  # atno 10167 bound_to 10162
  157.4114  130.7916  149.7433 H   0  0  0  0  0  0  0  0  0  0  0  0  # atno 10718 bound_to 10713
  154.6324  135.2888  155.0201 H   0  0  0  0  0  0  0  0  0  0  0  0  # atno 10763 bound_to 10752
  154.1357  135.6526  153.4935 H   0  0  0  0  0  0  0  0  0  0  0  0  # atno 10764 bound_to 10752
  153.0286  135.5321  154.7157 H   0  0  0  0  0  0  0  0  0  0  0  0  # atno 10765 bound_to 10752
  140.6702  134.4255  157.5232 H   0  0  0  0  0  0  0  0  0  0  0  0  # atno 11005 bound_to 11000
  144.7618  140.5439  143.6730 LP  0  0  0  0  0  0  0  0  0  0  0  0  # atno 17320 bound_to 7965
  145.5420  139.1475  143.3442 LP  0  0  0  0  0  0  0  0  0  0  0  0  # atno 17321 bound_to 7965
  140.3072  143.3222  152.0915 LP  0  0  0  0  0  0  0  0  0  0  0  0  # atno 17342 bound_to 10162
  139.4990  144.6659  151.6356 LP  0  0  0  0  0  0  0  0  0  0  0  0  # atno 17343 bound_to 10162
  155.9852  130.3985  150.3275 LP  0  0  0  0  0  0  0  0  0  0  0  0  # atno 17370 bound_to 10713
  157.1414  131.0297  151.2926 LP  0  0  0  0  0  0  0  0  0  0  0  0  # atno 17371 bound_to 10713
  139.8984  134.8614  156.2003 LP  0  0  0  0  0  0  0  0  0  0  0  0  # atno 17394 bound_to 11000
  141.0398  133.6944  156.1577 LP  0  0  0  0  0  0  0  0  0  0  0  0  # atno 17395 bound_to 11000

$$$$
