AV-unprocessed.smi:3303|AV-procd|sdf|12688|dock2
  -GOLD-   2272019 23D 1   1.00000     0.00000
 Structure written by MMmdl.
 44 45  0  0  0  0  0  0  0  0  2 V2000
  151.5928  138.2331  154.8433 C   0  0  0  0  0  0  0  0  0  0  0  0
  150.5821  139.3016  154.3942 C   0  0  1  0  0  0  0  0  0  0  0  0
  149.1738  138.7108  154.1958 C   0  0  0  0  0  0  0  0  0  0  0  0
  148.2247  139.7115  153.6435 N   0  3  1  0  0  0  0  0  0  0  0  0
  146.9239  139.0780  153.3172 C   0  0  0  0  0  0  0  0  0  0  0  0
  148.1104  140.9201  154.5139 C   0  0  2  0  0  0  0  0  0  0  0  0
  147.1584  141.9827  153.9311 C   0  0  0  0  0  0  0  0  0  0  0  0
  149.4998  141.5535  154.7583 C   0  0  0  0  0  0  0  0  0  0  0  0
  150.5399  140.5566  155.2975 C   0  0  1  0  0  0  0  0  0  0  0  0
  150.2099  140.2338  156.6816 N   0  0  0  0  0  0  0  0  0  0  0  0
  151.0506  140.9370  157.6409 C   0  0  0  0  0  0  0  0  0  0  0  0
  150.9943  142.4546  157.3955 C   0  0  0  0  0  0  0  0  0  0  0  0
  151.4460  143.2673  158.5989 C   0  0  0  0  0  0  0  0  0  0  0  0
  151.9591  142.6226  159.7446 C   0  0  0  0  0  0  0  0  0  0  0  0
  152.3377  143.4124  160.8475 C   0  0  0  0  0  0  0  0  0  0  0  0
  152.1870  144.8100  160.7642 C   0  0  0  0  0  0  0  0  0  0  0  0
  151.6653  145.3579  159.5757 C   0  0  0  0  0  0  0  0  0  0  0  0
  151.2994  144.6098  158.5129 N   0  0  0  0  0  0  0  0  0  0  0  0
  151.3049  137.7793  155.7919 H   0  0  0  0  0  0  0  0  0  0  0  0
  152.5902  138.6575  154.9591 H   0  0  0  0  0  0  0  0  0  0  0  0
  151.6631  137.4312  154.1081 H   0  0  0  0  0  0  0  0  0  0  0  0
  150.9213  139.6392  153.4135 H   0  0  0  0  0  0  0  0  0  0  0  0
  149.2380  137.8644  153.5105 H   0  0  0  0  0  0  0  0  0  0  0  0
  148.7878  138.3199  155.1390 H   0  0  0  0  0  0  0  0  0  0  0  0
  146.3823  138.8075  154.2243 H   0  0  0  0  0  0  0  0  0  0  0  0
  147.0714  138.1713  152.7294 H   0  0  0  0  0  0  0  0  0  0  0  0
  146.2947  139.7365  152.7196 H   0  0  0  0  0  0  0  0  0  0  0  0
  147.7035  140.6013  155.4752 H   0  0  0  0  0  0  0  0  0  0  0  0
  147.1749  142.8913  154.5338 H   0  0  0  0  0  0  0  0  0  0  0  0
  146.1235  141.6415  153.9156 H   0  0  0  0  0  0  0  0  0  0  0  0
  147.4412  142.2574  152.9142 H   0  0  0  0  0  0  0  0  0  0  0  0
  149.8706  141.9635  153.8177 H   0  0  0  0  0  0  0  0  0  0  0  0
  149.4133  142.4031  155.4374 H   0  0  0  0  0  0  0  0  0  0  0  0
  151.5123  141.0517  155.2736 H   0  0  0  0  0  0  0  0  0  0  0  0
  149.2436  140.4580  156.8723 H   0  0  0  0  0  0  0  0  0  0  0  0
  150.7411  140.7246  158.6637 H   0  0  0  0  0  0  0  0  0  0  0  0
  152.0746  140.5769  157.5367 H   0  0  0  0  0  0  0  0  0  0  0  0
  151.6321  142.7058  156.5473 H   0  0  0  0  0  0  0  0  0  0  0  0
  149.9846  142.7544  157.1105 H   0  0  0  0  0  0  0  0  0  0  0  0
  152.0552  141.5473  159.7817 H   0  0  0  0  0  0  0  0  0  0  0  0
  152.7337  142.9546  161.7419 H   0  0  0  0  0  0  0  0  0  0  0  0
  152.4661  145.4468  161.5906 H   0  0  0  0  0  0  0  0  0  0  0  0
  151.5364  146.4255  159.4766 H   0  0  0  0  0  0  0  0  0  0  0  0
  148.6183  140.0225  152.7669 H   0  0  0  0  0  0  0  0  0  0  0  0
  1  2  1  0  0  0  0
  1 19  1  0  0  0  0
  1 20  1  0  0  0  0
  1 21  1  0  0  0  0
  2  9  1  0  0  0  0
  2  3  1  0  0  0  0
  2 22  1  0  0  0  0
  3  4  1  0  0  0  0
  3 23  1  0  0  0  0
  3 24  1  0  0  0  0
  4  5  1  0  0  0  0
  4  6  1  0  0  0  0
  4 44  1  0  0  0  0
  5 25  1  0  0  0  0
  5 26  1  0  0  0  0
  5 27  1  0  0  0  0
  6  7  1  0  0  0  0
  6  8  1  0  0  0  0
  6 28  1  0  0  0  0
  7 29  1  0  0  0  0
  7 30  1  0  0  0  0
  7 31  1  0  0  0  0
  8  9  1  0  0  0  0
  8 32  1  0  0  0  0
  8 33  1  0  0  0  0
  9 10  1  0  0  0  0
  9 34  1  0  0  0  0
 10 11  1  0  0  0  0
 10 35  1  0  0  0  0
 11 12  1  0  0  0  0
 11 36  1  0  0  0  0
 11 37  1  0  0  0  0
 12 13  1  0  0  0  0
 12 38  1  0  0  0  0
 12 39  1  0  0  0  0
 13 18  1  0  0  0  0
 13 14  2  0  0  0  0
 14 15  1  0  0  0  0
 14 40  1  0  0  0  0
 15 16  2  0  0  0  0
 15 41  1  0  0  0  0
 16 17  1  0  0  0  0
 16 42  1  0  0  0  0
 17 18  2  0  0  0  0
 17 43  1  0  0  0  0
M  CHG  1   4   1
M  END
> <s_m_source_file>
AV-unprocessed.smi

> <i_m_source_file_index>
3303

> <i_lp_mmshare_version>
43012

> <i_f3d_flags>
0

> <s_epik_input>
W0NIM11bQ0BASF0xW0NIMl1OKFtDSDNdKVtDQEBIXShbQ0gzXSlbQ0gyXVtDQEhdMVtOSF1bQ0gyXVtDSDJdYzJbY0hdW2NIXVtjSF1bY0hdbjI=

> <s_epik_cmdline>
J2VwaWtfcHl0aG9uJywgJy1waCcsICc3LjAnLCAnLXRuJywgJzgnLCAnLW1hJywgJzIwMCcsICctbWV0YWxfYmluZGluZycsICctaW1hZScsICc8aW5maWxlLm1hZT4nLCAnLW9tYWUnLCAnPG91dGZpbGUubWFlPic=

> <r_epik_Ionization_Penalty>
2.31085

> <r_epik_Ionization_Penalty_Charging>
0.000313057

> <r_epik_Ionization_Penalty_Neutral>
2.31054

> <r_epik_State_Penalty>
2.4087

> <r_epik_Charging_Adjusted_Penalty>
2.40902

> <i_epik_Tot_Q>
1

> <i_epik_Tot_abs_Q>
1

> <r_epik_Metal_State_Penalty>
2.30979

> <b_epik_Metal_Only>
0

> <s_lp_Force_Field>
OPLS_2005

> <r_lp_Energy>
27.7125

> <b_lp_Chiralities_Consistent>
1

> <s_lp_Variant>
AV-unprocessed.smi:3303-32

> <Gold.Version>
5.8.1

> <Gold.Id.Protein>
6NUR|6NUR_protein|mol2

> <Gold.PLP.Fitness>
44.8948

> <Gold.PLP.PLP>
-43.3590

> <Gold.PLP.part.hbond>
-1.0000

> <Gold.PLP.part.metal>
0.0000

> <Gold.PLP.part.buried>
-3.3084

> <Gold.PLP.part.nonpolar>
-38.1681

> <Gold.PLP.part.repulsive>
0.2021

> <Gold.PLP.ligand.clash>
0.0000

> <Gold.PLP.ligand.torsion>
0.7394

> <Gold.PLP.Chemscore.Hbond>
1.0000

> <Gold.PLP.Chemscore.CHOScore>
0.0000

> <Gold.PLP.Chemscore.Metal>
0.0000

> <Gold.Chemscore.Hbonds>
donor molecule, donor type, donor heavy atom, donor atom, acceptor molecule, acceptor atom, score
      L1  H     4    44       P1  7957  1.00

> <Gold.PLP.Chemscore.Internal.Correction>
0.0146

> <Gold.Rescore>
     Score         DG    S(hbond)    S(metal)    S(lipo)     H(rot)  DE(clash)    DE(int)     intcor
     19.26     -20.46       1.00        0.00     128.55       1.33       0.48       0.72       ----

> <Gold.Chemscore.Fitness>
19.2624

> <Gold.Chemscore.DG>
-20.4626

> <Gold.Chemscore.ZeroCoef>
-5.4800

> <Gold.Chemscore.Hbond>
0.9998

> <Gold.Chemscore.Metal>
0.0000

> <Gold.Chemscore.Lipo>
128.5535

> <Gold.Chemscore.Internal_Hbond>
0.0000

> <Gold.Chemscore.DEClash>
0.4801

> <Gold.Chemscore.DEInternal>
0.7201

> <Gold.Chemscore.Rot>
1.3272

> <Gold.Chemscore.Internal.Correction>
   9.000000E+99

> <Gold.Chemscore.Hbonds>
donor molecule, donor type, donor heavy atom, donor atom, acceptor molecule, acceptor atom, score
      L1  H     4    44       P1  7957  1.00

> <Gold.Chemscore.Hbond.Weighted>
-3.3395

> <Gold.Chemscore.Metal.Weighted>
-0.0000

> <Gold.Chemscore.Lipo.Weighted>
-15.0408

> <Gold.Chemscore.Internal_Hbond.Weighted>
0.0000

> <Gold.Chemscore.DEClash.Weighted>
0.4801

> <Gold.Chemscore.DEInternal.Weighted>
0.7201

> <Gold.Chemscore.Rot.Weighted>
3.3976

> <Gold.Chemscore.Internal.Correction.Weighted>
   9.000000E+99

> <Gold.Protein.RotatedTorsions>
[ 6907 6896 6895 6894 ] final -100.92 input  -60.11 | X-H torsion
[ 7974 7965 7964 7962 ] final -132.42 input  175.53 | X-H torsion
[ 8008 7997 7996 7995 ] final -117.50 input   59.86 | X-H torsion
[ 10167 10162 10161 10158 ] final  146.64 input  -65.29 | X-H torsion
[ 10718 10713 10712 10709 ] final  155.88 input   66.30 | X-H torsion
[ 10763 10752 10751 10750 ] final  131.69 input  -60.55 | X-H torsion
[ 11005 11000 10999 10996 ] final   -9.67 input  -57.11 | X-H torsion

> <Gold.Protein.ActiveResidues>
 VAL166  LYS551  ARG553  GLY616  TRP617  ASP618  TYR619  PRO620  LYS621  CYS622 
 ASP623  PHE694  ASN695  SER759  ASP760  ASP761  ALA762  ILE779  LEU786  VAL792 
 PHE793  MET794  SER795  GLU796  ALA797  LYS798  CYS799  TRP800  GLU811  SER814 

> <Gold.Protein.RotatedAtoms>
  150.7134  134.0813  159.3898 H   0  0  0  0  0  0  0  0  0  0  0  0  # atno 6907 bound_to 6896
  151.8797  135.0456  160.0497 H   0  0  0  0  0  0  0  0  0  0  0  0  # atno 6908 bound_to 6896
  152.2578  133.5235  159.5400 H   0  0  0  0  0  0  0  0  0  0  0  0  # atno 6909 bound_to 6896
  144.9287  140.7102  143.4919 H   0  0  0  0  0  0  0  0  0  0  0  0  # atno 7974 bound_to 7965
  155.0847  140.0394  157.2650 H   0  0  0  0  0  0  0  0  0  0  0  0  # atno 8008 bound_to 7997
  154.6878  140.2647  155.6818 H   0  0  0  0  0  0  0  0  0  0  0  0  # atno 8009 bound_to 7997
  156.2718  140.2765  156.1446 H   0  0  0  0  0  0  0  0  0  0  0  0  # atno 8010 bound_to 7997
  139.4904  144.5815  151.6863 H   0  0  0  0  0  0  0  0  0  0  0  0  # atno 10167 bound_to 10162
  157.2124  131.0700  151.1961 H   0  0  0  0  0  0  0  0  0  0  0  0  # atno 10718 bound_to 10713
  153.7785  135.3172  155.3362 H   0  0  0  0  0  0  0  0  0  0  0  0  # atno 10763 bound_to 10752
  154.8170  135.4629  154.0675 H   0  0  0  0  0  0  0  0  0  0  0  0  # atno 10764 bound_to 10752
  153.1956  135.6915  153.8381 H   0  0  0  0  0  0  0  0  0  0  0  0  # atno 10765 bound_to 10752
  140.7366  133.8705  155.8934 H   0  0  0  0  0  0  0  0  0  0  0  0  # atno 11005 bound_to 11000
  145.3177  139.1798  143.4604 LP  0  0  0  0  0  0  0  0  0  0  0  0  # atno 17320 bound_to 7965
  146.3237  140.3190  142.8632 LP  0  0  0  0  0  0  0  0  0  0  0  0  # atno 17321 bound_to 7965
  140.5422  144.0561  150.6093 LP  0  0  0  0  0  0  0  0  0  0  0  0  # atno 17342 bound_to 10162
  140.3587  143.2920  152.0408 LP  0  0  0  0  0  0  0  0  0  0  0  0  # atno 17343 bound_to 10162
  157.3658  130.7155  149.6532 LP  0  0  0  0  0  0  0  0  0  0  0  0  # atno 17370 bound_to 10713
  155.9689  130.4212  150.4461 LP  0  0  0  0  0  0  0  0  0  0  0  0  # atno 17371 bound_to 10713
  140.9874  134.1324  157.4439 LP  0  0  0  0  0  0  0  0  0  0  0  0  # atno 17394 bound_to 11000
  139.8815  135.0030  156.6159 LP  0  0  0  0  0  0  0  0  0  0  0  0  # atno 17395 bound_to 11000

$$$$
