AV-unprocessed.smi:1154|AV-procd|sdf|4902|dock10
  -GOLD-   22720 3473D 1   1.00000     0.00000
 Structure written by MMmdl.
 42 43  0  0  0  0  0  0  0  0  2 V2000
  151.5343  145.1635  159.3944 C   0  0  0  0  0  0  0  0  0  0  0  0
  151.8415  143.8048  160.0396 C   0  0  2  0  0  0  0  0  0  0  0  0
  152.5847  143.9762  161.3763 C   0  0  0  0  0  0  0  0  0  0  0  0
  152.9329  142.6107  161.9942 C   0  0  2  0  0  0  0  0  0  0  0  0
  153.6997  142.7722  163.3143 C   0  0  0  0  0  0  0  0  0  0  0  0
  153.7288  141.7597  160.9824 C   0  0  0  0  0  0  0  0  0  0  0  0
  153.0002  141.5886  159.6979 N   0  3  1  0  0  0  0  0  0  0  0  0
  151.8767  140.6166  159.7805 C   0  0  0  0  0  0  0  0  0  0  0  0
  151.5893  139.9315  158.4348 C   0  0  0  0  0  0  0  0  0  0  0  0
  150.6472  140.7205  157.6536 N   0  0  0  0  0  0  0  0  0  0  0  0
  150.3976  140.5284  156.3495 C   0  0  0  0  0  0  0  0  0  0  0  0
  150.9570  139.6637  155.6762 O   0  0  0  0  0  0  0  0  0  0  0  0
  149.3664  141.4544  155.7015 C   0  0  0  0  0  0  0  0  0  0  0  0
  148.0927  140.7834  155.5181 N   0  0  0  0  0  0  0  0  0  0  0  0
  147.3874  140.5277  154.4143 C   0  0  0  0  0  0  0  0  0  0  0  0
  146.2564  139.8976  154.6917 N   0  0  0  0  0  0  0  0  0  0  0  0
  146.2989  139.7665  156.0697 N   0  0  0  0  0  0  0  0  0  0  0  0
  147.3864  140.2899  156.5657 N   0  0  0  0  0  0  0  0  0  0  0  0
  152.6534  142.9007  159.0856 C   0  0  0  0  0  0  0  0  0  0  0  0
  152.4491  145.7127  159.1687 H   0  0  0  0  0  0  0  0  0  0  0  0
  150.9296  145.7839  160.0565 H   0  0  0  0  0  0  0  0  0  0  0  0
  150.9809  145.0412  158.4630 H   0  0  0  0  0  0  0  0  0  0  0  0
  150.8830  143.3268  160.2433 H   0  0  0  0  0  0  0  0  0  0  0  0
  153.4983  144.5515  161.2181 H   0  0  0  0  0  0  0  0  0  0  0  0
  151.9721  144.5537  162.0700 H   0  0  0  0  0  0  0  0  0  0  0  0
  152.0004  142.0936  162.2245 H   0  0  0  0  0  0  0  0  0  0  0  0
  154.6499  143.2852  163.1623 H   0  0  0  0  0  0  0  0  0  0  0  0
  153.9132  141.8027  163.7658 H   0  0  0  0  0  0  0  0  0  0  0  0
  153.1215  143.3500  164.0359 H   0  0  0  0  0  0  0  0  0  0  0  0
  154.6842  142.2424  160.7708 H   0  0  0  0  0  0  0  0  0  0  0  0
  153.9726  140.7845  161.4063 H   0  0  0  0  0  0  0  0  0  0  0  0
  152.1366  139.8392  160.5005 H   0  0  0  0  0  0  0  0  0  0  0  0
  150.9773  141.0966  160.1657 H   0  0  0  0  0  0  0  0  0  0  0  0
  152.4995  139.8127  157.8471 H   0  0  0  0  0  0  0  0  0  0  0  0
  151.1826  138.9335  158.6076 H   0  0  0  0  0  0  0  0  0  0  0  0
  150.1499  141.4569  158.1334 H   0  0  0  0  0  0  0  0  0  0  0  0
  149.2168  142.3354  156.3268 H   0  0  0  0  0  0  0  0  0  0  0  0
  149.7276  141.8034  154.7328 H   0  0  0  0  0  0  0  0  0  0  0  0
  147.6965  140.8056  153.4174 H   0  0  0  0  0  0  0  0  0  0  0  0
  152.1192  142.7592  158.1470 H   0  0  0  0  0  0  0  0  0  0  0  0
  153.5860  143.4018  158.8219 H   0  0  0  0  0  0  0  0  0  0  0  0
  153.6662  141.1575  159.0725 H   0  0  0  0  0  0  0  0  0  0  0  0
  1  2  1  0  0  0  0
  1 20  1  0  0  0  0
  1 21  1  0  0  0  0
  1 22  1  0  0  0  0
  2 19  1  0  0  0  0
  2  3  1  0  0  0  0
  2 23  1  0  0  0  0
  3  4  1  0  0  0  0
  3 24  1  0  0  0  0
  3 25  1  0  0  0  0
  4  5  1  0  0  0  0
  4  6  1  0  0  0  0
  4 26  1  0  0  0  0
  5 27  1  0  0  0  0
  5 28  1  0  0  0  0
  5 29  1  0  0  0  0
  6  7  1  0  0  0  0
  6 30  1  0  0  0  0
  6 31  1  0  0  0  0
  7  8  1  0  0  0  0
  7 19  1  0  0  0  0
  7 42  1  0  0  0  0
  8  9  1  0  0  0  0
  8 32  1  0  0  0  0
  8 33  1  0  0  0  0
  9 10  1  0  0  0  0
  9 34  1  0  0  0  0
  9 35  1  0  0  0  0
 10 11  1  0  0  0  0
 10 36  1  0  0  0  0
 11 12  2  0  0  0  0
 11 13  1  0  0  0  0
 13 14  1  0  0  0  0
 13 37  1  0  0  0  0
 13 38  1  0  0  0  0
 14 18  1  0  0  0  0
 14 15  1  0  0  0  0
 15 16  2  0  0  0  0
 15 39  1  0  0  0  0
 16 17  1  0  0  0  0
 17 18  2  0  0  0  0
 19 40  1  0  0  0  0
 19 41  1  0  0  0  0
M  CHG  1   7   1
M  END
> <s_m_source_file>
AV-unprocessed.smi

> <i_m_source_file_index>
1154

> <i_lp_mmshare_version>
43012

> <i_f3d_flags>
0

> <s_epik_input>
W0NIM11bQ0BASF0xW0NIMl1bQ0BASF0oW0NIM10pW0NIMl1OKFtDSDJdMSlbQ0gyXVtDSDJdW05IXUMoPU8pW0NIMl1uMltjSF1ubm4y

> <s_epik_cmdline>
J2VwaWtfcHl0aG9uJywgJy1waCcsICc3LjAnLCAnLXRuJywgJzgnLCAnLW1hJywgJzIwMCcsICctbWV0YWxfYmluZGluZycsICctaW1hZScsICc8aW5maWxlLm1hZT4nLCAnLW9tYWUnLCAnPG91dGZpbGUubWFlPic=

> <r_lp_tautomer_probability>
1

> <r_epik_Ionization_Penalty>
0.00217773

> <r_epik_Ionization_Penalty_Charging>
0.00217329

> <r_epik_Ionization_Penalty_Neutral>
4.43997e-06

> <r_epik_State_Penalty>
0.00149294

> <r_epik_Charging_Adjusted_Penalty>
0.00366623

> <i_epik_Tot_Q>
1

> <i_epik_Tot_abs_Q>
1

> <r_epik_Metal_State_Penalty>
-0

> <b_epik_Metal_Only>
0

> <s_lp_Force_Field>
OPLS_2005

> <r_lp_Energy>
22.2263

> <b_lp_Chiralities_Consistent>
1

> <s_lp_Variant>
AV-unprocessed.smi:1154-3

> <Gold.Version>
5.8.1

> <Gold.Id.Protein>
6NUR|6NUR_protein|mol2

> <Gold.PLP.Fitness>
47.9986

> <Gold.PLP.PLP>
-43.4005

> <Gold.PLP.part.hbond>
-1.0000

> <Gold.PLP.part.metal>
0.0000

> <Gold.PLP.part.buried>
-4.5410

> <Gold.PLP.part.nonpolar>
-36.8004

> <Gold.PLP.part.repulsive>
0.3771

> <Gold.PLP.ligand.clash>
0.0000

> <Gold.PLP.ligand.torsion>
0.7239

> <Gold.PLP.Chemscore.Hbond>
1.0000

> <Gold.PLP.Chemscore.CHOScore>
1.0000

> <Gold.PLP.Chemscore.Metal>
0.0000

> <Gold.PLP.Chemscore.Internal.Correction>
0.0458

> <Gold.Rescore>
     Score         DG    S(hbond)    S(metal)    S(lipo)     H(rot)  DE(clash)    DE(int)     intcor
     12.77     -13.89       0.99        0.00     102.08       2.67       0.04       1.08       ----

> <Gold.Chemscore.Fitness>
12.7674

> <Gold.Chemscore.DG>
-13.8878

> <Gold.Chemscore.ZeroCoef>
-5.4800

> <Gold.Chemscore.Hbond>
0.9859

> <Gold.Chemscore.Metal>
0.0000

> <Gold.Chemscore.Lipo>
102.0819

> <Gold.Chemscore.Internal_Hbond>
0.0000

> <Gold.Chemscore.DEClash>
0.0402

> <Gold.Chemscore.DEInternal>
1.0801

> <Gold.Chemscore.Rot>
2.6674

> <Gold.Chemscore.Internal.Correction>
   9.000000E+99

> <Gold.Chemscore.Hbond.Weighted>
-3.2928

> <Gold.Chemscore.Metal.Weighted>
-0.0000

> <Gold.Chemscore.Lipo.Weighted>
-11.9436

> <Gold.Chemscore.Internal_Hbond.Weighted>
0.0000

> <Gold.Chemscore.DEClash.Weighted>
0.0402

> <Gold.Chemscore.DEInternal.Weighted>
1.0801

> <Gold.Chemscore.Rot.Weighted>
6.8286

> <Gold.Chemscore.Internal.Correction.Weighted>
   9.000000E+99

> <Gold.Protein.RotatedTorsions>
[ 6907 6896 6895 6894 ] final  -31.52 input  -60.11 | X-H torsion
[ 7974 7965 7964 7962 ] final  -98.39 input  175.53 | X-H torsion
[ 8008 7997 7996 7995 ] final -137.05 input   59.86 | X-H torsion
[ 10167 10162 10161 10158 ] final  -71.76 input  -65.29 | X-H torsion
[ 10718 10713 10712 10709 ] final  -90.56 input   66.30 | X-H torsion
[ 10763 10752 10751 10750 ] final -139.90 input  -60.55 | X-H torsion
[ 11005 11000 10999 10996 ] final -127.98 input  -57.11 | X-H torsion

> <Gold.Protein.ActiveResidues>
 VAL166  LYS551  ARG553  GLY616  TRP617  ASP618  TYR619  PRO620  LYS621  CYS622 
 ASP623  PHE694  ASN695  SER759  ASP760  ASP761  ALA762  ILE779  LEU786  VAL792 
 PHE793  MET794  SER795  GLU796  ALA797  LYS798  CYS799  TRP800  GLU811  SER814 

> <Gold.Protein.RotatedAtoms>
  151.0910  134.9916  159.8402 H   0  0  0  0  0  0  0  0  0  0  0  0  # atno 6907 bound_to 6896
  152.5429  134.2065  159.8743 H   0  0  0  0  0  0  0  0  0  0  0  0  # atno 6908 bound_to 6896
  151.2102  133.4516  159.2631 H   0  0  0  0  0  0  0  0  0  0  0  0  # atno 6909 bound_to 6896
  145.3213  140.9422  143.2714 H   0  0  0  0  0  0  0  0  0  0  0  0  # atno 7974 bound_to 7965
  155.4054  140.0508  157.3034 H   0  0  0  0  0  0  0  0  0  0  0  0  # atno 8008 bound_to 7997
  154.4971  140.2142  155.9384 H   0  0  0  0  0  0  0  0  0  0  0  0  # atno 8009 bound_to 7997
  156.1420  140.3152  155.8515 H   0  0  0  0  0  0  0  0  0  0  0  0  # atno 8010 bound_to 7997
  140.5247  143.2327  151.7368 H   0  0  0  0  0  0  0  0  0  0  0  0  # atno 10167 bound_to 10162
  155.9988  130.4914  150.5342 H   0  0  0  0  0  0  0  0  0  0  0  0  # atno 10718 bound_to 10713
  154.8595  135.3569  154.5621 H   0  0  0  0  0  0  0  0  0  0  0  0  # atno 10763 bound_to 10752
  153.6236  135.7005  153.5306 H   0  0  0  0  0  0  0  0  0  0  0  0  # atno 10764 bound_to 10752
  153.3108  135.4179  155.1294 H   0  0  0  0  0  0  0  0  0  0  0  0  # atno 10765 bound_to 10752
  140.9554  134.1008  157.4021 H   0  0  0  0  0  0  0  0  0  0  0  0  # atno 11005 bound_to 11000
  144.8937  139.4740  143.6665 LP  0  0  0  0  0  0  0  0  0  0  0  0  # atno 17320 bound_to 7965
  146.3081  139.7650  142.9041 LP  0  0  0  0  0  0  0  0  0  0  0  0  # atno 17321 bound_to 7965
  139.4934  144.4203  151.9985 LP  0  0  0  0  0  0  0  0  0  0  0  0  # atno 17342 bound_to 10162
  140.3301  144.3326  150.5989 LP  0  0  0  0  0  0  0  0  0  0  0  0  # atno 17343 bound_to 10162
  157.3287  131.0695  151.1877 LP  0  0  0  0  0  0  0  0  0  0  0  0  # atno 17370 bound_to 10713
  157.2765  130.6729  149.6045 LP  0  0  0  0  0  0  0  0  0  0  0  0  # atno 17371 bound_to 10713
  139.8860  135.0078  156.6474 LP  0  0  0  0  0  0  0  0  0  0  0  0  # atno 17394 bound_to 11000
  140.7543  133.8871  155.8370 LP  0  0  0  0  0  0  0  0  0  0  0  0  # atno 17395 bound_to 11000

$$$$
