AV-unprocessed.smi:35|AV-procd|sdf|256|dock2
  -GOLD-   2262016 13D 1   1.00000     0.00000
 Structure written by MMmdl.
 29 30  0  0  0  0  0  0  0  0  1 V2000
  150.3694  134.5229  157.3941 O   0  0  0  0  0  0  0  0  0  0  0  0
  150.4903  135.6865  157.0172 C   0  0  0  0  0  0  0  0  0  0  0  0
  151.2999  135.9935  155.9210 N   0  0  0  0  0  0  0  0  0  0  0  0
  151.5216  137.2731  155.4083 C   0  0  0  0  0  0  0  0  0  0  0  0
  152.2196  137.4141  154.4055 O   0  0  0  0  0  0  0  0  0  0  0  0
  150.9116  138.3596  156.0797 N   0  0  0  0  0  0  0  0  0  0  0  0
  151.0976  139.7650  155.5274 C   0  0  1  0  0  0  0  0  0  0  0  0
  150.5821  139.8256  154.2259 O   0  0  0  0  0  0  0  0  0  0  0  0
  149.3294  140.5073  154.1845 C   0  0  1  0  0  0  0  0  0  0  0  0
  148.1566  139.5290  154.4299 C   0  0  0  0  0  0  0  0  0  0  0  0
  148.0238  138.6519  153.3319 O   0  0  0  0  0  0  0  0  0  0  0  0
  149.5323  141.5672  155.2724 C   0  0  1  0  0  0  0  0  0  0  0  0
  148.3179  142.0831  155.7822 O   0  0  0  0  0  0  0  0  0  0  0  0
  150.3296  140.8344  156.3436 C   0  0  2  0  0  0  0  0  0  0  0  0
  151.2033  141.7448  156.9823 O   0  0  0  0  0  0  0  0  0  0  0  0
  150.0452  138.0901  157.1353 C   0  0  0  0  0  0  0  0  0  0  0  0
  149.8327  136.8422  157.6144 C   0  0  0  0  0  0  0  0  0  0  0  0
  148.5758  136.6814  159.1372 Br  0  0  0  0  0  0  0  0  0  0  0  0
  151.7523  135.2222  155.4518 H   0  0  0  0  0  0  0  0  0  0  0  0
  152.1795  139.9080  155.4994 H   0  0  0  0  0  0  0  0  0  0  0  0
  149.1993  140.9905  153.2151 H   0  0  0  0  0  0  0  0  0  0  0  0
  148.2620  138.9692  155.3579 H   0  0  0  0  0  0  0  0  0  0  0  0
  147.2148  140.0724  154.5007 H   0  0  0  0  0  0  0  0  0  0  0  0
  148.5461  138.9835  152.6174 H   0  0  0  0  0  0  0  0  0  0  0  0
  150.1219  142.3851  154.8541 H   0  0  0  0  0  0  0  0  0  0  0  0
  148.4056  143.0204  155.8669 H   0  0  0  0  0  0  0  0  0  0  0  0
  149.6608  140.3577  157.0623 H   0  0  0  0  0  0  0  0  0  0  0  0
  150.8362  142.6128  156.9050 H   0  0  0  0  0  0  0  0  0  0  0  0
  149.5030  138.8922  157.6123 H   0  0  0  0  0  0  0  0  0  0  0  0
  1  2  2  0  0  0  0
  2 17  1  0  0  0  0
  2  3  1  0  0  0  0
  3 19  1  0  0  0  0
  3  4  1  0  0  0  0
  4  5  2  0  0  0  0
  4  6  1  0  0  0  0
  6  7  1  0  0  0  0
  6 16  1  0  0  0  0
  7 14  1  0  0  0  0
  7  8  1  0  0  0  0
  7 20  1  0  0  0  0
  8  9  1  0  0  0  0
  9 10  1  0  0  0  0
  9 12  1  0  0  0  0
  9 21  1  0  0  0  0
 10 11  1  0  0  0  0
 10 22  1  0  0  0  0
 10 23  1  0  0  0  0
 11 24  1  0  0  0  0
 12 13  1  0  0  0  0
 12 14  1  0  0  0  0
 12 25  1  0  0  0  0
 13 26  1  0  0  0  0
 14 15  1  0  0  0  0
 14 27  1  0  0  0  0
 15 28  1  0  0  0  0
 16 17  2  0  0  0  0
 16 29  1  0  0  0  0
 17 18  1  0  0  0  0
M  END
> <s_m_source_file>
AV-unprocessed.smi

> <i_m_source_file_index>
35

> <i_lp_mmshare_version>
43012

> <i_f3d_flags>
0

> <s_epik_input>
Tz1jMVtuSF1jKD1PKW4oW2NIXWMxQnIpW0NAQEhdMk9bQ0BASF0oW0NIMl1bT0hdKVtDQEBIXShbT0hdKVtDQEhdMltPSF0=

> <s_epik_cmdline>
J2VwaWtfcHl0aG9uJywgJy1waCcsICc3LjAnLCAnLXRuJywgJzgnLCAnLW1hJywgJzIwMCcsICctbWV0YWxfYmluZGluZycsICctaW1hZScsICc8aW5maWxlLm1hZT4nLCAnLW9tYWUnLCAnPG91dGZpbGUubWFlPic=

> <r_lp_tautomer_probability>
0.999537

> <r_epik_Ionization_Penalty>
0.10812

> <r_epik_Ionization_Penalty_Charging>
0.108119

> <r_epik_Ionization_Penalty_Neutral>
4.93006e-07

> <r_epik_State_Penalty>
0.0979238

> <r_epik_Charging_Adjusted_Penalty>
0.206043

> <i_epik_Tot_Q>
0

> <i_epik_Tot_abs_Q>
0

> <r_epik_Metal_State_Penalty>
3.07911

> <b_epik_Metal_Only>
0

> <s_epik_Chemistry_Notes>
This compound contains an acetal/aminal-like group ( X-CH(R)-Y where X, Y are N, S, or O) that may be acid/base labile, releasing an aldehyde.

> <s_lp_Force_Field>
OPLS_2005

> <r_lp_Energy>
30.5173

> <b_lp_Chiralities_Consistent>
1

> <s_lp_Variant>
AV-unprocessed.smi:35-10

> <Gold.Version>
5.8.1

> <Gold.Id.Protein>
6NUR|6NUR_protein|mol2

> <Gold.PLP.Fitness>
36.2661

> <Gold.PLP.PLP>
-22.7257

> <Gold.PLP.part.hbond>
-6.0000

> <Gold.PLP.part.metal>
0.0000

> <Gold.PLP.part.buried>
-2.0993

> <Gold.PLP.part.nonpolar>
-15.5622

> <Gold.PLP.part.repulsive>
0.3987

> <Gold.PLP.ligand.clash>
0.0000

> <Gold.PLP.ligand.torsion>
0.0665

> <Gold.PLP.Chemscore.Hbond>
4.5360

> <Gold.PLP.Chemscore.CHOScore>
0.0000

> <Gold.PLP.Chemscore.Metal>
0.0000

> <Gold.Chemscore.Hbonds>
donor molecule, donor type, donor heavy atom, donor atom, acceptor molecule, acceptor atom, score
      L1  H    11    24       P1  7957  0.88
      L1  H    13    26       P1  8028  1.00
      P1  H  6896  6907       L1     1  0.66
      P1  H  7989  7998       L1     8  1.00
      P1  H 10752 10765       L1     5  0.80

> <Gold.PLP.Chemscore.Internal.Correction>
0.0653

> <Gold.Rescore>
     Score         DG    S(hbond)    S(metal)    S(lipo)     H(rot)  DE(clash)    DE(int)     intcor
     10.38     -11.96       3.56        0.00      34.09       3.67       0.34       1.24       ----

> <Gold.Chemscore.Fitness>
10.3848

> <Gold.Chemscore.DG>
-11.9625

> <Gold.Chemscore.ZeroCoef>
-5.4800

> <Gold.Chemscore.Hbond>
3.5598

> <Gold.Chemscore.Metal>
0.0000

> <Gold.Chemscore.Lipo>
34.0881

> <Gold.Chemscore.Internal_Hbond>
0.0000

> <Gold.Chemscore.DEClash>
0.3395

> <Gold.Chemscore.DEInternal>
1.2382

> <Gold.Chemscore.Rot>
3.6701

> <Gold.Chemscore.Internal.Correction>
   9.000000E+99

> <Gold.Chemscore.Hbonds>
donor molecule, donor type, donor heavy atom, donor atom, acceptor molecule, acceptor atom, score
      L1  H    11    24       P1  7957  0.85
      L1  H    13    26       P1  8028  0.96
      P1  H  6896  6907       L1     1  0.61
      P1  H  7989  7998       L1     8  0.18
      P1  H 10752 10765       L1     5  0.24

> <Gold.Chemscore.Hbond.Weighted>
-11.8897

> <Gold.Chemscore.Metal.Weighted>
-0.0000

> <Gold.Chemscore.Lipo.Weighted>
-3.9883

> <Gold.Chemscore.Internal_Hbond.Weighted>
0.0000

> <Gold.Chemscore.DEClash.Weighted>
0.3395

> <Gold.Chemscore.DEInternal.Weighted>
1.2382

> <Gold.Chemscore.Rot.Weighted>
9.3955

> <Gold.Chemscore.Internal.Correction.Weighted>
   9.000000E+99

> <Gold.Protein.RotatedTorsions>
[ 6907 6896 6895 6894 ] final -100.10 input  -60.11 | X-H torsion
[ 7974 7965 7964 7962 ] final  117.10 input  175.53 | X-H torsion
[ 8008 7997 7996 7995 ] final  -86.84 input   59.86 | X-H torsion
[ 10167 10162 10161 10158 ] final -142.18 input  -65.29 | X-H torsion
[ 10718 10713 10712 10709 ] final   64.64 input   66.30 | X-H torsion
[ 10763 10752 10751 10750 ] final  159.00 input  -60.55 | X-H torsion
[ 11005 11000 10999 10996 ] final   43.86 input  -57.11 | X-H torsion

> <Gold.Protein.ActiveResidues>
 VAL166  LYS551  ARG553  GLY616  TRP617  ASP618  TYR619  PRO620  LYS621  CYS622 
 ASP623  PHE694  ASN695  SER759  ASP760  ASP761  ALA762  ILE779  LEU786  VAL792 
 PHE793  MET794  SER795  GLU796  ALA797  LYS798  CYS799  TRP800  GLU811  SER814 

> <Gold.Protein.RotatedAtoms>
  150.7103  134.0939  159.3941 H   0  0  0  0  0  0  0  0  0  0  0  0  # atno 6907 bound_to 6896
  151.8924  135.0409  160.0508 H   0  0  0  0  0  0  0  0  0  0  0  0  # atno 6908 bound_to 6896
  152.2480  133.5156  159.5345 H   0  0  0  0  0  0  0  0  0  0  0  0  # atno 6909 bound_to 6896
  145.1715  139.3099  143.4465 H   0  0  0  0  0  0  0  0  0  0  0  0  # atno 7974 bound_to 7965
  154.6564  140.0573  157.0013 H   0  0  0  0  0  0  0  0  0  0  0  0  # atno 8008 bound_to 7997
  155.1294  140.3255  155.4459 H   0  0  0  0  0  0  0  0  0  0  0  0  # atno 8009 bound_to 7997
  156.2599  140.1983  156.6414 H   0  0  0  0  0  0  0  0  0  0  0  0  # atno 8010 bound_to 7997
  139.8114  143.7698  152.2663 H   0  0  0  0  0  0  0  0  0  0  0  0  # atno 10167 bound_to 10162
  157.6053  130.9171  149.9872 H   0  0  0  0  0  0  0  0  0  0  0  0  # atno 10718 bound_to 10713
  154.2250  135.2780  155.2911 H   0  0  0  0  0  0  0  0  0  0  0  0  # atno 10763 bound_to 10752
  154.5671  135.5629  153.7064 H   0  0  0  0  0  0  0  0  0  0  0  0  # atno 10764 bound_to 10752
  153.0033  135.6312  154.2390 H   0  0  0  0  0  0  0  0  0  0  0  0  # atno 10765 bound_to 10752
  140.1606  134.4346  155.8320 H   0  0  0  0  0  0  0  0  0  0  0  0  # atno 11005 bound_to 11000
  146.3468  140.1862  142.8589 LP  0  0  0  0  0  0  0  0  0  0  0  0  # atno 17320 bound_to 7965
  145.0228  140.8808  143.5156 LP  0  0  0  0  0  0  0  0  0  0  0  0  # atno 17321 bound_to 7965
  139.7848  144.7431  151.0037 LP  0  0  0  0  0  0  0  0  0  0  0  0  # atno 17342 bound_to 10162
  140.7817  143.4504  151.0422 LP  0  0  0  0  0  0  0  0  0  0  0  0  # atno 17343 bound_to 10162
  156.1137  130.3649  150.0004 LP  0  0  0  0  0  0  0  0  0  0  0  0  # atno 17370 bound_to 10713
  156.8098  130.9320  151.3644 LP  0  0  0  0  0  0  0  0  0  0  0  0  # atno 17371 bound_to 10713
  141.2209  133.6911  156.7586 LP  0  0  0  0  0  0  0  0  0  0  0  0  # atno 17394 bound_to 11000
  140.2495  134.8552  157.3653 LP  0  0  0  0  0  0  0  0  0  0  0  0  # atno 17395 bound_to 11000

$$$$
