AV-unprocessed.smi:3303|AV-procd|sdf|12680|dock9
  -GOLD-   2272019 13D 1   1.00000     0.00000
 Structure written by MMmdl.
 44 45  0  0  0  0  0  0  0  0  2 V2000
  151.7178  139.7058  156.5786 C   0  0  0  0  0  0  0  0  0  0  0  0
  151.3590  140.9002  157.4794 C   0  0  1  0  0  0  0  0  0  0  0  0
  152.4863  141.1511  158.5001 C   0  0  0  0  0  0  0  0  0  0  0  0
  152.1578  142.2538  159.4074 N   0  0  0  0  0  0  0  0  0  0  0  0
  153.2297  142.3341  160.3963 C   0  0  0  0  0  0  0  0  0  0  0  0
  152.0088  143.5090  158.6512 C   0  0  2  0  0  0  0  0  0  0  0  0
  151.7193  144.7124  159.5716 C   0  0  0  0  0  0  0  0  0  0  0  0
  150.8574  143.3506  157.6359 C   0  0  0  0  0  0  0  0  0  0  0  0
  151.0932  142.1830  156.6680 C   0  0  2  0  0  0  0  0  0  0  0  0
  149.9128  142.0197  155.7901 N   0  3  0  0  0  0  0  0  0  0  0  0
  148.7285  141.4316  156.4471 C   0  0  0  0  0  0  0  0  0  0  0  0
  147.6871  140.9892  155.4101 C   0  0  0  0  0  0  0  0  0  0  0  0
  146.6767  142.0796  155.1090 C   0  0  0  0  0  0  0  0  0  0  0  0
  146.5513  142.6066  153.8059 C   0  0  0  0  0  0  0  0  0  0  0  0
  145.6019  143.6226  153.5821 C   0  0  0  0  0  0  0  0  0  0  0  0
  144.8194  144.0700  154.6640 C   0  0  0  0  0  0  0  0  0  0  0  0
  145.0223  143.4798  155.9274 C   0  0  0  0  0  0  0  0  0  0  0  0
  145.9318  142.5067  156.1533 N   0  0  0  0  0  0  0  0  0  0  0  0
  152.6048  139.9134  155.9790 H   0  0  0  0  0  0  0  0  0  0  0  0
  150.9046  139.4584  155.8961 H   0  0  0  0  0  0  0  0  0  0  0  0
  151.9217  138.8151  157.1735 H   0  0  0  0  0  0  0  0  0  0  0  0
  150.4548  140.6421  158.0337 H   0  0  0  0  0  0  0  0  0  0  0  0
  152.6421  140.2422  159.0833 H   0  0  0  0  0  0  0  0  0  0  0  0
  153.4255  141.3602  157.9845 H   0  0  0  0  0  0  0  0  0  0  0  0
  152.9922  143.0478  161.1845 H   0  0  0  0  0  0  0  0  0  0  0  0
  154.1746  142.6276  159.9367 H   0  0  0  0  0  0  0  0  0  0  0  0
  153.3753  141.3701  160.8854 H   0  0  0  0  0  0  0  0  0  0  0  0
  152.9344  143.7063  158.1072 H   0  0  0  0  0  0  0  0  0  0  0  0
  151.4852  145.6013  158.9851 H   0  0  0  0  0  0  0  0  0  0  0  0
  152.5761  144.9716  160.1932 H   0  0  0  0  0  0  0  0  0  0  0  0
  150.8697  144.5189  160.2274 H   0  0  0  0  0  0  0  0  0  0  0  0
  149.9181  143.2026  158.1720 H   0  0  0  0  0  0  0  0  0  0  0  0
  150.7416  144.2732  157.0653 H   0  0  0  0  0  0  0  0  0  0  0  0
  151.9758  142.4100  156.0669 H   0  0  0  0  0  0  0  0  0  0  0  0
  149.6606  142.9294  155.4312 H   0  0  0  0  0  0  0  0  0  0  0  0
  149.0432  140.5810  157.0532 H   0  0  0  0  0  0  0  0  0  0  0  0
  148.2887  142.1670  157.1223 H   0  0  0  0  0  0  0  0  0  0  0  0
  148.1839  140.6976  154.4837 H   0  0  0  0  0  0  0  0  0  0  0  0
  147.1563  140.1047  155.7656 H   0  0  0  0  0  0  0  0  0  0  0  0
  147.1662  142.2436  152.9955 H   0  0  0  0  0  0  0  0  0  0  0  0
  145.4766  144.0512  152.5987 H   0  0  0  0  0  0  0  0  0  0  0  0
  144.0813  144.8468  154.5289 H   0  0  0  0  0  0  0  0  0  0  0  0
  144.4397  143.7986  156.7792 H   0  0  0  0  0  0  0  0  0  0  0  0
  150.1731  141.4304  155.0121 H   0  0  0  0  0  0  0  0  0  0  0  0
  1  2  1  0  0  0  0
  1 19  1  0  0  0  0
  1 20  1  0  0  0  0
  1 21  1  0  0  0  0
  2  9  1  0  0  0  0
  2  3  1  0  0  0  0
  2 22  1  0  0  0  0
  3  4  1  0  0  0  0
  3 23  1  0  0  0  0
  3 24  1  0  0  0  0
  4  5  1  0  0  0  0
  4  6  1  0  0  0  0
  5 25  1  0  0  0  0
  5 26  1  0  0  0  0
  5 27  1  0  0  0  0
  6  7  1  0  0  0  0
  6  8  1  0  0  0  0
  6 28  1  0  0  0  0
  7 29  1  0  0  0  0
  7 30  1  0  0  0  0
  7 31  1  0  0  0  0
  8  9  1  0  0  0  0
  8 32  1  0  0  0  0
  8 33  1  0  0  0  0
  9 10  1  0  0  0  0
  9 34  1  0  0  0  0
 10 11  1  0  0  0  0
 10 35  1  0  0  0  0
 10 44  1  0  0  0  0
 11 12  1  0  0  0  0
 11 36  1  0  0  0  0
 11 37  1  0  0  0  0
 12 13  1  0  0  0  0
 12 38  1  0  0  0  0
 12 39  1  0  0  0  0
 13 18  1  0  0  0  0
 13 14  2  0  0  0  0
 14 15  1  0  0  0  0
 14 40  1  0  0  0  0
 15 16  2  0  0  0  0
 15 41  1  0  0  0  0
 16 17  1  0  0  0  0
 16 42  1  0  0  0  0
 17 18  2  0  0  0  0
 17 43  1  0  0  0  0
M  CHG  1  10   1
M  END
> <s_m_source_file>
AV-unprocessed.smi

> <i_m_source_file_index>
3303

> <i_lp_mmshare_version>
43012

> <i_f3d_flags>
0

> <s_epik_input>
W0NIM11bQ0BASF0xW0NIMl1OKFtDSDNdKVtDQEBIXShbQ0gzXSlbQ0gyXVtDQEhdMVtOSF1bQ0gyXVtDSDJdYzJbY0hdW2NIXVtjSF1bY0hdbjI=

> <s_epik_cmdline>
J2VwaWtfcHl0aG9uJywgJy1waCcsICc3LjAnLCAnLXRuJywgJzgnLCAnLW1hJywgJzIwMCcsICctbWV0YWxfYmluZGluZycsICctaW1hZScsICc8aW5maWxlLm1hZT4nLCAnLW9tYWUnLCAnPG91dGZpbGUubWFlPic=

> <r_epik_Ionization_Penalty>
1.37325

> <r_epik_Ionization_Penalty_Charging>
0.000251572

> <r_epik_Ionization_Penalty_Neutral>
1.373

> <r_epik_State_Penalty>
1.46343

> <r_epik_Charging_Adjusted_Penalty>
1.46368

> <i_epik_Tot_Q>
1

> <i_epik_Tot_abs_Q>
1

> <r_epik_Metal_State_Penalty>
1.46331

> <b_epik_Metal_Only>
0

> <s_lp_Force_Field>
OPLS_2005

> <r_lp_Energy>
21.6133

> <b_lp_Chiralities_Consistent>
1

> <s_lp_Variant>
AV-unprocessed.smi:3303-24

> <Gold.Version>
5.8.1

> <Gold.Id.Protein>
6NUR|6NUR_protein|mol2

> <Gold.PLP.Fitness>
43.7962

> <Gold.PLP.PLP>
-38.4668

> <Gold.PLP.part.hbond>
-1.0000

> <Gold.PLP.part.metal>
0.0000

> <Gold.PLP.part.buried>
-6.1933

> <Gold.PLP.part.nonpolar>
-31.5626

> <Gold.PLP.part.repulsive>
0.2666

> <Gold.PLP.ligand.clash>
0.0000

> <Gold.PLP.ligand.torsion>
0.3380

> <Gold.PLP.Chemscore.Hbond>
2.0000

> <Gold.PLP.Chemscore.CHOScore>
0.0000

> <Gold.PLP.Chemscore.Metal>
0.0000

> <Gold.Chemscore.Hbonds>
donor molecule, donor type, donor heavy atom, donor atom, acceptor molecule, acceptor atom, score
      L1  H    10    35       P1  8028  2.00

> <Gold.PLP.Chemscore.Internal.Correction>
0.0055

> <Gold.Rescore>
     Score         DG    S(hbond)    S(metal)    S(lipo)     H(rot)  DE(clash)    DE(int)     intcor
     17.76     -18.15       0.98        0.00     109.37       1.33       0.07       0.32       ----

> <Gold.Chemscore.Fitness>
17.7553

> <Gold.Chemscore.DG>
-18.1470

> <Gold.Chemscore.ZeroCoef>
-5.4800

> <Gold.Chemscore.Hbond>
0.9807

> <Gold.Chemscore.Metal>
0.0000

> <Gold.Chemscore.Lipo>
109.3659

> <Gold.Chemscore.Internal_Hbond>
0.0000

> <Gold.Chemscore.DEClash>
0.0689

> <Gold.Chemscore.DEInternal>
0.3228

> <Gold.Chemscore.Rot>
1.3298

> <Gold.Chemscore.Internal.Correction>
   9.000000E+99

> <Gold.Chemscore.Hbonds>
donor molecule, donor type, donor heavy atom, donor atom, acceptor molecule, acceptor atom, score
      L1  H    10    35       P1  8028  0.95

> <Gold.Chemscore.Hbond.Weighted>
-3.2755

> <Gold.Chemscore.Metal.Weighted>
-0.0000

> <Gold.Chemscore.Lipo.Weighted>
-12.7958

> <Gold.Chemscore.Internal_Hbond.Weighted>
0.0000

> <Gold.Chemscore.DEClash.Weighted>
0.0689

> <Gold.Chemscore.DEInternal.Weighted>
0.3228

> <Gold.Chemscore.Rot.Weighted>
3.4043

> <Gold.Chemscore.Internal.Correction.Weighted>
   9.000000E+99

> <Gold.Protein.RotatedTorsions>
[ 6907 6896 6895 6894 ] final   64.21 input  -60.11 | X-H torsion
[ 7974 7965 7964 7962 ] final -120.80 input  175.53 | X-H torsion
[ 8008 7997 7996 7995 ] final   -5.36 input   59.86 | X-H torsion
[ 10167 10162 10161 10158 ] final  -79.52 input  -65.29 | X-H torsion
[ 10718 10713 10712 10709 ] final   80.46 input   66.30 | X-H torsion
[ 10763 10752 10751 10750 ] final  108.49 input  -60.55 | X-H torsion
[ 11005 11000 10999 10996 ] final  -37.01 input  -57.11 | X-H torsion

> <Gold.Protein.ActiveResidues>
 VAL166  LYS551  ARG553  GLY616  TRP617  ASP618  TYR619  PRO620  LYS621  CYS622 
 ASP623  PHE694  ASN695  SER759  ASP760  ASP761  ALA762  ILE779  LEU786  VAL792 
 PHE793  MET794  SER795  GLU796  ALA797  LYS798  CYS799  TRP800  GLU811  SER814 

> <Gold.Protein.RotatedAtoms>
  152.4314  134.5771  159.9937 H   0  0  0  0  0  0  0  0  0  0  0  0  # atno 6907 bound_to 6896
  151.5893  133.3363  159.3032 H   0  0  0  0  0  0  0  0  0  0  0  0  # atno 6908 bound_to 6896
  150.8207  134.7449  159.6834 H   0  0  0  0  0  0  0  0  0  0  0  0  # atno 6909 bound_to 6896
  145.0473  140.8191  143.4230 H   0  0  0  0  0  0  0  0  0  0  0  0  # atno 7974 bound_to 7965
  154.6047  140.2460  155.7746 H   0  0  0  0  0  0  0  0  0  0  0  0  # atno 8008 bound_to 7997
  156.2333  140.2959  156.0198 H   0  0  0  0  0  0  0  0  0  0  0  0  # atno 8009 bound_to 7997
  155.2152  140.0398  157.2930 H   0  0  0  0  0  0  0  0  0  0  0  0  # atno 8010 bound_to 7997
  140.4586  143.2460  151.8383 H   0  0  0  0  0  0  0  0  0  0  0  0  # atno 10167 bound_to 10162
  157.6806  130.9960  150.2083 H   0  0  0  0  0  0  0  0  0  0  0  0  # atno 10718 bound_to 10713
  153.4214  135.3810  155.2113 H   0  0  0  0  0  0  0  0  0  0  0  0  # atno 10763 bound_to 10752
  154.8745  135.3818  154.4380 H   0  0  0  0  0  0  0  0  0  0  0  0  # atno 10764 bound_to 10752
  153.4900  135.7088  153.5952 H   0  0  0  0  0  0  0  0  0  0  0  0  # atno 10765 bound_to 10752
  140.9919  133.7000  156.1865 H   0  0  0  0  0  0  0  0  0  0  0  0  # atno 11005 bound_to 11000
  145.1571  139.2480  143.5411 LP  0  0  0  0  0  0  0  0  0  0  0  0  # atno 17320 bound_to 7965
  146.3515  140.1289  142.8598 LP  0  0  0  0  0  0  0  0  0  0  0  0  # atno 17321 bound_to 7965
  139.4804  144.5035  151.9028 LP  0  0  0  0  0  0  0  0  0  0  0  0  # atno 17342 bound_to 10162
  140.4121  144.2355  150.5888 LP  0  0  0  0  0  0  0  0  0  0  0  0  # atno 17343 bound_to 10162
  156.2759  130.3727  149.7984 LP  0  0  0  0  0  0  0  0  0  0  0  0  # atno 17370 bound_to 10713
  156.5687  130.8415  151.3350 LP  0  0  0  0  0  0  0  0  0  0  0  0  # atno 17371 bound_to 10713
  140.7027  134.4547  157.5585 LP  0  0  0  0  0  0  0  0  0  0  0  0  # atno 17394 bound_to 11000
  139.8996  134.8587  156.1953 LP  0  0  0  0  0  0  0  0  0  0  0  0  # atno 17395 bound_to 11000

$$$$
