AV-unprocessed.smi:2886|AV-procd|sdf|11092|dock4
  -GOLD-   2272015563D 1   1.00000     0.00000
 Structure written by MMmdl.
 28 30  0  0  0  0  0  0  0  0  3 V2000
  150.4816  138.6422  154.8614 O   0  0  0  0  0  0  0  0  0  0  0  0
  150.2404  139.8273  155.0822 C   0  0  0  0  0  0  0  0  0  0  0  0
  149.3083  140.5441  154.3862 N   0  5  0  0  0  0  0  0  0  0  0  0
  149.0701  141.8107  154.6450 N   0  3  0  0  0  0  0  0  0  0  0  0
  149.7005  142.5004  155.5905 C   0  0  0  0  0  0  0  0  0  0  0  0
  150.7013  141.8736  156.3846 C   0  0  0  0  0  0  0  0  0  0  0  0
  151.3893  142.5478  157.3857 N   0  0  0  0  0  0  0  0  0  0  0  0
  151.2625  143.9324  157.8226 C   0  0  1  0  0  0  0  0  0  0  0  0
  150.2558  144.1216  158.9579 C   0  0  0  0  0  0  0  0  0  0  0  0
  151.1059  144.8535  160.0064 C   0  0  1  0  0  0  0  0  0  0  0  0
  152.0871  143.8996  160.6998 C   0  0  0  0  0  0  0  0  0  0  0  0
  153.1129  143.6530  159.5952 C   0  0  0  0  0  0  0  0  0  0  0  0
  152.5506  144.5016  158.4414 C   0  0  2  0  0  0  0  0  0  0  0  0
  151.9975  145.5807  159.1764 O   0  0  0  0  0  0  0  0  0  0  0  0
  150.9645  140.5575  156.1389 C   0  0  0  0  0  0  0  0  0  0  0  0
  152.1615  139.7055  157.0582 Cl  0  0  0  0  0  0  0  0  0  0  0  0
  148.3587  142.3309  154.1078 H   0  0  0  0  0  0  0  0  0  0  0  0
  149.4111  143.5357  155.7162 H   0  0  0  0  0  0  0  0  0  0  0  0
  152.1597  142.0488  157.8084 H   0  0  0  0  0  0  0  0  0  0  0  0
  150.9831  144.5737  156.9874 H   0  0  0  0  0  0  0  0  0  0  0  0
  149.4233  144.7424  158.6248 H   0  0  0  0  0  0  0  0  0  0  0  0
  149.8479  143.1857  159.3426 H   0  0  0  0  0  0  0  0  0  0  0  0
  150.5269  145.4691  160.6954 H   0  0  0  0  0  0  0  0  0  0  0  0
  152.5574  144.3813  161.5578 H   0  0  0  0  0  0  0  0  0  0  0  0
  151.6050  142.9838  161.0436 H   0  0  0  0  0  0  0  0  0  0  0  0
  154.0921  144.0238  159.9002 H   0  0  0  0  0  0  0  0  0  0  0  0
  153.2195  142.5984  159.3406 H   0  0  0  0  0  0  0  0  0  0  0  0
  153.2992  144.7978  157.7060 H   0  0  0  0  0  0  0  0  0  0  0  0
  1  2  2  0  0  0  0
  2  3  1  0  0  0  0
  2 15  1  0  0  0  0
  3  4  1  0  0  0  0
  4  5  2  0  0  0  0
  4 17  1  0  0  0  0
  5  6  1  0  0  0  0
  5 18  1  0  0  0  0
  6 15  2  0  0  0  0
  6  7  1  0  0  0  0
  7  8  1  0  0  0  0
  7 19  1  0  0  0  0
  8 13  1  0  0  0  0
  8  9  1  0  0  0  0
  8 20  1  0  0  0  0
  9 10  1  0  0  0  0
  9 21  1  0  0  0  0
  9 22  1  0  0  0  0
 10 14  1  0  0  0  0
 10 11  1  0  0  0  0
 10 23  1  0  0  0  0
 11 12  1  0  0  0  0
 11 24  1  0  0  0  0
 11 25  1  0  0  0  0
 12 13  1  0  0  0  0
 12 26  1  0  0  0  0
 12 27  1  0  0  0  0
 13 14  1  0  0  0  0
 13 28  1  0  0  0  0
 15 16  1  0  0  0  0
M  CHG  1   3  -1
M  CHG  1   4   1
M  END
> <s_m_source_file>
AV-unprocessed.smi

> <i_m_source_file_index>
2886

> <i_lp_mmshare_version>
43012

> <i_f3d_flags>
0

> <s_epik_input>
Tz1jMVtuSF1uW2NIXWMoYzFDbClbTkhdW0NASF0oW0NIMl1bQ0BASF0yMylbQ0BASF0oTzMpW0NIMl1bQ0gyXTI=

> <s_epik_cmdline>
J2VwaWtfcHl0aG9uJywgJy1waCcsICc3LjAnLCAnLXRuJywgJzgnLCAnLW1hJywgJzIwMCcsICctbWV0YWxfYmluZGluZycsICctaW1hZScsICc8aW5maWxlLm1hZT4nLCAnLW9tYWUnLCAnPG91dGZpbGUubWFlPic=

> <r_lp_tautomer_probability>
0.0138196

> <r_epik_Ionization_Penalty>
2.43027

> <r_epik_Ionization_Penalty_Charging>
2.43027

> <r_epik_Ionization_Penalty_Neutral>
1.33267e-06

> <r_epik_State_Penalty>
2.7044

> <r_epik_Charging_Adjusted_Penalty>
5.13467

> <i_epik_Tot_Q>
0

> <i_epik_Tot_abs_Q>
2

> <r_epik_Metal_State_Penalty>
2.98589

> <b_epik_Metal_Only>
0

> <s_lp_Force_Field>
OPLS_2005

> <r_lp_Energy>
57.8077

> <b_lp_Chiralities_Consistent>
1

> <s_lp_Variant>
AV-unprocessed.smi:2886-6

> <Gold.Version>
5.8.1

> <Gold.Id.Protein>
6NUR|6NUR_protein|mol2

> <Gold.PLP.Fitness>
30.6704

> <Gold.PLP.PLP>
-31.4009

> <Gold.PLP.part.hbond>
-2.2106

> <Gold.PLP.part.metal>
0.0000

> <Gold.PLP.part.buried>
0.5464

> <Gold.PLP.part.nonpolar>
-31.2685

> <Gold.PLP.part.repulsive>
1.5283

> <Gold.PLP.ligand.clash>
0.0000

> <Gold.PLP.ligand.torsion>
0.3699

> <Gold.PLP.Chemscore.Hbond>
0.0000

> <Gold.PLP.Chemscore.CHOScore>
0.0000

> <Gold.PLP.Chemscore.Metal>
0.0000

> <Gold.PLP.Chemscore.Internal.Correction>
0.0093

> <Gold.Rescore>
     Score         DG    S(hbond)    S(metal)    S(lipo)     H(rot)  DE(clash)    DE(int)     intcor
     12.18     -14.36       0.00        0.00      97.81       1.00       1.86       0.33       ----

> <Gold.Chemscore.Fitness>
12.1765

> <Gold.Chemscore.DG>
-14.3636

> <Gold.Chemscore.ZeroCoef>
-5.4800

> <Gold.Chemscore.Hbond>
0.0000

> <Gold.Chemscore.Metal>
0.0000

> <Gold.Chemscore.Lipo>
97.8082

> <Gold.Chemscore.Internal_Hbond>
0.0000

> <Gold.Chemscore.DEClash>
1.8613

> <Gold.Chemscore.DEInternal>
0.3258

> <Gold.Chemscore.Rot>
1.0000

> <Gold.Chemscore.Internal.Correction>
   9.000000E+99

> <Gold.Chemscore.Hbond.Weighted>
-0.0000

> <Gold.Chemscore.Metal.Weighted>
-0.0000

> <Gold.Chemscore.Lipo.Weighted>
-11.4436

> <Gold.Chemscore.Internal_Hbond.Weighted>
0.0000

> <Gold.Chemscore.DEClash.Weighted>
1.8613

> <Gold.Chemscore.DEInternal.Weighted>
0.3258

> <Gold.Chemscore.Rot.Weighted>
2.5600

> <Gold.Chemscore.Internal.Correction.Weighted>
   9.000000E+99

> <Gold.Protein.RotatedTorsions>
[ 6907 6896 6895 6894 ] final  -81.27 input  -60.11 | X-H torsion
[ 7974 7965 7964 7962 ] final    9.80 input  175.53 | X-H torsion
[ 8008 7997 7996 7995 ] final  -10.26 input   59.86 | X-H torsion
[ 10167 10162 10161 10158 ] final -121.96 input  -65.29 | X-H torsion
[ 10718 10713 10712 10709 ] final   92.00 input   66.30 | X-H torsion
[ 10763 10752 10751 10750 ] final   -8.35 input  -60.55 | X-H torsion
[ 11005 11000 10999 10996 ] final   15.87 input  -57.11 | X-H torsion

> <Gold.Protein.ActiveResidues>
 VAL166  LYS551  ARG553  GLY616  TRP617  ASP618  TYR619  PRO620  LYS621  CYS622 
 ASP623  PHE694  ASN695  SER759  ASP760  ASP761  ALA762  ILE779  LEU786  VAL792 
 PHE793  MET794  SER795  GLU796  ALA797  LYS798  CYS799  TRP800  GLU811  SER814 

> <Gold.Protein.RotatedAtoms>
  150.6915  134.3843  159.5047 H   0  0  0  0  0  0  0  0  0  0  0  0  # atno 6907 bound_to 6896
  152.1640  134.8886  160.0548 H   0  0  0  0  0  0  0  0  0  0  0  0  # atno 6908 bound_to 6896
  151.9937  133.3765  159.4191 H   0  0  0  0  0  0  0  0  0  0  0  0  # atno 6909 bound_to 6896
  146.2398  139.9729  142.8445 H   0  0  0  0  0  0  0  0  0  0  0  0  # atno 7974 bound_to 7965
  154.5570  140.2333  155.8394 H   0  0  0  0  0  0  0  0  0  0  0  0  # atno 8008 bound_to 7997
  156.1997  140.3056  155.9461 H   0  0  0  0  0  0  0  0  0  0  0  0  # atno 8009 bound_to 7997
  155.2960  140.0429  157.3017 H   0  0  0  0  0  0  0  0  0  0  0  0  # atno 8010 bound_to 7997
  140.0193  143.5360  152.2228 H   0  0  0  0  0  0  0  0  0  0  0  0  # atno 10167 bound_to 10162
  157.6959  131.0427  150.3815 H   0  0  0  0  0  0  0  0  0  0  0  0  # atno 10718 bound_to 10713
  153.4392  135.7013  153.6180 H   0  0  0  0  0  0  0  0  0  0  0  0  # atno 10763 bound_to 10752
  153.4562  135.3747  155.2312 H   0  0  0  0  0  0  0  0  0  0  0  0  # atno 10764 bound_to 10752
  154.8727  135.4009  154.3788 H   0  0  0  0  0  0  0  0  0  0  0  0  # atno 10765 bound_to 10752
  140.4535  134.1200  155.7706 H   0  0  0  0  0  0  0  0  0  0  0  0  # atno 11005 bound_to 11000
  145.1664  140.9699  143.4347 LP  0  0  0  0  0  0  0  0  0  0  0  0  # atno 17320 bound_to 7965
  145.0069  139.3546  143.6139 LP  0  0  0  0  0  0  0  0  0  0  0  0  # atno 17321 bound_to 7965
  139.6150  144.7617  151.2866 LP  0  0  0  0  0  0  0  0  0  0  0  0  # atno 17342 bound_to 10162
  140.7349  143.6753  150.8047 LP  0  0  0  0  0  0  0  0  0  0  0  0  # atno 17343 bound_to 10162
  156.4228  130.3956  149.6813 LP  0  0  0  0  0  0  0  0  0  0  0  0  # atno 17370 bound_to 10713
  156.4058  130.7697  151.2708 LP  0  0  0  0  0  0  0  0  0  0  0  0  # atno 17371 bound_to 10713
  141.1653  133.8714  157.1731 LP  0  0  0  0  0  0  0  0  0  0  0  0  # atno 17394 bound_to 11000
  139.9991  135.0035  157.0150 LP  0  0  0  0  0  0  0  0  0  0  0  0  # atno 17395 bound_to 11000

$$$$
