AV-unprocessed.smi:1403|AV-procd|sdf|5703|dock1
  -GOLD-   22720 5333D 1   1.00000     0.00000
 Structure written by MMmdl.
 35 36  0  0  0  0  0  0  0  0  2 V2000
  153.5687  141.0478  159.9523 C   0  0  0  0  0  0  0  0  0  0  0  0
  152.3467  141.7978  159.4032 C   0  0  2  0  0  0  0  0  0  0  0  0
  152.1725  141.4426  157.9972 N   0  0  0  0  0  0  0  0  0  0  0  0
  151.1744  140.7076  157.4765 C   0  0  0  0  0  0  0  0  0  0  0  0
  150.2599  140.2431  158.1564 O   0  0  0  0  0  0  0  0  0  0  0  0
  151.1758  140.4564  155.9586 C   0  0  0  0  0  0  0  0  0  0  0  0
  151.0200  139.0443  155.5634 N   0  0  0  0  0  0  0  0  0  0  0  0
  149.7781  138.4341  155.8131 C   0  0  0  0  0  0  0  0  0  0  0  0
  149.5369  137.1515  155.4815 C   0  0  0  0  0  0  0  0  0  0  0  0
  150.6056  136.3902  154.8468 C   0  0  0  0  0  0  0  0  0  0  0  0
  150.4043  135.2170  154.5393 O   0  0  0  0  0  0  0  0  0  0  0  0
  151.7914  137.0279  154.6216 N   0  5  0  0  0  0  0  0  0  0  0  0
  152.0219  138.3337  154.9622 C   0  0  0  0  0  0  0  0  0  0  0  0
  153.0959  138.8931  154.7400 O   0  0  0  0  0  0  0  0  0  0  0  0
  152.4968  143.3250  159.5544 C   0  0  1  0  0  0  0  0  0  0  0  0
  151.5545  144.1586  158.6861 C   0  0  0  0  0  0  0  0  0  0  0  0
  151.5091  145.4923  159.4106 C   0  0  0  0  0  0  0  0  0  0  0  0
  151.9405  145.1509  160.8404 C   0  0  0  0  0  0  0  0  0  0  0  0
  152.1292  143.7413  160.8605 O   0  0  0  0  0  0  0  0  0  0  0  0
  153.7170  141.2581  161.0117 H   0  0  0  0  0  0  0  0  0  0  0  0
  154.4801  141.3329  159.4254 H   0  0  0  0  0  0  0  0  0  0  0  0
  153.4469  139.9693  159.8462 H   0  0  0  0  0  0  0  0  0  0  0  0
  151.4764  141.4758  159.9777 H   0  0  0  0  0  0  0  0  0  0  0  0
  152.8804  141.7764  157.3583 H   0  0  0  0  0  0  0  0  0  0  0  0
  150.3917  141.0660  155.5064 H   0  0  0  0  0  0  0  0  0  0  0  0
  152.1076  140.8529  155.5531 H   0  0  0  0  0  0  0  0  0  0  0  0
  149.0397  139.0692  156.2803 H   0  0  0  0  0  0  0  0  0  0  0  0
  148.5763  136.6986  155.6779 H   0  0  0  0  0  0  0  0  0  0  0  0
  153.5295  143.6254  159.3667 H   0  0  0  0  0  0  0  0  0  0  0  0
  151.8941  144.2476  157.6538 H   0  0  0  0  0  0  0  0  0  0  0  0
  150.5590  143.7121  158.6775 H   0  0  0  0  0  0  0  0  0  0  0  0
  152.2098  146.1991  158.9649 H   0  0  0  0  0  0  0  0  0  0  0  0
  150.5136  145.9356  159.3728 H   0  0  0  0  0  0  0  0  0  0  0  0
  152.8805  145.6463  161.0864 H   0  0  0  0  0  0  0  0  0  0  0  0
  151.1969  145.4469  161.5805 H   0  0  0  0  0  0  0  0  0  0  0  0
  1  2  1  0  0  0  0
  1 20  1  0  0  0  0
  1 21  1  0  0  0  0
  1 22  1  0  0  0  0
  2  3  1  0  0  0  0
  2 15  1  0  0  0  0
  2 23  1  0  0  0  0
  3  4  1  0  0  0  0
  3 24  1  0  0  0  0
  4  5  2  0  0  0  0
  4  6  1  0  0  0  0
  6  7  1  0  0  0  0
  6 25  1  0  0  0  0
  6 26  1  0  0  0  0
  7 13  1  0  0  0  0
  7  8  1  0  0  0  0
  8  9  2  0  0  0  0
  8 27  1  0  0  0  0
  9 10  1  0  0  0  0
  9 28  1  0  0  0  0
 10 11  2  0  0  0  0
 10 12  1  0  0  0  0
 12 13  1  0  0  0  0
 13 14  2  0  0  0  0
 15 19  1  0  0  0  0
 15 16  1  0  0  0  0
 15 29  1  0  0  0  0
 16 17  1  0  0  0  0
 16 30  1  0  0  0  0
 16 31  1  0  0  0  0
 17 18  1  0  0  0  0
 17 32  1  0  0  0  0
 17 33  1  0  0  0  0
 18 19  1  0  0  0  0
 18 34  1  0  0  0  0
 18 35  1  0  0  0  0
M  CHG  1  12  -1
M  END
> <s_m_source_file>
AV-unprocessed.smi

> <i_m_source_file_index>
1403

> <i_lp_mmshare_version>
43012

> <i_f3d_flags>
0

> <s_epik_input>
TzFbQ0gyXVtDSDJdW0NIMl1bQ0BIXTFbQ0BIXShbQ0gzXSlbTkhdQyg9TylbQ0gyXW4yW2NIXVtjSF1jKD1PKVtuSF1jMj1P

> <s_epik_cmdline>
J2VwaWtfcHl0aG9uJywgJy1waCcsICc3LjAnLCAnLXRuJywgJzgnLCAnLW1hJywgJzIwMCcsICctbWV0YWxfYmluZGluZycsICctaW1hZScsICc8aW5maWxlLm1hZT4nLCAnLW9tYWUnLCAnPG91dGZpbGUubWFlPic=

> <r_lp_tautomer_probability>
0.999537

> <r_epik_Ionization_Penalty>
3.07438

> <r_epik_Ionization_Penalty_Charging>
2.82466e-08

> <r_epik_Ionization_Penalty_Neutral>
3.07438

> <r_epik_State_Penalty>
3.07341

> <r_epik_Charging_Adjusted_Penalty>
3.07341

> <i_epik_Tot_Q>
-1

> <i_epik_Tot_abs_Q>
1

> <r_epik_Metal_State_Penalty>
0.45947

> <b_epik_Metal_Only>
1

> <s_lp_Force_Field>
OPLS_2005

> <r_lp_Energy>
26.9379

> <b_lp_Chiralities_Consistent>
1

> <s_lp_Variant>
AV-unprocessed.smi:1403-7

> <Gold.Version>
5.8.1

> <Gold.Id.Protein>
6NUR|6NUR_protein|mol2

> <Gold.PLP.Fitness>
44.8647

> <Gold.PLP.PLP>
-37.0091

> <Gold.PLP.part.hbond>
-2.0000

> <Gold.PLP.part.metal>
0.0000

> <Gold.PLP.part.buried>
-2.9129

> <Gold.PLP.part.nonpolar>
-32.3288

> <Gold.PLP.part.repulsive>
1.1900

> <Gold.PLP.ligand.clash>
0.0000

> <Gold.PLP.ligand.torsion>
0.5895

> <Gold.PLP.Chemscore.Hbond>
3.0000

> <Gold.PLP.Chemscore.CHOScore>
0.0000

> <Gold.PLP.Chemscore.Metal>
0.0000

> <Gold.Chemscore.Hbonds>
donor molecule, donor type, donor heavy atom, donor atom, acceptor molecule, acceptor atom, score
      P1  H  7997  8009       L1    14  0.59
      P1  H 10752 10764       L1    12  2.00

> <Gold.PLP.Chemscore.Internal.Correction>
0.0346

> <Gold.Rescore>
     Score         DG    S(hbond)    S(metal)    S(lipo)     H(rot)  DE(clash)    DE(int)     intcor
     14.72     -15.61       1.69        0.00      82.02       1.99       0.27       0.62       ----

> <Gold.Chemscore.Fitness>
14.7174

> <Gold.Chemscore.DG>
-15.6126

> <Gold.Chemscore.ZeroCoef>
-5.4800

> <Gold.Chemscore.Hbond>
1.6888

> <Gold.Chemscore.Metal>
0.0000

> <Gold.Chemscore.Lipo>
82.0217

> <Gold.Chemscore.Internal_Hbond>
0.0000

> <Gold.Chemscore.DEClash>
0.2732

> <Gold.Chemscore.DEInternal>
0.6220

> <Gold.Chemscore.Rot>
1.9940

> <Gold.Chemscore.Internal.Correction>
   9.000000E+99

> <Gold.Chemscore.Hbonds>
donor molecule, donor type, donor heavy atom, donor atom, acceptor molecule, acceptor atom, score
      P1  H  7997  8009       L1    14  0.58
      P1  H 10752 10764       L1    12  0.34

> <Gold.Chemscore.Hbond.Weighted>
-5.6407

> <Gold.Chemscore.Metal.Weighted>
-0.0000

> <Gold.Chemscore.Lipo.Weighted>
-9.5965

> <Gold.Chemscore.Internal_Hbond.Weighted>
0.0000

> <Gold.Chemscore.DEClash.Weighted>
0.2732

> <Gold.Chemscore.DEInternal.Weighted>
0.6220

> <Gold.Chemscore.Rot.Weighted>
5.1047

> <Gold.Chemscore.Internal.Correction.Weighted>
   9.000000E+99

> <Gold.Protein.RotatedTorsions>
[ 6907 6896 6895 6894 ] final  166.04 input  -60.11 | X-H torsion
[ 7974 7965 7964 7962 ] final  -58.37 input  175.53 | X-H torsion
[ 8008 7997 7996 7995 ] final -135.10 input   59.86 | X-H torsion
[ 10167 10162 10161 10158 ] final  -44.20 input  -65.29 | X-H torsion
[ 10718 10713 10712 10709 ] final  110.76 input   66.30 | X-H torsion
[ 10763 10752 10751 10750 ] final  -65.52 input  -60.55 | X-H torsion
[ 11005 11000 10999 10996 ] final  162.25 input  -57.11 | X-H torsion

> <Gold.Protein.ActiveResidues>
 VAL166  LYS551  ARG553  GLY616  TRP617  ASP618  TYR619  PRO620  LYS621  CYS622 
 ASP623  PHE694  ASN695  SER759  ASP760  ASP761  ALA762  ILE779  LEU786  VAL792 
 PHE793  MET794  SER795  GLU796  ALA797  LYS798  CYS799  TRP800  GLU811  SER814 

> <Gold.Protein.RotatedAtoms>
  151.8851  133.3504  159.3779 H   0  0  0  0  0  0  0  0  0  0  0  0  # atno 6907 bound_to 6896
  150.7117  134.4979  159.5556 H   0  0  0  0  0  0  0  0  0  0  0  0  # atno 6908 bound_to 6896
  152.2539  134.8105  160.0492 H   0  0  0  0  0  0  0  0  0  0  0  0  # atno 6909 bound_to 6896
  145.8402  140.8422  143.0039 H   0  0  0  0  0  0  0  0  0  0  0  0  # atno 7974 bound_to 7965
  155.3731  140.0489  157.3045 H   0  0  0  0  0  0  0  0  0  0  0  0  # atno 8008 bound_to 7997
  154.5120  140.2195  155.9101 H   0  0  0  0  0  0  0  0  0  0  0  0  # atno 8009 bound_to 7997
  156.1593  140.3120  155.8785 H   0  0  0  0  0  0  0  0  0  0  0  0  # atno 8010 bound_to 7997
  140.6906  143.2943  151.3461 H   0  0  0  0  0  0  0  0  0  0  0  0  # atno 10167 bound_to 10162
  157.6478  131.0938  150.6649 H   0  0  0  0  0  0  0  0  0  0  0  0  # atno 10718 bound_to 10713
  154.3462  135.6146  153.5620 H   0  0  0  0  0  0  0  0  0  0  0  0  # atno 10763 bound_to 10752
  152.9801  135.5781  154.4795 H   0  0  0  0  0  0  0  0  0  0  0  0  # atno 10764 bound_to 10752
  154.4508  135.2853  155.1759 H   0  0  0  0  0  0  0  0  0  0  0  0  # atno 10765 bound_to 10752
  140.2239  134.8175  157.3248 H   0  0  0  0  0  0  0  0  0  0  0  0  # atno 11005 bound_to 11000
  144.6734  140.0800  143.7469 LP  0  0  0  0  0  0  0  0  0  0  0  0  # atno 17320 bound_to 7965
  145.9474  139.2710  143.1232 LP  0  0  0  0  0  0  0  0  0  0  0  0  # atno 17321 bound_to 7965
  139.6305  144.0730  152.2472 LP  0  0  0  0  0  0  0  0  0  0  0  0  # atno 17342 bound_to 10162
  140.0204  144.6157  150.7572 LP  0  0  0  0  0  0  0  0  0  0  0  0  # atno 17343 bound_to 10162
  156.6964  130.4610  149.5585 LP  0  0  0  0  0  0  0  0  0  0  0  0  # atno 17370 bound_to 10713
  156.1826  130.6508  151.0969 LP  0  0  0  0  0  0  0  0  0  0  0  0  # atno 17371 bound_to 10713
  140.1821  134.4477  155.7766 LP  0  0  0  0  0  0  0  0  0  0  0  0  # atno 17394 bound_to 11000
  141.2221  133.6988  156.7885 LP  0  0  0  0  0  0  0  0  0  0  0  0  # atno 17395 bound_to 11000

$$$$
