AV-unprocessed.smi:1071|AV-procd|sdf|4681|dock9
  -GOLD-   22720 3203D 1   1.00000     0.00000
 Structure written by MMmdl.
 46 47  0  0  0  0  0  0  0  0  1 V2000
  143.3817  139.9970  160.2047 C   0  0  0  0  0  0  0  0  0  0  0  0
  143.0356  141.0502  161.0867 O   0  0  0  0  0  0  0  0  0  0  0  0
  143.3211  142.3290  160.5447 C   0  0  0  0  0  0  0  0  0  0  0  0
  143.0426  143.3978  161.6059 C   0  0  0  0  0  0  0  0  0  0  0  0
  143.5522  144.6460  161.1460 O   0  0  0  0  0  0  0  0  0  0  0  0
  144.9117  144.7696  160.9457 C   0  0  0  0  0  0  0  0  0  0  0  0
  145.4364  146.0454  160.6590 C   0  0  0  0  0  0  0  0  0  0  0  0
  146.8222  146.1820  160.4515 C   0  0  0  0  0  0  0  0  0  0  0  0
  147.6417  145.0307  160.5288 C   0  0  0  0  0  0  0  0  0  0  0  0
  149.0526  145.0374  160.3593 N   0  0  0  0  0  0  0  0  0  0  0  0
  149.8301  144.1444  159.7154 C   0  0  0  0  0  0  0  0  0  0  0  0
  149.3901  143.2116  159.0445 O   0  0  0  0  0  0  0  0  0  0  0  0
  151.1475  144.4582  159.7819 N   0  0  0  0  0  0  0  0  0  0  0  0
  151.7753  144.8095  161.0658 C   0  0  0  0  0  0  0  0  0  0  0  0
  152.3898  143.5359  161.6845 C   0  0  0  0  0  0  0  0  0  0  0  0
  153.3845  142.9626  160.7748 N   0  0  0  0  0  0  0  0  0  0  0  0
  153.9355  141.7457  161.3528 C   0  0  0  0  0  0  0  0  0  0  0  0
  152.7905  142.6637  159.4691 C   0  0  0  0  0  0  0  0  0  0  0  0
  152.1896  143.9513  158.8655 C   0  0  1  0  0  0  0  0  0  0  0  0
  151.7463  143.7626  157.3997 C   0  0  0  0  0  0  0  0  0  0  0  0
  147.0206  143.8028  160.8376 C   0  0  0  0  0  0  0  0  0  0  0  0
  145.6930  143.6650  161.0373 N   0  0  0  0  0  0  0  0  0  0  0  0
  143.1403  139.0395  160.6658 H   0  0  0  0  0  0  0  0  0  0  0  0
  144.4496  140.0039  159.9823 H   0  0  0  0  0  0  0  0  0  0  0  0
  142.8279  140.0684  159.2676 H   0  0  0  0  0  0  0  0  0  0  0  0
  144.3561  142.3890  160.2044 H   0  0  0  0  0  0  0  0  0  0  0  0
  142.6807  142.5017  159.6785 H   0  0  0  0  0  0  0  0  0  0  0  0
  141.9650  143.4809  161.7556 H   0  0  0  0  0  0  0  0  0  0  0  0
  143.4926  143.1089  162.5576 H   0  0  0  0  0  0  0  0  0  0  0  0
  144.7868  146.9066  160.6033 H   0  0  0  0  0  0  0  0  0  0  0  0
  147.2238  147.1632  160.2530 H   0  0  0  0  0  0  0  0  0  0  0  0
  149.5459  145.7505  160.8765 H   0  0  0  0  0  0  0  0  0  0  0  0
  152.5458  145.5658  160.9071 H   0  0  0  0  0  0  0  0  0  0  0  0
  151.0757  145.2514  161.7762 H   0  0  0  0  0  0  0  0  0  0  0  0
  152.8654  143.7799  162.6350 H   0  0  0  0  0  0  0  0  0  0  0  0
  151.6070  142.8048  161.8946 H   0  0  0  0  0  0  0  0  0  0  0  0
  154.6966  141.3216  160.6970 H   0  0  0  0  0  0  0  0  0  0  0  0
  153.1605  140.9938  161.5091 H   0  0  0  0  0  0  0  0  0  0  0  0
  154.4056  141.9574  162.3137 H   0  0  0  0  0  0  0  0  0  0  0  0
  153.5624  142.2682  158.8074 H   0  0  0  0  0  0  0  0  0  0  0  0
  152.0233  141.8936  159.5666 H   0  0  0  0  0  0  0  0  0  0  0  0
  152.9768  144.7072  158.8288 H   0  0  0  0  0  0  0  0  0  0  0  0
  152.6129  143.5946  156.7600 H   0  0  0  0  0  0  0  0  0  0  0  0
  151.2319  144.6474  157.0240 H   0  0  0  0  0  0  0  0  0  0  0  0
  151.0897  142.9030  157.2681 H   0  0  0  0  0  0  0  0  0  0  0  0
  147.6060  142.8988  160.9224 H   0  0  0  0  0  0  0  0  0  0  0  0
  1  2  1  0  0  0  0
  1 23  1  0  0  0  0
  1 24  1  0  0  0  0
  1 25  1  0  0  0  0
  2  3  1  0  0  0  0
  3  4  1  0  0  0  0
  3 26  1  0  0  0  0
  3 27  1  0  0  0  0
  4  5  1  0  0  0  0
  4 28  1  0  0  0  0
  4 29  1  0  0  0  0
  5  6  1  0  0  0  0
  6 22  1  0  0  0  0
  6  7  2  0  0  0  0
  7  8  1  0  0  0  0
  7 30  1  0  0  0  0
  8  9  2  0  0  0  0
  8 31  1  0  0  0  0
  9 10  1  0  0  0  0
  9 21  1  0  0  0  0
 10 11  1  0  0  0  0
 10 32  1  0  0  0  0
 11 12  2  0  0  0  0
 11 13  1  0  0  0  0
 13 19  1  0  0  0  0
 13 14  1  0  0  0  0
 14 15  1  0  0  0  0
 14 33  1  0  0  0  0
 14 34  1  0  0  0  0
 15 16  1  0  0  0  0
 15 35  1  0  0  0  0
 15 36  1  0  0  0  0
 16 17  1  0  0  0  0
 16 18  1  0  0  0  0
 17 37  1  0  0  0  0
 17 38  1  0  0  0  0
 17 39  1  0  0  0  0
 18 19  1  0  0  0  0
 18 40  1  0  0  0  0
 18 41  1  0  0  0  0
 19 20  1  0  0  0  0
 19 42  1  0  0  0  0
 20 43  1  0  0  0  0
 20 44  1  0  0  0  0
 20 45  1  0  0  0  0
 21 22  2  0  0  0  0
 21 46  1  0  0  0  0
M  END
> <s_m_source_file>
AV-unprocessed.smi

> <i_m_source_file_index>
1071

> <i_lp_mmshare_version>
43012

> <i_f3d_flags>
0

> <s_epik_input>
W0NIM11PW0NIMl1bQ0gyXU9jMVtjSF1bY0hdYyhbY0hdbjEpW05IXUMoPU8pTjJbQ0gyXVtDSDJdTihbQ0gzXSlbQ0gyXVtDQEhdMltDSDNd

> <s_epik_cmdline>
J2VwaWtfcHl0aG9uJywgJy1waCcsICc3LjAnLCAnLXRuJywgJzgnLCAnLW1hJywgJzIwMCcsICctbWV0YWxfYmluZGluZycsICctaW1hZScsICc8aW5maWxlLm1hZT4nLCAnLW9tYWUnLCAnPG91dGZpbGUubWFlPic=

> <r_lp_tautomer_probability>
1

> <r_epik_Ionization_Penalty>
0.623446

> <r_epik_Ionization_Penalty_Charging>
0

> <r_epik_Ionization_Penalty_Neutral>
0.623446

> <r_epik_State_Penalty>
0.639577

> <r_epik_Charging_Adjusted_Penalty>
0.639577

> <i_epik_Tot_Q>
0

> <i_epik_Tot_abs_Q>
0

> <r_epik_Metal_State_Penalty>
0.639567

> <b_epik_Metal_Only>
0

> <s_lp_Force_Field>
OPLS_2005

> <r_lp_Energy>
47.7745

> <b_lp_Chiralities_Consistent>
1

> <s_lp_Variant>
AV-unprocessed.smi:1071-5

> <Gold.Version>
5.8.1

> <Gold.Id.Protein>
6NUR|6NUR_protein|mol2

> <Gold.PLP.Fitness>
36.2070

> <Gold.PLP.PLP>
-37.3987

> <Gold.PLP.part.hbond>
-1.0000

> <Gold.PLP.part.metal>
0.0000

> <Gold.PLP.part.buried>
-1.1629

> <Gold.PLP.part.nonpolar>
-35.2682

> <Gold.PLP.part.repulsive>
0.5092

> <Gold.PLP.ligand.clash>
0.0000

> <Gold.PLP.ligand.torsion>
0.8703

> <Gold.PLP.Chemscore.Hbond>
0.0000

> <Gold.PLP.Chemscore.CHOScore>
0.0000

> <Gold.PLP.Chemscore.Metal>
0.0000

> <Gold.PLP.Chemscore.Internal.Correction>
0.5489

> <Gold.Rescore>
     Score         DG    S(hbond)    S(metal)    S(lipo)     H(rot)  DE(clash)    DE(int)     intcor
      8.33     -13.38       0.00        0.00     101.99       1.57       1.85       3.20       ----

> <Gold.Chemscore.Fitness>
8.3332

> <Gold.Chemscore.DG>
-13.3830

> <Gold.Chemscore.ZeroCoef>
-5.4800

> <Gold.Chemscore.Hbond>
0.0000

> <Gold.Chemscore.Metal>
0.0000

> <Gold.Chemscore.Lipo>
101.9924

> <Gold.Chemscore.Internal_Hbond>
0.0000

> <Gold.Chemscore.DEClash>
1.8507

> <Gold.Chemscore.DEInternal>
3.1991

> <Gold.Chemscore.Rot>
1.5743

> <Gold.Chemscore.Internal.Correction>
   9.000000E+99

> <Gold.Chemscore.Hbond.Weighted>
-0.0000

> <Gold.Chemscore.Metal.Weighted>
-0.0000

> <Gold.Chemscore.Lipo.Weighted>
-11.9331

> <Gold.Chemscore.Internal_Hbond.Weighted>
0.0000

> <Gold.Chemscore.DEClash.Weighted>
1.8507

> <Gold.Chemscore.DEInternal.Weighted>
3.1991

> <Gold.Chemscore.Rot.Weighted>
4.0301

> <Gold.Chemscore.Internal.Correction.Weighted>
   9.000000E+99

> <Gold.Protein.RotatedTorsions>
[ 6907 6896 6895 6894 ] final  -40.56 input  -60.11 | X-H torsion
[ 7974 7965 7964 7962 ] final  -20.68 input  175.53 | X-H torsion
[ 8008 7997 7996 7995 ] final -179.09 input   59.86 | X-H torsion
[ 10167 10162 10161 10158 ] final   99.07 input  -65.29 | X-H torsion
[ 10718 10713 10712 10709 ] final -140.90 input   66.30 | X-H torsion
[ 10763 10752 10751 10750 ] final -145.52 input  -60.55 | X-H torsion
[ 11005 11000 10999 10996 ] final  -30.81 input  -57.11 | X-H torsion

> <Gold.Protein.ActiveResidues>
 VAL166  LYS551  ARG553  GLY616  TRP617  ASP618  TYR619  PRO620  LYS621  CYS622 
 ASP623  PHE694  ASN695  SER759  ASP760  ASP761  ALA762  ILE779  LEU786  VAL792 
 PHE793  MET794  SER795  GLU796  ALA797  LYS798  CYS799  TRP800  GLU811  SER814 

> <Gold.Protein.RotatedAtoms>
  150.9770  134.9132  159.7821 H   0  0  0  0  0  0  0  0  0  0  0  0  # atno 6907 bound_to 6896
  152.5209  134.3463  159.9245 H   0  0  0  0  0  0  0  0  0  0  0  0  # atno 6908 bound_to 6896
  151.3470  133.3899  159.2711 H   0  0  0  0  0  0  0  0  0  0  0  0  # atno 6909 bound_to 6896
  146.1775  140.4236  142.8508 H   0  0  0  0  0  0  0  0  0  0  0  0  # atno 7974 bound_to 7965
  156.0265  140.1272  157.0303 H   0  0  0  0  0  0  0  0  0  0  0  0  # atno 8008 bound_to 7997
  154.4332  140.1058  156.6108 H   0  0  0  0  0  0  0  0  0  0  0  0  # atno 8009 bound_to 7997
  155.5869  140.3469  155.4558 H   0  0  0  0  0  0  0  0  0  0  0  0  # atno 8010 bound_to 7997
  139.7651  144.6941  151.0237 H   0  0  0  0  0  0  0  0  0  0  0  0  # atno 10167 bound_to 10162
  156.3277  130.7569  151.1680 H   0  0  0  0  0  0  0  0  0  0  0  0  # atno 10718 bound_to 10713
  154.8379  135.3411  154.6518 H   0  0  0  0  0  0  0  0  0  0  0  0  # atno 10763 bound_to 10752
  153.7131  135.6963  153.5037 H   0  0  0  0  0  0  0  0  0  0  0  0  # atno 10764 bound_to 10752
  153.2437  135.4376  155.0678 H   0  0  0  0  0  0  0  0  0  0  0  0  # atno 10765 bound_to 10752
  140.9415  133.7276  156.1082 H   0  0  0  0  0  0  0  0  0  0  0  0  # atno 11005 bound_to 11000
  144.8260  140.6628  143.6322 LP  0  0  0  0  0  0  0  0  0  0  0  0  # atno 17320 bound_to 7965
  145.4171  139.1570  143.4094 LP  0  0  0  0  0  0  0  0  0  0  0  0  # atno 17321 bound_to 7965
  140.7810  143.4653  151.0221 LP  0  0  0  0  0  0  0  0  0  0  0  0  # atno 17342 bound_to 10162
  139.8338  143.7655  152.3180 LP  0  0  0  0  0  0  0  0  0  0  0  0  # atno 17343 bound_to 10162
  157.7424  131.0490  150.5024 LP  0  0  0  0  0  0  0  0  0  0  0  0  # atno 17370 bound_to 10713
  156.5185  130.4156  149.6263 LP  0  0  0  0  0  0  0  0  0  0  0  0  # atno 17371 bound_to 10713
  140.7728  134.3813  157.5504 LP  0  0  0  0  0  0  0  0  0  0  0  0  # atno 17394 bound_to 11000
  139.8821  134.9033  156.2851 LP  0  0  0  0  0  0  0  0  0  0  0  0  # atno 17395 bound_to 11000

$$$$
