AV-unprocessed.smi:493|AV-procd|sdf|2712|dock10
  -GOLD-   2262023153D 1   1.00000     0.00000
 Structure written by MMmdl.
 46 47  0  0  0  0  0  0  0  0  1 V2000
  147.6288  133.6309  161.8721 C   0  0  0  0  0  0  0  0  0  0  0  0
  146.9823  135.0274  161.8750 C   0  0  0  0  0  0  0  0  0  0  0  0
  145.4808  134.8837  162.2008 C   0  0  0  0  0  0  0  0  0  0  0  0
  147.6861  135.9028  162.9334 C   0  0  0  0  0  0  0  0  0  0  0  0
  147.1705  135.5872  160.5311 N   0  0  0  0  0  0  0  0  0  0  0  0
  146.8203  136.8027  160.0744 C   0  0  0  0  0  0  0  0  0  0  0  0
  146.2454  137.6516  160.7564 O   0  0  0  0  0  0  0  0  0  0  0  0
  147.1637  137.0840  158.6047 C   0  0  0  0  0  0  0  0  0  0  0  0
  148.5731  137.4565  158.3993 N   0  0  0  0  0  0  0  0  0  0  0  0
  148.8352  138.7856  158.0146 C   0  0  0  0  0  0  0  0  0  0  0  0
  150.0875  139.2340  157.8287 C   0  0  0  0  0  0  0  0  0  0  0  0
  150.3818  140.9061  157.1990 S   0  0  0  0  0  0  0  0  0  0  0  0
  151.4232  140.8013  156.1656 O   0  0  0  0  0  0  0  0  0  0  0  0
  149.0757  141.4969  156.8669 O   0  0  0  0  0  0  0  0  0  0  0  0
  151.0408  141.8231  158.5120 N   0  0  0  0  0  0  0  0  0  0  0  0
  152.1282  141.2208  159.2949 C   0  0  0  0  0  0  0  0  0  0  0  0
  153.2658  142.2408  159.2766 C   0  0  0  0  0  0  0  0  0  0  0  0
  152.5329  143.5701  159.1826 C   0  0  0  0  0  0  0  0  0  0  0  0
  151.3385  143.2458  158.2857 C   0  0  0  0  0  0  0  0  0  0  0  0
  151.1801  138.3001  157.9693 C   0  0  0  0  0  0  0  0  0  0  0  0
  150.9370  137.0222  158.3221 C   0  0  0  0  0  0  0  0  0  0  0  0
  149.5738  136.5379  158.5712 C   0  0  0  0  0  0  0  0  0  0  0  0
  149.3453  135.3766  158.9108 O   0  0  0  0  0  0  0  0  0  0  0  0
  147.5324  133.1471  162.8449 H   0  0  0  0  0  0  0  0  0  0  0  0
  148.6928  133.6844  161.6376 H   0  0  0  0  0  0  0  0  0  0  0  0
  147.1624  132.9772  161.1339 H   0  0  0  0  0  0  0  0  0  0  0  0
  144.9636  134.2967  161.4410 H   0  0  0  0  0  0  0  0  0  0  0  0
  144.9808  135.8498  162.2684 H   0  0  0  0  0  0  0  0  0  0  0  0
  145.3335  134.3822  163.1578 H   0  0  0  0  0  0  0  0  0  0  0  0
  147.6341  135.4424  163.9205 H   0  0  0  0  0  0  0  0  0  0  0  0
  147.2301  136.8892  163.0187 H   0  0  0  0  0  0  0  0  0  0  0  0
  148.7405  136.0468  162.6941 H   0  0  0  0  0  0  0  0  0  0  0  0
  147.6305  134.9773  159.8710 H   0  0  0  0  0  0  0  0  0  0  0  0
  146.9162  136.2098  157.9993 H   0  0  0  0  0  0  0  0  0  0  0  0
  146.5018  137.8742  158.2480 H   0  0  0  0  0  0  0  0  0  0  0  0
  147.9613  139.4061  157.8788 H   0  0  0  0  0  0  0  0  0  0  0  0
  151.7745  141.0515  160.3124 H   0  0  0  0  0  0  0  0  0  0  0  0
  152.4376  140.2608  158.8794 H   0  0  0  0  0  0  0  0  0  0  0  0
  153.9112  142.1721  160.1528 H   0  0  0  0  0  0  0  0  0  0  0  0
  153.8825  142.0933  158.3888 H   0  0  0  0  0  0  0  0  0  0  0  0
  152.1848  143.8721  160.1714 H   0  0  0  0  0  0  0  0  0  0  0  0
  153.1558  144.3713  158.7842 H   0  0  0  0  0  0  0  0  0  0  0  0
  151.6043  143.4007  157.2394 H   0  0  0  0  0  0  0  0  0  0  0  0
  150.4704  143.8659  158.5105 H   0  0  0  0  0  0  0  0  0  0  0  0
  152.1953  138.6244  157.7952 H   0  0  0  0  0  0  0  0  0  0  0  0
  151.7647  136.3362  158.4261 H   0  0  0  0  0  0  0  0  0  0  0  0
  1  2  1  0  0  0  0
  1 24  1  0  0  0  0
  1 25  1  0  0  0  0
  1 26  1  0  0  0  0
  2  3  1  0  0  0  0
  2  4  1  0  0  0  0
  2  5  1  0  0  0  0
  3 27  1  0  0  0  0
  3 28  1  0  0  0  0
  3 29  1  0  0  0  0
  4 30  1  0  0  0  0
  4 31  1  0  0  0  0
  4 32  1  0  0  0  0
  5  6  1  0  0  0  0
  5 33  1  0  0  0  0
  6  7  2  0  0  0  0
  6  8  1  0  0  0  0
  8  9  1  0  0  0  0
  8 34  1  0  0  0  0
  8 35  1  0  0  0  0
  9 22  1  0  0  0  0
  9 10  1  0  0  0  0
 10 11  2  0  0  0  0
 10 36  1  0  0  0  0
 11 12  1  0  0  0  0
 11 20  1  0  0  0  0
 12 13  2  0  0  0  0
 12 14  2  0  0  0  0
 12 15  1  0  0  0  0
 15 19  1  0  0  0  0
 15 16  1  0  0  0  0
 16 17  1  0  0  0  0
 16 37  1  0  0  0  0
 16 38  1  0  0  0  0
 17 18  1  0  0  0  0
 17 39  1  0  0  0  0
 17 40  1  0  0  0  0
 18 19  1  0  0  0  0
 18 41  1  0  0  0  0
 18 42  1  0  0  0  0
 19 43  1  0  0  0  0
 19 44  1  0  0  0  0
 20 21  2  0  0  0  0
 20 45  1  0  0  0  0
 21 22  1  0  0  0  0
 21 46  1  0  0  0  0
 22 23  2  0  0  0  0
M  END
> <s_m_source_file>
AV-unprocessed.smi

> <i_m_source_file_index>
493

> <i_lp_mmshare_version>
43012

> <i_f3d_flags>
0

> <s_epik_input>
W0NIM11DKFtDSDNdKShbQ0gzXSlbTkhdQyg9TylbQ0gyXW4xW2NIXWMoW2NIXVtjSF1jMT1PKVMoPU8pKD1PKU4yW0NIMl1bQ0gyXVtDSDJdW0NIMl0y

> <s_epik_cmdline>
J2VwaWtfcHl0aG9uJywgJy1waCcsICc3LjAnLCAnLXRuJywgJzgnLCAnLW1hJywgJzIwMCcsICctbWV0YWxfYmluZGluZycsICctaW1hZScsICc8aW5maWxlLm1hZT4nLCAnLW9tYWUnLCAnPG91dGZpbGUubWFlPic=

> <r_lp_tautomer_probability>
1

> <r_epik_Ionization_Penalty>
3.47616e-08

> <r_epik_Ionization_Penalty_Charging>
1.01201e-08

> <r_epik_Ionization_Penalty_Neutral>
2.46415e-08

> <r_epik_State_Penalty>
-0

> <r_epik_Charging_Adjusted_Penalty>
1.01201e-08

> <i_epik_Tot_Q>
0

> <i_epik_Tot_abs_Q>
0

> <r_epik_Metal_State_Penalty>
-0

> <b_epik_Metal_Only>
0

> <s_lp_Force_Field>
OPLS_2005

> <r_lp_Energy>
19.4052

> <b_lp_Chiralities_Consistent>
1

> <s_lp_Variant>
AV-unprocessed.smi:493-1

> <Gold.Version>
5.8.1

> <Gold.Id.Protein>
6NUR|6NUR_protein|mol2

> <Gold.PLP.Fitness>
43.2859

> <Gold.PLP.PLP>
-38.1326

> <Gold.PLP.part.hbond>
-2.0000

> <Gold.PLP.part.metal>
0.0000

> <Gold.PLP.part.buried>
-6.4429

> <Gold.PLP.part.nonpolar>
-29.6647

> <Gold.PLP.part.repulsive>
0.2553

> <Gold.PLP.ligand.clash>
0.0000

> <Gold.PLP.ligand.torsion>
1.6569

> <Gold.PLP.Chemscore.Hbond>
2.0000

> <Gold.PLP.Chemscore.CHOScore>
0.0000

> <Gold.PLP.Chemscore.Metal>
0.0000

> <Gold.Chemscore.Hbonds>
donor molecule, donor type, donor heavy atom, donor atom, acceptor molecule, acceptor atom, score
      P1  H  6896  6908       L1    23  1.00
      P1  H  6934  6947       L1     7  1.00

> <Gold.PLP.Chemscore.Internal.Correction>
2.4672

> <Gold.Rescore>
     Score         DG    S(hbond)    S(metal)    S(lipo)     H(rot)  DE(clash)    DE(int)     intcor
     16.39     -18.30       1.93        0.00      90.10       1.62       0.01       1.89       ----

> <Gold.Chemscore.Fitness>
16.3905

> <Gold.Chemscore.DG>
-18.2987

> <Gold.Chemscore.ZeroCoef>
-5.4800

> <Gold.Chemscore.Hbond>
1.9252

> <Gold.Chemscore.Metal>
0.0000

> <Gold.Chemscore.Lipo>
90.0973

> <Gold.Chemscore.Internal_Hbond>
0.0000

> <Gold.Chemscore.DEClash>
0.0149

> <Gold.Chemscore.DEInternal>
1.8933

> <Gold.Chemscore.Rot>
1.6222

> <Gold.Chemscore.Internal.Correction>
   9.000000E+99

> <Gold.Chemscore.Hbonds>
donor molecule, donor type, donor heavy atom, donor atom, acceptor molecule, acceptor atom, score
      P1  H  6896  6908       L1    23  0.94
      P1  H  6934  6947       L1     7  0.82

> <Gold.Chemscore.Hbond.Weighted>
-6.4301

> <Gold.Chemscore.Metal.Weighted>
-0.0000

> <Gold.Chemscore.Lipo.Weighted>
-10.5414

> <Gold.Chemscore.Internal_Hbond.Weighted>
0.0000

> <Gold.Chemscore.DEClash.Weighted>
0.0149

> <Gold.Chemscore.DEInternal.Weighted>
1.8933

> <Gold.Chemscore.Rot.Weighted>
4.1528

> <Gold.Chemscore.Internal.Correction.Weighted>
   9.000000E+99

> <Gold.Protein.RotatedTorsions>
[ 6907 6896 6895 6894 ] final  162.76 input  -60.11 | X-H torsion
[ 7974 7965 7964 7962 ] final -162.90 input  175.53 | X-H torsion
[ 8008 7997 7996 7995 ] final  -44.37 input   59.86 | X-H torsion
[ 10167 10162 10161 10158 ] final  -30.71 input  -65.29 | X-H torsion
[ 10718 10713 10712 10709 ] final  164.83 input   66.30 | X-H torsion
[ 10763 10752 10751 10750 ] final   59.53 input  -60.55 | X-H torsion
[ 11005 11000 10999 10996 ] final   71.41 input  -57.11 | X-H torsion

> <Gold.Protein.ActiveResidues>
 VAL166  LYS551  ARG553  GLY616  TRP617  ASP618  TYR619  PRO620  LYS621  CYS622 
 ASP623  PHE694  ASN695  SER759  ASP760  ASP761  ALA762  ILE779  LEU786  VAL792 
 PHE793  MET794  SER795  GLU796  ALA797  LYS798  CYS799  TRP800  GLU811  SER814 

> <Gold.Protein.RotatedAtoms>
  151.9356  133.3623  159.3946 H   0  0  0  0  0  0  0  0  0  0  0  0  # atno 6907 bound_to 6896
  150.7008  134.4492  159.5338 H   0  0  0  0  0  0  0  0  0  0  0  0  # atno 6908 bound_to 6896
  152.2140  134.8475  160.0545 H   0  0  0  0  0  0  0  0  0  0  0  0  # atno 6909 bound_to 6896
  144.7342  140.3185  143.6175 H   0  0  0  0  0  0  0  0  0  0  0  0  # atno 7974 bound_to 7965
  154.3997  140.1424  156.3671 H   0  0  0  0  0  0  0  0  0  0  0  0  # atno 8008 bound_to 7997
  155.8127  140.3472  155.5446 H   0  0  0  0  0  0  0  0  0  0  0  0  # atno 8009 bound_to 7997
  155.8370  140.0921  157.1748 H   0  0  0  0  0  0  0  0  0  0  0  0  # atno 8010 bound_to 7997
  140.7246  143.3827  151.1571 H   0  0  0  0  0  0  0  0  0  0  0  0  # atno 10167 bound_to 10162
  157.0888  131.0412  151.2546 H   0  0  0  0  0  0  0  0  0  0  0  0  # atno 10718 bound_to 10713
  152.9897  135.5568  154.5729 H   0  0  0  0  0  0  0  0  0  0  0  0  # atno 10763 bound_to 10752
  154.5125  135.2803  155.1332 H   0  0  0  0  0  0  0  0  0  0  0  0  # atno 10764 bound_to 10752
  154.2718  135.6361  153.5366 H   0  0  0  0  0  0  0  0  0  0  0  0  # atno 10765 bound_to 10752
  139.9545  134.7168  156.0785 H   0  0  0  0  0  0  0  0  0  0  0  0  # atno 11005 bound_to 11000
  145.7593  139.1819  143.2276 LP  0  0  0  0  0  0  0  0  0  0  0  0  # atno 17320 bound_to 7965
  146.0999  140.7556  142.9554 LP  0  0  0  0  0  0  0  0  0  0  0  0  # atno 17321 bound_to 7965
  139.7419  143.8911  152.3052 LP  0  0  0  0  0  0  0  0  0  0  0  0  # atno 17342 bound_to 10162
  139.8735  144.7055  150.8959 LP  0  0  0  0  0  0  0  0  0  0  0  0  # atno 17343 bound_to 10162
  157.4739  130.7725  149.7349 LP  0  0  0  0  0  0  0  0  0  0  0  0  # atno 17370 bound_to 10713
  155.9903  130.3945  150.3032 LP  0  0  0  0  0  0  0  0  0  0  0  0  # atno 17371 bound_to 10713
  141.1214  133.6612  156.3224 LP  0  0  0  0  0  0  0  0  0  0  0  0  # atno 17394 bound_to 11000
  140.5641  134.5905  157.5441 LP  0  0  0  0  0  0  0  0  0  0  0  0  # atno 17395 bound_to 11000

$$$$
