AV-unprocessed.smi:2454|AV-procd|sdf|9696|dock9
  -GOLD-   2272013333D 1   1.00000     0.00000
 Structure written by MMmdl.
 42 43  0  0  0  0  0  0  0  0  1 V2000
  151.8875  139.1159  155.7173 C   0  0  0  0  0  0  0  0  0  0  0  0
  151.2845  139.9136  154.7138 O   0  0  0  0  0  0  0  0  0  0  0  0
  150.1285  140.5899  155.1786 C   0  0  0  0  0  0  0  0  0  0  0  0
  148.9825  139.6268  155.4103 C   0  0  0  0  0  0  0  0  0  0  0  0
  148.7222  138.5694  154.5132 C   0  0  0  0  0  0  0  0  0  0  0  0
  147.6264  137.7255  154.8035 C   0  0  0  0  0  0  0  0  0  0  0  0
  147.4096  136.6717  153.8676 N   0  0  0  0  0  0  0  0  0  0  0  0
  146.4236  135.7547  153.7650 C   0  0  0  0  0  0  0  0  0  0  0  0
  145.4961  135.7325  154.5725 O   0  0  0  0  0  0  0  0  0  0  0  0
  146.5250  134.8870  152.7446 N   0  0  0  0  0  0  0  0  0  0  0  0
  145.5949  133.8074  152.4286 C   0  0  1  0  0  0  0  0  0  0  0  0
  144.9886  134.0388  151.0332 C   0  0  0  0  0  0  0  0  0  0  0  0
  144.0730  132.8757  150.6242 C   0  0  0  0  0  0  0  0  0  0  0  0
  144.8155  131.5318  150.6890 C   0  0  0  0  0  0  0  0  0  0  0  0
  145.4170  131.2802  152.0882 C   0  0  1  0  0  0  0  0  0  0  0  0
  146.1503  129.9253  152.1679 C   0  0  0  0  0  0  0  0  0  0  0  0
  145.2995  128.9138  151.9925 F   0  0  0  0  0  0  0  0  0  0  0  0
  147.0956  129.8611  151.2301 F   0  0  0  0  0  0  0  0  0  0  0  0
  146.7368  129.7930  153.3577 F   0  0  0  0  0  0  0  0  0  0  0  0
  146.3319  132.4564  152.4917 C   0  0  0  0  0  0  0  0  0  0  0  0
  146.8772  137.9560  155.9123 N   0  0  0  0  0  0  0  0  0  0  0  0
  147.2093  138.9863  156.6939 C   0  0  0  0  0  0  0  0  0  0  0  0
  148.2202  139.8345  156.5047 N   0  0  0  0  0  0  0  0  0  0  0  0
  152.7729  138.6255  155.3130 H   0  0  0  0  0  0  0  0  0  0  0  0
  151.2049  138.3411  156.0683 H   0  0  0  0  0  0  0  0  0  0  0  0
  152.1983  139.7216  156.5696 H   0  0  0  0  0  0  0  0  0  0  0  0
  150.3507  141.1087  156.1125 H   0  0  0  0  0  0  0  0  0  0  0  0
  149.8227  141.3490  154.4562 H   0  0  0  0  0  0  0  0  0  0  0  0
  149.3378  138.4174  153.6384 H   0  0  0  0  0  0  0  0  0  0  0  0
  148.1223  136.5956  153.1568 H   0  0  0  0  0  0  0  0  0  0  0  0
  147.3233  134.9859  152.1330 H   0  0  0  0  0  0  0  0  0  0  0  0
  144.7796  133.7829  153.1541 H   0  0  0  0  0  0  0  0  0  0  0  0
  144.4258  134.9731  151.0193 H   0  0  0  0  0  0  0  0  0  0  0  0
  145.7857  134.1471  150.2960 H   0  0  0  0  0  0  0  0  0  0  0  0
  143.2039  132.8456  151.2827 H   0  0  0  0  0  0  0  0  0  0  0  0
  143.6914  133.0413  149.6163 H   0  0  0  0  0  0  0  0  0  0  0  0
  144.1285  130.7273  150.4251 H   0  0  0  0  0  0  0  0  0  0  0  0
  145.6068  131.5188  149.9386 H   0  0  0  0  0  0  0  0  0  0  0  0
  144.5918  131.2448  152.8012 H   0  0  0  0  0  0  0  0  0  0  0  0
  147.2030  132.4831  151.8352 H   0  0  0  0  0  0  0  0  0  0  0  0
  146.7137  132.2992  153.5012 H   0  0  0  0  0  0  0  0  0  0  0  0
  146.5969  139.1480  157.5686 H   0  0  0  0  0  0  0  0  0  0  0  0
  1  2  1  0  0  0  0
  1 24  1  0  0  0  0
  1 25  1  0  0  0  0
  1 26  1  0  0  0  0
  2  3  1  0  0  0  0
  3  4  1  0  0  0  0
  3 27  1  0  0  0  0
  3 28  1  0  0  0  0
  4 23  1  0  0  0  0
  4  5  2  0  0  0  0
  5  6  1  0  0  0  0
  5 29  1  0  0  0  0
  6  7  1  0  0  0  0
  6 21  2  0  0  0  0
  7  8  1  0  0  0  0
  7 30  1  0  0  0  0
  8  9  2  0  0  0  0
  8 10  1  0  0  0  0
 10 11  1  0  0  0  0
 10 31  1  0  0  0  0
 11 20  1  0  0  0  0
 11 12  1  0  0  0  0
 11 32  1  0  0  0  0
 12 13  1  0  0  0  0
 12 33  1  0  0  0  0
 12 34  1  0  0  0  0
 13 14  1  0  0  0  0
 13 35  1  0  0  0  0
 13 36  1  0  0  0  0
 14 15  1  0  0  0  0
 14 37  1  0  0  0  0
 14 38  1  0  0  0  0
 15 16  1  0  0  0  0
 15 20  1  0  0  0  0
 15 39  1  0  0  0  0
 16 17  1  0  0  0  0
 16 18  1  0  0  0  0
 16 19  1  0  0  0  0
 20 40  1  0  0  0  0
 20 41  1  0  0  0  0
 21 22  1  0  0  0  0
 22 23  2  0  0  0  0
 22 42  1  0  0  0  0
M  END
> <s_m_source_file>
AV-unprocessed.smi

> <i_m_source_file_index>
2454

> <i_lp_mmshare_version>
43012

> <i_f3d_flags>
0

> <s_epik_input>
W0NIM11PW0NIMl1jMVtjSF1jKG5bY0hdbjEpW05IXUMoPU8pW05IXVtDQEBIXTJbQ0gyXVtDSDJdW0NIMl1bQ0BASF0oQyhGKShGKUYpW0NIMl0y

> <s_epik_cmdline>
J2VwaWtfcHl0aG9uJywgJy1waCcsICc3LjAnLCAnLXRuJywgJzgnLCAnLW1hJywgJzIwMCcsICctbWV0YWxfYmluZGluZycsICctaW1hZScsICc8aW5maWxlLm1hZT4nLCAnLW9tYWUnLCAnPG91dGZpbGUubWFlPic=

> <r_lp_tautomer_probability>
1

> <r_epik_Ionization_Penalty>
3.01554e-05

> <r_epik_Ionization_Penalty_Charging>
0

> <r_epik_Ionization_Penalty_Neutral>
3.01554e-05

> <r_epik_State_Penalty>
-0

> <r_epik_Charging_Adjusted_Penalty>
0

> <i_epik_Tot_Q>
0

> <i_epik_Tot_abs_Q>
0

> <r_epik_Metal_State_Penalty>
-0

> <b_epik_Metal_Only>
0

> <s_lp_Force_Field>
OPLS_2005

> <r_lp_Energy>
13.6068

> <b_lp_Chiralities_Consistent>
1

> <s_lp_Variant>
AV-unprocessed.smi:2454-2

> <Gold.Version>
5.8.1

> <Gold.Id.Protein>
6NUR|6NUR_protein|mol2

> <Gold.PLP.Fitness>
38.2957

> <Gold.PLP.PLP>
-30.5158

> <Gold.PLP.part.hbond>
-3.0000

> <Gold.PLP.part.metal>
0.0000

> <Gold.PLP.part.buried>
0.6527

> <Gold.PLP.part.nonpolar>
-27.8917

> <Gold.PLP.part.repulsive>
0.1102

> <Gold.PLP.ligand.clash>
0.0000

> <Gold.PLP.ligand.torsion>
0.3787

> <Gold.PLP.Chemscore.Hbond>
2.8320

> <Gold.PLP.Chemscore.CHOScore>
0.0000

> <Gold.PLP.Chemscore.Metal>
0.0000

> <Gold.Chemscore.Hbonds>
donor molecule, donor type, donor heavy atom, donor atom, acceptor molecule, acceptor atom, score
      L1  H     7    30       P1  7948  1.00
      L1  H    10    31       P1  7948  0.82
      P1  H  7989  7998       L1     2  0.95

> <Gold.PLP.Chemscore.Internal.Correction>
0.0413

> <Gold.Rescore>
     Score         DG    S(hbond)    S(metal)    S(lipo)     H(rot)  DE(clash)    DE(int)     intcor
     16.36     -18.87       2.86        0.00      67.77       1.60       0.90       1.61       ----

> <Gold.Chemscore.Fitness>
16.3597

> <Gold.Chemscore.DG>
-18.8680

> <Gold.Chemscore.ZeroCoef>
-5.4800

> <Gold.Chemscore.Hbond>
2.8633

> <Gold.Chemscore.Metal>
0.0000

> <Gold.Chemscore.Lipo>
67.7740

> <Gold.Chemscore.Internal_Hbond>
0.0000

> <Gold.Chemscore.DEClash>
0.8992

> <Gold.Chemscore.DEInternal>
1.6092

> <Gold.Chemscore.Rot>
1.6035

> <Gold.Chemscore.Internal.Correction>
   9.000000E+99

> <Gold.Chemscore.Hbonds>
donor molecule, donor type, donor heavy atom, donor atom, acceptor molecule, acceptor atom, score
      L1  H     7    30       P1  7948  0.98
      L1  H    10    31       P1  7948  0.73
      P1  H  7989  7998       L1     2  0.21

> <Gold.Chemscore.Hbond.Weighted>
-9.5635

> <Gold.Chemscore.Metal.Weighted>
-0.0000

> <Gold.Chemscore.Lipo.Weighted>
-7.9296

> <Gold.Chemscore.Internal_Hbond.Weighted>
0.0000

> <Gold.Chemscore.DEClash.Weighted>
0.8992

> <Gold.Chemscore.DEInternal.Weighted>
1.6092

> <Gold.Chemscore.Rot.Weighted>
4.1050

> <Gold.Chemscore.Internal.Correction.Weighted>
   9.000000E+99

> <Gold.Protein.RotatedTorsions>
[ 6907 6896 6895 6894 ] final   90.95 input  -60.11 | X-H torsion
[ 7974 7965 7964 7962 ] final -170.97 input  175.53 | X-H torsion
[ 8008 7997 7996 7995 ] final -165.80 input   59.86 | X-H torsion
[ 10167 10162 10161 10158 ] final   28.90 input  -65.29 | X-H torsion
[ 10718 10713 10712 10709 ] final -148.87 input   66.30 | X-H torsion
[ 10763 10752 10751 10750 ] final  -86.33 input  -60.55 | X-H torsion
[ 11005 11000 10999 10996 ] final  177.01 input  -57.11 | X-H torsion

> <Gold.Protein.ActiveResidues>
 VAL166  LYS551  ARG553  GLY616  TRP617  ASP618  TYR619  PRO620  LYS621  CYS622 
 ASP623  PHE694  ASN695  SER759  ASP760  ASP761  ALA762  ILE779  LEU786  VAL792 
 PHE793  MET794  SER795  GLU796  ALA797  LYS798  CYS799  TRP800  GLU811  SER814 

> <Gold.Protein.RotatedAtoms>
  152.5447  134.1733  159.8605 H   0  0  0  0  0  0  0  0  0  0  0  0  # atno 6907 bound_to 6896
  151.1741  133.4759  159.2601 H   0  0  0  0  0  0  0  0  0  0  0  0  # atno 6908 bound_to 6896
  151.1245  135.0108  159.8609 H   0  0  0  0  0  0  0  0  0  0  0  0  # atno 6909 bound_to 6896
  144.7163  140.1992  143.6340 H   0  0  0  0  0  0  0  0  0  0  0  0  # atno 7974 bound_to 7965
  155.8549  140.0969  157.1651 H   0  0  0  0  0  0  0  0  0  0  0  0  # atno 8008 bound_to 7997
  154.3987  140.1376  156.3951 H   0  0  0  0  0  0  0  0  0  0  0  0  # atno 8009 bound_to 7997
  155.7921  140.3455  155.5357 H   0  0  0  0  0  0  0  0  0  0  0  0  # atno 8010 bound_to 7997
  140.4813  144.0612  150.6266 H   0  0  0  0  0  0  0  0  0  0  0  0  # atno 10167 bound_to 10162
  156.4258  130.8051  151.2276 H   0  0  0  0  0  0  0  0  0  0  0  0  # atno 10718 bound_to 10713
  154.6212  135.5453  153.7577 H   0  0  0  0  0  0  0  0  0  0  0  0  # atno 10763 bound_to 10752
  153.0239  135.6413  154.1438 H   0  0  0  0  0  0  0  0  0  0  0  0  # atno 10764 bound_to 10752
  154.1372  135.2910  155.3150 H   0  0  0  0  0  0  0  0  0  0  0  0  # atno 10765 bound_to 10752
  140.3794  134.6960  157.4441 H   0  0  0  0  0  0  0  0  0  0  0  0  # atno 11005 bound_to 11000
  145.8695  139.2265  143.1669 LP  0  0  0  0  0  0  0  0  0  0  0  0  # atno 17320 bound_to 7965
  146.0098  140.8446  142.9977 LP  0  0  0  0  0  0  0  0  0  0  0  0  # atno 17321 bound_to 7965
  140.3855  143.2780  152.0121 LP  0  0  0  0  0  0  0  0  0  0  0  0  # atno 17342 bound_to 10162
  139.4834  144.6120  151.7415 LP  0  0  0  0  0  0  0  0  0  0  0  0  # atno 17343 bound_to 10162
  157.7508  131.0214  150.3748 LP  0  0  0  0  0  0  0  0  0  0  0  0  # atno 17370 bound_to 10713
  156.4075  130.3927  149.6915 LP  0  0  0  0  0  0  0  0  0  0  0  0  # atno 17371 bound_to 10713
  140.0490  134.6157  155.8885 LP  0  0  0  0  0  0  0  0  0  0  0  0  # atno 17394 bound_to 11000
  141.1928  133.6577  156.5521 LP  0  0  0  0  0  0  0  0  0  0  0  0  # atno 17395 bound_to 11000

$$$$
