AV-unprocessed.smi:1452|AV-procd|sdf|5903|dock9
  -GOLD-   22720 5593D 1   1.00000     0.00000
 Structure written by MMmdl.
 40 42  0  0  0  0  0  0  0  0  2 V2000
  143.0012  135.8798  152.7622 O   0  0  0  0  0  0  0  0  0  0  0  0
  143.2208  137.0884  152.7034 C   0  0  0  0  0  0  0  0  0  0  0  0
  142.2495  137.9873  152.9714 N   0  0  0  0  0  0  0  0  0  0  0  0
  140.8832  137.8212  153.3471 C   0  0  0  0  0  0  0  0  0  0  0  0
  140.1085  139.0007  153.2691 C   0  0  0  0  0  0  0  0  0  0  0  0
  138.7449  138.9631  153.6188 C   0  0  0  0  0  0  0  0  0  0  0  0
  138.1867  137.7434  154.0400 C   0  0  0  0  0  0  0  0  0  0  0  0
  139.0244  136.6149  154.0913 C   0  0  0  0  0  0  0  0  0  0  0  0
  140.3320  136.6497  153.7573 N   0  0  0  0  0  0  0  0  0  0  0  0
  144.4218  137.5904  152.3735 N   0  0  0  0  0  0  0  0  0  0  0  0
  145.6074  136.8105  152.0355 C   0  0  2  0  0  0  0  0  0  0  0  0
  145.4186  135.9578  150.7681 C   0  0  0  0  0  0  0  0  0  0  0  0
  146.1449  134.6292  151.0567 C   0  0  0  0  0  0  0  0  0  0  0  0
  146.7868  134.8127  152.3722 N   0  3  2  0  0  0  0  0  0  0  0  0
  147.0869  133.5920  153.1516 C   0  0  0  0  0  0  0  0  0  0  0  0
  147.8266  133.9847  154.4460 C   0  0  0  0  0  0  0  0  0  0  0  0
  147.0519  135.0517  155.2460 C   0  0  0  0  0  0  0  0  0  0  0  0
  146.6857  136.2564  154.3578 C   0  0  0  0  0  0  0  0  0  0  0  0
  145.9401  135.7664  153.1047 C   0  0  1  0  0  0  0  0  0  0  0  0
  142.5476  138.9502  152.9117 H   0  0  0  0  0  0  0  0  0  0  0  0
  140.5513  139.9310  152.9431 H   0  0  0  0  0  0  0  0  0  0  0  0
  138.1385  139.8553  153.5640 H   0  0  0  0  0  0  0  0  0  0  0  0
  137.1447  137.6751  154.3158 H   0  0  0  0  0  0  0  0  0  0  0  0
  138.6357  135.6585  154.4081 H   0  0  0  0  0  0  0  0  0  0  0  0
  144.5149  138.5968  152.3524 H   0  0  0  0  0  0  0  0  0  0  0  0
  146.4680  137.4655  151.8834 H   0  0  0  0  0  0  0  0  0  0  0  0
  144.3632  135.7646  150.5691 H   0  0  0  0  0  0  0  0  0  0  0  0
  145.8287  136.4620  149.8923 H   0  0  0  0  0  0  0  0  0  0  0  0
  145.4235  133.8117  151.1019 H   0  0  0  0  0  0  0  0  0  0  0  0
  146.8864  134.3854  150.2956 H   0  0  0  0  0  0  0  0  0  0  0  0
  146.1619  133.0626  153.3854 H   0  0  0  0  0  0  0  0  0  0  0  0
  147.7032  132.9185  152.5550 H   0  0  0  0  0  0  0  0  0  0  0  0
  147.9935  133.1023  155.0642 H   0  0  0  0  0  0  0  0  0  0  0  0
  148.8138  134.3734  154.1930 H   0  0  0  0  0  0  0  0  0  0  0  0
  146.1407  134.6096  155.6507 H   0  0  0  0  0  0  0  0  0  0  0  0
  147.6416  135.3811  156.1021 H   0  0  0  0  0  0  0  0  0  0  0  0
  146.0664  136.9554  154.9201 H   0  0  0  0  0  0  0  0  0  0  0  0
  147.5891  136.7966  154.0718 H   0  0  0  0  0  0  0  0  0  0  0  0
  145.0216  135.2563  153.4050 H   0  0  0  0  0  0  0  0  0  0  0  0
  147.6631  135.2848  152.2008 H   0  0  0  0  0  0  0  0  0  0  0  0
  1  2  2  0  0  0  0
  2  3  1  0  0  0  0
  2 10  1  0  0  0  0
  3  4  1  0  0  0  0
  3 20  1  0  0  0  0
  4  9  1  0  0  0  0
  4  5  2  0  0  0  0
  5  6  1  0  0  0  0
  5 21  1  0  0  0  0
  6  7  2  0  0  0  0
  6 22  1  0  0  0  0
  7  8  1  0  0  0  0
  7 23  1  0  0  0  0
  8  9  2  0  0  0  0
  8 24  1  0  0  0  0
 10 11  1  0  0  0  0
 10 25  1  0  0  0  0
 11 19  1  0  0  0  0
 11 12  1  0  0  0  0
 11 26  1  0  0  0  0
 12 13  1  0  0  0  0
 12 27  1  0  0  0  0
 12 28  1  0  0  0  0
 13 14  1  0  0  0  0
 13 29  1  0  0  0  0
 13 30  1  0  0  0  0
 14 19  1  0  0  0  0
 14 15  1  0  0  0  0
 14 40  1  0  0  0  0
 15 16  1  0  0  0  0
 15 31  1  0  0  0  0
 15 32  1  0  0  0  0
 16 17  1  0  0  0  0
 16 33  1  0  0  0  0
 16 34  1  0  0  0  0
 17 18  1  0  0  0  0
 17 35  1  0  0  0  0
 17 36  1  0  0  0  0
 18 19  1  0  0  0  0
 18 37  1  0  0  0  0
 18 38  1  0  0  0  0
 19 39  1  0  0  0  0
M  CHG  1  14   1
M  END
> <s_m_source_file>
AV-unprocessed.smi

> <i_m_source_file_index>
1452

> <i_lp_mmshare_version>
43012

> <i_f3d_flags>
0

> <s_epik_input>
W0NIMl0xW0NIMl1bQ0gyXVtDSDJdW0NASF0oTjEyKVtDQEBIXShbQ0gyXVtDSDJdMilbTkhdQyg9TylbTkhdYzNbY0hdW2NIXVtjSF1bY0hdbjM=

> <s_epik_cmdline>
J2VwaWtfcHl0aG9uJywgJy1waCcsICc3LjAnLCAnLXRuJywgJzgnLCAnLW1hJywgJzIwMCcsICctbWV0YWxfYmluZGluZycsICctaW1hZScsICc8aW5maWxlLm1hZT4nLCAnLW9tYWUnLCAnPG91dGZpbGUubWFlPic=

> <r_epik_Ionization_Penalty>
0.00100813

> <r_epik_Ionization_Penalty_Charging>
0.000974069

> <r_epik_Ionization_Penalty_Neutral>
3.40643e-05

> <r_epik_State_Penalty>
0.000633842

> <r_epik_Charging_Adjusted_Penalty>
0.00160791

> <i_epik_Tot_Q>
1

> <i_epik_Tot_abs_Q>
1

> <r_epik_Metal_State_Penalty>
-0

> <b_epik_Metal_Only>
0

> <s_lp_Force_Field>
OPLS_2005

> <r_lp_Energy>
38.1413

> <b_lp_Chiralities_Consistent>
1

> <s_lp_Variant>
AV-unprocessed.smi:1452-1

> <Gold.Version>
5.8.1

> <Gold.Id.Protein>
6NUR|6NUR_protein|mol2

> <Gold.PLP.Fitness>
42.1824

> <Gold.PLP.PLP>
-30.3297

> <Gold.PLP.part.hbond>
-4.0000

> <Gold.PLP.part.metal>
0.0000

> <Gold.PLP.part.buried>
-2.0796

> <Gold.PLP.part.nonpolar>
-25.1466

> <Gold.PLP.part.repulsive>
0.3363

> <Gold.PLP.ligand.clash>
0.0000

> <Gold.PLP.ligand.torsion>
0.0663

> <Gold.PLP.Chemscore.Hbond>
3.9920

> <Gold.PLP.Chemscore.CHOScore>
0.0000

> <Gold.PLP.Chemscore.Metal>
0.0000

> <Gold.Chemscore.Hbonds>
donor molecule, donor type, donor heavy atom, donor atom, acceptor molecule, acceptor atom, score
      L1  H     3    20       P1 10175  1.00
      L1  H    10    25       P1 10175  0.98
      L1  H    14    40       P1  7948  2.00

> <Gold.PLP.Chemscore.Internal.Correction>
0.0093

> <Gold.Rescore>
     Score         DG    S(hbond)    S(metal)    S(lipo)     H(rot)  DE(clash)    DE(int)     intcor
     17.31     -19.79       2.91        0.00      61.14       1.00       0.07       2.42       ----

> <Gold.Chemscore.Fitness>
17.3096

> <Gold.Chemscore.DG>
-19.7945

> <Gold.Chemscore.ZeroCoef>
-5.4800

> <Gold.Chemscore.Hbond>
2.9106

> <Gold.Chemscore.Metal>
0.0000

> <Gold.Chemscore.Lipo>
61.1371

> <Gold.Chemscore.Internal_Hbond>
0.0000

> <Gold.Chemscore.DEClash>
0.0692

> <Gold.Chemscore.DEInternal>
2.4156

> <Gold.Chemscore.Rot>
1.0000

> <Gold.Chemscore.Internal.Correction>
   9.000000E+99

> <Gold.Chemscore.Hbonds>
donor molecule, donor type, donor heavy atom, donor atom, acceptor molecule, acceptor atom, score
      L1  H     3    20       P1 10175  0.99
      L1  H    10    25       P1 10175  0.86
      L1  H    14    40       P1  7948  0.98

> <Gold.Chemscore.Hbond.Weighted>
-9.7214

> <Gold.Chemscore.Metal.Weighted>
-0.0000

> <Gold.Chemscore.Lipo.Weighted>
-7.1530

> <Gold.Chemscore.Internal_Hbond.Weighted>
0.0000

> <Gold.Chemscore.DEClash.Weighted>
0.0692

> <Gold.Chemscore.DEInternal.Weighted>
2.4156

> <Gold.Chemscore.Rot.Weighted>
2.5600

> <Gold.Chemscore.Internal.Correction.Weighted>
   9.000000E+99

> <Gold.Protein.RotatedTorsions>
[ 6907 6896 6895 6894 ] final  176.86 input  -60.11 | X-H torsion
[ 7974 7965 7964 7962 ] final  160.80 input  175.53 | X-H torsion
[ 8008 7997 7996 7995 ] final  167.17 input   59.86 | X-H torsion
[ 10167 10162 10161 10158 ] final  155.48 input  -65.29 | X-H torsion
[ 10718 10713 10712 10709 ] final -114.04 input   66.30 | X-H torsion
[ 10763 10752 10751 10750 ] final  115.27 input  -60.55 | X-H torsion
[ 11005 11000 10999 10996 ] final  -67.41 input  -57.11 | X-H torsion

> <Gold.Protein.ActiveResidues>
 VAL166  LYS551  ARG553  GLY616  TRP617  ASP618  TYR619  PRO620  LYS621  CYS622 
 ASP623  PHE694  ASN695  SER759  ASP760  ASP761  ALA762  ILE779  LEU786  VAL792 
 PHE793  MET794  SER795  GLU796  ALA797  LYS798  CYS799  TRP800  GLU811  SER814 

> <Gold.Protein.RotatedAtoms>
  151.7133  133.3313  159.3296 H   0  0  0  0  0  0  0  0  0  0  0  0  # atno 6907 bound_to 6896
  150.7684  134.6513  159.6299 H   0  0  0  0  0  0  0  0  0  0  0  0  # atno 6908 bound_to 6896
  152.3698  134.6754  160.0232 H   0  0  0  0  0  0  0  0  0  0  0  0  # atno 6909 bound_to 6896
  144.7718  139.7809  143.6294 H   0  0  0  0  0  0  0  0  0  0  0  0  # atno 7974 bound_to 7965
  156.1657  140.1624  156.8536 H   0  0  0  0  0  0  0  0  0  0  0  0  # atno 8008 bound_to 7997
  154.5205  140.0779  156.8197 H   0  0  0  0  0  0  0  0  0  0  0  0  # atno 8009 bound_to 7997
  155.3617  140.3395  155.4243 H   0  0  0  0  0  0  0  0  0  0  0  0  # atno 8010 bound_to 7997
  139.4821  144.5094  151.8047 H   0  0  0  0  0  0  0  0  0  0  0  0  # atno 10167 bound_to 10162
  156.0804  130.6005  150.8722 H   0  0  0  0  0  0  0  0  0  0  0  0  # atno 10718 bound_to 10713
  153.5196  135.3600  155.2626 H   0  0  0  0  0  0  0  0  0  0  0  0  # atno 10763 bound_to 10752
  154.8736  135.4042  154.3274 H   0  0  0  0  0  0  0  0  0  0  0  0  # atno 10764 bound_to 10752
  153.3943  135.7073  153.6539 H   0  0  0  0  0  0  0  0  0  0  0  0  # atno 10765 bound_to 10752
  141.1507  133.6718  156.6288 H   0  0  0  0  0  0  0  0  0  0  0  0  # atno 11005 bound_to 11000
  146.1870  139.5090  142.9830 LP  0  0  0  0  0  0  0  0  0  0  0  0  # atno 17320 bound_to 7965
  145.6302  141.0305  143.1867 LP  0  0  0  0  0  0  0  0  0  0  0  0  # atno 17321 bound_to 7965
  140.4596  144.1741  150.5905 LP  0  0  0  0  0  0  0  0  0  0  0  0  # atno 17342 bound_to 10162
  140.4499  143.2491  151.9362 LP  0  0  0  0  0  0  0  0  0  0  0  0  # atno 17343 bound_to 10162
  157.5919  131.0944  150.9105 LP  0  0  0  0  0  0  0  0  0  0  0  0  # atno 17370 bound_to 10713
  156.9279  130.5339  149.5279 LP  0  0  0  0  0  0  0  0  0  0  0  0  # atno 17371 bound_to 10713
  140.3483  134.7791  157.4448 LP  0  0  0  0  0  0  0  0  0  0  0  0  # atno 17394 bound_to 11000
  140.0882  134.5638  155.8471 LP  0  0  0  0  0  0  0  0  0  0  0  0  # atno 17395 bound_to 11000

$$$$
