AV-unprocessed.smi:498|AV-procd|sdf|2730|dock8
  -GOLD-   2262023183D 1   1.00000     0.00000
 Structure written by MMmdl.
 41 43  0  0  0  0  0  0  0  0  2 V2000
  148.8530  133.2402  153.5027 C   0  0  0  0  0  0  0  0  0  0  0  0
  149.3173  133.2656  154.9603 C   0  0  0  0  0  0  0  0  0  0  0  0
  149.3648  134.6116  155.3986 O   0  0  0  0  0  0  0  0  0  0  0  0
  149.6742  134.7303  156.7775 C   0  0  0  0  0  0  0  0  0  0  0  0
  148.3832  134.6757  157.6097 C   0  0  0  0  0  0  0  0  0  0  0  0
  148.4423  135.5329  158.7986 N   0  0  0  0  0  0  0  0  0  0  0  0
  148.9695  136.7854  158.9674 C   0  0  0  0  0  0  0  0  0  0  0  0
  149.6505  137.5824  157.8789 C   0  0  0  0  0  0  0  0  0  0  0  0
  149.9155  138.9527  158.3076 N   0  5  0  0  0  0  0  0  0  0  0  0
  151.1538  139.4368  158.5993 C   0  0  0  0  0  0  0  0  0  0  0  0
  152.1759  138.8376  158.9498 O   0  0  0  0  0  0  0  0  0  0  0  0
  151.2267  140.9047  158.4215 C   0  0  0  0  0  0  0  0  0  0  0  0
  152.1362  141.8354  158.8567 C   0  0  0  0  0  0  0  0  0  0  0  0
  151.7112  143.0940  158.3490 C   0  0  0  0  0  0  0  0  0  0  0  0
  150.5777  142.8440  157.6310 C   0  0  0  0  0  0  0  0  0  0  0  0
  150.2752  141.5176  157.6573 O   0  0  0  0  0  0  0  0  0  0  0  0
  148.8547  137.2904  160.1987 N   0  0  0  0  0  0  0  0  0  0  0  0
  148.2104  136.2873  160.8921 C   0  0  0  0  0  0  0  0  0  0  0  0
  147.8088  136.2211  162.2456 C   0  0  0  0  0  0  0  0  0  0  0  0
  147.1560  135.0737  162.7411 C   0  0  0  0  0  0  0  0  0  0  0  0
  146.8964  133.9792  161.8918 C   0  0  0  0  0  0  0  0  0  0  0  0
  147.2870  134.0268  160.5398 C   0  0  0  0  0  0  0  0  0  0  0  0
  147.9380  135.1753  160.0484 C   0  0  0  0  0  0  0  0  0  0  0  0
  148.7966  132.2178  153.1293 H   0  0  0  0  0  0  0  0  0  0  0  0
  149.5415  133.7933  152.8638 H   0  0  0  0  0  0  0  0  0  0  0  0
  147.8655  133.6903  153.3998 H   0  0  0  0  0  0  0  0  0  0  0  0
  148.6262  132.6924  155.5796 H   0  0  0  0  0  0  0  0  0  0  0  0
  150.3022  132.8049  155.0482 H   0  0  0  0  0  0  0  0  0  0  0  0
  150.3487  133.9290  157.0775 H   0  0  0  0  0  0  0  0  0  0  0  0
  150.1943  135.6712  156.9610 H   0  0  0  0  0  0  0  0  0  0  0  0
  147.5212  134.9382  156.9965 H   0  0  0  0  0  0  0  0  0  0  0  0
  148.2057  133.6509  157.9361 H   0  0  0  0  0  0  0  0  0  0  0  0
  150.5601  137.0495  157.5990 H   0  0  0  0  0  0  0  0  0  0  0  0
  149.0217  137.5614  156.9879 H   0  0  0  0  0  0  0  0  0  0  0  0
  153.0041  141.6328  159.4669 H   0  0  0  0  0  0  0  0  0  0  0  0
  152.1778  144.0577  158.4886 H   0  0  0  0  0  0  0  0  0  0  0  0
  149.8976  143.4608  157.0626 H   0  0  0  0  0  0  0  0  0  0  0  0
  148.0058  137.0546  162.9029 H   0  0  0  0  0  0  0  0  0  0  0  0
  146.8546  135.0328  163.7774 H   0  0  0  0  0  0  0  0  0  0  0  0
  146.3981  133.1024  162.2785 H   0  0  0  0  0  0  0  0  0  0  0  0
  147.0934  133.1877  159.8884 H   0  0  0  0  0  0  0  0  0  0  0  0
  1  2  1  0  0  0  0
  1 24  1  0  0  0  0
  1 25  1  0  0  0  0
  1 26  1  0  0  0  0
  2  3  1  0  0  0  0
  2 27  1  0  0  0  0
  2 28  1  0  0  0  0
  3  4  1  0  0  0  0
  4  5  1  0  0  0  0
  4 29  1  0  0  0  0
  4 30  1  0  0  0  0
  5  6  1  0  0  0  0
  5 31  1  0  0  0  0
  5 32  1  0  0  0  0
  6 23  1  0  0  0  0
  6  7  1  0  0  0  0
  7  8  1  0  0  0  0
  7 17  2  0  0  0  0
  8  9  1  0  0  0  0
  8 33  1  0  0  0  0
  8 34  1  0  0  0  0
  9 10  1  0  0  0  0
 10 11  2  0  0  0  0
 10 12  1  0  0  0  0
 12 16  1  0  0  0  0
 12 13  2  0  0  0  0
 13 14  1  0  0  0  0
 13 35  1  0  0  0  0
 14 15  2  0  0  0  0
 14 36  1  0  0  0  0
 15 16  1  0  0  0  0
 15 37  1  0  0  0  0
 17 18  1  0  0  0  0
 18 23  2  0  0  0  0
 18 19  1  0  0  0  0
 19 20  2  0  0  0  0
 19 38  1  0  0  0  0
 20 21  1  0  0  0  0
 20 39  1  0  0  0  0
 21 22  2  0  0  0  0
 21 40  1  0  0  0  0
 22 23  1  0  0  0  0
 22 41  1  0  0  0  0
M  CHG  1   9  -1
M  END
> <s_m_source_file>
AV-unprocessed.smi

> <i_m_source_file_index>
498

> <i_lp_mmshare_version>
43012

> <i_f3d_flags>
0

> <s_epik_input>
W0NIM11bQ0gyXU9bQ0gyXVtDSDJdbihjKGMxMilbY0hdW2NIXVtjSF1bY0hdMiljKG4xKVtDSDJdW05IXUMoPU8pYzNbY0hdW2NIXVtjSF1vMw==

> <s_epik_cmdline>
J2VwaWtfcHl0aG9uJywgJy1waCcsICc3LjAnLCAnLXRuJywgJzgnLCAnLW1hJywgJzIwMCcsICctbWV0YWxfYmluZGluZycsICctaW1hZScsICc8aW5maWxlLm1hZT4nLCAnLW9tYWUnLCAnPG91dGZpbGUubWFlPic=

> <r_epik_Ionization_Penalty>
7.14443

> <r_epik_Ionization_Penalty_Charging>
6.27046

> <r_epik_Ionization_Penalty_Neutral>
0.873973

> <r_epik_State_Penalty>
6.33192

> <r_epik_Charging_Adjusted_Penalty>
12.6024

> <i_epik_Tot_Q>
-1

> <i_epik_Tot_abs_Q>
1

> <r_epik_Metal_State_Penalty>
2.32923

> <b_epik_Metal_Only>
1

> <s_lp_Force_Field>
OPLS_2005

> <r_lp_Energy>
15.7295

> <b_lp_Chiralities_Consistent>
1

> <s_lp_Variant>
AV-unprocessed.smi:498-3

> <Gold.Version>
5.8.1

> <Gold.Id.Protein>
6NUR|6NUR_protein|mol2

> <Gold.PLP.Fitness>
42.8546

> <Gold.PLP.PLP>
-41.0171

> <Gold.PLP.part.hbond>
-1.4753

> <Gold.PLP.part.metal>
0.0000

> <Gold.PLP.part.buried>
-5.6997

> <Gold.PLP.part.nonpolar>
-34.7172

> <Gold.PLP.part.repulsive>
0.1068

> <Gold.PLP.ligand.clash>
0.0000

> <Gold.PLP.ligand.torsion>
1.1089

> <Gold.PLP.Chemscore.Hbond>
0.2992

> <Gold.PLP.Chemscore.CHOScore>
1.0000

> <Gold.PLP.Chemscore.Metal>
0.0000

> <Gold.Chemscore.Hbonds>
donor molecule, donor type, donor heavy atom, donor atom, acceptor molecule, acceptor atom, score
      P1  H  6931  6943       L1    17  0.23
      L1  C    15    37       P1  8028  1.00

> <Gold.PLP.Chemscore.Internal.Correction>
0.1576

> <Gold.Rescore>
     Score         DG    S(hbond)    S(metal)    S(lipo)     H(rot)  DE(clash)    DE(int)     intcor
     11.80     -12.85       0.00        0.00     104.55       1.90       0.22       0.84       ----

> <Gold.Chemscore.Fitness>
11.8019

> <Gold.Chemscore.DG>
-12.8524

> <Gold.Chemscore.ZeroCoef>
-5.4800

> <Gold.Chemscore.Hbond>
0.0007

> <Gold.Chemscore.Metal>
0.0000

> <Gold.Chemscore.Lipo>
104.5489

> <Gold.Chemscore.Internal_Hbond>
0.0000

> <Gold.Chemscore.DEClash>
0.2155

> <Gold.Chemscore.DEInternal>
0.8350

> <Gold.Chemscore.Rot>
1.8992

> <Gold.Chemscore.Internal.Correction>
   9.000000E+99

> <Gold.Chemscore.Hbonds>
donor molecule, donor type, donor heavy atom, donor atom, acceptor molecule, acceptor atom, score
      P1  H  6931  6943       L1    17  0.01

> <Gold.Chemscore.Hbond.Weighted>
-0.0023

> <Gold.Chemscore.Metal.Weighted>
-0.0000

> <Gold.Chemscore.Lipo.Weighted>
-12.2322

> <Gold.Chemscore.Internal_Hbond.Weighted>
0.0000

> <Gold.Chemscore.DEClash.Weighted>
0.2155

> <Gold.Chemscore.DEInternal.Weighted>
0.8350

> <Gold.Chemscore.Rot.Weighted>
4.8621

> <Gold.Chemscore.Internal.Correction.Weighted>
   9.000000E+99

> <Gold.Protein.RotatedTorsions>
[ 6907 6896 6895 6894 ] final  -19.41 input  -60.11 | X-H torsion
[ 7974 7965 7964 7962 ] final  -46.29 input  175.53 | X-H torsion
[ 8008 7997 7996 7995 ] final   91.31 input   59.86 | X-H torsion
[ 10167 10162 10161 10158 ] final   43.60 input  -65.29 | X-H torsion
[ 10718 10713 10712 10709 ] final  -29.50 input   66.30 | X-H torsion
[ 10763 10752 10751 10750 ] final  -30.65 input  -60.55 | X-H torsion
[ 11005 11000 10999 10996 ] final -149.72 input  -57.11 | X-H torsion

> <Gold.Protein.ActiveResidues>
 VAL166  LYS551  ARG553  GLY616  TRP617  ASP618  TYR619  PRO620  LYS621  CYS622 
 ASP623  PHE694  ASN695  SER759  ASP760  ASP761  ALA762  ILE779  LEU786  VAL792 
 PHE793  MET794  SER795  GLU796  ALA797  LYS798  CYS799  TRP800  GLU811  SER814 

> <Gold.Protein.RotatedAtoms>
  151.2636  135.0662  159.9107 H   0  0  0  0  0  0  0  0  0  0  0  0  # atno 6907 bound_to 6896
  152.5362  134.0205  159.7990 H   0  0  0  0  0  0  0  0  0  0  0  0  # atno 6908 bound_to 6896
  151.0432  133.5638  159.2680 H   0  0  0  0  0  0  0  0  0  0  0  0  # atno 6909 bound_to 6896
  145.9734  140.7359  142.9399 H   0  0  0  0  0  0  0  0  0  0  0  0  # atno 7974 bound_to 7965
  156.0223  140.3339  155.7051 H   0  0  0  0  0  0  0  0  0  0  0  0  # atno 8008 bound_to 7997
  155.6005  140.0655  157.2752 H   0  0  0  0  0  0  0  0  0  0  0  0  # atno 8009 bound_to 7997
  154.4320  140.1811  156.1156 H   0  0  0  0  0  0  0  0  0  0  0  0  # atno 8010 bound_to 7997
  140.3428  144.2449  150.6154 H   0  0  0  0  0  0  0  0  0  0  0  0  # atno 10167 bound_to 10162
  156.4117  130.4409  149.7248 H   0  0  0  0  0  0  0  0  0  0  0  0  # atno 10718 bound_to 10713
  153.7844  135.6902  153.4882 H   0  0  0  0  0  0  0  0  0  0  0  0  # atno 10763 bound_to 10752
  153.1790  135.4513  155.0002 H   0  0  0  0  0  0  0  0  0  0  0  0  # atno 10764 bound_to 10752
  154.8069  135.3360  154.7345 H   0  0  0  0  0  0  0  0  0  0  0  0  # atno 10765 bound_to 10752
  140.7477  134.3442  157.5133 H   0  0  0  0  0  0  0  0  0  0  0  0  # atno 11005 bound_to 11000
  144.6842  140.2787  143.7295 LP  0  0  0  0  0  0  0  0  0  0  0  0  # atno 17320 bound_to 7965
  145.7874  139.1914  143.2123 LP  0  0  0  0  0  0  0  0  0  0  0  0  # atno 17321 bound_to 7965
  140.5293  143.2247  151.8264 LP  0  0  0  0  0  0  0  0  0  0  0  0  # atno 17342 bound_to 10162
  139.4838  144.4740  151.9390 LP  0  0  0  0  0  0  0  0  0  0  0  0  # atno 17343 bound_to 10162
  156.4224  130.7775  151.2792 LP  0  0  0  0  0  0  0  0  0  0  0  0  # atno 17370 bound_to 10713
  157.7507  131.0179  150.3603 LP  0  0  0  0  0  0  0  0  0  0  0  0  # atno 17371 bound_to 10713
  139.8793  134.9122  156.3055 LP  0  0  0  0  0  0  0  0  0  0  0  0  # atno 17394 bound_to 11000
  140.9779  133.7286  156.0629 LP  0  0  0  0  0  0  0  0  0  0  0  0  # atno 17395 bound_to 11000

$$$$
