AV-unprocessed.smi:3239|AV-procd|sdf|12379|dock1
  -GOLD-   2272018243D 1   1.00000     0.00000
 Structure written by MMmdl.
 35 35  0  0  0  0  0  0  0  0  1 V2000
  152.1096  144.0251  161.4543 C   0  0  0  0  0  0  0  0  0  0  0  0
  152.4683  143.0218  160.8579 C   0  0  0  0  0  0  0  0  0  0  0  0
  152.8867  141.8004  160.1484 C   0  0  0  0  0  0  0  0  0  0  0  0
  152.0927  141.5422  158.9524 N   0  0  0  0  0  0  0  0  0  0  0  0
  152.3818  140.6266  158.0120 C   0  0  0  0  0  0  0  0  0  0  0  0
  153.3569  139.8772  158.0694 O   0  0  0  0  0  0  0  0  0  0  0  0
  151.3902  140.5116  156.8908 C   0  0  0  0  0  0  0  0  0  0  0  0
  150.0969  141.0735  156.9804 C   0  0  0  0  0  0  0  0  0  0  0  0
  149.2215  140.9546  155.8834 C   0  0  0  0  0  0  0  0  0  0  0  0
  149.6664  140.2837  154.7255 C   0  0  0  0  0  0  0  0  0  0  0  0
  148.7855  140.1664  153.6397 N   0  0  0  0  0  0  0  0  0  0  0  0
  147.4200  139.6745  153.7956 C   0  0  2  0  0  0  0  0  0  0  0  0
  146.8549  139.1837  152.4508 C   0  0  0  0  0  0  0  0  0  0  0  0
  146.5361  140.7717  154.4086 C   0  0  0  0  0  0  0  0  0  0  0  0
  146.5031  141.8926  153.5403 O   0  0  0  0  0  0  0  0  0  0  0  0
  145.7960  142.9888  154.0930 C   0  0  0  0  0  0  0  0  0  0  0  0
  150.9068  139.7501  154.6310 N   0  0  0  0  0  0  0  0  0  0  0  0
  151.7434  139.8696  155.6839 C   0  0  0  0  0  0  0  0  0  0  0  0
  151.7925  144.8987  161.9784 H   0  0  0  0  0  0  0  0  0  0  0  0
  153.9309  141.9204  159.8598 H   0  0  0  0  0  0  0  0  0  0  0  0
  152.8399  140.9596  160.8421 H   0  0  0  0  0  0  0  0  0  0  0  0
  151.2558  142.0946  158.8349 H   0  0  0  0  0  0  0  0  0  0  0  0
  149.7715  141.5938  157.8697 H   0  0  0  0  0  0  0  0  0  0  0  0
  148.2278  141.3755  155.9331 H   0  0  0  0  0  0  0  0  0  0  0  0
  149.1223  140.3572  152.7071 H   0  0  0  0  0  0  0  0  0  0  0  0
  147.4336  138.8402  154.4979 H   0  0  0  0  0  0  0  0  0  0  0  0
  145.8432  138.7946  152.5672 H   0  0  0  0  0  0  0  0  0  0  0  0
  147.4617  138.3819  152.0296 H   0  0  0  0  0  0  0  0  0  0  0  0
  146.8182  139.9906  151.7182 H   0  0  0  0  0  0  0  0  0  0  0  0
  145.5203  140.3968  154.5455 H   0  0  0  0  0  0  0  0  0  0  0  0
  146.9123  141.0616  155.3914 H   0  0  0  0  0  0  0  0  0  0  0  0
  145.7992  143.8194  153.3871 H   0  0  0  0  0  0  0  0  0  0  0  0
  146.2605  143.3320  155.0184 H   0  0  0  0  0  0  0  0  0  0  0  0
  144.7574  142.7260  154.2986 H   0  0  0  0  0  0  0  0  0  0  0  0
  152.7225  139.4319  155.5535 H   0  0  0  0  0  0  0  0  0  0  0  0
  1  2  3  0  0  0  0
  1 19  1  0  0  0  0
  2  3  1  0  0  0  0
  3  4  1  0  0  0  0
  3 20  1  0  0  0  0
  3 21  1  0  0  0  0
  4  5  1  0  0  0  0
  4 22  1  0  0  0  0
  5  6  2  0  0  0  0
  5  7  1  0  0  0  0
  7 18  1  0  0  0  0
  7  8  2  0  0  0  0
  8  9  1  0  0  0  0
  8 23  1  0  0  0  0
  9 10  2  0  0  0  0
  9 24  1  0  0  0  0
 10 11  1  0  0  0  0
 10 17  1  0  0  0  0
 11 12  1  0  0  0  0
 11 25  1  0  0  0  0
 12 13  1  0  0  0  0
 12 14  1  0  0  0  0
 12 26  1  0  0  0  0
 13 27  1  0  0  0  0
 13 28  1  0  0  0  0
 13 29  1  0  0  0  0
 14 15  1  0  0  0  0
 14 30  1  0  0  0  0
 14 31  1  0  0  0  0
 15 16  1  0  0  0  0
 16 32  1  0  0  0  0
 16 33  1  0  0  0  0
 16 34  1  0  0  0  0
 17 18  2  0  0  0  0
 18 35  1  0  0  0  0
M  END
> <s_m_source_file>
AV-unprocessed.smi

> <i_m_source_file_index>
3239

> <i_lp_mmshare_version>
43012

> <i_f3d_flags>
0

> <s_epik_input>
W0NIXSNDW0NIMl1bTkhdQyg9TyljMVtjSF1bY0hdYyhuW2NIXTEpW05IXVtDQEhdKFtDSDNdKVtDSDJdT1tDSDNd

> <s_epik_cmdline>
J2VwaWtfcHl0aG9uJywgJy1waCcsICc3LjAnLCAnLXRuJywgJzgnLCAnLW1hJywgJzIwMCcsICctbWV0YWxfYmluZGluZycsICctaW1hZScsICc8aW5maWxlLm1hZT4nLCAnLW9tYWUnLCAnPG91dGZpbGUubWFlPic=

> <r_lp_tautomer_probability>
1

> <r_epik_Ionization_Penalty>
0.00321854

> <r_epik_Ionization_Penalty_Charging>
0

> <r_epik_Ionization_Penalty_Neutral>
0.00321854

> <r_epik_State_Penalty>
0.00226446

> <r_epik_Charging_Adjusted_Penalty>
0.00226446

> <i_epik_Tot_Q>
0

> <i_epik_Tot_abs_Q>
0

> <r_epik_Metal_State_Penalty>
-0

> <b_epik_Metal_Only>
0

> <s_lp_Force_Field>
OPLS_2005

> <r_lp_Energy>
6.08626

> <b_lp_Chiralities_Consistent>
1

> <s_lp_Variant>
AV-unprocessed.smi:3239-1

> <Gold.Version>
5.8.1

> <Gold.Id.Protein>
6NUR|6NUR_protein|mol2

> <Gold.PLP.Fitness>
44.8376

> <Gold.PLP.PLP>
-37.4658

> <Gold.PLP.part.hbond>
-3.0000

> <Gold.PLP.part.metal>
0.0000

> <Gold.PLP.part.buried>
-2.7164

> <Gold.PLP.part.nonpolar>
-31.3820

> <Gold.PLP.part.repulsive>
0.5503

> <Gold.PLP.ligand.clash>
0.0000

> <Gold.PLP.ligand.torsion>
0.8872

> <Gold.PLP.Chemscore.Hbond>
3.0000

> <Gold.PLP.Chemscore.CHOScore>
0.0000

> <Gold.PLP.Chemscore.Metal>
0.0000

> <Gold.Chemscore.Hbonds>
donor molecule, donor type, donor heavy atom, donor atom, acceptor molecule, acceptor atom, score
      L1  H    11    25       P1  7957  1.00
      P1  H  7989  7998       L1    17  1.00
      P1  H  7997  8010       L1     6  0.99

> <Gold.PLP.Chemscore.Internal.Correction>
0.1462

> <Gold.Rescore>
     Score         DG    S(hbond)    S(metal)    S(lipo)     H(rot)  DE(clash)    DE(int)     intcor
     16.39     -17.45       2.06        0.00      78.88       1.62       0.14       0.93       ----

> <Gold.Chemscore.Fitness>
16.3889

> <Gold.Chemscore.DG>
-17.4526

> <Gold.Chemscore.ZeroCoef>
-5.4800

> <Gold.Chemscore.Hbond>
2.0624

> <Gold.Chemscore.Metal>
0.0000

> <Gold.Chemscore.Lipo>
78.8784

> <Gold.Chemscore.Internal_Hbond>
0.0000

> <Gold.Chemscore.DEClash>
0.1364

> <Gold.Chemscore.DEInternal>
0.9274

> <Gold.Chemscore.Rot>
1.6190

> <Gold.Chemscore.Internal.Correction>
   9.000000E+99

> <Gold.Chemscore.Hbonds>
donor molecule, donor type, donor heavy atom, donor atom, acceptor molecule, acceptor atom, score
      L1  H    11    25       P1  7957  0.99
      P1  H  7989  7998       L1    17  0.08
      P1  H  7997  8010       L1     6  0.85

> <Gold.Chemscore.Hbond.Weighted>
-6.8885

> <Gold.Chemscore.Metal.Weighted>
-0.0000

> <Gold.Chemscore.Lipo.Weighted>
-9.2288

> <Gold.Chemscore.Internal_Hbond.Weighted>
0.0000

> <Gold.Chemscore.DEClash.Weighted>
0.1364

> <Gold.Chemscore.DEInternal.Weighted>
0.9274

> <Gold.Chemscore.Rot.Weighted>
4.1447

> <Gold.Chemscore.Internal.Correction.Weighted>
   9.000000E+99

> <Gold.Protein.RotatedTorsions>
[ 6907 6896 6895 6894 ] final -105.77 input  -60.11 | X-H torsion
[ 7974 7965 7964 7962 ] final  -76.41 input  175.53 | X-H torsion
[ 8008 7997 7996 7995 ] final   49.76 input   59.86 | X-H torsion
[ 10167 10162 10161 10158 ] final -130.39 input  -65.29 | X-H torsion
[ 10718 10713 10712 10709 ] final   35.52 input   66.30 | X-H torsion
[ 10763 10752 10751 10750 ] final -149.58 input  -60.55 | X-H torsion
[ 11005 11000 10999 10996 ] final -155.41 input  -57.11 | X-H torsion

> <Gold.Protein.ActiveResidues>
 VAL166  LYS551  ARG553  GLY616  TRP617  ASP618  TYR619  PRO620  LYS621  CYS622 
 ASP623  PHE694  ASN695  SER759  ASP760  ASP761  ALA762  ILE779  LEU786  VAL792 
 PHE793  MET794  SER795  GLU796  ALA797  LYS798  CYS799  TRP800  GLU811  SER814 

> <Gold.Protein.RotatedAtoms>
  150.7354  134.0077  159.3658 H   0  0  0  0  0  0  0  0  0  0  0  0  # atno 6907 bound_to 6896
  151.8035  135.0700  160.0413 H   0  0  0  0  0  0  0  0  0  0  0  0  # atno 6908 bound_to 6896
  152.3124  133.5730  159.5726 H   0  0  0  0  0  0  0  0  0  0  0  0  # atno 6909 bound_to 6896
  145.6133  140.9381  143.1178 H   0  0  0  0  0  0  0  0  0  0  0  0  # atno 7974 bound_to 7965
  155.4076  140.3441  155.4261 H   0  0  0  0  0  0  0  0  0  0  0  0  # atno 8008 bound_to 7997
  156.1467  140.1558  156.8867 H   0  0  0  0  0  0  0  0  0  0  0  0  # atno 8009 bound_to 7997
  154.5017  140.0813  156.7792 H   0  0  0  0  0  0  0  0  0  0  0  0  # atno 8010 bound_to 7997
  139.9298  143.6285  152.2532 H   0  0  0  0  0  0  0  0  0  0  0  0  # atno 10167 bound_to 10162
  157.3236  130.7461  149.6801 H   0  0  0  0  0  0  0  0  0  0  0  0  # atno 10718 bound_to 10713
  154.8169  135.3305  154.7151 H   0  0  0  0  0  0  0  0  0  0  0  0  # atno 10763 bound_to 10752
  153.7790  135.6920  153.4896 H   0  0  0  0  0  0  0  0  0  0  0  0  # atno 10764 bound_to 10752
  153.1993  135.4522  155.0194 H   0  0  0  0  0  0  0  0  0  0  0  0  # atno 10765 bound_to 10752
  140.6868  134.4085  157.5222 H   0  0  0  0  0  0  0  0  0  0  0  0  # atno 11005 bound_to 11000
  144.7261  139.7872  143.7364 LP  0  0  0  0  0  0  0  0  0  0  0  0  # atno 17320 bound_to 7965
  146.1488  139.4565  143.0062 LP  0  0  0  0  0  0  0  0  0  0  0  0  # atno 17321 bound_to 7965
  139.6792  144.7656  151.1640 LP  0  0  0  0  0  0  0  0  0  0  0  0  # atno 17342 bound_to 10162
  140.7640  143.5750  150.8955 LP  0  0  0  0  0  0  0  0  0  0  0  0  # atno 17343 bound_to 10162
  155.9688  130.4216  150.4475 LP  0  0  0  0  0  0  0  0  0  0  0  0  # atno 17370 bound_to 10713
  157.2495  131.0543  151.2388 LP  0  0  0  0  0  0  0  0  0  0  0  0  # atno 17371 bound_to 10713
  139.8935  134.8729  156.2220 LP  0  0  0  0  0  0  0  0  0  0  0  0  # atno 17394 bound_to 11000
  141.0273  133.7008  156.1370 LP  0  0  0  0  0  0  0  0  0  0  0  0  # atno 17395 bound_to 11000

$$$$
