AV-unprocessed.smi:2188|AV-procd|sdf|8881|dock9
  -GOLD-   2272012 83D 1   1.00000     0.00000
 Structure written by MMmdl.
 40 42  0  0  0  0  0  0  0  0  2 V2000
  154.9661  141.2311  161.4551 O   0  0  0  0  0  0  0  0  0  0  0  0
  154.0177  140.9212  160.7314 C   0  0  0  0  0  0  0  0  0  0  0  0
  153.6445  139.6327  160.5989 N   0  0  0  0  0  0  0  0  0  0  0  0
  154.2620  138.4853  161.2619 C   0  0  0  0  0  0  0  0  0  0  0  0
  153.3644  137.8805  162.3604 C   0  0  0  0  0  0  0  0  0  0  0  0
  154.0550  136.8172  163.1976 C   0  0  0  0  0  0  0  0  0  0  0  0
  154.6603  135.6964  162.5863 C   0  0  0  0  0  0  0  0  0  0  0  0
  155.2571  134.7062  163.3938 C   0  0  0  0  0  0  0  0  0  0  0  0
  155.2370  134.8593  164.7952 C   0  0  0  0  0  0  0  0  0  0  0  0
  154.6536  135.9472  165.3443 N   0  3  0  0  0  0  0  0  0  0  0  0
  154.0736  136.9185  164.6057 C   0  0  0  0  0  0  0  0  0  0  0  0
  153.1893  141.8733  159.9617 C   0  0  0  0  0  0  0  0  0  0  0  0
  153.1682  143.1845  160.3251 C   0  0  0  0  0  0  0  0  0  0  0  0
  152.3663  144.1574  159.6262 C   0  0  0  0  0  0  0  0  0  0  0  0
  151.6607  143.7474  158.5676 C   0  0  0  0  0  0  0  0  0  0  0  0
  151.6679  142.4316  158.1103 N   0  0  0  0  0  0  0  0  0  0  0  0
  150.9457  142.1607  156.8714 C   0  0  0  0  0  0  0  0  0  0  0  0
  150.2081  140.8380  156.9657 C   0  0  0  0  0  0  0  0  0  0  0  0
  151.5011  139.5597  157.1537 S   0  0  0  0  0  0  0  0  0  0  0  0
  150.8441  138.2908  157.5012 O   0  0  0  0  0  0  0  0  0  0  0  0
  152.3790  139.6197  155.9744 O   0  0  0  0  0  0  0  0  0  0  0  0
  152.3265  140.1564  158.4831 N   0  0  0  0  0  0  0  0  0  0  0  0
  152.3846  141.4175  158.8069 C   0  0  0  0  0  0  0  0  0  0  0  0
  152.8660  139.4335  159.9874 H   0  0  0  0  0  0  0  0  0  0  0  0
  154.4616  137.7292  160.5023 H   0  0  0  0  0  0  0  0  0  0  0  0
  155.2340  138.7594  161.6751 H   0  0  0  0  0  0  0  0  0  0  0  0
  153.0019  138.6740  163.0153 H   0  0  0  0  0  0  0  0  0  0  0  0
  152.4784  137.4383  161.9034 H   0  0  0  0  0  0  0  0  0  0  0  0
  154.6560  135.5873  161.5115 H   0  0  0  0  0  0  0  0  0  0  0  0
  155.7181  133.8390  162.9447 H   0  0  0  0  0  0  0  0  0  0  0  0
  155.6647  134.1493  165.4881 H   0  0  0  0  0  0  0  0  0  0  0  0
  153.6281  137.7313  165.1606 H   0  0  0  0  0  0  0  0  0  0  0  0
  153.7581  143.5541  161.1512 H   0  0  0  0  0  0  0  0  0  0  0  0
  152.3331  145.1869  159.9512 H   0  0  0  0  0  0  0  0  0  0  0  0
  151.0392  144.4291  158.0050 H   0  0  0  0  0  0  0  0  0  0  0  0
  150.2235  142.9512  156.6648 H   0  0  0  0  0  0  0  0  0  0  0  0
  151.6489  142.1555  156.0380 H   0  0  0  0  0  0  0  0  0  0  0  0
  149.5336  140.8019  157.8218 H   0  0  0  0  0  0  0  0  0  0  0  0
  149.6362  140.6273  156.0623 H   0  0  0  0  0  0  0  0  0  0  0  0
  154.6457  136.0365  166.3607 H   0  0  0  0  0  0  0  0  0  0  0  0
  1  2  2  0  0  0  0
  2  3  1  0  0  0  0
  2 12  1  0  0  0  0
  3  4  1  0  0  0  0
  3 24  1  0  0  0  0
  4  5  1  0  0  0  0
  4 25  1  0  0  0  0
  4 26  1  0  0  0  0
  5  6  1  0  0  0  0
  5 27  1  0  0  0  0
  5 28  1  0  0  0  0
  6 11  1  0  0  0  0
  6  7  2  0  0  0  0
  7  8  1  0  0  0  0
  7 29  1  0  0  0  0
  8  9  2  0  0  0  0
  8 30  1  0  0  0  0
  9 10  1  0  0  0  0
  9 31  1  0  0  0  0
 10 11  2  0  0  0  0
 10 40  1  0  0  0  0
 11 32  1  0  0  0  0
 12 23  1  0  0  0  0
 12 13  2  0  0  0  0
 13 14  1  0  0  0  0
 13 33  1  0  0  0  0
 14 15  2  0  0  0  0
 14 34  1  0  0  0  0
 15 16  1  0  0  0  0
 15 35  1  0  0  0  0
 16 23  1  0  0  0  0
 16 17  1  0  0  0  0
 17 18  1  0  0  0  0
 17 36  1  0  0  0  0
 17 37  1  0  0  0  0
 18 19  1  0  0  0  0
 18 38  1  0  0  0  0
 18 39  1  0  0  0  0
 19 20  2  0  0  0  0
 19 21  2  0  0  0  0
 19 22  1  0  0  0  0
 22 23  2  0  0  0  0
M  CHG  1  10   1
M  END
> <s_m_source_file>
AV-unprocessed.smi

> <i_m_source_file_index>
2188

> <i_lp_mmshare_version>
43012

> <i_f3d_flags>
0

> <s_epik_input>
W0NIMl0xW0NIMl1TKD1PKSg9TylOPUMoTjEyKUMoPVtDSF1bQ0hdPVtDSF0yKUMoPU8pW05IXVtDSDJdW0NIMl1jM1tjSF1bY0hdW2NIXW5bY0hdMw==

> <s_epik_cmdline>
J2VwaWtfcHl0aG9uJywgJy1waCcsICc3LjAnLCAnLXRuJywgJzgnLCAnLW1hJywgJzIwMCcsICctbWV0YWxfYmluZGluZycsICctaW1hZScsICc8aW5maWxlLm1hZT4nLCAnLW9tYWUnLCAnPG91dGZpbGUubWFlPic=

> <r_epik_Ionization_Penalty>
2.45954

> <r_epik_Ionization_Penalty_Charging>
2.45946

> <r_epik_Ionization_Penalty_Neutral>
8.13788e-05

> <r_epik_State_Penalty>
2.62155

> <r_epik_Charging_Adjusted_Penalty>
5.08101

> <i_epik_Tot_Q>
1

> <i_epik_Tot_abs_Q>
1

> <r_epik_Metal_State_Penalty>
2.74793

> <b_epik_Metal_Only>
0

> <s_lp_Force_Field>
OPLS_2005

> <r_lp_Energy>
33.7727

> <b_lp_Chiralities_Consistent>
1

> <s_lp_Variant>
AV-unprocessed.smi:2188-2

> <Gold.Version>
5.8.1

> <Gold.Id.Protein>
6NUR|6NUR_protein|mol2

> <Gold.PLP.Fitness>
49.4771

> <Gold.PLP.PLP>
-46.9910

> <Gold.PLP.part.hbond>
-3.0000

> <Gold.PLP.part.metal>
0.0000

> <Gold.PLP.part.buried>
-6.2318

> <Gold.PLP.part.nonpolar>
-37.7162

> <Gold.PLP.part.repulsive>
0.1514

> <Gold.PLP.ligand.clash>
0.0000

> <Gold.PLP.ligand.torsion>
0.2965

> <Gold.PLP.Chemscore.Hbond>
1.0000

> <Gold.PLP.Chemscore.CHOScore>
0.0000

> <Gold.PLP.Chemscore.Metal>
0.0000

> <Gold.Chemscore.Hbonds>
donor molecule, donor type, donor heavy atom, donor atom, acceptor molecule, acceptor atom, score
      P1  H  7997  8009       L1    21  0.86

> <Gold.PLP.Chemscore.Internal.Correction>
0.0790

> <Gold.Rescore>
     Score         DG    S(hbond)    S(metal)    S(lipo)     H(rot)  DE(clash)    DE(int)     intcor
     14.50     -17.05       0.98        0.00     104.41       1.54       0.40       2.15       ----

> <Gold.Chemscore.Fitness>
14.5009

> <Gold.Chemscore.DG>
-17.0520

> <Gold.Chemscore.ZeroCoef>
-5.4800

> <Gold.Chemscore.Hbond>
0.9841

> <Gold.Chemscore.Metal>
0.0000

> <Gold.Chemscore.Lipo>
104.4103

> <Gold.Chemscore.Internal_Hbond>
0.0000

> <Gold.Chemscore.DEClash>
0.4032

> <Gold.Chemscore.DEInternal>
2.1478

> <Gold.Chemscore.Rot>
1.5355

> <Gold.Chemscore.Internal.Correction>
   9.000000E+99

> <Gold.Chemscore.Hbonds>
donor molecule, donor type, donor heavy atom, donor atom, acceptor molecule, acceptor atom, score
      P1  H  7997  8009       L1    21  0.68

> <Gold.Chemscore.Hbond.Weighted>
-3.2869

> <Gold.Chemscore.Metal.Weighted>
-0.0000

> <Gold.Chemscore.Lipo.Weighted>
-12.2160

> <Gold.Chemscore.Internal_Hbond.Weighted>
0.0000

> <Gold.Chemscore.DEClash.Weighted>
0.4032

> <Gold.Chemscore.DEInternal.Weighted>
2.1478

> <Gold.Chemscore.Rot.Weighted>
3.9309

> <Gold.Chemscore.Internal.Correction.Weighted>
   9.000000E+99

> <Gold.Protein.RotatedTorsions>
[ 6907 6896 6895 6894 ] final  -81.07 input  -60.11 | X-H torsion
[ 7974 7965 7964 7962 ] final  -65.88 input  175.53 | X-H torsion
[ 8008 7997 7996 7995 ] final -171.73 input   59.86 | X-H torsion
[ 10167 10162 10161 10158 ] final  146.49 input  -65.29 | X-H torsion
[ 10718 10713 10712 10709 ] final   81.48 input   66.30 | X-H torsion
[ 10763 10752 10751 10750 ] final  -79.34 input  -60.55 | X-H torsion
[ 11005 11000 10999 10996 ] final  -92.48 input  -57.11 | X-H torsion

> <Gold.Protein.ActiveResidues>
 VAL166  LYS551  ARG553  GLY616  TRP617  ASP618  TYR619  PRO620  LYS621  CYS622 
 ASP623  PHE694  ASN695  SER759  ASP760  ASP761  ALA762  ILE779  LEU786  VAL792 
 PHE793  MET794  SER795  GLU796  ALA797  LYS798  CYS799  TRP800  GLU811  SER814 

> <Gold.Protein.RotatedAtoms>
  150.6918  134.3873  159.5060 H   0  0  0  0  0  0  0  0  0  0  0  0  # atno 6907 bound_to 6896
  152.1667  134.8865  160.0547 H   0  0  0  0  0  0  0  0  0  0  0  0  # atno 6908 bound_to 6896
  151.9907  133.3755  159.4180 H   0  0  0  0  0  0  0  0  0  0  0  0  # atno 6909 bound_to 6896
  145.7488  140.8918  143.0491 H   0  0  0  0  0  0  0  0  0  0  0  0  # atno 7974 bound_to 7965
  155.9354  140.1099  157.1099 H   0  0  0  0  0  0  0  0  0  0  0  0  # atno 8008 bound_to 7997
  154.4079  140.1229  156.4923 H   0  0  0  0  0  0  0  0  0  0  0  0  # atno 8009 bound_to 7997
  155.7028  140.3471  155.4942 H   0  0  0  0  0  0  0  0  0  0  0  0  # atno 8010 bound_to 7997
  139.4906  144.5826  151.6842 H   0  0  0  0  0  0  0  0  0  0  0  0  # atno 10167 bound_to 10162
  157.6834  131.0005  150.2232 H   0  0  0  0  0  0  0  0  0  0  0  0  # atno 10718 bound_to 10713
  154.5374  135.5699  153.6810 H   0  0  0  0  0  0  0  0  0  0  0  0  # atno 10763 bound_to 10752
  152.9954  135.6219  154.2547 H   0  0  0  0  0  0  0  0  0  0  0  0  # atno 10764 bound_to 10752
  154.2477  135.2860  155.2809 H   0  0  0  0  0  0  0  0  0  0  0  0  # atno 10765 bound_to 10752
  141.1521  133.7824  157.0026 H   0  0  0  0  0  0  0  0  0  0  0  0  # atno 11005 bound_to 11000
  144.6854  139.9562  143.7479 LP  0  0  0  0  0  0  0  0  0  0  0  0  # atno 17320 bound_to 7965
  146.0377  139.3392  143.0716 LP  0  0  0  0  0  0  0  0  0  0  0  0  # atno 17321 bound_to 7965
  140.5435  144.0541  150.6098 LP  0  0  0  0  0  0  0  0  0  0  0  0  # atno 17342 bound_to 10162
  140.3571  143.2929  152.0424 LP  0  0  0  0  0  0  0  0  0  0  0  0  # atno 17343 bound_to 10162
  156.2880  130.3742  149.7870 LP  0  0  0  0  0  0  0  0  0  0  0  0  # atno 17370 bound_to 10713
  156.5538  130.8353  151.3308 LP  0  0  0  0  0  0  0  0  0  0  0  0  # atno 17371 bound_to 10713
  140.0930  134.9581  157.1805 LP  0  0  0  0  0  0  0  0  0  0  0  0  # atno 17394 bound_to 11000
  140.3420  134.2693  155.7210 LP  0  0  0  0  0  0  0  0  0  0  0  0  # atno 17395 bound_to 11000

$$$$
