AV-unprocessed.smi:2814|AV-procd|sdf|10840|dock7
  -GOLD-   2272015283D 1   1.00000     0.00000
 Structure written by MMmdl.
 38 39  0  0  0  0  0  0  0  0  2 V2000
  150.8688  141.0836  155.8347 C   0  0  0  0  0  0  0  0  0  0  0  0
  149.5979  140.8886  155.0349 C   0  0  0  0  0  0  0  0  0  0  0  0
  149.2286  139.6355  154.5004 C   0  0  0  0  0  0  0  0  0  0  0  0
  148.0223  139.5212  153.7633 C   0  0  0  0  0  0  0  0  0  0  0  0
  147.5714  138.3111  153.1701 N   0  0  0  0  0  0  0  0  0  0  0  0
  146.3169  137.8343  153.0998 C   0  0  0  0  0  0  0  0  0  0  0  0
  145.3157  138.4066  153.5300 O   0  0  0  0  0  0  0  0  0  0  0  0
  146.2853  136.6460  152.4803 N   0  0  0  0  0  0  0  0  0  0  0  0
  145.0895  135.8432  152.2304 C   0  0  0  0  0  0  0  0  0  0  0  0
  145.2668  134.8745  151.0394 C   0  0  0  0  0  0  0  0  0  0  0  0
  145.3056  135.6416  149.8488 O   0  0  0  0  0  0  0  0  0  0  0  0
  146.5029  133.9656  151.1049 C   0  0  0  0  0  0  0  0  0  0  0  0
  146.1885  132.7672  150.2006 C   0  0  0  0  0  0  0  0  0  0  0  0
  144.6589  132.7118  150.0696 C   0  0  0  0  0  0  0  0  0  0  0  0
  144.1104  133.8746  150.9072 C   0  0  0  0  0  0  0  0  0  0  0  0
  147.2398  140.6798  153.5643 C   0  0  0  0  0  0  0  0  0  0  0  0
  147.6576  141.9045  154.1225 C   0  0  0  0  0  0  0  0  0  0  0  0
  148.8052  141.9638  154.8311 N   0  3  0  0  0  0  0  0  0  0  0  0
  151.4208  140.1481  155.9305 H   0  0  0  0  0  0  0  0  0  0  0  0
  150.6358  141.4451  156.8367 H   0  0  0  0  0  0  0  0  0  0  0  0
  151.5169  141.8124  155.3471 H   0  0  0  0  0  0  0  0  0  0  0  0
  149.8798  138.7881  154.6523 H   0  0  0  0  0  0  0  0  0  0  0  0
  148.2773  137.7717  152.6905 H   0  0  0  0  0  0  0  0  0  0  0  0
  147.1591  136.2523  152.1633 H   0  0  0  0  0  0  0  0  0  0  0  0
  144.8232  135.2851  153.1297 H   0  0  0  0  0  0  0  0  0  0  0  0
  144.2536  136.5185  152.0439 H   0  0  0  0  0  0  0  0  0  0  0  0
  145.4954  135.0622  149.1267 H   0  0  0  0  0  0  0  0  0  0  0  0
  147.4249  134.4744  150.8207 H   0  0  0  0  0  0  0  0  0  0  0  0
  146.6338  133.6051  152.1260 H   0  0  0  0  0  0  0  0  0  0  0  0
  146.6378  132.9110  149.2172 H   0  0  0  0  0  0  0  0  0  0  0  0
  146.5959  131.8431  150.6116 H   0  0  0  0  0  0  0  0  0  0  0  0
  144.3743  132.8352  149.0239 H   0  0  0  0  0  0  0  0  0  0  0  0
  144.2554  131.7559  150.4051 H   0  0  0  0  0  0  0  0  0  0  0  0
  143.8396  133.4957  151.8939 H   0  0  0  0  0  0  0  0  0  0  0  0
  143.2098  134.3146  150.4761 H   0  0  0  0  0  0  0  0  0  0  0  0
  146.3224  140.6328  152.9953 H   0  0  0  0  0  0  0  0  0  0  0  0
  147.1130  142.8320  154.0225 H   0  0  0  0  0  0  0  0  0  0  0  0
  149.0894  142.8610  155.2254 H   0  0  0  0  0  0  0  0  0  0  0  0
  1  2  1  0  0  0  0
  1 19  1  0  0  0  0
  1 20  1  0  0  0  0
  1 21  1  0  0  0  0
  2 18  1  0  0  0  0
  2  3  2  0  0  0  0
  3  4  1  0  0  0  0
  3 22  1  0  0  0  0
  4  5  1  0  0  0  0
  4 16  2  0  0  0  0
  5  6  1  0  0  0  0
  5 23  1  0  0  0  0
  6  7  2  0  0  0  0
  6  8  1  0  0  0  0
  8  9  1  0  0  0  0
  8 24  1  0  0  0  0
  9 10  1  0  0  0  0
  9 25  1  0  0  0  0
  9 26  1  0  0  0  0
 10 15  1  0  0  0  0
 10 11  1  0  0  0  0
 10 12  1  0  0  0  0
 11 27  1  0  0  0  0
 12 13  1  0  0  0  0
 12 28  1  0  0  0  0
 12 29  1  0  0  0  0
 13 14  1  0  0  0  0
 13 30  1  0  0  0  0
 13 31  1  0  0  0  0
 14 15  1  0  0  0  0
 14 32  1  0  0  0  0
 14 33  1  0  0  0  0
 15 34  1  0  0  0  0
 15 35  1  0  0  0  0
 16 17  1  0  0  0  0
 16 36  1  0  0  0  0
 17 18  2  0  0  0  0
 17 37  1  0  0  0  0
 18 38  1  0  0  0  0
M  CHG  1  18   1
M  END
> <s_m_source_file>
AV-unprocessed.smi

> <i_m_source_file_index>
2814

> <i_lp_mmshare_version>
43012

> <i_f3d_flags>
0

> <s_epik_input>
W0NIM11jMVtjSF1jKFtjSF1bY0hdbjEpW05IXUMoPU8pW05IXVtDSDJdQzIoW09IXSlbQ0gyXVtDSDJdW0NIMl1bQ0gyXTI=

> <s_epik_cmdline>
J2VwaWtfcHl0aG9uJywgJy1waCcsICc3LjAnLCAnLXRuJywgJzgnLCAnLW1hJywgJzIwMCcsICctbWV0YWxfYmluZGluZycsICctaW1hZScsICc8aW5maWxlLm1hZT4nLCAnLW9tYWUnLCAnPG91dGZpbGUubWFlPic=

> <r_epik_Ionization_Penalty>
0.41638

> <r_epik_Ionization_Penalty_Charging>
0.416357

> <r_epik_Ionization_Penalty_Neutral>
2.25049e-05

> <r_epik_State_Penalty>
0.41674

> <r_epik_Charging_Adjusted_Penalty>
0.833097

> <i_epik_Tot_Q>
1

> <i_epik_Tot_abs_Q>
1

> <r_epik_Metal_State_Penalty>
0.654825

> <b_epik_Metal_Only>
0

> <s_lp_Force_Field>
OPLS_2005

> <r_lp_Energy>
34.0796

> <b_lp_Chiralities_Consistent>
1

> <s_lp_Variant>
AV-unprocessed.smi:2814-2

> <Gold.Version>
5.8.1

> <Gold.Id.Protein>
6NUR|6NUR_protein|mol2

> <Gold.PLP.Fitness>
49.2806

> <Gold.PLP.PLP>
-35.3907

> <Gold.PLP.part.hbond>
-4.1595

> <Gold.PLP.part.metal>
0.0000

> <Gold.PLP.part.buried>
-5.6770

> <Gold.PLP.part.nonpolar>
-27.7744

> <Gold.PLP.part.repulsive>
2.4430

> <Gold.PLP.ligand.clash>
0.0000

> <Gold.PLP.ligand.torsion>
0.5452

> <Gold.PLP.Chemscore.Hbond>
4.9920

> <Gold.PLP.Chemscore.CHOScore>
0.0000

> <Gold.PLP.Chemscore.Metal>
0.0000

> <Gold.Chemscore.Hbonds>
donor molecule, donor type, donor heavy atom, donor atom, acceptor molecule, acceptor atom, score
      L1  H     5    23       P1  7948  1.00
      L1  H     8    24       P1  7948  1.00
      L1  H    11    27       P1  7921  0.98
      L1  H    18    38       P1  8028  2.00

> <Gold.PLP.Chemscore.Internal.Correction>
0.0042

> <Gold.Rescore>
     Score         DG    S(hbond)    S(metal)    S(lipo)     H(rot)  DE(clash)    DE(int)     intcor
     20.66     -23.65       3.91        0.00      81.66       1.74       1.30       1.68       ----

> <Gold.Chemscore.Fitness>
20.6602

> <Gold.Chemscore.DG>
-23.6458

> <Gold.Chemscore.ZeroCoef>
-5.4800

> <Gold.Chemscore.Hbond>
3.9104

> <Gold.Chemscore.Metal>
0.0000

> <Gold.Chemscore.Lipo>
81.6647

> <Gold.Chemscore.Internal_Hbond>
0.0000

> <Gold.Chemscore.DEClash>
1.3022

> <Gold.Chemscore.DEInternal>
1.6834

> <Gold.Chemscore.Rot>
1.7382

> <Gold.Chemscore.Internal.Correction>
   9.000000E+99

> <Gold.Chemscore.Hbonds>
donor molecule, donor type, donor heavy atom, donor atom, acceptor molecule, acceptor atom, score
      L1  H     5    23       P1  7948  0.98
      L1  H     8    24       P1  7948  0.99
      L1  H    11    27       P1  7921  0.93
      L1  H    18    38       P1  8028  0.98

> <Gold.Chemscore.Hbond.Weighted>
-13.0608

> <Gold.Chemscore.Metal.Weighted>
-0.0000

> <Gold.Chemscore.Lipo.Weighted>
-9.5548

> <Gold.Chemscore.Internal_Hbond.Weighted>
0.0000

> <Gold.Chemscore.DEClash.Weighted>
1.3022

> <Gold.Chemscore.DEInternal.Weighted>
1.6834

> <Gold.Chemscore.Rot.Weighted>
4.4497

> <Gold.Chemscore.Internal.Correction.Weighted>
   9.000000E+99

> <Gold.Protein.RotatedTorsions>
[ 6907 6896 6895 6894 ] final   56.13 input  -60.11 | X-H torsion
[ 7974 7965 7964 7962 ] final  107.86 input  175.53 | X-H torsion
[ 8008 7997 7996 7995 ] final   98.26 input   59.86 | X-H torsion
[ 10167 10162 10161 10158 ] final   18.44 input  -65.29 | X-H torsion
[ 10718 10713 10712 10709 ] final  -31.94 input   66.30 | X-H torsion
[ 10763 10752 10751 10750 ] final   11.19 input  -60.55 | X-H torsion
[ 11005 11000 10999 10996 ] final  -50.40 input  -57.11 | X-H torsion

> <Gold.Protein.ActiveResidues>
 VAL166  LYS551  ARG553  GLY616  TRP617  ASP618  TYR619  PRO620  LYS621  CYS622 
 ASP623  PHE694  ASN695  SER759  ASP760  ASP761  ALA762  ILE779  LEU786  VAL792 
 PHE793  MET794  SER795  GLU796  ALA797  LYS798  CYS799  TRP800  GLU811  SER814 

> <Gold.Protein.RotatedAtoms>
  152.3607  134.6877  160.0207 H   0  0  0  0  0  0  0  0  0  0  0  0  # atno 6907 bound_to 6896
  151.7201  133.3309  159.3321 H   0  0  0  0  0  0  0  0  0  0  0  0  # atno 6908 bound_to 6896
  150.7602  134.6390  159.6271 H   0  0  0  0  0  0  0  0  0  0  0  0  # atno 6909 bound_to 6896
  145.2882  139.2609  143.3879 H   0  0  0  0  0  0  0  0  0  0  0  0  # atno 7974 bound_to 7965
  156.0986  140.3246  155.7911 H   0  0  0  0  0  0  0  0  0  0  0  0  # atno 8008 bound_to 7997
  155.4875  140.0559  157.2975 H   0  0  0  0  0  0  0  0  0  0  0  0  # atno 8009 bound_to 7997
  154.4682  140.1999  156.0078 H   0  0  0  0  0  0  0  0  0  0  0  0  # atno 8010 bound_to 7997
  140.5653  143.9262  150.6672 H   0  0  0  0  0  0  0  0  0  0  0  0  # atno 10167 bound_to 10162
  156.3810  130.4356  149.7469 H   0  0  0  0  0  0  0  0  0  0  0  0  # atno 10718 bound_to 10713
  153.1952  135.6848  153.8301 H   0  0  0  0  0  0  0  0  0  0  0  0  # atno 10763 bound_to 10752
  153.7586  135.3213  155.3334 H   0  0  0  0  0  0  0  0  0  0  0  0  # atno 10764 bound_to 10752
  154.8140  135.4698  154.0693 H   0  0  0  0  0  0  0  0  0  0  0  0  # atno 10765 bound_to 10752
  141.0813  133.6652  156.3725 H   0  0  0  0  0  0  0  0  0  0  0  0  # atno 11005 bound_to 11000
  146.3194  140.3366  142.8644 LP  0  0  0  0  0  0  0  0  0  0  0  0  # atno 17320 bound_to 7965
  144.9195  140.7852  143.5757 LP  0  0  0  0  0  0  0  0  0  0  0  0  # atno 17321 bound_to 7965
  140.2723  143.3447  152.1226 LP  0  0  0  0  0  0  0  0  0  0  0  0  # atno 17342 bound_to 10162
  139.5090  144.6859  151.5888 LP  0  0  0  0  0  0  0  0  0  0  0  0  # atno 17343 bound_to 10162
  156.4559  130.7929  151.2950 LP  0  0  0  0  0  0  0  0  0  0  0  0  # atno 17370 bound_to 10713
  157.7492  131.0081  150.3214 LP  0  0  0  0  0  0  0  0  0  0  0  0  # atno 17371 bound_to 10713
  140.5461  134.6073  157.5394 LP  0  0  0  0  0  0  0  0  0  0  0  0  # atno 17394 bound_to 11000
  139.9628  134.7424  156.0202 LP  0  0  0  0  0  0  0  0  0  0  0  0  # atno 17395 bound_to 11000

$$$$
