AV-unprocessed.smi:1006|AV-procd|sdf|4393|dock8
  -GOLD-   22720 2323D 1   1.00000     0.00000
 Structure written by MMmdl.
 46 48  0  0  0  0  0  0  0  0  2 V2000
  146.2527  133.9634  151.0504 C   0  0  0  0  0  0  0  0  0  0  0  0
  146.3709  134.1067  152.5530 C   0  0  0  0  0  0  0  0  0  0  0  0
  145.6703  133.2618  153.4383 C   0  0  0  0  0  0  0  0  0  0  0  0
  145.8563  133.4898  154.8129 C   0  0  0  0  0  0  0  0  0  0  0  0
  145.2115  132.7056  155.7659 N   0  0  0  0  0  0  0  0  0  0  0  0
  146.6631  134.4712  155.2588 N   0  0  0  0  0  0  0  0  0  0  0  0
  147.2991  135.2405  154.3648 C   0  0  0  0  0  0  0  0  0  0  0  0
  148.3773  136.5453  154.9355 S   0  0  0  0  0  0  0  0  0  0  0  0
  149.7861  135.6053  155.5982 C   0  0  0  0  0  0  0  0  0  0  0  0
  150.9346  136.5025  156.0954 C   0  0  1  0  0  0  0  0  0  0  0  0
  151.9949  135.6914  156.5584 O   0  0  0  0  0  0  0  0  0  0  0  0
  151.4971  137.4373  155.0041 C   0  0  0  0  0  0  0  0  0  0  0  0
  151.0611  138.8138  155.1615 N   0  0  0  0  0  0  0  0  0  0  0  0
  150.2768  139.5153  154.3210 C   0  0  0  0  0  0  0  0  0  0  0  0
  150.0112  140.7772  154.6463 N   0  0  0  0  0  0  0  0  0  0  0  0
  150.7031  140.9104  155.8380 C   0  0  0  0  0  0  0  0  0  0  0  0
  150.8436  142.0214  156.6982 C   0  0  0  0  0  0  0  0  0  0  0  0
  151.6214  141.9341  157.8749 C   0  0  0  0  0  0  0  0  0  0  0  0
  151.7505  143.1559  158.7671 C   0  0  0  0  0  0  0  0  0  0  0  0
  152.2708  140.7185  158.2088 C   0  0  0  0  0  0  0  0  0  0  0  0
  153.1169  140.6018  159.4640 C   0  0  0  0  0  0  0  0  0  0  0  0
  152.1338  139.5966  157.3652 C   0  0  0  0  0  0  0  0  0  0  0  0
  151.3637  139.6982  156.1928 C   0  0  0  0  0  0  0  0  0  0  0  0
  147.1757  135.0855  153.0389 N   0  3  0  0  0  0  0  0  0  0  0  0
  146.0432  132.9290  150.7763 H   0  0  0  0  0  0  0  0  0  0  0  0
  147.1766  134.2639  150.5547 H   0  0  0  0  0  0  0  0  0  0  0  0
  145.4421  134.5888  150.6756 H   0  0  0  0  0  0  0  0  0  0  0  0
  145.0227  132.4760  153.0761 H   0  0  0  0  0  0  0  0  0  0  0  0
  144.5928  131.9518  155.5033 H   0  0  0  0  0  0  0  0  0  0  0  0
  145.3717  132.8419  156.7541 H   0  0  0  0  0  0  0  0  0  0  0  0
  149.4374  134.9622  156.4070 H   0  0  0  0  0  0  0  0  0  0  0  0
  150.1442  134.9590  154.7975 H   0  0  0  0  0  0  0  0  0  0  0  0
  150.5820  137.1048  156.9336 H   0  0  0  0  0  0  0  0  0  0  0  0
  151.6836  134.8019  156.6300 H   0  0  0  0  0  0  0  0  0  0  0  0
  152.5878  137.4188  155.0165 H   0  0  0  0  0  0  0  0  0  0  0  0
  151.1931  137.0932  154.0145 H   0  0  0  0  0  0  0  0  0  0  0  0
  149.8842  139.0762  153.4153 H   0  0  0  0  0  0  0  0  0  0  0  0
  150.3506  142.9478  156.4423 H   0  0  0  0  0  0  0  0  0  0  0  0
  151.4066  142.9312  159.7770 H   0  0  0  0  0  0  0  0  0  0  0  0
  151.1561  143.9891  158.3906 H   0  0  0  0  0  0  0  0  0  0  0  0
  152.7894  143.4823  158.8186 H   0  0  0  0  0  0  0  0  0  0  0  0
  153.5890  139.6214  159.5359 H   0  0  0  0  0  0  0  0  0  0  0  0
  152.5014  140.7444  160.3524 H   0  0  0  0  0  0  0  0  0  0  0  0
  153.9071  141.3530  159.4656 H   0  0  0  0  0  0  0  0  0  0  0  0
  152.6234  138.6651  157.6077 H   0  0  0  0  0  0  0  0  0  0  0  0
  147.6804  135.6947  152.3947 H   0  0  0  0  0  0  0  0  0  0  0  0
  1  2  1  0  0  0  0
  1 25  1  0  0  0  0
  1 26  1  0  0  0  0
  1 27  1  0  0  0  0
  2 24  1  0  0  0  0
  2  3  2  0  0  0  0
  3  4  1  0  0  0  0
  3 28  1  0  0  0  0
  4  5  1  0  0  0  0
  4  6  2  0  0  0  0
  5 29  1  0  0  0  0
  5 30  1  0  0  0  0
  6  7  1  0  0  0  0
  7  8  1  0  0  0  0
  7 24  2  0  0  0  0
  8  9  1  0  0  0  0
  9 10  1  0  0  0  0
  9 31  1  0  0  0  0
  9 32  1  0  0  0  0
 10 11  1  0  0  0  0
 10 12  1  0  0  0  0
 10 33  1  0  0  0  0
 11 34  1  0  0  0  0
 12 13  1  0  0  0  0
 12 35  1  0  0  0  0
 12 36  1  0  0  0  0
 13 23  1  0  0  0  0
 13 14  1  0  0  0  0
 14 15  2  0  0  0  0
 14 37  1  0  0  0  0
 15 16  1  0  0  0  0
 16 23  2  0  0  0  0
 16 17  1  0  0  0  0
 17 18  2  0  0  0  0
 17 38  1  0  0  0  0
 18 19  1  0  0  0  0
 18 20  1  0  0  0  0
 19 39  1  0  0  0  0
 19 40  1  0  0  0  0
 19 41  1  0  0  0  0
 20 21  1  0  0  0  0
 20 22  2  0  0  0  0
 21 42  1  0  0  0  0
 21 43  1  0  0  0  0
 21 44  1  0  0  0  0
 22 23  1  0  0  0  0
 22 45  1  0  0  0  0
 24 46  1  0  0  0  0
M  CHG  1  24   1
M  END
> <s_m_source_file>
AV-unprocessed.smi

> <i_m_source_file_index>
1006

> <i_lp_mmshare_version>
43012

> <i_f3d_flags>
0

> <s_epik_input>
W0NIM11jMVtjSF1jKFtOSDJdKW5jKG4xKVNbQ0gyXVtDQEhdKFtPSF0pW0NIMl1uKFtjSF1uMiljKGMyMylbY0hdYyhbQ0gzXSljKFtjSF0zKVtDSDNd

> <s_epik_cmdline>
J2VwaWtfcHl0aG9uJywgJy1waCcsICc3LjAnLCAnLXRuJywgJzgnLCAnLW1hJywgJzIwMCcsICctbWV0YWxfYmluZGluZycsICctaW1hZScsICc8aW5maWxlLm1hZT4nLCAnLW9tYWUnLCAnPG91dGZpbGUubWFlPic=

> <r_lp_tautomer_probability>
0.999762

> <r_epik_Ionization_Penalty>
0.549885

> <r_epik_Ionization_Penalty_Charging>
0.440405

> <r_epik_Ionization_Penalty_Neutral>
0.10948

> <r_epik_State_Penalty>
0.546419

> <r_epik_Charging_Adjusted_Penalty>
0.986823

> <i_epik_Tot_Q>
1

> <i_epik_Tot_abs_Q>
1

> <r_epik_Metal_State_Penalty>
0.699827

> <b_epik_Metal_Only>
0

> <s_lp_Force_Field>
OPLS_2005

> <r_lp_Energy>
7.78967

> <b_lp_Chiralities_Consistent>
1

> <s_lp_Variant>
AV-unprocessed.smi:1006-4

> <Gold.Version>
5.8.1

> <Gold.Id.Protein>
6NUR|6NUR_protein|mol2

> <Gold.PLP.Fitness>
49.8999

> <Gold.PLP.PLP>
-36.7387

> <Gold.PLP.part.hbond>
-3.7714

> <Gold.PLP.part.metal>
0.0000

> <Gold.PLP.part.buried>
-3.0873

> <Gold.PLP.part.nonpolar>
-29.7009

> <Gold.PLP.part.repulsive>
0.1398

> <Gold.PLP.ligand.clash>
0.0000

> <Gold.PLP.ligand.torsion>
0.7878

> <Gold.PLP.Chemscore.Hbond>
3.8960

> <Gold.PLP.Chemscore.CHOScore>
1.0000

> <Gold.PLP.Chemscore.Metal>
0.0000

> <Gold.Chemscore.Hbonds>
donor molecule, donor type, donor heavy atom, donor atom, acceptor molecule, acceptor atom, score
      L1  H     5    29       P1 10957  0.77
      L1  H    24    46       P1  7948  1.66
      P1  H 10752 10765       L1    11  0.90
      L1  C    14    37       P1  7957  1.00

> <Gold.PLP.Chemscore.Internal.Correction>
0.0488

> <Gold.Rescore>
     Score         DG    S(hbond)    S(metal)    S(lipo)     H(rot)  DE(clash)    DE(int)     intcor
     15.40     -16.20       2.42        0.00      85.88       2.89       0.02       0.78       ----

> <Gold.Chemscore.Fitness>
15.3984

> <Gold.Chemscore.DG>
-16.2020

> <Gold.Chemscore.ZeroCoef>
-5.4800

> <Gold.Chemscore.Hbond>
2.4169

> <Gold.Chemscore.Metal>
0.0000

> <Gold.Chemscore.Lipo>
85.8802

> <Gold.Chemscore.Internal_Hbond>
0.0000

> <Gold.Chemscore.DEClash>
0.0250

> <Gold.Chemscore.DEInternal>
0.7786

> <Gold.Chemscore.Rot>
2.8901

> <Gold.Chemscore.Internal.Correction>
   9.000000E+99

> <Gold.Chemscore.Hbonds>
donor molecule, donor type, donor heavy atom, donor atom, acceptor molecule, acceptor atom, score
      L1  H     5    29       P1 10957  0.43
      L1  H    24    46       P1  7948  0.78
      P1  H 10752 10765       L1    11  0.09

> <Gold.Chemscore.Hbond.Weighted>
-8.0726

> <Gold.Chemscore.Metal.Weighted>
-0.0000

> <Gold.Chemscore.Lipo.Weighted>
-10.0480

> <Gold.Chemscore.Internal_Hbond.Weighted>
0.0000

> <Gold.Chemscore.DEClash.Weighted>
0.0250

> <Gold.Chemscore.DEInternal.Weighted>
0.7786

> <Gold.Chemscore.Rot.Weighted>
7.3986

> <Gold.Chemscore.Internal.Correction.Weighted>
   9.000000E+99

> <Gold.Protein.RotatedTorsions>
[ 6907 6896 6895 6894 ] final   67.63 input  -60.11 | X-H torsion
[ 7974 7965 7964 7962 ] final -160.96 input  175.53 | X-H torsion
[ 8008 7997 7996 7995 ] final  -61.44 input   59.86 | X-H torsion
[ 10167 10162 10161 10158 ] final   85.75 input  -65.29 | X-H torsion
[ 10718 10713 10712 10709 ] final  -63.63 input   66.30 | X-H torsion
[ 10763 10752 10751 10750 ] final -150.96 input  -60.55 | X-H torsion
[ 11005 11000 10999 10996 ] final  147.97 input  -57.11 | X-H torsion

> <Gold.Protein.ActiveResidues>
 VAL166  LYS551  ARG553  GLY616  TRP617  ASP618  TYR619  PRO620  LYS621  CYS622 
 ASP623  PHE694  ASN695  SER759  ASP760  ASP761  ALA762  ILE779  LEU786  VAL792 
 PHE793  MET794  SER795  GLU796  ALA797  LYS798  CYS799  TRP800  GLU811  SER814 

> <Gold.Protein.RotatedAtoms>
  152.4565  134.5280  159.9802 H   0  0  0  0  0  0  0  0  0  0  0  0  # atno 6907 bound_to 6896
  151.5340  133.3438  159.2931 H   0  0  0  0  0  0  0  0  0  0  0  0  # atno 6908 bound_to 6896
  150.8511  134.7866  159.7072 H   0  0  0  0  0  0  0  0  0  0  0  0  # atno 6909 bound_to 6896
  144.7408  140.3467  143.6124 H   0  0  0  0  0  0  0  0  0  0  0  0  # atno 7974 bound_to 7965
  154.4448  140.1017  156.6432 H   0  0  0  0  0  0  0  0  0  0  0  0  # atno 8008 bound_to 7997
  155.5479  140.3485  155.4443 H   0  0  0  0  0  0  0  0  0  0  0  0  # atno 8009 bound_to 7997
  156.0550  140.1313  156.9996 H   0  0  0  0  0  0  0  0  0  0  0  0  # atno 8010 bound_to 7997
  139.8946  144.6365  150.8702 H   0  0  0  0  0  0  0  0  0  0  0  0  # atno 10167 bound_to 10162
  156.0779  130.4223  150.1305 H   0  0  0  0  0  0  0  0  0  0  0  0  # atno 10718 bound_to 10713
  154.8087  135.3271  154.7363 H   0  0  0  0  0  0  0  0  0  0  0  0  # atno 10763 bound_to 10752
  153.8016  135.6903  153.4859 H   0  0  0  0  0  0  0  0  0  0  0  0  # atno 10764 bound_to 10752
  153.1850  135.4572  155.0023 H   0  0  0  0  0  0  0  0  0  0  0  0  # atno 10765 bound_to 10752
  140.0920  134.9035  157.1666 H   0  0  0  0  0  0  0  0  0  0  0  0  # atno 11005 bound_to 11000
  145.7318  139.1738  143.2426 LP  0  0  0  0  0  0  0  0  0  0  0  0  # atno 17320 bound_to 7965
  146.1200  140.7321  142.9462 LP  0  0  0  0  0  0  0  0  0  0  0  0  # atno 17321 bound_to 7965
  140.7719  143.3483  151.2065 LP  0  0  0  0  0  0  0  0  0  0  0  0  # atno 17342 bound_to 10162
  139.7079  143.9425  152.2935 LP  0  0  0  0  0  0  0  0  0  0  0  0  # atno 17343 bound_to 10162
  156.9343  130.9724  151.3527 LP  0  0  0  0  0  0  0  0  0  0  0  0  # atno 17370 bound_to 10713
  157.5882  130.8425  149.8621 LP  0  0  0  0  0  0  0  0  0  0  0  0  # atno 17371 bound_to 10713
  140.3338  134.2780  155.7223 LP  0  0  0  0  0  0  0  0  0  0  0  0  # atno 17394 bound_to 11000
  141.2081  133.7788  157.0081 LP  0  0  0  0  0  0  0  0  0  0  0  0  # atno 17395 bound_to 11000

$$$$
