AV-unprocessed.smi:240|AV-procd|sdf|1839|dock9
  -GOLD-   2262020453D 1   1.00000     0.00000
 Structure written by MMmdl.
 55 59  0  0  0  0  0  0  0  0  1 V2000
  152.5603  136.5605  156.5845 O   0  0  0  0  0  0  0  0  0  0  0  0
  151.3626  137.3020  156.6890 C   0  0  1  0  0  0  0  0  0  0  0  0
  151.2876  138.3935  155.6225 C   0  0  0  0  0  0  0  0  0  0  0  0
  149.7961  138.7274  155.5334 C   0  0  0  0  0  0  0  0  0  0  0  0
  149.0462  137.4544  155.9591 C   0  0  0  0  0  0  0  0  0  0  0  0
  150.1208  136.4433  156.4067 C   0  0  2  0  0  0  0  0  0  0  0  0
  149.7022  135.4538  157.5375 C   0  0  1  0  0  0  0  0  0  0  0  0
  149.4511  136.1414  158.9045 C   0  0  0  0  0  0  0  0  0  0  0  0
  149.0921  135.1756  159.8857 O   0  0  0  0  0  0  0  0  0  0  0  0
  147.8885  134.4997  159.5490 C   0  0  0  0  0  0  0  0  0  0  0  0
  148.0992  133.7350  158.2362 C   0  0  0  0  0  0  0  0  0  0  0  0
  148.5267  134.6463  157.1809 N   0  0  0  0  0  0  0  0  0  0  0  0
  148.5556  134.0121  155.9870 C   0  0  0  0  0  0  0  0  0  0  0  0
  149.7764  133.7065  155.4834 N   0  0  0  0  0  0  0  0  0  0  0  0
  149.8751  133.0653  154.3150 C   0  0  0  0  0  0  0  0  0  0  0  0
  148.8988  132.6530  153.5035 N   0  0  0  0  0  0  0  0  0  0  0  0
  147.6696  132.9748  154.0000 C   0  0  0  0  0  0  0  0  0  0  0  0
  147.4079  133.6487  155.2259 C   0  0  0  0  0  0  0  0  0  0  0  0
  146.0375  133.7956  155.4023 N   0  0  0  0  0  0  0  0  0  0  0  0
  145.5187  133.2314  154.3462 C   0  0  0  0  0  0  0  0  0  0  0  0
  146.4266  132.7221  153.4450 N   0  0  0  0  0  0  0  0  0  0  0  0
  146.1275  132.0379  152.1953 C   0  0  0  0  0  0  0  0  0  0  0  0
  145.3561  132.8985  151.1619 C   0  0  2  0  0  0  0  0  0  0  0  0
  146.0610  134.1053  150.9357 O   0  0  0  0  0  0  0  0  0  0  0  0
  143.9174  133.2280  151.5677 C   0  0  0  0  0  0  0  0  0  0  0  0
  143.0953  132.2210  150.7760 C   0  0  0  0  0  0  0  0  0  0  0  0
  143.7859  132.1706  149.5411 O   0  0  0  0  0  0  0  0  0  0  0  0
  145.1789  132.1496  149.8249 C   0  0  0  0  0  0  0  0  0  0  0  0
  153.1578  136.8593  157.2531 H   0  0  0  0  0  0  0  0  0  0  0  0
  151.3114  137.7711  157.6705 H   0  0  0  0  0  0  0  0  0  0  0  0
  151.9003  139.2627  155.8638 H   0  0  0  0  0  0  0  0  0  0  0  0
  151.6277  138.0035  154.6616 H   0  0  0  0  0  0  0  0  0  0  0  0
  149.5590  139.5378  156.2240 H   0  0  0  0  0  0  0  0  0  0  0  0
  149.5144  139.0579  154.5333 H   0  0  0  0  0  0  0  0  0  0  0  0
  148.3446  137.6936  156.7570 H   0  0  0  0  0  0  0  0  0  0  0  0
  148.4586  137.0478  155.1353 H   0  0  0  0  0  0  0  0  0  0  0  0
  150.3730  135.8604  155.5192 H   0  0  0  0  0  0  0  0  0  0  0  0
  150.5329  134.7646  157.6888 H   0  0  0  0  0  0  0  0  0  0  0  0
  150.3499  136.6408  159.2624 H   0  0  0  0  0  0  0  0  0  0  0  0
  148.6697  136.8990  158.8440 H   0  0  0  0  0  0  0  0  0  0  0  0
  147.6324  133.8074  160.3510 H   0  0  0  0  0  0  0  0  0  0  0  0
  147.0647  135.2102  159.4627 H   0  0  0  0  0  0  0  0  0  0  0  0
  148.8526  132.9585  158.3778 H   0  0  0  0  0  0  0  0  0  0  0  0
  147.1727  133.2357  157.9482 H   0  0  0  0  0  0  0  0  0  0  0  0
  150.8800  132.8491  153.9839 H   0  0  0  0  0  0  0  0  0  0  0  0
  144.4507  133.1731  154.1945 H   0  0  0  0  0  0  0  0  0  0  0  0
  147.0701  131.6964  151.7652 H   0  0  0  0  0  0  0  0  0  0  0  0
  145.5585  131.1375  152.4306 H   0  0  0  0  0  0  0  0  0  0  0  0
  145.9143  134.3754  150.0421 H   0  0  0  0  0  0  0  0  0  0  0  0
  143.7250  133.1727  152.6377 H   0  0  0  0  0  0  0  0  0  0  0  0
  143.6437  134.2327  151.2416 H   0  0  0  0  0  0  0  0  0  0  0  0
  143.1097  131.2390  151.2514 H   0  0  0  0  0  0  0  0  0  0  0  0
  142.0582  132.5305  150.6462 H   0  0  0  0  0  0  0  0  0  0  0  0
  145.7416  132.5928  149.0023 H   0  0  0  0  0  0  0  0  0  0  0  0
  145.4943  131.1086  149.9106 H   0  0  0  0  0  0  0  0  0  0  0  0
  1  2  1  0  0  0  0
  1 29  1  0  0  0  0
  2  6  1  0  0  0  0
  2  3  1  0  0  0  0
  2 30  1  0  0  0  0
  3  4  1  0  0  0  0
  3 31  1  0  0  0  0
  3 32  1  0  0  0  0
  4  5  1  0  0  0  0
  4 33  1  0  0  0  0
  4 34  1  0  0  0  0
  5  6  1  0  0  0  0
  5 35  1  0  0  0  0
  5 36  1  0  0  0  0
  6  7  1  0  0  0  0
  6 37  1  0  0  0  0
  7 12  1  0  0  0  0
  7  8  1  0  0  0  0
  7 38  1  0  0  0  0
  8  9  1  0  0  0  0
  8 39  1  0  0  0  0
  8 40  1  0  0  0  0
  9 10  1  0  0  0  0
 10 11  1  0  0  0  0
 10 41  1  0  0  0  0
 10 42  1  0  0  0  0
 11 12  1  0  0  0  0
 11 43  1  0  0  0  0
 11 44  1  0  0  0  0
 12 13  1  0  0  0  0
 13 18  1  0  0  0  0
 13 14  2  0  0  0  0
 14 15  1  0  0  0  0
 15 16  2  0  0  0  0
 15 45  1  0  0  0  0
 16 17  1  0  0  0  0
 17 21  1  0  0  0  0
 17 18  2  0  0  0  0
 18 19  1  0  0  0  0
 19 20  2  0  0  0  0
 20 21  1  0  0  0  0
 20 46  1  0  0  0  0
 21 22  1  0  0  0  0
 22 23  1  0  0  0  0
 22 47  1  0  0  0  0
 22 48  1  0  0  0  0
 23 28  1  0  0  0  0
 23 24  1  0  0  0  0
 23 25  1  0  0  0  0
 24 49  1  0  0  0  0
 25 26  1  0  0  0  0
 25 50  1  0  0  0  0
 25 51  1  0  0  0  0
 26 27  1  0  0  0  0
 26 52  1  0  0  0  0
 26 53  1  0  0  0  0
 27 28  1  0  0  0  0
 28 54  1  0  0  0  0
 28 55  1  0  0  0  0
M  END
> <s_m_source_file>
AV-unprocessed.smi

> <i_m_source_file_index>
240

> <i_lp_mmshare_version>
43012

> <i_f3d_flags>
0

> <s_epik_input>
W09IXVtDQEBIXTFbQ0gyXVtDSDJdW0NIMl1bQ0BIXTFbQ0BASF0yW0NIMl1PW0NIMl1bQ0gyXU4yYyhuW2NIXW4zKWMoYzM0KW5bY0hdbjRbQ0gyXVtDQEBdNShbT0hdKVtDSDJdW0NIMl1PW0NIMl01

> <s_epik_cmdline>
J2VwaWtfcHl0aG9uJywgJy1waCcsICc3LjAnLCAnLXRuJywgJzgnLCAnLW1hJywgJzIwMCcsICctbWV0YWxfYmluZGluZycsICctaW1hZScsICc8aW5maWxlLm1hZT4nLCAnLW9tYWUnLCAnPG91dGZpbGUubWFlPic=

> <r_lp_tautomer_probability>
1

> <r_epik_Ionization_Penalty>
0.000130618

> <r_epik_Ionization_Penalty_Charging>
0

> <r_epik_Ionization_Penalty_Neutral>
0.000130618

> <r_epik_State_Penalty>
-0

> <r_epik_Charging_Adjusted_Penalty>
0

> <i_epik_Tot_Q>
0

> <i_epik_Tot_abs_Q>
0

> <r_epik_Metal_State_Penalty>
-0

> <b_epik_Metal_Only>
0

> <s_lp_Force_Field>
OPLS_2005

> <r_lp_Energy>
62.6221

> <b_lp_Chiralities_Consistent>
1

> <s_lp_Variant>
AV-unprocessed.smi:240-16

> <Gold.Version>
5.8.1

> <Gold.Id.Protein>
6NUR|6NUR_protein|mol2

> <Gold.PLP.Fitness>
44.9046

> <Gold.PLP.PLP>
-33.6209

> <Gold.PLP.part.hbond>
-3.8723

> <Gold.PLP.part.metal>
0.0000

> <Gold.PLP.part.buried>
-6.9711

> <Gold.PLP.part.nonpolar>
-24.8161

> <Gold.PLP.part.repulsive>
0.5515

> <Gold.PLP.ligand.clash>
0.0000

> <Gold.PLP.ligand.torsion>
0.5788

> <Gold.PLP.Chemscore.Hbond>
3.5366

> <Gold.PLP.Chemscore.CHOScore>
0.5506

> <Gold.PLP.Chemscore.Metal>
0.0000

> <Gold.Chemscore.Hbonds>
donor molecule, donor type, donor heavy atom, donor atom, acceptor molecule, acceptor atom, score
      P1  H  6896  6907       L1     9  0.04
      P1  H 10752 10765       L1     1  0.94
      P1  H 10785 10796       L1    27  0.39
      L1  C    20    46       P1 10957  1.00

> <Gold.PLP.Chemscore.Internal.Correction>
0.1800

> <Gold.Rescore>
     Score         DG    S(hbond)    S(metal)    S(lipo)     H(rot)  DE(clash)    DE(int)     intcor
     13.16     -15.05       2.37        0.00      79.86       3.00       0.21       1.68       ----

> <Gold.Chemscore.Fitness>
13.1576

> <Gold.Chemscore.DG>
-15.0472

> <Gold.Chemscore.ZeroCoef>
-5.4800

> <Gold.Chemscore.Hbond>
2.3692

> <Gold.Chemscore.Metal>
0.0000

> <Gold.Chemscore.Lipo>
79.8625

> <Gold.Chemscore.Internal_Hbond>
0.0000

> <Gold.Chemscore.DEClash>
0.2145

> <Gold.Chemscore.DEInternal>
1.6752

> <Gold.Chemscore.Rot>
3.0039

> <Gold.Chemscore.Internal.Correction>
   9.000000E+99

> <Gold.Chemscore.Hbonds>
donor molecule, donor type, donor heavy atom, donor atom, acceptor molecule, acceptor atom, score
      L1  H    24    49       P1  7921  0.03
      P1  H 10752 10765       L1     1  0.87
      P1  H 10785 10796       L1    27  0.10

> <Gold.Chemscore.Hbond.Weighted>
-7.9132

> <Gold.Chemscore.Metal.Weighted>
-0.0000

> <Gold.Chemscore.Lipo.Weighted>
-9.3439

> <Gold.Chemscore.Internal_Hbond.Weighted>
0.0000

> <Gold.Chemscore.DEClash.Weighted>
0.2145

> <Gold.Chemscore.DEInternal.Weighted>
1.6752

> <Gold.Chemscore.Rot.Weighted>
7.6899

> <Gold.Chemscore.Internal.Correction.Weighted>
   9.000000E+99

> <Gold.Protein.RotatedTorsions>
[ 6907 6896 6895 6894 ] final  -56.82 input  -60.11 | X-H torsion
[ 7974 7965 7964 7962 ] final   86.94 input  175.53 | X-H torsion
[ 8008 7997 7996 7995 ] final   15.72 input   59.86 | X-H torsion
[ 10167 10162 10161 10158 ] final -148.10 input  -65.29 | X-H torsion
[ 10718 10713 10712 10709 ] final -107.48 input   66.30 | X-H torsion
[ 10763 10752 10751 10750 ] final -156.57 input  -60.55 | X-H torsion
[ 11005 11000 10999 10996 ] final   -0.53 input  -57.11 | X-H torsion

> <Gold.Protein.ActiveResidues>
 VAL166  LYS551  ARG553  GLY616  TRP617  ASP618  TYR619  PRO620  LYS621  CYS622 
 ASP623  PHE694  ASN695  SER759  ASP760  ASP761  ALA762  ILE779  LEU786  VAL792 
 PHE793  MET794  SER795  GLU796  ALA797  LYS798  CYS799  TRP800  GLU811  SER814 

> <Gold.Protein.RotatedAtoms>
  150.8136  134.7305  159.6709 H   0  0  0  0  0  0  0  0  0  0  0  0  # atno 6907 bound_to 6896
  152.4255  134.5872  159.9974 H   0  0  0  0  0  0  0  0  0  0  0  0  # atno 6908 bound_to 6896
  151.6075  133.3313  159.3096 H   0  0  0  0  0  0  0  0  0  0  0  0  # atno 6909 bound_to 6896
  145.5656  139.2308  143.2435 H   0  0  0  0  0  0  0  0  0  0  0  0  # atno 7974 bound_to 7965
  154.8667  140.2952  155.5506 H   0  0  0  0  0  0  0  0  0  0  0  0  # atno 8008 bound_to 7997
  156.3021  140.2468  156.3583 H   0  0  0  0  0  0  0  0  0  0  0  0  # atno 8009 bound_to 7997
  154.8860  140.0396  157.1800 H   0  0  0  0  0  0  0  0  0  0  0  0  # atno 8010 bound_to 7997
  139.7562  143.8444  152.2597 H   0  0  0  0  0  0  0  0  0  0  0  0  # atno 10167 bound_to 10162
  156.0439  130.5665  150.7828 H   0  0  0  0  0  0  0  0  0  0  0  0  # atno 10718 bound_to 10713
  154.7703  135.3143  154.8203 H   0  0  0  0  0  0  0  0  0  0  0  0  # atno 10763 bound_to 10752
  153.8941  135.6822  153.4763 H   0  0  0  0  0  0  0  0  0  0  0  0  # atno 10764 bound_to 10752
  153.1315  135.4778  154.9291 H   0  0  0  0  0  0  0  0  0  0  0  0  # atno 10765 bound_to 10752
  140.6373  133.9521  155.8307 H   0  0  0  0  0  0  0  0  0  0  0  0  # atno 11005 bound_to 11000
  146.1821  140.6481  142.9184 LP  0  0  0  0  0  0  0  0  0  0  0  0  # atno 17320 bound_to 7965
  144.7462  140.5074  143.6834 LP  0  0  0  0  0  0  0  0  0  0  0  0  # atno 17321 bound_to 7965
  139.8437  144.7198  150.9299 LP  0  0  0  0  0  0  0  0  0  0  0  0  # atno 17342 bound_to 10162
  140.7803  143.3960  151.1229 LP  0  0  0  0  0  0  0  0  0  0  0  0  # atno 17343 bound_to 10162
  157.5291  131.0935  150.9979 LP  0  0  0  0  0  0  0  0  0  0  0  0  # atno 17370 bound_to 10713
  157.0290  130.5704  149.5341 LP  0  0  0  0  0  0  0  0  0  0  0  0  # atno 17371 bound_to 10713
  141.0632  134.0315  157.3630 LP  0  0  0  0  0  0  0  0  0  0  0  0  # atno 17394 bound_to 11000
  139.9093  135.0187  156.7624 LP  0  0  0  0  0  0  0  0  0  0  0  0  # atno 17395 bound_to 11000

$$$$
