AV-unprocessed.smi:1487|AV-procd|sdf|6008|dock6
  -GOLD-   22720 6103D 1   1.00000     0.00000
 Structure written by MMmdl.
 48 50  0  0  0  0  0  0  0  0  2 V2000
  150.8520  145.4730  159.9662 C   0  0  0  0  0  0  0  0  0  0  0  0
  151.7709  144.3027  160.2683 C   0  0  0  0  0  0  0  0  0  0  0  0
  152.1430  144.0497  161.6078 C   0  0  0  0  0  0  0  0  0  0  0  0
  152.9976  142.9733  161.9310 C   0  0  0  0  0  0  0  0  0  0  0  0
  153.4832  142.5473  163.1556 N   0  0  0  0  0  0  0  0  0  0  0  0
  154.2258  141.5027  162.8013 C   0  0  0  0  0  0  0  0  0  0  0  0
  154.2750  141.1974  161.4902 N   0  0  0  0  0  0  0  0  0  0  0  0
  155.0136  140.1101  160.8726 C   0  0  0  0  0  0  0  0  0  0  0  0
  154.0909  139.0512  160.2387 C   0  0  1  0  0  0  0  0  0  0  0  0
  153.7436  139.4541  158.9276 O   0  0  0  0  0  0  0  0  0  0  0  0
  154.7779  137.6736  160.1602 C   0  0  0  0  0  0  0  0  0  0  0  0
  154.4668  136.8144  161.3316 N   0  3  1  0  0  0  0  0  0  0  0  0
  155.2122  135.5287  161.3045 C   0  0  0  0  0  0  0  0  0  0  0  0
  154.7664  134.6008  162.4476 C   0  0  0  0  0  0  0  0  0  0  0  0
  154.9192  135.2901  163.8094 C   0  0  0  0  0  0  0  0  0  0  0  0
  154.1655  136.6278  163.8025 C   0  0  1  0  0  0  0  0  0  0  0  0
  154.3847  137.2983  165.0254 O   0  0  0  0  0  0  0  0  0  0  0  0
  154.6303  137.5157  162.6334 C   0  0  0  0  0  0  0  0  0  0  0  0
  153.4736  142.1498  160.8691 C   0  0  0  0  0  0  0  0  0  0  0  0
  153.1094  142.3906  159.5324 C   0  0  0  0  0  0  0  0  0  0  0  0
  152.2556  143.4710  159.2269 C   0  0  0  0  0  0  0  0  0  0  0  0
  151.8709  143.7248  157.7801 C   0  0  0  0  0  0  0  0  0  0  0  0
  150.5244  145.9681  160.8808 H   0  0  0  0  0  0  0  0  0  0  0  0
  149.9625  145.1361  159.4336 H   0  0  0  0  0  0  0  0  0  0  0  0
  151.3667  146.2112  159.3506 H   0  0  0  0  0  0  0  0  0  0  0  0
  151.7747  144.6838  162.4008 H   0  0  0  0  0  0  0  0  0  0  0  0
  154.7649  140.9248  163.5378 H   0  0  0  0  0  0  0  0  0  0  0  0
  155.6879  140.5282  160.1239 H   0  0  0  0  0  0  0  0  0  0  0  0
  155.6445  139.6513  161.6351 H   0  0  0  0  0  0  0  0  0  0  0  0
  153.1766  138.9905  160.8287 H   0  0  0  0  0  0  0  0  0  0  0  0
  152.8391  139.2257  158.7723 H   0  0  0  0  0  0  0  0  0  0  0  0
  154.4536  137.1811  159.2416 H   0  0  0  0  0  0  0  0  0  0  0  0
  155.8597  137.7869  160.0742 H   0  0  0  0  0  0  0  0  0  0  0  0
  155.0425  135.0243  160.3522 H   0  0  0  0  0  0  0  0  0  0  0  0
  156.2833  135.7253  161.3734 H   0  0  0  0  0  0  0  0  0  0  0  0
  153.7254  134.3105  162.2988 H   0  0  0  0  0  0  0  0  0  0  0  0
  155.3496  133.6796  162.4295 H   0  0  0  0  0  0  0  0  0  0  0  0
  154.5407  134.6432  164.6020 H   0  0  0  0  0  0  0  0  0  0  0  0
  155.9773  135.4556  164.0181 H   0  0  0  0  0  0  0  0  0  0  0  0
  153.0944  136.4416  163.7108 H   0  0  0  0  0  0  0  0  0  0  0  0
  154.3198  138.2298  164.8790 H   0  0  0  0  0  0  0  0  0  0  0  0
  155.6775  137.7945  162.7636 H   0  0  0  0  0  0  0  0  0  0  0  0
  154.0557  138.4417  162.6378 H   0  0  0  0  0  0  0  0  0  0  0  0
  153.4840  141.7498  158.7478 H   0  0  0  0  0  0  0  0  0  0  0  0
  152.3524  143.0130  157.1088 H   0  0  0  0  0  0  0  0  0  0  0  0
  152.1711  144.7276  157.4746 H   0  0  0  0  0  0  0  0  0  0  0  0
  150.7926  143.6309  157.6500 H   0  0  0  0  0  0  0  0  0  0  0  0
  153.4896  136.5713  161.2463 H   0  0  0  0  0  0  0  0  0  0  0  0
  1  2  1  0  0  0  0
  1 23  1  0  0  0  0
  1 24  1  0  0  0  0
  1 25  1  0  0  0  0
  2 21  1  0  0  0  0
  2  3  2  0  0  0  0
  3  4  1  0  0  0  0
  3 26  1  0  0  0  0
  4 19  2  0  0  0  0
  4  5  1  0  0  0  0
  5  6  2  0  0  0  0
  6  7  1  0  0  0  0
  6 27  1  0  0  0  0
  7  8  1  0  0  0  0
  7 19  1  0  0  0  0
  8  9  1  0  0  0  0
  8 28  1  0  0  0  0
  8 29  1  0  0  0  0
  9 10  1  0  0  0  0
  9 11  1  0  0  0  0
  9 30  1  0  0  0  0
 10 31  1  0  0  0  0
 11 12  1  0  0  0  0
 11 32  1  0  0  0  0
 11 33  1  0  0  0  0
 12 18  1  0  0  0  0
 12 13  1  0  0  0  0
 12 48  1  0  0  0  0
 13 14  1  0  0  0  0
 13 34  1  0  0  0  0
 13 35  1  0  0  0  0
 14 15  1  0  0  0  0
 14 36  1  0  0  0  0
 14 37  1  0  0  0  0
 15 16  1  0  0  0  0
 15 38  1  0  0  0  0
 15 39  1  0  0  0  0
 16 17  1  0  0  0  0
 16 18  1  0  0  0  0
 16 40  1  0  0  0  0
 17 41  1  0  0  0  0
 18 42  1  0  0  0  0
 18 43  1  0  0  0  0
 19 20  1  0  0  0  0
 20 21  2  0  0  0  0
 20 44  1  0  0  0  0
 21 22  1  0  0  0  0
 22 45  1  0  0  0  0
 22 46  1  0  0  0  0
 22 47  1  0  0  0  0
M  CHG  1  12   1
M  END
> <s_m_source_file>
AV-unprocessed.smi

> <i_m_source_file_index>
1487

> <i_lp_mmshare_version>
43012

> <i_f3d_flags>
0

> <s_epik_input>
W0NIM11jKFtjSF0xKWMoW0NIM10pW2NIXWMoYzEyKW4oW2NIXW4yKVtDSDJdW0NASF0oW09IXSlbQ0gyXU4zW0NIMl1bQ0gyXVtDSDJdW0NAQEhdKFtPSF0pW0NIMl0z

> <s_epik_cmdline>
J2VwaWtfcHl0aG9uJywgJy1waCcsICc3LjAnLCAnLXRuJywgJzgnLCAnLW1hJywgJzIwMCcsICctbWV0YWxfYmluZGluZycsICctaW1hZScsICc8aW5maWxlLm1hZT4nLCAnLW9tYWUnLCAnPG91dGZpbGUubWFlPic=

> <r_epik_Ionization_Penalty>
0.0940186

> <r_epik_Ionization_Penalty_Charging>
0.00679686

> <r_epik_Ionization_Penalty_Neutral>
0.0872218

> <r_epik_State_Penalty>
0.0799311

> <r_epik_Charging_Adjusted_Penalty>
0.086728

> <i_epik_Tot_Q>
1

> <i_epik_Tot_abs_Q>
1

> <r_epik_Metal_State_Penalty>
7.95545e-05

> <b_epik_Metal_Only>
0

> <s_lp_Force_Field>
OPLS_2005

> <r_lp_Energy>
21.5016

> <b_lp_Chiralities_Consistent>
1

> <s_lp_Variant>
AV-unprocessed.smi:1487-2

> <Gold.Version>
5.8.1

> <Gold.Id.Protein>
6NUR|6NUR_protein|mol2

> <Gold.PLP.Fitness>
53.5300

> <Gold.PLP.PLP>
-52.1457

> <Gold.PLP.part.hbond>
-1.7538

> <Gold.PLP.part.metal>
0.0000

> <Gold.PLP.part.buried>
-3.6453

> <Gold.PLP.part.nonpolar>
-45.1378

> <Gold.PLP.part.repulsive>
0.1213

> <Gold.PLP.ligand.clash>
0.0000

> <Gold.PLP.ligand.torsion>
0.8129

> <Gold.PLP.Chemscore.Hbond>
0.9913

> <Gold.PLP.Chemscore.CHOScore>
0.0000

> <Gold.PLP.Chemscore.Metal>
0.0000

> <Gold.Chemscore.Hbonds>
donor molecule, donor type, donor heavy atom, donor atom, acceptor molecule, acceptor atom, score
      P1  H  7997  8009       L1    10  0.76

> <Gold.PLP.Chemscore.Internal.Correction>
0.0362

> <Gold.Rescore>
     Score         DG    S(hbond)    S(metal)    S(lipo)     H(rot)  DE(clash)    DE(int)     intcor
     17.68     -18.81       0.95        0.00     145.39       2.67       0.19       0.95       ----

> <Gold.Chemscore.Fitness>
17.6759

> <Gold.Chemscore.DG>
-18.8100

> <Gold.Chemscore.ZeroCoef>
-5.4800

> <Gold.Chemscore.Hbond>
0.9455

> <Gold.Chemscore.Metal>
0.0000

> <Gold.Chemscore.Lipo>
145.3870

> <Gold.Chemscore.Internal_Hbond>
0.0000

> <Gold.Chemscore.DEClash>
0.1872

> <Gold.Chemscore.DEInternal>
0.9469

> <Gold.Chemscore.Rot>
2.6712

> <Gold.Chemscore.Internal.Correction>
   9.000000E+99

> <Gold.Chemscore.Hbonds>
donor molecule, donor type, donor heavy atom, donor atom, acceptor molecule, acceptor atom, score
      P1  H  7997  8009       L1    10  0.55

> <Gold.Chemscore.Hbond.Weighted>
-3.1580

> <Gold.Chemscore.Metal.Weighted>
-0.0000

> <Gold.Chemscore.Lipo.Weighted>
-17.0103

> <Gold.Chemscore.Internal_Hbond.Weighted>
0.0000

> <Gold.Chemscore.DEClash.Weighted>
0.1872

> <Gold.Chemscore.DEInternal.Weighted>
0.9469

> <Gold.Chemscore.Rot.Weighted>
6.8383

> <Gold.Chemscore.Internal.Correction.Weighted>
   9.000000E+99

> <Gold.Protein.RotatedTorsions>
[ 6907 6896 6895 6894 ] final -153.76 input  -60.11 | X-H torsion
[ 7974 7965 7964 7962 ] final  106.36 input  175.53 | X-H torsion
[ 8008 7997 7996 7995 ] final  150.31 input   59.86 | X-H torsion
[ 10167 10162 10161 10158 ] final -115.00 input  -65.29 | X-H torsion
[ 10718 10713 10712 10709 ] final  102.43 input   66.30 | X-H torsion
[ 10763 10752 10751 10750 ] final  -25.45 input  -60.55 | X-H torsion
[ 11005 11000 10999 10996 ] final  -78.10 input  -57.11 | X-H torsion

> <Gold.Protein.ActiveResidues>
 VAL166  LYS551  ARG553  GLY616  TRP617  ASP618  TYR619  PRO620  LYS621  CYS622 
 ASP623  PHE694  ASN695  SER759  ASP760  ASP761  ALA762  ILE779  LEU786  VAL792 
 PHE793  MET794  SER795  GLU796  ALA797  LYS798  CYS799  TRP800  GLU811  SER814 

> <Gold.Protein.RotatedAtoms>
  151.2474  133.4368  159.2609 H   0  0  0  0  0  0  0  0  0  0  0  0  # atno 6907 bound_to 6896
  151.0649  134.9761  159.8289 H   0  0  0  0  0  0  0  0  0  0  0  0  # atno 6908 bound_to 6896
  152.5404  134.2422  159.8919 H   0  0  0  0  0  0  0  0  0  0  0  0  # atno 6909 bound_to 6896
  145.3076  139.2550  143.3780 H   0  0  0  0  0  0  0  0  0  0  0  0  # atno 7974 bound_to 7965
  156.2720  140.2078  156.5997 H   0  0  0  0  0  0  0  0  0  0  0  0  # atno 8008 bound_to 7997
  154.6916  140.0529  157.0393 H   0  0  0  0  0  0  0  0  0  0  0  0  # atno 8009 bound_to 7997
  155.0858  140.3191  155.4591 H   0  0  0  0  0  0  0  0  0  0  0  0  # atno 8010 bound_to 7997
  140.0948  143.4666  152.1848 H   0  0  0  0  0  0  0  0  0  0  0  0  # atno 10167 bound_to 10162
  157.6802  131.0752  150.5402 H   0  0  0  0  0  0  0  0  0  0  0  0  # atno 10718 bound_to 10713
  153.7001  135.6957  153.5065 H   0  0  0  0  0  0  0  0  0  0  0  0  # atno 10763 bound_to 10752
  153.2349  135.4325  155.0634 H   0  0  0  0  0  0  0  0  0  0  0  0  # atno 10764 bound_to 10752
  154.8347  135.3493  154.6540 H   0  0  0  0  0  0  0  0  0  0  0  0  # atno 10765 bound_to 10752
  141.1663  133.7049  156.7920 H   0  0  0  0  0  0  0  0  0  0  0  0  # atno 11005 bound_to 11000
  146.3129  140.3605  142.8664 LP  0  0  0  0  0  0  0  0  0  0  0  0  # atno 17320 bound_to 7965
  144.9042  140.7679  143.5848 LP  0  0  0  0  0  0  0  0  0  0  0  0  # atno 17321 bound_to 7965
  139.5704  144.7459  151.3906 LP  0  0  0  0  0  0  0  0  0  0  0  0  # atno 17342 bound_to 10162
  140.7009  143.7633  150.7402 LP  0  0  0  0  0  0  0  0  0  0  0  0  # atno 17343 bound_to 10162
  156.5709  130.4279  149.6020 LP  0  0  0  0  0  0  0  0  0  0  0  0  # atno 17370 bound_to 10713
  156.2741  130.7034  151.1840 LP  0  0  0  0  0  0  0  0  0  0  0  0  # atno 17371 bound_to 10713
  140.2318  134.8680  157.3485 LP  0  0  0  0  0  0  0  0  0  0  0  0  # atno 17394 bound_to 11000
  140.1883  134.4403  155.7731 LP  0  0  0  0  0  0  0  0  0  0  0  0  # atno 17395 bound_to 11000

$$$$
