AV-unprocessed.smi:232|AV-procd|sdf|1778|dock8
  -GOLD-   2262020323D 1   1.00000     0.00000
 Structure written by MMmdl.
 52 55  0  0  0  0  0  0  0  0  1 V2000
  146.4715  142.4152  155.0993 C   0  0  0  0  0  0  0  0  0  0  0  0
  147.1950  141.7219  153.9377 C   0  0  0  0  0  0  0  0  0  0  0  0
  148.3885  140.8559  154.3966 C   0  0  1  0  0  0  0  0  0  0  0  0
  149.5725  141.6859  154.9313 C   0  0  0  0  0  0  0  0  0  0  0  0
  149.9222  141.0775  156.2938 C   0  0  0  0  0  0  0  0  0  0  0  0
  149.2274  139.7155  156.2990 C   0  0  2  0  0  0  0  0  0  0  0  0
  150.1410  138.6068  155.7366 C   0  0  0  0  0  0  0  0  0  0  0  0
  148.0380  139.9437  155.4860 N   0  0  0  0  0  0  0  0  0  0  0  0
  147.2119  138.8827  155.2817 C   0  0  0  0  0  0  0  0  0  0  0  0
  146.8292  138.1075  156.3316 N   0  0  0  0  0  0  0  0  0  0  0  0
  146.0031  137.0743  156.1454 C   0  0  0  0  0  0  0  0  0  0  0  0
  145.4471  136.6449  155.0117 N   0  0  0  0  0  0  0  0  0  0  0  0
  145.8288  137.4153  153.9535 C   0  0  0  0  0  0  0  0  0  0  0  0
  146.6992  138.5412  153.9980 C   0  0  0  0  0  0  0  0  0  0  0  0
  146.8622  139.0605  152.7188 N   0  0  0  0  0  0  0  0  0  0  0  0
  146.1339  138.2857  151.9623 C   0  0  0  0  0  0  0  0  0  0  0  0
  145.4824  137.2695  152.6218 N   0  0  0  0  0  0  0  0  0  0  0  0
  144.6275  136.2591  152.0266 C   0  0  0  0  0  0  0  0  0  0  0  0
  145.3559  135.3971  150.9739 C   0  0  2  0  0  0  0  0  0  0  0  0
  144.8205  135.7386  149.7111 O   0  0  0  0  0  0  0  0  0  0  0  0
  145.2145  133.8737  151.1894 C   0  0  1  0  0  0  0  0  0  0  0  0
  143.7953  133.3294  151.0119 C   0  0  0  0  0  0  0  0  0  0  0  0
  144.0118  131.8630  150.6712 C   0  0  0  0  0  0  0  0  0  0  0  0
  145.4872  131.7914  150.2703 C   0  0  0  0  0  0  0  0  0  0  0  0
  145.9064  133.1448  150.1863 O   0  0  0  0  0  0  0  0  0  0  0  0
  145.6558  143.0374  154.7303 H   0  0  0  0  0  0  0  0  0  0  0  0
  147.1533  143.0581  155.6569 H   0  0  0  0  0  0  0  0  0  0  0  0
  146.0456  141.6933  155.7961 H   0  0  0  0  0  0  0  0  0  0  0  0
  146.4874  141.1078  153.3792 H   0  0  0  0  0  0  0  0  0  0  0  0
  147.5326  142.4922  153.2447 H   0  0  0  0  0  0  0  0  0  0  0  0
  148.7422  140.2615  153.5526 H   0  0  0  0  0  0  0  0  0  0  0  0
  150.4174  141.6116  154.2458 H   0  0  0  0  0  0  0  0  0  0  0  0
  149.3327  142.7442  155.0394 H   0  0  0  0  0  0  0  0  0  0  0  0
  150.9966  141.0162  156.4702 H   0  0  0  0  0  0  0  0  0  0  0  0
  149.4968  141.6998  157.0824 H   0  0  0  0  0  0  0  0  0  0  0  0
  148.9507  139.4654  157.3228 H   0  0  0  0  0  0  0  0  0  0  0  0
  151.0459  138.5095  156.3367 H   0  0  0  0  0  0  0  0  0  0  0  0
  150.4462  138.8142  154.7105 H   0  0  0  0  0  0  0  0  0  0  0  0
  149.6430  137.6369  155.7459 H   0  0  0  0  0  0  0  0  0  0  0  0
  145.7516  136.5119  157.0324 H   0  0  0  0  0  0  0  0  0  0  0  0
  146.0575  138.4298  150.8943 H   0  0  0  0  0  0  0  0  0  0  0  0
  144.2282  135.6299  152.8234 H   0  0  0  0  0  0  0  0  0  0  0  0
  143.7729  136.7641  151.5740 H   0  0  0  0  0  0  0  0  0  0  0  0
  146.4145  135.6603  150.9610 H   0  0  0  0  0  0  0  0  0  0  0  0
  145.3851  135.3848  149.0411 H   0  0  0  0  0  0  0  0  0  0  0  0
  145.5998  133.5901  152.1711 H   0  0  0  0  0  0  0  0  0  0  0  0
  143.1750  133.4700  151.8976 H   0  0  0  0  0  0  0  0  0  0  0  0
  143.3045  133.8290  150.1754 H   0  0  0  0  0  0  0  0  0  0  0  0
  143.8167  131.2203  151.5303 H   0  0  0  0  0  0  0  0  0  0  0  0
  143.3552  131.5491  149.8590 H   0  0  0  0  0  0  0  0  0  0  0  0
  146.0717  131.2827  151.0385 H   0  0  0  0  0  0  0  0  0  0  0  0
  145.6420  131.2736  149.3236 H   0  0  0  0  0  0  0  0  0  0  0  0
  1  2  1  0  0  0  0
  1 26  1  0  0  0  0
  1 27  1  0  0  0  0
  1 28  1  0  0  0  0
  2  3  1  0  0  0  0
  2 29  1  0  0  0  0
  2 30  1  0  0  0  0
  3  8  1  0  0  0  0
  3  4  1  0  0  0  0
  3 31  1  0  0  0  0
  4  5  1  0  0  0  0
  4 32  1  0  0  0  0
  4 33  1  0  0  0  0
  5  6  1  0  0  0  0
  5 34  1  0  0  0  0
  5 35  1  0  0  0  0
  6  7  1  0  0  0  0
  6  8  1  0  0  0  0
  6 36  1  0  0  0  0
  7 37  1  0  0  0  0
  7 38  1  0  0  0  0
  7 39  1  0  0  0  0
  8  9  1  0  0  0  0
  9 14  1  0  0  0  0
  9 10  2  0  0  0  0
 10 11  1  0  0  0  0
 11 12  2  0  0  0  0
 11 40  1  0  0  0  0
 12 13  1  0  0  0  0
 13 17  1  0  0  0  0
 13 14  2  0  0  0  0
 14 15  1  0  0  0  0
 15 16  2  0  0  0  0
 16 17  1  0  0  0  0
 16 41  1  0  0  0  0
 17 18  1  0  0  0  0
 18 19  1  0  0  0  0
 18 42  1  0  0  0  0
 18 43  1  0  0  0  0
 19 20  1  0  0  0  0
 19 21  1  0  0  0  0
 19 44  1  0  0  0  0
 20 45  1  0  0  0  0
 21 25  1  0  0  0  0
 21 22  1  0  0  0  0
 21 46  1  0  0  0  0
 22 23  1  0  0  0  0
 22 47  1  0  0  0  0
 22 48  1  0  0  0  0
 23 24  1  0  0  0  0
 23 49  1  0  0  0  0
 23 50  1  0  0  0  0
 24 25  1  0  0  0  0
 24 51  1  0  0  0  0
 24 52  1  0  0  0  0
M  END
> <s_m_source_file>
AV-unprocessed.smi

> <i_m_source_file_index>
232

> <i_lp_mmshare_version>
43012

> <i_f3d_flags>
0

> <s_epik_input>
W0NIM11bQ0gyXVtDQEBIXTFbQ0gyXVtDSDJdW0NAQEhdKFtDSDNdKU4xYyhuW2NIXW4yKWMoYzIzKW5bY0hdbjNbQ0gyXVtDQEhdKFtPSF0pW0NAQEhdNFtDSDJdW0NIMl1bQ0gyXU80

> <s_epik_cmdline>
J2VwaWtfcHl0aG9uJywgJy1waCcsICc3LjAnLCAnLXRuJywgJzgnLCAnLW1hJywgJzIwMCcsICctbWV0YWxfYmluZGluZycsICctaW1hZScsICc8aW5maWxlLm1hZT4nLCAnLW9tYWUnLCAnPG91dGZpbGUubWFlPic=

> <r_lp_tautomer_probability>
1

> <r_epik_Ionization_Penalty>
0.00258048

> <r_epik_Ionization_Penalty_Charging>
0

> <r_epik_Ionization_Penalty_Neutral>
0.00258048

> <r_epik_State_Penalty>
0.00168551

> <r_epik_Charging_Adjusted_Penalty>
0.00168551

> <i_epik_Tot_Q>
0

> <i_epik_Tot_abs_Q>
0

> <r_epik_Metal_State_Penalty>
-0

> <b_epik_Metal_Only>
0

> <s_lp_Force_Field>
OPLS_2005

> <r_lp_Energy>
52.3854

> <b_lp_Chiralities_Consistent>
1

> <s_lp_Variant>
AV-unprocessed.smi:232-12

> <Gold.Version>
5.8.1

> <Gold.Id.Protein>
6NUR|6NUR_protein|mol2

> <Gold.PLP.Fitness>
41.7152

> <Gold.PLP.PLP>
-37.9185

> <Gold.PLP.part.hbond>
-1.9455

> <Gold.PLP.part.metal>
0.0000

> <Gold.PLP.part.buried>
-6.1172

> <Gold.PLP.part.nonpolar>
-31.9054

> <Gold.PLP.part.repulsive>
0.8874

> <Gold.PLP.ligand.clash>
0.0000

> <Gold.PLP.ligand.torsion>
0.9351

> <Gold.PLP.Chemscore.Hbond>
1.0000

> <Gold.PLP.Chemscore.CHOScore>
0.7830

> <Gold.PLP.Chemscore.Metal>
0.0000

> <Gold.Chemscore.Hbonds>
donor molecule, donor type, donor heavy atom, donor atom, acceptor molecule, acceptor atom, score
      L1  H    20    45       P1  7921  1.00
      L1  C    16    41       P1 10171  0.83

> <Gold.PLP.Chemscore.Internal.Correction>
0.3180

> <Gold.Rescore>
     Score         DG    S(hbond)    S(metal)    S(lipo)     H(rot)  DE(clash)    DE(int)     intcor
      8.83     -12.61       0.99        0.00      85.83       2.43       0.05       3.73       ----

> <Gold.Chemscore.Fitness>
8.8291

> <Gold.Chemscore.DG>
-12.6095

> <Gold.Chemscore.ZeroCoef>
-5.4800

> <Gold.Chemscore.Hbond>
0.9875

> <Gold.Chemscore.Metal>
0.0000

> <Gold.Chemscore.Lipo>
85.8281

> <Gold.Chemscore.Internal_Hbond>
0.0000

> <Gold.Chemscore.DEClash>
0.0485

> <Gold.Chemscore.DEInternal>
3.7319

> <Gold.Chemscore.Rot>
2.4260

> <Gold.Chemscore.Internal.Correction>
   9.000000E+99

> <Gold.Chemscore.Hbonds>
donor molecule, donor type, donor heavy atom, donor atom, acceptor molecule, acceptor atom, score
      L1  H    20    45       P1  7921  1.00

> <Gold.Chemscore.Hbond.Weighted>
-3.2983

> <Gold.Chemscore.Metal.Weighted>
-0.0000

> <Gold.Chemscore.Lipo.Weighted>
-10.0419

> <Gold.Chemscore.Internal_Hbond.Weighted>
0.0000

> <Gold.Chemscore.DEClash.Weighted>
0.0485

> <Gold.Chemscore.DEInternal.Weighted>
3.7319

> <Gold.Chemscore.Rot.Weighted>
6.2107

> <Gold.Chemscore.Internal.Correction.Weighted>
   9.000000E+99

> <Gold.Protein.RotatedTorsions>
[ 6907 6896 6895 6894 ] final   23.11 input  -60.11 | X-H torsion
[ 7974 7965 7964 7962 ] final   66.90 input  175.53 | X-H torsion
[ 8008 7997 7996 7995 ] final  105.13 input   59.86 | X-H torsion
[ 10167 10162 10161 10158 ] final   67.07 input  -65.29 | X-H torsion
[ 10718 10713 10712 10709 ] final  104.38 input   66.30 | X-H torsion
[ 10763 10752 10751 10750 ] final    6.00 input  -60.55 | X-H torsion
[ 11005 11000 10999 10996 ] final -128.68 input  -57.11 | X-H torsion

> <Gold.Protein.ActiveResidues>
 VAL166  LYS551  ARG553  GLY616  TRP617  ASP618  TYR619  PRO620  LYS621  CYS622 
 ASP623  PHE694  ASN695  SER759  ASP760  ASP761  ALA762  ILE779  LEU786  VAL792 
 PHE793  MET794  SER795  GLU796  ALA797  LYS798  CYS799  TRP800  GLU811  SER814 

> <Gold.Protein.RotatedAtoms>
  151.9374  135.0229  160.0533 H   0  0  0  0  0  0  0  0  0  0  0  0  # atno 6907 bound_to 6896
  152.2066  133.4875  159.5095 H   0  0  0  0  0  0  0  0  0  0  0  0  # atno 6908 bound_to 6896
  150.6966  134.1438  159.4157 H   0  0  0  0  0  0  0  0  0  0  0  0  # atno 6909 bound_to 6896
  145.8211  139.3085  143.1042 H   0  0  0  0  0  0  0  0  0  0  0  0  # atno 7974 bound_to 7965
  156.1632  140.3136  155.8844 H   0  0  0  0  0  0  0  0  0  0  0  0  # atno 8008 bound_to 7997
  155.3739  140.0483  157.3062 H   0  0  0  0  0  0  0  0  0  0  0  0  # atno 8009 bound_to 7997
  154.5167  140.2184  155.9064 H   0  0  0  0  0  0  0  0  0  0  0  0  # atno 8010 bound_to 7997
  140.0936  144.4966  150.7083 H   0  0  0  0  0  0  0  0  0  0  0  0  # atno 10167 bound_to 10162
  157.6742  131.0802  150.5698 H   0  0  0  0  0  0  0  0  0  0  0  0  # atno 10718 bound_to 10713
  153.2528  135.6915  153.7661 H   0  0  0  0  0  0  0  0  0  0  0  0  # atno 10763 bound_to 10752
  153.6749  135.3338  155.3164 H   0  0  0  0  0  0  0  0  0  0  0  0  # atno 10764 bound_to 10752
  154.8401  135.4508  154.1491 H   0  0  0  0  0  0  0  0  0  0  0  0  # atno 10765 bound_to 10752
  140.9496  134.1084  157.4075 H   0  0  0  0  0  0  0  0  0  0  0  0  # atno 11005 bound_to 11000
  145.9673  140.8788  143.0180 LP  0  0  0  0  0  0  0  0  0  0  0  0  # atno 17320 bound_to 7965
  144.6747  140.1897  143.7398 LP  0  0  0  0  0  0  0  0  0  0  0  0  # atno 17321 bound_to 7965
  140.7016  143.2438  151.4849 LP  0  0  0  0  0  0  0  0  0  0  0  0  # atno 17342 bound_to 10162
  139.5711  144.1927  152.1837 LP  0  0  0  0  0  0  0  0  0  0  0  0  # atno 17343 bound_to 10162
  156.5999  130.4352  149.5901 LP  0  0  0  0  0  0  0  0  0  0  0  0  # atno 17370 bound_to 10713
  156.2514  130.6909  151.1648 LP  0  0  0  0  0  0  0  0  0  0  0  0  # atno 17371 bound_to 10713
  139.8843  135.0062  156.6362 LP  0  0  0  0  0  0  0  0  0  0  0  0  # atno 17394 bound_to 11000
  140.7621  133.8808  155.8426 LP  0  0  0  0  0  0  0  0  0  0  0  0  # atno 17395 bound_to 11000

$$$$
