AV-unprocessed.smi:72|AV-procd|sdf|725|dock3
  -GOLD-   2262017 53D 1   1.00000     0.00000
 Structure written by MMmdl.
 28 29  0  0  0  0  0  0  0  0  2 V2000
  154.2507  138.2299  154.5101 N   0  0  0  0  0  0  0  0  0  0  0  0
  153.0200  138.4834  154.6130 C   0  0  0  0  0  0  0  0  0  0  0  0
  152.0401  137.5430  154.1146 N   0  0  0  0  0  0  0  0  0  0  0  0
  150.7856  137.8472  154.2487 C   0  0  0  0  0  0  0  0  0  0  0  0
  150.3597  139.0905  154.8791 N   0  0  0  0  0  0  0  0  0  0  0  0
  148.8936  139.4571  155.0403 C   0  0  2  0  0  0  0  0  0  0  0  0
  148.0823  138.3976  154.6146 O   0  0  0  0  0  0  0  0  0  0  0  0
  147.4223  138.7387  153.3983 C   0  0  1  0  0  0  0  0  0  0  0  0
  146.1311  137.9177  153.2593 C   0  0  0  0  0  0  0  0  0  0  0  0
  145.4824  138.2322  152.0456 O   0  0  0  0  0  0  0  0  0  0  0  0
  147.1795  140.2355  153.5876 C   0  0  2  0  0  0  0  0  0  0  0  0
  146.8635  140.9061  152.3815 O   0  0  0  0  0  0  0  0  0  0  0  0
  148.4828  140.7062  154.2243 C   0  0  2  0  0  0  0  0  0  0  0  0
  149.4415  141.0926  153.2505 O   0  0  0  0  0  0  0  0  0  0  0  0
  151.3449  139.9979  155.3515 C   0  0  0  0  0  0  0  0  0  0  0  0
  150.9635  141.0507  155.8640 O   0  0  0  0  0  0  0  0  0  0  0  0
  152.6597  139.6718  155.2086 N   0  5  0  0  0  0  0  0  0  0  0  0
  148.7367  139.5715  156.1141 H   0  0  0  0  0  0  0  0  0  0  0  0
  148.0899  138.5779  152.5494 H   0  0  0  0  0  0  0  0  0  0  0  0
  146.3644  140.3850  154.2976 H   0  0  0  0  0  0  0  0  0  0  0  0
  148.3205  141.5462  154.9003 H   0  0  0  0  0  0  0  0  0  0  0  0
  154.8272  138.9642  154.8949 H   0  0  0  0  0  0  0  0  0  0  0  0
  149.9847  137.1963  153.8989 H   0  0  0  0  0  0  0  0  0  0  0  0
  146.3329  136.8477  153.3164 H   0  0  0  0  0  0  0  0  0  0  0  0
  145.4429  138.1608  154.0691 H   0  0  0  0  0  0  0  0  0  0  0  0
  144.9068  138.9667  152.1941 H   0  0  0  0  0  0  0  0  0  0  0  0
  147.6030  140.8341  151.7979 H   0  0  0  0  0  0  0  0  0  0  0  0
  149.4467  140.4426  152.5639 H   0  0  0  0  0  0  0  0  0  0  0  0
  1  2  2  0  0  0  0
  1 22  1  0  0  0  0
  2 17  1  0  0  0  0
  2  3  1  0  0  0  0
  3  4  2  0  0  0  0
  4  5  1  0  0  0  0
  4 23  1  0  0  0  0
  5  6  1  0  0  0  0
  5 15  1  0  0  0  0
  6 18  1  0  0  0  0
  6 13  1  0  0  0  0
  6  7  1  0  0  0  0
  7  8  1  0  0  0  0
  8 19  1  0  0  0  0
  8  9  1  0  0  0  0
  8 11  1  0  0  0  0
  9 10  1  0  0  0  0
  9 24  1  0  0  0  0
  9 25  1  0  0  0  0
 10 26  1  0  0  0  0
 11 20  1  0  0  0  0
 11 12  1  0  0  0  0
 11 13  1  0  0  0  0
 12 27  1  0  0  0  0
 13 21  1  0  0  0  0
 13 14  1  0  0  0  0
 14 28  1  0  0  0  0
 15 16  2  0  0  0  0
 15 17  1  0  0  0  0
M  CHG  1  17  -1
M  END
> <s_m_source_file>
AV-unprocessed.smi

> <i_m_source_file_index>
72

> <i_lp_mmshare_version>
43012

> <i_f3d_flags>
0

> <s_epik_input>
W05IMl1jMW5bY0hdbihjKD1PKW4xKVtDQEBIXTJPW0NASF0oW0NIMl1bT0hdKVtDQEBIXShbT0hdKVtDQEhdMltPSF0=

> <s_epik_cmdline>
J2VwaWtfcHl0aG9uJywgJy1waCcsICc3LjAnLCAnLXRuJywgJzgnLCAnLW1hJywgJzIwMCcsICctbWV0YWxfYmluZGluZycsICctaW1hZScsICc8aW5maWxlLm1hZT4nLCAnLW9tYWUnLCAnPG91dGZpbGUubWFlPic=

> <r_lp_tautomer_probability>
7.17554e-07

> <r_epik_Ionization_Penalty>
12.8705

> <r_epik_Ionization_Penalty_Charging>
5.64144

> <r_epik_Ionization_Penalty_Neutral>
7.22905

> <r_epik_State_Penalty>
3.30104

> <r_epik_Charging_Adjusted_Penalty>
8.94249

> <i_epik_Tot_Q>
-1

> <i_epik_Tot_abs_Q>
1

> <r_epik_Metal_State_Penalty>
0.529074

> <b_epik_Metal_Only>
1

> <s_epik_Chemistry_Notes>
This compound contains an acetal/aminal-like group ( X-CH(R)-Y where X, Y are N, S, or O) that may be acid/base labile, releasing an aldehyde.

> <s_lp_Force_Field>
OPLS_2005

> <r_lp_Energy>
42.3386

> <b_lp_Chiralities_Consistent>
1

> <s_lp_Variant>
AV-unprocessed.smi:72-63

> <Gold.Version>
5.8.1

> <Gold.Id.Protein>
6NUR|6NUR_protein|mol2

> <Gold.PLP.Fitness>
53.0725

> <Gold.PLP.PLP>
-30.2169

> <Gold.PLP.part.hbond>
-10.1863

> <Gold.PLP.part.metal>
0.0000

> <Gold.PLP.part.buried>
-2.9029

> <Gold.PLP.part.nonpolar>
-19.2875

> <Gold.PLP.part.repulsive>
0.3134

> <Gold.PLP.ligand.clash>
0.0000

> <Gold.PLP.ligand.torsion>
0.0649

> <Gold.PLP.Chemscore.Hbond>
6.6470

> <Gold.PLP.Chemscore.CHOScore>
1.0000

> <Gold.PLP.Chemscore.Metal>
0.0000

> <Gold.Chemscore.Hbonds>
donor molecule, donor type, donor heavy atom, donor atom, acceptor molecule, acceptor atom, score
      L1  H    10    26       P1 10175  1.00
      L1  H    12    27       P1  7957  0.55
      L1  H    14    28       P1  7957  0.84
      P1  H  7989  7998       L1    14  0.05
      P1  H  7997  8009       L1    17  2.00
      P1  H  8011  8017       L1    14  0.90
      P1  H 10752 10765       L1     3  0.80
      L1  C     4    23       P1  7948  1.00

> <Gold.PLP.Chemscore.Internal.Correction>
0.0444

> <Gold.Rescore>
     Score         DG    S(hbond)    S(metal)    S(lipo)     H(rot)  DE(clash)    DE(int)     intcor
      9.43     -11.04       3.91        0.00      24.26       4.04       1.36       0.25       ----

> <Gold.Chemscore.Fitness>
9.4322

> <Gold.Chemscore.DG>
-11.0388

> <Gold.Chemscore.ZeroCoef>
-5.4800

> <Gold.Chemscore.Hbond>
3.9111

> <Gold.Chemscore.Metal>
0.0000

> <Gold.Chemscore.Lipo>
24.2648

> <Gold.Chemscore.Internal_Hbond>
0.0000

> <Gold.Chemscore.DEClash>
1.3616

> <Gold.Chemscore.DEInternal>
0.2450

> <Gold.Chemscore.Rot>
4.0403

> <Gold.Chemscore.Internal.Correction>
   9.000000E+99

> <Gold.Chemscore.Hbonds>
donor molecule, donor type, donor heavy atom, donor atom, acceptor molecule, acceptor atom, score
      L1  H    10    26       P1 10175  0.99
      L1  H    12    27       P1  7957  0.53
      L1  H    14    28       P1  7957  0.78
      P1  H  7997  8009       L1    17  0.32
      P1  H  8011  8017       L1    14  0.18
      P1  H 10752 10765       L1     3  0.38

> <Gold.Chemscore.Hbond.Weighted>
-13.0629

> <Gold.Chemscore.Metal.Weighted>
-0.0000

> <Gold.Chemscore.Lipo.Weighted>
-2.8390

> <Gold.Chemscore.Internal_Hbond.Weighted>
0.0000

> <Gold.Chemscore.DEClash.Weighted>
1.3616

> <Gold.Chemscore.DEInternal.Weighted>
0.2450

> <Gold.Chemscore.Rot.Weighted>
10.3431

> <Gold.Chemscore.Internal.Correction.Weighted>
   9.000000E+99

> <Gold.Protein.RotatedTorsions>
[ 6907 6896 6895 6894 ] final  -55.77 input  -60.11 | X-H torsion
[ 7974 7965 7964 7962 ] final  126.40 input  175.53 | X-H torsion
[ 8008 7997 7996 7995 ] final -157.33 input   59.86 | X-H torsion
[ 10167 10162 10161 10158 ] final  167.18 input  -65.29 | X-H torsion
[ 10718 10713 10712 10709 ] final  110.14 input   66.30 | X-H torsion
[ 10763 10752 10751 10750 ] final  158.74 input  -60.55 | X-H torsion
[ 11005 11000 10999 10996 ] final  -58.60 input  -57.11 | X-H torsion

> <Gold.Protein.ActiveResidues>
 VAL166  LYS551  ARG553  GLY616  TRP617  ASP618  TYR619  PRO620  LYS621  CYS622 
 ASP623  PHE694  ASN695  SER759  ASP760  ASP761  ALA762  ILE779  LEU786  VAL792 
 PHE793  MET794  SER795  GLU796  ALA797  LYS798  CYS799  TRP800  GLU811  SER814 

> <Gold.Protein.RotatedAtoms>
  150.8223  134.7438  159.6782 H   0  0  0  0  0  0  0  0  0  0  0  0  # atno 6907 bound_to 6896
  152.4338  134.5723  159.9934 H   0  0  0  0  0  0  0  0  0  0  0  0  # atno 6908 bound_to 6896
  151.5904  133.3330  159.3062 H   0  0  0  0  0  0  0  0  0  0  0  0  # atno 6909 bound_to 6896
  145.0621  139.3797  143.5000 H   0  0  0  0  0  0  0  0  0  0  0  0  # atno 7974 bound_to 7965
  155.7308  140.0802  157.2290 H   0  0  0  0  0  0  0  0  0  0  0  0  # atno 8008 bound_to 7997
  154.4033  140.1595  156.2561 H   0  0  0  0  0  0  0  0  0  0  0  0  # atno 8009 bound_to 7997
  155.9111  140.3404  155.6102 H   0  0  0  0  0  0  0  0  0  0  0  0  # atno 8010 bound_to 7997
  139.4940  144.3949  151.9475 H   0  0  0  0  0  0  0  0  0  0  0  0  # atno 10167 bound_to 10162
  157.6508  131.0927  150.6557 H   0  0  0  0  0  0  0  0  0  0  0  0  # atno 10718 bound_to 10713
  154.2208  135.2782  155.2925 H   0  0  0  0  0  0  0  0  0  0  0  0  # atno 10763 bound_to 10752
  154.5703  135.5620  153.7092 H   0  0  0  0  0  0  0  0  0  0  0  0  # atno 10764 bound_to 10752
  153.0042  135.6319  154.2348 H   0  0  0  0  0  0  0  0  0  0  0  0  # atno 10765 bound_to 10752
  141.1214  133.6613  156.4945 H   0  0  0  0  0  0  0  0  0  0  0  0  # atno 11005 bound_to 11000
  146.3525  140.0325  142.8649 LP  0  0  0  0  0  0  0  0  0  0  0  0  # atno 17320 bound_to 7965
  145.1396  140.9564  143.4496 LP  0  0  0  0  0  0  0  0  0  0  0  0  # atno 17321 bound_to 7965
  140.3387  144.3229  150.5972 LP  0  0  0  0  0  0  0  0  0  0  0  0  # atno 17342 bound_to 10162
  140.5584  143.2195  151.7808 LP  0  0  0  0  0  0  0  0  0  0  0  0  # atno 17343 bound_to 10162
  156.6869  130.4583  149.5611 LP  0  0  0  0  0  0  0  0  0  0  0  0  # atno 17370 bound_to 10713
  156.1889  130.6547  151.1039 LP  0  0  0  0  0  0  0  0  0  0  0  0  # atno 17371 bound_to 10713
  140.4496  134.6941  157.5033 LP  0  0  0  0  0  0  0  0  0  0  0  0  # atno 17394 bound_to 11000
  140.0174  134.6598  155.9289 LP  0  0  0  0  0  0  0  0  0  0  0  0  # atno 17395 bound_to 11000

$$$$
