AV-unprocessed.smi:45|AV-procd|sdf|415|dock4
  -GOLD-   2262016283D 1   1.00000     0.00000
 Structure written by MMmdl.
 60 63  0  0  0  0  0  0  0  0  3 V2000
  144.8705  135.0887  162.5216 C   0  0  0  0  0  0  0  0  0  0  0  0
  143.8405  135.0424  161.5451 O   0  0  0  0  0  0  0  0  0  0  0  0
  144.2034  134.9573  160.2168 C   0  0  0  0  0  0  0  0  0  0  0  0
  145.5479  134.9429  159.7657 C   0  0  0  0  0  0  0  0  0  0  0  0
  145.8410  134.8517  158.3915 C   0  0  0  0  0  0  0  0  0  0  0  0
  144.7994  134.7731  157.4461 C   0  0  0  0  0  0  0  0  0  0  0  0
  145.1167  134.6724  155.9677 C   0  0  0  0  0  0  0  0  0  0  0  0
  146.5382  134.5117  155.6995 N   0  0  0  0  0  0  0  0  0  0  0  0
  146.9995  133.8667  154.5389 C   0  0  0  0  0  0  0  0  0  0  0  0
  146.1102  133.6476  153.5437 N   0  0  0  0  0  0  0  0  0  0  0  0
  146.4930  133.0483  152.4086 C   0  0  0  0  0  0  0  0  0  0  0  0
  145.5575  132.8437  151.3952 N   0  0  0  0  0  0  0  0  0  0  0  0
  145.6486  131.6963  150.4989 C   0  0  0  0  0  0  0  0  0  0  0  0
  145.1059  132.1704  149.1517 C   0  0  0  0  0  0  0  0  0  0  0  0
  144.1072  133.2498  149.5480 C   0  0  0  0  0  0  0  0  0  0  0  0
  144.7553  133.9020  150.7782 C   0  0  1  0  0  0  0  0  0  0  0  0
  143.7159  134.5188  151.7383 C   0  0  0  0  0  0  0  0  0  0  0  0
  142.5538  133.7174  151.7721 O   0  0  0  0  0  0  0  0  0  0  0  0
  147.7582  132.6473  152.2096 N   0  3  0  0  0  0  0  0  0  0  0  0
  148.6895  132.8434  153.1743 C   0  0  0  0  0  0  0  0  0  0  0  0
  148.3524  133.4709  154.3937 C   0  0  0  0  0  0  0  0  0  0  0  0
  149.3883  133.6570  155.4736 C   0  0  0  0  0  0  0  0  0  0  0  0
  149.2851  134.6304  156.2280 O   0  0  0  0  0  0  0  0  0  0  0  0
  150.3393  132.6825  155.4336 N   0  5  0  0  0  0  0  0  0  0  0  0
  151.2846  132.4129  156.5186 C   0  0  0  0  0  0  0  0  0  0  0  0
  152.5523  131.7215  156.0292 C   0  0  0  0  0  0  0  0  0  0  0  0
  153.7150  132.3275  156.3011 N   0  0  0  0  0  0  0  0  0  0  0  0
  154.8399  131.7226  155.8615 C   0  0  0  0  0  0  0  0  0  0  0  0
  154.7992  130.5072  155.1490 C   0  0  0  0  0  0  0  0  0  0  0  0
  153.5198  129.9617  154.9216 C   0  0  0  0  0  0  0  0  0  0  0  0
  152.3979  130.5702  155.3638 N   0  0  0  0  0  0  0  0  0  0  0  0
  143.4615  134.7883  157.8861 C   0  0  0  0  0  0  0  0  0  0  0  0
  143.1661  134.8811  159.2604 C   0  0  0  0  0  0  0  0  0  0  0  0
  141.5142  134.8989  159.7658 Cl  0  0  0  0  0  0  0  0  0  0  0  0
  145.4457  134.6777  150.4425 H   0  0  0  0  0  0  0  0  0  0  0  0
  144.4226  135.1423  163.5138 H   0  0  0  0  0  0  0  0  0  0  0  0
  145.4999  135.9706  162.3962 H   0  0  0  0  0  0  0  0  0  0  0  0
  145.4917  134.1925  162.4891 H   0  0  0  0  0  0  0  0  0  0  0  0
  146.3763  135.0016  160.4553 H   0  0  0  0  0  0  0  0  0  0  0  0
  146.8706  134.8422  158.0639 H   0  0  0  0  0  0  0  0  0  0  0  0
  144.5732  133.8210  155.5560 H   0  0  0  0  0  0  0  0  0  0  0  0
  144.7524  135.5635  155.4548 H   0  0  0  0  0  0  0  0  0  0  0  0
  147.2065  134.9111  156.3439 H   0  0  0  0  0  0  0  0  0  0  0  0
  146.6698  131.3265  150.3987 H   0  0  0  0  0  0  0  0  0  0  0  0
  145.0331  130.8909  150.9008 H   0  0  0  0  0  0  0  0  0  0  0  0
  145.9107  132.6128  148.5626 H   0  0  0  0  0  0  0  0  0  0  0  0
  144.6595  131.3667  148.5655 H   0  0  0  0  0  0  0  0  0  0  0  0
  143.9122  133.9623  148.7457 H   0  0  0  0  0  0  0  0  0  0  0  0
  143.1590  132.7815  149.8169 H   0  0  0  0  0  0  0  0  0  0  0  0
  144.1220  134.6072  152.7466 H   0  0  0  0  0  0  0  0  0  0  0  0
  143.4203  135.5193  151.4254 H   0  0  0  0  0  0  0  0  0  0  0  0
  142.0589  133.8686  150.9810 H   0  0  0  0  0  0  0  0  0  0  0  0
  149.6809  132.4839  152.9383 H   0  0  0  0  0  0  0  0  0  0  0  0
  151.5806  133.3397  157.0115 H   0  0  0  0  0  0  0  0  0  0  0  0
  150.8345  131.8122  157.3113 H   0  0  0  0  0  0  0  0  0  0  0  0
  155.7781  132.2105  156.0805 H   0  0  0  0  0  0  0  0  0  0  0  0
  155.6972  130.0216  154.7975 H   0  0  0  0  0  0  0  0  0  0  0  0
  153.3960  129.0331  154.3845 H   0  0  0  0  0  0  0  0  0  0  0  0
  142.6552  134.7305  157.1695 H   0  0  0  0  0  0  0  0  0  0  0  0
  148.0311  132.1932  151.3382 H   0  0  0  0  0  0  0  0  0  0  0  0
  1  2  1  0  0  0  0
  1 36  1  0  0  0  0
  1 37  1  0  0  0  0
  1 38  1  0  0  0  0
  2  3  1  0  0  0  0
  3 33  1  0  0  0  0
  3  4  2  0  0  0  0
  4  5  1  0  0  0  0
  4 39  1  0  0  0  0
  5  6  2  0  0  0  0
  5 40  1  0  0  0  0
  6  7  1  0  0  0  0
  6 32  1  0  0  0  0
  7  8  1  0  0  0  0
  7 41  1  0  0  0  0
  7 42  1  0  0  0  0
  8  9  1  0  0  0  0
  8 43  1  0  0  0  0
  9 21  1  0  0  0  0
  9 10  2  0  0  0  0
 10 11  1  0  0  0  0
 11 12  1  0  0  0  0
 11 19  2  0  0  0  0
 12 16  1  0  0  0  0
 12 13  1  0  0  0  0
 13 14  1  0  0  0  0
 13 44  1  0  0  0  0
 13 45  1  0  0  0  0
 14 15  1  0  0  0  0
 14 46  1  0  0  0  0
 14 47  1  0  0  0  0
 15 16  1  0  0  0  0
 15 48  1  0  0  0  0
 15 49  1  0  0  0  0
 16 35  1  0  0  0  0
 16 17  1  0  0  0  0
 17 18  1  0  0  0  0
 17 50  1  0  0  0  0
 17 51  1  0  0  0  0
 18 52  1  0  0  0  0
 19 20  1  0  0  0  0
 19 60  1  0  0  0  0
 20 21  2  0  0  0  0
 20 53  1  0  0  0  0
 21 22  1  0  0  0  0
 22 23  2  0  0  0  0
 22 24  1  0  0  0  0
 24 25  1  0  0  0  0
 25 26  1  0  0  0  0
 25 54  1  0  0  0  0
 25 55  1  0  0  0  0
 26 31  1  0  0  0  0
 26 27  2  0  0  0  0
 27 28  1  0  0  0  0
 28 29  2  0  0  0  0
 28 56  1  0  0  0  0
 29 30  1  0  0  0  0
 29 57  1  0  0  0  0
 30 31  2  0  0  0  0
 30 58  1  0  0  0  0
 32 33  2  0  0  0  0
 32 59  1  0  0  0  0
 33 34  1  0  0  0  0
M  CHG  1  19   1
M  CHG  1  24  -1
M  END
> <s_m_source_file>
AV-unprocessed.smi

> <i_m_source_file_index>
45

> <i_lp_mmshare_version>
43012

> <i_f3d_flags>
0

> <s_epik_input>
W0NIM11PYzFbY0hdW2NIXWMoW2NIXWMxQ2wpW0NIMl1bTkhdYzJuYyhOM1tDSDJdW0NIMl1bQ0gyXVtDQEhdM1tDSDJdW09IXSluW2NIXWMyQyg9TylbTkhdW0NIMl1jNG5bY0hdW2NIXVtjSF1uNA==

> <s_epik_cmdline>
J2VwaWtfcHl0aG9uJywgJy1waCcsICc3LjAnLCAnLXRuJywgJzgnLCAnLW1hJywgJzIwMCcsICctbWV0YWxfYmluZGluZycsICctaW1hZScsICc8aW5maWxlLm1hZT4nLCAnLW9tYWUnLCAnPG91dGZpbGUubWFlPic=

> <r_lp_tautomer_probability>
0.575011

> <r_epik_Ionization_Penalty>
6.73124

> <r_epik_Ionization_Penalty_Charging>
6.73106

> <r_epik_Ionization_Penalty_Neutral>
0.000179426

> <r_epik_State_Penalty>
8.26145

> <r_epik_Charging_Adjusted_Penalty>
14.9925

> <i_epik_Tot_Q>
0

> <i_epik_Tot_abs_Q>
2

> <r_epik_Metal_State_Penalty>
4.22532

> <b_epik_Metal_Only>
1

> <s_epik_Chemistry_Notes>
This compound contains an electron-poor aromatic ring that is susceptible to covalent hydrolysis at low pH, typically resulting in measured values for nitrogen ring protonation that are around two units higher than predicted values.

> <s_lp_Force_Field>
OPLS_2005

> <r_lp_Energy>
44.6193

> <b_lp_Chiralities_Consistent>
1

> <s_lp_Variant>
AV-unprocessed.smi:45-9

> <Gold.Version>
5.8.1

> <Gold.Id.Protein>
6NUR|6NUR_protein|mol2

> <Gold.PLP.Fitness>
49.8605

> <Gold.PLP.PLP>
-43.3969

> <Gold.PLP.part.hbond>
-2.0000

> <Gold.PLP.part.metal>
0.0000

> <Gold.PLP.part.buried>
-6.4912

> <Gold.PLP.part.nonpolar>
-36.2411

> <Gold.PLP.part.repulsive>
0.2254

> <Gold.PLP.ligand.clash>
0.0000

> <Gold.PLP.ligand.torsion>
1.8685

> <Gold.PLP.Chemscore.Hbond>
2.0000

> <Gold.PLP.Chemscore.CHOScore>
1.0000

> <Gold.PLP.Chemscore.Metal>
0.0000

> <Gold.Chemscore.Hbonds>
donor molecule, donor type, donor heavy atom, donor atom, acceptor molecule, acceptor atom, score
      L1  H    18    52       P1 10186  1.00
      L1  H    19    60       P1 10747  1.00

> <Gold.PLP.Chemscore.Internal.Correction>
1.2005

> <Gold.Rescore>
     Score         DG    S(hbond)    S(metal)    S(lipo)     H(rot)  DE(clash)    DE(int)     intcor
     12.15     -15.23       1.76        0.00      96.52       2.90       0.03       3.05       ----

> <Gold.Chemscore.Fitness>
12.1453

> <Gold.Chemscore.DG>
-15.2283

> <Gold.Chemscore.ZeroCoef>
-5.4800

> <Gold.Chemscore.Hbond>
1.7593

> <Gold.Chemscore.Metal>
0.0000

> <Gold.Chemscore.Lipo>
96.5235

> <Gold.Chemscore.Internal_Hbond>
0.0000

> <Gold.Chemscore.DEClash>
0.0296

> <Gold.Chemscore.DEInternal>
3.0534

> <Gold.Chemscore.Rot>
2.8988

> <Gold.Chemscore.Internal.Correction>
   9.000000E+99

> <Gold.Chemscore.Hbonds>
donor molecule, donor type, donor heavy atom, donor atom, acceptor molecule, acceptor atom, score
      L1  H    18    52       P1 10186  0.35
      L1  H    19    60       P1 10747  0.97

> <Gold.Chemscore.Hbond.Weighted>
-5.8759

> <Gold.Chemscore.Metal.Weighted>
-0.0000

> <Gold.Chemscore.Lipo.Weighted>
-11.2932

> <Gold.Chemscore.Internal_Hbond.Weighted>
0.0000

> <Gold.Chemscore.DEClash.Weighted>
0.0296

> <Gold.Chemscore.DEInternal.Weighted>
3.0534

> <Gold.Chemscore.Rot.Weighted>
7.4209

> <Gold.Chemscore.Internal.Correction.Weighted>
   9.000000E+99

> <Gold.Protein.RotatedTorsions>
[ 6907 6896 6895 6894 ] final  167.03 input  -60.11 | X-H torsion
[ 7974 7965 7964 7962 ] final  147.35 input  175.53 | X-H torsion
[ 8008 7997 7996 7995 ] final   26.39 input   59.86 | X-H torsion
[ 10167 10162 10161 10158 ] final  -23.55 input  -65.29 | X-H torsion
[ 10718 10713 10712 10709 ] final -161.40 input   66.30 | X-H torsion
[ 10763 10752 10751 10750 ] final  178.98 input  -60.55 | X-H torsion
[ 11005 11000 10999 10996 ] final  166.78 input  -57.11 | X-H torsion

> <Gold.Protein.ActiveResidues>
 VAL166  LYS551  ARG553  GLY616  TRP617  ASP618  TYR619  PRO620  LYS621  CYS622 
 ASP623  PHE694  ASN695  SER759  ASP760  ASP761  ALA762  ILE779  LEU786  VAL792 
 PHE793  MET794  SER795  GLU796  ALA797  LYS798  CYS799  TRP800  GLU811  SER814 

> <Gold.Protein.RotatedAtoms>
  151.8696  133.3473  159.3730 H   0  0  0  0  0  0  0  0  0  0  0  0  # atno 6907 bound_to 6896
  150.7156  134.5126  159.5624 H   0  0  0  0  0  0  0  0  0  0  0  0  # atno 6908 bound_to 6896
  152.2656  134.7988  160.0474 H   0  0  0  0  0  0  0  0  0  0  0  0  # atno 6909 bound_to 6896
  144.8599  139.6017  143.5935 H   0  0  0  0  0  0  0  0  0  0  0  0  # atno 7974 bound_to 7965
  155.0265  140.3153  155.4774 H   0  0  0  0  0  0  0  0  0  0  0  0  # atno 8008 bound_to 7997
  156.2882  140.2188  156.5328 H   0  0  0  0  0  0  0  0  0  0  0  0  # atno 8009 bound_to 7997
  154.7407  140.0474  157.0796 H   0  0  0  0  0  0  0  0  0  0  0  0  # atno 8010 bound_to 7997
  140.7288  143.4433  151.0624 H   0  0  0  0  0  0  0  0  0  0  0  0  # atno 10167 bound_to 10162
  156.5958  130.8789  151.2901 H   0  0  0  0  0  0  0  0  0  0  0  0  # atno 10718 bound_to 10713
  154.5147  135.2790  155.1313 H   0  0  0  0  0  0  0  0  0  0  0  0  # atno 10763 bound_to 10752
  154.2894  135.6270  153.5383 H   0  0  0  0  0  0  0  0  0  0  0  0  # atno 10764 bound_to 10752
  152.9925  135.5670  154.5621 H   0  0  0  0  0  0  0  0  0  0  0  0  # atno 10765 bound_to 10752
  140.2700  134.7834  157.3667 H   0  0  0  0  0  0  0  0  0  0  0  0  # atno 11005 bound_to 11000
  146.2852  139.6985  142.9200 LP  0  0  0  0  0  0  0  0  0  0  0  0  # atno 17320 bound_to 7965
  145.4333  141.0417  143.2898 LP  0  0  0  0  0  0  0  0  0  0  0  0  # atno 17321 bound_to 7965
  139.8102  143.7961  152.3170 LP  0  0  0  0  0  0  0  0  0  0  0  0  # atno 17342 bound_to 10162
  139.8008  144.7375  150.9827 LP  0  0  0  0  0  0  0  0  0  0  0  0  # atno 17343 bound_to 10162
  157.7292  130.9668  150.1777 LP  0  0  0  0  0  0  0  0  0  0  0  0  # atno 17370 bound_to 10713
  156.2511  130.3700  149.8231 LP  0  0  0  0  0  0  0  0  0  0  0  0  # atno 17371 bound_to 10713
  140.1382  134.5006  155.8052 LP  0  0  0  0  0  0  0  0  0  0  0  0  # atno 17394 bound_to 11000
  141.2179  133.6815  156.7162 LP  0  0  0  0  0  0  0  0  0  0  0  0  # atno 17395 bound_to 11000

$$$$
