AV-unprocessed.smi:258|AV-procd|sdf|1969|dock3
  -GOLD-   2262021123D 1   1.00000     0.00000
 Structure written by MMmdl.
 57 60  0  0  0  0  0  0  0  0  1 V2000
  145.3966  131.9576  150.6764 O   0  0  0  0  0  0  0  0  0  0  0  0
  145.5366  132.6976  151.8704 C   0  0  0  0  0  0  0  0  0  0  0  0
  147.0121  132.7616  152.2836 C   0  0  0  0  0  0  0  0  0  0  0  0
  147.1129  133.4303  153.5325 O   0  0  0  0  0  0  0  0  0  0  0  0
  148.4232  133.4603  154.0833 C   0  0  2  0  0  0  0  0  0  0  0  0
  148.7554  132.1351  154.7966 C   0  0  0  0  0  0  0  0  0  0  0  0
  150.1125  132.2417  155.5079 C   0  0  0  0  0  0  0  0  0  0  0  0
  150.1425  133.4390  156.4719 C   0  0  0  0  0  0  0  0  0  0  0  0
  149.7528  134.6729  155.7870 N   0  0  0  0  0  0  0  0  0  0  0  0
  150.1357  135.8335  156.3814 C   0  0  0  0  0  0  0  0  0  0  0  0
  150.2790  135.8222  157.7329 N   0  0  0  0  0  0  0  0  0  0  0  0
  150.6679  136.9207  158.3857 C   0  0  0  0  0  0  0  0  0  0  0  0
  150.9629  138.1234  157.8919 N   0  0  0  0  0  0  0  0  0  0  0  0
  150.8147  138.1493  156.5371 C   0  0  0  0  0  0  0  0  0  0  0  0
  150.4097  137.0632  155.7073 C   0  0  0  0  0  0  0  0  0  0  0  0
  150.3683  137.4857  154.3816 N   0  0  0  0  0  0  0  0  0  0  0  0
  150.7350  138.7366  154.4253 C   0  0  0  0  0  0  0  0  0  0  0  0
  151.0175  139.2177  155.6823 N   0  0  0  0  0  0  0  0  0  0  0  0
  151.4468  140.5614  156.0255 C   0  0  0  0  0  0  0  0  0  0  0  0
  150.5890  141.2273  157.1294 C   0  0  2  0  0  0  0  0  0  0  0  0
  149.1294  141.4997  156.6818 C   0  0  0  0  0  0  0  0  0  0  0  0
  149.0845  142.2057  155.4590 O   0  0  0  0  0  0  0  0  0  0  0  0
  151.3102  142.4896  157.6679 C   0  0  1  0  0  0  0  0  0  0  0  0
  150.4314  143.5133  158.3783 C   0  0  0  0  0  0  0  0  0  0  0  0
  151.4246  144.1957  159.3081 C   0  0  0  0  0  0  0  0  0  0  0  0
  152.2194  143.1140  159.7647 O   0  0  0  0  0  0  0  0  0  0  0  0
  152.4446  142.2265  158.6741 C   0  0  0  0  0  0  0  0  0  0  0  0
  148.4727  134.6296  155.0819 C   0  0  0  0  0  0  0  0  0  0  0  0
  146.2555  131.8151  150.3088 H   0  0  0  0  0  0  0  0  0  0  0  0
  145.1629  133.7037  151.6791 H   0  0  0  0  0  0  0  0  0  0  0  0
  144.9202  132.2688  152.6611 H   0  0  0  0  0  0  0  0  0  0  0  0
  147.4510  131.7637  152.3117 H   0  0  0  0  0  0  0  0  0  0  0  0
  147.5642  133.3358  151.5383 H   0  0  0  0  0  0  0  0  0  0  0  0
  149.1557  133.6510  153.2965 H   0  0  0  0  0  0  0  0  0  0  0  0
  147.9763  131.9024  155.5237 H   0  0  0  0  0  0  0  0  0  0  0  0
  148.7809  131.3067  154.0893 H   0  0  0  0  0  0  0  0  0  0  0  0
  150.3244  131.3208  156.0517 H   0  0  0  0  0  0  0  0  0  0  0  0
  150.9043  132.3529  154.7660 H   0  0  0  0  0  0  0  0  0  0  0  0
  149.4519  133.2683  157.2986 H   0  0  0  0  0  0  0  0  0  0  0  0
  151.1384  133.5176  156.9083 H   0  0  0  0  0  0  0  0  0  0  0  0
  150.7578  136.8206  159.4574 H   0  0  0  0  0  0  0  0  0  0  0  0
  150.8030  139.3472  153.5368 H   0  0  0  0  0  0  0  0  0  0  0  0
  152.4890  140.5033  156.3415 H   0  0  0  0  0  0  0  0  0  0  0  0
  151.4338  141.1686  155.1195 H   0  0  0  0  0  0  0  0  0  0  0  0
  150.5479  140.5335  157.9708 H   0  0  0  0  0  0  0  0  0  0  0  0
  148.5799  140.5711  156.5331 H   0  0  0  0  0  0  0  0  0  0  0  0
  148.5879  142.0646  157.4411 H   0  0  0  0  0  0  0  0  0  0  0  0
  148.8230  143.0968  155.6347 H   0  0  0  0  0  0  0  0  0  0  0  0
  151.7721  142.9978  156.8194 H   0  0  0  0  0  0  0  0  0  0  0  0
  149.9488  144.2099  157.6922 H   0  0  0  0  0  0  0  0  0  0  0  0
  149.6551  143.0336  158.9739 H   0  0  0  0  0  0  0  0  0  0  0  0
  152.0481  144.9061  158.7631 H   0  0  0  0  0  0  0  0  0  0  0  0
  150.9422  144.7187  160.1342 H   0  0  0  0  0  0  0  0  0  0  0  0
  152.4764  141.1989  159.0347 H   0  0  0  0  0  0  0  0  0  0  0  0
  153.4132  142.4425  158.2217 H   0  0  0  0  0  0  0  0  0  0  0  0
  148.3092  135.5633  154.5422 H   0  0  0  0  0  0  0  0  0  0  0  0
  147.6685  134.5279  155.8118 H   0  0  0  0  0  0  0  0  0  0  0  0
  1  2  1  0  0  0  0
  1 29  1  0  0  0  0
  2  3  1  0  0  0  0
  2 30  1  0  0  0  0
  2 31  1  0  0  0  0
  3  4  1  0  0  0  0
  3 32  1  0  0  0  0
  3 33  1  0  0  0  0
  4  5  1  0  0  0  0
  5 28  1  0  0  0  0
  5  6  1  0  0  0  0
  5 34  1  0  0  0  0
  6  7  1  0  0  0  0
  6 35  1  0  0  0  0
  6 36  1  0  0  0  0
  7  8  1  0  0  0  0
  7 37  1  0  0  0  0
  7 38  1  0  0  0  0
  8  9  1  0  0  0  0
  8 39  1  0  0  0  0
  8 40  1  0  0  0  0
  9 10  1  0  0  0  0
  9 28  1  0  0  0  0
 10 15  1  0  0  0  0
 10 11  2  0  0  0  0
 11 12  1  0  0  0  0
 12 13  2  0  0  0  0
 12 41  1  0  0  0  0
 13 14  1  0  0  0  0
 14 18  1  0  0  0  0
 14 15  2  0  0  0  0
 15 16  1  0  0  0  0
 16 17  2  0  0  0  0
 17 18  1  0  0  0  0
 17 42  1  0  0  0  0
 18 19  1  0  0  0  0
 19 20  1  0  0  0  0
 19 43  1  0  0  0  0
 19 44  1  0  0  0  0
 20 21  1  0  0  0  0
 20 23  1  0  0  0  0
 20 45  1  0  0  0  0
 21 22  1  0  0  0  0
 21 46  1  0  0  0  0
 21 47  1  0  0  0  0
 22 48  1  0  0  0  0
 23 27  1  0  0  0  0
 23 24  1  0  0  0  0
 23 49  1  0  0  0  0
 24 25  1  0  0  0  0
 24 50  1  0  0  0  0
 24 51  1  0  0  0  0
 25 26  1  0  0  0  0
 25 52  1  0  0  0  0
 25 53  1  0  0  0  0
 26 27  1  0  0  0  0
 27 54  1  0  0  0  0
 27 55  1  0  0  0  0
 28 56  1  0  0  0  0
 28 57  1  0  0  0  0
M  END
> <s_m_source_file>
AV-unprocessed.smi

> <i_m_source_file_index>
258

> <i_lp_mmshare_version>
43012

> <i_f3d_flags>
0

> <s_epik_input>
W09IXVtDSDJdW0NIMl1PW0NAQEhdMVtDSDJdW0NIMl1bQ0gyXU4oW0NIMl0xKWMobltjSF1uMiljKGMyMyluW2NIXW4zW0NIMl1bQ0BIXShbQ0gyXVtPSF0pW0NAQEhdNFtDSDJdW0NIMl1PW0NIMl00

> <s_epik_cmdline>
J2VwaWtfcHl0aG9uJywgJy1waCcsICc3LjAnLCAnLXRuJywgJzgnLCAnLW1hJywgJzIwMCcsICctbWV0YWxfYmluZGluZycsICctaW1hZScsICc8aW5maWxlLm1hZT4nLCAnLW9tYWUnLCAnPG91dGZpbGUubWFlPic=

> <r_lp_tautomer_probability>
1

> <r_epik_Ionization_Penalty>
0.00349036

> <r_epik_Ionization_Penalty_Charging>
0

> <r_epik_Ionization_Penalty_Neutral>
0.00349036

> <r_epik_State_Penalty>
0.00229798

> <r_epik_Charging_Adjusted_Penalty>
0.00229798

> <i_epik_Tot_Q>
0

> <i_epik_Tot_abs_Q>
0

> <r_epik_Metal_State_Penalty>
-0

> <b_epik_Metal_Only>
0

> <s_lp_Force_Field>
OPLS_2005

> <r_lp_Energy>
47.936

> <b_lp_Chiralities_Consistent>
1

> <s_lp_Variant>
AV-unprocessed.smi:258-5

> <Gold.Version>
5.8.1

> <Gold.Id.Protein>
6NUR|6NUR_protein|mol2

> <Gold.PLP.Fitness>
46.4474

> <Gold.PLP.PLP>
-43.0245

> <Gold.PLP.part.hbond>
-1.0205

> <Gold.PLP.part.metal>
0.0000

> <Gold.PLP.part.buried>
-5.7533

> <Gold.PLP.part.nonpolar>
-35.1395

> <Gold.PLP.part.repulsive>
0.9978

> <Gold.PLP.ligand.clash>
0.0000

> <Gold.PLP.ligand.torsion>
1.6690

> <Gold.PLP.Chemscore.Hbond>
1.0000

> <Gold.PLP.Chemscore.CHOScore>
1.0000

> <Gold.PLP.Chemscore.Metal>
0.0000

> <Gold.Chemscore.Hbonds>
donor molecule, donor type, donor heavy atom, donor atom, acceptor molecule, acceptor atom, score
      L1  H    22    48       P1  8028  1.00
      L1  C    17    42       P1  7957  0.50

> <Gold.PLP.Chemscore.Internal.Correction>
0.7609

> <Gold.Rescore>
     Score         DG    S(hbond)    S(metal)    S(lipo)     H(rot)  DE(clash)    DE(int)     intcor
     11.19     -13.56       1.98        0.00      98.63       3.94       0.41       1.95       ----

> <Gold.Chemscore.Fitness>
11.1948

> <Gold.Chemscore.DG>
-13.5608

> <Gold.Chemscore.ZeroCoef>
-5.4800

> <Gold.Chemscore.Hbond>
1.9808

> <Gold.Chemscore.Metal>
0.0000

> <Gold.Chemscore.Lipo>
98.6343

> <Gold.Chemscore.Internal_Hbond>
0.0000

> <Gold.Chemscore.DEClash>
0.4143

> <Gold.Chemscore.DEInternal>
1.9517

> <Gold.Chemscore.Rot>
3.9356

> <Gold.Chemscore.Internal.Correction>
   9.000000E+99

> <Gold.Chemscore.Hbonds>
donor molecule, donor type, donor heavy atom, donor atom, acceptor molecule, acceptor atom, score
      L1  H    22    48       P1  8028  0.99

> <Gold.Chemscore.Hbond.Weighted>
-6.6157

> <Gold.Chemscore.Metal.Weighted>
-0.0000

> <Gold.Chemscore.Lipo.Weighted>
-11.5402

> <Gold.Chemscore.Internal_Hbond.Weighted>
0.0000

> <Gold.Chemscore.DEClash.Weighted>
0.4143

> <Gold.Chemscore.DEInternal.Weighted>
1.9517

> <Gold.Chemscore.Rot.Weighted>
10.0751

> <Gold.Chemscore.Internal.Correction.Weighted>
   9.000000E+99

> <Gold.Protein.RotatedTorsions>
[ 6907 6896 6895 6894 ] final  -12.75 input  -60.11 | X-H torsion
[ 7974 7965 7964 7962 ] final -165.11 input  175.53 | X-H torsion
[ 8008 7997 7996 7995 ] final  140.37 input   59.86 | X-H torsion
[ 10167 10162 10161 10158 ] final   34.18 input  -65.29 | X-H torsion
[ 10718 10713 10712 10709 ] final  176.08 input   66.30 | X-H torsion
[ 10763 10752 10751 10750 ] final  179.20 input  -60.55 | X-H torsion
[ 11005 11000 10999 10996 ] final -125.58 input  -57.11 | X-H torsion

> <Gold.Protein.ActiveResidues>
 VAL166  LYS551  ARG553  GLY616  TRP617  ASP618  TYR619  PRO620  LYS621  CYS622 
 ASP623  PHE694  ASN695  SER759  ASP760  ASP761  ALA762  ILE779  LEU786  VAL792 
 PHE793  MET794  SER795  GLU796  ALA797  LYS798  CYS799  TRP800  GLU811  SER814 

> <Gold.Protein.RotatedAtoms>
  151.3656  135.0912  159.9448 H   0  0  0  0  0  0  0  0  0  0  0  0  # atno 6907 bound_to 6896
  152.5150  133.9215  159.7547 H   0  0  0  0  0  0  0  0  0  0  0  0  # atno 6908 bound_to 6896
  150.9618  133.6382  159.2782 H   0  0  0  0  0  0  0  0  0  0  0  0  # atno 6909 bound_to 6896
  144.7279  140.2863  143.6228 H   0  0  0  0  0  0  0  0  0  0  0  0  # atno 7974 bound_to 7965
  156.2980  140.2343  156.4390 H   0  0  0  0  0  0  0  0  0  0  0  0  # atno 8008 bound_to 7997
  154.8203  140.0438  157.1426 H   0  0  0  0  0  0  0  0  0  0  0  0  # atno 8009 bound_to 7997
  154.9323  140.3018  155.5165 H   0  0  0  0  0  0  0  0  0  0  0  0  # atno 8010 bound_to 7997
  140.4339  144.1285  150.6163 H   0  0  0  0  0  0  0  0  0  0  0  0  # atno 10167 bound_to 10162
  156.9254  130.9954  151.2997 H   0  0  0  0  0  0  0  0  0  0  0  0  # atno 10718 bound_to 10713
  154.5176  135.2792  155.1290 H   0  0  0  0  0  0  0  0  0  0  0  0  # atno 10763 bound_to 10752
  154.2860  135.6276  153.5369 H   0  0  0  0  0  0  0  0  0  0  0  0  # atno 10764 bound_to 10752
  152.9930  135.5662  154.5657 H   0  0  0  0  0  0  0  0  0  0  0  0  # atno 10765 bound_to 10752
  140.9750  134.0753  157.3828 H   0  0  0  0  0  0  0  0  0  0  0  0  # atno 11005 bound_to 11000
  145.7900  139.1923  143.2108 LP  0  0  0  0  0  0  0  0  0  0  0  0  # atno 17320 bound_to 7965
  146.0764  140.7813  142.9663 LP  0  0  0  0  0  0  0  0  0  0  0  0  # atno 17321 bound_to 7965
  140.4396  143.2532  151.9490 LP  0  0  0  0  0  0  0  0  0  0  0  0  # atno 17342 bound_to 10162
  139.4786  144.5667  151.8153 LP  0  0  0  0  0  0  0  0  0  0  0  0  # atno 17343 bound_to 10162
  157.5881  130.8424  149.8619 LP  0  0  0  0  0  0  0  0  0  0  0  0  # atno 17370 bound_to 10713
  156.0471  130.3725  150.1290 LP  0  0  0  0  0  0  0  0  0  0  0  0  # atno 17371 bound_to 10713
  139.8927  135.0126  156.6860 LP  0  0  0  0  0  0  0  0  0  0  0  0  # atno 17394 bound_to 11000
  140.7272  133.9090  155.8186 LP  0  0  0  0  0  0  0  0  0  0  0  0  # atno 17395 bound_to 11000

$$$$
