AV-unprocessed.smi:1194|AV-procd|sdf|4993|dock1
  -GOLD-   22720 3593D 1   1.00000     0.00000
 Structure written by MMmdl.
 48 49  0  0  0  0  0  0  0  0  2 V2000
  152.7468  138.5648  155.0192 C   0  0  0  0  0  0  0  0  0  0  0  0
  151.2192  138.4765  154.9304 C   0  0  0  0  0  0  0  0  0  0  0  0
  150.7302  137.0488  154.6188 C   0  0  0  0  0  0  0  0  0  0  0  0
  150.6667  136.1239  155.8487 C   0  0  0  0  0  0  0  0  0  0  0  0
  151.6519  136.0593  156.5860 O   0  0  0  0  0  0  0  0  0  0  0  0
  149.5298  135.4202  156.0954 N   0  0  0  0  0  0  0  0  0  0  0  0
  149.3283  134.5643  157.2834 C   0  0  0  0  0  0  0  0  0  0  0  0
  148.2311  135.1689  158.1768 C   0  0  0  0  0  0  0  0  0  0  0  0
  146.9309  135.3877  157.3853 C   0  0  0  0  0  0  0  0  0  0  0  0
  147.2037  136.1962  156.1044 C   0  0  0  0  0  0  0  0  0  0  0  0
  148.3247  135.5640  155.2425 C   0  0  2  0  0  0  0  0  0  0  0  0
  147.9146  134.2665  154.5123 C   0  0  0  0  0  0  0  0  0  0  0  0
  147.4845  133.3037  155.1478 O   0  0  0  0  0  0  0  0  0  0  0  0
  148.0402  134.2492  153.1758 N   0  0  0  0  0  0  0  0  0  0  0  0
  147.7000  133.1148  152.3307 C   0  0  0  0  0  0  0  0  0  0  0  0
  146.2149  132.7595  152.4768 C   0  0  0  0  0  0  0  0  0  0  0  0
  145.4948  132.7642  151.1425 C   0  0  0  0  0  0  0  0  0  0  0  0
  146.0625  132.1241  150.0185 C   0  0  0  0  0  0  0  0  0  0  0  0
  145.3750  132.1506  148.7870 C   0  0  0  0  0  0  0  0  0  0  0  0
  144.1354  132.8175  148.7074 C   0  0  0  0  0  0  0  0  0  0  0  0
  143.6237  133.4192  149.8039 N   0  3  0  0  0  0  0  0  0  0  0  0
  144.2506  133.4162  151.0008 C   0  0  0  0  0  0  0  0  0  0  0  0
  153.0641  139.5828  155.2464 H   0  0  0  0  0  0  0  0  0  0  0  0
  153.2134  138.2734  154.0778 H   0  0  0  0  0  0  0  0  0  0  0  0
  153.1345  137.9129  155.8025 H   0  0  0  0  0  0  0  0  0  0  0  0
  150.7897  138.8189  155.8730 H   0  0  0  0  0  0  0  0  0  0  0  0
  150.8699  139.1662  154.1607 H   0  0  0  0  0  0  0  0  0  0  0  0
  149.7359  137.1074  154.1743 H   0  0  0  0  0  0  0  0  0  0  0  0
  151.3949  136.6018  153.8782 H   0  0  0  0  0  0  0  0  0  0  0  0
  149.0297  133.5643  156.9686 H   0  0  0  0  0  0  0  0  0  0  0  0
  150.2238  134.4075  157.8811 H   0  0  0  0  0  0  0  0  0  0  0  0
  148.0422  134.5184  159.0311 H   0  0  0  0  0  0  0  0  0  0  0  0
  148.5765  136.1208  158.5824 H   0  0  0  0  0  0  0  0  0  0  0  0
  146.4921  134.4230  157.1283 H   0  0  0  0  0  0  0  0  0  0  0  0
  146.1972  135.9042  158.0048 H   0  0  0  0  0  0  0  0  0  0  0  0
  146.2836  136.3048  155.5288 H   0  0  0  0  0  0  0  0  0  0  0  0
  147.4989  137.2093  156.3813 H   0  0  0  0  0  0  0  0  0  0  0  0
  148.5004  136.2678  154.4283 H   0  0  0  0  0  0  0  0  0  0  0  0
  148.3923  135.0786  152.7199 H   0  0  0  0  0  0  0  0  0  0  0  0
  147.9292  133.3590  151.2921 H   0  0  0  0  0  0  0  0  0  0  0  0
  148.3189  132.2593  152.6070 H   0  0  0  0  0  0  0  0  0  0  0  0
  146.1091  131.7742  152.9330 H   0  0  0  0  0  0  0  0  0  0  0  0
  145.7251  133.4648  153.1496 H   0  0  0  0  0  0  0  0  0  0  0  0
  147.0152  131.6207  150.0970 H   0  0  0  0  0  0  0  0  0  0  0  0
  145.7937  131.6677  147.9162 H   0  0  0  0  0  0  0  0  0  0  0  0
  143.5426  132.8880  147.8068 H   0  0  0  0  0  0  0  0  0  0  0  0
  143.7424  133.9338  151.8015 H   0  0  0  0  0  0  0  0  0  0  0  0
  142.7255  133.8971  149.7242 H   0  0  0  0  0  0  0  0  0  0  0  0
  1  2  1  0  0  0  0
  1 23  1  0  0  0  0
  1 24  1  0  0  0  0
  1 25  1  0  0  0  0
  2  3  1  0  0  0  0
  2 26  1  0  0  0  0
  2 27  1  0  0  0  0
  3  4  1  0  0  0  0
  3 28  1  0  0  0  0
  3 29  1  0  0  0  0
  4  5  2  0  0  0  0
  4  6  1  0  0  0  0
  6 11  1  0  0  0  0
  6  7  1  0  0  0  0
  7  8  1  0  0  0  0
  7 30  1  0  0  0  0
  7 31  1  0  0  0  0
  8  9  1  0  0  0  0
  8 32  1  0  0  0  0
  8 33  1  0  0  0  0
  9 10  1  0  0  0  0
  9 34  1  0  0  0  0
  9 35  1  0  0  0  0
 10 11  1  0  0  0  0
 10 36  1  0  0  0  0
 10 37  1  0  0  0  0
 11 12  1  0  0  0  0
 11 38  1  0  0  0  0
 12 13  2  0  0  0  0
 12 14  1  0  0  0  0
 14 15  1  0  0  0  0
 14 39  1  0  0  0  0
 15 16  1  0  0  0  0
 15 40  1  0  0  0  0
 15 41  1  0  0  0  0
 16 17  1  0  0  0  0
 16 42  1  0  0  0  0
 16 43  1  0  0  0  0
 17 22  1  0  0  0  0
 17 18  2  0  0  0  0
 18 19  1  0  0  0  0
 18 44  1  0  0  0  0
 19 20  2  0  0  0  0
 19 45  1  0  0  0  0
 20 21  1  0  0  0  0
 20 46  1  0  0  0  0
 21 22  2  0  0  0  0
 21 48  1  0  0  0  0
 22 47  1  0  0  0  0
M  CHG  1  21   1
M  END
> <s_m_source_file>
AV-unprocessed.smi

> <i_m_source_file_index>
1194

> <i_lp_mmshare_version>
43012

> <i_f3d_flags>
0

> <s_epik_input>
W0NIM11bQ0gyXVtDSDJdQyg9TylOMVtDSDJdW0NIMl1bQ0gyXVtDSDJdW0NASF0xQyg9TylbTkhdW0NIMl1bQ0gyXWMyW2NIXVtjSF1bY0hdbltjSF0y

> <s_epik_cmdline>
J2VwaWtfcHl0aG9uJywgJy1waCcsICc3LjAnLCAnLXRuJywgJzgnLCAnLW1hJywgJzIwMCcsICctbWV0YWxfYmluZGluZycsICctaW1hZScsICc8aW5maWxlLm1hZT4nLCAnLW9tYWUnLCAnPG91dGZpbGUubWFlPic=

> <r_epik_Ionization_Penalty>
2.26523

> <r_epik_Ionization_Penalty_Charging>
2.26523

> <r_epik_Ionization_Penalty_Neutral>
5.33649e-08

> <r_epik_State_Penalty>
2.41338

> <r_epik_Charging_Adjusted_Penalty>
4.67861

> <i_epik_Tot_Q>
1

> <i_epik_Tot_abs_Q>
1

> <r_epik_Metal_State_Penalty>
2.42628

> <b_epik_Metal_Only>
0

> <s_lp_Force_Field>
OPLS_2005

> <r_lp_Energy>
33.0292

> <b_lp_Chiralities_Consistent>
1

> <s_lp_Variant>
AV-unprocessed.smi:1194-4

> <Gold.Version>
5.8.1

> <Gold.Id.Protein>
6NUR|6NUR_protein|mol2

> <Gold.PLP.Fitness>
45.9799

> <Gold.PLP.PLP>
-35.4230

> <Gold.PLP.part.hbond>
-3.0000

> <Gold.PLP.part.metal>
0.0000

> <Gold.PLP.part.buried>
-2.0202

> <Gold.PLP.part.nonpolar>
-30.9726

> <Gold.PLP.part.repulsive>
0.0641

> <Gold.PLP.ligand.clash>
0.0000

> <Gold.PLP.ligand.torsion>
0.8002

> <Gold.PLP.Chemscore.Hbond>
4.0000

> <Gold.PLP.Chemscore.CHOScore>
0.0000

> <Gold.PLP.Chemscore.Metal>
0.0000

> <Gold.Chemscore.Hbonds>
donor molecule, donor type, donor heavy atom, donor atom, acceptor molecule, acceptor atom, score
      L1  H    14    39       P1  7948  0.94
      L1  H    21    48       P1 10186  2.00
      P1  H 10752 10765       L1     5  0.54

> <Gold.PLP.Chemscore.Internal.Correction>
0.1573

> <Gold.Rescore>
     Score         DG    S(hbond)    S(metal)    S(lipo)     H(rot)  DE(clash)    DE(int)     intcor
     19.88     -20.58       2.62        0.00      93.78       1.80       0.00       0.70       ----

> <Gold.Chemscore.Fitness>
19.8828

> <Gold.Chemscore.DG>
-20.5849

> <Gold.Chemscore.ZeroCoef>
-5.4800

> <Gold.Chemscore.Hbond>
2.6159

> <Gold.Chemscore.Metal>
0.0000

> <Gold.Chemscore.Lipo>
93.7771

> <Gold.Chemscore.Internal_Hbond>
0.0000

> <Gold.Chemscore.DEClash>
0.0004

> <Gold.Chemscore.DEInternal>
0.7017

> <Gold.Chemscore.Rot>
1.7985

> <Gold.Chemscore.Internal.Correction>
   9.000000E+99

> <Gold.Chemscore.Hbonds>
donor molecule, donor type, donor heavy atom, donor atom, acceptor molecule, acceptor atom, score
      L1  H    14    39       P1  7948  0.63
      L1  H    21    48       P1 10186  1.00
      P1  H 10752 10765       L1     5  0.14

> <Gold.Chemscore.Hbond.Weighted>
-8.7371

> <Gold.Chemscore.Metal.Weighted>
-0.0000

> <Gold.Chemscore.Lipo.Weighted>
-10.9719

> <Gold.Chemscore.Internal_Hbond.Weighted>
0.0000

> <Gold.Chemscore.DEClash.Weighted>
0.0004

> <Gold.Chemscore.DEInternal.Weighted>
0.7017

> <Gold.Chemscore.Rot.Weighted>
4.6041

> <Gold.Chemscore.Internal.Correction.Weighted>
   9.000000E+99

> <Gold.Protein.RotatedTorsions>
[ 6907 6896 6895 6894 ] final   91.98 input  -60.11 | X-H torsion
[ 7974 7965 7964 7962 ] final -106.82 input  175.53 | X-H torsion
[ 8008 7997 7996 7995 ] final  -76.06 input   59.86 | X-H torsion
[ 10167 10162 10161 10158 ] final -143.23 input  -65.29 | X-H torsion
[ 10718 10713 10712 10709 ] final  137.64 input   66.30 | X-H torsion
[ 10763 10752 10751 10750 ] final -145.08 input  -60.55 | X-H torsion
[ 11005 11000 10999 10996 ] final   89.18 input  -57.11 | X-H torsion

> <Gold.Protein.ActiveResidues>
 VAL166  LYS551  ARG553  GLY616  TRP617  ASP618  TYR619  PRO620  LYS621  CYS622 
 ASP623  PHE694  ASN695  SER759  ASP760  ASP761  ALA762  ILE779  LEU786  VAL792 
 PHE793  MET794  SER795  GLU796  ALA797  LYS798  CYS799  TRP800  GLU811  SER814 

> <Gold.Protein.RotatedAtoms>
  152.5451  134.1574  159.8543 H   0  0  0  0  0  0  0  0  0  0  0  0  # atno 6907 bound_to 6896
  151.1595  133.4847  159.2602 H   0  0  0  0  0  0  0  0  0  0  0  0  # atno 6908 bound_to 6896
  151.1388  135.0179  159.8671 H   0  0  0  0  0  0  0  0  0  0  0  0  # atno 6909 bound_to 6896
  145.2131  140.9104  143.3303 H   0  0  0  0  0  0  0  0  0  0  0  0  # atno 7974 bound_to 7965
  154.5471  140.0733  156.8607 H   0  0  0  0  0  0  0  0  0  0  0  0  # atno 8008 bound_to 7997
  155.3065  140.3387  155.4227 H   0  0  0  0  0  0  0  0  0  0  0  0  # atno 8009 bound_to 7997
  156.1928  140.1692  156.8044 H   0  0  0  0  0  0  0  0  0  0  0  0  # atno 8010 bound_to 7997
  139.8013  143.7830  152.2658 H   0  0  0  0  0  0  0  0  0  0  0  0  # atno 10167 bound_to 10162
  157.4339  131.1051  151.0219 H   0  0  0  0  0  0  0  0  0  0  0  0  # atno 10718 bound_to 10713
  154.8399  135.3423  154.6448 H   0  0  0  0  0  0  0  0  0  0  0  0  # atno 10763 bound_to 10752
  153.7060  135.6967  153.5055 H   0  0  0  0  0  0  0  0  0  0  0  0  # atno 10764 bound_to 10752
  153.2487  135.4360  155.0729 H   0  0  0  0  0  0  0  0  0  0  0  0  # atno 10765 bound_to 10752
  139.8880  134.8535  156.3106 H   0  0  0  0  0  0  0  0  0  0  0  0  # atno 11005 bound_to 11000
  144.9837  139.3758  143.6249 LP  0  0  0  0  0  0  0  0  0  0  0  0  # atno 17320 bound_to 7965
  146.3393  139.8989  142.8797 LP  0  0  0  0  0  0  0  0  0  0  0  0  # atno 17321 bound_to 7965
  139.7951  144.7396  150.9902 LP  0  0  0  0  0  0  0  0  0  0  0  0  # atno 17342 bound_to 10162
  140.7820  143.4402  151.0563 LP  0  0  0  0  0  0  0  0  0  0  0  0  # atno 17343 bound_to 10162
  157.1106  130.6020  149.5481 LP  0  0  0  0  0  0  0  0  0  0  0  0  # atno 17370 bound_to 10713
  155.9923  130.4981  150.7335 LP  0  0  0  0  0  0  0  0  0  0  0  0  # atno 17371 bound_to 10713
  140.9853  133.7242  156.0732 LP  0  0  0  0  0  0  0  0  0  0  0  0  # atno 17394 bound_to 11000
  140.7697  134.3847  157.5510 LP  0  0  0  0  0  0  0  0  0  0  0  0  # atno 17395 bound_to 11000

$$$$
