AV-unprocessed.smi:3198|AV-procd|sdf|12229|dock8
  -GOLD-   2272018 63D 1   1.00000     0.00000
 Structure written by MMmdl.
 37 38  0  0  0  0  0  0  0  0  1 V2000
  153.3751  141.4343  160.1135 C   0  0  0  0  0  0  0  0  0  0  0  0
  152.6783  142.5760  159.4037 C   0  0  0  0  0  0  0  0  0  0  0  0
  152.7992  143.9015  159.8690 C   0  0  0  0  0  0  0  0  0  0  0  0
  152.1270  144.9188  159.1659 C   0  0  0  0  0  0  0  0  0  0  0  0
  151.3628  144.5730  158.0344 C   0  0  0  0  0  0  0  0  0  0  0  0
  151.2972  143.2182  157.6457 C   0  0  0  0  0  0  0  0  0  0  0  0
  150.5336  142.8804  156.5186 N   0  0  0  0  0  0  0  0  0  0  0  0
  150.6360  141.5683  155.8903 C   0  0  0  0  0  0  0  0  0  0  0  0
  149.5827  141.3592  154.7930 C   0  0  0  0  0  0  0  0  0  0  0  0
  148.2962  141.3119  155.3878 O   0  0  0  0  0  0  0  0  0  0  0  0
  147.3402  140.6541  154.5736 C   0  0  0  0  0  0  0  0  0  0  0  0
  146.0976  141.5440  154.4479 C   0  0  2  0  0  0  0  0  0  0  0  0
  146.3852  142.9246  153.8615 C   0  0  0  0  0  0  0  0  0  0  0  0
  145.2522  143.7825  154.4029 C   0  0  0  0  0  0  0  0  0  0  0  0
  144.6812  142.9579  155.5605 C   0  0  0  0  0  0  0  0  0  0  0  0
  145.5839  141.8735  155.7285 O   0  0  0  0  0  0  0  0  0  0  0  0
  151.9472  142.2388  158.3189 N   0  0  0  0  0  0  0  0  0  0  0  0
  154.0252  141.8004  160.9086 H   0  0  0  0  0  0  0  0  0  0  0  0
  153.9855  140.8659  159.4111 H   0  0  0  0  0  0  0  0  0  0  0  0
  152.6410  140.7602  160.5555 H   0  0  0  0  0  0  0  0  0  0  0  0
  153.3916  144.1357  160.7411 H   0  0  0  0  0  0  0  0  0  0  0  0
  152.1956  145.9471  159.4889 H   0  0  0  0  0  0  0  0  0  0  0  0
  150.8375  145.3365  157.4794 H   0  0  0  0  0  0  0  0  0  0  0  0
  149.7718  143.4827  156.2425 H   0  0  0  0  0  0  0  0  0  0  0  0
  151.6350  141.4624  155.4671 H   0  0  0  0  0  0  0  0  0  0  0  0
  150.5451  140.7911  156.6500 H   0  0  0  0  0  0  0  0  0  0  0  0
  149.6238  142.1937  154.0915 H   0  0  0  0  0  0  0  0  0  0  0  0
  149.7822  140.4491  154.2252 H   0  0  0  0  0  0  0  0  0  0  0  0
  147.7534  140.4298  153.5889 H   0  0  0  0  0  0  0  0  0  0  0  0
  147.0660  139.7065  155.0402 H   0  0  0  0  0  0  0  0  0  0  0  0
  145.3247  141.0455  153.8596 H   0  0  0  0  0  0  0  0  0  0  0  0
  147.3380  143.3015  154.2363 H   0  0  0  0  0  0  0  0  0  0  0  0
  146.4314  142.9191  152.7722 H   0  0  0  0  0  0  0  0  0  0  0  0
  145.6210  144.7528  154.7373 H   0  0  0  0  0  0  0  0  0  0  0  0
  144.4878  143.9565  153.6448 H   0  0  0  0  0  0  0  0  0  0  0  0
  144.5883  143.5351  156.4808 H   0  0  0  0  0  0  0  0  0  0  0  0
  143.6957  142.5676  155.3023 H   0  0  0  0  0  0  0  0  0  0  0  0
  1  2  1  0  0  0  0
  1 18  1  0  0  0  0
  1 19  1  0  0  0  0
  1 20  1  0  0  0  0
  2 17  1  0  0  0  0
  2  3  2  0  0  0  0
  3  4  1  0  0  0  0
  3 21  1  0  0  0  0
  4  5  2  0  0  0  0
  4 22  1  0  0  0  0
  5  6  1  0  0  0  0
  5 23  1  0  0  0  0
  6  7  1  0  0  0  0
  6 17  2  0  0  0  0
  7  8  1  0  0  0  0
  7 24  1  0  0  0  0
  8  9  1  0  0  0  0
  8 25  1  0  0  0  0
  8 26  1  0  0  0  0
  9 10  1  0  0  0  0
  9 27  1  0  0  0  0
  9 28  1  0  0  0  0
 10 11  1  0  0  0  0
 11 12  1  0  0  0  0
 11 29  1  0  0  0  0
 11 30  1  0  0  0  0
 12 16  1  0  0  0  0
 12 13  1  0  0  0  0
 12 31  1  0  0  0  0
 13 14  1  0  0  0  0
 13 32  1  0  0  0  0
 13 33  1  0  0  0  0
 14 15  1  0  0  0  0
 14 34  1  0  0  0  0
 14 35  1  0  0  0  0
 15 16  1  0  0  0  0
 15 36  1  0  0  0  0
 15 37  1  0  0  0  0
M  END
> <s_m_source_file>
AV-unprocessed.smi

> <i_m_source_file_index>
3198

> <i_lp_mmshare_version>
43012

> <i_f3d_flags>
0

> <s_epik_input>
W0NIM11jMVtjSF1bY0hdW2NIXWMobjEpW05IXVtDSDJdW0NIMl1PW0NIMl1bQ0BASF0yW0NIMl1bQ0gyXVtDSDJdTzI=

> <s_epik_cmdline>
J2VwaWtfcHl0aG9uJywgJy1waCcsICc3LjAnLCAnLXRuJywgJzgnLCAnLW1hJywgJzIwMCcsICctbWV0YWxfYmluZGluZycsICctaW1hZScsICc8aW5maWxlLm1hZT4nLCAnLW9tYWUnLCAnPG91dGZpbGUubWFlPic=

> <r_lp_tautomer_probability>
1

> <r_epik_Ionization_Penalty>
1.29225

> <r_epik_Ionization_Penalty_Charging>
0

> <r_epik_Ionization_Penalty_Neutral>
1.29225

> <r_epik_State_Penalty>
1.3654

> <r_epik_Charging_Adjusted_Penalty>
1.3654

> <i_epik_Tot_Q>
0

> <i_epik_Tot_abs_Q>
0

> <r_epik_Metal_State_Penalty>
0.00531989

> <b_epik_Metal_Only>
0

> <s_lp_Force_Field>
OPLS_2005

> <r_lp_Energy>
18.1736

> <b_lp_Chiralities_Consistent>
1

> <s_lp_Variant>
AV-unprocessed.smi:3198-3

> <Gold.Version>
5.8.1

> <Gold.Id.Protein>
6NUR|6NUR_protein|mol2

> <Gold.PLP.Fitness>
43.3325

> <Gold.PLP.PLP>
-41.3648

> <Gold.PLP.part.hbond>
-1.0000

> <Gold.PLP.part.metal>
0.0000

> <Gold.PLP.part.buried>
-5.5035

> <Gold.PLP.part.nonpolar>
-34.2945

> <Gold.PLP.part.repulsive>
0.2943

> <Gold.PLP.ligand.clash>
0.0000

> <Gold.PLP.ligand.torsion>
0.5415

> <Gold.PLP.Chemscore.Hbond>
1.0000

> <Gold.PLP.Chemscore.CHOScore>
0.0000

> <Gold.PLP.Chemscore.Metal>
0.0000

> <Gold.Chemscore.Hbonds>
donor molecule, donor type, donor heavy atom, donor atom, acceptor molecule, acceptor atom, score
      L1  H     7    24       P1  8028  1.00

> <Gold.PLP.Chemscore.Internal.Correction>
0.0506

> <Gold.Rescore>
     Score         DG    S(hbond)    S(metal)    S(lipo)     H(rot)  DE(clash)    DE(int)     intcor
     16.15     -16.71       0.99        0.00     103.26       1.63       0.02       0.53       ----

> <Gold.Chemscore.Fitness>
16.1546

> <Gold.Chemscore.DG>
-16.7069

> <Gold.Chemscore.ZeroCoef>
-5.4800

> <Gold.Chemscore.Hbond>
0.9943

> <Gold.Chemscore.Metal>
0.0000

> <Gold.Chemscore.Lipo>
103.2614

> <Gold.Chemscore.Internal_Hbond>
0.0000

> <Gold.Chemscore.DEClash>
0.0220

> <Gold.Chemscore.DEInternal>
0.5303

> <Gold.Chemscore.Rot>
1.6311

> <Gold.Chemscore.Internal.Correction>
   9.000000E+99

> <Gold.Chemscore.Hbonds>
donor molecule, donor type, donor heavy atom, donor atom, acceptor molecule, acceptor atom, score
      L1  H     7    24       P1  8028  0.99

> <Gold.Chemscore.Hbond.Weighted>
-3.3210

> <Gold.Chemscore.Metal.Weighted>
-0.0000

> <Gold.Chemscore.Lipo.Weighted>
-12.0816

> <Gold.Chemscore.Internal_Hbond.Weighted>
0.0000

> <Gold.Chemscore.DEClash.Weighted>
0.0220

> <Gold.Chemscore.DEInternal.Weighted>
0.5303

> <Gold.Chemscore.Rot.Weighted>
4.1757

> <Gold.Chemscore.Internal.Correction.Weighted>
   9.000000E+99

> <Gold.Protein.RotatedTorsions>
[ 6907 6896 6895 6894 ] final   61.37 input  -60.11 | X-H torsion
[ 7974 7965 7964 7962 ] final  106.33 input  175.53 | X-H torsion
[ 8008 7997 7996 7995 ] final   67.42 input   59.86 | X-H torsion
[ 10167 10162 10161 10158 ] final  -62.44 input  -65.29 | X-H torsion
[ 10718 10713 10712 10709 ] final  -91.40 input   66.30 | X-H torsion
[ 10763 10752 10751 10750 ] final   62.39 input  -60.55 | X-H torsion
[ 11005 11000 10999 10996 ] final  -84.80 input  -57.11 | X-H torsion

> <Gold.Protein.ActiveResidues>
 VAL166  LYS551  ARG553  GLY616  TRP617  ASP618  TYR619  PRO620  LYS621  CYS622 
 ASP623  PHE694  ASN695  SER759  ASP760  ASP761  ALA762  ILE779  LEU786  VAL792 
 PHE793  MET794  SER795  GLU796  ALA797  LYS798  CYS799  TRP800  GLU811  SER814 

> <Gold.Protein.RotatedAtoms>
  152.4082  134.6169  160.0040 H   0  0  0  0  0  0  0  0  0  0  0  0  # atno 6907 bound_to 6896
  151.6354  133.3323  159.3126 H   0  0  0  0  0  0  0  0  0  0  0  0  # atno 6908 bound_to 6896
  150.7975  134.7087  159.6636 H   0  0  0  0  0  0  0  0  0  0  0  0  # atno 6909 bound_to 6896
  145.3080  139.2549  143.3778 H   0  0  0  0  0  0  0  0  0  0  0  0  # atno 7974 bound_to 7965
  155.6926  140.3496  155.4899 H   0  0  0  0  0  0  0  0  0  0  0  0  # atno 8008 bound_to 7997
  155.9511  140.1119  157.0998 H   0  0  0  0  0  0  0  0  0  0  0  0  # atno 8009 bound_to 7997
  154.4122  140.1194  156.5040 H   0  0  0  0  0  0  0  0  0  0  0  0  # atno 8010 bound_to 7997
  140.5939  143.2347  151.6080 H   0  0  0  0  0  0  0  0  0  0  0  0  # atno 10167 bound_to 10162
  155.9993  130.4946  150.5468 H   0  0  0  0  0  0  0  0  0  0  0  0  # atno 10718 bound_to 10713
  152.9981  135.5467  154.6185 H   0  0  0  0  0  0  0  0  0  0  0  0  # atno 10763 bound_to 10752
  154.5490  135.2825  155.1028 H   0  0  0  0  0  0  0  0  0  0  0  0  # atno 10764 bound_to 10752
  154.2276  135.6439  153.5217 H   0  0  0  0  0  0  0  0  0  0  0  0  # atno 10765 bound_to 10752
  141.1647  133.7365  156.8921 H   0  0  0  0  0  0  0  0  0  0  0  0  # atno 11005 bound_to 11000
  146.3128  140.3609  142.8665 LP  0  0  0  0  0  0  0  0  0  0  0  0  # atno 17320 bound_to 7965
  144.9039  140.7676  143.5850 LP  0  0  0  0  0  0  0  0  0  0  0  0  # atno 17321 bound_to 7965
  139.5245  144.3102  152.1000 LP  0  0  0  0  0  0  0  0  0  0  0  0  # atno 17342 bound_to 10162
  140.2271  144.4407  150.6316 LP  0  0  0  0  0  0  0  0  0  0  0  0  # atno 17343 bound_to 10162
  157.3397  131.0714  151.1797 LP  0  0  0  0  0  0  0  0  0  0  0  0  # atno 17370 bound_to 10713
  157.2650  130.6677  149.5992 LP  0  0  0  0  0  0  0  0  0  0  0  0  # atno 17371 bound_to 10713
  140.1642  134.9145  157.2752 LP  0  0  0  0  0  0  0  0  0  0  0  0  # atno 17394 bound_to 11000
  140.2577  134.3608  155.7418 LP  0  0  0  0  0  0  0  0  0  0  0  0  # atno 17395 bound_to 11000

$$$$
