AV-unprocessed.smi:92|AV-procd|sdf|842|dock3
  -GOLD-   2262017273D 1   1.00000     0.00000
 Structure written by MMmdl.
 61 64  0  0  0  0  0  0  0  0  2 V2000
  151.3045  143.0173  157.3996 C   0  0  0  0  0  0  0  0  0  0  0  0
  149.9602  142.3531  157.7311 C   0  0  0  0  0  0  0  0  0  0  0  0
  149.1138  142.1405  156.5293 N   0  3  1  0  0  0  0  0  0  0  0  0
  149.6015  141.0092  155.6993 C   0  0  0  0  0  0  0  0  0  0  0  0
  148.7895  140.8541  154.3992 C   0  0  0  0  0  0  0  0  0  0  0  0
  147.2597  140.8364  154.6003 C   0  0  1  0  0  0  0  0  0  0  0  0
  146.7182  139.5009  154.9104 N   0  0  0  0  0  0  0  0  0  0  0  0
  146.1673  139.1228  156.2106 C   0  0  0  0  0  0  0  0  0  0  0  0
  146.4013  138.6971  153.8623 C   0  0  0  0  0  0  0  0  0  0  0  0
  146.8183  139.0453  152.6162 N   0  0  0  0  0  0  0  0  0  0  0  0
  146.5383  138.2653  151.5684 C   0  0  0  0  0  0  0  0  0  0  0  0
  145.8588  137.1177  151.5412 N   0  0  0  0  0  0  0  0  0  0  0  0
  145.4214  136.7700  152.7854 C   0  0  0  0  0  0  0  0  0  0  0  0
  145.6502  137.4935  153.9902 C   0  0  0  0  0  0  0  0  0  0  0  0
  145.0567  136.8305  155.0585 N   0  0  0  0  0  0  0  0  0  0  0  0
  144.5236  135.7687  154.5187 C   0  0  0  0  0  0  0  0  0  0  0  0
  144.6686  135.6679  153.1535 N   0  0  0  0  0  0  0  0  0  0  0  0
  144.2183  134.5889  152.3229 C   0  0  0  0  0  0  0  0  0  0  0  0
  144.9167  133.2261  152.3423 C   0  0  0  0  0  0  0  0  0  0  0  0
  144.6873  133.0712  150.8227 C   0  0  0  0  0  0  0  0  0  0  0  0
  145.9127  132.6015  150.0241 C   0  0  0  0  0  0  0  0  0  0  0  0
  146.3375  131.3192  150.4395 O   0  0  0  0  0  0  0  0  0  0  0  0
  143.4921  132.2006  150.3737 C   0  0  0  0  0  0  0  0  0  0  0  0
  143.1305  132.3989  149.0222 O   0  0  0  0  0  0  0  0  0  0  0  0
  144.4632  134.6003  150.8102 C   0  0  0  0  0  0  0  0  0  0  0  0
  146.8178  141.9676  155.5610 C   0  0  1  0  0  0  0  0  0  0  0  0
  145.3061  141.9829  155.8454 C   0  0  0  0  0  0  0  0  0  0  0  0
  147.6665  142.0146  156.8465 C   0  0  0  0  0  0  0  0  0  0  0  0
  151.9337  143.0693  158.2883 H   0  0  0  0  0  0  0  0  0  0  0  0
  151.1821  144.0366  157.0345 H   0  0  0  0  0  0  0  0  0  0  0  0
  151.8487  142.4501  156.6440 H   0  0  0  0  0  0  0  0  0  0  0  0
  150.1758  141.3884  158.1924 H   0  0  0  0  0  0  0  0  0  0  0  0
  149.4149  142.9352  158.4754 H   0  0  0  0  0  0  0  0  0  0  0  0
  150.6443  141.1855  155.4325 H   0  0  0  0  0  0  0  0  0  0  0  0
  149.5987  140.0917  156.2836 H   0  0  0  0  0  0  0  0  0  0  0  0
  149.0320  141.7010  153.7559 H   0  0  0  0  0  0  0  0  0  0  0  0
  149.1126  139.9682  153.8514 H   0  0  0  0  0  0  0  0  0  0  0  0
  146.8403  141.1256  153.6367 H   0  0  0  0  0  0  0  0  0  0  0  0
  146.1820  138.0390  156.3323 H   0  0  0  0  0  0  0  0  0  0  0  0
  145.1340  139.4560  156.3058 H   0  0  0  0  0  0  0  0  0  0  0  0
  146.7352  139.5380  157.0364 H   0  0  0  0  0  0  0  0  0  0  0  0
  146.9117  138.6103  150.6154 H   0  0  0  0  0  0  0  0  0  0  0  0
  144.0008  135.0279  155.1064 H   0  0  0  0  0  0  0  0  0  0  0  0
  143.1554  134.4764  152.5395 H   0  0  0  0  0  0  0  0  0  0  0  0
  145.9733  133.3068  152.6041 H   0  0  0  0  0  0  0  0  0  0  0  0
  144.4199  132.4768  152.9594 H   0  0  0  0  0  0  0  0  0  0  0  0
  145.7018  132.5755  148.9544 H   0  0  0  0  0  0  0  0  0  0  0  0
  146.7508  133.2867  150.1559 H   0  0  0  0  0  0  0  0  0  0  0  0
  147.2650  131.2428  150.2738 H   0  0  0  0  0  0  0  0  0  0  0  0
  143.7166  131.1414  150.5033 H   0  0  0  0  0  0  0  0  0  0  0  0
  142.6089  132.4076  150.9786 H   0  0  0  0  0  0  0  0  0  0  0  0
  142.4312  133.0337  148.9884 H   0  0  0  0  0  0  0  0  0  0  0  0
  143.6093  134.9346  150.2198 H   0  0  0  0  0  0  0  0  0  0  0  0
  145.3613  135.1586  150.5404 H   0  0  0  0  0  0  0  0  0  0  0  0
  147.0260  142.9014  155.0359 H   0  0  0  0  0  0  0  0  0  0  0  0
  144.9944  141.1229  156.4374 H   0  0  0  0  0  0  0  0  0  0  0  0
  144.7327  141.9732  154.9179 H   0  0  0  0  0  0  0  0  0  0  0  0
  145.0218  142.8791  156.3975 H   0  0  0  0  0  0  0  0  0  0  0  0
  147.4968  141.1358  157.4677 H   0  0  0  0  0  0  0  0  0  0  0  0
  147.3458  142.8714  157.4379 H   0  0  0  0  0  0  0  0  0  0  0  0
  149.2157  142.9683  155.9592 H   0  0  0  0  0  0  0  0  0  0  0  0
  1  2  1  0  0  0  0
  1 29  1  0  0  0  0
  1 30  1  0  0  0  0
  1 31  1  0  0  0  0
  2  3  1  0  0  0  0
  2 32  1  0  0  0  0
  2 33  1  0  0  0  0
  3 28  1  0  0  0  0
  3  4  1  0  0  0  0
  3 61  1  0  0  0  0
  4  5  1  0  0  0  0
  4 34  1  0  0  0  0
  4 35  1  0  0  0  0
  5  6  1  0  0  0  0
  5 36  1  0  0  0  0
  5 37  1  0  0  0  0
  6  7  1  0  0  0  0
  6 26  1  0  0  0  0
  6 38  1  0  0  0  0
  7  8  1  0  0  0  0
  7  9  1  0  0  0  0
  8 39  1  0  0  0  0
  8 40  1  0  0  0  0
  8 41  1  0  0  0  0
  9 14  1  0  0  0  0
  9 10  2  0  0  0  0
 10 11  1  0  0  0  0
 11 12  2  0  0  0  0
 11 42  1  0  0  0  0
 12 13  1  0  0  0  0
 13 17  1  0  0  0  0
 13 14  2  0  0  0  0
 14 15  1  0  0  0  0
 15 16  2  0  0  0  0
 16 17  1  0  0  0  0
 16 43  1  0  0  0  0
 17 18  1  0  0  0  0
 18 25  1  0  0  0  0
 18 19  1  0  0  0  0
 18 44  1  0  0  0  0
 19 20  1  0  0  0  0
 19 45  1  0  0  0  0
 19 46  1  0  0  0  0
 20 21  1  0  0  0  0
 20 23  1  0  0  0  0
 20 25  1  0  0  0  0
 21 22  1  0  0  0  0
 21 47  1  0  0  0  0
 21 48  1  0  0  0  0
 22 49  1  0  0  0  0
 23 24  1  0  0  0  0
 23 50  1  0  0  0  0
 23 51  1  0  0  0  0
 24 52  1  0  0  0  0
 25 53  1  0  0  0  0
 25 54  1  0  0  0  0
 26 27  1  0  0  0  0
 26 28  1  0  0  0  0
 26 55  1  0  0  0  0
 27 56  1  0  0  0  0
 27 57  1  0  0  0  0
 27 58  1  0  0  0  0
 28 59  1  0  0  0  0
 28 60  1  0  0  0  0
M  CHG  1   3   1
M  END
> <s_m_source_file>
AV-unprocessed.smi

> <i_m_source_file_index>
92

> <i_lp_mmshare_version>
43012

> <i_f3d_flags>
0

> <s_epik_input>
W0NIM11bQ0gyXU4xW0NIMl1bQ0gyXVtDQEhdKFtDQEBIXShbQ0gzXSlbQ0gyXTEpTihbQ0gzXSljKG5bY0hdbjIpYyhjMjMpbltjSF1uM1tDSF0oW0NIMl00KVtDSDJdQzQoW0NIMl1bT0hdKVtDSDJdW09IXQ==

> <s_epik_cmdline>
J2VwaWtfcHl0aG9uJywgJy1waCcsICc3LjAnLCAnLXRuJywgJzgnLCAnLW1hJywgJzIwMCcsICctbWV0YWxfYmluZGluZycsICctaW1hZScsICc8aW5maWxlLm1hZT4nLCAnLW9tYWUnLCAnPG91dGZpbGUubWFlPic=

> <r_lp_tautomer_probability>
1

> <r_epik_Ionization_Penalty>
0.00235514

> <r_epik_Ionization_Penalty_Charging>
0.00137877

> <r_epik_Ionization_Penalty_Neutral>
0.000976366

> <r_epik_State_Penalty>
-0

> <r_epik_Charging_Adjusted_Penalty>
0.00137877

> <i_epik_Tot_Q>
1

> <i_epik_Tot_abs_Q>
1

> <r_epik_Metal_State_Penalty>
-0

> <b_epik_Metal_Only>
0

> <s_lp_Force_Field>
OPLS_2005

> <r_lp_Energy>
58.3953

> <b_lp_Chiralities_Consistent>
1

> <s_lp_Variant>
AV-unprocessed.smi:92-2

> <Gold.Version>
5.8.1

> <Gold.Id.Protein>
6NUR|6NUR_protein|mol2

> <Gold.PLP.Fitness>
51.8207

> <Gold.PLP.PLP>
-40.6861

> <Gold.PLP.part.hbond>
-4.0785

> <Gold.PLP.part.metal>
0.0000

> <Gold.PLP.part.buried>
-8.2238

> <Gold.PLP.part.nonpolar>
-30.7624

> <Gold.PLP.part.repulsive>
1.3530

> <Gold.PLP.ligand.clash>
0.0000

> <Gold.PLP.ligand.torsion>
1.1331

> <Gold.PLP.Chemscore.Hbond>
4.1343

> <Gold.PLP.Chemscore.CHOScore>
0.0000

> <Gold.PLP.Chemscore.Metal>
0.0000

> <Gold.Chemscore.Hbonds>
donor molecule, donor type, donor heavy atom, donor atom, acceptor molecule, acceptor atom, score
      L1  H     3    61       P1  8028  2.00
      L1  H    22    49       P1 10747  1.00
      L1  H    24    52       P1 10186  0.94
      P1  H 10785 10796       L1    24  0.18

> <Gold.PLP.Chemscore.Internal.Correction>
0.9981

> <Gold.Rescore>
     Score         DG    S(hbond)    S(metal)    S(lipo)     H(rot)  DE(clash)    DE(int)     intcor
     13.35     -16.98       3.07        0.00      81.08       3.22       0.02       3.61       ----

> <Gold.Chemscore.Fitness>
13.3471

> <Gold.Chemscore.DG>
-16.9819

> <Gold.Chemscore.ZeroCoef>
-5.4800

> <Gold.Chemscore.Hbond>
3.0730

> <Gold.Chemscore.Metal>
0.0000

> <Gold.Chemscore.Lipo>
81.0780

> <Gold.Chemscore.Internal_Hbond>
0.0000

> <Gold.Chemscore.DEClash>
0.0220

> <Gold.Chemscore.DEInternal>
3.6128

> <Gold.Chemscore.Rot>
3.2219

> <Gold.Chemscore.Internal.Correction>
   9.000000E+99

> <Gold.Chemscore.Hbonds>
donor molecule, donor type, donor heavy atom, donor atom, acceptor molecule, acceptor atom, score
      L1  H     3    61       P1  8028  0.94
      L1  H    22    49       P1 10747  1.00
      L1  H    24    52       P1 10186  0.90
      P1  H 10785 10796       L1    24  0.01

> <Gold.Chemscore.Hbond.Weighted>
-10.2639

> <Gold.Chemscore.Metal.Weighted>
-0.0000

> <Gold.Chemscore.Lipo.Weighted>
-9.4861

> <Gold.Chemscore.Internal_Hbond.Weighted>
0.0000

> <Gold.Chemscore.DEClash.Weighted>
0.0220

> <Gold.Chemscore.DEInternal.Weighted>
3.6128

> <Gold.Chemscore.Rot.Weighted>
8.2482

> <Gold.Chemscore.Internal.Correction.Weighted>
   9.000000E+99

> <Gold.Protein.RotatedTorsions>
[ 6907 6896 6895 6894 ] final  -52.11 input  -60.11 | X-H torsion
[ 7974 7965 7964 7962 ] final  -38.20 input  175.53 | X-H torsion
[ 8008 7997 7996 7995 ] final   44.27 input   59.86 | X-H torsion
[ 10167 10162 10161 10158 ] final   51.18 input  -65.29 | X-H torsion
[ 10718 10713 10712 10709 ] final   65.93 input   66.30 | X-H torsion
[ 10763 10752 10751 10750 ] final  131.62 input  -60.55 | X-H torsion
[ 11005 11000 10999 10996 ] final  156.07 input  -57.11 | X-H torsion

> <Gold.Protein.ActiveResidues>
 VAL166  LYS551  ARG553  GLY616  TRP617  ASP618  TYR619  PRO620  LYS621  CYS622 
 ASP623  PHE694  ASN695  SER759  ASP760  ASP761  ALA762  ILE779  LEU786  VAL792 
 PHE793  MET794  SER795  GLU796  ALA797  LYS798  CYS799  TRP800  GLU811  SER814 

> <Gold.Protein.RotatedAtoms>
  150.8548  134.7883  159.7036 H   0  0  0  0  0  0  0  0  0  0  0  0  # atno 6907 bound_to 6896
  152.4603  134.5197  159.9788 H   0  0  0  0  0  0  0  0  0  0  0  0  # atno 6908 bound_to 6896
  151.5311  133.3411  159.2954 H   0  0  0  0  0  0  0  0  0  0  0  0  # atno 6909 bound_to 6896
  146.0507  140.6485  142.9043 H   0  0  0  0  0  0  0  0  0  0  0  0  # atno 7974 bound_to 7965
  155.3165  140.3394  155.4242 H   0  0  0  0  0  0  0  0  0  0  0  0  # atno 8008 bound_to 7997
  156.1930  140.1704  156.8092 H   0  0  0  0  0  0  0  0  0  0  0  0  # atno 8009 bound_to 7997
  154.5465  140.0714  156.8580 H   0  0  0  0  0  0  0  0  0  0  0  0  # atno 8010 bound_to 7997
  140.2647  144.3334  150.6307 H   0  0  0  0  0  0  0  0  0  0  0  0  # atno 10167 bound_to 10162
  157.6137  130.9240  150.0041 H   0  0  0  0  0  0  0  0  0  0  0  0  # atno 10718 bound_to 10713
  153.7774  135.3173  155.3361 H   0  0  0  0  0  0  0  0  0  0  0  0  # atno 10763 bound_to 10752
  154.8174  135.4627  154.0685 H   0  0  0  0  0  0  0  0  0  0  0  0  # atno 10764 bound_to 10752
  153.1963  135.6916  153.8373 H   0  0  0  0  0  0  0  0  0  0  0  0  # atno 10765 bound_to 10752
  140.1640  134.8590  157.2609 H   0  0  0  0  0  0  0  0  0  0  0  0  # atno 11005 bound_to 11000
  144.7121  140.4077  143.7072 LP  0  0  0  0  0  0  0  0  0  0  0  0  # atno 17320 bound_to 7965
  145.6729  139.1603  143.2744 LP  0  0  0  0  0  0  0  0  0  0  0  0  # atno 17321 bound_to 7965
  140.5938  143.2167  151.7203 LP  0  0  0  0  0  0  0  0  0  0  0  0  # atno 17342 bound_to 10162
  139.5006  144.3899  152.0291 LP  0  0  0  0  0  0  0  0  0  0  0  0  # atno 17343 bound_to 10162
  156.1249  130.3645  149.9825 LP  0  0  0  0  0  0  0  0  0  0  0  0  # atno 17370 bound_to 10713
  156.7898  130.9252  151.3646 LP  0  0  0  0  0  0  0  0  0  0  0  0  # atno 17371 bound_to 10713
  140.2456  134.3744  155.7463 LP  0  0  0  0  0  0  0  0  0  0  0  0  # atno 17394 bound_to 11000
  141.2212  133.7288  156.8856 LP  0  0  0  0  0  0  0  0  0  0  0  0  # atno 17395 bound_to 11000

$$$$
