AV-unprocessed.smi:1809|AV-procd|sdf|7310|dock6
  -GOLD-   22720 8563D 1   1.00000     0.00000
 Structure written by MMmdl.
 40 42  0  0  0  0  0  0  0  0  2 V2000
  150.5508  142.0910  156.3066 C   0  0  0  0  0  0  0  0  0  0  0  0
  150.1622  140.8702  155.5448 C   0  0  0  0  0  0  0  0  0  0  0  0
  151.0579  140.0442  154.9901 N   0  0  0  0  0  0  0  0  0  0  0  0
  150.4562  138.9786  154.3356 N   0  0  0  0  0  0  0  0  0  0  0  0
  149.1195  139.0335  154.4150 C   0  0  0  0  0  0  0  0  0  0  0  0
  148.2544  138.0681  153.8353 N   0  0  0  0  0  0  0  0  0  0  0  0
  146.9672  137.8192  154.1325 C   0  0  0  0  0  0  0  0  0  0  0  0
  146.3111  138.4002  154.9969 O   0  0  0  0  0  0  0  0  0  0  0  0
  146.4693  136.8443  153.3586 N   0  0  0  0  0  0  0  0  0  0  0  0
  145.0979  136.3482  153.4052 C   0  0  0  0  0  0  0  0  0  0  0  0
  144.4924  136.2199  151.9903 C   0  0  1  0  0  0  0  0  0  0  0  0
  145.4345  135.5006  150.9934 C   0  0  0  0  0  0  0  0  0  0  0  0
  145.4072  134.0502  151.2581 N   0  3  2  0  0  0  0  0  0  0  0  0
  146.2442  133.1755  150.4185 C   0  0  0  0  0  0  0  0  0  0  0  0
  145.5685  131.7919  150.4902 C   0  0  0  0  0  0  0  0  0  0  0  0
  144.2533  132.0094  151.2593 C   0  0  0  0  0  0  0  0  0  0  0  0
  144.0463  133.5183  151.1722 C   0  0  1  0  0  0  0  0  0  0  0  0
  143.1855  134.1865  152.2483 C   0  0  0  0  0  0  0  0  0  0  0  0
  143.1975  135.5977  152.0107 O   0  0  0  0  0  0  0  0  0  0  0  0
  148.4822  140.4063  155.3043 S   0  0  0  0  0  0  0  0  0  0  0  0
  151.6292  142.1180  156.4670 H   0  0  0  0  0  0  0  0  0  0  0  0
  150.0544  142.0987  157.2771 H   0  0  0  0  0  0  0  0  0  0  0  0
  150.2561  142.9834  155.7544 H   0  0  0  0  0  0  0  0  0  0  0  0
  148.6628  137.5069  153.1026 H   0  0  0  0  0  0  0  0  0  0  0  0
  147.0820  136.4210  152.6767 H   0  0  0  0  0  0  0  0  0  0  0  0
  145.1309  135.3642  153.8736 H   0  0  0  0  0  0  0  0  0  0  0  0
  144.4769  136.9653  154.0556 H   0  0  0  0  0  0  0  0  0  0  0  0
  144.3391  137.2329  151.6161 H   0  0  0  0  0  0  0  0  0  0  0  0
  145.1074  135.6874  149.9694 H   0  0  0  0  0  0  0  0  0  0  0  0
  146.4542  135.8785  151.0763 H   0  0  0  0  0  0  0  0  0  0  0  0
  146.2475  133.5377  149.3891 H   0  0  0  0  0  0  0  0  0  0  0  0
  147.2739  133.1581  150.7766 H   0  0  0  0  0  0  0  0  0  0  0  0
  145.3724  131.4177  149.4847 H   0  0  0  0  0  0  0  0  0  0  0  0
  146.1992  131.0600  150.9957 H   0  0  0  0  0  0  0  0  0  0  0  0
  143.4194  131.4441  150.8419 H   0  0  0  0  0  0  0  0  0  0  0  0
  144.3783  131.7066  152.3000 H   0  0  0  0  0  0  0  0  0  0  0  0
  143.6370  133.7536  150.1871 H   0  0  0  0  0  0  0  0  0  0  0  0
  142.1582  133.8264  152.1933 H   0  0  0  0  0  0  0  0  0  0  0  0
  143.5530  133.9512  153.2466 H   0  0  0  0  0  0  0  0  0  0  0  0
  145.7092  133.9091  152.2117 H   0  0  0  0  0  0  0  0  0  0  0  0
  1  2  1  0  0  0  0
  1 21  1  0  0  0  0
  1 22  1  0  0  0  0
  1 23  1  0  0  0  0
  2 20  1  0  0  0  0
  2  3  2  0  0  0  0
  3  4  1  0  0  0  0
  4  5  2  0  0  0  0
  5  6  1  0  0  0  0
  5 20  1  0  0  0  0
  6  7  1  0  0  0  0
  6 24  1  0  0  0  0
  7  8  2  0  0  0  0
  7  9  1  0  0  0  0
  9 10  1  0  0  0  0
  9 25  1  0  0  0  0
 10 11  1  0  0  0  0
 10 26  1  0  0  0  0
 10 27  1  0  0  0  0
 11 19  1  0  0  0  0
 11 12  1  0  0  0  0
 11 28  1  0  0  0  0
 12 13  1  0  0  0  0
 12 29  1  0  0  0  0
 12 30  1  0  0  0  0
 13 17  1  0  0  0  0
 13 14  1  0  0  0  0
 13 40  1  0  0  0  0
 14 15  1  0  0  0  0
 14 31  1  0  0  0  0
 14 32  1  0  0  0  0
 15 16  1  0  0  0  0
 15 33  1  0  0  0  0
 15 34  1  0  0  0  0
 16 17  1  0  0  0  0
 16 35  1  0  0  0  0
 16 36  1  0  0  0  0
 17 18  1  0  0  0  0
 17 37  1  0  0  0  0
 18 19  1  0  0  0  0
 18 38  1  0  0  0  0
 18 39  1  0  0  0  0
M  CHG  1  13   1
M  END
> <s_m_source_file>
AV-unprocessed.smi

> <i_m_source_file_index>
1809

> <i_lp_mmshare_version>
43012

> <i_f3d_flags>
0

> <s_epik_input>
W0NIM11jMW5uYyhzMSlbTkhdQyg9TylbTkhdW0NIMl1bQ0BIXShbQ0gyXTIpT1tDSDJdW0NAQEhdKE4yMylbQ0gyXVtDSDJdW0NIMl0z

> <s_epik_cmdline>
J2VwaWtfcHl0aG9uJywgJy1waCcsICc3LjAnLCAnLXRuJywgJzgnLCAnLW1hJywgJzIwMCcsICctbWV0YWxfYmluZGluZycsICctaW1hZScsICc8aW5maWxlLm1hZT4nLCAnLW9tYWUnLCAnPG91dGZpbGUubWFlPic=

> <r_lp_tautomer_probability>
1

> <r_epik_Ionization_Penalty>
0.112474

> <r_epik_Ionization_Penalty_Charging>
0.108916

> <r_epik_Ionization_Penalty_Neutral>
0.00355844

> <r_epik_State_Penalty>
0.0565397

> <r_epik_Charging_Adjusted_Penalty>
0.165456

> <i_epik_Tot_Q>
1

> <i_epik_Tot_abs_Q>
1

> <r_epik_Metal_State_Penalty>
0.422831

> <b_epik_Metal_Only>
0

> <s_lp_Force_Field>
OPLS_2005

> <r_lp_Energy>
36.2916

> <b_lp_Chiralities_Consistent>
1

> <s_lp_Variant>
AV-unprocessed.smi:1809-2

> <Gold.Version>
5.8.1

> <Gold.Id.Protein>
6NUR|6NUR_protein|mol2

> <Gold.PLP.Fitness>
40.3624

> <Gold.PLP.PLP>
-32.0363

> <Gold.PLP.part.hbond>
-3.0476

> <Gold.PLP.part.metal>
0.0000

> <Gold.PLP.part.buried>
-6.0337

> <Gold.PLP.part.nonpolar>
-23.7893

> <Gold.PLP.part.repulsive>
0.5433

> <Gold.PLP.ligand.clash>
0.0000

> <Gold.PLP.ligand.torsion>
0.2071

> <Gold.PLP.Chemscore.Hbond>
2.9100

> <Gold.PLP.Chemscore.CHOScore>
0.0000

> <Gold.PLP.Chemscore.Metal>
0.0000

> <Gold.Chemscore.Hbonds>
donor molecule, donor type, donor heavy atom, donor atom, acceptor molecule, acceptor atom, score
      L1  H     6    24       P1  7948  1.00
      L1  H     9    25       P1  7948  0.98
      P1  H  7989  7998       L1     3  0.80

> <Gold.PLP.Chemscore.Internal.Correction>
0.0103

> <Gold.Rescore>
     Score         DG    S(hbond)    S(metal)    S(lipo)     H(rot)  DE(clash)    DE(int)     intcor
     16.70     -17.24       1.93        0.00      74.71       1.34       0.19       0.36       ----

> <Gold.Chemscore.Fitness>
16.6961

> <Gold.Chemscore.DG>
-17.2445

> <Gold.Chemscore.ZeroCoef>
-5.4800

> <Gold.Chemscore.Hbond>
1.9316

> <Gold.Chemscore.Metal>
0.0000

> <Gold.Chemscore.Lipo>
74.7097

> <Gold.Chemscore.Internal_Hbond>
0.0000

> <Gold.Chemscore.DEClash>
0.1869

> <Gold.Chemscore.DEInternal>
0.3615

> <Gold.Chemscore.Rot>
1.3391

> <Gold.Chemscore.Internal.Correction>
   9.000000E+99

> <Gold.Chemscore.Hbonds>
donor molecule, donor type, donor heavy atom, donor atom, acceptor molecule, acceptor atom, score
      L1  H     6    24       P1  7948  1.00
      L1  H     9    25       P1  7948  0.86
      P1  H  7989  7998       L1     3  0.07

> <Gold.Chemscore.Hbond.Weighted>
-6.4515

> <Gold.Chemscore.Metal.Weighted>
-0.0000

> <Gold.Chemscore.Lipo.Weighted>
-8.7410

> <Gold.Chemscore.Internal_Hbond.Weighted>
0.0000

> <Gold.Chemscore.DEClash.Weighted>
0.1869

> <Gold.Chemscore.DEInternal.Weighted>
0.3615

> <Gold.Chemscore.Rot.Weighted>
3.4281

> <Gold.Chemscore.Internal.Correction.Weighted>
   9.000000E+99

> <Gold.Protein.RotatedTorsions>
[ 6907 6896 6895 6894 ] final  -31.31 input  -60.11 | X-H torsion
[ 7974 7965 7964 7962 ] final   20.33 input  175.53 | X-H torsion
[ 8008 7997 7996 7995 ] final  -38.08 input   59.86 | X-H torsion
[ 10167 10162 10161 10158 ] final   86.18 input  -65.29 | X-H torsion
[ 10718 10713 10712 10709 ] final -154.67 input   66.30 | X-H torsion
[ 10763 10752 10751 10750 ] final   95.13 input  -60.55 | X-H torsion
[ 11005 11000 10999 10996 ] final   17.71 input  -57.11 | X-H torsion

> <Gold.Protein.ActiveResidues>
 VAL166  LYS551  ARG553  GLY616  TRP617  ASP618  TYR619  PRO620  LYS621  CYS622 
 ASP623  PHE694  ASN695  SER759  ASP760  ASP761  ALA762  ILE779  LEU786  VAL792 
 PHE793  MET794  SER795  GLU796  ALA797  LYS798  CYS799  TRP800  GLU811  SER814 

> <Gold.Protein.RotatedAtoms>
  151.0938  134.9932  159.8415 H   0  0  0  0  0  0  0  0  0  0  0  0  # atno 6907 bound_to 6896
  152.5431  134.2033  159.8731 H   0  0  0  0  0  0  0  0  0  0  0  0  # atno 6908 bound_to 6896
  151.2071  133.4533  159.2631 H   0  0  0  0  0  0  0  0  0  0  0  0  # atno 6909 bound_to 6896
  146.2115  139.8185  142.8685 H   0  0  0  0  0  0  0  0  0  0  0  0  # atno 7974 bound_to 7965
  154.4042  140.1587  156.2641 H   0  0  0  0  0  0  0  0  0  0  0  0  # atno 8008 bound_to 7997
  155.9010  140.3433  155.6004 H   0  0  0  0  0  0  0  0  0  0  0  0  # atno 8009 bound_to 7997
  155.7447  140.0797  157.2220 H   0  0  0  0  0  0  0  0  0  0  0  0  # atno 8010 bound_to 7997
  139.8902  144.6390  150.8747 H   0  0  0  0  0  0  0  0  0  0  0  0  # atno 10167 bound_to 10162
  156.5024  130.8397  151.2614 H   0  0  0  0  0  0  0  0  0  0  0  0  # atno 10718 bound_to 10713
  153.2496  135.4265  155.0784 H   0  0  0  0  0  0  0  0  0  0  0  0  # atno 10763 bound_to 10752
  154.8376  135.3422  154.6531 H   0  0  0  0  0  0  0  0  0  0  0  0  # atno 10764 bound_to 10752
  153.6953  135.7031  153.5135 H   0  0  0  0  0  0  0  0  0  0  0  0  # atno 10765 bound_to 10752
  140.4329  134.1401  155.7682 H   0  0  0  0  0  0  0  0  0  0  0  0  # atno 11005 bound_to 11000
  145.3121  141.0222  143.3548 LP  0  0  0  0  0  0  0  0  0  0  0  0  # atno 17320 bound_to 7965
  144.8928  139.4752  143.6669 LP  0  0  0  0  0  0  0  0  0  0  0  0  # atno 17321 bound_to 7965
  140.7728  143.3516  151.2003 LP  0  0  0  0  0  0  0  0  0  0  0  0  # atno 17342 bound_to 10162
  139.7117  143.9366  152.2950 LP  0  0  0  0  0  0  0  0  0  0  0  0  # atno 17343 bound_to 10162
  157.7461  130.9977  150.2826 LP  0  0  0  0  0  0  0  0  0  0  0  0  # atno 17370 bound_to 10713
  156.3319  130.3802  149.7483 LP  0  0  0  0  0  0  0  0  0  0  0  0  # atno 17371 bound_to 10713
  141.1738  133.8555  157.1487 LP  0  0  0  0  0  0  0  0  0  0  0  0  # atno 17394 bound_to 11000
  140.0122  134.9983  157.0418 LP  0  0  0  0  0  0  0  0  0  0  0  0  # atno 17395 bound_to 11000

$$$$
