AV-unprocessed.smi:3287|AV-procd|sdf|12599|dock5
  -GOLD-   2272018523D 1   1.00000     0.00000
 Structure written by MMmdl.
 43 44  0  0  0  0  0  0  0  0  2 V2000
  144.6420  132.1355  150.4151 C   0  0  0  0  0  0  0  0  0  0  0  0
  144.8881  132.8810  151.7390 C   0  0  1  0  0  0  0  0  0  0  0  0
  146.3509  133.3648  151.7996 C   0  0  0  0  0  0  0  0  0  0  0  0
  146.6630  134.1103  153.1066 C   0  0  0  0  0  0  0  0  0  0  0  0
  145.7066  135.2914  153.3407 C   0  0  1  0  0  0  0  0  0  0  0  0
  145.9897  136.3874  152.3846 N   0  3  0  0  0  0  0  0  0  0  0  0
  145.7443  137.7543  152.8931 C   0  0  0  0  0  0  0  0  0  0  0  0
  146.6091  138.7916  152.1563 C   0  0  2  0  0  0  0  0  0  0  0  0
  147.4385  138.1197  151.2278 O   0  0  0  0  0  0  0  0  0  0  0  0
  147.4174  139.6245  153.1389 C   0  0  0  0  0  0  0  0  0  0  0  0
  148.4255  139.0244  153.9222 C   0  0  0  0  0  0  0  0  0  0  0  0
  149.1575  139.8334  154.8143 C   0  0  0  0  0  0  0  0  0  0  0  0
  148.9449  141.1591  154.9578 N   0  0  0  0  0  0  0  0  0  0  0  0
  147.9809  141.7297  154.2042 C   0  0  0  0  0  0  0  0  0  0  0  0
  147.1934  141.0115  153.2819 C   0  0  0  0  0  0  0  0  0  0  0  0
  144.2420  134.8112  153.2705 C   0  0  0  0  0  0  0  0  0  0  0  0
  143.9094  134.0649  151.9595 C   0  0  2  0  0  0  0  0  0  0  0  0
  142.4340  133.6264  151.9716 C   0  0  0  0  0  0  0  0  0  0  0  0
  144.7007  132.8115  149.5615 H   0  0  0  0  0  0  0  0  0  0  0  0
  143.6653  131.6532  150.3961 H   0  0  0  0  0  0  0  0  0  0  0  0
  145.3833  131.3497  150.2660 H   0  0  0  0  0  0  0  0  0  0  0  0
  144.7423  132.1654  152.5500 H   0  0  0  0  0  0  0  0  0  0  0  0
  147.0264  132.5137  151.7041 H   0  0  0  0  0  0  0  0  0  0  0  0
  146.5598  134.0137  150.9481 H   0  0  0  0  0  0  0  0  0  0  0  0
  146.5800  133.4119  153.9406 H   0  0  0  0  0  0  0  0  0  0  0  0
  147.6978  134.4552  153.1033 H   0  0  0  0  0  0  0  0  0  0  0  0
  145.9013  135.6769  154.3425 H   0  0  0  0  0  0  0  0  0  0  0  0
  146.9692  136.3368  152.1422 H   0  0  0  0  0  0  0  0  0  0  0  0
  144.6922  138.0035  152.7551 H   0  0  0  0  0  0  0  0  0  0  0  0
  145.9439  137.7900  153.9651 H   0  0  0  0  0  0  0  0  0  0  0  0
  145.9625  139.4621  151.5881 H   0  0  0  0  0  0  0  0  0  0  0  0
  147.8443  137.3857  151.6648 H   0  0  0  0  0  0  0  0  0  0  0  0
  148.6384  137.9681  153.8450 H   0  0  0  0  0  0  0  0  0  0  0  0
  149.9360  139.4041  155.4275 H   0  0  0  0  0  0  0  0  0  0  0  0
  147.8334  142.7911  154.3384 H   0  0  0  0  0  0  0  0  0  0  0  0
  146.4379  141.5192  152.7003 H   0  0  0  0  0  0  0  0  0  0  0  0
  144.0578  134.1405  154.1113 H   0  0  0  0  0  0  0  0  0  0  0  0
  143.5569  135.6469  153.4122 H   0  0  0  0  0  0  0  0  0  0  0  0
  144.0319  134.7666  151.1331 H   0  0  0  0  0  0  0  0  0  0  0  0
  142.2517  132.8669  152.7326 H   0  0  0  0  0  0  0  0  0  0  0  0
  142.1239  133.2190  151.0097 H   0  0  0  0  0  0  0  0  0  0  0  0
  141.7765  134.4700  152.1828 H   0  0  0  0  0  0  0  0  0  0  0  0
  145.4465  136.2392  151.5462 H   0  0  0  0  0  0  0  0  0  0  0  0
  1  2  1  0  0  0  0
  1 19  1  0  0  0  0
  1 20  1  0  0  0  0
  1 21  1  0  0  0  0
  2 17  1  0  0  0  0
  2  3  1  0  0  0  0
  2 22  1  0  0  0  0
  3  4  1  0  0  0  0
  3 23  1  0  0  0  0
  3 24  1  0  0  0  0
  4  5  1  0  0  0  0
  4 25  1  0  0  0  0
  4 26  1  0  0  0  0
  5  6  1  0  0  0  0
  5 16  1  0  0  0  0
  5 27  1  0  0  0  0
  6  7  1  0  0  0  0
  6 28  1  0  0  0  0
  6 43  1  0  0  0  0
  7  8  1  0  0  0  0
  7 29  1  0  0  0  0
  7 30  1  0  0  0  0
  8  9  1  0  0  0  0
  8 10  1  0  0  0  0
  8 31  1  0  0  0  0
  9 32  1  0  0  0  0
 10 15  1  0  0  0  0
 10 11  2  0  0  0  0
 11 12  1  0  0  0  0
 11 33  1  0  0  0  0
 12 13  2  0  0  0  0
 12 34  1  0  0  0  0
 13 14  1  0  0  0  0
 14 15  2  0  0  0  0
 14 35  1  0  0  0  0
 15 36  1  0  0  0  0
 16 17  1  0  0  0  0
 16 37  1  0  0  0  0
 16 38  1  0  0  0  0
 17 18  1  0  0  0  0
 17 39  1  0  0  0  0
 18 40  1  0  0  0  0
 18 41  1  0  0  0  0
 18 42  1  0  0  0  0
M  CHG  1   6   1
M  END
> <s_m_source_file>
AV-unprocessed.smi

> <i_m_source_file_index>
3287

> <i_lp_mmshare_version>
43012

> <i_f3d_flags>
0

> <s_epik_input>
W0NIM11bQ0BASF0xW0NIMl1bQ0gyXVtDQEhdKFtDSDJdW0NASF0xW0NIM10pW05IXVtDSDJdW0NASF0oW09IXSljMltjSF1bY0hdbltjSF1bY0hdMg==

> <s_epik_cmdline>
J2VwaWtfcHl0aG9uJywgJy1waCcsICc3LjAnLCAnLXRuJywgJzgnLCAnLW1hJywgJzIwMCcsICctbWV0YWxfYmluZGluZycsICctaW1hZScsICc8aW5maWxlLm1hZT4nLCAnLW9tYWUnLCAnPG91dGZpbGUubWFlPic=

> <r_lp_tautomer_probability>
1

> <r_epik_Ionization_Penalty>
0.00537262

> <r_epik_Ionization_Penalty_Charging>
0.00321624

> <r_epik_Ionization_Penalty_Neutral>
0.00215638

> <r_epik_State_Penalty>
-0

> <r_epik_Charging_Adjusted_Penalty>
0.00321624

> <i_epik_Tot_Q>
1

> <i_epik_Tot_abs_Q>
1

> <r_epik_Metal_State_Penalty>
-0

> <b_epik_Metal_Only>
0

> <s_lp_Force_Field>
OPLS_2005

> <r_lp_Energy>
19.0403

> <b_lp_Chiralities_Consistent>
1

> <s_lp_Variant>
AV-unprocessed.smi:3287-10

> <Gold.Version>
5.8.1

> <Gold.Id.Protein>
6NUR|6NUR_protein|mol2

> <Gold.PLP.Fitness>
44.0969

> <Gold.PLP.PLP>
-32.9635

> <Gold.PLP.part.hbond>
-3.8627

> <Gold.PLP.part.metal>
0.0000

> <Gold.PLP.part.buried>
-1.0006

> <Gold.PLP.part.nonpolar>
-28.7431

> <Gold.PLP.part.repulsive>
0.1463

> <Gold.PLP.ligand.clash>
0.0000

> <Gold.PLP.ligand.torsion>
1.3059

> <Gold.PLP.Chemscore.Hbond>
3.6000

> <Gold.PLP.Chemscore.CHOScore>
0.9748

> <Gold.PLP.Chemscore.Metal>
0.0000

> <Gold.Chemscore.Hbonds>
donor molecule, donor type, donor heavy atom, donor atom, acceptor molecule, acceptor atom, score
      L1  H     6    28       P1  7948  2.00
      L1  H     9    32       P1  7948  1.00
      P1  H  7954  7966       L1     9  0.70
      L1  C    14    35       P1  8028  1.00

> <Gold.PLP.Chemscore.Internal.Correction>
0.0209

> <Gold.Rescore>
     Score         DG    S(hbond)    S(metal)    S(lipo)     H(rot)  DE(clash)    DE(int)     intcor
     17.06     -18.55       2.28        0.00      88.30       1.90       0.09       1.40       ----

> <Gold.Chemscore.Fitness>
17.0579

> <Gold.Chemscore.DG>
-18.5498

> <Gold.Chemscore.ZeroCoef>
-5.4800

> <Gold.Chemscore.Hbond>
2.2789

> <Gold.Chemscore.Metal>
0.0000

> <Gold.Chemscore.Lipo>
88.2996

> <Gold.Chemscore.Internal_Hbond>
0.0000

> <Gold.Chemscore.DEClash>
0.0935

> <Gold.Chemscore.DEInternal>
1.3984

> <Gold.Chemscore.Rot>
1.9035

> <Gold.Chemscore.Internal.Correction>
   9.000000E+99

> <Gold.Chemscore.Hbonds>
donor molecule, donor type, donor heavy atom, donor atom, acceptor molecule, acceptor atom, score
      L1  H     6    28       P1  7948  0.97
      L1  H     9    32       P1  7948  0.94
      P1  H  7954  7966       L1     9  0.07

> <Gold.Chemscore.Hbond.Weighted>
-7.6116

> <Gold.Chemscore.Metal.Weighted>
-0.0000

> <Gold.Chemscore.Lipo.Weighted>
-10.3310

> <Gold.Chemscore.Internal_Hbond.Weighted>
0.0000

> <Gold.Chemscore.DEClash.Weighted>
0.0935

> <Gold.Chemscore.DEInternal.Weighted>
1.3984

> <Gold.Chemscore.Rot.Weighted>
4.8729

> <Gold.Chemscore.Internal.Correction.Weighted>
   9.000000E+99

> <Gold.Protein.RotatedTorsions>
[ 6907 6896 6895 6894 ] final -108.37 input  -60.11 | X-H torsion
[ 7974 7965 7964 7962 ] final  171.30 input  175.53 | X-H torsion
[ 8008 7997 7996 7995 ] final    5.07 input   59.86 | X-H torsion
[ 10167 10162 10161 10158 ] final -152.32 input  -65.29 | X-H torsion
[ 10718 10713 10712 10709 ] final  160.25 input   66.30 | X-H torsion
[ 10763 10752 10751 10750 ] final  -43.14 input  -60.55 | X-H torsion
[ 11005 11000 10999 10996 ] final   98.79 input  -57.11 | X-H torsion

> <Gold.Protein.ActiveResidues>
 VAL166  LYS551  ARG553  GLY616  TRP617  ASP618  TYR619  PRO620  LYS621  CYS622 
 ASP623  PHE694  ASN695  SER759  ASP760  ASP761  ALA762  ILE779  LEU786  VAL792 
 PHE793  MET794  SER795  GLU796  ALA797  LYS798  CYS799  TRP800  GLU811  SER814 

> <Gold.Protein.RotatedAtoms>
  150.7498  133.9687  159.3538 H   0  0  0  0  0  0  0  0  0  0  0  0  # atno 6907 bound_to 6896
  151.7619  135.0806  160.0356 H   0  0  0  0  0  0  0  0  0  0  0  0  # atno 6908 bound_to 6896
  152.3397  133.6016  159.5904 H   0  0  0  0  0  0  0  0  0  0  0  0  # atno 6909 bound_to 6896
  144.7298  139.9330  143.6425 H   0  0  0  0  0  0  0  0  0  0  0  0  # atno 7974 bound_to 7965
  154.7238  140.2717  155.6517 H   0  0  0  0  0  0  0  0  0  0  0  0  # atno 8008 bound_to 7997
  156.2831  140.2729  156.1842 H   0  0  0  0  0  0  0  0  0  0  0  0  # atno 8009 bound_to 7997
  155.0472  140.0371  157.2521 H   0  0  0  0  0  0  0  0  0  0  0  0  # atno 8010 bound_to 7997
  139.7191  143.8985  152.2497 H   0  0  0  0  0  0  0  0  0  0  0  0  # atno 10167 bound_to 10162
  157.1529  131.0568  151.2271 H   0  0  0  0  0  0  0  0  0  0  0  0  # atno 10718 bound_to 10713
  153.9907  135.6705  153.4754 H   0  0  0  0  0  0  0  0  0  0  0  0  # atno 10763 bound_to 10752
  153.0706  135.4976  154.8293 H   0  0  0  0  0  0  0  0  0  0  0  0  # atno 10764 bound_to 10752
  154.7111  135.3097  154.9158 H   0  0  0  0  0  0  0  0  0  0  0  0  # atno 10765 bound_to 10752
  139.8771  134.9065  156.4508 H   0  0  0  0  0  0  0  0  0  0  0  0  # atno 11005 bound_to 11000
  146.0843  139.3831  143.0445 LP  0  0  0  0  0  0  0  0  0  0  0  0  # atno 17320 bound_to 7965
  145.7798  140.9861  143.1105 LP  0  0  0  0  0  0  0  0  0  0  0  0  # atno 17321 bound_to 7965
  139.8876  144.6983  150.8806 LP  0  0  0  0  0  0  0  0  0  0  0  0  # atno 17342 bound_to 10162
  140.7750  143.3611  151.1826 LP  0  0  0  0  0  0  0  0  0  0  0  0  # atno 17343 bound_to 10162
  157.4203  130.7434  149.6908 LP  0  0  0  0  0  0  0  0  0  0  0  0  # atno 17370 bound_to 10713
  155.9767  130.4072  150.3760 LP  0  0  0  0  0  0  0  0  0  0  0  0  # atno 17371 bound_to 10713
  140.8933  133.7832  155.9596 LP  0  0  0  0  0  0  0  0  0  0  0  0  # atno 17394 bound_to 11000
  140.8730  134.2703  157.5181 LP  0  0  0  0  0  0  0  0  0  0  0  0  # atno 17395 bound_to 11000

$$$$
