AV-unprocessed.smi:1871|AV-procd|sdf|7601|dock7
  -GOLD-   22720 9313D 1   1.00000     0.00000
 Structure written by MMmdl.
 41 43  0  0  0  0  0  0  0  0  2 V2000
  146.7372  137.9999  151.7820 O   0  0  0  0  0  0  0  0  0  0  0  0
  146.8246  139.2631  152.4021 C   0  0  0  0  0  0  0  0  0  0  0  0
  148.0425  139.3936  153.2580 C   0  0  0  0  0  0  0  0  0  0  0  0
  148.9654  138.4126  153.4686 N   0  3  0  0  0  0  0  0  0  0  0  0
  149.9629  138.8760  154.3270 C   0  0  0  0  0  0  0  0  0  0  0  0
  151.0993  138.2481  154.8277 C   0  0  0  0  0  0  0  0  0  0  0  0
  151.9154  139.0100  155.6895 C   0  0  0  0  0  0  0  0  0  0  0  0
  151.5896  140.3409  156.0231 C   0  0  0  0  0  0  0  0  0  0  0  0
  150.4343  140.9663  155.5096 C   0  0  0  0  0  0  0  0  0  0  0  0
  149.6331  140.2058  154.6580 C   0  0  0  0  0  0  0  0  0  0  0  0
  148.4410  140.4830  153.9796 N   0  0  0  0  0  0  0  0  0  0  0  0
  147.8286  141.8122  154.1364 C   0  0  0  0  0  0  0  0  0  0  0  0
  146.3640  141.7473  154.6150 C   0  0  2  0  0  0  0  0  0  0  0  0
  145.5936  142.7183  153.9344 O   0  0  0  0  0  0  0  0  0  0  0  0
  146.2725  141.8919  156.1256 C   0  0  0  0  0  0  0  0  0  0  0  0
  145.0179  141.9482  156.7696 C   0  0  0  0  0  0  0  0  0  0  0  0
  144.9442  142.0920  158.1684 C   0  0  0  0  0  0  0  0  0  0  0  0
  146.1177  142.1773  158.9441 C   0  0  0  0  0  0  0  0  0  0  0  0
  145.9803  142.3320  160.3049 O   0  0  0  0  0  0  0  0  0  0  0  0
  145.5112  143.5095  160.7966 C   0  0  0  0  0  0  0  0  0  0  0  0
  145.0982  143.3570  162.0788 F   0  0  0  0  0  0  0  0  0  0  0  0
  146.5015  144.4340  160.7938 F   0  0  0  0  0  0  0  0  0  0  0  0
  147.3747  142.1361  158.2947 C   0  0  0  0  0  0  0  0  0  0  0  0
  147.4496  141.9919  156.8958 C   0  0  0  0  0  0  0  0  0  0  0  0
  147.5993  137.6131  151.7626 H   0  0  0  0  0  0  0  0  0  0  0  0
  146.8452  140.0326  151.6301 H   0  0  0  0  0  0  0  0  0  0  0  0
  145.9272  139.4361  152.9950 H   0  0  0  0  0  0  0  0  0  0  0  0
  151.3503  137.2284  154.5744 H   0  0  0  0  0  0  0  0  0  0  0  0
  152.8089  138.5650  156.1031 H   0  0  0  0  0  0  0  0  0  0  0  0
  152.2390  140.8936  156.6866 H   0  0  0  0  0  0  0  0  0  0  0  0
  150.1925  141.9855  155.7726 H   0  0  0  0  0  0  0  0  0  0  0  0
  148.4383  142.3889  154.8331 H   0  0  0  0  0  0  0  0  0  0  0  0
  147.8927  142.3314  153.1804 H   0  0  0  0  0  0  0  0  0  0  0  0
  145.9444  140.7782  154.3431 H   0  0  0  0  0  0  0  0  0  0  0  0
  145.7043  142.5910  153.0044 H   0  0  0  0  0  0  0  0  0  0  0  0
  144.1067  141.8851  156.1929 H   0  0  0  0  0  0  0  0  0  0  0  0
  143.9784  142.1358  158.6501 H   0  0  0  0  0  0  0  0  0  0  0  0
  144.6902  143.8994  160.1943 H   0  0  0  0  0  0  0  0  0  0  0  0
  148.2918  142.2220  158.8580 H   0  0  0  0  0  0  0  0  0  0  0  0
  148.4171  141.9634  156.4164 H   0  0  0  0  0  0  0  0  0  0  0  0
  148.9091  137.4903  153.0567 H   0  0  0  0  0  0  0  0  0  0  0  0
  1  2  1  0  0  0  0
  1 25  1  0  0  0  0
  2  3  1  0  0  0  0
  2 26  1  0  0  0  0
  2 27  1  0  0  0  0
  3 11  1  0  0  0  0
  3  4  2  0  0  0  0
  4  5  1  0  0  0  0
  4 41  1  0  0  0  0
  5 10  2  0  0  0  0
  5  6  1  0  0  0  0
  6  7  2  0  0  0  0
  6 28  1  0  0  0  0
  7  8  1  0  0  0  0
  7 29  1  0  0  0  0
  8  9  2  0  0  0  0
  8 30  1  0  0  0  0
  9 10  1  0  0  0  0
  9 31  1  0  0  0  0
 10 11  1  0  0  0  0
 11 12  1  0  0  0  0
 12 13  1  0  0  0  0
 12 32  1  0  0  0  0
 12 33  1  0  0  0  0
 13 14  1  0  0  0  0
 13 15  1  0  0  0  0
 13 34  1  0  0  0  0
 14 35  1  0  0  0  0
 15 24  1  0  0  0  0
 15 16  2  0  0  0  0
 16 17  1  0  0  0  0
 16 36  1  0  0  0  0
 17 18  2  0  0  0  0
 17 37  1  0  0  0  0
 18 19  1  0  0  0  0
 18 23  1  0  0  0  0
 19 20  1  0  0  0  0
 20 21  1  0  0  0  0
 20 22  1  0  0  0  0
 20 38  1  0  0  0  0
 23 24  2  0  0  0  0
 23 39  1  0  0  0  0
 24 40  1  0  0  0  0
M  CHG  1   4   1
M  END
> <s_m_source_file>
AV-unprocessed.smi

> <i_m_source_file_index>
1871

> <i_lp_mmshare_version>
43012

> <i_f3d_flags>
0

> <s_epik_input>
W2NIXTFbY0hdW2NIXVtjSF1jKGMxMiluKGMobjIpW0NIMl1bT0hdKVtDSDJdW0NASF0oW09IXSljM1tjSF1bY0hdYyhPW0NIXShGKUYpW2NIXVtjSF0z

> <s_epik_cmdline>
J2VwaWtfcHl0aG9uJywgJy1waCcsICc3LjAnLCAnLXRuJywgJzgnLCAnLW1hJywgJzIwMCcsICctbWV0YWxfYmluZGluZycsICctaW1hZScsICc8aW5maWxlLm1hZT4nLCAnLW9tYWUnLCAnPG91dGZpbGUubWFlPic=

> <r_lp_tautomer_probability>
1

> <r_epik_Ionization_Penalty>
1.35642

> <r_epik_Ionization_Penalty_Charging>
1.35557

> <r_epik_Ionization_Penalty_Neutral>
0.000856035

> <r_epik_State_Penalty>
1.43401

> <r_epik_Charging_Adjusted_Penalty>
2.78958

> <i_epik_Tot_Q>
1

> <i_epik_Tot_abs_Q>
1

> <r_epik_Metal_State_Penalty>
5.47166

> <b_epik_Metal_Only>
0

> <s_lp_Force_Field>
OPLS_2005

> <r_lp_Energy>
13.1026

> <b_lp_Chiralities_Consistent>
1

> <s_lp_Variant>
AV-unprocessed.smi:1871-3

> <Gold.Version>
5.8.1

> <Gold.Id.Protein>
6NUR|6NUR_protein|mol2

> <Gold.PLP.Fitness>
55.2560

> <Gold.PLP.PLP>
-45.6414

> <Gold.PLP.part.hbond>
-4.3929

> <Gold.PLP.part.metal>
0.0000

> <Gold.PLP.part.buried>
-1.5139

> <Gold.PLP.part.nonpolar>
-39.7345

> <Gold.PLP.part.repulsive>
0.0587

> <Gold.PLP.ligand.clash>
0.0000

> <Gold.PLP.ligand.torsion>
0.8690

> <Gold.PLP.Chemscore.Hbond>
3.7500

> <Gold.PLP.Chemscore.CHOScore>
0.0000

> <Gold.PLP.Chemscore.Metal>
0.0000

> <Gold.Chemscore.Hbonds>
donor molecule, donor type, donor heavy atom, donor atom, acceptor molecule, acceptor atom, score
      L1  H     1    25       P1  7948  1.00
      L1  H     4    41       P1  7948  2.00
      P1  H  6934  6946       L1    19  0.75

> <Gold.PLP.Chemscore.Internal.Correction>
0.1027

> <Gold.Rescore>
     Score         DG    S(hbond)    S(metal)    S(lipo)     H(rot)  DE(clash)    DE(int)     intcor
     11.63     -13.85       2.35        0.00      78.03       3.37       1.69       0.53       ----

> <Gold.Chemscore.Fitness>
11.6263

> <Gold.Chemscore.DG>
-13.8480

> <Gold.Chemscore.ZeroCoef>
-5.4800

> <Gold.Chemscore.Hbond>
2.3520

> <Gold.Chemscore.Metal>
0.0000

> <Gold.Chemscore.Lipo>
78.0256

> <Gold.Chemscore.Internal_Hbond>
0.0000

> <Gold.Chemscore.DEClash>
1.6948

> <Gold.Chemscore.DEInternal>
0.5269

> <Gold.Chemscore.Rot>
3.3659

> <Gold.Chemscore.Internal.Correction>
   9.000000E+99

> <Gold.Chemscore.Hbonds>
donor molecule, donor type, donor heavy atom, donor atom, acceptor molecule, acceptor atom, score
      L1  H     1    25       P1  7948  0.99
      L1  H     4    41       P1  7948  0.99
      P1  H  6934  6946       L1    19  0.09

> <Gold.Chemscore.Hbond.Weighted>
-7.8557

> <Gold.Chemscore.Metal.Weighted>
-0.0000

> <Gold.Chemscore.Lipo.Weighted>
-9.1290

> <Gold.Chemscore.Internal_Hbond.Weighted>
0.0000

> <Gold.Chemscore.DEClash.Weighted>
1.6948

> <Gold.Chemscore.DEInternal.Weighted>
0.5269

> <Gold.Chemscore.Rot.Weighted>
8.6167

> <Gold.Chemscore.Internal.Correction.Weighted>
   9.000000E+99

> <Gold.Protein.RotatedTorsions>
[ 6907 6896 6895 6894 ] final  145.60 input  -60.11 | X-H torsion
[ 7974 7965 7964 7962 ] final  -68.61 input  175.53 | X-H torsion
[ 8008 7997 7996 7995 ] final   71.12 input   59.86 | X-H torsion
[ 10167 10162 10161 10158 ] final   94.64 input  -65.29 | X-H torsion
[ 10718 10713 10712 10709 ] final   88.27 input   66.30 | X-H torsion
[ 10763 10752 10751 10750 ] final  142.74 input  -60.55 | X-H torsion
[ 11005 11000 10999 10996 ] final -164.21 input  -57.11 | X-H torsion

> <Gold.Protein.ActiveResidues>
 VAL166  LYS551  ARG553  GLY616  TRP617  ASP618  TYR619  PRO620  LYS621  CYS622 
 ASP623  PHE694  ASN695  SER759  ASP760  ASP761  ALA762  ILE779  LEU786  VAL792 
 PHE793  MET794  SER795  GLU796  ALA797  LYS798  CYS799  TRP800  GLU811  SER814 

> <Gold.Protein.RotatedAtoms>
  152.1788  133.4693  159.4947 H   0  0  0  0  0  0  0  0  0  0  0  0  # atno 6907 bound_to 6896
  150.6931  134.1860  159.4276 H   0  0  0  0  0  0  0  0  0  0  0  0  # atno 6908 bound_to 6896
  151.9770  135.0048  160.0606 H   0  0  0  0  0  0  0  0  0  0  0  0  # atno 6909 bound_to 6896
  145.7143  140.9065  143.0664 H   0  0  0  0  0  0  0  0  0  0  0  0  # atno 7974 bound_to 7965
  155.7492  140.3489  155.5142 H   0  0  0  0  0  0  0  0  0  0  0  0  # atno 8008 bound_to 7997
  155.9021  140.1036  157.1363 H   0  0  0  0  0  0  0  0  0  0  0  0  # atno 8009 bound_to 7997
  154.4045  140.1284  156.4436 H   0  0  0  0  0  0  0  0  0  0  0  0  # atno 8010 bound_to 7997
  139.8064  144.6792  150.9697 H   0  0  0  0  0  0  0  0  0  0  0  0  # atno 10167 bound_to 10162
  157.6947  131.0288  150.3249 H   0  0  0  0  0  0  0  0  0  0  0  0  # atno 10718 bound_to 10713
  153.9608  135.2960  155.3433 H   0  0  0  0  0  0  0  0  0  0  0  0  # atno 10763 bound_to 10752
  154.7376  135.5039  153.9071 H   0  0  0  0  0  0  0  0  0  0  0  0  # atno 10764 bound_to 10752
  153.0948  135.6718  153.9895 H   0  0  0  0  0  0  0  0  0  0  0  0  # atno 10765 bound_to 10752
  140.5895  134.5059  157.5191 H   0  0  0  0  0  0  0  0  0  0  0  0  # atno 11005 bound_to 11000
  144.6933  139.9116  143.7464 LP  0  0  0  0  0  0  0  0  0  0  0  0  # atno 17320 bound_to 7965
  146.0684  139.3674  143.0538 LP  0  0  0  0  0  0  0  0  0  0  0  0  # atno 17321 bound_to 7965
  140.7819  143.4229  151.0813 LP  0  0  0  0  0  0  0  0  0  0  0  0  # atno 17342 bound_to 10162
  139.7898  143.8235  152.3150 LP  0  0  0  0  0  0  0  0  0  0  0  0  # atno 17343 bound_to 10162
  156.3731  130.3867  149.7160 LP  0  0  0  0  0  0  0  0  0  0  0  0  # atno 17370 bound_to 10713
  156.4568  130.7933  151.2953 LP  0  0  0  0  0  0  0  0  0  0  0  0  # atno 17371 bound_to 10713
  139.9280  134.8018  156.1011 LP  0  0  0  0  0  0  0  0  0  0  0  0  # atno 17394 bound_to 11000
  141.0944  133.6701  156.2612 LP  0  0  0  0  0  0  0  0  0  0  0  0  # atno 17395 bound_to 11000

$$$$
