AV-unprocessed.smi:3031|AV-procd|sdf|11552|dock1
  -GOLD-   2272016513D 1   1.00000     0.00000
 Structure written by MMmdl.
 48 49  0  0  0  0  0  0  0  0  3 V2000
  151.1296  142.4706  158.0223 C   0  0  0  0  0  0  0  0  0  0  0  0
  150.9851  141.3189  157.0697 C   0  0  0  0  0  0  0  0  0  0  0  0
  151.5644  140.0234  157.1754 C   0  0  0  0  0  0  0  0  0  0  0  0
  151.2388  139.2321  156.1668 N   0  0  0  0  0  0  0  0  0  0  0  0
  150.4522  139.9940  155.3757 N   0  0  0  0  0  0  0  0  0  0  0  0
  149.8788  139.4392  154.1593 C   0  0  0  0  0  0  0  0  0  0  0  0
  148.3289  139.4339  154.1220 C   0  0  1  0  0  0  0  0  0  0  0  0
  147.7953  140.8704  154.0326 C   0  0  0  0  0  0  0  0  0  0  0  0
  147.7771  138.6522  152.9882 N   0  3  0  0  0  0  0  0  0  0  0  0
  146.3980  138.1416  153.1511 C   0  0  0  0  0  0  0  0  0  0  0  0
  145.8265  137.6028  151.8274 C   0  0  1  0  0  0  0  0  0  0  0  0
  146.7813  137.8215  150.8084 O   0  0  0  0  0  0  0  0  0  0  0  0
  145.5468  136.0855  151.8821 C   0  0  0  0  0  0  0  0  0  0  0  0
  146.7217  135.2889  152.3215 N   0  3  0  0  0  0  0  0  0  0  0  0
  146.8985  135.2486  153.7945 C   0  0  0  0  0  0  0  0  0  0  0  0
  148.1496  134.4330  154.1652 C   0  0  0  0  0  0  0  0  0  0  0  0
  148.0485  133.1250  153.6167 O   0  0  0  0  0  0  0  0  0  0  0  0
  147.9725  133.1481  152.1972 C   0  0  0  0  0  0  0  0  0  0  0  0
  146.7130  133.9160  151.7625 C   0  0  0  0  0  0  0  0  0  0  0  0
  150.2669  141.2524  155.9094 C   0  0  0  0  0  0  0  0  0  0  0  0
  151.0237  142.1501  159.0590 H   0  0  0  0  0  0  0  0  0  0  0  0
  150.3772  143.2401  157.8474 H   0  0  0  0  0  0  0  0  0  0  0  0
  152.1053  142.9479  157.9307 H   0  0  0  0  0  0  0  0  0  0  0  0
  152.2068  139.6364  157.9526 H   0  0  0  0  0  0  0  0  0  0  0  0
  150.2646  140.0355  153.3312 H   0  0  0  0  0  0  0  0  0  0  0  0
  150.2656  138.4295  154.0141 H   0  0  0  0  0  0  0  0  0  0  0  0
  147.9364  139.0148  155.0493 H   0  0  0  0  0  0  0  0  0  0  0  0
  148.1314  141.4689  154.8800 H   0  0  0  0  0  0  0  0  0  0  0  0
  146.7050  140.8871  154.0346 H   0  0  0  0  0  0  0  0  0  0  0  0
  148.1345  141.3652  153.1216 H   0  0  0  0  0  0  0  0  0  0  0  0
  147.7721  139.2664  152.1865 H   0  0  0  0  0  0  0  0  0  0  0  0
  146.3817  137.3546  153.9042 H   0  0  0  0  0  0  0  0  0  0  0  0
  145.7662  138.9521  153.5159 H   0  0  0  0  0  0  0  0  0  0  0  0
  144.9226  138.1497  151.5589 H   0  0  0  0  0  0  0  0  0  0  0  0
  147.4051  137.1106  150.8151 H   0  0  0  0  0  0  0  0  0  0  0  0
  144.7027  135.8723  152.5406 H   0  0  0  0  0  0  0  0  0  0  0  0
  145.2443  135.7573  150.8861 H   0  0  0  0  0  0  0  0  0  0  0  0
  146.9953  136.2571  154.1954 H   0  0  0  0  0  0  0  0  0  0  0  0
  146.0163  134.8035  154.2576 H   0  0  0  0  0  0  0  0  0  0  0  0
  149.0559  134.9223  153.8050 H   0  0  0  0  0  0  0  0  0  0  0  0
  148.2396  134.3546  155.2489 H   0  0  0  0  0  0  0  0  0  0  0  0
  148.8712  133.6042  151.7791 H   0  0  0  0  0  0  0  0  0  0  0  0
  147.9341  132.1233  151.8276 H   0  0  0  0  0  0  0  0  0  0  0  0
  145.8184  133.3888  152.0982 H   0  0  0  0  0  0  0  0  0  0  0  0
  146.6710  133.9594  150.6733 H   0  0  0  0  0  0  0  0  0  0  0  0
  149.6507  141.9933  155.4207 H   0  0  0  0  0  0  0  0  0  0  0  0
  148.3927  137.8772  152.7844 H   0  0  0  0  0  0  0  0  0  0  0  0
  147.5403  135.7388  151.9374 H   0  0  0  0  0  0  0  0  0  0  0  0
  1  2  1  0  0  0  0
  1 21  1  0  0  0  0
  1 22  1  0  0  0  0
  1 23  1  0  0  0  0
  2 20  2  0  0  0  0
  2  3  1  0  0  0  0
  3  4  2  0  0  0  0
  3 24  1  0  0  0  0
  4  5  1  0  0  0  0
  5  6  1  0  0  0  0
  5 20  1  0  0  0  0
  6  7  1  0  0  0  0
  6 25  1  0  0  0  0
  6 26  1  0  0  0  0
  7  8  1  0  0  0  0
  7  9  1  0  0  0  0
  7 27  1  0  0  0  0
  8 28  1  0  0  0  0
  8 29  1  0  0  0  0
  8 30  1  0  0  0  0
  9 10  1  0  0  0  0
  9 31  1  0  0  0  0
  9 47  1  0  0  0  0
 10 11  1  0  0  0  0
 10 32  1  0  0  0  0
 10 33  1  0  0  0  0
 11 12  1  0  0  0  0
 11 13  1  0  0  0  0
 11 34  1  0  0  0  0
 12 35  1  0  0  0  0
 13 14  1  0  0  0  0
 13 36  1  0  0  0  0
 13 37  1  0  0  0  0
 14 19  1  0  0  0  0
 14 15  1  0  0  0  0
 14 48  1  0  0  0  0
 15 16  1  0  0  0  0
 15 38  1  0  0  0  0
 15 39  1  0  0  0  0
 16 17  1  0  0  0  0
 16 40  1  0  0  0  0
 16 41  1  0  0  0  0
 17 18  1  0  0  0  0
 18 19  1  0  0  0  0
 18 42  1  0  0  0  0
 18 43  1  0  0  0  0
 19 44  1  0  0  0  0
 19 45  1  0  0  0  0
 20 46  1  0  0  0  0
M  CHG  1   9   1
M  CHG  1  14   1
M  END
> <s_m_source_file>
AV-unprocessed.smi

> <i_m_source_file_index>
3031

> <i_lp_mmshare_version>
43012

> <i_f3d_flags>
0

> <s_epik_input>
W0NIM11jMVtjSF1ubihbY0hdMSlbQ0gyXVtDQEhdKFtDSDNdKVtOSF1bQ0gyXVtDQEhdKFtPSF0pW0NIMl1OMltDSDJdW0NIMl1PW0NIMl1bQ0gyXTI=

> <s_epik_cmdline>
J2VwaWtfcHl0aG9uJywgJy1waCcsICc3LjAnLCAnLXRuJywgJzgnLCAnLW1hJywgJzIwMCcsICctbWV0YWxfYmluZGluZycsICctaW1hZScsICc8aW5maWxlLm1hZT4nLCAnLW9tYWUnLCAnPG91dGZpbGUubWFlPic=

> <r_lp_tautomer_probability>
1

> <r_epik_Ionization_Penalty>
1.76542

> <r_epik_Ionization_Penalty_Charging>
1.76348

> <r_epik_Ionization_Penalty_Neutral>
0.00194017

> <r_epik_State_Penalty>
1.49348

> <r_epik_Charging_Adjusted_Penalty>
3.25696

> <i_epik_Tot_Q>
2

> <i_epik_Tot_abs_Q>
2

> <r_epik_Metal_State_Penalty>
1.49349

> <b_epik_Metal_Only>
0

> <s_lp_Force_Field>
OPLS_2005

> <r_lp_Energy>
29.0022

> <b_lp_Chiralities_Consistent>
1

> <s_lp_Variant>
AV-unprocessed.smi:3031-12

> <Gold.Version>
5.8.1

> <Gold.Id.Protein>
6NUR|6NUR_protein|mol2

> <Gold.PLP.Fitness>
52.0732

> <Gold.PLP.PLP>
-35.5470

> <Gold.PLP.part.hbond>
-5.1968

> <Gold.PLP.part.metal>
0.0000

> <Gold.PLP.part.buried>
1.8404

> <Gold.PLP.part.nonpolar>
-31.2862

> <Gold.PLP.part.repulsive>
0.1251

> <Gold.PLP.ligand.clash>
0.0000

> <Gold.PLP.ligand.torsion>
1.3477

> <Gold.PLP.Chemscore.Hbond>
5.4157

> <Gold.PLP.Chemscore.CHOScore>
0.8345

> <Gold.PLP.Chemscore.Metal>
0.0000

> <Gold.Chemscore.Hbonds>
donor molecule, donor type, donor heavy atom, donor atom, acceptor molecule, acceptor atom, score
      L1  H     9    31       P1  7957  0.27
      L1  H     9    47       P1  7948  2.00
      L1  H    12    35       P1  7948  0.93
      L1  H    14    48       P1  7948  1.69
      L1  C    20    46       P1  8028  0.23

> <Gold.PLP.Chemscore.Internal.Correction>
0.4714

> <Gold.Rescore>
     Score         DG    S(hbond)    S(metal)    S(lipo)     H(rot)  DE(clash)    DE(int)     intcor
     15.86     -18.91       3.22        0.00      82.99       2.74       1.55       1.50       ----

> <Gold.Chemscore.Fitness>
15.8644

> <Gold.Chemscore.DG>
-18.9138

> <Gold.Chemscore.ZeroCoef>
-5.4800

> <Gold.Chemscore.Hbond>
3.2177

> <Gold.Chemscore.Metal>
0.0000

> <Gold.Chemscore.Lipo>
82.9889

> <Gold.Chemscore.Internal_Hbond>
0.0000

> <Gold.Chemscore.DEClash>
1.5472

> <Gold.Chemscore.DEInternal>
1.5022

> <Gold.Chemscore.Rot>
2.7434

> <Gold.Chemscore.Internal.Correction>
   9.000000E+99

> <Gold.Chemscore.Hbonds>
donor molecule, donor type, donor heavy atom, donor atom, acceptor molecule, acceptor atom, score
      L1  H     9    31       P1  7957  0.28
      L1  H     9    47       P1  7948  0.97
      L1  H    12    35       P1  7948  0.83
      L1  H    14    48       P1  7948  0.82

> <Gold.Chemscore.Hbond.Weighted>
-10.7472

> <Gold.Chemscore.Metal.Weighted>
-0.0000

> <Gold.Chemscore.Lipo.Weighted>
-9.7097

> <Gold.Chemscore.Internal_Hbond.Weighted>
0.0000

> <Gold.Chemscore.DEClash.Weighted>
1.5472

> <Gold.Chemscore.DEInternal.Weighted>
1.5022

> <Gold.Chemscore.Rot.Weighted>
7.0231

> <Gold.Chemscore.Internal.Correction.Weighted>
   9.000000E+99

> <Gold.Protein.RotatedTorsions>
[ 6907 6896 6895 6894 ] final   12.85 input  -60.11 | X-H torsion
[ 7974 7965 7964 7962 ] final  -57.72 input  175.53 | X-H torsion
[ 8008 7997 7996 7995 ] final  125.25 input   59.86 | X-H torsion
[ 10167 10162 10161 10158 ] final   48.16 input  -65.29 | X-H torsion
[ 10718 10713 10712 10709 ] final -164.69 input   66.30 | X-H torsion
[ 10763 10752 10751 10750 ] final  173.86 input  -60.55 | X-H torsion
[ 11005 11000 10999 10996 ] final  -75.23 input  -57.11 | X-H torsion

> <Gold.Protein.ActiveResidues>
 VAL166  LYS551  ARG553  GLY616  TRP617  ASP618  TYR619  PRO620  LYS621  CYS622 
 ASP623  PHE694  ASN695  SER759  ASP760  ASP761  ALA762  ILE779  LEU786  VAL792 
 PHE793  MET794  SER795  GLU796  ALA797  LYS798  CYS799  TRP800  GLU811  SER814 

> <Gold.Protein.RotatedAtoms>
  151.7769  135.0771  160.0367 H   0  0  0  0  0  0  0  0  0  0  0  0  # atno 6907 bound_to 6896
  152.3250  133.5890  159.5778 H   0  0  0  0  0  0  0  0  0  0  0  0  # atno 6908 bound_to 6896
  150.7390  133.9871  159.3637 H   0  0  0  0  0  0  0  0  0  0  0  0  # atno 6909 bound_to 6896
  145.8477  140.8374  143.0002 H   0  0  0  0  0  0  0  0  0  0  0  0  # atno 7974 bound_to 7965
  156.2828  140.2721  156.1919 H   0  0  0  0  0  0  0  0  0  0  0  0  # atno 8008 bound_to 7997
  155.0450  140.0386  157.2541 H   0  0  0  0  0  0  0  0  0  0  0  0  # atno 8009 bound_to 7997
  154.7243  140.2694  155.6519 H   0  0  0  0  0  0  0  0  0  0  0  0  # atno 8010 bound_to 7997
  140.2961  144.2989  150.6229 H   0  0  0  0  0  0  0  0  0  0  0  0  # atno 10167 bound_to 10162
  156.6426  130.8975  151.2999 H   0  0  0  0  0  0  0  0  0  0  0  0  # atno 10718 bound_to 10713
  154.4460  135.2763  155.1815 H   0  0  0  0  0  0  0  0  0  0  0  0  # atno 10763 bound_to 10752
  154.3661  135.6119  153.5719 H   0  0  0  0  0  0  0  0  0  0  0  0  # atno 10764 bound_to 10752
  152.9844  135.5846  154.4796 H   0  0  0  0  0  0  0  0  0  0  0  0  # atno 10765 bound_to 10752
  141.1643  133.6939  156.7485 H   0  0  0  0  0  0  0  0  0  0  0  0  # atno 11005 bound_to 11000
  144.6730  140.0907  143.7465 LP  0  0  0  0  0  0  0  0  0  0  0  0  # atno 17320 bound_to 7965
  145.9393  139.2658  143.1278 LP  0  0  0  0  0  0  0  0  0  0  0  0  # atno 17321 bound_to 7965
  140.5691  143.2183  151.7631 LP  0  0  0  0  0  0  0  0  0  0  0  0  # atno 17342 bound_to 10162
  139.4926  144.4242  151.9944 LP  0  0  0  0  0  0  0  0  0  0  0  0  # atno 17343 bound_to 10162
  157.7166  130.9505  150.1278 LP  0  0  0  0  0  0  0  0  0  0  0  0  # atno 17370 bound_to 10713
  156.2147  130.3669  149.8628 LP  0  0  0  0  0  0  0  0  0  0  0  0  # atno 17371 bound_to 10713
  140.2622  134.8458  157.3769 LP  0  0  0  0  0  0  0  0  0  0  0  0  # atno 17394 bound_to 11000
  140.1601  134.4740  155.7901 LP  0  0  0  0  0  0  0  0  0  0  0  0  # atno 17395 bound_to 11000

$$$$
