AV-unprocessed.smi:3194|AV-procd|sdf|12209|dock6
  -GOLD-   2272018 43D 1   1.00000     0.00000
 Structure written by MMmdl.
 28 28  0  0  0  0  0  0  0  0  1 V2000
  149.0596  139.6639  153.9667 C   0  0  0  0  0  0  0  0  0  0  0  0
  149.0189  141.0763  154.5697 C   0  0  1  0  0  0  0  0  0  0  0  0
  147.5818  141.6201  154.6919 C   0  0  0  0  0  0  0  0  0  0  0  0
  147.4326  142.3589  155.8859 O   0  0  0  0  0  0  0  0  0  0  0  0
  149.6659  141.0524  155.8784 N   0  0  0  0  0  0  0  0  0  0  0  0
  150.8864  140.5552  156.1411 C   0  0  0  0  0  0  0  0  0  0  0  0
  151.6133  140.0671  155.2750 O   0  0  0  0  0  0  0  0  0  0  0  0
  151.3556  140.6085  157.6030 C   0  0  0  0  0  0  0  0  0  0  0  0
  150.3931  140.1089  158.3817 F   0  0  0  0  0  0  0  0  0  0  0  0
  152.4369  139.8376  157.7475 F   0  0  0  0  0  0  0  0  0  0  0  0
  151.6730  142.0461  158.0055 C   0  0  0  0  0  0  0  0  0  0  0  0
  152.2900  142.3361  159.2438 C   0  0  0  0  0  0  0  0  0  0  0  0
  152.5485  143.6810  159.5714 C   0  0  0  0  0  0  0  0  0  0  0  0
  152.1818  144.6855  158.6560 C   0  0  0  0  0  0  0  0  0  0  0  0
  151.5685  144.2984  157.4486 C   0  0  0  0  0  0  0  0  0  0  0  0
  151.3158  143.0122  157.1251 N   0  0  0  0  0  0  0  0  0  0  0  0
  149.5927  141.7369  153.9167 H   0  0  0  0  0  0  0  0  0  0  0  0
  148.6255  139.6482  152.9667 H   0  0  0  0  0  0  0  0  0  0  0  0
  148.5060  138.9529  154.5808 H   0  0  0  0  0  0  0  0  0  0  0  0
  150.0854  139.3035  153.8827 H   0  0  0  0  0  0  0  0  0  0  0  0
  147.3250  142.2472  153.8374 H   0  0  0  0  0  0  0  0  0  0  0  0
  146.8605  140.8025  154.7189 H   0  0  0  0  0  0  0  0  0  0  0  0
  148.1429  142.9795  155.9458 H   0  0  0  0  0  0  0  0  0  0  0  0
  149.1377  141.4298  156.6522 H   0  0  0  0  0  0  0  0  0  0  0  0
  152.5562  141.5485  159.9333 H   0  0  0  0  0  0  0  0  0  0  0  0
  153.0183  143.9371  160.5096 H   0  0  0  0  0  0  0  0  0  0  0  0
  152.3649  145.7274  158.8740 H   0  0  0  0  0  0  0  0  0  0  0  0
  151.2721  145.0416  156.7233 H   0  0  0  0  0  0  0  0  0  0  0  0
  1  2  1  0  0  0  0
  1 18  1  0  0  0  0
  1 19  1  0  0  0  0
  1 20  1  0  0  0  0
  2 17  1  0  0  0  0
  2  3  1  0  0  0  0
  2  5  1  0  0  0  0
  3  4  1  0  0  0  0
  3 21  1  0  0  0  0
  3 22  1  0  0  0  0
  4 23  1  0  0  0  0
  5  6  1  0  0  0  0
  5 24  1  0  0  0  0
  6  7  2  0  0  0  0
  6  8  1  0  0  0  0
  8  9  1  0  0  0  0
  8 10  1  0  0  0  0
  8 11  1  0  0  0  0
 11 16  1  0  0  0  0
 11 12  2  0  0  0  0
 12 13  1  0  0  0  0
 12 25  1  0  0  0  0
 13 14  2  0  0  0  0
 13 26  1  0  0  0  0
 14 15  1  0  0  0  0
 14 27  1  0  0  0  0
 15 16  2  0  0  0  0
 15 28  1  0  0  0  0
M  END
> <s_m_source_file>
AV-unprocessed.smi

> <i_m_source_file_index>
3194

> <i_lp_mmshare_version>
43012

> <i_f3d_flags>
0

> <s_epik_input>
W09IXVtDSDJdW0NASF0oW0NIM10pW05IXUMoPU8pQyhGKShGKWMxW2NIXVtjSF1bY0hdW2NIXW4x

> <s_epik_cmdline>
J2VwaWtfcHl0aG9uJywgJy1waCcsICc3LjAnLCAnLXRuJywgJzgnLCAnLW1hJywgJzIwMCcsICctbWV0YWxfYmluZGluZycsICctaW1hZScsICc8aW5maWxlLm1hZT4nLCAnLW9tYWUnLCAnPG91dGZpbGUubWFlPic=

> <r_lp_tautomer_probability>
1

> <r_epik_Ionization_Penalty>
3.67967e-05

> <r_epik_Ionization_Penalty_Charging>
0

> <r_epik_Ionization_Penalty_Neutral>
3.67967e-05

> <r_epik_State_Penalty>
-0

> <r_epik_Charging_Adjusted_Penalty>
0

> <i_epik_Tot_Q>
0

> <i_epik_Tot_abs_Q>
0

> <r_epik_Metal_State_Penalty>
0.0311521

> <b_epik_Metal_Only>
0

> <s_lp_Force_Field>
OPLS_2005

> <r_lp_Energy>
9.58736

> <b_lp_Chiralities_Consistent>
1

> <s_lp_Variant>
AV-unprocessed.smi:3194-1

> <Gold.Version>
5.8.1

> <Gold.Id.Protein>
6NUR|6NUR_protein|mol2

> <Gold.PLP.Fitness>
39.3873

> <Gold.PLP.PLP>
-33.5315

> <Gold.PLP.part.hbond>
-2.0000

> <Gold.PLP.part.metal>
0.0000

> <Gold.PLP.part.buried>
-1.0407

> <Gold.PLP.part.nonpolar>
-31.1167

> <Gold.PLP.part.repulsive>
0.2214

> <Gold.PLP.ligand.clash>
0.0000

> <Gold.PLP.ligand.torsion>
1.1784

> <Gold.PLP.Chemscore.Hbond>
1.9920

> <Gold.PLP.Chemscore.CHOScore>
0.7352

> <Gold.PLP.Chemscore.Metal>
0.0000

> <Gold.Chemscore.Hbonds>
donor molecule, donor type, donor heavy atom, donor atom, acceptor molecule, acceptor atom, score
      L1  H     4    23       P1  8028  1.00
      P1  H  7989  7998       L1     7  0.99
      L1  C    15    28       P1  8028  0.64

> <Gold.PLP.Chemscore.Internal.Correction>
0.0311

> <Gold.Rescore>
     Score         DG    S(hbond)    S(metal)    S(lipo)     H(rot)  DE(clash)    DE(int)     intcor
     11.24     -14.85       1.76        0.00      84.37       2.50       0.37       3.24       ----

> <Gold.Chemscore.Fitness>
11.2413

> <Gold.Chemscore.DG>
-14.8491

> <Gold.Chemscore.ZeroCoef>
-5.4800

> <Gold.Chemscore.Hbond>
1.7635

> <Gold.Chemscore.Metal>
0.0000

> <Gold.Chemscore.Lipo>
84.3682

> <Gold.Chemscore.Internal_Hbond>
0.0000

> <Gold.Chemscore.DEClash>
0.3661

> <Gold.Chemscore.DEInternal>
3.2417

> <Gold.Chemscore.Rot>
2.4970

> <Gold.Chemscore.Internal.Correction>
   9.000000E+99

> <Gold.Chemscore.Hbonds>
donor molecule, donor type, donor heavy atom, donor atom, acceptor molecule, acceptor atom, score
      L1  H     4    23       P1  8028  0.74
      P1  H  7989  7998       L1     7  0.90

> <Gold.Chemscore.Hbond.Weighted>
-5.8902

> <Gold.Chemscore.Metal.Weighted>
-0.0000

> <Gold.Chemscore.Lipo.Weighted>
-9.8711

> <Gold.Chemscore.Internal_Hbond.Weighted>
0.0000

> <Gold.Chemscore.DEClash.Weighted>
0.3661

> <Gold.Chemscore.DEInternal.Weighted>
3.2417

> <Gold.Chemscore.Rot.Weighted>
6.3922

> <Gold.Chemscore.Internal.Correction.Weighted>
   9.000000E+99

> <Gold.Protein.RotatedTorsions>
[ 6907 6896 6895 6894 ] final  110.27 input  -60.11 | X-H torsion
[ 7974 7965 7964 7962 ] final  -72.45 input  175.53 | X-H torsion
[ 8008 7997 7996 7995 ] final  -46.69 input   59.86 | X-H torsion
[ 10167 10162 10161 10158 ] final -127.41 input  -65.29 | X-H torsion
[ 10718 10713 10712 10709 ] final   51.50 input   66.30 | X-H torsion
[ 10763 10752 10751 10750 ] final  148.20 input  -60.55 | X-H torsion
[ 11005 11000 10999 10996 ] final  178.55 input  -57.11 | X-H torsion

> <Gold.Protein.ActiveResidues>
 VAL166  LYS551  ARG553  GLY616  TRP617  ASP618  TYR619  PRO620  LYS621  CYS622 
 ASP623  PHE694  ASN695  SER759  ASP760  ASP761  ALA762  ILE779  LEU786  VAL792 
 PHE793  MET794  SER795  GLU796  ALA797  LYS798  CYS799  TRP800  GLU811  SER814 

> <Gold.Protein.RotatedAtoms>
  152.5028  133.8825  159.7353 H   0  0  0  0  0  0  0  0  0  0  0  0  # atno 6907 bound_to 6896
  150.9284  133.6788  159.2823 H   0  0  0  0  0  0  0  0  0  0  0  0  # atno 6908 bound_to 6896
  151.4141  135.0993  159.9646 H   0  0  0  0  0  0  0  0  0  0  0  0  # atno 6909 bound_to 6896
  145.6650  140.9240  143.0913 H   0  0  0  0  0  0  0  0  0  0  0  0  # atno 7974 bound_to 7965
  154.4009  140.1365  156.4053 H   0  0  0  0  0  0  0  0  0  0  0  0  # atno 8008 bound_to 7997
  155.7785  140.3482  155.5264 H   0  0  0  0  0  0  0  0  0  0  0  0  # atno 8009 bound_to 7997
  155.8697  140.0970  157.1549 H   0  0  0  0  0  0  0  0  0  0  0  0  # atno 8010 bound_to 7997
  139.9612  143.5948  152.2444 H   0  0  0  0  0  0  0  0  0  0  0  0  # atno 10167 bound_to 10162
  157.4986  130.8423  149.8289 H   0  0  0  0  0  0  0  0  0  0  0  0  # atno 10718 bound_to 10713
  154.0509  135.2882  155.3340 H   0  0  0  0  0  0  0  0  0  0  0  0  # atno 10763 bound_to 10752
  154.6869  135.5241  153.8343 H   0  0  0  0  0  0  0  0  0  0  0  0  # atno 10764 bound_to 10752
  153.0561  135.6596  154.0705 H   0  0  0  0  0  0  0  0  0  0  0  0  # atno 10765 bound_to 10752
  140.3963  134.6817  157.4536 H   0  0  0  0  0  0  0  0  0  0  0  0  # atno 11005 bound_to 11000
  144.7076  139.8498  143.7425 LP  0  0  0  0  0  0  0  0  0  0  0  0  # atno 17320 bound_to 7965
  146.1093  139.4096  143.0298 LP  0  0  0  0  0  0  0  0  0  0  0  0  # atno 17321 bound_to 7965
  139.6553  144.7662  151.2068 LP  0  0  0  0  0  0  0  0  0  0  0  0  # atno 17342 bound_to 10162
  140.7552  143.6096  150.8618 LP  0  0  0  0  0  0  0  0  0  0  0  0  # atno 17343 bound_to 10162
  156.0215  130.3794  150.1947 LP  0  0  0  0  0  0  0  0  0  0  0  0  # atno 17370 bound_to 10713
  157.0136  130.9958  151.3359 LP  0  0  0  0  0  0  0  0  0  0  0  0  # atno 17371 bound_to 10713
  140.0369  134.6324  155.9032 LP  0  0  0  0  0  0  0  0  0  0  0  0  # atno 17394 bound_to 11000
  141.1873  133.6559  156.5275 LP  0  0  0  0  0  0  0  0  0  0  0  0  # atno 17395 bound_to 11000

$$$$
