AV-unprocessed.smi:229|AV-procd|sdf|1755|dock8
  -GOLD-   2262020283D 1   1.00000     0.00000
 Structure written by MMmdl.
 58 62  0  0  0  0  0  0  0  0  1 V2000
  145.6355  136.9992  162.0832 C   0  0  0  0  0  0  0  0  0  0  0  0
  146.6310  135.8613  162.3454 C   0  0  0  0  0  0  0  0  0  0  0  0
  147.4529  135.4613  161.1092 C   0  0  2  0  0  0  0  0  0  0  0  0
  148.1856  136.6513  160.4639 C   0  0  0  0  0  0  0  0  0  0  0  0
  148.8459  136.2228  159.2377 N   0  0  0  0  0  0  0  0  0  0  0  0
  149.7888  137.0745  158.7601 C   0  0  0  0  0  0  0  0  0  0  0  0
  151.1000  136.7119  158.7714 N   0  0  0  0  0  0  0  0  0  0  0  0
  152.0350  137.5404  158.2970 C   0  0  0  0  0  0  0  0  0  0  0  0
  151.8836  138.7599  157.7772 N   0  0  0  0  0  0  0  0  0  0  0  0
  150.5723  139.1334  157.7718 C   0  0  0  0  0  0  0  0  0  0  0  0
  149.4713  138.3611  158.2387 C   0  0  0  0  0  0  0  0  0  0  0  0
  148.2914  139.0801  158.0816 N   0  0  0  0  0  0  0  0  0  0  0  0
  148.6721  140.2074  157.5447 C   0  0  0  0  0  0  0  0  0  0  0  0
  150.0259  140.3231  157.3268 N   0  0  0  0  0  0  0  0  0  0  0  0
  150.7253  141.4595  156.7539 C   0  0  0  0  0  0  0  0  0  0  0  0
  150.6921  142.6957  157.6777 C   0  0  2  0  0  0  0  0  0  0  0  0
  151.3590  143.7542  157.0174 O   0  0  0  0  0  0  0  0  0  0  0  0
  151.4012  142.4622  159.0262 C   0  0  2  0  0  0  0  0  0  0  0  0
  151.6833  143.7342  159.8291 C   0  0  0  0  0  0  0  0  0  0  0  0
  152.8641  143.3522  160.7061 C   0  0  0  0  0  0  0  0  0  0  0  0
  153.4410  142.1102  160.0232 C   0  0  0  0  0  0  0  0  0  0  0  0
  152.7216  141.9889  158.8040 O   0  0  0  0  0  0  0  0  0  0  0  0
  147.9317  135.5995  158.2854 C   0  0  0  0  0  0  0  0  0  0  0  0
  147.1534  134.4393  158.9456 C   0  0  2  0  0  0  0  0  0  0  0  0
  148.0047  133.1870  159.1883 C   0  0  0  0  0  0  0  0  0  0  0  0
  147.5645  132.2267  158.0922 C   0  0  0  0  0  0  0  0  0  0  0  0
  146.1815  132.5061  157.9857 O   0  0  0  0  0  0  0  0  0  0  0  0
  146.0400  133.9190  158.0165 C   0  0  0  0  0  0  0  0  0  0  0  0
  146.5469  134.9026  160.1562 O   0  0  0  0  0  0  0  0  0  0  0  0
  145.1263  137.2849  163.0038 H   0  0  0  0  0  0  0  0  0  0  0  0
  144.8708  136.7063  161.3640 H   0  0  0  0  0  0  0  0  0  0  0  0
  146.1414  137.8838  161.6958 H   0  0  0  0  0  0  0  0  0  0  0  0
  147.3146  136.1785  163.1336 H   0  0  0  0  0  0  0  0  0  0  0  0
  146.1012  134.9917  162.7358 H   0  0  0  0  0  0  0  0  0  0  0  0
  148.1800  134.7048  161.4072 H   0  0  0  0  0  0  0  0  0  0  0  0
  147.4767  137.4449  160.2237 H   0  0  0  0  0  0  0  0  0  0  0  0
  148.9001  137.0708  161.1698 H   0  0  0  0  0  0  0  0  0  0  0  0
  153.0499  137.1741  158.3417 H   0  0  0  0  0  0  0  0  0  0  0  0
  147.9727  140.9929  157.2979 H   0  0  0  0  0  0  0  0  0  0  0  0
  151.7522  141.1502  156.5583 H   0  0  0  0  0  0  0  0  0  0  0  0
  150.2806  141.6933  155.7855 H   0  0  0  0  0  0  0  0  0  0  0  0
  149.6562  142.9885  157.8549 H   0  0  0  0  0  0  0  0  0  0  0  0
  150.7075  144.3175  156.6277 H   0  0  0  0  0  0  0  0  0  0  0  0
  150.8503  141.7497  159.6439 H   0  0  0  0  0  0  0  0  0  0  0  0
  151.9760  144.5437  159.1586 H   0  0  0  0  0  0  0  0  0  0  0  0
  150.8216  144.0705  160.4068 H   0  0  0  0  0  0  0  0  0  0  0  0
  153.5913  144.1629  160.7623 H   0  0  0  0  0  0  0  0  0  0  0  0
  152.5434  143.1152  161.7212 H   0  0  0  0  0  0  0  0  0  0  0  0
  154.5119  142.1944  159.8364 H   0  0  0  0  0  0  0  0  0  0  0  0
  153.2698  141.2221  160.6331 H   0  0  0  0  0  0  0  0  0  0  0  0
  147.2316  136.3562  157.9272 H   0  0  0  0  0  0  0  0  0  0  0  0
  148.4808  135.2319  157.4172 H   0  0  0  0  0  0  0  0  0  0  0  0
  149.0784  133.3765  159.1738 H   0  0  0  0  0  0  0  0  0  0  0  0
  147.7590  132.7452  160.1548 H   0  0  0  0  0  0  0  0  0  0  0  0
  148.0635  132.4501  157.1478 H   0  0  0  0  0  0  0  0  0  0  0  0
  147.7487  131.1828  158.3459 H   0  0  0  0  0  0  0  0  0  0  0  0
  145.0413  134.2025  158.3499 H   0  0  0  0  0  0  0  0  0  0  0  0
  146.1658  134.2958  157.0001 H   0  0  0  0  0  0  0  0  0  0  0  0
  1  2  1  0  0  0  0
  1 30  1  0  0  0  0
  1 31  1  0  0  0  0
  1 32  1  0  0  0  0
  2  3  1  0  0  0  0
  2 33  1  0  0  0  0
  2 34  1  0  0  0  0
  3 29  1  0  0  0  0
  3  4  1  0  0  0  0
  3 35  1  0  0  0  0
  4  5  1  0  0  0  0
  4 36  1  0  0  0  0
  4 37  1  0  0  0  0
  5  6  1  0  0  0  0
  5 23  1  0  0  0  0
  6 11  1  0  0  0  0
  6  7  2  0  0  0  0
  7  8  1  0  0  0  0
  8  9  2  0  0  0  0
  8 38  1  0  0  0  0
  9 10  1  0  0  0  0
 10 14  1  0  0  0  0
 10 11  2  0  0  0  0
 11 12  1  0  0  0  0
 12 13  2  0  0  0  0
 13 14  1  0  0  0  0
 13 39  1  0  0  0  0
 14 15  1  0  0  0  0
 15 16  1  0  0  0  0
 15 40  1  0  0  0  0
 15 41  1  0  0  0  0
 16 17  1  0  0  0  0
 16 18  1  0  0  0  0
 16 42  1  0  0  0  0
 17 43  1  0  0  0  0
 18 22  1  0  0  0  0
 18 19  1  0  0  0  0
 18 44  1  0  0  0  0
 19 20  1  0  0  0  0
 19 45  1  0  0  0  0
 19 46  1  0  0  0  0
 20 21  1  0  0  0  0
 20 47  1  0  0  0  0
 20 48  1  0  0  0  0
 21 22  1  0  0  0  0
 21 49  1  0  0  0  0
 21 50  1  0  0  0  0
 23 24  1  0  0  0  0
 23 51  1  0  0  0  0
 23 52  1  0  0  0  0
 24 28  1  0  0  0  0
 24 25  1  0  0  0  0
 24 29  1  0  0  0  0
 25 26  1  0  0  0  0
 25 53  1  0  0  0  0
 25 54  1  0  0  0  0
 26 27  1  0  0  0  0
 26 55  1  0  0  0  0
 26 56  1  0  0  0  0
 27 28  1  0  0  0  0
 28 57  1  0  0  0  0
 28 58  1  0  0  0  0
M  END
> <s_m_source_file>
AV-unprocessed.smi

> <i_m_source_file_index>
229

> <i_lp_mmshare_version>
43012

> <i_f3d_flags>
0

> <s_epik_input>
W0NIMl0xT1tDSDJdW0NIMl1bQ0BdMTJbQ0gyXU4oW0NIMl1bQ0BIXShPMilbQ0gyXVtDSDNdKWMobltjSF1uMyljKGMzNCluW2NIXW40W0NIMl1bQ0BIXShbT0hdKVtDQEBIXTVbQ0gyXVtDSDJdW0NIMl1PNQ==

> <s_epik_cmdline>
J2VwaWtfcHl0aG9uJywgJy1waCcsICc3LjAnLCAnLXRuJywgJzgnLCAnLW1hJywgJzIwMCcsICctbWV0YWxfYmluZGluZycsICctaW1hZScsICc8aW5maWxlLm1hZT4nLCAnLW9tYWUnLCAnPG91dGZpbGUubWFlPic=

> <r_lp_tautomer_probability>
1

> <r_epik_Ionization_Penalty>
0.00318402

> <r_epik_Ionization_Penalty_Charging>
0

> <r_epik_Ionization_Penalty_Neutral>
0.00318402

> <r_epik_State_Penalty>
0.00215642

> <r_epik_Charging_Adjusted_Penalty>
0.00215642

> <i_epik_Tot_Q>
0

> <i_epik_Tot_abs_Q>
0

> <r_epik_Metal_State_Penalty>
-0

> <b_epik_Metal_Only>
0

> <s_lp_Force_Field>
OPLS_2005

> <r_lp_Energy>
54.5162

> <b_lp_Chiralities_Consistent>
1

> <s_lp_Variant>
AV-unprocessed.smi:229-9

> <Gold.Version>
5.8.1

> <Gold.Id.Protein>
6NUR|6NUR_protein|mol2

> <Gold.PLP.Fitness>
47.6797

> <Gold.PLP.PLP>
-41.9521

> <Gold.PLP.part.hbond>
-3.0164

> <Gold.PLP.part.metal>
0.0000

> <Gold.PLP.part.buried>
-7.1983

> <Gold.PLP.part.nonpolar>
-31.4375

> <Gold.PLP.part.repulsive>
0.0000

> <Gold.PLP.ligand.clash>
0.0000

> <Gold.PLP.ligand.torsion>
0.3484

> <Gold.PLP.Chemscore.Hbond>
2.0000

> <Gold.PLP.Chemscore.CHOScore>
0.0000

> <Gold.PLP.Chemscore.Metal>
0.0000

> <Gold.Chemscore.Hbonds>
donor molecule, donor type, donor heavy atom, donor atom, acceptor molecule, acceptor atom, score
      L1  H    17    43       P1  8028  0.89
      P1  H  6896  6907       L1     7  0.94

> <Gold.PLP.Chemscore.Internal.Correction>
0.4243

> <Gold.Rescore>
     Score         DG    S(hbond)    S(metal)    S(lipo)     H(rot)  DE(clash)    DE(int)     intcor
     17.10     -17.69       1.90        0.00     103.88       2.46       0.15       0.44       ----

> <Gold.Chemscore.Fitness>
17.1000

> <Gold.Chemscore.DG>
-17.6930

> <Gold.Chemscore.ZeroCoef>
-5.4800

> <Gold.Chemscore.Hbond>
1.9027

> <Gold.Chemscore.Metal>
0.0000

> <Gold.Chemscore.Lipo>
103.8753

> <Gold.Chemscore.Internal_Hbond>
0.0000

> <Gold.Chemscore.DEClash>
0.1508

> <Gold.Chemscore.DEInternal>
0.4422

> <Gold.Chemscore.Rot>
2.4591

> <Gold.Chemscore.Internal.Correction>
   9.000000E+99

> <Gold.Chemscore.Hbonds>
donor molecule, donor type, donor heavy atom, donor atom, acceptor molecule, acceptor atom, score
      L1  H    17    43       P1  8028  0.85
      P1  H  6896  6907       L1     7  0.59

> <Gold.Chemscore.Hbond.Weighted>
-6.3549

> <Gold.Chemscore.Metal.Weighted>
-0.0000

> <Gold.Chemscore.Lipo.Weighted>
-12.1534

> <Gold.Chemscore.Internal_Hbond.Weighted>
0.0000

> <Gold.Chemscore.DEClash.Weighted>
0.1508

> <Gold.Chemscore.DEInternal.Weighted>
0.4422

> <Gold.Chemscore.Rot.Weighted>
6.2953

> <Gold.Chemscore.Internal.Correction.Weighted>
   9.000000E+99

> <Gold.Protein.RotatedTorsions>
[ 6907 6896 6895 6894 ] final  -17.27 input  -60.11 | X-H torsion
[ 7974 7965 7964 7962 ] final  -16.13 input  175.53 | X-H torsion
[ 8008 7997 7996 7995 ] final  138.73 input   59.86 | X-H torsion
[ 10167 10162 10161 10158 ] final  -16.69 input  -65.29 | X-H torsion
[ 10718 10713 10712 10709 ] final  116.99 input   66.30 | X-H torsion
[ 10763 10752 10751 10750 ] final  -60.54 input  -60.55 | X-H torsion
[ 11005 11000 10999 10996 ] final -114.31 input  -57.11 | X-H torsion

> <Gold.Protein.ActiveResidues>
 VAL166  LYS551  ARG553  GLY616  TRP617  ASP618  TYR619  PRO620  LYS621  CYS622 
 ASP623  PHE694  ASN695  SER759  ASP760  ASP761  ALA762  ILE779  LEU786  VAL792 
 PHE793  MET794  SER795  GLU796  ALA797  LYS798  CYS799  TRP800  GLU811  SER814 

> <Gold.Protein.RotatedAtoms>
  151.2959  135.0755  159.9220 H   0  0  0  0  0  0  0  0  0  0  0  0  # atno 6907 bound_to 6896
  152.5307  133.9884  159.7849 H   0  0  0  0  0  0  0  0  0  0  0  0  # atno 6908 bound_to 6896
  151.0162  133.5868  159.2707 H   0  0  0  0  0  0  0  0  0  0  0  0  # atno 6909 bound_to 6896
  146.2001  140.3592  142.8426 H   0  0  0  0  0  0  0  0  0  0  0  0  # atno 7974 bound_to 7965
  156.2995  140.2386  156.4122 H   0  0  0  0  0  0  0  0  0  0  0  0  # atno 8008 bound_to 7997
  154.8431  140.0427  157.1575 H   0  0  0  0  0  0  0  0  0  0  0  0  # atno 8009 bound_to 7997
  154.9081  140.2986  155.5285 H   0  0  0  0  0  0  0  0  0  0  0  0  # atno 8010 bound_to 7997
  140.7237  143.5090  150.9773 H   0  0  0  0  0  0  0  0  0  0  0  0  # atno 10167 bound_to 10162
  157.6125  131.1032  150.7551 H   0  0  0  0  0  0  0  0  0  0  0  0  # atno 10718 bound_to 10713
  154.2707  135.6291  153.5309 H   0  0  0  0  0  0  0  0  0  0  0  0  # atno 10763 bound_to 10752
  152.9880  135.5609  154.5603 H   0  0  0  0  0  0  0  0  0  0  0  0  # atno 10764 bound_to 10752
  154.5172  135.2880  155.1268 H   0  0  0  0  0  0  0  0  0  0  0  0  # atno 10765 bound_to 10752
  141.0560  133.9612  157.2753 H   0  0  0  0  0  0  0  0  0  0  0  0  # atno 11005 bound_to 11000
  144.8666  140.7214  143.6074 LP  0  0  0  0  0  0  0  0  0  0  0  0  # atno 17320 bound_to 7965
  145.3511  139.1706  143.4434 LP  0  0  0  0  0  0  0  0  0  0  0  0  # atno 17321 bound_to 7965
  139.8803  143.7080  152.3157 LP  0  0  0  0  0  0  0  0  0  0  0  0  # atno 17342 bound_to 10162
  139.7360  144.7571  151.0727 LP  0  0  0  0  0  0  0  0  0  0  0  0  # atno 17343 bound_to 10162
  156.7926  130.4895  149.5382 LP  0  0  0  0  0  0  0  0  0  0  0  0  # atno 17370 bound_to 10713
  156.1234  130.6126  151.0227 LP  0  0  0  0  0  0  0  0  0  0  0  0  # atno 17371 bound_to 10713
  139.9390  135.0193  156.8649 LP  0  0  0  0  0  0  0  0  0  0  0  0  # atno 17394 bound_to 11000
  140.5963  134.0214  155.7519 LP  0  0  0  0  0  0  0  0  0  0  0  0  # atno 17395 bound_to 11000

$$$$
