AV-unprocessed.smi:3320|AV-procd|sdf|12768|dock4
  -GOLD-   2272019103D 1   1.00000     0.00000
 Structure written by MMmdl.
 37 38  0  0  0  0  0  0  0  0  1 V2000
  153.8729  141.0594  160.7075 C   0  0  0  0  0  0  0  0  0  0  0  0
  153.4430  142.5038  161.0019 C   0  0  0  0  0  0  0  0  0  0  0  0
  153.1228  142.7460  162.4839 C   0  0  0  0  0  0  0  0  0  0  0  0
  152.3330  142.9546  160.1050 C   0  0  0  0  0  0  0  0  0  0  0  0
  151.7294  142.1605  159.2154 N   0  0  0  0  0  0  0  0  0  0  0  0
  150.7251  142.8163  158.4974 C   0  0  0  0  0  0  0  0  0  0  0  0
  149.9523  142.0746  157.4496 C   0  0  0  0  0  0  0  0  0  0  0  0
  150.7961  141.8021  156.1935 C   0  0  0  0  0  0  0  0  0  0  0  0
  151.4663  140.5088  156.2642 N   0  0  0  0  0  0  0  0  0  0  0  0
  151.3839  139.5474  155.3323 C   0  0  0  0  0  0  0  0  0  0  0  0
  150.7223  139.6644  154.2999 O   0  0  0  0  0  0  0  0  0  0  0  0
  152.1738  138.2633  155.6178 C   0  0  0  0  0  0  0  0  0  0  0  0
  151.3057  137.0175  155.8705 C   0  0  0  0  0  0  0  0  0  0  0  0
  152.2189  136.6706  157.0500 C   0  0  0  0  0  0  0  0  0  0  0  0
  152.6756  138.1324  157.0668 C   0  0  0  0  0  0  0  0  0  0  0  0
  150.5718  144.1310  158.8602 C   0  0  0  0  0  0  0  0  0  0  0  0
  151.6870  144.5923  160.1166 S   0  0  0  0  0  0  0  0  0  0  0  0
  154.1714  140.9434  159.6652 H   0  0  0  0  0  0  0  0  0  0  0  0
  153.0618  140.3569  160.9021 H   0  0  0  0  0  0  0  0  0  0  0  0
  154.7203  140.7678  161.3283 H   0  0  0  0  0  0  0  0  0  0  0  0
  154.3018  143.1338  160.7665 H   0  0  0  0  0  0  0  0  0  0  0  0
  152.9003  143.7971  162.6703 H   0  0  0  0  0  0  0  0  0  0  0  0
  153.9655  142.4694  163.1180 H   0  0  0  0  0  0  0  0  0  0  0  0
  152.2604  142.1606  162.8042 H   0  0  0  0  0  0  0  0  0  0  0  0
  149.5882  141.1325  157.8615 H   0  0  0  0  0  0  0  0  0  0  0  0
  149.0629  142.6419  157.1727 H   0  0  0  0  0  0  0  0  0  0  0  0
  150.1564  141.8036  155.3107 H   0  0  0  0  0  0  0  0  0  0  0  0
  151.5308  142.5955  156.0451 H   0  0  0  0  0  0  0  0  0  0  0  0
  152.0308  140.3303  157.0821 H   0  0  0  0  0  0  0  0  0  0  0  0
  152.9659  138.0680  154.8921 H   0  0  0  0  0  0  0  0  0  0  0  0
  150.2823  137.2359  156.1813 H   0  0  0  0  0  0  0  0  0  0  0  0
  151.3265  136.2843  155.0638 H   0  0  0  0  0  0  0  0  0  0  0  0
  151.6963  136.3467  157.9507 H   0  0  0  0  0  0  0  0  0  0  0  0
  153.0196  135.9821  156.7753 H   0  0  0  0  0  0  0  0  0  0  0  0
  153.7526  138.2588  157.1820 H   0  0  0  0  0  0  0  0  0  0  0  0
  152.1252  138.7375  157.7898 H   0  0  0  0  0  0  0  0  0  0  0  0
  149.8744  144.8544  158.4646 H   0  0  0  0  0  0  0  0  0  0  0  0
  1  2  1  0  0  0  0
  1 18  1  0  0  0  0
  1 19  1  0  0  0  0
  1 20  1  0  0  0  0
  2  3  1  0  0  0  0
  2  4  1  0  0  0  0
  2 21  1  0  0  0  0
  3 22  1  0  0  0  0
  3 23  1  0  0  0  0
  3 24  1  0  0  0  0
  4 17  1  0  0  0  0
  4  5  2  0  0  0  0
  5  6  1  0  0  0  0
  6  7  1  0  0  0  0
  6 16  2  0  0  0  0
  7  8  1  0  0  0  0
  7 25  1  0  0  0  0
  7 26  1  0  0  0  0
  8  9  1  0  0  0  0
  8 27  1  0  0  0  0
  8 28  1  0  0  0  0
  9 10  1  0  0  0  0
  9 29  1  0  0  0  0
 10 11  2  0  0  0  0
 10 12  1  0  0  0  0
 12 15  1  0  0  0  0
 12 13  1  0  0  0  0
 12 30  1  0  0  0  0
 13 14  1  0  0  0  0
 13 31  1  0  0  0  0
 13 32  1  0  0  0  0
 14 15  1  0  0  0  0
 14 33  1  0  0  0  0
 14 34  1  0  0  0  0
 15 35  1  0  0  0  0
 15 36  1  0  0  0  0
 16 17  1  0  0  0  0
 16 37  1  0  0  0  0
M  END
> <s_m_source_file>
AV-unprocessed.smi

> <i_m_source_file_index>
3320

> <i_lp_mmshare_version>
43012

> <i_f3d_flags>
0

> <s_epik_input>
W0NIM11bQ0hdKFtDSDNdKWMxbmMoW2NIXXMxKVtDSDJdW0NIMl1bTkhdQyg9TylbQ0hdMltDSDJdW0NIMl1bQ0gyXTI=

> <s_epik_cmdline>
J2VwaWtfcHl0aG9uJywgJy1waCcsICc3LjAnLCAnLXRuJywgJzgnLCAnLW1hJywgJzIwMCcsICctbWV0YWxfYmluZGluZycsICctaW1hZScsICc8aW5maWxlLm1hZT4nLCAnLW9tYWUnLCAnPG91dGZpbGUubWFlPic=

> <r_epik_Ionization_Penalty>
0.000842111

> <r_epik_Ionization_Penalty_Charging>
0

> <r_epik_Ionization_Penalty_Neutral>
0.000842111

> <r_epik_State_Penalty>
0.000542609

> <r_epik_Charging_Adjusted_Penalty>
0.000542609

> <i_epik_Tot_Q>
0

> <i_epik_Tot_abs_Q>
0

> <r_epik_Metal_State_Penalty>
-0

> <b_epik_Metal_Only>
0

> <s_lp_Force_Field>
OPLS_2005

> <r_lp_Energy>
-0.445202

> <b_lp_Chiralities_Consistent>
1

> <s_lp_Variant>
AV-unprocessed.smi:3320-1

> <Gold.Version>
5.8.1

> <Gold.Id.Protein>
6NUR|6NUR_protein|mol2

> <Gold.PLP.Fitness>
43.6014

> <Gold.PLP.PLP>
-38.3204

> <Gold.PLP.part.hbond>
-1.0000

> <Gold.PLP.part.metal>
0.0000

> <Gold.PLP.part.buried>
-5.6450

> <Gold.PLP.part.nonpolar>
-31.9605

> <Gold.PLP.part.repulsive>
0.2807

> <Gold.PLP.ligand.clash>
0.0000

> <Gold.PLP.ligand.torsion>
0.6052

> <Gold.PLP.Chemscore.Hbond>
1.0000

> <Gold.PLP.Chemscore.CHOScore>
1.0000

> <Gold.PLP.Chemscore.Metal>
0.0000

> <Gold.Chemscore.Hbonds>
donor molecule, donor type, donor heavy atom, donor atom, acceptor molecule, acceptor atom, score
      P1  H  7989  7998       L1    11  1.00
      L1  C    16    37       P1  8029  0.97

> <Gold.PLP.Chemscore.Internal.Correction>
0.4914

> <Gold.Rescore>
     Score         DG    S(hbond)    S(metal)    S(lipo)     H(rot)  DE(clash)    DE(int)     intcor
     16.69     -17.42       0.92        0.00     108.45       1.49       0.15       0.58       ----

> <Gold.Chemscore.Fitness>
16.6905

> <Gold.Chemscore.DG>
-17.4244

> <Gold.Chemscore.ZeroCoef>
-5.4800

> <Gold.Chemscore.Hbond>
0.9168

> <Gold.Chemscore.Metal>
0.0000

> <Gold.Chemscore.Lipo>
108.4539

> <Gold.Chemscore.Internal_Hbond>
0.0000

> <Gold.Chemscore.DEClash>
0.1541

> <Gold.Chemscore.DEInternal>
0.5799

> <Gold.Chemscore.Rot>
1.4870

> <Gold.Chemscore.Internal.Correction>
   9.000000E+99

> <Gold.Chemscore.Hbonds>
donor molecule, donor type, donor heavy atom, donor atom, acceptor molecule, acceptor atom, score
      P1  H  7989  7998       L1    11  0.30

> <Gold.Chemscore.Hbond.Weighted>
-3.0620

> <Gold.Chemscore.Metal.Weighted>
-0.0000

> <Gold.Chemscore.Lipo.Weighted>
-12.6891

> <Gold.Chemscore.Internal_Hbond.Weighted>
0.0000

> <Gold.Chemscore.DEClash.Weighted>
0.1541

> <Gold.Chemscore.DEInternal.Weighted>
0.5799

> <Gold.Chemscore.Rot.Weighted>
3.8067

> <Gold.Chemscore.Internal.Correction.Weighted>
   9.000000E+99

> <Gold.Protein.RotatedTorsions>
[ 6907 6896 6895 6894 ] final  143.65 input  -60.11 | X-H torsion
[ 7974 7965 7964 7962 ] final   28.50 input  175.53 | X-H torsion
[ 8008 7997 7996 7995 ] final  -96.11 input   59.86 | X-H torsion
[ 10167 10162 10161 10158 ] final -165.94 input  -65.29 | X-H torsion
[ 10718 10713 10712 10709 ] final  -56.00 input   66.30 | X-H torsion
[ 10763 10752 10751 10750 ] final -122.69 input  -60.55 | X-H torsion
[ 11005 11000 10999 10996 ] final    8.00 input  -57.11 | X-H torsion

> <Gold.Protein.ActiveResidues>
 VAL166  LYS551  ARG553  GLY616  TRP617  ASP618  TYR619  PRO620  LYS621  CYS622 
 ASP623  PHE694  ASN695  SER759  ASP760  ASP761  ALA762  ILE779  LEU786  VAL792 
 PHE793  MET794  SER795  GLU796  ALA797  LYS798  CYS799  TRP800  GLU811  SER814 

> <Gold.Protein.RotatedAtoms>
  152.2036  133.4859  159.5071 H   0  0  0  0  0  0  0  0  0  0  0  0  # atno 6907 bound_to 6896
  150.6975  134.1559  159.4167 H   0  0  0  0  0  0  0  0  0  0  0  0  # atno 6908 bound_to 6896
  151.9477  135.0184  160.0590 H   0  0  0  0  0  0  0  0  0  0  0  0  # atno 6909 bound_to 6896
  146.1725  139.7048  142.8957 H   0  0  0  0  0  0  0  0  0  0  0  0  # atno 7974 bound_to 7965
  154.7702  140.0474  157.1045 H   0  0  0  0  0  0  0  0  0  0  0  0  # atno 8008 bound_to 7997
  154.9830  140.3104  155.4919 H   0  0  0  0  0  0  0  0  0  0  0  0  # atno 8009 bound_to 7997
  156.2920  140.2232  156.4930 H   0  0  0  0  0  0  0  0  0  0  0  0  # atno 8010 bound_to 7997
  139.6148  144.0742  152.1877 H   0  0  0  0  0  0  0  0  0  0  0  0  # atno 10167 bound_to 10162
  156.1323  130.4158  150.0246 H   0  0  0  0  0  0  0  0  0  0  0  0  # atno 10718 bound_to 10713
  154.8694  135.4124  154.2823 H   0  0  0  0  0  0  0  0  0  0  0  0  # atno 10763 bound_to 10752
  153.3714  135.7007  153.6641 H   0  0  0  0  0  0  0  0  0  0  0  0  # atno 10764 bound_to 10752
  153.5501  135.3630  155.2727 H   0  0  0  0  0  0  0  0  0  0  0  0  # atno 10765 bound_to 10752
  140.5419  134.0366  155.7907 H   0  0  0  0  0  0  0  0  0  0  0  0  # atno 11005 bound_to 11000
  145.4301  141.0414  143.2915 LP  0  0  0  0  0  0  0  0  0  0  0  0  # atno 17320 bound_to 7965
  144.8185  139.5833  143.6997 LP  0  0  0  0  0  0  0  0  0  0  0  0  # atno 17321 bound_to 7965
  140.0369  144.6037  150.7442 LP  0  0  0  0  0  0  0  0  0  0  0  0  # atno 17342 bound_to 10162
  140.7343  143.2728  151.3836 LP  0  0  0  0  0  0  0  0  0  0  0  0  # atno 17343 bound_to 10162
  156.8155  130.9340  151.3643 LP  0  0  0  0  0  0  0  0  0  0  0  0  # atno 17370 bound_to 10713
  157.6500  130.8876  149.9614 LP  0  0  0  0  0  0  0  0  0  0  0  0  # atno 17371 bound_to 10713
  141.1222  133.9442  157.2707 LP  0  0  0  0  0  0  0  0  0  0  0  0  # atno 17394 bound_to 11000
  139.9499  135.0177  156.8964 LP  0  0  0  0  0  0  0  0  0  0  0  0  # atno 17395 bound_to 11000

$$$$
