AV-unprocessed.smi:462|AV-procd|sdf|2633|dock7
  -GOLD-   2262023 43D 1   1.00000     0.00000
 Structure written by MMmdl.
 47 49  0  0  0  0  0  0  0  0  2 V2000
  153.4957  141.7648  161.9623 C   0  0  0  0  0  0  0  0  0  0  0  0
  153.0683  141.5010  160.6348 O   0  0  0  0  0  0  0  0  0  0  0  0
  152.4980  142.5299  159.9132 C   0  0  0  0  0  0  0  0  0  0  0  0
  152.4744  143.8789  160.3492 C   0  0  0  0  0  0  0  0  0  0  0  0
  151.8772  144.8748  159.5550 C   0  0  0  0  0  0  0  0  0  0  0  0
  151.2971  144.5361  158.3206 C   0  0  0  0  0  0  0  0  0  0  0  0
  151.3149  143.2010  157.8781 C   0  0  0  0  0  0  0  0  0  0  0  0
  151.9164  142.1915  158.6701 C   0  0  0  0  0  0  0  0  0  0  0  0
  151.9728  140.8651  158.3035 O   0  0  0  0  0  0  0  0  0  0  0  0
  150.9387  140.3308  157.4902 C   0  0  0  0  0  0  0  0  0  0  0  0
  151.1640  140.7718  156.0340 C   0  0  0  0  0  0  0  0  0  0  0  0
  150.3861  139.9675  155.0733 N   0  0  0  0  0  0  0  0  0  0  0  0
  150.6315  138.7360  154.5239 C   0  0  0  0  0  0  0  0  0  0  0  0
  151.8450  137.8590  154.7142 C   0  0  0  0  0  0  0  0  0  0  0  0
  153.1361  138.6005  154.3154 C   0  0  0  0  0  0  0  0  0  0  0  0
  151.9237  137.3921  156.1776 C   0  0  0  0  0  0  0  0  0  0  0  0
  151.7998  136.7060  153.8984 O   0  0  0  0  0  0  0  0  0  0  0  0
  149.5847  138.4637  153.6901 N   0  3  0  0  0  0  0  0  0  0  0  0
  148.6588  139.5042  153.7209 C   0  0  0  0  0  0  0  0  0  0  0  0
  147.4449  139.6617  153.0593 C   0  0  0  0  0  0  0  0  0  0  0  0
  146.7366  140.8544  153.3120 C   0  0  0  0  0  0  0  0  0  0  0  0
  147.2432  141.8360  154.1877 C   0  0  0  0  0  0  0  0  0  0  0  0
  148.4781  141.6657  154.8470 C   0  0  0  0  0  0  0  0  0  0  0  0
  149.1694  140.4788  154.5995 C   0  0  0  0  0  0  0  0  0  0  0  0
  153.9360  140.8607  162.3824 H   0  0  0  0  0  0  0  0  0  0  0  0
  152.6598  142.0524  162.6012 H   0  0  0  0  0  0  0  0  0  0  0  0
  154.2577  142.5448  161.9883 H   0  0  0  0  0  0  0  0  0  0  0  0
  152.9087  144.1766  161.2912 H   0  0  0  0  0  0  0  0  0  0  0  0
  151.8641  145.9002  159.8944 H   0  0  0  0  0  0  0  0  0  0  0  0
  150.8373  145.3008  157.7123 H   0  0  0  0  0  0  0  0  0  0  0  0
  150.8574  142.9740  156.9273 H   0  0  0  0  0  0  0  0  0  0  0  0
  150.9382  139.2417  157.5500 H   0  0  0  0  0  0  0  0  0  0  0  0
  149.9673  140.6871  157.8348 H   0  0  0  0  0  0  0  0  0  0  0  0
  150.9093  141.8237  155.9030 H   0  0  0  0  0  0  0  0  0  0  0  0
  152.2188  140.6858  155.7769 H   0  0  0  0  0  0  0  0  0  0  0  0
  153.2989  139.4852  154.9318 H   0  0  0  0  0  0  0  0  0  0  0  0
  153.1045  138.9225  153.2735 H   0  0  0  0  0  0  0  0  0  0  0  0
  154.0129  137.9625  154.4341 H   0  0  0  0  0  0  0  0  0  0  0  0
  151.9957  138.2417  156.8574 H   0  0  0  0  0  0  0  0  0  0  0  0
  152.7971  136.7617  156.3482 H   0  0  0  0  0  0  0  0  0  0  0  0
  151.0440  136.8169  156.4669 H   0  0  0  0  0  0  0  0  0  0  0  0
  151.4820  136.9537  153.0436 H   0  0  0  0  0  0  0  0  0  0  0  0
  147.0559  138.9111  152.3870 H   0  0  0  0  0  0  0  0  0  0  0  0
  145.7867  141.0199  152.8249 H   0  0  0  0  0  0  0  0  0  0  0  0
  146.6733  142.7373  154.3602 H   0  0  0  0  0  0  0  0  0  0  0  0
  148.8507  142.4222  155.5213 H   0  0  0  0  0  0  0  0  0  0  0  0
  149.5115  137.6163  153.1427 H   0  0  0  0  0  0  0  0  0  0  0  0
  1  2  1  0  0  0  0
  1 25  1  0  0  0  0
  1 26  1  0  0  0  0
  1 27  1  0  0  0  0
  2  3  1  0  0  0  0
  3  8  1  0  0  0  0
  3  4  2  0  0  0  0
  4  5  1  0  0  0  0
  4 28  1  0  0  0  0
  5  6  2  0  0  0  0
  5 29  1  0  0  0  0
  6  7  1  0  0  0  0
  6 30  1  0  0  0  0
  7  8  2  0  0  0  0
  7 31  1  0  0  0  0
  8  9  1  0  0  0  0
  9 10  1  0  0  0  0
 10 11  1  0  0  0  0
 10 32  1  0  0  0  0
 10 33  1  0  0  0  0
 11 12  1  0  0  0  0
 11 34  1  0  0  0  0
 11 35  1  0  0  0  0
 12 24  1  0  0  0  0
 12 13  1  0  0  0  0
 13 14  1  0  0  0  0
 13 18  2  0  0  0  0
 14 15  1  0  0  0  0
 14 16  1  0  0  0  0
 14 17  1  0  0  0  0
 15 36  1  0  0  0  0
 15 37  1  0  0  0  0
 15 38  1  0  0  0  0
 16 39  1  0  0  0  0
 16 40  1  0  0  0  0
 16 41  1  0  0  0  0
 17 42  1  0  0  0  0
 18 19  1  0  0  0  0
 18 47  1  0  0  0  0
 19 24  2  0  0  0  0
 19 20  1  0  0  0  0
 20 21  2  0  0  0  0
 20 43  1  0  0  0  0
 21 22  1  0  0  0  0
 21 44  1  0  0  0  0
 22 23  2  0  0  0  0
 22 45  1  0  0  0  0
 23 24  1  0  0  0  0
 23 46  1  0  0  0  0
M  CHG  1  18   1
M  END
> <s_m_source_file>
AV-unprocessed.smi

> <i_m_source_file_index>
462

> <i_lp_mmshare_version>
43012

> <i_f3d_flags>
0

> <s_epik_input>
W0NIM11PYzFbY0hdW2NIXVtjSF1bY0hdYzFPW0NIMl1bQ0gyXW4oYyhuMilDKFtDSDNdKShbQ0gzXSlbT0hdKWMoYzIzKVtjSF1bY0hdW2NIXVtjSF0z

> <s_epik_cmdline>
J2VwaWtfcHl0aG9uJywgJy1waCcsICc3LjAnLCAnLXRuJywgJzgnLCAnLW1hJywgJzIwMCcsICctbWV0YWxfYmluZGluZycsICctaW1hZScsICc8aW5maWxlLm1hZT4nLCAnLW9tYWUnLCAnPG91dGZpbGUubWFlPic=

> <r_lp_tautomer_probability>
1

> <r_epik_Ionization_Penalty>
1.32796

> <r_epik_Ionization_Penalty_Charging>
1.32796

> <r_epik_Ionization_Penalty_Neutral>
1.51811e-06

> <r_epik_State_Penalty>
1.40413

> <r_epik_Charging_Adjusted_Penalty>
2.73209

> <i_epik_Tot_Q>
1

> <i_epik_Tot_abs_Q>
1

> <r_epik_Metal_State_Penalty>
5.43878

> <b_epik_Metal_Only>
0

> <s_lp_Force_Field>
OPLS_2005

> <r_lp_Energy>
22.2215

> <b_lp_Chiralities_Consistent>
1

> <s_lp_Variant>
AV-unprocessed.smi:462-2

> <Gold.Version>
5.8.1

> <Gold.Id.Protein>
6NUR|6NUR_protein|mol2

> <Gold.PLP.Fitness>
68.2077

> <Gold.PLP.PLP>
-58.4845

> <Gold.PLP.part.hbond>
-4.0000

> <Gold.PLP.part.metal>
0.0000

> <Gold.PLP.part.buried>
-1.3758

> <Gold.PLP.part.nonpolar>
-53.4378

> <Gold.PLP.part.repulsive>
0.0601

> <Gold.PLP.ligand.clash>
0.0000

> <Gold.PLP.ligand.torsion>
0.9304

> <Gold.PLP.Chemscore.Hbond>
3.8160

> <Gold.PLP.Chemscore.CHOScore>
0.0000

> <Gold.PLP.Chemscore.Metal>
0.0000

> <Gold.Chemscore.Hbonds>
donor molecule, donor type, donor heavy atom, donor atom, acceptor molecule, acceptor atom, score
      L1  H    17    42       P1  7949  0.66
      L1  H    18    47       P1  7948  2.00
      P1  H 10752 10763       L1    17  1.00

> <Gold.PLP.Chemscore.Internal.Correction>
0.1359

> <Gold.Rescore>
     Score         DG    S(hbond)    S(metal)    S(lipo)     H(rot)  DE(clash)    DE(int)     intcor
     23.30     -26.03       2.42        0.00     157.43       2.33       1.68       1.05       ----

> <Gold.Chemscore.Fitness>
23.2957

> <Gold.Chemscore.DG>
-26.0306

> <Gold.Chemscore.ZeroCoef>
-5.4800

> <Gold.Chemscore.Hbond>
2.4238

> <Gold.Chemscore.Metal>
0.0000

> <Gold.Chemscore.Lipo>
157.4297

> <Gold.Chemscore.Internal_Hbond>
0.0000

> <Gold.Chemscore.DEClash>
1.6849

> <Gold.Chemscore.DEInternal>
1.0500

> <Gold.Chemscore.Rot>
2.3298

> <Gold.Chemscore.Internal.Correction>
   9.000000E+99

> <Gold.Chemscore.Hbonds>
donor molecule, donor type, donor heavy atom, donor atom, acceptor molecule, acceptor atom, score
      L1  H    17    42       P1  7949  0.60
      L1  H    18    47       P1  7948  0.88
      P1  H 10752 10763       L1    17  0.87

> <Gold.Chemscore.Hbond.Weighted>
-8.0956

> <Gold.Chemscore.Metal.Weighted>
-0.0000

> <Gold.Chemscore.Lipo.Weighted>
-18.4193

> <Gold.Chemscore.Internal_Hbond.Weighted>
0.0000

> <Gold.Chemscore.DEClash.Weighted>
1.6849

> <Gold.Chemscore.DEInternal.Weighted>
1.0500

> <Gold.Chemscore.Rot.Weighted>
5.9643

> <Gold.Chemscore.Internal.Correction.Weighted>
   9.000000E+99

> <Gold.Protein.RotatedTorsions>
[ 6907 6896 6895 6894 ] final -160.53 input  -60.11 | X-H torsion
[ 7974 7965 7964 7962 ] final   82.13 input  175.53 | X-H torsion
[ 8008 7997 7996 7995 ] final  164.18 input   59.86 | X-H torsion
[ 10167 10162 10161 10158 ] final  107.83 input  -65.29 | X-H torsion
[ 10718 10713 10712 10709 ] final  -70.01 input   66.30 | X-H torsion
[ 10763 10752 10751 10750 ] final   33.22 input  -60.55 | X-H torsion
[ 11005 11000 10999 10996 ] final  153.39 input  -57.11 | X-H torsion

> <Gold.Protein.ActiveResidues>
 VAL166  LYS551  ARG553  GLY616  TRP617  ASP618  TYR619  PRO620  LYS621  CYS622 
 ASP623  PHE694  ASN695  SER759  ASP760  ASP761  ALA762  ILE779  LEU786  VAL792 
 PHE793  MET794  SER795  GLU796  ALA797  LYS798  CYS799  TRP800  GLU811  SER814 

> <Gold.Protein.RotatedAtoms>
  151.3506  133.3927  159.2679 H   0  0  0  0  0  0  0  0  0  0  0  0  # atno 6907 bound_to 6896
  150.9804  134.9161  159.7851 H   0  0  0  0  0  0  0  0  0  0  0  0  # atno 6908 bound_to 6896
  152.5215  134.3469  159.9289 H   0  0  0  0  0  0  0  0  0  0  0  0  # atno 6909 bound_to 6896
  145.6290  139.2401  143.2095 H   0  0  0  0  0  0  0  0  0  0  0  0  # atno 7974 bound_to 7965
  156.1900  140.1704  156.8110 H   0  0  0  0  0  0  0  0  0  0  0  0  # atno 8008 bound_to 7997
  154.5460  140.0727  156.8621 H   0  0  0  0  0  0  0  0  0  0  0  0  # atno 8009 bound_to 7997
  155.3121  140.3368  155.4246 H   0  0  0  0  0  0  0  0  0  0  0  0  # atno 8010 bound_to 7997
  139.6895  144.7109  151.1373 H   0  0  0  0  0  0  0  0  0  0  0  0  # atno 10167 bound_to 10162
  156.0428  130.4323  150.2232 H   0  0  0  0  0  0  0  0  0  0  0  0  # atno 10718 bound_to 10713
  153.0222  135.6392  154.1478 H   0  0  0  0  0  0  0  0  0  0  0  0  # atno 10763 bound_to 10752
  154.1211  135.2846  155.3210 H   0  0  0  0  0  0  0  0  0  0  0  0  # atno 10764 bound_to 10752
  154.6263  135.5508  153.7692 H   0  0  0  0  0  0  0  0  0  0  0  0  # atno 10765 bound_to 10752
  140.1394  134.8749  157.2310 H   0  0  0  0  0  0  0  0  0  0  0  0  # atno 11005 bound_to 11000
  146.1371  140.7108  142.9384 LP  0  0  0  0  0  0  0  0  0  0  0  0  # atno 17320 bound_to 7965
  144.7201  140.4343  143.7015 LP  0  0  0  0  0  0  0  0  0  0  0  0  # atno 17321 bound_to 7965
  140.7678  143.5580  150.9131 LP  0  0  0  0  0  0  0  0  0  0  0  0  # atno 17342 bound_to 10162
  139.9256  143.6553  152.3087 LP  0  0  0  0  0  0  0  0  0  0  0  0  # atno 17343 bound_to 10162
  157.0325  131.0011  151.3308 LP  0  0  0  0  0  0  0  0  0  0  0  0  # atno 17370 bound_to 10713
  157.5267  130.8032  149.7870 LP  0  0  0  0  0  0  0  0  0  0  0  0  # atno 17371 bound_to 10713
  140.2742  134.3425  155.7364 LP  0  0  0  0  0  0  0  0  0  0  0  0  # atno 17394 bound_to 11000
  141.2183  133.7440  156.9267 LP  0  0  0  0  0  0  0  0  0  0  0  0  # atno 17395 bound_to 11000

$$$$
