AV-unprocessed.smi:1088|AV-procd|sdf|4729|dock9
  -GOLD-   22720 3263D 1   1.00000     0.00000
 Structure written by MMmdl.
 48 49  0  0  0  0  0  0  0  0  2 V2000
  154.8348  139.9769  161.9446 C   0  0  0  0  0  0  0  0  0  0  0  0
  154.0111  140.2807  160.8324 O   0  0  0  0  0  0  0  0  0  0  0  0
  153.4753  141.5918  160.8951 C   0  0  0  0  0  0  0  0  0  0  0  0
  152.8216  141.9300  159.5456 C   0  0  0  0  0  0  0  0  0  0  0  0
  151.7895  142.9959  159.6615 N   0  3  1  0  0  0  0  0  0  0  0  0
  152.2685  144.2383  160.3142 C   0  0  0  0  0  0  0  0  0  0  0  0
  151.4208  145.3690  159.7427 C   0  0  0  0  0  0  0  0  0  0  0  0
  151.2130  144.9181  158.3064 C   0  0  0  0  0  0  0  0  0  0  0  0
  151.0520  143.3936  158.4221 C   0  0  1  0  0  0  0  0  0  0  0  0
  151.4111  142.6238  157.1255 C   0  0  0  0  0  0  0  0  0  0  0  0
  150.2517  142.4816  156.2492 N   0  0  0  0  0  0  0  0  0  0  0  0
  150.0473  141.4733  155.3879 C   0  0  0  0  0  0  0  0  0  0  0  0
  150.8053  140.5082  155.2844 O   0  0  0  0  0  0  0  0  0  0  0  0
  148.7927  141.5739  154.5105 C   0  0  0  0  0  0  0  0  0  0  0  0
  147.5877  141.8970  155.2859 N   0  0  0  0  0  0  0  0  0  0  0  0
  147.4061  141.3360  156.5369 C   0  0  0  0  0  0  0  0  0  0  0  0
  146.3170  141.5620  157.3033 C   0  0  0  0  0  0  0  0  0  0  0  0
  145.2455  142.4358  156.8419 C   0  0  0  0  0  0  0  0  0  0  0  0
  144.2231  142.6507  157.4943 O   0  0  0  0  0  0  0  0  0  0  0  0
  145.4640  143.0118  155.5682 N   0  0  0  0  0  0  0  0  0  0  0  0
  144.4279  143.8711  155.0332 C   0  0  0  0  0  0  0  0  0  0  0  0
  146.5980  142.7586  154.7633 C   0  0  0  0  0  0  0  0  0  0  0  0
  146.7297  143.2531  153.6407 O   0  0  0  0  0  0  0  0  0  0  0  0
  155.2156  138.9600  161.8520 H   0  0  0  0  0  0  0  0  0  0  0  0
  154.2760  140.0425  162.8792 H   0  0  0  0  0  0  0  0  0  0  0  0
  155.6894  140.6527  161.9992 H   0  0  0  0  0  0  0  0  0  0  0  0
  152.7636  141.6807  161.7170 H   0  0  0  0  0  0  0  0  0  0  0  0
  154.2792  142.3024  161.0933 H   0  0  0  0  0  0  0  0  0  0  0  0
  153.5888  142.2385  158.8341 H   0  0  0  0  0  0  0  0  0  0  0  0
  152.3720  141.0158  159.1590 H   0  0  0  0  0  0  0  0  0  0  0  0
  152.1946  144.1765  161.4004 H   0  0  0  0  0  0  0  0  0  0  0  0
  153.3150  144.4113  160.0571 H   0  0  0  0  0  0  0  0  0  0  0  0
  150.4626  145.4233  160.2616 H   0  0  0  0  0  0  0  0  0  0  0  0
  151.9048  146.3432  159.8168 H   0  0  0  0  0  0  0  0  0  0  0  0
  150.3573  145.4006  157.8332 H   0  0  0  0  0  0  0  0  0  0  0  0
  152.1012  145.1622  157.7217 H   0  0  0  0  0  0  0  0  0  0  0  0
  150.0023  143.1943  158.6430 H   0  0  0  0  0  0  0  0  0  0  0  0
  152.2326  143.1098  156.5967 H   0  0  0  0  0  0  0  0  0  0  0  0
  151.7458  141.6147  157.3646 H   0  0  0  0  0  0  0  0  0  0  0  0
  149.5695  143.2258  156.2726 H   0  0  0  0  0  0  0  0  0  0  0  0
  148.9689  142.3364  153.7508 H   0  0  0  0  0  0  0  0  0  0  0  0
  148.6398  140.6412  153.9644 H   0  0  0  0  0  0  0  0  0  0  0  0
  148.1696  140.6757  156.9219 H   0  0  0  0  0  0  0  0  0  0  0  0
  146.2348  141.0857  158.2692 H   0  0  0  0  0  0  0  0  0  0  0  0
  144.8666  144.5991  154.3498 H   0  0  0  0  0  0  0  0  0  0  0  0
  143.9566  144.4203  155.8496 H   0  0  0  0  0  0  0  0  0  0  0  0
  143.7140  143.2242  154.5221 H   0  0  0  0  0  0  0  0  0  0  0  0
  151.0790  142.6193  160.2730 H   0  0  0  0  0  0  0  0  0  0  0  0
  1  2  1  0  0  0  0
  1 24  1  0  0  0  0
  1 25  1  0  0  0  0
  1 26  1  0  0  0  0
  2  3  1  0  0  0  0
  3  4  1  0  0  0  0
  3 27  1  0  0  0  0
  3 28  1  0  0  0  0
  4  5  1  0  0  0  0
  4 29  1  0  0  0  0
  4 30  1  0  0  0  0
  5  9  1  0  0  0  0
  5  6  1  0  0  0  0
  5 48  1  0  0  0  0
  6  7  1  0  0  0  0
  6 31  1  0  0  0  0
  6 32  1  0  0  0  0
  7  8  1  0  0  0  0
  7 33  1  0  0  0  0
  7 34  1  0  0  0  0
  8  9  1  0  0  0  0
  8 35  1  0  0  0  0
  8 36  1  0  0  0  0
  9 10  1  0  0  0  0
  9 37  1  0  0  0  0
 10 11  1  0  0  0  0
 10 38  1  0  0  0  0
 10 39  1  0  0  0  0
 11 12  1  0  0  0  0
 11 40  1  0  0  0  0
 12 13  2  0  0  0  0
 12 14  1  0  0  0  0
 14 15  1  0  0  0  0
 14 41  1  0  0  0  0
 14 42  1  0  0  0  0
 15 22  1  0  0  0  0
 15 16  1  0  0  0  0
 16 17  2  0  0  0  0
 16 43  1  0  0  0  0
 17 18  1  0  0  0  0
 17 44  1  0  0  0  0
 18 19  2  0  0  0  0
 18 20  1  0  0  0  0
 20 21  1  0  0  0  0
 20 22  1  0  0  0  0
 21 45  1  0  0  0  0
 21 46  1  0  0  0  0
 21 47  1  0  0  0  0
 22 23  2  0  0  0  0
M  CHG  1   5   1
M  END
> <s_m_source_file>
AV-unprocessed.smi

> <i_m_source_file_index>
1088

> <i_lp_mmshare_version>
43012

> <i_f3d_flags>
0

> <s_epik_input>
W0NIM11PW0NIMl1bQ0gyXU4xW0NIMl1bQ0gyXVtDSDJdW0NASF0xW0NIMl1bTkhdQyg9TylbQ0gyXW4yW2NIXVtjSF1jKD1PKW4oW0NIM10pYzI9Tw==

> <s_epik_cmdline>
J2VwaWtfcHl0aG9uJywgJy1waCcsICc3LjAnLCAnLXRuJywgJzgnLCAnLW1hJywgJzIwMCcsICctbWV0YWxfYmluZGluZycsICctaW1hZScsICc8aW5maWxlLm1hZT4nLCAnLW9tYWUnLCAnPG91dGZpbGUubWFlPic=

> <r_lp_tautomer_probability>
1

> <r_epik_Ionization_Penalty>
0.0127388

> <r_epik_Ionization_Penalty_Charging>
0.0127387

> <r_epik_Ionization_Penalty_Neutral>
8.26414e-08

> <r_epik_State_Penalty>
0.00987716

> <r_epik_Charging_Adjusted_Penalty>
0.0226159

> <i_epik_Tot_Q>
1

> <i_epik_Tot_abs_Q>
1

> <r_epik_Metal_State_Penalty>
0.00987836

> <b_epik_Metal_Only>
0

> <s_lp_Force_Field>
OPLS_2005

> <r_lp_Energy>
40.5069

> <b_lp_Chiralities_Consistent>
1

> <s_lp_Variant>
AV-unprocessed.smi:1088-2

> <Gold.Version>
5.8.1

> <Gold.Id.Protein>
6NUR|6NUR_protein|mol2

> <Gold.PLP.Fitness>
47.7035

> <Gold.PLP.PLP>
-43.9355

> <Gold.PLP.part.hbond>
-2.6988

> <Gold.PLP.part.metal>
0.0000

> <Gold.PLP.part.buried>
-6.5898

> <Gold.PLP.part.nonpolar>
-34.8918

> <Gold.PLP.part.repulsive>
0.4110

> <Gold.PLP.ligand.clash>
0.0000

> <Gold.PLP.ligand.torsion>
1.1672

> <Gold.PLP.Chemscore.Hbond>
1.9680

> <Gold.PLP.Chemscore.CHOScore>
0.0000

> <Gold.PLP.Chemscore.Metal>
0.0000

> <Gold.Chemscore.Hbonds>
donor molecule, donor type, donor heavy atom, donor atom, acceptor molecule, acceptor atom, score
      L1  H    11    40       P1  8028  1.00
      P1  H  7989  7998       L1    13  0.98
      P1  H  8022  8030       L1    23  0.04

> <Gold.PLP.Chemscore.Internal.Correction>
0.1984

> <Gold.Rescore>
     Score         DG    S(hbond)    S(metal)    S(lipo)     H(rot)  DE(clash)    DE(int)     intcor
     14.18     -15.68       1.61        0.00      97.38       2.57       0.27       1.23       ----

> <Gold.Chemscore.Fitness>
14.1828

> <Gold.Chemscore.DG>
-15.6821

> <Gold.Chemscore.ZeroCoef>
-5.4800

> <Gold.Chemscore.Hbond>
1.6124

> <Gold.Chemscore.Metal>
0.0000

> <Gold.Chemscore.Lipo>
97.3839

> <Gold.Chemscore.Internal_Hbond>
0.0000

> <Gold.Chemscore.DEClash>
0.2715

> <Gold.Chemscore.DEInternal>
1.2277

> <Gold.Chemscore.Rot>
2.5692

> <Gold.Chemscore.Internal.Correction>
   9.000000E+99

> <Gold.Chemscore.Hbonds>
donor molecule, donor type, donor heavy atom, donor atom, acceptor molecule, acceptor atom, score
      L1  H    11    40       P1  8028  0.96
      P1  H  7989  7998       L1    13  0.23
      P1  H  8022  8030       L1    23  0.03

> <Gold.Chemscore.Hbond.Weighted>
-5.3853

> <Gold.Chemscore.Metal.Weighted>
-0.0000

> <Gold.Chemscore.Lipo.Weighted>
-11.3939

> <Gold.Chemscore.Internal_Hbond.Weighted>
0.0000

> <Gold.Chemscore.DEClash.Weighted>
0.2715

> <Gold.Chemscore.DEInternal.Weighted>
1.2277

> <Gold.Chemscore.Rot.Weighted>
6.5772

> <Gold.Chemscore.Internal.Correction.Weighted>
   9.000000E+99

> <Gold.Protein.RotatedTorsions>
[ 6907 6896 6895 6894 ] final   52.37 input  -60.11 | X-H torsion
[ 7974 7965 7964 7962 ] final  122.12 input  175.53 | X-H torsion
[ 8008 7997 7996 7995 ] final -171.98 input   59.86 | X-H torsion
[ 10167 10162 10161 10158 ] final  -15.83 input  -65.29 | X-H torsion
[ 10718 10713 10712 10709 ] final   20.26 input   66.30 | X-H torsion
[ 10763 10752 10751 10750 ] final  147.09 input  -60.55 | X-H torsion
[ 11005 11000 10999 10996 ] final  -68.67 input  -57.11 | X-H torsion

> <Gold.Protein.ActiveResidues>
 VAL166  LYS551  ARG553  GLY616  TRP617  ASP618  TYR619  PRO620  LYS621  CYS622 
 ASP623  PHE694  ASN695  SER759  ASP760  ASP761  ALA762  ILE779  LEU786  VAL792 
 PHE793  MET794  SER795  GLU796  ALA797  LYS798  CYS799  TRP800  GLU811  SER814 

> <Gold.Protein.RotatedAtoms>
  152.3225  134.7362  160.0309 H   0  0  0  0  0  0  0  0  0  0  0  0  # atno 6907 bound_to 6896
  151.7805  133.3344  159.3478 H   0  0  0  0  0  0  0  0  0  0  0  0  # atno 6908 bound_to 6896
  150.7378  134.5866  159.6010 H   0  0  0  0  0  0  0  0  0  0  0  0  # atno 6909 bound_to 6896
  145.1113  139.3451  143.4761 H   0  0  0  0  0  0  0  0  0  0  0  0  # atno 7974 bound_to 7965
  155.9386  140.1104  157.1074 H   0  0  0  0  0  0  0  0  0  0  0  0  # atno 8008 bound_to 7997
  154.4085  140.1223  156.4963 H   0  0  0  0  0  0  0  0  0  0  0  0  # atno 8009 bound_to 7997
  155.6990  140.3472  155.4927 H   0  0  0  0  0  0  0  0  0  0  0  0  # atno 8010 bound_to 7997
  140.7224  143.5178  150.9671 H   0  0  0  0  0  0  0  0  0  0  0  0  # atno 10167 bound_to 10162
  157.1219  130.6553  149.5926 H   0  0  0  0  0  0  0  0  0  0  0  0  # atno 10718 bound_to 10713
  154.0325  135.2896  155.3366 H   0  0  0  0  0  0  0  0  0  0  0  0  # atno 10763 bound_to 10752
  154.6979  135.5200  153.8487 H   0  0  0  0  0  0  0  0  0  0  0  0  # atno 10764 bound_to 10752
  153.0634  135.6622  154.0537 H   0  0  0  0  0  0  0  0  0  0  0  0  # atno 10765 bound_to 10752
  141.1537  133.6746  156.6482 H   0  0  0  0  0  0  0  0  0  0  0  0  # atno 11005 bound_to 11000
  146.3526  140.1033  142.8607 LP  0  0  0  0  0  0  0  0  0  0  0  0  # atno 17320 bound_to 7965
  145.0844  140.9242  143.4806 LP  0  0  0  0  0  0  0  0  0  0  0  0  # atno 17321 bound_to 7965
  139.8894  143.6972  152.3147 LP  0  0  0  0  0  0  0  0  0  0  0  0  # atno 17342 bound_to 10162
  139.7283  144.7588  151.0844 LP  0  0  0  0  0  0  0  0  0  0  0  0  # atno 17343 bound_to 10162
  155.9826  130.4841  150.6892 LP  0  0  0  0  0  0  0  0  0  0  0  0  # atno 17370 bound_to 10713
  157.4468  131.0868  151.0887 LP  0  0  0  0  0  0  0  0  0  0  0  0  # atno 17371 bound_to 10713
  140.3341  134.7904  157.4348 LP  0  0  0  0  0  0  0  0  0  0  0  0  # atno 17394 bound_to 11000
  140.0992  134.5495  155.8369 LP  0  0  0  0  0  0  0  0  0  0  0  0  # atno 17395 bound_to 11000

$$$$
