AV-unprocessed.smi:3046|AV-procd|sdf|11614|dock5
  -GOLD-   2272016593D 1   1.00000     0.00000
 Structure written by MMmdl.
 38 38  0  0  0  0  0  0  0  0  2 V2000
  152.2555  138.4233  154.2821 C   0  0  0  0  0  0  0  0  0  0  0  0
  150.9436  138.1443  154.3052 C   0  0  0  0  0  0  0  0  0  0  0  0
  149.8453  139.1681  154.0957 C   0  0  0  0  0  0  0  0  0  0  0  0
  148.6855  138.5798  153.4368 N   0  0  0  0  0  0  0  0  0  0  0  0
  147.5120  139.2002  153.2374 C   0  0  0  0  0  0  0  0  0  0  0  0
  147.2887  140.3563  153.5986 O   0  0  0  0  0  0  0  0  0  0  0  0
  146.4182  138.3835  152.5341 C   0  0  1  0  0  0  0  0  0  0  0  0
  146.3947  138.7257  151.0366 C   0  0  0  0  0  0  0  0  0  0  0  0
  146.6221  136.9246  152.7080 N   0  3  0  0  0  0  0  0  0  0  0  0
  145.6893  136.0394  151.9711 C   0  0  2  0  0  0  0  0  0  0  0  0
  144.2431  136.4018  152.3473 C   0  0  0  0  0  0  0  0  0  0  0  0
  146.0095  134.5516  152.2423 C   0  0  0  0  0  0  0  0  0  0  0  0
  145.3495  133.6550  151.3108 N   0  0  0  0  0  0  0  0  0  0  0  0
  145.9066  132.6697  150.5223 C   0  0  0  0  0  0  0  0  0  0  0  0
  144.8916  132.0985  149.8098 C   0  0  0  0  0  0  0  0  0  0  0  0
  143.7368  132.8159  150.2303 C   0  0  0  0  0  0  0  0  0  0  0  0
  144.0150  133.7493  151.1263 N   0  0  0  0  0  0  0  0  0  0  0  0
  152.6138  139.4266  154.1033 H   0  0  0  0  0  0  0  0  0  0  0  0
  152.9904  137.6480  154.4430 H   0  0  0  0  0  0  0  0  0  0  0  0
  150.6256  137.1289  154.4926 H   0  0  0  0  0  0  0  0  0  0  0  0
  149.5619  139.5936  155.0596 H   0  0  0  0  0  0  0  0  0  0  0  0
  150.2147  139.9919  153.4837 H   0  0  0  0  0  0  0  0  0  0  0  0
  148.7826  137.6274  153.1147 H   0  0  0  0  0  0  0  0  0  0  0  0
  145.4510  138.6595  152.9547 H   0  0  0  0  0  0  0  0  0  0  0  0
  146.2335  139.7924  150.8744 H   0  0  0  0  0  0  0  0  0  0  0  0
  145.5893  138.1951  150.5276 H   0  0  0  0  0  0  0  0  0  0  0  0
  147.3315  138.4533  150.5479 H   0  0  0  0  0  0  0  0  0  0  0  0
  147.5626  136.6898  152.4258 H   0  0  0  0  0  0  0  0  0  0  0  0
  145.7992  136.2350  150.9038 H   0  0  0  0  0  0  0  0  0  0  0  0
  143.5209  135.8285  151.7655 H   0  0  0  0  0  0  0  0  0  0  0  0
  144.0428  137.4569  152.1575 H   0  0  0  0  0  0  0  0  0  0  0  0
  144.0474  136.2104  153.4029 H   0  0  0  0  0  0  0  0  0  0  0  0
  147.0811  134.3620  152.1797 H   0  0  0  0  0  0  0  0  0  0  0  0
  145.7064  134.2803  153.2546 H   0  0  0  0  0  0  0  0  0  0  0  0
  146.9653  132.4567  150.5353 H   0  0  0  0  0  0  0  0  0  0  0  0
  144.9627  131.2921  149.0950 H   0  0  0  0  0  0  0  0  0  0  0  0
  142.7125  132.6879  149.9127 H   0  0  0  0  0  0  0  0  0  0  0  0
  146.5274  136.7305  153.6950 H   0  0  0  0  0  0  0  0  0  0  0  0
  1  2  2  0  0  0  0
  1 18  1  0  0  0  0
  1 19  1  0  0  0  0
  2  3  1  0  0  0  0
  2 20  1  0  0  0  0
  3  4  1  0  0  0  0
  3 21  1  0  0  0  0
  3 22  1  0  0  0  0
  4  5  1  0  0  0  0
  4 23  1  0  0  0  0
  5  6  2  0  0  0  0
  5  7  1  0  0  0  0
  7  8  1  0  0  0  0
  7  9  1  0  0  0  0
  7 24  1  0  0  0  0
  8 25  1  0  0  0  0
  8 26  1  0  0  0  0
  8 27  1  0  0  0  0
  9 10  1  0  0  0  0
  9 28  1  0  0  0  0
  9 38  1  0  0  0  0
 10 11  1  0  0  0  0
 10 12  1  0  0  0  0
 10 29  1  0  0  0  0
 11 30  1  0  0  0  0
 11 31  1  0  0  0  0
 11 32  1  0  0  0  0
 12 13  1  0  0  0  0
 12 33  1  0  0  0  0
 12 34  1  0  0  0  0
 13 17  1  0  0  0  0
 13 14  1  0  0  0  0
 14 15  2  0  0  0  0
 14 35  1  0  0  0  0
 15 16  1  0  0  0  0
 15 36  1  0  0  0  0
 16 17  2  0  0  0  0
 16 37  1  0  0  0  0
M  CHG  1   9   1
M  END
> <s_m_source_file>
AV-unprocessed.smi

> <i_m_source_file_index>
3046

> <i_lp_mmshare_version>
43012

> <i_f3d_flags>
0

> <s_epik_input>
W0NIMl09W0NIXVtDSDJdW05IXUMoPU8pW0NASF0oW0NIM10pW05IXVtDQEhdKFtDSDNdKVtDSDJdbjFbY0hdW2NIXVtjSF1uMQ==

> <s_epik_cmdline>
J2VwaWtfcHl0aG9uJywgJy1waCcsICc3LjAnLCAnLXRuJywgJzgnLCAnLW1hJywgJzIwMCcsICctbWV0YWxfYmluZGluZycsICctaW1hZScsICc8aW5maWxlLm1hZT4nLCAnLW9tYWUnLCAnPG91dGZpbGUubWFlPic=

> <r_lp_tautomer_probability>
1

> <r_epik_Ionization_Penalty>
0.132961

> <r_epik_Ionization_Penalty_Charging>
0.132956

> <r_epik_Ionization_Penalty_Neutral>
5.00268e-06

> <r_epik_State_Penalty>
0.122332

> <r_epik_Charging_Adjusted_Penalty>
0.255288

> <i_epik_Tot_Q>
1

> <i_epik_Tot_abs_Q>
1

> <r_epik_Metal_State_Penalty>
0.122338

> <b_epik_Metal_Only>
0

> <s_lp_Force_Field>
OPLS_2005

> <r_lp_Energy>
6.33671

> <b_lp_Chiralities_Consistent>
1

> <s_lp_Variant>
AV-unprocessed.smi:3046-2

> <Gold.Version>
5.8.1

> <Gold.Id.Protein>
6NUR|6NUR_protein|mol2

> <Gold.PLP.Fitness>
48.4390

> <Gold.PLP.PLP>
-35.5539

> <Gold.PLP.part.hbond>
-3.0000

> <Gold.PLP.part.metal>
0.0000

> <Gold.PLP.part.buried>
-0.3341

> <Gold.PLP.part.nonpolar>
-33.1775

> <Gold.PLP.part.repulsive>
0.3964

> <Gold.PLP.ligand.clash>
0.0000

> <Gold.PLP.ligand.torsion>
1.0321

> <Gold.PLP.Chemscore.Hbond>
3.0000

> <Gold.PLP.Chemscore.CHOScore>
1.9699

> <Gold.PLP.Chemscore.Metal>
0.0000

> <Gold.Chemscore.Hbonds>
donor molecule, donor type, donor heavy atom, donor atom, acceptor molecule, acceptor atom, score
      L1  H     4    23       P1  7948  1.00
      L1  H     9    28       P1  7948  2.00
      L1  C    14    35       P1 10747  0.89
      L1  C    16    37       P1 10186  0.97

> <Gold.PLP.Chemscore.Internal.Correction>
0.0397

> <Gold.Rescore>
     Score         DG    S(hbond)    S(metal)    S(lipo)     H(rot)  DE(clash)    DE(int)     intcor
     14.30     -16.67       1.98        0.00      88.59       2.26       1.23       1.14       ----

> <Gold.Chemscore.Fitness>
14.3044

> <Gold.Chemscore.DG>
-16.6686

> <Gold.Chemscore.ZeroCoef>
-5.4800

> <Gold.Chemscore.Hbond>
1.9807

> <Gold.Chemscore.Metal>
0.0000

> <Gold.Chemscore.Lipo>
88.5929

> <Gold.Chemscore.Internal_Hbond>
0.0000

> <Gold.Chemscore.DEClash>
1.2258

> <Gold.Chemscore.DEInternal>
1.1384

> <Gold.Chemscore.Rot>
2.2626

> <Gold.Chemscore.Internal.Correction>
   9.000000E+99

> <Gold.Chemscore.Hbonds>
donor molecule, donor type, donor heavy atom, donor atom, acceptor molecule, acceptor atom, score
      L1  H     4    23       P1  7948  0.98
      L1  H     9    28       P1  7948  0.96

> <Gold.Chemscore.Hbond.Weighted>
-6.6154

> <Gold.Chemscore.Metal.Weighted>
-0.0000

> <Gold.Chemscore.Lipo.Weighted>
-10.3654

> <Gold.Chemscore.Internal_Hbond.Weighted>
0.0000

> <Gold.Chemscore.DEClash.Weighted>
1.2258

> <Gold.Chemscore.DEInternal.Weighted>
1.1384

> <Gold.Chemscore.Rot.Weighted>
5.7922

> <Gold.Chemscore.Internal.Correction.Weighted>
   9.000000E+99

> <Gold.Protein.RotatedTorsions>
[ 6907 6896 6895 6894 ] final -116.70 input  -60.11 | X-H torsion
[ 7974 7965 7964 7962 ] final  153.48 input  175.53 | X-H torsion
[ 8008 7997 7996 7995 ] final   67.57 input   59.86 | X-H torsion
[ 10167 10162 10161 10158 ] final  137.22 input  -65.29 | X-H torsion
[ 10718 10713 10712 10709 ] final   54.82 input   66.30 | X-H torsion
[ 10763 10752 10751 10750 ] final    3.77 input  -60.55 | X-H torsion
[ 11005 11000 10999 10996 ] final  167.29 input  -57.11 | X-H torsion

> <Gold.Protein.ActiveResidues>
 VAL166  LYS551  ARG553  GLY616  TRP617  ASP618  TYR619  PRO620  LYS621  CYS622 
 ASP623  PHE694  ASN695  SER759  ASP760  ASP761  ALA762  ILE779  LEU786  VAL792 
 PHE793  MET794  SER795  GLU796  ALA797  LYS798  CYS799  TRP800  GLU811  SER814 

> <Gold.Protein.RotatedAtoms>
  150.8077  133.8480  159.3197 H   0  0  0  0  0  0  0  0  0  0  0  0  # atno 6907 bound_to 6896
  151.6275  135.1024  160.0124 H   0  0  0  0  0  0  0  0  0  0  0  0  # atno 6908 bound_to 6896
  152.4168  133.7011  159.6481 H   0  0  0  0  0  0  0  0  0  0  0  0  # atno 6909 bound_to 6896
  144.8152  139.6806  143.6124 H   0  0  0  0  0  0  0  0  0  0  0  0  # atno 7974 bound_to 7965
  155.6949  140.3496  155.4909 H   0  0  0  0  0  0  0  0  0  0  0  0  # atno 8008 bound_to 7997
  155.9491  140.1116  157.1014 H   0  0  0  0  0  0  0  0  0  0  0  0  # atno 8009 bound_to 7997
  154.4118  140.1197  156.5015 H   0  0  0  0  0  0  0  0  0  0  0  0  # atno 8010 bound_to 7997
  139.5152  144.6422  151.5538 H   0  0  0  0  0  0  0  0  0  0  0  0  # atno 10167 bound_to 10162
  157.5291  130.8618  149.8662 H   0  0  0  0  0  0  0  0  0  0  0  0  # atno 10718 bound_to 10713
  153.2793  135.6939  153.7401 H   0  0  0  0  0  0  0  0  0  0  0  0  # atno 10763 bound_to 10752
  153.6394  135.3396  155.3067 H   0  0  0  0  0  0  0  0  0  0  0  0  # atno 10764 bound_to 10752
  154.8490  135.4428  154.1841 H   0  0  0  0  0  0  0  0  0  0  0  0  # atno 10765 bound_to 10752
  140.2753  134.7794  157.3711 H   0  0  0  0  0  0  0  0  0  0  0  0  # atno 11005 bound_to 11000
  146.2454  139.6088  142.9463 LP  0  0  0  0  0  0  0  0  0  0  0  0  # atno 17320 bound_to 7965
  145.5231  141.0431  143.2424 LP  0  0  0  0  0  0  0  0  0  0  0  0  # atno 17321 bound_to 7965
  140.6193  143.9289  150.6513 LP  0  0  0  0  0  0  0  0  0  0  0  0  # atno 17342 bound_to 10162
  140.2557  143.3560  152.1366 LP  0  0  0  0  0  0  0  0  0  0  0  0  # atno 17343 bound_to 10162
  156.0409  130.3739  150.1438 LP  0  0  0  0  0  0  0  0  0  0  0  0  # atno 17370 bound_to 10713
  156.9624  130.9809  151.3476 LP  0  0  0  0  0  0  0  0  0  0  0  0  # atno 17371 bound_to 10713
  140.1334  134.5065  155.8087 LP  0  0  0  0  0  0  0  0  0  0  0  0  # atno 17394 bound_to 11000
  141.2171  133.6798  156.7081 LP  0  0  0  0  0  0  0  0  0  0  0  0  # atno 17395 bound_to 11000

$$$$
