AV-unprocessed.smi:2883|AV-procd|sdf|11082|dock2
  -GOLD-   2272015553D 1   1.00000     0.00000
 Structure written by MMmdl.
 39 41  0  0  0  0  0  0  0  0  1 V2000
  151.1868  137.1642  154.5579 C   0  0  0  0  0  0  0  0  0  0  0  0
  151.7808  138.4109  155.2385 C   0  0  0  0  0  0  0  0  0  0  0  0
  152.0458  138.1096  156.7328 C   0  0  0  0  0  0  0  0  0  0  0  0
  153.1593  138.7337  154.6154 C   0  0  0  0  0  0  0  0  0  0  0  0
  150.8097  139.5931  155.0790 C   0  0  0  0  0  0  0  0  0  0  0  0
  149.6677  139.3654  154.4168 N   0  0  0  0  0  0  0  0  0  0  0  0
  148.7568  140.3609  154.3833 C   0  0  0  0  0  0  0  0  0  0  0  0
  148.9717  141.5856  155.0444 C   0  0  0  0  0  0  0  0  0  0  0  0
  150.1852  141.7134  155.7485 C   0  0  0  0  0  0  0  0  0  0  0  0
  150.4598  142.9006  156.4410 N   0  0  0  0  0  0  0  0  0  0  0  0
  151.6027  142.9962  157.3428 C   0  0  1  0  0  0  0  0  0  0  0  0
  151.8522  144.4223  157.8504 C   0  0  0  0  0  0  0  0  0  0  0  0
  151.8188  144.2279  159.3710 C   0  0  2  0  0  0  0  0  0  0  0  0
  153.0242  143.4273  159.8829 C   0  0  0  0  0  0  0  0  0  0  0  0
  152.6839  142.0141  159.4102 C   0  0  0  0  0  0  0  0  0  0  0  0
  151.3639  142.2405  158.6609 C   0  0  1  0  0  0  0  0  0  0  0  0
  150.7944  143.2549  159.4728 O   0  0  0  0  0  0  0  0  0  0  0  0
  151.0866  140.7046  155.7729 N   0  0  0  0  0  0  0  0  0  0  0  0
  151.8491  136.3036  154.6554 H   0  0  0  0  0  0  0  0  0  0  0  0
  151.0222  137.3349  153.4935 H   0  0  0  0  0  0  0  0  0  0  0  0
  150.2270  136.8923  154.9986 H   0  0  0  0  0  0  0  0  0  0  0  0
  151.1402  137.7979  157.2547 H   0  0  0  0  0  0  0  0  0  0  0  0
  152.4401  138.9848  157.2507 H   0  0  0  0  0  0  0  0  0  0  0  0
  152.7708  137.3038  156.8527 H   0  0  0  0  0  0  0  0  0  0  0  0
  153.8651  137.9161  154.7672 H   0  0  0  0  0  0  0  0  0  0  0  0
  153.5957  139.6294  155.0589 H   0  0  0  0  0  0  0  0  0  0  0  0
  153.0937  138.8956  153.5390 H   0  0  0  0  0  0  0  0  0  0  0  0
  147.8475  140.1767  153.8306 H   0  0  0  0  0  0  0  0  0  0  0  0
  148.2389  142.3784  155.0159 H   0  0  0  0  0  0  0  0  0  0  0  0
  149.9665  143.7468  156.1956 H   0  0  0  0  0  0  0  0  0  0  0  0
  152.4841  142.5918  156.8430 H   0  0  0  0  0  0  0  0  0  0  0  0
  152.8010  144.8319  157.5020 H   0  0  0  0  0  0  0  0  0  0  0  0
  151.0576  145.1041  157.5433 H   0  0  0  0  0  0  0  0  0  0  0  0
  151.6255  145.1445  159.9288 H   0  0  0  0  0  0  0  0  0  0  0  0
  153.9668  143.7953  159.4761 H   0  0  0  0  0  0  0  0  0  0  0  0
  153.0828  143.4627  160.9712 H   0  0  0  0  0  0  0  0  0  0  0  0
  153.4570  141.5810  158.7746 H   0  0  0  0  0  0  0  0  0  0  0  0
  152.5341  141.3522  160.2640 H   0  0  0  0  0  0  0  0  0  0  0  0
  150.7577  141.3388  158.5643 H   0  0  0  0  0  0  0  0  0  0  0  0
  1  2  1  0  0  0  0
  1 19  1  0  0  0  0
  1 20  1  0  0  0  0
  1 21  1  0  0  0  0
  2  3  1  0  0  0  0
  2  4  1  0  0  0  0
  2  5  1  0  0  0  0
  3 22  1  0  0  0  0
  3 23  1  0  0  0  0
  3 24  1  0  0  0  0
  4 25  1  0  0  0  0
  4 26  1  0  0  0  0
  4 27  1  0  0  0  0
  5 18  1  0  0  0  0
  5  6  2  0  0  0  0
  6  7  1  0  0  0  0
  7  8  2  0  0  0  0
  7 28  1  0  0  0  0
  8  9  1  0  0  0  0
  8 29  1  0  0  0  0
  9 10  1  0  0  0  0
  9 18  2  0  0  0  0
 10 11  1  0  0  0  0
 10 30  1  0  0  0  0
 11 16  1  0  0  0  0
 11 12  1  0  0  0  0
 11 31  1  0  0  0  0
 12 13  1  0  0  0  0
 12 32  1  0  0  0  0
 12 33  1  0  0  0  0
 13 17  1  0  0  0  0
 13 14  1  0  0  0  0
 13 34  1  0  0  0  0
 14 15  1  0  0  0  0
 14 35  1  0  0  0  0
 14 36  1  0  0  0  0
 15 16  1  0  0  0  0
 15 37  1  0  0  0  0
 15 38  1  0  0  0  0
 16 17  1  0  0  0  0
 16 39  1  0  0  0  0
M  END
> <s_m_source_file>
AV-unprocessed.smi

> <i_m_source_file_index>
2883

> <i_lp_mmshare_version>
43012

> <i_f3d_flags>
0

> <s_epik_input>
W0NIM11DKFtDSDNdKShbQ0gzXSljMW5bY0hdW2NIXWMobjEpW05IXVtDQEhdKFtDSDJdW0NAQEhdMjMpW0NAQEhdKE8zKVtDSDJdW0NIMl0y

> <s_epik_cmdline>
J2VwaWtfcHl0aG9uJywgJy1waCcsICc3LjAnLCAnLXRuJywgJzgnLCAnLW1hJywgJzIwMCcsICctbWV0YWxfYmluZGluZycsICctaW1hZScsICc8aW5maWxlLm1hZT4nLCAnLW9tYWUnLCAnPG91dGZpbGUubWFlPic=

> <r_lp_tautomer_probability>
1

> <r_epik_Ionization_Penalty>
0.453006

> <r_epik_Ionization_Penalty_Charging>
0

> <r_epik_Ionization_Penalty_Neutral>
0.453006

> <r_epik_State_Penalty>
0.455155

> <r_epik_Charging_Adjusted_Penalty>
0.455155

> <i_epik_Tot_Q>
0

> <i_epik_Tot_abs_Q>
0

> <r_epik_Metal_State_Penalty>
0.255592

> <b_epik_Metal_Only>
0

> <s_lp_Force_Field>
OPLS_2005

> <r_lp_Energy>
33.3257

> <b_lp_Chiralities_Consistent>
1

> <s_lp_Variant>
AV-unprocessed.smi:2883-8

> <Gold.Version>
5.8.1

> <Gold.Id.Protein>
6NUR|6NUR_protein|mol2

> <Gold.PLP.Fitness>
44.0850

> <Gold.PLP.PLP>
-41.4433

> <Gold.PLP.part.hbond>
-1.7579

> <Gold.PLP.part.metal>
0.0000

> <Gold.PLP.part.buried>
-5.1945

> <Gold.PLP.part.nonpolar>
-35.9679

> <Gold.PLP.part.repulsive>
0.3007

> <Gold.PLP.ligand.clash>
0.0000

> <Gold.PLP.ligand.torsion>
0.2566

> <Gold.PLP.Chemscore.Hbond>
1.0000

> <Gold.PLP.Chemscore.CHOScore>
0.0000

> <Gold.PLP.Chemscore.Metal>
0.0000

> <Gold.Chemscore.Hbonds>
donor molecule, donor type, donor heavy atom, donor atom, acceptor molecule, acceptor atom, score
      L1  H    10    30       P1  8028  1.00

> <Gold.PLP.Chemscore.Internal.Correction>
0.1549

> <Gold.Rescore>
     Score         DG    S(hbond)    S(metal)    S(lipo)     H(rot)  DE(clash)    DE(int)     intcor
     18.29     -18.56       0.93        0.00     110.38       1.15       0.10       0.17       ----

> <Gold.Chemscore.Fitness>
18.2915

> <Gold.Chemscore.DG>
-18.5636

> <Gold.Chemscore.ZeroCoef>
-5.4800

> <Gold.Chemscore.Hbond>
0.9305

> <Gold.Chemscore.Metal>
0.0000

> <Gold.Chemscore.Lipo>
110.3846

> <Gold.Chemscore.Internal_Hbond>
0.0000

> <Gold.Chemscore.DEClash>
0.1005

> <Gold.Chemscore.DEInternal>
0.1716

> <Gold.Chemscore.Rot>
1.1482

> <Gold.Chemscore.Internal.Correction>
   9.000000E+99

> <Gold.Chemscore.Hbonds>
donor molecule, donor type, donor heavy atom, donor atom, acceptor molecule, acceptor atom, score
      L1  H    10    30       P1  8028  0.94

> <Gold.Chemscore.Hbond.Weighted>
-3.1079

> <Gold.Chemscore.Metal.Weighted>
-0.0000

> <Gold.Chemscore.Lipo.Weighted>
-12.9150

> <Gold.Chemscore.Internal_Hbond.Weighted>
0.0000

> <Gold.Chemscore.DEClash.Weighted>
0.1005

> <Gold.Chemscore.DEInternal.Weighted>
0.1716

> <Gold.Chemscore.Rot.Weighted>
2.9393

> <Gold.Chemscore.Internal.Correction.Weighted>
   9.000000E+99

> <Gold.Protein.RotatedTorsions>
[ 6907 6896 6895 6894 ] final  -73.82 input  -60.11 | X-H torsion
[ 7974 7965 7964 7962 ] final   74.86 input  175.53 | X-H torsion
[ 8008 7997 7996 7995 ] final -177.56 input   59.86 | X-H torsion
[ 10167 10162 10161 10158 ] final  168.22 input  -65.29 | X-H torsion
[ 10718 10713 10712 10709 ] final   56.45 input   66.30 | X-H torsion
[ 10763 10752 10751 10750 ] final   75.67 input  -60.55 | X-H torsion
[ 11005 11000 10999 10996 ] final  138.75 input  -57.11 | X-H torsion

> <Gold.Protein.ActiveResidues>
 VAL166  LYS551  ARG553  GLY616  TRP617  ASP618  TYR619  PRO620  LYS621  CYS622 
 ASP623  PHE694  ASN695  SER759  ASP760  ASP761  ALA762  ILE779  LEU786  VAL792 
 PHE793  MET794  SER795  GLU796  ALA797  LYS798  CYS799  TRP800  GLU811  SER814 

> <Gold.Protein.RotatedAtoms>
  150.7116  134.4961  159.5538 H   0  0  0  0  0  0  0  0  0  0  0  0  # atno 6907 bound_to 6896
  152.2568  134.8073  160.0446 H   0  0  0  0  0  0  0  0  0  0  0  0  # atno 6908 bound_to 6896
  151.8800  133.3458  159.3800 H   0  0  0  0  0  0  0  0  0  0  0  0  # atno 6909 bound_to 6896
  145.7230  139.2655  143.1585 H   0  0  0  0  0  0  0  0  0  0  0  0  # atno 7974 bound_to 7965
  156.0084  140.1235  157.0479 H   0  0  0  0  0  0  0  0  0  0  0  0  # atno 8008 bound_to 7997
  154.4267  140.1093  156.5864 H   0  0  0  0  0  0  0  0  0  0  0  0  # atno 8009 bound_to 7997
  155.6115  140.3471  155.4626 H   0  0  0  0  0  0  0  0  0  0  0  0  # atno 8010 bound_to 7997
  139.4963  144.3838  151.9593 H   0  0  0  0  0  0  0  0  0  0  0  0  # atno 10167 bound_to 10162
  157.5432  130.8712  149.8852 H   0  0  0  0  0  0  0  0  0  0  0  0  # atno 10718 bound_to 10713
  153.0671  135.4980  154.8224 H   0  0  0  0  0  0  0  0  0  0  0  0  # atno 10763 bound_to 10752
  154.6969  135.2994  154.9400 H   0  0  0  0  0  0  0  0  0  0  0  0  # atno 10764 bound_to 10752
  154.0136  135.6751  153.4820 H   0  0  0  0  0  0  0  0  0  0  0  0  # atno 10765 bound_to 10752
  140.0205  134.9398  157.0465 H   0  0  0  0  0  0  0  0  0  0  0  0  # atno 11005 bound_to 11000
  146.0608  140.7972  142.9735 LP  0  0  0  0  0  0  0  0  0  0  0  0  # atno 17320 bound_to 7965
  144.6912  140.3194  143.7235 LP  0  0  0  0  0  0  0  0  0  0  0  0  # atno 17321 bound_to 7965
  140.3275  144.3355  150.5995 LP  0  0  0  0  0  0  0  0  0  0  0  0  # atno 17342 bound_to 10162
  140.5672  143.2185  151.7662 LP  0  0  0  0  0  0  0  0  0  0  0  0  # atno 17343 bound_to 10162
  156.0513  130.3717  150.1194 LP  0  0  0  0  0  0  0  0  0  0  0  0  # atno 17370 bound_to 10713
  156.9372  130.9733  151.3522 LP  0  0  0  0  0  0  0  0  0  0  0  0  # atno 17371 bound_to 10713
  140.4395  134.1696  155.7173 LP  0  0  0  0  0  0  0  0  0  0  0  0  # atno 17394 bound_to 11000
  141.1771  133.8492  157.1385 LP  0  0  0  0  0  0  0  0  0  0  0  0  # atno 17395 bound_to 11000

$$$$
