AV-unprocessed.smi:2510|AV-procd|sdf|9870|dock4
  -GOLD-   2272013503D 1   1.00000     0.00000
 Structure written by MMmdl.
 48 49  0  0  0  0  0  0  0  0  1 V2000
  148.9927  141.4206  155.2241 C   0  0  0  0  0  0  0  0  0  0  0  0
  149.2162  140.9586  156.6739 C   0  0  0  0  0  0  0  0  0  0  0  0
  150.6921  140.6665  157.0506 C   0  0  0  0  0  0  0  0  0  0  0  0
  151.3827  142.0100  157.3960 C   0  0  0  0  0  0  0  0  0  0  0  0
  150.7329  142.8195  158.5316 C   0  0  0  0  0  0  0  0  0  0  0  0
  150.9467  139.5478  158.1039 C   0  0  1  0  0  0  0  0  0  0  0  0
  149.8838  138.5438  158.1514 N   0  0  0  0  0  0  0  0  0  0  0  0
  149.9155  137.4045  158.8577 C   0  0  0  0  0  0  0  0  0  0  0  0
  150.8306  137.1062  159.6246 O   0  0  0  0  0  0  0  0  0  0  0  0
  148.7383  136.4480  158.6530 C   0  0  0  0  0  0  0  0  0  0  0  0
  148.0839  136.1428  159.9758 C   0  0  0  0  0  0  0  0  0  0  0  0
  147.7235  134.8674  160.5029 C   0  0  0  0  0  0  0  0  0  0  0  0
  147.1247  135.1519  161.6976 C   0  0  0  0  0  0  0  0  0  0  0  0
  146.5097  134.2681  162.7285 C   0  0  0  0  0  0  0  0  0  0  0  0
  147.1645  136.5205  161.8312 N   0  0  0  0  0  0  0  0  0  0  0  0
  147.7513  137.1369  160.7890 N   0  0  0  0  0  0  0  0  0  0  0  0
  152.1515  139.0698  157.2710 C   0  0  1  0  0  0  0  0  0  0  0  0
  152.5429  137.5952  157.1812 C   0  0  0  0  0  0  0  0  0  0  0  0
  151.5084  139.7762  156.0669 C   0  0  1  0  0  0  0  0  0  0  0  0
  150.7182  138.8605  155.3161 O   0  0  0  0  0  0  0  0  0  0  0  0
  151.4770  138.0888  154.4013 C   0  0  0  0  0  0  0  0  0  0  0  0
  146.7986  137.0399  162.6166 H   0  0  0  0  0  0  0  0  0  0  0  0
  147.9561  141.7238  155.0768 H   0  0  0  0  0  0  0  0  0  0  0  0
  149.1980  140.6264  154.5073 H   0  0  0  0  0  0  0  0  0  0  0  0
  149.6224  142.2740  154.9725 H   0  0  0  0  0  0  0  0  0  0  0  0
  148.8095  141.7345  157.3222 H   0  0  0  0  0  0  0  0  0  0  0  0
  148.5841  140.0944  156.8715 H   0  0  0  0  0  0  0  0  0  0  0  0
  152.4360  141.8547  157.6264 H   0  0  0  0  0  0  0  0  0  0  0  0
  151.3977  142.6535  156.5165 H   0  0  0  0  0  0  0  0  0  0  0  0
  151.2077  143.7969  158.6187 H   0  0  0  0  0  0  0  0  0  0  0  0
  150.8405  142.3281  159.4978 H   0  0  0  0  0  0  0  0  0  0  0  0
  149.6711  142.9879  158.3540 H   0  0  0  0  0  0  0  0  0  0  0  0
  151.2274  139.9375  159.0841 H   0  0  0  0  0  0  0  0  0  0  0  0
  149.0902  138.6982  157.5458 H   0  0  0  0  0  0  0  0  0  0  0  0
  148.0168  136.8976  157.9700 H   0  0  0  0  0  0  0  0  0  0  0  0
  149.0991  135.5377  158.1722 H   0  0  0  0  0  0  0  0  0  0  0  0
  147.8673  133.8934  160.0592 H   0  0  0  0  0  0  0  0  0  0  0  0
  146.6371  133.2175  162.4666 H   0  0  0  0  0  0  0  0  0  0  0  0
  145.4413  134.4650  162.8188 H   0  0  0  0  0  0  0  0  0  0  0  0
  146.9690  134.4303  163.7037 H   0  0  0  0  0  0  0  0  0  0  0  0
  153.0237  139.6464  157.5823 H   0  0  0  0  0  0  0  0  0  0  0  0
  151.7312  136.9771  156.7982 H   0  0  0  0  0  0  0  0  0  0  0  0
  152.8199  137.2023  158.1594 H   0  0  0  0  0  0  0  0  0  0  0  0
  153.3957  137.4565  156.5169 H   0  0  0  0  0  0  0  0  0  0  0  0
  152.2492  140.3014  155.4623 H   0  0  0  0  0  0  0  0  0  0  0  0
  150.8109  137.4406  153.8323 H   0  0  0  0  0  0  0  0  0  0  0  0
  152.1944  137.4567  154.9258 H   0  0  0  0  0  0  0  0  0  0  0  0
  152.0191  138.7181  153.6956 H   0  0  0  0  0  0  0  0  0  0  0  0
  1  2  1  0  0  0  0
  1 23  1  0  0  0  0
  1 24  1  0  0  0  0
  1 25  1  0  0  0  0
  2  3  1  0  0  0  0
  2 26  1  0  0  0  0
  2 27  1  0  0  0  0
  3 19  1  0  0  0  0
  3  4  1  0  0  0  0
  3  6  1  0  0  0  0
  4  5  1  0  0  0  0
  4 28  1  0  0  0  0
  4 29  1  0  0  0  0
  5 30  1  0  0  0  0
  5 31  1  0  0  0  0
  5 32  1  0  0  0  0
  6  7  1  0  0  0  0
  6 17  1  0  0  0  0
  6 33  1  0  0  0  0
  7  8  1  0  0  0  0
  7 34  1  0  0  0  0
  8  9  2  0  0  0  0
  8 10  1  0  0  0  0
 10 11  1  0  0  0  0
 10 35  1  0  0  0  0
 10 36  1  0  0  0  0
 11 16  2  0  0  0  0
 11 12  1  0  0  0  0
 12 13  2  0  0  0  0
 12 37  1  0  0  0  0
 13 14  1  0  0  0  0
 13 15  1  0  0  0  0
 14 38  1  0  0  0  0
 14 39  1  0  0  0  0
 14 40  1  0  0  0  0
 15 22  1  0  0  0  0
 15 16  1  0  0  0  0
 17 18  1  0  0  0  0
 17 19  1  0  0  0  0
 17 41  1  0  0  0  0
 18 42  1  0  0  0  0
 18 43  1  0  0  0  0
 18 44  1  0  0  0  0
 19 20  1  0  0  0  0
 19 45  1  0  0  0  0
 20 21  1  0  0  0  0
 21 46  1  0  0  0  0
 21 47  1  0  0  0  0
 21 48  1  0  0  0  0
M  END
> <s_m_source_file>
AV-unprocessed.smi

> <i_m_source_file_index>
2510

> <i_lp_mmshare_version>
43012

> <i_f3d_flags>
0

> <s_epik_input>
W0NIM11PW0NAQEhdMVtDQEhdKFtDSDNdKVtDQEBIXShDMShbQ0gyXVtDSDNdKVtDSDJdW0NIM10pW05IXUMoPU8pW0NIMl1jMltjSF1jKFtDSDNdKVtuSF1uMg==

> <s_epik_cmdline>
J2VwaWtfcHl0aG9uJywgJy1waCcsICc3LjAnLCAnLXRuJywgJzgnLCAnLW1hJywgJzIwMCcsICctbWV0YWxfYmluZGluZycsICctaW1hZScsICc8aW5maWxlLm1hZT4nLCAnLW9tYWUnLCAnPG91dGZpbGUubWFlPic=

> <r_lp_tautomer_probability>
0.5

> <r_epik_Ionization_Penalty>
9.73156e-05

> <r_epik_Ionization_Penalty_Charging>
0

> <r_epik_Ionization_Penalty_Neutral>
9.73156e-05

> <r_epik_State_Penalty>
0.41068

> <r_epik_Charging_Adjusted_Penalty>
0.41068

> <i_epik_Tot_Q>
0

> <i_epik_Tot_abs_Q>
0

> <r_epik_Metal_State_Penalty>
0.410699

> <b_epik_Metal_Only>
0

> <s_lp_Force_Field>
OPLS_2005

> <r_lp_Energy>
26.8932

> <b_lp_Chiralities_Consistent>
1

> <s_lp_Variant>
AV-unprocessed.smi:2510-1

> <Gold.Version>
5.8.1

> <Gold.Id.Protein>
6NUR|6NUR_protein|mol2

> <Gold.PLP.Fitness>
41.2454

> <Gold.PLP.PLP>
-34.4736

> <Gold.PLP.part.hbond>
-2.9844

> <Gold.PLP.part.metal>
0.0000

> <Gold.PLP.part.buried>
-6.2863

> <Gold.PLP.part.nonpolar>
-27.2190

> <Gold.PLP.part.repulsive>
0.3328

> <Gold.PLP.ligand.clash>
0.0000

> <Gold.PLP.ligand.torsion>
0.7823

> <Gold.PLP.Chemscore.Hbond>
2.5401

> <Gold.PLP.Chemscore.CHOScore>
0.0000

> <Gold.PLP.Chemscore.Metal>
0.0000

> <Gold.Chemscore.Hbonds>
donor molecule, donor type, donor heavy atom, donor atom, acceptor molecule, acceptor atom, score
      P1  H  6896  6908       L1     9  0.96
      P1  H  6931  6943       L1    16  0.69
      P1  H  6934  6947       L1    16  0.90

> <Gold.PLP.Chemscore.Internal.Correction>
0.7162

> <Gold.Rescore>
     Score         DG    S(hbond)    S(metal)    S(lipo)     H(rot)  DE(clash)    DE(int)     intcor
     16.49     -18.50       2.37        0.00      83.17       1.81       0.36       1.66       ----

> <Gold.Chemscore.Fitness>
16.4851

> <Gold.Chemscore.DG>
-18.5019

> <Gold.Chemscore.ZeroCoef>
-5.4800

> <Gold.Chemscore.Hbond>
2.3727

> <Gold.Chemscore.Metal>
0.0000

> <Gold.Chemscore.Lipo>
83.1736

> <Gold.Chemscore.Internal_Hbond>
0.0000

> <Gold.Chemscore.DEClash>
0.3568

> <Gold.Chemscore.DEInternal>
1.6600

> <Gold.Chemscore.Rot>
1.8102

> <Gold.Chemscore.Internal.Correction>
   9.000000E+99

> <Gold.Chemscore.Hbonds>
donor molecule, donor type, donor heavy atom, donor atom, acceptor molecule, acceptor atom, score
      P1  H  6896  6908       L1     9  0.90
      P1  H  6931  6943       L1    16  0.09
      P1  H  6934  6947       L1    16  0.43

> <Gold.Chemscore.Hbond.Weighted>
-7.9247

> <Gold.Chemscore.Metal.Weighted>
-0.0000

> <Gold.Chemscore.Lipo.Weighted>
-9.7313

> <Gold.Chemscore.Internal_Hbond.Weighted>
0.0000

> <Gold.Chemscore.DEClash.Weighted>
0.3568

> <Gold.Chemscore.DEInternal.Weighted>
1.6600

> <Gold.Chemscore.Rot.Weighted>
4.6341

> <Gold.Chemscore.Internal.Correction.Weighted>
   9.000000E+99

> <Gold.Protein.RotatedTorsions>
[ 6907 6896 6895 6894 ] final -130.26 input  -60.11 | X-H torsion
[ 7974 7965 7964 7962 ] final  -23.28 input  175.53 | X-H torsion
[ 8008 7997 7996 7995 ] final  -54.27 input   59.86 | X-H torsion
[ 10167 10162 10161 10158 ] final -170.82 input  -65.29 | X-H torsion
[ 10718 10713 10712 10709 ] final -162.56 input   66.30 | X-H torsion
[ 10763 10752 10751 10750 ] final   88.94 input  -60.55 | X-H torsion
[ 11005 11000 10999 10996 ] final  130.21 input  -57.11 | X-H torsion

> <Gold.Protein.ActiveResidues>
 VAL166  LYS551  ARG553  GLY616  TRP617  ASP618  TYR619  PRO620  LYS621  CYS622 
 ASP623  PHE694  ASN695  SER759  ASP760  ASP761  ALA762  ILE779  LEU786  VAL792 
 PHE793  MET794  SER795  GLU796  ALA797  LYS798  CYS799  TRP800  GLU811  SER814 

> <Gold.Protein.RotatedAtoms>
  150.9377  133.6692  159.2796 H   0  0  0  0  0  0  0  0  0  0  0  0  # atno 6907 bound_to 6896
  151.4092  135.0981  159.9589 H   0  0  0  0  0  0  0  0  0  0  0  0  # atno 6908 bound_to 6896
  152.5055  133.8854  159.7422 H   0  0  0  0  0  0  0  0  0  0  0  0  # atno 6909 bound_to 6896
  146.1626  140.4594  142.8565 H   0  0  0  0  0  0  0  0  0  0  0  0  # atno 7974 bound_to 7965
  154.4158  140.1180  156.5289 H   0  0  0  0  0  0  0  0  0  0  0  0  # atno 8008 bound_to 7997
  155.6626  140.3496  155.4769 H   0  0  0  0  0  0  0  0  0  0  0  0  # atno 8009 bound_to 7997
  155.9701  140.1139  157.0810 H   0  0  0  0  0  0  0  0  0  0  0  0  # atno 8010 bound_to 7997
  139.5839  144.1362  152.1550 H   0  0  0  0  0  0  0  0  0  0  0  0  # atno 10167 bound_to 10162
  156.6122  130.8855  151.2939 H   0  0  0  0  0  0  0  0  0  0  0  0  # atno 10718 bound_to 10713
  153.1820  135.4488  155.0040 H   0  0  0  0  0  0  0  0  0  0  0  0  # atno 10763 bound_to 10752
  154.8036  135.3265  154.7491 H   0  0  0  0  0  0  0  0  0  0  0  0  # atno 10764 bound_to 10752
  153.7954  135.6967  153.4919 H   0  0  0  0  0  0  0  0  0  0  0  0  # atno 10765 bound_to 10752
  139.9659  134.9590  156.9261 H   0  0  0  0  0  0  0  0  0  0  0  0  # atno 11005 bound_to 11000
  144.8047  140.6278  143.6454 LP  0  0  0  0  0  0  0  0  0  0  0  0  # atno 17320 bound_to 7965
  145.4550  139.1519  143.3897 LP  0  0  0  0  0  0  0  0  0  0  0  0  # atno 17321 bound_to 7965
  140.0921  144.5612  150.7047 LP  0  0  0  0  0  0  0  0  0  0  0  0  # atno 17342 bound_to 10162
  140.7113  143.2508  151.4571 LP  0  0  0  0  0  0  0  0  0  0  0  0  # atno 17343 bound_to 10162
  157.7251  130.9611  150.1600 LP  0  0  0  0  0  0  0  0  0  0  0  0  # atno 17370 bound_to 10713
  156.2380  130.3688  149.8369 LP  0  0  0  0  0  0  0  0  0  0  0  0  # atno 17371 bound_to 10713
  140.5398  134.0731  155.7338 LP  0  0  0  0  0  0  0  0  0  0  0  0  # atno 17394 bound_to 11000
  141.1338  133.9256  157.2477 LP  0  0  0  0  0  0  0  0  0  0  0  0  # atno 17395 bound_to 11000

$$$$
