AV-unprocessed.smi:139|AV-procd|sdf|1184|dock2
  -GOLD-   2262018333D 1   1.00000     0.00000
 Structure written by MMmdl.
 50 53  0  0  0  0  0  0  0  0  1 V2000
  150.2706  140.4718  156.6190 O   0  0  0  0  0  0  0  0  0  0  0  0
  150.7762  139.8277  157.5393 C   0  0  0  0  0  0  0  0  0  0  0  0
  150.5401  138.3158  157.6702 C   0  0  0  0  0  0  0  0  0  0  0  0
  149.2436  137.9705  158.2930 N   0  0  0  0  0  0  0  0  0  0  0  0
  148.0481  138.3518  157.6348 C   0  0  0  0  0  0  0  0  0  0  0  0
  148.0744  138.9582  156.5627 O   0  0  0  0  0  0  0  0  0  0  0  0
  146.8106  137.9754  158.3086 C   0  0  0  0  0  0  0  0  0  0  0  0
  145.6281  138.3092  157.7645 F   0  0  0  0  0  0  0  0  0  0  0  0
  146.8327  137.3008  159.4765 C   0  0  0  0  0  0  0  0  0  0  0  0
  148.0076  136.9221  160.1013 N   0  0  0  0  0  0  0  0  0  0  0  0
  148.0041  136.1635  161.4125 C   0  0  1  0  0  0  0  0  0  0  0  0
  147.2190  136.9407  162.4743 C   0  0  0  0  0  0  0  0  0  0  0  0
  145.8184  136.4083  162.2667 C   0  0  0  0  0  0  0  0  0  0  0  0
  146.0902  134.9503  161.9095 C   0  0  0  0  0  0  0  0  0  0  0  0
  147.3506  134.9389  161.2394 O   0  0  0  0  0  0  0  0  0  0  0  0
  149.2477  137.2523  159.5124 C   0  0  0  0  0  0  0  0  0  0  0  0
  150.3067  136.9228  160.0512 O   0  0  0  0  0  0  0  0  0  0  0  0
  151.5461  140.3789  158.4926 N   0  0  0  0  0  0  0  0  0  0  0  0
  151.9157  141.7915  158.6152 C   0  0  1  0  0  0  0  0  0  0  0  0
  150.7779  142.7156  158.1325 C   0  0  0  0  0  0  0  0  0  0  0  0
  151.0923  144.1860  158.4131 C   0  0  0  0  0  0  0  0  0  0  0  0
  151.2724  144.4298  159.9153 C   0  0  0  0  0  0  0  0  0  0  0  0
  152.2020  143.4269  160.5817 C   0  0  0  0  0  0  0  0  0  0  0  0
  152.7655  143.7564  161.8324 C   0  0  0  0  0  0  0  0  0  0  0  0
  153.6258  142.8565  162.4874 C   0  0  0  0  0  0  0  0  0  0  0  0
  153.9301  141.6195  161.8923 C   0  0  0  0  0  0  0  0  0  0  0  0
  153.3705  141.2827  160.6460 C   0  0  0  0  0  0  0  0  0  0  0  0
  152.4949  142.1735  159.9828 C   0  0  0  0  0  0  0  0  0  0  0  0
  150.6278  137.8600  156.6825 H   0  0  0  0  0  0  0  0  0  0  0  0
  151.3727  137.8886  158.2313 H   0  0  0  0  0  0  0  0  0  0  0  0
  145.8835  137.0571  159.9289 H   0  0  0  0  0  0  0  0  0  0  0  0
  149.0531  135.9967  161.6625 H   0  0  0  0  0  0  0  0  0  0  0  0
  147.5931  136.6604  163.4596 H   0  0  0  0  0  0  0  0  0  0  0  0
  147.3074  138.0212  162.3561 H   0  0  0  0  0  0  0  0  0  0  0  0
  145.1813  136.5216  163.1439 H   0  0  0  0  0  0  0  0  0  0  0  0
  145.3418  136.9208  161.4302 H   0  0  0  0  0  0  0  0  0  0  0  0
  146.1738  134.3478  162.8147 H   0  0  0  0  0  0  0  0  0  0  0  0
  145.3045  134.5207  161.2881 H   0  0  0  0  0  0  0  0  0  0  0  0
  151.9076  139.7629  159.2060 H   0  0  0  0  0  0  0  0  0  0  0  0
  152.7453  141.9291  157.9208 H   0  0  0  0  0  0  0  0  0  0  0  0
  150.5947  142.5605  157.0689 H   0  0  0  0  0  0  0  0  0  0  0  0
  149.8452  142.4709  158.6415 H   0  0  0  0  0  0  0  0  0  0  0  0
  152.0063  144.4623  157.8860 H   0  0  0  0  0  0  0  0  0  0  0  0
  150.3021  144.8276  158.0227 H   0  0  0  0  0  0  0  0  0  0  0  0
  151.6455  145.4411  160.0812 H   0  0  0  0  0  0  0  0  0  0  0  0
  150.3043  144.3682  160.4136 H   0  0  0  0  0  0  0  0  0  0  0  0
  152.5377  144.7056  162.2951 H   0  0  0  0  0  0  0  0  0  0  0  0
  154.0534  143.1162  163.4445 H   0  0  0  0  0  0  0  0  0  0  0  0
  154.5943  140.9289  162.3904 H   0  0  0  0  0  0  0  0  0  0  0  0
  153.6215  140.3317  160.1999 H   0  0  0  0  0  0  0  0  0  0  0  0
  1  2  2  0  0  0  0
  2  3  1  0  0  0  0
  2 18  1  0  0  0  0
  3  4  1  0  0  0  0
  3 29  1  0  0  0  0
  3 30  1  0  0  0  0
  4 16  1  0  0  0  0
  4  5  1  0  0  0  0
  5  6  2  0  0  0  0
  5  7  1  0  0  0  0
  7  8  1  0  0  0  0
  7  9  2  0  0  0  0
  9 10  1  0  0  0  0
  9 31  1  0  0  0  0
 10 11  1  0  0  0  0
 10 16  1  0  0  0  0
 11 15  1  0  0  0  0
 11 12  1  0  0  0  0
 11 32  1  0  0  0  0
 12 13  1  0  0  0  0
 12 33  1  0  0  0  0
 12 34  1  0  0  0  0
 13 14  1  0  0  0  0
 13 35  1  0  0  0  0
 13 36  1  0  0  0  0
 14 15  1  0  0  0  0
 14 37  1  0  0  0  0
 14 38  1  0  0  0  0
 16 17  2  0  0  0  0
 18 19  1  0  0  0  0
 18 39  1  0  0  0  0
 19 28  1  0  0  0  0
 19 20  1  0  0  0  0
 19 40  1  0  0  0  0
 20 21  1  0  0  0  0
 20 41  1  0  0  0  0
 20 42  1  0  0  0  0
 21 22  1  0  0  0  0
 21 43  1  0  0  0  0
 21 44  1  0  0  0  0
 22 23  1  0  0  0  0
 22 45  1  0  0  0  0
 22 46  1  0  0  0  0
 23 28  2  0  0  0  0
 23 24  1  0  0  0  0
 24 25  2  0  0  0  0
 24 47  1  0  0  0  0
 25 26  1  0  0  0  0
 25 48  1  0  0  0  0
 26 27  2  0  0  0  0
 26 49  1  0  0  0  0
 27 28  1  0  0  0  0
 27 50  1  0  0  0  0
M  END
> <s_m_source_file>
AV-unprocessed.smi

> <i_m_source_file_index>
139

> <i_lp_mmshare_version>
43012

> <i_f3d_flags>
0

> <s_epik_input>
W2NIXTFbY0hdW2NIXVtjSF1jKGMxMilbQ0BASF0oW0NIMl1bQ0gyXVtDSDJdMilbTkhdQyg9TylbQ0gyXW4zYyg9TyljKEYpW2NIXW4oYzM9TylbQ0BASF00W0NIMl1bQ0gyXVtDSDJdTzQ=

> <s_epik_cmdline>
J2VwaWtfcHl0aG9uJywgJy1waCcsICc3LjAnLCAnLXRuJywgJzgnLCAnLW1hJywgJzIwMCcsICctbWV0YWxfYmluZGluZycsICctaW1hZScsICc8aW5maWxlLm1hZT4nLCAnLW9tYWUnLCAnPG91dGZpbGUubWFlPic=

> <r_lp_tautomer_probability>
1

> <r_epik_Ionization_Penalty>
3.261e-08

> <r_epik_Ionization_Penalty_Charging>
3.6725e-09

> <r_epik_Ionization_Penalty_Neutral>
2.89375e-08

> <r_epik_State_Penalty>
-0

> <r_epik_Charging_Adjusted_Penalty>
3.6725e-09

> <i_epik_Tot_Q>
0

> <i_epik_Tot_abs_Q>
0

> <r_epik_Metal_State_Penalty>
-0

> <b_epik_Metal_Only>
0

> <s_epik_Chemistry_Notes>
This compound contains an acetal/aminal-like group ( X-CH(R)-Y where X, Y are N, S, or O) that may be acid/base labile, releasing an aldehyde.

> <s_lp_Force_Field>
OPLS_2005

> <r_lp_Energy>
31.2563

> <b_lp_Chiralities_Consistent>
1

> <s_lp_Variant>
AV-unprocessed.smi:139-4

> <Gold.Version>
5.8.1

> <Gold.Id.Protein>
6NUR|6NUR_protein|mol2

> <Gold.PLP.Fitness>
52.3411

> <Gold.PLP.PLP>
-50.3941

> <Gold.PLP.part.hbond>
-1.8186

> <Gold.PLP.part.metal>
0.0000

> <Gold.PLP.part.buried>
-6.2989

> <Gold.PLP.part.nonpolar>
-42.2591

> <Gold.PLP.part.repulsive>
0.1493

> <Gold.PLP.ligand.clash>
0.0000

> <Gold.PLP.ligand.torsion>
0.5860

> <Gold.PLP.Chemscore.Hbond>
1.0000

> <Gold.PLP.Chemscore.CHOScore>
0.0000

> <Gold.PLP.Chemscore.Metal>
0.0000

> <Gold.Chemscore.Hbonds>
donor molecule, donor type, donor heavy atom, donor atom, acceptor molecule, acceptor atom, score
      P1  H  6896  6908       L1    17  1.00

> <Gold.PLP.Chemscore.Internal.Correction>
0.1189

> <Gold.Rescore>
     Score         DG    S(hbond)    S(metal)    S(lipo)     H(rot)  DE(clash)    DE(int)     intcor
     14.55     -17.95       0.97        0.00     118.75       1.82       0.02       3.38       ----

> <Gold.Chemscore.Fitness>
14.5489

> <Gold.Chemscore.DG>
-17.9511

> <Gold.Chemscore.ZeroCoef>
-5.4800

> <Gold.Chemscore.Hbond>
0.9668

> <Gold.Chemscore.Metal>
0.0000

> <Gold.Chemscore.Lipo>
118.7550

> <Gold.Chemscore.Internal_Hbond>
0.0000

> <Gold.Chemscore.DEClash>
0.0246

> <Gold.Chemscore.DEInternal>
3.3775

> <Gold.Chemscore.Rot>
1.8174

> <Gold.Chemscore.Internal.Correction>
   9.000000E+99

> <Gold.Chemscore.Hbonds>
donor molecule, donor type, donor heavy atom, donor atom, acceptor molecule, acceptor atom, score
      P1  H  6896  6908       L1    17  0.92

> <Gold.Chemscore.Hbond.Weighted>
-3.2292

> <Gold.Chemscore.Metal.Weighted>
-0.0000

> <Gold.Chemscore.Lipo.Weighted>
-13.8943

> <Gold.Chemscore.Internal_Hbond.Weighted>
0.0000

> <Gold.Chemscore.DEClash.Weighted>
0.0246

> <Gold.Chemscore.DEInternal.Weighted>
3.3775

> <Gold.Chemscore.Rot.Weighted>
4.6524

> <Gold.Chemscore.Internal.Correction.Weighted>
   9.000000E+99

> <Gold.Protein.RotatedTorsions>
[ 6907 6896 6895 6894 ] final -153.51 input  -60.11 | X-H torsion
[ 7974 7965 7964 7962 ] final  -86.28 input  175.53 | X-H torsion
[ 8008 7997 7996 7995 ] final   65.60 input   59.86 | X-H torsion
[ 10167 10162 10161 10158 ] final  -68.98 input  -65.29 | X-H torsion
[ 10718 10713 10712 10709 ] final   57.14 input   66.30 | X-H torsion
[ 10763 10752 10751 10750 ] final  121.45 input  -60.55 | X-H torsion
[ 11005 11000 10999 10996 ] final   62.26 input  -57.11 | X-H torsion

> <Gold.Protein.ActiveResidues>
 VAL166  LYS551  ARG553  GLY616  TRP617  ASP618  TYR619  PRO620  LYS621  CYS622 
 ASP623  PHE694  ASN695  SER759  ASP760  ASP761  ALA762  ILE779  LEU786  VAL792 
 PHE793  MET794  SER795  GLU796  ALA797  LYS798  CYS799  TRP800  GLU811  SER814 

> <Gold.Protein.RotatedAtoms>
  151.2436  133.4386  159.2608 H   0  0  0  0  0  0  0  0  0  0  0  0  # atno 6907 bound_to 6896
  151.0682  134.9781  159.8305 H   0  0  0  0  0  0  0  0  0  0  0  0  # atno 6908 bound_to 6896
  152.5408  134.2383  159.8904 H   0  0  0  0  0  0  0  0  0  0  0  0  # atno 6909 bound_to 6896
  145.4820  140.9556  143.1859 H   0  0  0  0  0  0  0  0  0  0  0  0  # atno 7974 bound_to 7965
  155.6643  140.3497  155.4794 H   0  0  0  0  0  0  0  0  0  0  0  0  # atno 8008 bound_to 7997
  155.9742  140.1161  157.0808 H   0  0  0  0  0  0  0  0  0  0  0  0  # atno 8009 bound_to 7997
  154.4174  140.1151  156.5334 H   0  0  0  0  0  0  0  0  0  0  0  0  # atno 8010 bound_to 7997
  140.5466  143.2313  151.6990 H   0  0  0  0  0  0  0  0  0  0  0  0  # atno 10167 bound_to 10162
  157.5490  130.8751  149.8934 H   0  0  0  0  0  0  0  0  0  0  0  0  # atno 10718 bound_to 10713
  153.6143  135.3425  155.2989 H   0  0  0  0  0  0  0  0  0  0  0  0  # atno 10763 bound_to 10752
  154.8612  135.4257  154.2276 H   0  0  0  0  0  0  0  0  0  0  0  0  # atno 10764 bound_to 10752
  153.3134  135.7033  153.7168 H   0  0  0  0  0  0  0  0  0  0  0  0  # atno 10765 bound_to 10752
  140.0104  134.6304  155.9789 H   0  0  0  0  0  0  0  0  0  0  0  0  # atno 11005 bound_to 11000
  144.7883  139.6380  143.7124 LP  0  0  0  0  0  0  0  0  0  0  0  0  # atno 17320 bound_to 7965
  146.2335  139.5860  142.9539 LP  0  0  0  0  0  0  0  0  0  0  0  0  # atno 17321 bound_to 7965
  139.5010  144.3885  152.0304 LP  0  0  0  0  0  0  0  0  0  0  0  0  # atno 17342 bound_to 10162
  140.2998  144.3659  150.6063 LP  0  0  0  0  0  0  0  0  0  0  0  0  # atno 17343 bound_to 10162
  156.0560  130.3708  150.1091 LP  0  0  0  0  0  0  0  0  0  0  0  0  # atno 17370 bound_to 10713
  156.9265  130.9700  151.3540 LP  0  0  0  0  0  0  0  0  0  0  0  0  # atno 17371 bound_to 10713
  141.1707  133.6537  156.4642 LP  0  0  0  0  0  0  0  0  0  0  0  0  # atno 17394 bound_to 11000
  140.4564  134.6881  157.5064 LP  0  0  0  0  0  0  0  0  0  0  0  0  # atno 17395 bound_to 11000

$$$$
