AV-unprocessed.smi:703|AV-procd|sdf|3426|dock5
  -GOLD-   22720 0413D 1   1.00000     0.00000
 Structure written by MMmdl.
 38 39  0  0  0  0  0  0  0  0  2 V2000
  150.5569  135.3467  155.3507 C   0  0  0  0  0  0  0  0  0  0  0  0
  149.2295  136.1139  155.4177 C   0  0  0  0  0  0  0  0  0  0  0  0
  149.1489  137.1863  154.3982 N   0  3  1  0  0  0  0  0  0  0  0  0
  147.9080  137.9917  154.4381 C   0  0  0  0  0  0  0  0  0  0  0  0
  148.2947  139.3564  153.8706 C   0  0  1  0  0  0  0  0  0  0  0  0
  147.2985  140.4915  154.1614 C   0  0  0  0  0  0  0  0  0  0  0  0
  149.7243  139.5507  154.3897 C   0  0  1  0  0  0  0  0  0  0  0  0
  149.7290  140.1253  155.7405 N   0  0  0  0  0  0  0  0  0  0  0  0
  151.2463  140.5594  156.4357 S   0  0  0  0  0  0  0  0  0  0  0  0
  151.2863  140.0116  157.8004 O   0  0  0  0  0  0  0  0  0  0  0  0
  152.2915  140.1937  155.4679 O   0  0  0  0  0  0  0  0  0  0  0  0
  151.1318  142.3947  156.5407 C   0  0  0  0  0  0  0  0  0  0  0  0
  151.4117  142.8336  157.9492 C   0  0  0  0  0  0  0  0  0  0  0  0
  152.3197  143.8312  158.4004 C   0  0  0  0  0  0  0  0  0  0  0  0
  152.1641  143.8135  159.7565 C   0  0  0  0  0  0  0  0  0  0  0  0
  151.2448  142.8830  160.1172 O   0  0  0  0  0  0  0  0  0  0  0  0
  150.7709  142.2617  158.9561 N   0  0  0  0  0  0  0  0  0  0  0  0
  150.2989  138.1236  154.4117 C   0  0  0  0  0  0  0  0  0  0  0  0
  150.6123  134.6039  156.1469 H   0  0  0  0  0  0  0  0  0  0  0  0
  151.4070  136.0196  155.4661 H   0  0  0  0  0  0  0  0  0  0  0  0
  150.6708  134.8187  154.4038 H   0  0  0  0  0  0  0  0  0  0  0  0
  148.3872  135.4293  155.3057 H   0  0  0  0  0  0  0  0  0  0  0  0
  149.1377  136.5652  156.4066 H   0  0  0  0  0  0  0  0  0  0  0  0
  147.1056  137.5183  153.8715 H   0  0  0  0  0  0  0  0  0  0  0  0
  147.5706  138.1025  155.4701 H   0  0  0  0  0  0  0  0  0  0  0  0
  148.3603  139.2510  152.7862 H   0  0  0  0  0  0  0  0  0  0  0  0
  147.1189  140.6139  155.2296 H   0  0  0  0  0  0  0  0  0  0  0  0
  146.3359  140.2911  153.6903 H   0  0  0  0  0  0  0  0  0  0  0  0
  147.6653  141.4417  153.7721 H   0  0  0  0  0  0  0  0  0  0  0  0
  150.2925  140.2048  153.7267 H   0  0  0  0  0  0  0  0  0  0  0  0
  149.0677  140.8991  155.8074 H   0  0  0  0  0  0  0  0  0  0  0  0
  151.8458  142.8264  155.8387 H   0  0  0  0  0  0  0  0  0  0  0  0
  150.1324  142.6973  156.2287 H   0  0  0  0  0  0  0  0  0  0  0  0
  152.9763  144.4630  157.8210 H   0  0  0  0  0  0  0  0  0  0  0  0
  152.6139  144.3738  160.5628 H   0  0  0  0  0  0  0  0  0  0  0  0
  150.9561  137.9581  155.2669 H   0  0  0  0  0  0  0  0  0  0  0  0
  150.8916  137.9404  153.5150 H   0  0  0  0  0  0  0  0  0  0  0  0
  149.1723  136.7384  153.4931 H   0  0  0  0  0  0  0  0  0  0  0  0
  1  2  1  0  0  0  0
  1 19  1  0  0  0  0
  1 20  1  0  0  0  0
  1 21  1  0  0  0  0
  2  3  1  0  0  0  0
  2 22  1  0  0  0  0
  2 23  1  0  0  0  0
  3 18  1  0  0  0  0
  3  4  1  0  0  0  0
  3 38  1  0  0  0  0
  4  5  1  0  0  0  0
  4 24  1  0  0  0  0
  4 25  1  0  0  0  0
  5  6  1  0  0  0  0
  5  7  1  0  0  0  0
  5 26  1  0  0  0  0
  6 27  1  0  0  0  0
  6 28  1  0  0  0  0
  6 29  1  0  0  0  0
  7  8  1  0  0  0  0
  7 18  1  0  0  0  0
  7 30  1  0  0  0  0
  8  9  1  0  0  0  0
  8 31  1  0  0  0  0
  9 10  2  0  0  0  0
  9 11  2  0  0  0  0
  9 12  1  0  0  0  0
 12 13  1  0  0  0  0
 12 32  1  0  0  0  0
 12 33  1  0  0  0  0
 13 17  2  0  0  0  0
 13 14  1  0  0  0  0
 14 15  2  0  0  0  0
 14 34  1  0  0  0  0
 15 16  1  0  0  0  0
 15 35  1  0  0  0  0
 16 17  1  0  0  0  0
 18 36  1  0  0  0  0
 18 37  1  0  0  0  0
M  CHG  1   3   1
M  END
> <s_m_source_file>
AV-unprocessed.smi

> <i_m_source_file_index>
703

> <i_lp_mmshare_version>
43012

> <i_f3d_flags>
0

> <s_epik_input>
W0NIM11bQ0gyXU4xW0NIMl1bQ0BASF0oW0NIM10pW0NASF0oW0NIMl0xKVtOSF1TKD1PKSg9TylbQ0gyXWMyW2NIXVtjSF1vbjI=

> <s_epik_cmdline>
J2VwaWtfcHl0aG9uJywgJy1waCcsICc3LjAnLCAnLXRuJywgJzgnLCAnLW1hJywgJzIwMCcsICctbWV0YWxfYmluZGluZycsICctaW1hZScsICc8aW5maWxlLm1hZT4nLCAnLW9tYWUnLCAnPG91dGZpbGUubWFlPic=

> <r_epik_Ionization_Penalty>
0.00324529

> <r_epik_Ionization_Penalty_Charging>
0.0019384

> <r_epik_Ionization_Penalty_Neutral>
0.00130689

> <r_epik_State_Penalty>
0.00218682

> <r_epik_Charging_Adjusted_Penalty>
0.00412522

> <i_epik_Tot_Q>
1

> <i_epik_Tot_abs_Q>
1

> <r_epik_Metal_State_Penalty>
0.310831

> <b_epik_Metal_Only>
0

> <s_lp_Force_Field>
OPLS_2005

> <r_lp_Energy>
19.6136

> <b_lp_Chiralities_Consistent>
1

> <s_lp_Variant>
AV-unprocessed.smi:703-1

> <Gold.Version>
5.8.1

> <Gold.Id.Protein>
6NUR|6NUR_protein|mol2

> <Gold.PLP.Fitness>
39.0871

> <Gold.PLP.PLP>
-30.1205

> <Gold.PLP.part.hbond>
-3.6567

> <Gold.PLP.part.metal>
0.0000

> <Gold.PLP.part.buried>
-1.9760

> <Gold.PLP.part.nonpolar>
-24.1192

> <Gold.PLP.part.repulsive>
0.0582

> <Gold.PLP.ligand.clash>
0.0000

> <Gold.PLP.ligand.torsion>
0.3175

> <Gold.PLP.Chemscore.Hbond>
3.1469

> <Gold.PLP.Chemscore.CHOScore>
0.0000

> <Gold.PLP.Chemscore.Metal>
0.0000

> <Gold.Chemscore.Hbonds>
donor molecule, donor type, donor heavy atom, donor atom, acceptor molecule, acceptor atom, score
      L1  H     3    38       P1  7948  2.00
      P1  H  7989  7998       L1    11  0.43
      P1  H  7997  8009       L1    11  0.65

> <Gold.PLP.Chemscore.Internal.Correction>
0.1610

> <Gold.Rescore>
     Score         DG    S(hbond)    S(metal)    S(lipo)     H(rot)  DE(clash)    DE(int)     intcor
     14.51     -16.72       2.03        0.00      80.43       1.94       0.28       1.92       ----

> <Gold.Chemscore.Fitness>
14.5100

> <Gold.Chemscore.DG>
-16.7158

> <Gold.Chemscore.ZeroCoef>
-5.4800

> <Gold.Chemscore.Hbond>
2.0336

> <Gold.Chemscore.Metal>
0.0000

> <Gold.Chemscore.Lipo>
80.4280

> <Gold.Chemscore.Internal_Hbond>
0.0000

> <Gold.Chemscore.DEClash>
0.2824

> <Gold.Chemscore.DEInternal>
1.9234

> <Gold.Chemscore.Rot>
1.9400

> <Gold.Chemscore.Internal.Correction>
   9.000000E+99

> <Gold.Chemscore.Hbonds>
donor molecule, donor type, donor heavy atom, donor atom, acceptor molecule, acceptor atom, score
      L1  H     3    38       P1  7948  0.99
      P1  H  7989  7998       L1    11  0.28
      P1  H  7997  8009       L1    11  0.64

> <Gold.Chemscore.Hbond.Weighted>
-6.7922

> <Gold.Chemscore.Metal.Weighted>
-0.0000

> <Gold.Chemscore.Lipo.Weighted>
-9.4101

> <Gold.Chemscore.Internal_Hbond.Weighted>
0.0000

> <Gold.Chemscore.DEClash.Weighted>
0.2824

> <Gold.Chemscore.DEInternal.Weighted>
1.9234

> <Gold.Chemscore.Rot.Weighted>
4.9665

> <Gold.Chemscore.Internal.Correction.Weighted>
   9.000000E+99

> <Gold.Protein.RotatedTorsions>
[ 6907 6896 6895 6894 ] final  -19.00 input  -60.11 | X-H torsion
[ 7974 7965 7964 7962 ] final   36.27 input  175.53 | X-H torsion
[ 8008 7997 7996 7995 ] final -142.68 input   59.86 | X-H torsion
[ 10167 10162 10161 10158 ] final   -4.38 input  -65.29 | X-H torsion
[ 10718 10713 10712 10709 ] final   -3.38 input   66.30 | X-H torsion
[ 10763 10752 10751 10750 ] final  176.71 input  -60.55 | X-H torsion
[ 11005 11000 10999 10996 ] final   92.50 input  -57.11 | X-H torsion

> <Gold.Protein.ActiveResidues>
 VAL166  LYS551  ARG553  GLY616  TRP617  ASP618  TYR619  PRO620  LYS621  CYS622 
 ASP623  PHE694  ASN695  SER759  ASP760  ASP761  ALA762  ILE779  LEU786  VAL792 
 PHE793  MET794  SER795  GLU796  ALA797  LYS798  CYS799  TRP800  GLU811  SER814 

> <Gold.Protein.RotatedAtoms>
  151.2697  135.0680  159.9129 H   0  0  0  0  0  0  0  0  0  0  0  0  # atno 6907 bound_to 6896
  152.5352  134.0144  159.7963 H   0  0  0  0  0  0  0  0  0  0  0  0  # atno 6908 bound_to 6896
  151.0380  133.5681  159.2685 H   0  0  0  0  0  0  0  0  0  0  0  0  # atno 6909 bound_to 6896
  146.1223  139.6038  142.9281 H   0  0  0  0  0  0  0  0  0  0  0  0  # atno 7974 bound_to 7965
  155.4983  140.0573  157.2943 H   0  0  0  0  0  0  0  0  0  0  0  0  # atno 8008 bound_to 7997
  154.4597  140.1990  156.0230 H   0  0  0  0  0  0  0  0  0  0  0  0  # atno 8009 bound_to 7997
  156.0866  140.3239  155.7766 H   0  0  0  0  0  0  0  0  0  0  0  0  # atno 8010 bound_to 7997
  140.6925  143.6431  150.8418 H   0  0  0  0  0  0  0  0  0  0  0  0  # atno 10167 bound_to 10162
  156.7769  130.5318  149.5757 H   0  0  0  0  0  0  0  0  0  0  0  0  # atno 10718 bound_to 10713
  154.4847  135.2776  155.1543 H   0  0  0  0  0  0  0  0  0  0  0  0  # atno 10763 bound_to 10752
  154.3239  135.6204  153.5524 H   0  0  0  0  0  0  0  0  0  0  0  0  # atno 10764 bound_to 10752
  152.9880  135.5749  154.5255 H   0  0  0  0  0  0  0  0  0  0  0  0  # atno 10765 bound_to 10752
  139.8822  134.8737  156.3582 H   0  0  0  0  0  0  0  0  0  0  0  0  # atno 11005 bound_to 11000
  145.5439  141.0418  143.2315 LP  0  0  0  0  0  0  0  0  0  0  0  0  # atno 17320 bound_to 7965
  144.7609  139.6960  143.7235 LP  0  0  0  0  0  0  0  0  0  0  0  0  # atno 17321 bound_to 7965
  140.0145  143.5607  152.2825 LP  0  0  0  0  0  0  0  0  0  0  0  0  # atno 17342 bound_to 10162
  139.6343  144.7648  151.2470 LP  0  0  0  0  0  0  0  0  0  0  0  0  # atno 17343 bound_to 10162
  156.1242  130.6132  151.0239 LP  0  0  0  0  0  0  0  0  0  0  0  0  # atno 17370 bound_to 10713
  157.6664  131.0870  150.7717 LP  0  0  0  0  0  0  0  0  0  0  0  0  # atno 17371 bound_to 10713
  140.9547  133.7427  156.0320 LP  0  0  0  0  0  0  0  0  0  0  0  0  # atno 17394 bound_to 11000
  140.8062  134.3451  157.5425 LP  0  0  0  0  0  0  0  0  0  0  0  0  # atno 17395 bound_to 11000

$$$$
