AV-unprocessed.smi:540|AV-procd|sdf|2869|dock2
  -GOLD-   2262023363D 1   1.00000     0.00000
 Structure written by MMmdl.
 49 51  0  0  0  0  0  0  0  0  1 V2000
  148.0783  140.7463  153.4493 C   0  0  0  0  0  0  0  0  0  0  0  0
  148.9666  139.6031  153.9449 C   0  0  0  0  0  0  0  0  0  0  0  0
  150.2209  140.1341  154.3374 O   0  0  0  0  0  0  0  0  0  0  0  0
  150.7912  139.4378  155.4319 C   0  0  0  0  0  0  0  0  0  0  0  0
  152.0133  140.2183  155.9299 C   0  0  0  0  0  0  0  0  0  0  0  0
  152.4119  139.7905  157.2682 N   0  0  0  0  0  0  0  0  0  0  0  0
  152.4193  140.5141  158.4225 C   0  0  0  0  0  0  0  0  0  0  0  0
  152.0415  141.8580  158.4672 N   0  0  0  0  0  0  0  0  0  0  0  0
  151.0606  142.5189  157.6064 C   0  0  0  0  0  0  0  0  0  0  0  0
  150.0042  143.2764  158.4308 C   0  0  0  0  0  0  0  0  0  0  0  0
  150.6699  144.3224  159.3420 C   0  0  0  0  0  0  0  0  0  0  0  0
  149.6471  145.0225  160.2474 C   0  0  0  0  0  0  0  0  0  0  0  0
  151.7926  143.6540  160.1554 C   0  0  0  0  0  0  0  0  0  0  0  0
  152.7534  142.8739  159.2398 C   0  0  0  0  0  0  0  0  0  0  0  0
  152.7646  139.8199  159.5103 N   0  0  0  0  0  0  0  0  0  0  0  0
  153.0231  138.5542  159.0085 C   0  0  0  0  0  0  0  0  0  0  0  0
  152.8040  138.5110  157.6693 C   0  0  0  0  0  0  0  0  0  0  0  0
  152.9541  137.2733  156.8897 C   0  0  0  0  0  0  0  0  0  0  0  0
  152.7344  137.1966  155.6831 O   0  0  0  0  0  0  0  0  0  0  0  0
  153.3518  136.2166  157.6391 N   0  0  0  0  0  0  0  0  0  0  0  0
  153.5977  136.1961  158.9842 C   0  0  0  0  0  0  0  0  0  0  0  0
  153.9488  135.1498  159.5295 O   0  0  0  0  0  0  0  0  0  0  0  0
  153.4342  137.3669  159.6791 N   0  0  0  0  0  0  0  0  0  0  0  0
  153.6727  137.4010  161.1233 C   0  0  0  0  0  0  0  0  0  0  0  0
  153.4738  135.3423  157.1494 H   0  0  0  0  0  0  0  0  0  0  0  0
  147.1017  140.3745  153.1390 H   0  0  0  0  0  0  0  0  0  0  0  0
  148.5308  141.2518  152.5957 H   0  0  0  0  0  0  0  0  0  0  0  0
  147.9208  141.4869  154.2337 H   0  0  0  0  0  0  0  0  0  0  0  0
  148.4890  139.1020  154.7884 H   0  0  0  0  0  0  0  0  0  0  0  0
  149.1020  138.8643  153.1534 H   0  0  0  0  0  0  0  0  0  0  0  0
  150.0559  139.3429  156.2321 H   0  0  0  0  0  0  0  0  0  0  0  0
  151.0826  138.4305  155.1303 H   0  0  0  0  0  0  0  0  0  0  0  0
  152.8446  140.1057  155.2375 H   0  0  0  0  0  0  0  0  0  0  0  0
  151.8035  141.2832  155.9300 H   0  0  0  0  0  0  0  0  0  0  0  0
  151.5847  143.2181  156.9533 H   0  0  0  0  0  0  0  0  0  0  0  0
  150.5909  141.7975  156.9391 H   0  0  0  0  0  0  0  0  0  0  0  0
  149.2940  143.7618  157.7609 H   0  0  0  0  0  0  0  0  0  0  0  0
  149.4287  142.5732  159.0334 H   0  0  0  0  0  0  0  0  0  0  0  0
  151.1257  145.0814  158.7043 H   0  0  0  0  0  0  0  0  0  0  0  0
  149.1540  144.3121  160.9119 H   0  0  0  0  0  0  0  0  0  0  0  0
  148.8756  145.5175  159.6571 H   0  0  0  0  0  0  0  0  0  0  0  0
  150.1263  145.7814  160.8664 H   0  0  0  0  0  0  0  0  0  0  0  0
  152.3475  144.4070  160.7157 H   0  0  0  0  0  0  0  0  0  0  0  0
  151.3629  142.9744  160.8928 H   0  0  0  0  0  0  0  0  0  0  0  0
  153.5257  142.3988  159.8456 H   0  0  0  0  0  0  0  0  0  0  0  0
  153.2679  143.5538  158.5595 H   0  0  0  0  0  0  0  0  0  0  0  0
  154.6569  136.9961  161.3643 H   0  0  0  0  0  0  0  0  0  0  0  0
  152.9224  136.8056  161.6449 H   0  0  0  0  0  0  0  0  0  0  0  0
  153.6339  138.4113  161.5303 H   0  0  0  0  0  0  0  0  0  0  0  0
  1  2  1  0  0  0  0
  1 26  1  0  0  0  0
  1 27  1  0  0  0  0
  1 28  1  0  0  0  0
  2  3  1  0  0  0  0
  2 29  1  0  0  0  0
  2 30  1  0  0  0  0
  3  4  1  0  0  0  0
  4  5  1  0  0  0  0
  4 31  1  0  0  0  0
  4 32  1  0  0  0  0
  5  6  1  0  0  0  0
  5 33  1  0  0  0  0
  5 34  1  0  0  0  0
  6 17  1  0  0  0  0
  6  7  1  0  0  0  0
  7  8  1  0  0  0  0
  7 15  2  0  0  0  0
  8 14  1  0  0  0  0
  8  9  1  0  0  0  0
  9 10  1  0  0  0  0
  9 35  1  0  0  0  0
  9 36  1  0  0  0  0
 10 11  1  0  0  0  0
 10 37  1  0  0  0  0
 10 38  1  0  0  0  0
 11 12  1  0  0  0  0
 11 13  1  0  0  0  0
 11 39  1  0  0  0  0
 12 40  1  0  0  0  0
 12 41  1  0  0  0  0
 12 42  1  0  0  0  0
 13 14  1  0  0  0  0
 13 43  1  0  0  0  0
 13 44  1  0  0  0  0
 14 45  1  0  0  0  0
 14 46  1  0  0  0  0
 15 16  1  0  0  0  0
 16 23  1  0  0  0  0
 16 17  2  0  0  0  0
 17 18  1  0  0  0  0
 18 19  2  0  0  0  0
 18 20  1  0  0  0  0
 20 25  1  0  0  0  0
 20 21  1  0  0  0  0
 21 22  2  0  0  0  0
 21 23  1  0  0  0  0
 23 24  1  0  0  0  0
 24 47  1  0  0  0  0
 24 48  1  0  0  0  0
 24 49  1  0  0  0  0
M  END
> <s_m_source_file>
AV-unprocessed.smi

> <i_m_source_file_index>
540

> <i_lp_mmshare_version>
43012

> <i_f3d_flags>
0

> <s_epik_input>
W0NIM11uMWMoPU8pW25IXWMoPU8pYyhjMTIpbihbQ0gyXVtDSDJdT1tDSDJdW0NIM10pYyhuMilOM1tDSDJdW0NIMl1bQ0hdKFtDSDNdKVtDSDJdW0NIMl0z

> <s_epik_cmdline>
J2VwaWtfcHl0aG9uJywgJy1waCcsICc3LjAnLCAnLXRuJywgJzgnLCAnLW1hJywgJzIwMCcsICctbWV0YWxfYmluZGluZycsICctaW1hZScsICc8aW5maWxlLm1hZT4nLCAnLW9tYWUnLCAnPG91dGZpbGUubWFlPic=

> <r_lp_tautomer_probability>
1

> <r_epik_Ionization_Penalty>
0.000763957

> <r_epik_Ionization_Penalty_Charging>
0.000121351

> <r_epik_Ionization_Penalty_Neutral>
0.000642606

> <r_epik_State_Penalty>
-0

> <r_epik_Charging_Adjusted_Penalty>
0.000121351

> <i_epik_Tot_Q>
0

> <i_epik_Tot_abs_Q>
0

> <r_epik_Metal_State_Penalty>
0.0930422

> <b_epik_Metal_Only>
0

> <s_lp_Force_Field>
OPLS_2005

> <r_lp_Energy>
38.5385

> <b_lp_Chiralities_Consistent>
1

> <s_lp_Variant>
AV-unprocessed.smi:540-1

> <Gold.Version>
5.8.1

> <Gold.Id.Protein>
6NUR|6NUR_protein|mol2

> <Gold.PLP.Fitness>
43.9642

> <Gold.PLP.PLP>
-37.7244

> <Gold.PLP.part.hbond>
-3.0000

> <Gold.PLP.part.metal>
0.0000

> <Gold.PLP.part.buried>
-1.8943

> <Gold.PLP.part.nonpolar>
-33.6321

> <Gold.PLP.part.repulsive>
0.2968

> <Gold.PLP.ligand.clash>
0.0000

> <Gold.PLP.ligand.torsion>
0.8811

> <Gold.PLP.Chemscore.Hbond>
2.4720

> <Gold.PLP.Chemscore.CHOScore>
0.0000

> <Gold.PLP.Chemscore.Metal>
0.0000

> <Gold.Chemscore.Hbonds>
donor molecule, donor type, donor heavy atom, donor atom, acceptor molecule, acceptor atom, score
      P1  H  6896  6909       L1    22  0.95
      P1  H  7989  7998       L1     3  1.00
      P1  H 10752 10764       L1    19  0.43

> <Gold.PLP.Chemscore.Internal.Correction>
0.5860

> <Gold.Rescore>
     Score         DG    S(hbond)    S(metal)    S(lipo)     H(rot)  DE(clash)    DE(int)     intcor
     13.47     -16.56       1.25        0.00      93.69       1.58       0.04       3.05       ----

> <Gold.Chemscore.Fitness>
13.4692

> <Gold.Chemscore.DG>
-16.5561

> <Gold.Chemscore.ZeroCoef>
-5.4800

> <Gold.Chemscore.Hbond>
1.2456

> <Gold.Chemscore.Metal>
0.0000

> <Gold.Chemscore.Lipo>
93.6937

> <Gold.Chemscore.Internal_Hbond>
0.0000

> <Gold.Chemscore.DEClash>
0.0363

> <Gold.Chemscore.DEInternal>
3.0506

> <Gold.Chemscore.Rot>
1.5806

> <Gold.Chemscore.Internal.Correction>
   9.000000E+99

> <Gold.Chemscore.Hbonds>
donor molecule, donor type, donor heavy atom, donor atom, acceptor molecule, acceptor atom, score
      P1  H  6896  6909       L1    22  0.21
      P1  H  7989  7998       L1     3  0.48
      P1  H 10752 10764       L1    19  0.43

> <Gold.Chemscore.Hbond.Weighted>
-4.1602

> <Gold.Chemscore.Metal.Weighted>
-0.0000

> <Gold.Chemscore.Lipo.Weighted>
-10.9622

> <Gold.Chemscore.Internal_Hbond.Weighted>
0.0000

> <Gold.Chemscore.DEClash.Weighted>
0.0363

> <Gold.Chemscore.DEInternal.Weighted>
3.0506

> <Gold.Chemscore.Rot.Weighted>
4.0463

> <Gold.Chemscore.Internal.Correction.Weighted>
   9.000000E+99

> <Gold.Protein.RotatedTorsions>
[ 6907 6896 6895 6894 ] final -176.76 input  -60.11 | X-H torsion
[ 7974 7965 7964 7962 ] final -145.54 input  175.53 | X-H torsion
[ 8008 7997 7996 7995 ] final -174.42 input   59.86 | X-H torsion
[ 10167 10162 10161 10158 ] final  -26.07 input  -65.29 | X-H torsion
[ 10718 10713 10712 10709 ] final   17.96 input   66.30 | X-H torsion
[ 10763 10752 10751 10750 ] final  -64.57 input  -60.55 | X-H torsion
[ 11005 11000 10999 10996 ] final   22.35 input  -57.11 | X-H torsion

> <Gold.Protein.ActiveResidues>
 VAL166  LYS551  ARG553  GLY616  TRP617  ASP618  TYR619  PRO620  LYS621  CYS622 
 ASP623  PHE694  ASN695  SER759  ASP760  ASP761  ALA762  ILE779  LEU786  VAL792 
 PHE793  MET794  SER795  GLU796  ALA797  LYS798  CYS799  TRP800  GLU811  SER814 

> <Gold.Protein.RotatedAtoms>
  151.6101  133.3348  159.3065 H   0  0  0  0  0  0  0  0  0  0  0  0  # atno 6907 bound_to 6896
  150.8161  134.7347  159.6743 H   0  0  0  0  0  0  0  0  0  0  0  0  # atno 6908 bound_to 6896
  152.4257  134.5878  160.0017 H   0  0  0  0  0  0  0  0  0  0  0  0  # atno 6909 bound_to 6896
  144.8220  140.5570  143.5572 H   0  0  0  0  0  0  0  0  0  0  0  0  # atno 7974 bound_to 7965
  155.9699  140.1161  157.0821 H   0  0  0  0  0  0  0  0  0  0  0  0  # atno 8008 bound_to 7997
  154.4153  140.1165  156.5360 H   0  0  0  0  0  0  0  0  0  0  0  0  # atno 8009 bound_to 7997
  155.6610  140.3473  155.4785 H   0  0  0  0  0  0  0  0  0  0  0  0  # atno 8010 bound_to 7997
  140.7284  143.4210  151.0952 H   0  0  0  0  0  0  0  0  0  0  0  0  # atno 10167 bound_to 10162
  157.0895  130.6422  149.5845 H   0  0  0  0  0  0  0  0  0  0  0  0  # atno 10718 bound_to 10713
  154.3321  135.6174  153.5556 H   0  0  0  0  0  0  0  0  0  0  0  0  # atno 10763 bound_to 10752
  152.9810  135.5749  154.4950 H   0  0  0  0  0  0  0  0  0  0  0  0  # atno 10764 bound_to 10752
  154.4638  135.2857  155.1670 H   0  0  0  0  0  0  0  0  0  0  0  0  # atno 10765 bound_to 10752
  140.3815  134.1915  155.7663 H   0  0  0  0  0  0  0  0  0  0  0  0  # atno 11005 bound_to 11000
  145.5084  139.1480  143.3618 LP  0  0  0  0  0  0  0  0  0  0  0  0  # atno 17320 bound_to 7965
  146.2525  140.5224  142.8887 LP  0  0  0  0  0  0  0  0  0  0  0  0  # atno 17321 bound_to 7965
  139.7855  143.8293  152.3144 LP  0  0  0  0  0  0  0  0  0  0  0  0  # atno 17342 bound_to 10162
  139.8259  144.7275  150.9512 LP  0  0  0  0  0  0  0  0  0  0  0  0  # atno 17343 bound_to 10162
  155.9902  130.4952  150.7246 LP  0  0  0  0  0  0  0  0  0  0  0  0  # atno 17370 bound_to 10713
  157.4733  131.0895  151.0618 LP  0  0  0  0  0  0  0  0  0  0  0  0  # atno 17371 bound_to 10713
  141.1922  133.8179  157.0850 LP  0  0  0  0  0  0  0  0  0  0  0  0  # atno 17394 bound_to 11000
  140.0475  134.9823  157.1075 LP  0  0  0  0  0  0  0  0  0  0  0  0  # atno 17395 bound_to 11000

$$$$
