AV-unprocessed.smi:2584|AV-procd|sdf|10143|dock8
  -GOLD-   2272014153D 1   1.00000     0.00000
 Structure written by MMmdl.
 35 36  0  0  0  0  0  0  0  0  2 V2000
  147.0901  137.3855  153.1990 O   0  0  0  0  0  0  0  0  0  0  0  0
  146.2592  138.2563  152.9389 C   0  0  0  0  0  0  0  0  0  0  0  0
  145.0228  137.9860  152.4956 N   0  0  0  0  0  0  0  0  0  0  0  0
  144.5049  136.6468  152.2398 C   0  0  0  0  0  0  0  0  0  0  0  0
  145.5044  135.7944  151.4334 C   0  0  0  0  0  0  0  0  0  0  0  0
  145.2439  134.3388  151.5668 N   0  3  0  0  0  0  0  0  0  0  0  0
  146.4241  133.5203  151.1824 C   0  0  0  0  0  0  0  0  0  0  0  0
  146.1806  132.0266  151.4568 C   0  0  0  0  0  0  0  0  0  0  0  0
  144.9196  131.5333  150.7358 C   0  0  0  0  0  0  0  0  0  0  0  0
  143.7216  132.4107  151.1194 C   0  0  0  0  0  0  0  0  0  0  0  0
  144.0167  133.8960  150.8506 C   0  0  0  0  0  0  0  0  0  0  0  0
  146.4594  139.5796  153.0562 N   0  0  0  0  0  0  0  0  0  0  0  0
  147.5860  140.2125  153.4696 C   0  0  0  0  0  0  0  0  0  0  0  0
  147.8962  141.5445  153.5969 C   0  0  0  0  0  0  0  0  0  0  0  0
  149.1974  141.7813  154.0678 N   0  0  0  0  0  0  0  0  0  0  0  0
  149.8833  140.7014  154.3024 N   0  0  0  0  0  0  0  0  0  0  0  0
  148.9853  139.3298  153.9621 S   0  0  0  0  0  0  0  0  0  0  0  0
  144.4035  138.7608  152.3060 H   0  0  0  0  0  0  0  0  0  0  0  0
  144.3043  136.1727  153.2009 H   0  0  0  0  0  0  0  0  0  0  0  0
  143.5451  136.7304  151.7297 H   0  0  0  0  0  0  0  0  0  0  0  0
  145.4990  136.0696  150.3774 H   0  0  0  0  0  0  0  0  0  0  0  0
  146.5070  136.0164  151.8023 H   0  0  0  0  0  0  0  0  0  0  0  0
  146.6494  133.6782  150.1264 H   0  0  0  0  0  0  0  0  0  0  0  0
  147.2994  133.8465  151.7456 H   0  0  0  0  0  0  0  0  0  0  0  0
  147.0443  131.4429  151.1370 H   0  0  0  0  0  0  0  0  0  0  0  0
  146.0771  131.8633  152.5304 H   0  0  0  0  0  0  0  0  0  0  0  0
  145.0734  131.5692  149.6564 H   0  0  0  0  0  0  0  0  0  0  0  0
  144.7218  130.4914  150.9894 H   0  0  0  0  0  0  0  0  0  0  0  0
  142.8381  132.0987  150.5614 H   0  0  0  0  0  0  0  0  0  0  0  0
  143.4860  132.2693  152.1752 H   0  0  0  0  0  0  0  0  0  0  0  0
  143.1570  134.4858  151.1657 H   0  0  0  0  0  0  0  0  0  0  0  0
  144.1380  134.0657  149.7794 H   0  0  0  0  0  0  0  0  0  0  0  0
  145.6895  140.1809  152.8013 H   0  0  0  0  0  0  0  0  0  0  0  0
  147.2703  142.3971  153.3807 H   0  0  0  0  0  0  0  0  0  0  0  0
  145.0912  134.1639  152.5498 H   0  0  0  0  0  0  0  0  0  0  0  0
  1  2  2  0  0  0  0
  2  3  1  0  0  0  0
  2 12  1  0  0  0  0
  3  4  1  0  0  0  0
  3 18  1  0  0  0  0
  4  5  1  0  0  0  0
  4 19  1  0  0  0  0
  4 20  1  0  0  0  0
  5  6  1  0  0  0  0
  5 21  1  0  0  0  0
  5 22  1  0  0  0  0
  6 11  1  0  0  0  0
  6  7  1  0  0  0  0
  6 35  1  0  0  0  0
  7  8  1  0  0  0  0
  7 23  1  0  0  0  0
  7 24  1  0  0  0  0
  8  9  1  0  0  0  0
  8 25  1  0  0  0  0
  8 26  1  0  0  0  0
  9 10  1  0  0  0  0
  9 27  1  0  0  0  0
  9 28  1  0  0  0  0
 10 11  1  0  0  0  0
 10 29  1  0  0  0  0
 10 30  1  0  0  0  0
 11 31  1  0  0  0  0
 11 32  1  0  0  0  0
 12 13  1  0  0  0  0
 12 33  1  0  0  0  0
 13 17  1  0  0  0  0
 13 14  2  0  0  0  0
 14 15  1  0  0  0  0
 14 34  1  0  0  0  0
 15 16  2  0  0  0  0
 16 17  1  0  0  0  0
M  CHG  1   6   1
M  END
> <s_m_source_file>
AV-unprocessed.smi

> <i_m_source_file_index>
2584

> <i_lp_mmshare_version>
43012

> <i_f3d_flags>
0

> <s_epik_input>
czFubltjSF1jMVtOSF1DKD1PKVtOSF1bQ0gyXVtDSDJdTjJbQ0gyXVtDSDJdW0NIMl1bQ0gyXVtDSDJdMg==

> <s_epik_cmdline>
J2VwaWtfcHl0aG9uJywgJy1waCcsICc3LjAnLCAnLXRuJywgJzgnLCAnLW1hJywgJzIwMCcsICctbWV0YWxfYmluZGluZycsICctaW1hZScsICc8aW5maWxlLm1hZT4nLCAnLW9tYWUnLCAnPG91dGZpbGUubWFlPic=

> <r_lp_tautomer_probability>
1

> <r_epik_Ionization_Penalty>
0.00255984

> <r_epik_Ionization_Penalty_Charging>
0.0025387

> <r_epik_Ionization_Penalty_Neutral>
2.11374e-05

> <r_epik_State_Penalty>
0.00176242

> <r_epik_Charging_Adjusted_Penalty>
0.00430112

> <i_epik_Tot_Q>
1

> <i_epik_Tot_abs_Q>
1

> <r_epik_Metal_State_Penalty>
-0

> <b_epik_Metal_Only>
0

> <s_lp_Force_Field>
OPLS_2005

> <r_lp_Energy>
17.0629

> <b_lp_Chiralities_Consistent>
1

> <s_lp_Variant>
AV-unprocessed.smi:2584-1

> <Gold.Version>
5.8.1

> <Gold.Id.Protein>
6NUR|6NUR_protein|mol2

> <Gold.PLP.Fitness>
38.2443

> <Gold.PLP.PLP>
-29.7361

> <Gold.PLP.part.hbond>
-5.4629

> <Gold.PLP.part.metal>
0.0000

> <Gold.PLP.part.buried>
-3.2064

> <Gold.PLP.part.nonpolar>
-23.7021

> <Gold.PLP.part.repulsive>
3.6632

> <Gold.PLP.ligand.clash>
0.0000

> <Gold.PLP.ligand.torsion>
0.2909

> <Gold.PLP.Chemscore.Hbond>
3.0223

> <Gold.PLP.Chemscore.CHOScore>
0.0000

> <Gold.PLP.Chemscore.Metal>
0.0000

> <Gold.Chemscore.Hbonds>
donor molecule, donor type, donor heavy atom, donor atom, acceptor molecule, acceptor atom, score
      L1  H     3    18       P1 10175  1.00
      L1  H    12    33       P1 10175  0.94
      P1  H  7989  7998       L1    16  0.70
      P1  H  8011  8017       L1    15  0.34

> <Gold.PLP.Chemscore.Internal.Correction>
0.0232

> <Gold.Rescore>
     Score         DG    S(hbond)    S(metal)    S(lipo)     H(rot)  DE(clash)    DE(int)     intcor
     12.44     -16.93       2.23        0.00      70.19       1.65       1.59       2.90       ----

> <Gold.Chemscore.Fitness>
12.4373

> <Gold.Chemscore.DG>
-16.9277

> <Gold.Chemscore.ZeroCoef>
-5.4800

> <Gold.Chemscore.Hbond>
2.2331

> <Gold.Chemscore.Metal>
0.0000

> <Gold.Chemscore.Lipo>
70.1910

> <Gold.Chemscore.Internal_Hbond>
0.0000

> <Gold.Chemscore.DEClash>
1.5921

> <Gold.Chemscore.DEInternal>
2.8983

> <Gold.Chemscore.Rot>
1.6497

> <Gold.Chemscore.Internal.Correction>
   9.000000E+99

> <Gold.Chemscore.Hbonds>
donor molecule, donor type, donor heavy atom, donor atom, acceptor molecule, acceptor atom, score
      L1  H     3    18       P1 10175  0.99
      L1  H    12    33       P1 10175  0.81
      P1  H  7989  7998       L1    16  0.44
      P1  H  8011  8017       L1    15  0.02

> <Gold.Chemscore.Hbond.Weighted>
-7.4585

> <Gold.Chemscore.Metal.Weighted>
-0.0000

> <Gold.Chemscore.Lipo.Weighted>
-8.2123

> <Gold.Chemscore.Internal_Hbond.Weighted>
0.0000

> <Gold.Chemscore.DEClash.Weighted>
1.5921

> <Gold.Chemscore.DEInternal.Weighted>
2.8983

> <Gold.Chemscore.Rot.Weighted>
4.2232

> <Gold.Chemscore.Internal.Correction.Weighted>
   9.000000E+99

> <Gold.Protein.RotatedTorsions>
[ 6907 6896 6895 6894 ] final  -18.42 input  -60.11 | X-H torsion
[ 7974 7965 7964 7962 ] final  122.87 input  175.53 | X-H torsion
[ 8008 7997 7996 7995 ] final -142.32 input   59.86 | X-H torsion
[ 10167 10162 10161 10158 ] final  -91.87 input  -65.29 | X-H torsion
[ 10718 10713 10712 10709 ] final  178.45 input   66.30 | X-H torsion
[ 10763 10752 10751 10750 ] final  163.85 input  -60.55 | X-H torsion
[ 11005 11000 10999 10996 ] final -104.66 input  -57.11 | X-H torsion

> <Gold.Protein.ActiveResidues>
 VAL166  LYS551  ARG553  GLY616  TRP617  ASP618  TYR619  PRO620  LYS621  CYS622 
 ASP623  PHE694  ASN695  SER759  ASP760  ASP761  ALA762  ILE779  LEU786  VAL792 
 PHE793  MET794  SER795  GLU796  ALA797  LYS798  CYS799  TRP800  GLU811  SER814 

> <Gold.Protein.RotatedAtoms>
  151.2784  135.0706  159.9160 H   0  0  0  0  0  0  0  0  0  0  0  0  # atno 6907 bound_to 6896
  152.5338  134.0056  159.7925 H   0  0  0  0  0  0  0  0  0  0  0  0  # atno 6908 bound_to 6896
  151.0306  133.5743  159.2692 H   0  0  0  0  0  0  0  0  0  0  0  0  # atno 6909 bound_to 6896
  145.1026  139.3508  143.4804 H   0  0  0  0  0  0  0  0  0  0  0  0  # atno 7974 bound_to 7965
  155.4923  140.0569  157.2952 H   0  0  0  0  0  0  0  0  0  0  0  0  # atno 8008 bound_to 7997
  154.4618  140.2000  156.0174 H   0  0  0  0  0  0  0  0  0  0  0  0  # atno 8009 bound_to 7997
  156.0904  140.3234  155.7813 H   0  0  0  0  0  0  0  0  0  0  0  0  # atno 8010 bound_to 7997
  140.3406  143.2944  151.9840 H   0  0  0  0  0  0  0  0  0  0  0  0  # atno 10167 bound_to 10162
  156.8904  130.9845  151.3050 H   0  0  0  0  0  0  0  0  0  0  0  0  # atno 10718 bound_to 10713
  154.3000  135.2759  155.2615 H   0  0  0  0  0  0  0  0  0  0  0  0  # atno 10763 bound_to 10752
  154.5056  135.5796  153.6568 H   0  0  0  0  0  0  0  0  0  0  0  0  # atno 10764 bound_to 10752
  152.9902  135.6168  154.3170 H   0  0  0  0  0  0  0  0  0  0  0  0  # atno 10765 bound_to 10752
  141.1090  133.8742  157.1639 H   0  0  0  0  0  0  0  0  0  0  0  0  # atno 11005 bound_to 11000
  146.3529  140.0909  142.8612 LP  0  0  0  0  0  0  0  0  0  0  0  0  # atno 17320 bound_to 7965
  145.0938  140.9302  143.4753 LP  0  0  0  0  0  0  0  0  0  0  0  0  # atno 17321 bound_to 7965
  139.4841  144.6160  151.7345 LP  0  0  0  0  0  0  0  0  0  0  0  0  # atno 17342 bound_to 10162
  140.5313  144.0726  150.6054 LP  0  0  0  0  0  0  0  0  0  0  0  0  # atno 17343 bound_to 10162
  157.6087  130.8567  149.8917 LP  0  0  0  0  0  0  0  0  0  0  0  0  # atno 17370 bound_to 10713
  156.0632  130.3696  150.0936 LP  0  0  0  0  0  0  0  0  0  0  0  0  # atno 17371 bound_to 10713
  139.9974  135.0041  157.0113 LP  0  0  0  0  0  0  0  0  0  0  0  0  # atno 17394 bound_to 11000
  140.4826  134.1273  155.7219 LP  0  0  0  0  0  0  0  0  0  0  0  0  # atno 17395 bound_to 11000

$$$$
