AV-unprocessed.smi:3348|AV-procd|sdf|12917|dock4
  -GOLD-   2272019333D 1   1.00000     0.00000
 Structure written by MMmdl.
 47 48  0  0  0  0  0  0  0  0  2 V2000
  151.9196  137.8021  156.3116 C   0  0  0  0  0  0  0  0  0  0  0  0
  150.9873  139.0048  156.1112 C   0  0  2  0  0  0  0  0  0  0  0  0
  150.5219  139.0814  154.6391 C   0  0  0  0  0  0  0  0  0  0  0  0
  149.3322  139.8896  154.4415 N   0  0  0  0  0  0  0  0  0  0  0  0
  148.0139  139.5349  154.6387 C   0  0  0  0  0  0  0  0  0  0  0  0
  147.2505  140.6267  154.3395 C   0  0  0  0  0  0  0  0  0  0  0  0
  148.2048  141.6175  153.9752 C   0  0  0  0  0  0  0  0  0  0  0  0
  149.4501  141.1747  154.0425 N   0  0  0  0  0  0  0  0  0  0  0  0
  151.6942  140.2374  156.5312 N   0  3  0  0  0  0  0  0  0  0  0  0
  150.9508  141.5002  156.3329 C   0  0  0  0  0  0  0  0  0  0  0  0
  150.2134  141.9085  157.6110 C   0  0  0  0  0  0  0  0  0  0  0  0
  151.1688  142.0665  158.6482 O   0  0  0  0  0  0  0  0  0  0  0  0
  152.2657  142.9138  158.3222 C   0  0  1  0  0  0  0  0  0  0  0  0
  151.7553  144.2721  157.7948 C   0  0  0  0  0  0  0  0  0  0  0  0
  150.9834  145.0466  158.8757 C   0  0  0  0  0  0  0  0  0  0  0  0
  151.8353  145.2349  160.1400 C   0  0  0  0  0  0  0  0  0  0  0  0
  152.3512  143.8886  160.6733 C   0  0  0  0  0  0  0  0  0  0  0  0
  153.1255  143.1091  159.5910 C   0  0  1  0  0  0  0  0  0  0  0  0
  153.6743  141.7772  160.1265 C   0  0  0  0  0  0  0  0  0  0  0  0
  151.4159  136.8686  156.0586 H   0  0  0  0  0  0  0  0  0  0  0  0
  152.2467  137.7257  157.3492 H   0  0  0  0  0  0  0  0  0  0  0  0
  152.8097  137.8793  155.6861 H   0  0  0  0  0  0  0  0  0  0  0  0
  150.1252  138.8485  156.7615 H   0  0  0  0  0  0  0  0  0  0  0  0
  151.3204  139.4736  154.0078 H   0  0  0  0  0  0  0  0  0  0  0  0
  150.3003  138.0803  154.2664 H   0  0  0  0  0  0  0  0  0  0  0  0
  147.7309  138.5462  154.9691 H   0  0  0  0  0  0  0  0  0  0  0  0
  146.1743  140.7070  154.3801 H   0  0  0  0  0  0  0  0  0  0  0  0
  148.0308  142.6383  153.6681 H   0  0  0  0  0  0  0  0  0  0  0  0
  151.8656  140.1608  157.5239 H   0  0  0  0  0  0  0  0  0  0  0  0
  151.6399  142.2943  156.0508 H   0  0  0  0  0  0  0  0  0  0  0  0
  150.2382  141.3882  155.5148 H   0  0  0  0  0  0  0  0  0  0  0  0
  149.6592  142.8352  157.4542 H   0  0  0  0  0  0  0  0  0  0  0  0
  149.4912  141.1352  157.8727 H   0  0  0  0  0  0  0  0  0  0  0  0
  152.8851  142.4385  157.5592 H   0  0  0  0  0  0  0  0  0  0  0  0
  152.6060  144.8707  157.4669 H   0  0  0  0  0  0  0  0  0  0  0  0
  151.1282  144.1394  156.9137 H   0  0  0  0  0  0  0  0  0  0  0  0
  150.6752  146.0182  158.4884 H   0  0  0  0  0  0  0  0  0  0  0  0
  150.0671  144.5113  159.1278 H   0  0  0  0  0  0  0  0  0  0  0  0
  152.6804  145.8873  159.9165 H   0  0  0  0  0  0  0  0  0  0  0  0
  151.2505  145.7403  160.9090 H   0  0  0  0  0  0  0  0  0  0  0  0
  152.9927  144.0635  161.5378 H   0  0  0  0  0  0  0  0  0  0  0  0
  151.5107  143.2923  161.0312 H   0  0  0  0  0  0  0  0  0  0  0  0
  153.9883  143.7147  159.3086 H   0  0  0  0  0  0  0  0  0  0  0  0
  152.8720  141.1182  160.4595 H   0  0  0  0  0  0  0  0  0  0  0  0
  154.3404  141.9415  160.9741 H   0  0  0  0  0  0  0  0  0  0  0  0
  154.2423  141.2499  159.3596 H   0  0  0  0  0  0  0  0  0  0  0  0
  152.5857  140.2872  156.0593 H   0  0  0  0  0  0  0  0  0  0  0  0
  1  2  1  0  0  0  0
  1 20  1  0  0  0  0
  1 21  1  0  0  0  0
  1 22  1  0  0  0  0
  2  3  1  0  0  0  0
  2  9  1  0  0  0  0
  2 23  1  0  0  0  0
  3  4  1  0  0  0  0
  3 24  1  0  0  0  0
  3 25  1  0  0  0  0
  4  8  1  0  0  0  0
  4  5  1  0  0  0  0
  5  6  2  0  0  0  0
  5 26  1  0  0  0  0
  6  7  1  0  0  0  0
  6 27  1  0  0  0  0
  7  8  2  0  0  0  0
  7 28  1  0  0  0  0
  9 10  1  0  0  0  0
  9 29  1  0  0  0  0
  9 47  1  0  0  0  0
 10 11  1  0  0  0  0
 10 30  1  0  0  0  0
 10 31  1  0  0  0  0
 11 12  1  0  0  0  0
 11 32  1  0  0  0  0
 11 33  1  0  0  0  0
 12 13  1  0  0  0  0
 13 18  1  0  0  0  0
 13 14  1  0  0  0  0
 13 34  1  0  0  0  0
 14 15  1  0  0  0  0
 14 35  1  0  0  0  0
 14 36  1  0  0  0  0
 15 16  1  0  0  0  0
 15 37  1  0  0  0  0
 15 38  1  0  0  0  0
 16 17  1  0  0  0  0
 16 39  1  0  0  0  0
 16 40  1  0  0  0  0
 17 18  1  0  0  0  0
 17 41  1  0  0  0  0
 17 42  1  0  0  0  0
 18 19  1  0  0  0  0
 18 43  1  0  0  0  0
 19 44  1  0  0  0  0
 19 45  1  0  0  0  0
 19 46  1  0  0  0  0
M  CHG  1   9   1
M  END
> <s_m_source_file>
AV-unprocessed.smi

> <i_m_source_file_index>
3348

> <i_lp_mmshare_version>
43012

> <i_f3d_flags>
0

> <s_epik_input>
bjFbY0hdW2NIXVtjSF1uMVtDSDJdW0NAQEhdKFtDSDNdKVtOSF1bQ0gyXVtDSDJdT1tDQEBIXTJbQ0gyXVtDSDJdW0NIMl1bQ0gyXVtDQEhdMltDSDNd

> <s_epik_cmdline>
J2VwaWtfcHl0aG9uJywgJy1waCcsICc3LjAnLCAnLXRuJywgJzgnLCAnLW1hJywgJzIwMCcsICctbWV0YWxfYmluZGluZycsICctaW1hZScsICc8aW5maWxlLm1hZT4nLCAnLW9tYWUnLCAnPG91dGZpbGUubWFlPic=

> <r_lp_tautomer_probability>
1

> <r_epik_Ionization_Penalty>
0.00925088

> <r_epik_Ionization_Penalty_Charging>
0.00924645

> <r_epik_Ionization_Penalty_Neutral>
4.42413e-06

> <r_epik_State_Penalty>
0.0070118

> <r_epik_Charging_Adjusted_Penalty>
0.0162583

> <i_epik_Tot_Q>
1

> <i_epik_Tot_abs_Q>
1

> <r_epik_Metal_State_Penalty>
0.00701222

> <b_epik_Metal_Only>
0

> <s_lp_Force_Field>
OPLS_2005

> <r_lp_Energy>
17.627

> <b_lp_Chiralities_Consistent>
1

> <s_lp_Variant>
AV-unprocessed.smi:3348-3

> <Gold.Version>
5.8.1

> <Gold.Id.Protein>
6NUR|6NUR_protein|mol2

> <Gold.PLP.Fitness>
49.0240

> <Gold.PLP.PLP>
-46.7804

> <Gold.PLP.part.hbond>
-1.9067

> <Gold.PLP.part.metal>
0.0000

> <Gold.PLP.part.buried>
-4.0926

> <Gold.PLP.part.nonpolar>
-40.3680

> <Gold.PLP.part.repulsive>
0.3531

> <Gold.PLP.ligand.clash>
0.0000

> <Gold.PLP.ligand.torsion>
0.7583

> <Gold.PLP.Chemscore.Hbond>
0.6240

> <Gold.PLP.Chemscore.CHOScore>
0.5763

> <Gold.PLP.Chemscore.Metal>
0.0000

> <Gold.Chemscore.Hbonds>
donor molecule, donor type, donor heavy atom, donor atom, acceptor molecule, acceptor atom, score
      P1  H  7989  7998       L1     8  0.11
      P1  H  8011  8017       L1     8  0.15

> <Gold.PLP.Chemscore.Internal.Correction>
0.1593

> <Gold.Rescore>
     Score         DG    S(hbond)    S(metal)    S(lipo)     H(rot)  DE(clash)    DE(int)     intcor
     15.70     -18.10       0.69        0.00     127.92       1.82       0.18       2.21       ----

> <Gold.Chemscore.Fitness>
15.7010

> <Gold.Chemscore.DG>
-18.0995

> <Gold.Chemscore.ZeroCoef>
-5.4800

> <Gold.Chemscore.Hbond>
0.6896

> <Gold.Chemscore.Metal>
0.0000

> <Gold.Chemscore.Lipo>
127.9155

> <Gold.Chemscore.Internal_Hbond>
0.0000

> <Gold.Chemscore.DEClash>
0.1846

> <Gold.Chemscore.DEInternal>
2.2139

> <Gold.Chemscore.Rot>
1.8163

> <Gold.Chemscore.Internal.Correction>
   9.000000E+99

> <Gold.Chemscore.Hbonds>
donor molecule, donor type, donor heavy atom, donor atom, acceptor molecule, acceptor atom, score
      P1  H  7989  7998       L1     8  0.01

> <Gold.Chemscore.Hbond.Weighted>
-2.3031

> <Gold.Chemscore.Metal.Weighted>
-0.0000

> <Gold.Chemscore.Lipo.Weighted>
-14.9661

> <Gold.Chemscore.Internal_Hbond.Weighted>
0.0000

> <Gold.Chemscore.DEClash.Weighted>
0.1846

> <Gold.Chemscore.DEInternal.Weighted>
2.2139

> <Gold.Chemscore.Rot.Weighted>
4.6497

> <Gold.Chemscore.Internal.Correction.Weighted>
   9.000000E+99

> <Gold.Protein.RotatedTorsions>
[ 6907 6896 6895 6894 ] final   44.20 input  -60.11 | X-H torsion
[ 7974 7965 7964 7962 ] final   84.06 input  175.53 | X-H torsion
[ 8008 7997 7996 7995 ] final  -48.29 input   59.86 | X-H torsion
[ 10167 10162 10161 10158 ] final -173.00 input  -65.29 | X-H torsion
[ 10718 10713 10712 10709 ] final -124.85 input   66.30 | X-H torsion
[ 10763 10752 10751 10750 ] final -108.83 input  -60.55 | X-H torsion
[ 11005 11000 10999 10996 ] final  -28.52 input  -57.11 | X-H torsion

> <Gold.Protein.ActiveResidues>
 VAL166  LYS551  ARG553  GLY616  TRP617  ASP618  TYR619  PRO620  LYS621  CYS622 
 ASP623  PHE694  ASN695  SER759  ASP760  ASP761  ALA762  ILE779  LEU786  VAL792 
 PHE793  MET794  SER795  GLU796  ALA797  LYS798  CYS799  TRP800  GLU811  SER814 

> <Gold.Protein.RotatedAtoms>
  152.2297  134.8334  160.0475 H   0  0  0  0  0  0  0  0  0  0  0  0  # atno 6907 bound_to 6896
  151.9088  133.3551  159.3864 H   0  0  0  0  0  0  0  0  0  0  0  0  # atno 6908 bound_to 6896
  150.7022  134.4679  159.5455 H   0  0  0  0  0  0  0  0  0  0  0  0  # atno 6909 bound_to 6896
  145.6037  139.2356  143.2231 H   0  0  0  0  0  0  0  0  0  0  0  0  # atno 7974 bound_to 7965
  154.4027  140.1325  156.4315 H   0  0  0  0  0  0  0  0  0  0  0  0  # atno 8008 bound_to 7997
  155.7547  140.3487  155.5147 H   0  0  0  0  0  0  0  0  0  0  0  0  # atno 8009 bound_to 7997
  155.8916  140.1004  157.1404 H   0  0  0  0  0  0  0  0  0  0  0  0  # atno 8010 bound_to 7997
  139.5713  144.1636  152.1387 H   0  0  0  0  0  0  0  0  0  0  0  0  # atno 10167 bound_to 10162
  156.1623  130.6610  151.0067 H   0  0  0  0  0  0  0  0  0  0  0  0  # atno 10718 bound_to 10713
  154.8158  135.4623  154.0640 H   0  0  0  0  0  0  0  0  0  0  0  0  # atno 10763 bound_to 10752
  153.2034  135.6872  153.8210 H   0  0  0  0  0  0  0  0  0  0  0  0  # atno 10764 bound_to 10752
  153.7687  135.3273  155.3325 H   0  0  0  0  0  0  0  0  0  0  0  0  # atno 10765 bound_to 10752
  140.9216  133.7395  156.0809 H   0  0  0  0  0  0  0  0  0  0  0  0  # atno 11005 bound_to 11000
  146.1557  140.6862  142.9301 LP  0  0  0  0  0  0  0  0  0  0  0  0  # atno 17320 bound_to 7965
  144.7299  140.4639  143.6946 LP  0  0  0  0  0  0  0  0  0  0  0  0  # atno 17321 bound_to 7965
  140.1169  144.5407  150.6888 LP  0  0  0  0  0  0  0  0  0  0  0  0  # atno 17342 bound_to 10162
  140.6997  143.2426  151.4900 LP  0  0  0  0  0  0  0  0  0  0  0  0  # atno 17343 bound_to 10162
  157.6742  131.0854  150.7537 LP  0  0  0  0  0  0  0  0  0  0  0  0  # atno 17370 bound_to 10713
  156.7599  130.4795  149.5439 LP  0  0  0  0  0  0  0  0  0  0  0  0  # atno 17371 bound_to 10713
  140.7981  134.3541  157.5447 LP  0  0  0  0  0  0  0  0  0  0  0  0  # atno 17394 bound_to 11000
  139.8776  134.9181  156.3194 LP  0  0  0  0  0  0  0  0  0  0  0  0  # atno 17395 bound_to 11000

$$$$
