AV-unprocessed.smi:2587|AV-procd|sdf|10147|dock5
  -GOLD-   2272014163D 1   1.00000     0.00000
 Structure written by MMmdl.
 40 41  0  0  0  0  0  0  0  0  2 V2000
  150.6173  135.3220  155.1611 C   0  0  0  0  0  0  0  0  0  0  0  0
  150.1673  136.5775  155.0190 C   0  0  0  0  0  0  0  0  0  0  0  0
  150.9420  137.6950  154.3504 C   0  0  0  0  0  0  0  0  0  0  0  0
  151.6025  138.5785  155.3082 N   0  0  0  0  0  0  0  0  0  0  0  0
  152.9388  138.2131  155.7795 C   0  0  0  0  0  0  0  0  0  0  0  0
  152.9751  137.9514  157.2929 C   0  0  0  0  0  0  0  0  0  0  0  0
  154.0998  138.5925  157.8518 O   0  0  0  0  0  0  0  0  0  0  0  0
  151.0766  139.8669  155.5748 C   0  0  0  0  0  0  0  0  0  0  0  0
  151.4841  140.6299  156.6918 C   0  0  0  0  0  0  0  0  0  0  0  0
  150.9041  141.9072  156.8811 C   0  0  0  0  0  0  0  0  0  0  0  0
  151.2418  142.7678  157.9498 N   0  0  0  0  0  0  0  0  0  0  0  0
  151.5960  144.1507  157.6403 C   0  0  0  0  0  0  0  0  0  0  0  0
  151.6164  145.0041  158.9196 C   0  0  0  0  0  0  0  0  0  0  0  0
  152.4780  144.4068  159.8811 O   0  0  0  0  0  0  0  0  0  0  0  0
  152.0224  143.1145  160.2644 C   0  0  0  0  0  0  0  0  0  0  0  0
  152.0185  142.1818  159.0417 C   0  0  0  0  0  0  0  0  0  0  0  0
  149.9809  142.3431  155.9847 N   0  3  0  0  0  0  0  0  0  0  0  0
  149.6331  141.5791  154.9416 C   0  0  0  0  0  0  0  0  0  0  0  0
  150.1561  140.3707  154.7233 N   0  0  0  0  0  0  0  0  0  0  0  0
  151.5886  135.0283  154.7910 H   0  0  0  0  0  0  0  0  0  0  0  0
  150.0170  134.5703  155.6525 H   0  0  0  0  0  0  0  0  0  0  0  0
  149.1924  136.8354  155.4068 H   0  0  0  0  0  0  0  0  0  0  0  0
  151.6970  137.2349  153.7119 H   0  0  0  0  0  0  0  0  0  0  0  0
  150.2954  138.2637  153.6812 H   0  0  0  0  0  0  0  0  0  0  0  0
  153.3183  137.3500  155.2314 H   0  0  0  0  0  0  0  0  0  0  0  0
  153.6197  139.0306  155.5392 H   0  0  0  0  0  0  0  0  0  0  0  0
  152.0746  138.3315  157.7764 H   0  0  0  0  0  0  0  0  0  0  0  0
  153.0352  136.8837  157.5050 H   0  0  0  0  0  0  0  0  0  0  0  0
  154.7468  137.9367  158.0624 H   0  0  0  0  0  0  0  0  0  0  0  0
  152.2182  140.2473  157.3814 H   0  0  0  0  0  0  0  0  0  0  0  0
  152.5739  144.1726  157.1579 H   0  0  0  0  0  0  0  0  0  0  0  0
  150.8744  144.5819  156.9458 H   0  0  0  0  0  0  0  0  0  0  0  0
  151.9763  146.0083  158.6951 H   0  0  0  0  0  0  0  0  0  0  0  0
  150.6121  145.1114  159.3329 H   0  0  0  0  0  0  0  0  0  0  0  0
  152.6837  142.7191  161.0353 H   0  0  0  0  0  0  0  0  0  0  0  0
  151.0264  143.1830  160.7052 H   0  0  0  0  0  0  0  0  0  0  0  0
  151.6207  141.2130  159.3434 H   0  0  0  0  0  0  0  0  0  0  0  0
  153.0393  142.0148  158.6958 H   0  0  0  0  0  0  0  0  0  0  0  0
  148.8974  141.9858  154.2634 H   0  0  0  0  0  0  0  0  0  0  0  0
  149.5593  143.2639  156.1084 H   0  0  0  0  0  0  0  0  0  0  0  0
  1  2  2  0  0  0  0
  1 20  1  0  0  0  0
  1 21  1  0  0  0  0
  2  3  1  0  0  0  0
  2 22  1  0  0  0  0
  3  4  1  0  0  0  0
  3 23  1  0  0  0  0
  3 24  1  0  0  0  0
  4  5  1  0  0  0  0
  4  8  1  0  0  0  0
  5  6  1  0  0  0  0
  5 25  1  0  0  0  0
  5 26  1  0  0  0  0
  6  7  1  0  0  0  0
  6 27  1  0  0  0  0
  6 28  1  0  0  0  0
  7 29  1  0  0  0  0
  8 19  1  0  0  0  0
  8  9  2  0  0  0  0
  9 10  1  0  0  0  0
  9 30  1  0  0  0  0
 10 11  1  0  0  0  0
 10 17  2  0  0  0  0
 11 16  1  0  0  0  0
 11 12  1  0  0  0  0
 12 13  1  0  0  0  0
 12 31  1  0  0  0  0
 12 32  1  0  0  0  0
 13 14  1  0  0  0  0
 13 33  1  0  0  0  0
 13 34  1  0  0  0  0
 14 15  1  0  0  0  0
 15 16  1  0  0  0  0
 15 35  1  0  0  0  0
 15 36  1  0  0  0  0
 16 37  1  0  0  0  0
 16 38  1  0  0  0  0
 17 18  1  0  0  0  0
 17 40  1  0  0  0  0
 18 19  2  0  0  0  0
 18 39  1  0  0  0  0
M  CHG  1  17   1
M  END
> <s_m_source_file>
AV-unprocessed.smi

> <i_m_source_file_index>
2587

> <i_lp_mmshare_version>
43012

> <i_f3d_flags>
0

> <s_epik_input>
W0NIMl09W0NIXVtDSDJdTihbQ0gyXVtDSDJdW09IXSljMVtjSF1jKG5bY0hdbjEpTjJbQ0gyXVtDSDJdT1tDSDJdW0NIMl0y

> <s_epik_cmdline>
J2VwaWtfcHl0aG9uJywgJy1waCcsICc3LjAnLCAnLXRuJywgJzgnLCAnLW1hJywgJzIwMCcsICctbWV0YWxfYmluZGluZycsICctaW1hZScsICc8aW5maWxlLm1hZT4nLCAnLW9tYWUnLCAnPG91dGZpbGUubWFlPic=

> <r_lp_tautomer_probability>
0.999336

> <r_epik_Ionization_Penalty>
3.67622

> <r_epik_Ionization_Penalty_Charging>
3.67622

> <r_epik_Ionization_Penalty_Neutral>
1.25637e-07

> <r_epik_State_Penalty>
2.4309

> <r_epik_Charging_Adjusted_Penalty>
6.10712

> <i_epik_Tot_Q>
1

> <i_epik_Tot_abs_Q>
1

> <r_epik_Metal_State_Penalty>
2.43203

> <b_epik_Metal_Only>
0

> <s_lp_Force_Field>
OPLS_2005

> <r_lp_Energy>
13.6673

> <b_lp_Chiralities_Consistent>
1

> <s_lp_Variant>
AV-unprocessed.smi:2587-2

> <Gold.Version>
5.8.1

> <Gold.Id.Protein>
6NUR|6NUR_protein|mol2

> <Gold.PLP.Fitness>
48.5863

> <Gold.PLP.PLP>
-40.1557

> <Gold.PLP.part.hbond>
-3.0000

> <Gold.PLP.part.metal>
0.0000

> <Gold.PLP.part.buried>
-4.4122

> <Gold.PLP.part.nonpolar>
-34.6338

> <Gold.PLP.part.repulsive>
0.3266

> <Gold.PLP.ligand.clash>
0.0000

> <Gold.PLP.ligand.torsion>
1.2619

> <Gold.PLP.Chemscore.Hbond>
3.4275

> <Gold.PLP.Chemscore.CHOScore>
0.0000

> <Gold.PLP.Chemscore.Metal>
0.0000

> <Gold.Chemscore.Hbonds>
donor molecule, donor type, donor heavy atom, donor atom, acceptor molecule, acceptor atom, score
      L1  H    17    40       P1  8028  2.00
      P1  H  7989  7998       L1    19  0.43
      P1  H  7997  8009       L1     7  1.00

> <Gold.PLP.Chemscore.Internal.Correction>
0.6718

> <Gold.Rescore>
     Score         DG    S(hbond)    S(metal)    S(lipo)     H(rot)  DE(clash)    DE(int)     intcor
     13.77     -14.86       1.93        0.00      81.12       2.57       0.02       1.07       ----

> <Gold.Chemscore.Fitness>
13.7722

> <Gold.Chemscore.DG>
-14.8604

> <Gold.Chemscore.ZeroCoef>
-5.4800

> <Gold.Chemscore.Hbond>
1.9331

> <Gold.Chemscore.Metal>
0.0000

> <Gold.Chemscore.Lipo>
81.1211

> <Gold.Chemscore.Internal_Hbond>
0.0000

> <Gold.Chemscore.DEClash>
0.0202

> <Gold.Chemscore.DEInternal>
1.0680

> <Gold.Chemscore.Rot>
2.5653

> <Gold.Chemscore.Internal.Correction>
   9.000000E+99

> <Gold.Chemscore.Hbonds>
donor molecule, donor type, donor heavy atom, donor atom, acceptor molecule, acceptor atom, score
      L1  H    17    40       P1  8028  0.99
      P1  H  7997  8009       L1     7  0.78

> <Gold.Chemscore.Hbond.Weighted>
-6.4564

> <Gold.Chemscore.Metal.Weighted>
-0.0000

> <Gold.Chemscore.Lipo.Weighted>
-9.4912

> <Gold.Chemscore.Internal_Hbond.Weighted>
0.0000

> <Gold.Chemscore.DEClash.Weighted>
0.0202

> <Gold.Chemscore.DEInternal.Weighted>
1.0680

> <Gold.Chemscore.Rot.Weighted>
6.5671

> <Gold.Chemscore.Internal.Correction.Weighted>
   9.000000E+99

> <Gold.Protein.RotatedTorsions>
[ 6907 6896 6895 6894 ] final  166.91 input  -60.11 | X-H torsion
[ 7974 7965 7964 7962 ] final -112.23 input  175.53 | X-H torsion
[ 8008 7997 7996 7995 ] final  139.02 input   59.86 | X-H torsion
[ 10167 10162 10161 10158 ] final  141.10 input  -65.29 | X-H torsion
[ 10718 10713 10712 10709 ] final  134.16 input   66.30 | X-H torsion
[ 10763 10752 10751 10750 ] final -127.96 input  -60.55 | X-H torsion
[ 11005 11000 10999 10996 ] final   51.40 input  -57.11 | X-H torsion

> <Gold.Protein.ActiveResidues>
 VAL166  LYS551  ARG553  GLY616  TRP617  ASP618  TYR619  PRO620  LYS621  CYS622 
 ASP623  PHE694  ASN695  SER759  ASP760  ASP761  ALA762  ILE779  LEU786  VAL792 
 PHE793  MET794  SER795  GLU796  ALA797  LYS798  CYS799  TRP800  GLU811  SER814 

> <Gold.Protein.RotatedAtoms>
  151.8715  133.3476  159.3736 H   0  0  0  0  0  0  0  0  0  0  0  0  # atno 6907 bound_to 6896
  150.7151  134.5108  159.5615 H   0  0  0  0  0  0  0  0  0  0  0  0  # atno 6908 bound_to 6896
  152.2641  134.8003  160.0476 H   0  0  0  0  0  0  0  0  0  0  0  0  # atno 6909 bound_to 6896
  145.1465  140.8806  143.3671 H   0  0  0  0  0  0  0  0  0  0  0  0  # atno 7974 bound_to 7965
  156.2993  140.2378  156.4169 H   0  0  0  0  0  0  0  0  0  0  0  0  # atno 8008 bound_to 7997
  154.8390  140.0429  157.1549 H   0  0  0  0  0  0  0  0  0  0  0  0  # atno 8009 bound_to 7997
  154.9123  140.2992  155.5263 H   0  0  0  0  0  0  0  0  0  0  0  0  # atno 8010 bound_to 7997
  139.5030  144.6193  151.6090 H   0  0  0  0  0  0  0  0  0  0  0  0  # atno 10167 bound_to 10162
  157.4701  131.1079  150.9814 H   0  0  0  0  0  0  0  0  0  0  0  0  # atno 10718 bound_to 10713
  154.8754  135.3944  154.3679 H   0  0  0  0  0  0  0  0  0  0  0  0  # atno 10763 bound_to 10752
  153.4442  135.7027  153.6155 H   0  0  0  0  0  0  0  0  0  0  0  0  # atno 10764 bound_to 10752
  153.4722  135.3788  155.2366 H   0  0  0  0  0  0  0  0  0  0  0  0  # atno 10765 bound_to 10752
  140.0936  134.5176  155.8828 H   0  0  0  0  0  0  0  0  0  0  0  0  # atno 11005 bound_to 11000
  145.0476  139.3208  143.5945 LP  0  0  0  0  0  0  0  0  0  0  0  0  # atno 17320 bound_to 7965
  146.3499  139.9873  142.8689 LP  0  0  0  0  0  0  0  0  0  0  0  0  # atno 17321 bound_to 7965
  140.5890  143.9813  150.6313 LP  0  0  0  0  0  0  0  0  0  0  0  0  # atno 17342 bound_to 10162
  140.2988  143.3275  152.0992 LP  0  0  0  0  0  0  0  0  0  0  0  0  # atno 17343 bound_to 10162
  157.0582  130.5814  149.5381 LP  0  0  0  0  0  0  0  0  0  0  0  0  # atno 17370 bound_to 10713
  156.0069  130.5156  150.7860 LP  0  0  0  0  0  0  0  0  0  0  0  0  # atno 17371 bound_to 10713
  141.2085  133.6674  156.6377 LP  0  0  0  0  0  0  0  0  0  0  0  0  # atno 17394 bound_to 11000
  140.3318  134.7923  157.4331 LP  0  0  0  0  0  0  0  0  0  0  0  0  # atno 17395 bound_to 11000

$$$$
