AV-unprocessed.smi:283|AV-procd|sdf|2140|dock3
  -GOLD-   2262021463D 1   1.00000     0.00000
 Structure written by MMmdl.
 48 51  0  0  0  0  0  0  0  0  1 V2000
  149.6968  141.4386  157.3167 C   0  0  0  0  0  0  0  0  0  0  0  0
  151.0375  141.2928  158.0490 C   0  0  1  0  0  0  0  0  0  0  0  0
  152.0714  140.8710  157.1059 N   0  0  0  0  0  0  0  0  0  0  0  0
  152.0253  139.6542  156.5192 C   0  0  0  0  0  0  0  0  0  0  0  0
  152.6130  139.5696  155.3021 N   0  0  0  0  0  0  0  0  0  0  0  0
  152.6492  138.4021  154.6546 C   0  0  0  0  0  0  0  0  0  0  0  0
  152.1643  137.2208  155.0392 N   0  0  0  0  0  0  0  0  0  0  0  0
  151.5527  137.2997  156.2568 C   0  0  0  0  0  0  0  0  0  0  0  0
  151.4341  138.4725  157.0565 C   0  0  0  0  0  0  0  0  0  0  0  0
  150.7372  138.1644  158.2196 N   0  0  0  0  0  0  0  0  0  0  0  0
  150.4845  136.8885  158.1206 C   0  0  0  0  0  0  0  0  0  0  0  0
  150.9463  136.2865  156.9736 N   0  0  0  0  0  0  0  0  0  0  0  0
  150.8233  134.8445  156.5923 C   0  0  1  0  0  0  0  0  0  0  0  0
  150.0811  134.1730  157.5571 O   0  0  0  0  0  0  0  0  0  0  0  0
  149.4086  133.0716  156.9553 C   0  0  1  0  0  0  0  0  0  0  0  0
  147.9804  132.9873  157.5247 C   0  0  0  0  0  0  0  0  0  0  0  0
  147.2515  131.9128  156.9684 O   0  0  0  0  0  0  0  0  0  0  0  0
  149.5145  133.2450  155.4249 C   0  0  2  0  0  0  0  0  0  0  0  0
  150.4040  132.2756  154.9034 O   0  0  0  0  0  0  0  0  0  0  0  0
  150.1106  134.6360  155.2485 C   0  0  1  0  0  0  0  0  0  0  0  0
  149.1014  135.5946  154.9886 O   0  0  0  0  0  0  0  0  0  0  0  0
  151.3598  142.5724  158.8273 C   0  0  0  0  0  0  0  0  0  0  0  0
  150.5539  143.7232  158.6604 C   0  0  0  0  0  0  0  0  0  0  0  0
  150.8407  144.9093  159.3614 C   0  0  0  0  0  0  0  0  0  0  0  0
  151.9320  144.9556  160.2471 C   0  0  0  0  0  0  0  0  0  0  0  0
  152.7305  143.8125  160.4345 C   0  0  0  0  0  0  0  0  0  0  0  0
  152.4489  142.6226  159.7338 C   0  0  0  0  0  0  0  0  0  0  0  0
  153.4573  141.2462  160.0141 Cl  0  0  0  0  0  0  0  0  0  0  0  0
  151.8442  134.4596  156.5896 H   0  0  0  0  0  0  0  0  0  0  0  0
  149.9436  132.1732  157.2686 H   0  0  0  0  0  0  0  0  0  0  0  0
  148.5585  133.1325  154.9118 H   0  0  0  0  0  0  0  0  0  0  0  0
  150.8380  134.6879  154.4371 H   0  0  0  0  0  0  0  0  0  0  0  0
  148.8915  141.6685  158.0150 H   0  0  0  0  0  0  0  0  0  0  0  0
  149.4281  140.5170  156.7992 H   0  0  0  0  0  0  0  0  0  0  0  0
  149.7332  142.2391  156.5769 H   0  0  0  0  0  0  0  0  0  0  0  0
  150.9219  140.4698  158.7521 H   0  0  0  0  0  0  0  0  0  0  0  0
  152.9287  141.4016  157.1582 H   0  0  0  0  0  0  0  0  0  0  0  0
  153.1406  138.4144  153.6930 H   0  0  0  0  0  0  0  0  0  0  0  0
  149.9561  136.3464  158.8913 H   0  0  0  0  0  0  0  0  0  0  0  0
  148.0228  132.8363  158.6037 H   0  0  0  0  0  0  0  0  0  0  0  0
  147.4430  133.9203  157.3532 H   0  0  0  0  0  0  0  0  0  0  0  0
  146.3288  132.1089  157.0396 H   0  0  0  0  0  0  0  0  0  0  0  0
  150.3062  131.4796  155.4035 H   0  0  0  0  0  0  0  0  0  0  0  0
  149.0774  135.7582  154.0581 H   0  0  0  0  0  0  0  0  0  0  0  0
  149.7094  143.7052  157.9872 H   0  0  0  0  0  0  0  0  0  0  0  0
  150.2221  145.7831  159.2193 H   0  0  0  0  0  0  0  0  0  0  0  0
  152.1534  145.8647  160.7863 H   0  0  0  0  0  0  0  0  0  0  0  0
  153.5629  143.8492  161.1216 H   0  0  0  0  0  0  0  0  0  0  0  0
  1  2  1  0  0  0  0
  1 33  1  0  0  0  0
  1 34  1  0  0  0  0
  1 35  1  0  0  0  0
  2  3  1  0  0  0  0
  2 22  1  0  0  0  0
  2 36  1  0  0  0  0
  3  4  1  0  0  0  0
  3 37  1  0  0  0  0
  4  9  1  0  0  0  0
  4  5  2  0  0  0  0
  5  6  1  0  0  0  0
  6  7  2  0  0  0  0
  6 38  1  0  0  0  0
  7  8  1  0  0  0  0
  8 12  1  0  0  0  0
  8  9  2  0  0  0  0
  9 10  1  0  0  0  0
 10 11  2  0  0  0  0
 11 12  1  0  0  0  0
 11 39  1  0  0  0  0
 12 13  1  0  0  0  0
 13 29  1  0  0  0  0
 13 20  1  0  0  0  0
 13 14  1  0  0  0  0
 14 15  1  0  0  0  0
 15 30  1  0  0  0  0
 15 16  1  0  0  0  0
 15 18  1  0  0  0  0
 16 17  1  0  0  0  0
 16 40  1  0  0  0  0
 16 41  1  0  0  0  0
 17 42  1  0  0  0  0
 18 31  1  0  0  0  0
 18 19  1  0  0  0  0
 18 20  1  0  0  0  0
 19 43  1  0  0  0  0
 20 32  1  0  0  0  0
 20 21  1  0  0  0  0
 21 44  1  0  0  0  0
 22 27  1  0  0  0  0
 22 23  2  0  0  0  0
 23 24  1  0  0  0  0
 23 45  1  0  0  0  0
 24 25  2  0  0  0  0
 24 46  1  0  0  0  0
 25 26  1  0  0  0  0
 25 47  1  0  0  0  0
 26 27  2  0  0  0  0
 26 48  1  0  0  0  0
 27 28  1  0  0  0  0
M  END
> <s_m_source_file>
AV-unprocessed.smi

> <i_m_source_file_index>
283

> <i_lp_mmshare_version>
43012

> <i_f3d_flags>
0

> <s_epik_input>
Q2xjMVtjSF1bY0hdW2NIXVtjSF1jMVtDQEhdKFtDSDNdKVtOSF1jKG5bY0hdbjIpYyhjMjMpbltjSF1uM1tDQEBIXTRPW0NASF0oW0NIMl1bT0hdKVtDQEBIXShbT0hdKVtDQEhdNFtPSF0=

> <s_epik_cmdline>
J2VwaWtfcHl0aG9uJywgJy1waCcsICc3LjAnLCAnLXRuJywgJzgnLCAnLW1hJywgJzIwMCcsICctbWV0YWxfYmluZGluZycsICctaW1hZScsICc8aW5maWxlLm1hZT4nLCAnLW9tYWUnLCAnPG91dGZpbGUubWFlPic=

> <r_lp_tautomer_probability>
1

> <r_epik_Ionization_Penalty>
0.000266407

> <r_epik_Ionization_Penalty_Charging>
0

> <r_epik_Ionization_Penalty_Neutral>
0.000266407

> <r_epik_State_Penalty>
-0

> <r_epik_Charging_Adjusted_Penalty>
0

> <i_epik_Tot_Q>
0

> <i_epik_Tot_abs_Q>
0

> <r_epik_Metal_State_Penalty>
-0

> <b_epik_Metal_Only>
0

> <s_epik_Chemistry_Notes>
This compound contains an acetal/aminal-like group ( X-CH(R)-Y where X, Y are N, S, or O) that may be acid/base labile, releasing an aldehyde.

> <s_lp_Force_Field>
OPLS_2005

> <r_lp_Energy>
47.3301

> <b_lp_Chiralities_Consistent>
1

> <s_lp_Variant>
AV-unprocessed.smi:283-16

> <Gold.Version>
5.8.1

> <Gold.Id.Protein>
6NUR|6NUR_protein|mol2

> <Gold.PLP.Fitness>
54.0461

> <Gold.PLP.PLP>
-43.5994

> <Gold.PLP.part.hbond>
-4.4322

> <Gold.PLP.part.metal>
0.0000

> <Gold.PLP.part.buried>
-5.6810

> <Gold.PLP.part.nonpolar>
-34.4552

> <Gold.PLP.part.repulsive>
0.2060

> <Gold.PLP.ligand.clash>
0.0000

> <Gold.PLP.ligand.torsion>
0.3457

> <Gold.PLP.Chemscore.Hbond>
3.6896

> <Gold.PLP.Chemscore.CHOScore>
0.0000

> <Gold.PLP.Chemscore.Metal>
0.0000

> <Gold.Chemscore.Hbonds>
donor molecule, donor type, donor heavy atom, donor atom, acceptor molecule, acceptor atom, score
      L1  H    21    44       P1  7948  0.50
      P1  H  6896  6909       L1    14  0.90
      P1  H  7989  7998       L1     5  0.04
      P1  H  7997  8008       L1     5  0.84
      P1  H 10752 10764       L1     7  0.82

> <Gold.PLP.Chemscore.Internal.Correction>
0.0694

> <Gold.Rescore>
     Score         DG    S(hbond)    S(metal)    S(lipo)     H(rot)  DE(clash)    DE(int)     intcor
     15.46     -15.81       2.69        0.00     101.24       4.10       0.06       0.29       ----

> <Gold.Chemscore.Fitness>
15.4603

> <Gold.Chemscore.DG>
-15.8103

> <Gold.Chemscore.ZeroCoef>
-5.4800

> <Gold.Chemscore.Hbond>
2.6866

> <Gold.Chemscore.Metal>
0.0000

> <Gold.Chemscore.Lipo>
101.2393

> <Gold.Chemscore.Internal_Hbond>
0.0000

> <Gold.Chemscore.DEClash>
0.0626

> <Gold.Chemscore.DEInternal>
0.2875

> <Gold.Chemscore.Rot>
4.0968

> <Gold.Chemscore.Internal.Correction>
   9.000000E+99

> <Gold.Chemscore.Hbonds>
donor molecule, donor type, donor heavy atom, donor atom, acceptor molecule, acceptor atom, score
      L1  H    21    44       P1  7948  0.44
      P1  H  6896  6909       L1    14  0.84
      P1  H  7989  7998       L1     5  0.01
      P1  H  7997  8008       L1     5  0.19
      P1  H 10752 10764       L1     7  0.78

> <Gold.Chemscore.Hbond.Weighted>
-8.9733

> <Gold.Chemscore.Metal.Weighted>
-0.0000

> <Gold.Chemscore.Lipo.Weighted>
-11.8450

> <Gold.Chemscore.Internal_Hbond.Weighted>
0.0000

> <Gold.Chemscore.DEClash.Weighted>
0.0626

> <Gold.Chemscore.DEInternal.Weighted>
0.2875

> <Gold.Chemscore.Rot.Weighted>
10.4879

> <Gold.Chemscore.Internal.Correction.Weighted>
   9.000000E+99

> <Gold.Protein.RotatedTorsions>
[ 6907 6896 6895 6894 ] final   12.17 input  -60.11 | X-H torsion
[ 7974 7965 7964 7962 ] final   17.95 input  175.53 | X-H torsion
[ 8008 7997 7996 7995 ] final   -4.80 input   59.86 | X-H torsion
[ 10167 10162 10161 10158 ] final  -21.74 input  -65.29 | X-H torsion
[ 10718 10713 10712 10709 ] final -144.92 input   66.30 | X-H torsion
[ 10763 10752 10751 10750 ] final  -62.34 input  -60.55 | X-H torsion
[ 11005 11000 10999 10996 ] final   42.45 input  -57.11 | X-H torsion

> <Gold.Protein.ActiveResidues>
 VAL166  LYS551  ARG553  GLY616  TRP617  ASP618  TYR619  PRO620  LYS621  CYS622 
 ASP623  PHE694  ASN695  SER759  ASP760  ASP761  ALA762  ILE779  LEU786  VAL792 
 PHE793  MET794  SER795  GLU796  ALA797  LYS798  CYS799  TRP800  GLU811  SER814 

> <Gold.Protein.RotatedAtoms>
  151.7660  135.0798  160.0352 H   0  0  0  0  0  0  0  0  0  0  0  0  # atno 6907 bound_to 6896
  152.3321  133.5966  159.5825 H   0  0  0  0  0  0  0  0  0  0  0  0  # atno 6908 bound_to 6896
  150.7429  133.9768  159.3605 H   0  0  0  0  0  0  0  0  0  0  0  0  # atno 6909 bound_to 6896
  146.2201  139.8528  142.8619 H   0  0  0  0  0  0  0  0  0  0  0  0  # atno 7974 bound_to 7965
  154.6105  140.2475  155.7675 H   0  0  0  0  0  0  0  0  0  0  0  0  # atno 8008 bound_to 7997
  156.2368  140.2947  156.0284 H   0  0  0  0  0  0  0  0  0  0  0  0  # atno 8009 bound_to 7997
  155.2060  140.0396  157.2916 H   0  0  0  0  0  0  0  0  0  0  0  0  # atno 8010 bound_to 7997
  140.7283  143.4600  151.0393 H   0  0  0  0  0  0  0  0  0  0  0  0  # atno 10167 bound_to 10162
  156.3760  130.7812  151.1999 H   0  0  0  0  0  0  0  0  0  0  0  0  # atno 10718 bound_to 10713
  154.2984  135.6239  153.5414 H   0  0  0  0  0  0  0  0  0  0  0  0  # atno 10763 bound_to 10752
  152.9843  135.5672  154.5311 H   0  0  0  0  0  0  0  0  0  0  0  0  # atno 10764 bound_to 10752
  154.4936  135.2868  155.1453 H   0  0  0  0  0  0  0  0  0  0  0  0  # atno 10765 bound_to 10752
  140.1738  134.4189  155.8241 H   0  0  0  0  0  0  0  0  0  0  0  0  # atno 11005 bound_to 11000
  145.2784  141.0131  143.3732 LP  0  0  0  0  0  0  0  0  0  0  0  0  # atno 17320 bound_to 7965
  144.9169  139.4459  143.6560 LP  0  0  0  0  0  0  0  0  0  0  0  0  # atno 17321 bound_to 7965
  139.8284  143.7725  152.3179 LP  0  0  0  0  0  0  0  0  0  0  0  0  # atno 17342 bound_to 10162
  139.7832  144.7437  151.0059 LP  0  0  0  0  0  0  0  0  0  0  0  0  # atno 17343 bound_to 10162
  157.7488  131.0358  150.4380 LP  0  0  0  0  0  0  0  0  0  0  0  0  # atno 17370 bound_to 10713
  156.4616  130.4033  149.6573 LP  0  0  0  0  0  0  0  0  0  0  0  0  # atno 17371 bound_to 10713
  141.2219  133.6968  156.7810 LP  0  0  0  0  0  0  0  0  0  0  0  0  # atno 17394 bound_to 11000
  140.2346  134.8660  157.3512 LP  0  0  0  0  0  0  0  0  0  0  0  0  # atno 17395 bound_to 11000

$$$$
