AV-unprocessed.smi:3075|AV-procd|sdf|11724|dock6
  -GOLD-   2272017123D 1   1.00000     0.00000
 Structure written by MMmdl.
 29 30  0  0  0  0  0  0  0  0  1 V2000
  153.6368  142.2234  161.8223 N   0  0  0  0  0  0  0  0  0  0  0  0
  153.2107  141.6380  160.5662 C   0  0  0  0  0  0  0  0  0  0  0  0
  152.5476  142.6492  159.6426 C   0  0  0  0  0  0  0  0  0  0  0  0
  152.4914  144.0020  160.0401 C   0  0  0  0  0  0  0  0  0  0  0  0
  151.8608  144.9404  159.2037 C   0  0  0  0  0  0  0  0  0  0  0  0
  151.3043  144.4853  157.9950 C   0  0  0  0  0  0  0  0  0  0  0  0
  151.3509  143.1965  157.5997 N   0  0  0  0  0  0  0  0  0  0  0  0
  151.9611  142.2869  158.3994 C   0  0  0  0  0  0  0  0  0  0  0  0
  152.0167  140.9576  157.9403 N   0  0  0  0  0  0  0  0  0  0  0  0
  151.4586  139.9324  158.8168 C   0  0  0  0  0  0  0  0  0  0  0  0
  151.7808  138.5359  158.2584 C   0  0  0  0  0  0  0  0  0  0  0  0
  151.2907  138.4315  156.9243 O   0  0  0  0  0  0  0  0  0  0  0  0
  151.8912  139.3887  156.0563 C   0  0  0  0  0  0  0  0  0  0  0  0
  151.5819  140.8101  156.5570 C   0  0  0  0  0  0  0  0  0  0  0  0
  154.5530  142.6324  161.7059 H   0  0  0  0  0  0  0  0  0  0  0  0
  153.0206  142.9876  162.0597 H   0  0  0  0  0  0  0  0  0  0  0  0
  154.0624  141.1563  160.0866 H   0  0  0  0  0  0  0  0  0  0  0  0
  152.4945  140.8449  160.7832 H   0  0  0  0  0  0  0  0  0  0  0  0
  152.9248  144.3169  160.9781 H   0  0  0  0  0  0  0  0  0  0  0  0
  151.8028  145.9819  159.4831 H   0  0  0  0  0  0  0  0  0  0  0  0
  150.8102  145.1745  157.3263 H   0  0  0  0  0  0  0  0  0  0  0  0
  151.8698  140.0396  159.8213 H   0  0  0  0  0  0  0  0  0  0  0  0
  150.3772  140.0562  158.8915 H   0  0  0  0  0  0  0  0  0  0  0  0
  152.8554  138.3467  158.2786 H   0  0  0  0  0  0  0  0  0  0  0  0
  151.3097  137.7675  158.8716 H   0  0  0  0  0  0  0  0  0  0  0  0
  152.9685  139.2218  156.0037 H   0  0  0  0  0  0  0  0  0  0  0  0
  151.4979  139.2514  155.0489 H   0  0  0  0  0  0  0  0  0  0  0  0
  150.5097  141.0022  156.4972 H   0  0  0  0  0  0  0  0  0  0  0  0
  152.0723  141.5440  155.9182 H   0  0  0  0  0  0  0  0  0  0  0  0
  1  2  1  0  0  0  0
  1 15  1  0  0  0  0
  1 16  1  0  0  0  0
  2  3  1  0  0  0  0
  2 17  1  0  0  0  0
  2 18  1  0  0  0  0
  3  8  1  0  0  0  0
  3  4  2  0  0  0  0
  4  5  1  0  0  0  0
  4 19  1  0  0  0  0
  5  6  2  0  0  0  0
  5 20  1  0  0  0  0
  6  7  1  0  0  0  0
  6 21  1  0  0  0  0
  7  8  2  0  0  0  0
  8  9  1  0  0  0  0
  9 14  1  0  0  0  0
  9 10  1  0  0  0  0
 10 11  1  0  0  0  0
 10 22  1  0  0  0  0
 10 23  1  0  0  0  0
 11 12  1  0  0  0  0
 11 24  1  0  0  0  0
 11 25  1  0  0  0  0
 12 13  1  0  0  0  0
 13 14  1  0  0  0  0
 13 26  1  0  0  0  0
 13 27  1  0  0  0  0
 14 28  1  0  0  0  0
 14 29  1  0  0  0  0
M  END
> <s_m_source_file>
AV-unprocessed.smi

> <i_m_source_file_index>
3075

> <i_lp_mmshare_version>
43012

> <i_f3d_flags>
0

> <s_epik_input>
W05IMl1bQ0gyXWMxW2NIXVtjSF1bY0hdbmMxTjJbQ0gyXVtDSDJdT1tDSDJdW0NIMl0y

> <s_epik_cmdline>
J2VwaWtfcHl0aG9uJywgJy1waCcsICc3LjAnLCAnLXRuJywgJzgnLCAnLW1hJywgJzIwMCcsICctbWV0YWxfYmluZGluZycsICctaW1hZScsICc8aW5maWxlLm1hZT4nLCAnLW9tYWUnLCAnPG91dGZpbGUubWFlPic=

> <r_lp_tautomer_probability>
1

> <r_epik_Ionization_Penalty>
1.38161

> <r_epik_Ionization_Penalty_Charging>
0

> <r_epik_Ionization_Penalty_Neutral>
1.38161

> <r_epik_State_Penalty>
1.45585

> <r_epik_Charging_Adjusted_Penalty>
1.45585

> <i_epik_Tot_Q>
0

> <i_epik_Tot_abs_Q>
0

> <r_epik_Metal_State_Penalty>
1.45048

> <b_epik_Metal_Only>
0

> <s_lp_Force_Field>
OPLS_2005

> <r_lp_Energy>
18.9945

> <b_lp_Chiralities_Consistent>
1

> <s_lp_Variant>
AV-unprocessed.smi:3075-2

> <Gold.Version>
5.8.1

> <Gold.Id.Protein>
6NUR|6NUR_protein|mol2

> <Gold.PLP.Fitness>
33.5857

> <Gold.PLP.PLP>
-30.6571

> <Gold.PLP.part.hbond>
-0.2104

> <Gold.PLP.part.metal>
0.0000

> <Gold.PLP.part.buried>
-4.6830

> <Gold.PLP.part.nonpolar>
-26.0743

> <Gold.PLP.part.repulsive>
0.1093

> <Gold.PLP.ligand.clash>
0.0000

> <Gold.PLP.ligand.torsion>
0.1212

> <Gold.PLP.Chemscore.Hbond>
0.0000

> <Gold.PLP.Chemscore.CHOScore>
0.9979

> <Gold.PLP.Chemscore.Metal>
0.0000

> <Gold.Chemscore.Hbonds>
donor molecule, donor type, donor heavy atom, donor atom, acceptor molecule, acceptor atom, score
      L1  C     6    21       P1  8028  0.99

> <Gold.PLP.Chemscore.Internal.Correction>
0.1774

> <Gold.Rescore>
     Score         DG    S(hbond)    S(metal)    S(lipo)     H(rot)  DE(clash)    DE(int)     intcor
     11.66     -11.96       0.00        0.00      83.60       1.29       0.01       0.29       ----

> <Gold.Chemscore.Fitness>
11.6645

> <Gold.Chemscore.DG>
-11.9646

> <Gold.Chemscore.ZeroCoef>
-5.4800

> <Gold.Chemscore.Hbond>
0.0000

> <Gold.Chemscore.Metal>
0.0000

> <Gold.Chemscore.Lipo>
83.5955

> <Gold.Chemscore.Internal_Hbond>
0.0000

> <Gold.Chemscore.DEClash>
0.0112

> <Gold.Chemscore.DEInternal>
0.2889

> <Gold.Chemscore.Rot>
1.2875

> <Gold.Chemscore.Internal.Correction>
   9.000000E+99

> <Gold.Chemscore.Hbond.Weighted>
-0.0000

> <Gold.Chemscore.Metal.Weighted>
-0.0000

> <Gold.Chemscore.Lipo.Weighted>
-9.7807

> <Gold.Chemscore.Internal_Hbond.Weighted>
0.0000

> <Gold.Chemscore.DEClash.Weighted>
0.0112

> <Gold.Chemscore.DEInternal.Weighted>
0.2889

> <Gold.Chemscore.Rot.Weighted>
3.2961

> <Gold.Chemscore.Internal.Correction.Weighted>
   9.000000E+99

> <Gold.Protein.RotatedTorsions>
[ 6907 6896 6895 6894 ] final -127.59 input  -60.11 | X-H torsion
[ 7974 7965 7964 7962 ] final -145.89 input  175.53 | X-H torsion
[ 8008 7997 7996 7995 ] final -146.81 input   59.86 | X-H torsion
[ 10167 10162 10161 10158 ] final -176.88 input  -65.29 | X-H torsion
[ 10718 10713 10712 10709 ] final -155.33 input   66.30 | X-H torsion
[ 10763 10752 10751 10750 ] final  105.49 input  -60.55 | X-H torsion
[ 11005 11000 10999 10996 ] final  119.65 input  -57.11 | X-H torsion

> <Gold.Protein.ActiveResidues>
 VAL166  LYS551  ARG553  GLY616  TRP617  ASP618  TYR619  PRO620  LYS621  CYS622 
 ASP623  PHE694  ASN695  SER759  ASP760  ASP761  ALA762  ILE779  LEU786  VAL792 
 PHE793  MET794  SER795  GLU796  ALA797  LYS798  CYS799  TRP800  GLU811  SER814 

> <Gold.Protein.RotatedAtoms>
  150.9089  133.7022  159.2859 H   0  0  0  0  0  0  0  0  0  0  0  0  # atno 6907 bound_to 6896
  151.4516  135.1029  159.9709 H   0  0  0  0  0  0  0  0  0  0  0  0  # atno 6908 bound_to 6896
  152.4919  133.8474  159.7239 H   0  0  0  0  0  0  0  0  0  0  0  0  # atno 6909 bound_to 6896
  144.8197  140.5526  143.5587 H   0  0  0  0  0  0  0  0  0  0  0  0  # atno 7974 bound_to 7965
  155.5655  140.0629  157.2819 H   0  0  0  0  0  0  0  0  0  0  0  0  # atno 8008 bound_to 7997
  154.4377  140.1878  156.0871 H   0  0  0  0  0  0  0  0  0  0  0  0  # atno 8009 bound_to 7997
  156.0415  140.3295  155.7253 H   0  0  0  0  0  0  0  0  0  0  0  0  # atno 8010 bound_to 7997
  139.5507  144.2116  152.1072 H   0  0  0  0  0  0  0  0  0  0  0  0  # atno 10167 bound_to 10162
  156.5113  130.8436  151.2647 H   0  0  0  0  0  0  0  0  0  0  0  0  # atno 10718 bound_to 10713
  153.3801  135.3908  155.1850 H   0  0  0  0  0  0  0  0  0  0  0  0  # atno 10763 bound_to 10752
  154.8706  135.3723  154.4868 H   0  0  0  0  0  0  0  0  0  0  0  0  # atno 10764 bound_to 10752
  153.5344  135.7085  153.5728 H   0  0  0  0  0  0  0  0  0  0  0  0  # atno 10765 bound_to 10752
  139.9154  134.9630  156.7687 H   0  0  0  0  0  0  0  0  0  0  0  0  # atno 11005 bound_to 11000
  145.5134  139.1478  143.3592 LP  0  0  0  0  0  0  0  0  0  0  0  0  # atno 17320 bound_to 7965
  146.2502  140.5274  142.8897 LP  0  0  0  0  0  0  0  0  0  0  0  0  # atno 17321 bound_to 7965
  140.1611  144.5025  150.6632 LP  0  0  0  0  0  0  0  0  0  0  0  0  # atno 17342 bound_to 10162
  140.6769  143.2309  151.5484 LP  0  0  0  0  0  0  0  0  0  0  0  0  # atno 17343 bound_to 10162
  157.7450  130.9948  150.2722 LP  0  0  0  0  0  0  0  0  0  0  0  0  # atno 17370 bound_to 10713
  156.3237  130.3790  149.7552 LP  0  0  0  0  0  0  0  0  0  0  0  0  # atno 17371 bound_to 10713
  140.6639  133.9620  155.7819 LP  0  0  0  0  0  0  0  0  0  0  0  0  # atno 17394 bound_to 11000
  141.0624  134.0326  157.3639 LP  0  0  0  0  0  0  0  0  0  0  0  0  # atno 17395 bound_to 11000

$$$$
