AV-unprocessed.smi:2828|AV-procd|sdf|10897|dock8
  -GOLD-   2272015343D 1   1.00000     0.00000
 Structure written by MMmdl.
 38 39  0  0  0  0  0  0  0  0  1 V2000
  143.8938  132.9402  151.1047 C   0  0  0  0  0  0  0  0  0  0  0  0
  145.4147  133.0351  150.9811 C   0  0  0  0  0  0  0  0  0  0  0  0
  145.8412  132.2240  149.7647 C   0  0  0  0  0  0  0  0  0  0  0  0
  146.2086  134.2986  151.3114 C   0  0  0  0  0  0  0  0  0  0  0  0
  145.4880  135.5362  151.7398 C   0  0  0  0  0  0  0  0  0  0  0  0
  144.2601  135.6054  151.7933 O   0  0  0  0  0  0  0  0  0  0  0  0
  146.2927  136.5812  151.9870 N   0  0  0  0  0  0  0  0  0  0  0  0
  145.8413  137.9071  152.3923 C   0  0  0  0  0  0  0  0  0  0  0  0
  146.8038  139.0053  151.9129 C   0  0  0  0  0  0  0  0  0  0  0  0
  147.5879  139.6032  153.0325 C   0  0  0  0  0  0  0  0  0  0  0  0
  147.5887  140.8755  153.4233 N   0  0  0  0  0  0  0  0  0  0  0  0
  148.4245  140.8179  154.4944 C   0  0  0  0  0  0  0  0  0  0  0  0
  148.7383  141.9699  155.2342 N   0  0  0  0  0  0  0  0  0  0  0  0
  148.9116  139.6199  154.7890 N   0  0  0  0  0  0  0  0  0  0  0  0
  148.3408  138.7906  153.8125 O   0  0  0  0  0  0  0  0  0  0  0  0
  146.2877  133.0869  152.2360 C   0  0  0  0  0  0  0  0  0  0  0  0
  145.6547  133.0696  153.6275 C   0  0  0  0  0  0  0  0  0  0  0  0
  147.6022  132.3209  152.3010 C   0  0  0  0  0  0  0  0  0  0  0  0
  143.4178  133.2889  150.1876 H   0  0  0  0  0  0  0  0  0  0  0  0
  143.4984  133.5390  151.9226 H   0  0  0  0  0  0  0  0  0  0  0  0
  143.5956  131.9050  151.2733 H   0  0  0  0  0  0  0  0  0  0  0  0
  146.8982  132.3600  149.5400 H   0  0  0  0  0  0  0  0  0  0  0  0
  145.2790  132.5349  148.8836 H   0  0  0  0  0  0  0  0  0  0  0  0
  145.6587  131.1626  149.9352 H   0  0  0  0  0  0  0  0  0  0  0  0
  147.0620  134.4928  150.6639 H   0  0  0  0  0  0  0  0  0  0  0  0
  147.2892  136.4447  151.8957 H   0  0  0  0  0  0  0  0  0  0  0  0
  144.8335  138.0901  152.0152 H   0  0  0  0  0  0  0  0  0  0  0  0
  145.7726  137.9226  153.4803 H   0  0  0  0  0  0  0  0  0  0  0  0
  147.5006  138.6007  151.1781 H   0  0  0  0  0  0  0  0  0  0  0  0
  146.2528  139.8035  151.4139 H   0  0  0  0  0  0  0  0  0  0  0  0
  148.3443  142.8638  154.9786 H   0  0  0  0  0  0  0  0  0  0  0  0
  149.3538  141.9115  156.0325 H   0  0  0  0  0  0  0  0  0  0  0  0
  146.3573  133.4529  154.3680 H   0  0  0  0  0  0  0  0  0  0  0  0
  145.3880  132.0492  153.9042 H   0  0  0  0  0  0  0  0  0  0  0  0
  144.7566  133.6811  153.6888 H   0  0  0  0  0  0  0  0  0  0  0  0
  148.2272  132.7026  153.1088 H   0  0  0  0  0  0  0  0  0  0  0  0
  148.1706  132.4193  151.3770 H   0  0  0  0  0  0  0  0  0  0  0  0
  147.4138  131.2617  152.4791 H   0  0  0  0  0  0  0  0  0  0  0  0
  1  2  1  0  0  0  0
  1 19  1  0  0  0  0
  1 20  1  0  0  0  0
  1 21  1  0  0  0  0
  2 16  1  0  0  0  0
  2  3  1  0  0  0  0
  2  4  1  0  0  0  0
  3 22  1  0  0  0  0
  3 23  1  0  0  0  0
  3 24  1  0  0  0  0
  4  5  1  0  0  0  0
  4 16  1  0  0  0  0
  4 25  1  0  0  0  0
  5  6  2  0  0  0  0
  5  7  1  0  0  0  0
  7  8  1  0  0  0  0
  7 26  1  0  0  0  0
  8  9  1  0  0  0  0
  8 27  1  0  0  0  0
  8 28  1  0  0  0  0
  9 10  1  0  0  0  0
  9 29  1  0  0  0  0
  9 30  1  0  0  0  0
 10 15  1  0  0  0  0
 10 11  2  0  0  0  0
 11 12  1  0  0  0  0
 12 13  1  0  0  0  0
 12 14  2  0  0  0  0
 13 31  1  0  0  0  0
 13 32  1  0  0  0  0
 14 15  1  0  0  0  0
 16 17  1  0  0  0  0
 16 18  1  0  0  0  0
 17 33  1  0  0  0  0
 17 34  1  0  0  0  0
 17 35  1  0  0  0  0
 18 36  1  0  0  0  0
 18 37  1  0  0  0  0
 18 38  1  0  0  0  0
M  END
> <s_m_source_file>
AV-unprocessed.smi

> <i_m_source_file_index>
2828

> <i_lp_mmshare_version>
43012

> <i_f3d_flags>
0

> <s_epik_input>
W0NIM11DMShbQ0gzXSlbQ0hdKEMxKFtDSDNdKVtDSDNdKUMoPU8pW05IXVtDSDJdW0NIMl1jMm5jKFtOSDJdKW5vMg==

> <s_epik_cmdline>
J2VwaWtfcHl0aG9uJywgJy1waCcsICc3LjAnLCAnLXRuJywgJzgnLCAnLW1hJywgJzIwMCcsICctbWV0YWxfYmluZGluZycsICctaW1hZScsICc8aW5maWxlLm1hZT4nLCAnLW9tYWUnLCAnPG91dGZpbGUubWFlPic=

> <r_lp_tautomer_probability>
1

> <r_epik_Ionization_Penalty>
9.99855e-05

> <r_epik_Ionization_Penalty_Charging>
0

> <r_epik_Ionization_Penalty_Neutral>
9.99855e-05

> <r_epik_State_Penalty>
-0

> <r_epik_Charging_Adjusted_Penalty>
0

> <i_epik_Tot_Q>
0

> <i_epik_Tot_abs_Q>
0

> <r_epik_Metal_State_Penalty>
-0

> <b_epik_Metal_Only>
0

> <s_lp_Force_Field>
OPLS_2005

> <r_lp_Energy>
20.4222

> <b_lp_Chiralities_Consistent>
1

> <s_lp_Variant>
AV-unprocessed.smi:2828-1

> <Gold.Version>
5.8.1

> <Gold.Id.Protein>
6NUR|6NUR_protein|mol2

> <Gold.PLP.Fitness>
31.3649

> <Gold.PLP.PLP>
-27.8203

> <Gold.PLP.part.hbond>
-2.0000

> <Gold.PLP.part.metal>
0.0000

> <Gold.PLP.part.buried>
-0.1318

> <Gold.PLP.part.nonpolar>
-27.7405

> <Gold.PLP.part.repulsive>
0.8750

> <Gold.PLP.ligand.clash>
0.0000

> <Gold.PLP.ligand.torsion>
0.6654

> <Gold.PLP.Chemscore.Hbond>
1.5760

> <Gold.PLP.Chemscore.CHOScore>
0.0000

> <Gold.PLP.Chemscore.Metal>
0.0000

> <Gold.Chemscore.Hbonds>
donor molecule, donor type, donor heavy atom, donor atom, acceptor molecule, acceptor atom, score
      L1  H     7    26       P1  7948  1.00
      L1  H    13    31       P1  8028  0.59

> <Gold.PLP.Chemscore.Internal.Correction>
0.1474

> <Gold.Rescore>
     Score         DG    S(hbond)    S(metal)    S(lipo)     H(rot)  DE(clash)    DE(int)     intcor
      9.89     -12.04       1.95        0.00      50.45       2.28       0.07       2.08       ----

> <Gold.Chemscore.Fitness>
9.8943

> <Gold.Chemscore.DG>
-12.0436

> <Gold.Chemscore.ZeroCoef>
-5.4800

> <Gold.Chemscore.Hbond>
1.9456

> <Gold.Chemscore.Metal>
0.0000

> <Gold.Chemscore.Lipo>
50.4472

> <Gold.Chemscore.Internal_Hbond>
0.0000

> <Gold.Chemscore.DEClash>
0.0731

> <Gold.Chemscore.DEInternal>
2.0761

> <Gold.Chemscore.Rot>
2.2801

> <Gold.Chemscore.Internal.Correction>
   9.000000E+99

> <Gold.Chemscore.Hbonds>
donor molecule, donor type, donor heavy atom, donor atom, acceptor molecule, acceptor atom, score
      L1  H     7    26       P1  7948  1.00
      L1  H    13    31       P1  8028  0.54

> <Gold.Chemscore.Hbond.Weighted>
-6.4982

> <Gold.Chemscore.Metal.Weighted>
-0.0000

> <Gold.Chemscore.Lipo.Weighted>
-5.9023

> <Gold.Chemscore.Internal_Hbond.Weighted>
0.0000

> <Gold.Chemscore.DEClash.Weighted>
0.0731

> <Gold.Chemscore.DEInternal.Weighted>
2.0761

> <Gold.Chemscore.Rot.Weighted>
5.8370

> <Gold.Chemscore.Internal.Correction.Weighted>
   9.000000E+99

> <Gold.Protein.RotatedTorsions>
[ 6907 6896 6895 6894 ] final   11.49 input  -60.11 | X-H torsion
[ 7974 7965 7964 7962 ] final -163.78 input  175.53 | X-H torsion
[ 8008 7997 7996 7995 ] final   93.63 input   59.86 | X-H torsion
[ 10167 10162 10161 10158 ] final    7.02 input  -65.29 | X-H torsion
[ 10718 10713 10712 10709 ] final  -53.13 input   66.30 | X-H torsion
[ 10763 10752 10751 10750 ] final -112.46 input  -60.55 | X-H torsion
[ 11005 11000 10999 10996 ] final  174.19 input  -57.11 | X-H torsion

> <Gold.Protein.ActiveResidues>
 VAL166  LYS551  ARG553  GLY616  TRP617  ASP618  TYR619  PRO620  LYS621  CYS622 
 ASP623  PHE694  ASN695  SER759  ASP760  ASP761  ALA762  ILE779  LEU786  VAL792 
 PHE793  MET794  SER795  GLU796  ALA797  LYS798  CYS799  TRP800  GLU811  SER814 

> <Gold.Protein.RotatedAtoms>
  151.7552  135.0823  160.0336 H   0  0  0  0  0  0  0  0  0  0  0  0  # atno 6907 bound_to 6896
  152.3390  133.6041  159.5871 H   0  0  0  0  0  0  0  0  0  0  0  0  # atno 6908 bound_to 6896
  150.7468  133.9667  159.3574 H   0  0  0  0  0  0  0  0  0  0  0  0  # atno 6909 bound_to 6896
  144.7316  140.3058  143.6196 H   0  0  0  0  0  0  0  0  0  0  0  0  # atno 7974 bound_to 7965
  156.0489  140.3310  155.7328 H   0  0  0  0  0  0  0  0  0  0  0  0  # atno 8008 bound_to 7997
  155.5632  140.0621  157.2841 H   0  0  0  0  0  0  0  0  0  0  0  0  # atno 8009 bound_to 7997
  154.4426  140.1874  156.0792 H   0  0  0  0  0  0  0  0  0  0  0  0  # atno 8010 bound_to 7997
  140.6395  143.7807  150.7408 H   0  0  0  0  0  0  0  0  0  0  0  0  # atno 10167 bound_to 10162
  156.1561  130.4150  149.9867 H   0  0  0  0  0  0  0  0  0  0  0  0  # atno 10718 bound_to 10713
  154.8350  135.4490  154.1198 H   0  0  0  0  0  0  0  0  0  0  0  0  # atno 10763 bound_to 10752
  153.2437  135.6919  153.7761 H   0  0  0  0  0  0  0  0  0  0  0  0  # atno 10764 bound_to 10752
  153.7099  135.3358  155.3220 H   0  0  0  0  0  0  0  0  0  0  0  0  # atno 10765 bound_to 10752
  140.3486  134.7214  157.4252 H   0  0  0  0  0  0  0  0  0  0  0  0  # atno 11005 bound_to 11000
  145.7715  139.1859  143.2210 LP  0  0  0  0  0  0  0  0  0  0  0  0  # atno 17320 bound_to 7965
  146.0907  140.7659  142.9596 LP  0  0  0  0  0  0  0  0  0  0  0  0  # atno 17321 bound_to 7965
  140.1435  143.4420  152.2178 LP  0  0  0  0  0  0  0  0  0  0  0  0  # atno 17342 bound_to 10162
  139.5605  144.7402  151.4170 LP  0  0  0  0  0  0  0  0  0  0  0  0  # atno 17343 bound_to 10162
  156.7710  130.9186  151.3644 LP  0  0  0  0  0  0  0  0  0  0  0  0  # atno 17370 bound_to 10713
  157.6696  130.9039  150.0010 LP  0  0  0  0  0  0  0  0  0  0  0  0  # atno 17371 bound_to 10713
  140.0721  134.5848  155.8630 LP  0  0  0  0  0  0  0  0  0  0  0  0  # atno 17394 bound_to 11000
  141.2018  133.6621  156.5972 LP  0  0  0  0  0  0  0  0  0  0  0  0  # atno 17395 bound_to 11000

$$$$
