AV-unprocessed.smi:3335|AV-procd|sdf|12846|dock2
  -GOLD-   2272019233D 1   1.00000     0.00000
 Structure written by MMmdl.
 46 47  0  0  0  0  0  0  0  0  1 V2000
  152.4445  142.9726  159.4854 C   0  0  0  0  0  0  0  0  0  0  0  0
  151.6969  142.0526  158.5640 C   0  0  0  0  0  0  0  0  0  0  0  0
  150.8134  142.4026  157.5046 C   0  0  0  0  0  0  0  0  0  0  0  0
  150.3231  141.3477  156.8759 N   0  0  0  0  0  0  0  0  0  0  0  0
  150.8660  140.2847  157.5120 N   0  0  0  0  0  0  0  0  0  0  0  0
  150.5781  138.9212  157.0717 C   0  0  1  0  0  0  0  0  0  0  0  0
  151.7982  138.2516  156.4079 C   0  0  0  0  0  0  0  0  0  0  0  0
  149.9289  138.0400  158.1736 C   0  0  2  0  0  0  0  0  0  0  0  0
  150.9509  137.4491  159.1605 C   0  0  0  0  0  0  0  0  0  0  0  0
  149.1903  136.9312  157.5720 N   0  0  0  0  0  0  0  0  0  0  0  0
  148.7656  135.8896  158.5214 C   0  0  2  0  0  0  0  0  0  0  0  0
  148.0163  134.7509  157.8039 C   0  0  0  0  0  0  0  0  0  0  0  0
  147.8653  136.4969  159.6159 C   0  0  0  0  0  0  0  0  0  0  0  0
  147.5725  137.6925  159.5523 O   0  0  0  0  0  0  0  0  0  0  0  0
  147.4129  135.7091  160.6165 N   0  0  0  0  0  0  0  0  0  0  0  0
  146.5757  136.2061  161.7074 C   0  0  0  0  0  0  0  0  0  0  0  0
  146.4842  135.0638  162.7192 C   0  0  0  0  0  0  0  0  0  0  0  0
  146.7140  133.8117  161.8855 C   0  0  0  0  0  0  0  0  0  0  0  0
  147.6512  134.2736  160.7695 C   0  0  0  0  0  0  0  0  0  0  0  0
  151.7041  140.6871  158.5319 C   0  0  0  0  0  0  0  0  0  0  0  0
  152.0797  143.9978  159.4195 H   0  0  0  0  0  0  0  0  0  0  0  0
  153.5091  142.9947  159.2524 H   0  0  0  0  0  0  0  0  0  0  0  0
  152.3486  142.6643  160.5267 H   0  0  0  0  0  0  0  0  0  0  0  0
  150.5185  143.3872  157.1731 H   0  0  0  0  0  0  0  0  0  0  0  0
  149.8319  139.0191  156.2818 H   0  0  0  0  0  0  0  0  0  0  0  0
  151.5327  137.2762  155.9999 H   0  0  0  0  0  0  0  0  0  0  0  0
  152.6157  138.0993  157.1135 H   0  0  0  0  0  0  0  0  0  0  0  0
  152.1789  138.8591  155.5865 H   0  0  0  0  0  0  0  0  0  0  0  0
  149.2548  138.6820  158.7427 H   0  0  0  0  0  0  0  0  0  0  0  0
  151.5484  138.2364  159.6206 H   0  0  0  0  0  0  0  0  0  0  0  0
  151.6354  136.7551  158.6718 H   0  0  0  0  0  0  0  0  0  0  0  0
  150.4548  136.9057  159.9649 H   0  0  0  0  0  0  0  0  0  0  0  0
  149.7027  136.5482  156.7901 H   0  0  0  0  0  0  0  0  0  0  0  0
  149.6641  135.4884  158.9890 H   0  0  0  0  0  0  0  0  0  0  0  0
  147.6524  134.0060  158.5124 H   0  0  0  0  0  0  0  0  0  0  0  0
  148.6615  134.2286  157.0978 H   0  0  0  0  0  0  0  0  0  0  0  0
  147.1555  135.1272  157.2493 H   0  0  0  0  0  0  0  0  0  0  0  0
  146.9898  137.1066  162.1641 H   0  0  0  0  0  0  0  0  0  0  0  0
  145.5875  136.4488  161.3139 H   0  0  0  0  0  0  0  0  0  0  0  0
  147.2820  135.1626  163.4565 H   0  0  0  0  0  0  0  0  0  0  0  0
  145.5344  135.0482  163.2546 H   0  0  0  0  0  0  0  0  0  0  0  0
  147.1233  132.9846  162.4663 H   0  0  0  0  0  0  0  0  0  0  0  0
  145.7674  133.4822  161.4549 H   0  0  0  0  0  0  0  0  0  0  0  0
  147.4615  133.7213  159.8484 H   0  0  0  0  0  0  0  0  0  0  0  0
  148.6911  134.1137  161.0582 H   0  0  0  0  0  0  0  0  0  0  0  0
  152.2368  139.9732  159.1430 H   0  0  0  0  0  0  0  0  0  0  0  0
  1  2  1  0  0  0  0
  1 21  1  0  0  0  0
  1 22  1  0  0  0  0
  1 23  1  0  0  0  0
  2 20  2  0  0  0  0
  2  3  1  0  0  0  0
  3  4  2  0  0  0  0
  3 24  1  0  0  0  0
  4  5  1  0  0  0  0
  5  6  1  0  0  0  0
  5 20  1  0  0  0  0
  6  7  1  0  0  0  0
  6  8  1  0  0  0  0
  6 25  1  0  0  0  0
  7 26  1  0  0  0  0
  7 27  1  0  0  0  0
  7 28  1  0  0  0  0
  8  9  1  0  0  0  0
  8 10  1  0  0  0  0
  8 29  1  0  0  0  0
  9 30  1  0  0  0  0
  9 31  1  0  0  0  0
  9 32  1  0  0  0  0
 10 11  1  0  0  0  0
 10 33  1  0  0  0  0
 11 12  1  0  0  0  0
 11 13  1  0  0  0  0
 11 34  1  0  0  0  0
 12 35  1  0  0  0  0
 12 36  1  0  0  0  0
 12 37  1  0  0  0  0
 13 14  2  0  0  0  0
 13 15  1  0  0  0  0
 15 19  1  0  0  0  0
 15 16  1  0  0  0  0
 16 17  1  0  0  0  0
 16 38  1  0  0  0  0
 16 39  1  0  0  0  0
 17 18  1  0  0  0  0
 17 40  1  0  0  0  0
 17 41  1  0  0  0  0
 18 19  1  0  0  0  0
 18 42  1  0  0  0  0
 18 43  1  0  0  0  0
 19 44  1  0  0  0  0
 19 45  1  0  0  0  0
 20 46  1  0  0  0  0
M  END
> <s_m_source_file>
AV-unprocessed.smi

> <i_m_source_file_index>
3335

> <i_lp_mmshare_version>
43012

> <i_f3d_flags>
0

> <s_epik_input>
W0NIM11jMVtjSF1ubihbY0hdMSlbQ0BIXShbQ0gzXSlbQ0BIXShbQ0gzXSlbTkhdW0NASF0oW0NIM10pQyg9TylOMltDSDJdW0NIMl1bQ0gyXVtDSDJdMg==

> <s_epik_cmdline>
J2VwaWtfcHl0aG9uJywgJy1waCcsICc3LjAnLCAnLXRuJywgJzgnLCAnLW1hJywgJzIwMCcsICctbWV0YWxfYmluZGluZycsICctaW1hZScsICc8aW5maWxlLm1hZT4nLCAnLW9tYWUnLCAnPG91dGZpbGUubWFlPic=

> <r_lp_tautomer_probability>
1

> <r_epik_Ionization_Penalty>
0.918803

> <r_epik_Ionization_Penalty_Charging>
0

> <r_epik_Ionization_Penalty_Neutral>
0.918803

> <r_epik_State_Penalty>
0.958258

> <r_epik_Charging_Adjusted_Penalty>
0.958258

> <i_epik_Tot_Q>
0

> <i_epik_Tot_abs_Q>
0

> <r_epik_Metal_State_Penalty>
0.956786

> <b_epik_Metal_Only>
0

> <s_lp_Force_Field>
OPLS_2005

> <r_lp_Energy>
40.4571

> <b_lp_Chiralities_Consistent>
1

> <s_lp_Variant>
AV-unprocessed.smi:3335-10

> <Gold.Version>
5.8.1

> <Gold.Id.Protein>
6NUR|6NUR_protein|mol2

> <Gold.PLP.Fitness>
38.6903

> <Gold.PLP.PLP>
-34.6745

> <Gold.PLP.part.hbond>
-1.8659

> <Gold.PLP.part.metal>
0.0000

> <Gold.PLP.part.buried>
-4.2396

> <Gold.PLP.part.nonpolar>
-29.2056

> <Gold.PLP.part.repulsive>
0.0662

> <Gold.PLP.ligand.clash>
0.0000

> <Gold.PLP.ligand.torsion>
0.4997

> <Gold.PLP.Chemscore.Hbond>
0.6080

> <Gold.PLP.Chemscore.CHOScore>
1.0000

> <Gold.PLP.Chemscore.Metal>
0.0000

> <Gold.Chemscore.Hbonds>
donor molecule, donor type, donor heavy atom, donor atom, acceptor molecule, acceptor atom, score
      P1  H  6934  6947       L1    14  0.66
      L1  C     3    24       P1  8028  0.87

> <Gold.PLP.Chemscore.Internal.Correction>
0.1911

> <Gold.Rescore>
     Score         DG    S(hbond)    S(metal)    S(lipo)     H(rot)  DE(clash)    DE(int)     intcor
     14.29     -14.93       0.82        0.00      92.74       1.62       0.02       0.62       ----

> <Gold.Chemscore.Fitness>
14.2869

> <Gold.Chemscore.DG>
-14.9284

> <Gold.Chemscore.ZeroCoef>
-5.4800

> <Gold.Chemscore.Hbond>
0.8223

> <Gold.Chemscore.Metal>
0.0000

> <Gold.Chemscore.Lipo>
92.7352

> <Gold.Chemscore.Internal_Hbond>
0.0000

> <Gold.Chemscore.DEClash>
0.0202

> <Gold.Chemscore.DEInternal>
0.6212

> <Gold.Chemscore.Rot>
1.6204

> <Gold.Chemscore.Internal.Correction>
   9.000000E+99

> <Gold.Chemscore.Hbonds>
donor molecule, donor type, donor heavy atom, donor atom, acceptor molecule, acceptor atom, score
      P1  H  6934  6947       L1    14  0.66

> <Gold.Chemscore.Hbond.Weighted>
-2.7465

> <Gold.Chemscore.Metal.Weighted>
-0.0000

> <Gold.Chemscore.Lipo.Weighted>
-10.8500

> <Gold.Chemscore.Internal_Hbond.Weighted>
0.0000

> <Gold.Chemscore.DEClash.Weighted>
0.0202

> <Gold.Chemscore.DEInternal.Weighted>
0.6212

> <Gold.Chemscore.Rot.Weighted>
4.1482

> <Gold.Chemscore.Internal.Correction.Weighted>
   9.000000E+99

> <Gold.Protein.RotatedTorsions>
[ 6907 6896 6895 6894 ] final -134.20 input  -60.11 | X-H torsion
[ 7974 7965 7964 7962 ] final   96.90 input  175.53 | X-H torsion
[ 8008 7997 7996 7995 ] final  -89.14 input   59.86 | X-H torsion
[ 10167 10162 10161 10158 ] final   38.80 input  -65.29 | X-H torsion
[ 10718 10713 10712 10709 ] final   25.01 input   66.30 | X-H torsion
[ 10763 10752 10751 10750 ] final  -42.95 input  -60.55 | X-H torsion
[ 11005 11000 10999 10996 ] final -157.55 input  -57.11 | X-H torsion

> <Gold.Protein.ActiveResidues>
 VAL166  LYS551  ARG553  GLY616  TRP617  ASP618  TYR619  PRO620  LYS621  CYS622 
 ASP623  PHE694  ASN695  SER759  ASP760  ASP761  ALA762  ILE779  LEU786  VAL792 
 PHE793  MET794  SER795  GLU796  ALA797  LYS798  CYS799  TRP800  GLU811  SER814 

> <Gold.Protein.RotatedAtoms>
  150.9830  133.6226  159.2719 H   0  0  0  0  0  0  0  0  0  0  0  0  # atno 6907 bound_to 6896
  151.3474  135.0876  159.9401 H   0  0  0  0  0  0  0  0  0  0  0  0  # atno 6908 bound_to 6896
  152.5222  133.9429  159.7689 H   0  0  0  0  0  0  0  0  0  0  0  0  # atno 6909 bound_to 6896
  145.4326  139.2309  143.3136 H   0  0  0  0  0  0  0  0  0  0  0  0  # atno 7974 bound_to 7965
  154.6831  140.0545  157.0286 H   0  0  0  0  0  0  0  0  0  0  0  0  # atno 8008 bound_to 7997
  155.0923  140.3220  155.4551 H   0  0  0  0  0  0  0  0  0  0  0  0  # atno 8009 bound_to 7997
  156.2701  140.2046  156.6050 H   0  0  0  0  0  0  0  0  0  0  0  0  # atno 8010 bound_to 7997
  140.3901  144.1863  150.6131 H   0  0  0  0  0  0  0  0  0  0  0  0  # atno 10167 bound_to 10162
  157.1876  130.6831  149.6137 H   0  0  0  0  0  0  0  0  0  0  0  0  # atno 10718 bound_to 10713
  153.9875  135.6709  153.4752 H   0  0  0  0  0  0  0  0  0  0  0  0  # atno 10763 bound_to 10752
  153.0720  135.4969  154.8321 H   0  0  0  0  0  0  0  0  0  0  0  0  # atno 10764 bound_to 10752
  154.7128  135.3101  154.9132 H   0  0  0  0  0  0  0  0  0  0  0  0  # atno 10765 bound_to 10752
  140.6634  134.4325  157.5234 H   0  0  0  0  0  0  0  0  0  0  0  0  # atno 11005 bound_to 11000
  146.2599  140.5065  142.8858 LP  0  0  0  0  0  0  0  0  0  0  0  0  # atno 17320 bound_to 7965
  144.8173  140.6489  143.6376 LP  0  0  0  0  0  0  0  0  0  0  0  0  # atno 17321 bound_to 7965
  140.4848  143.2367  151.8903 LP  0  0  0  0  0  0  0  0  0  0  0  0  # atno 17342 bound_to 10162
  139.4789  144.5230  151.8774 LP  0  0  0  0  0  0  0  0  0  0  0  0  # atno 17343 bound_to 10162
  155.9716  130.4625  150.6149 LP  0  0  0  0  0  0  0  0  0  0  0  0  # atno 17370 bound_to 10713
  157.3892  131.0793  151.1409 LP  0  0  0  0  0  0  0  0  0  0  0  0  # atno 17371 bound_to 10713
  139.9005  134.8566  156.1915 LP  0  0  0  0  0  0  0  0  0  0  0  0  # atno 17394 bound_to 11000
  141.0448  133.6919  156.1663 LP  0  0  0  0  0  0  0  0  0  0  0  0  # atno 17395 bound_to 11000

$$$$
