AV-unprocessed.smi:290|AV-procd|sdf|2223|dock2
  -GOLD-   2262022 73D 1   1.00000     0.00000
 Structure written by MMmdl.
 59 62  0  0  0  0  0  0  0  0  2 V2000
  149.8460  138.2267  155.0983 C   0  0  0  0  0  0  0  0  0  0  0  0
  150.3530  139.6549  155.3476 C   0  0  2  0  0  0  0  0  0  0  0  0
  150.5361  139.8892  156.7413 O   0  0  0  0  0  0  0  0  0  0  0  0
  150.2430  141.2480  157.0542 C   0  0  0  0  0  0  0  0  0  0  0  0
  149.9977  141.9380  155.7154 C   0  0  0  0  0  0  0  0  0  0  0  0
  149.4572  140.8058  154.8507 C   0  0  1  0  0  0  0  0  0  0  0  0
  149.7350  141.0959  153.4937 O   0  0  0  0  0  0  0  0  0  0  0  0
  147.9361  140.5471  155.0334 C   0  0  0  0  0  0  0  0  0  0  0  0
  147.4202  139.4523  154.2274 N   0  0  0  0  0  0  0  0  0  0  0  0
  147.3479  139.3989  152.8529 C   0  0  0  0  0  0  0  0  0  0  0  0
  146.8392  138.3006  152.3631 N   0  0  0  0  0  0  0  0  0  0  0  0
  146.5245  137.5488  153.4875 C   0  0  0  0  0  0  0  0  0  0  0  0
  145.9479  136.2680  153.6855 C   0  0  0  0  0  0  0  0  0  0  0  0
  145.5808  135.4908  152.6429 N   0  0  0  0  0  0  0  0  0  0  0  0
  144.7058  136.1406  151.6803 C   0  0  0  0  0  0  0  0  0  0  0  0
  144.1651  135.0153  150.7912 C   0  0  0  0  0  0  0  0  0  0  0  0
  144.3345  133.7315  151.6342 C   0  0  1  0  0  0  0  0  0  0  0  0
  145.1075  132.6352  150.9709 N   0  3  2  0  0  0  0  0  0  0  0  0
  146.4386  133.0230  150.4363 C   0  0  0  0  0  0  0  0  0  0  0  0
  144.3146  131.8627  149.9802 C   0  0  0  0  0  0  0  0  0  0  0  0
  143.8805  132.7223  148.7804 C   0  0  0  0  0  0  0  0  0  0  0  0
  142.8807  132.0513  148.0430 O   0  0  0  0  0  0  0  0  0  0  0  0
  144.9423  134.2220  152.9652 C   0  0  1  0  0  0  0  0  0  0  0  0
  145.8427  133.2360  153.7370 C   0  0  0  0  0  0  0  0  0  0  0  0
  145.7798  135.8335  154.9621 N   0  0  0  0  0  0  0  0  0  0  0  0
  146.1541  136.6099  155.9839 C   0  0  0  0  0  0  0  0  0  0  0  0
  146.7058  137.8253  155.9506 N   0  0  0  0  0  0  0  0  0  0  0  0
  146.8775  138.2582  154.6681 C   0  0  0  0  0  0  0  0  0  0  0  0
  143.3457  133.3423  151.8754 H   0  0  0  0  0  0  0  0  0  0  0  0
  144.0982  134.4489  153.6191 H   0  0  0  0  0  0  0  0  0  0  0  0
  149.6661  138.0545  154.0369 H   0  0  0  0  0  0  0  0  0  0  0  0
  148.9195  138.0271  155.6366 H   0  0  0  0  0  0  0  0  0  0  0  0
  150.5806  137.4942  155.4328 H   0  0  0  0  0  0  0  0  0  0  0  0
  151.3400  139.7559  154.8915 H   0  0  0  0  0  0  0  0  0  0  0  0
  149.3456  141.2785  157.6731 H   0  0  0  0  0  0  0  0  0  0  0  0
  151.0555  141.7106  157.6144 H   0  0  0  0  0  0  0  0  0  0  0  0
  149.3455  142.8068  155.7924 H   0  0  0  0  0  0  0  0  0  0  0  0
  150.9532  142.2888  155.3215 H   0  0  0  0  0  0  0  0  0  0  0  0
  149.5756  140.3178  152.9813 H   0  0  0  0  0  0  0  0  0  0  0  0
  147.7126  140.3210  156.0765 H   0  0  0  0  0  0  0  0  0  0  0  0
  147.3649  141.4437  154.7896 H   0  0  0  0  0  0  0  0  0  0  0  0
  147.6943  140.2036  152.2205 H   0  0  0  0  0  0  0  0  0  0  0  0
  143.8835  136.6459  152.1895 H   0  0  0  0  0  0  0  0  0  0  0  0
  145.2487  136.8855  151.0975 H   0  0  0  0  0  0  0  0  0  0  0  0
  143.1199  135.1919  150.5357 H   0  0  0  0  0  0  0  0  0  0  0  0
  144.7121  134.9851  149.8513 H   0  0  0  0  0  0  0  0  0  0  0  0
  146.3585  133.5332  149.4765 H   0  0  0  0  0  0  0  0  0  0  0  0
  147.0451  132.1307  150.2796 H   0  0  0  0  0  0  0  0  0  0  0  0
  146.9862  133.6708  151.1195 H   0  0  0  0  0  0  0  0  0  0  0  0
  144.8925  131.0011  149.6432 H   0  0  0  0  0  0  0  0  0  0  0  0
  143.4179  131.4580  150.4528 H   0  0  0  0  0  0  0  0  0  0  0  0
  143.5150  133.7026  149.0839 H   0  0  0  0  0  0  0  0  0  0  0  0
  144.7325  132.8931  148.1221 H   0  0  0  0  0  0  0  0  0  0  0  0
  142.5970  132.6132  147.3373 H   0  0  0  0  0  0  0  0  0  0  0  0
  145.3304  132.2877  153.9003 H   0  0  0  0  0  0  0  0  0  0  0  0
  146.1050  133.6343  154.7176 H   0  0  0  0  0  0  0  0  0  0  0  0
  146.7759  133.0288  153.2146 H   0  0  0  0  0  0  0  0  0  0  0  0
  145.9894  136.1979  156.9688 H   0  0  0  0  0  0  0  0  0  0  0  0
  145.3089  131.9741  151.7081 H   0  0  0  0  0  0  0  0  0  0  0  0
  1  2  1  0  0  0  0
  1 31  1  0  0  0  0
  1 32  1  0  0  0  0
  1 33  1  0  0  0  0
  2  6  1  0  0  0  0
  2  3  1  0  0  0  0
  2 34  1  0  0  0  0
  3  4  1  0  0  0  0
  4  5  1  0  0  0  0
  4 35  1  0  0  0  0
  4 36  1  0  0  0  0
  5  6  1  0  0  0  0
  5 37  1  0  0  0  0
  5 38  1  0  0  0  0
  6  7  1  0  0  0  0
  6  8  1  0  0  0  0
  7 39  1  0  0  0  0
  8  9  1  0  0  0  0
  8 40  1  0  0  0  0
  8 41  1  0  0  0  0
  9 28  1  0  0  0  0
  9 10  1  0  0  0  0
 10 11  2  0  0  0  0
 10 42  1  0  0  0  0
 11 12  1  0  0  0  0
 12 28  2  0  0  0  0
 12 13  1  0  0  0  0
 13 14  1  0  0  0  0
 13 25  2  0  0  0  0
 14 23  1  0  0  0  0
 14 15  1  0  0  0  0
 15 16  1  0  0  0  0
 15 43  1  0  0  0  0
 15 44  1  0  0  0  0
 16 17  1  0  0  0  0
 16 45  1  0  0  0  0
 16 46  1  0  0  0  0
 17 29  1  0  0  0  0
 17 18  1  0  0  0  0
 17 23  1  0  0  0  0
 18 19  1  0  0  0  0
 18 20  1  0  0  0  0
 18 59  1  0  0  0  0
 19 47  1  0  0  0  0
 19 48  1  0  0  0  0
 19 49  1  0  0  0  0
 20 21  1  0  0  0  0
 20 50  1  0  0  0  0
 20 51  1  0  0  0  0
 21 22  1  0  0  0  0
 21 52  1  0  0  0  0
 21 53  1  0  0  0  0
 22 54  1  0  0  0  0
 23 30  1  0  0  0  0
 23 24  1  0  0  0  0
 24 55  1  0  0  0  0
 24 56  1  0  0  0  0
 24 57  1  0  0  0  0
 25 26  1  0  0  0  0
 26 27  2  0  0  0  0
 26 58  1  0  0  0  0
 27 28  1  0  0  0  0
M  CHG  1  18   1
M  END
> <s_m_source_file>
AV-unprocessed.smi

> <i_m_source_file_index>
290

> <i_lp_mmshare_version>
43012

> <i_f3d_flags>
0

> <s_epik_input>
W0NIMl0xW0NIMl1PW0NAQEhdKFtDSDNdKVtDQEBdMShbT0hdKVtDSDJdbihbY0hdbjIpYyhjMjMpbltjSF1uYzNONFtDSDJdW0NIMl1bQ0BIXShbQ0BIXTRbQ0gzXSlOKFtDSDNdKVtDSDJdW0NIMl1bT0hd

> <s_epik_cmdline>
J2VwaWtfcHl0aG9uJywgJy1waCcsICc3LjAnLCAnLXRuJywgJzgnLCAnLW1hJywgJzIwMCcsICctbWV0YWxfYmluZGluZycsICctaW1hZScsICc8aW5maWxlLm1hZT4nLCAnLW9tYWUnLCAnPG91dGZpbGUubWFlPic=

> <r_lp_tautomer_probability>
1

> <r_epik_Ionization_Penalty>
0.0036983

> <r_epik_Ionization_Penalty_Charging>
0.0032725

> <r_epik_Ionization_Penalty_Neutral>
0.000425798

> <r_epik_State_Penalty>
-0

> <r_epik_Charging_Adjusted_Penalty>
0.0032725

> <i_epik_Tot_Q>
1

> <i_epik_Tot_abs_Q>
1

> <r_epik_Metal_State_Penalty>
-0

> <b_epik_Metal_Only>
0

> <s_lp_Force_Field>
OPLS_2005

> <r_lp_Energy>
69.2508

> <b_lp_Chiralities_Consistent>
1

> <s_lp_Variant>
AV-unprocessed.smi:290-9

> <Gold.Version>
5.8.1

> <Gold.Id.Protein>
6NUR|6NUR_protein|mol2

> <Gold.PLP.Fitness>
49.8347

> <Gold.PLP.PLP>
-38.0096

> <Gold.PLP.part.hbond>
-5.9262

> <Gold.PLP.part.metal>
0.0000

> <Gold.PLP.part.buried>
-1.2868

> <Gold.PLP.part.nonpolar>
-31.5199

> <Gold.PLP.part.repulsive>
1.1332

> <Gold.PLP.ligand.clash>
0.0755

> <Gold.PLP.ligand.torsion>
0.3743

> <Gold.PLP.Chemscore.Hbond>
3.3324

> <Gold.PLP.Chemscore.CHOScore>
0.8259

> <Gold.PLP.Chemscore.Metal>
0.0000

> <Gold.Chemscore.Hbonds>
donor molecule, donor type, donor heavy atom, donor atom, acceptor molecule, acceptor atom, score
      L1  H     7    39       P1  7957  0.61
      L1  H    22    54       P1 10195  0.96
      P1  H  7989  7998       L1     7  0.16
      P1  H  8011  8017       L1     7  1.00
      P1  H 10785 10796       L1    22  0.64
      L1  C    10    42       P1  7957  0.82

> <Gold.PLP.Chemscore.Internal.Correction>
0.1744

> <Gold.Rescore>
     Score         DG    S(hbond)    S(metal)    S(lipo)     H(rot)  DE(clash)    DE(int)     intcor
      7.72     -15.60       2.45        0.00      96.82       3.67       3.08       4.80       ----

> <Gold.Chemscore.Fitness>
7.7192

> <Gold.Chemscore.DG>
-15.5996

> <Gold.Chemscore.ZeroCoef>
-5.4800

> <Gold.Chemscore.Hbond>
2.4480

> <Gold.Chemscore.Metal>
0.0000

> <Gold.Chemscore.Lipo>
96.8187

> <Gold.Chemscore.Internal_Hbond>
0.0000

> <Gold.Chemscore.DEClash>
3.0794

> <Gold.Chemscore.DEInternal>
4.8010

> <Gold.Chemscore.Rot>
3.6658

> <Gold.Chemscore.Internal.Correction>
   9.000000E+99

> <Gold.Chemscore.Hbonds>
donor molecule, donor type, donor heavy atom, donor atom, acceptor molecule, acceptor atom, score
      L1  H     7    39       P1  7957  0.62
      L1  H    22    54       P1 10195  0.90
      P1  H  8011  8017       L1     7  0.48
      P1  H 10785 10796       L1    22  0.16

> <Gold.Chemscore.Hbond.Weighted>
-8.1762

> <Gold.Chemscore.Metal.Weighted>
-0.0000

> <Gold.Chemscore.Lipo.Weighted>
-11.3278

> <Gold.Chemscore.Internal_Hbond.Weighted>
0.0000

> <Gold.Chemscore.DEClash.Weighted>
3.0794

> <Gold.Chemscore.DEInternal.Weighted>
4.8010

> <Gold.Chemscore.Rot.Weighted>
9.3844

> <Gold.Chemscore.Internal.Correction.Weighted>
   9.000000E+99

> <Gold.Protein.RotatedTorsions>
[ 6907 6896 6895 6894 ] final   76.44 input  -60.11 | X-H torsion
[ 7974 7965 7964 7962 ] final -106.31 input  175.53 | X-H torsion
[ 8008 7997 7996 7995 ] final   45.32 input   59.86 | X-H torsion
[ 10167 10162 10161 10158 ] final  -72.61 input  -65.29 | X-H torsion
[ 10718 10713 10712 10709 ] final   89.91 input   66.30 | X-H torsion
[ 10763 10752 10751 10750 ] final  108.45 input  -60.55 | X-H torsion
[ 11005 11000 10999 10996 ] final -114.95 input  -57.11 | X-H torsion

> <Gold.Protein.ActiveResidues>
 VAL166  LYS551  ARG553  GLY616  TRP617  ASP618  TYR619  PRO620  LYS621  CYS622 
 ASP623  PHE694  ASN695  SER759  ASP760  ASP761  ALA762  ILE779  LEU786  VAL792 
 PHE793  MET794  SER795  GLU796  ALA797  LYS798  CYS799  TRP800  GLU811  SER814 

> <Gold.Protein.RotatedAtoms>
  152.5073  134.3968  159.9402 H   0  0  0  0  0  0  0  0  0  0  0  0  # atno 6907 bound_to 6896
  151.3930  133.3776  159.2731 H   0  0  0  0  0  0  0  0  0  0  0  0  # atno 6908 bound_to 6896
  150.9418  134.8847  159.7676 H   0  0  0  0  0  0  0  0  0  0  0  0  # atno 6909 bound_to 6896
  145.2195  140.9128  143.3268 H   0  0  0  0  0  0  0  0  0  0  0  0  # atno 7974 bound_to 7965
  155.3340  140.3404  155.4239 H   0  0  0  0  0  0  0  0  0  0  0  0  # atno 8008 bound_to 7997
  156.1847  140.1676  156.8244 H   0  0  0  0  0  0  0  0  0  0  0  0  # atno 8009 bound_to 7997
  154.5373  140.0732  156.8432 H   0  0  0  0  0  0  0  0  0  0  0  0  # atno 8010 bound_to 7997
  140.5178  143.2335  151.7483 H   0  0  0  0  0  0  0  0  0  0  0  0  # atno 10167 bound_to 10162
  157.6957  131.0351  150.3498 H   0  0  0  0  0  0  0  0  0  0  0  0  # atno 10718 bound_to 10713
  153.4208  135.3811  155.2110 H   0  0  0  0  0  0  0  0  0  0  0  0  # atno 10763 bound_to 10752
  154.8744  135.3817  154.4386 H   0  0  0  0  0  0  0  0  0  0  0  0  # atno 10764 bound_to 10752
  153.4906  135.7088  153.5949 H   0  0  0  0  0  0  0  0  0  0  0  0  # atno 10765 bound_to 10752
  141.0519  133.9673  157.2821 H   0  0  0  0  0  0  0  0  0  0  0  0  # atno 11005 bound_to 11000
  144.9779  139.3813  143.6276 LP  0  0  0  0  0  0  0  0  0  0  0  0  # atno 17320 bound_to 7965
  146.3379  139.8906  142.8809 LP  0  0  0  0  0  0  0  0  0  0  0  0  # atno 17321 bound_to 7965
  139.4914  144.4298  151.9884 LP  0  0  0  0  0  0  0  0  0  0  0  0  # atno 17342 bound_to 10162
  140.3394  144.3222  150.5970 LP  0  0  0  0  0  0  0  0  0  0  0  0  # atno 17343 bound_to 10162
  156.3947  130.3904  149.7003 LP  0  0  0  0  0  0  0  0  0  0  0  0  # atno 17370 bound_to 10713
  156.4341  130.7829  151.2849 LP  0  0  0  0  0  0  0  0  0  0  0  0  # atno 17371 bound_to 10713
  139.9358  135.0196  156.8550 LP  0  0  0  0  0  0  0  0  0  0  0  0  # atno 17394 bound_to 11000
  140.6038  134.0147  155.7548 LP  0  0  0  0  0  0  0  0  0  0  0  0  # atno 17395 bound_to 11000

$$$$
