AV-unprocessed.smi:1033|AV-procd|sdf|4490|dock3
  -GOLD-   22720 2473D 1   1.00000     0.00000
 Structure written by MMmdl.
 56 58  0  0  0  0  0  0  0  0  2 V2000
  152.0904  145.5651  159.2754 C   0  0  0  0  0  0  0  0  0  0  0  0
  152.0182  144.0616  159.0745 C   0  0  0  0  0  0  0  0  0  0  0  0
  151.7521  143.5531  157.7833 C   0  0  0  0  0  0  0  0  0  0  0  0
  151.6732  142.1619  157.5554 C   0  0  0  0  0  0  0  0  0  0  0  0
  151.4217  141.4548  156.3922 N   0  0  0  0  0  0  0  0  0  0  0  0
  151.4741  140.1989  156.8251 C   0  0  0  0  0  0  0  0  0  0  0  0
  151.7264  140.0073  158.1342 N   0  0  0  0  0  0  0  0  0  0  0  0
  151.8188  138.7336  158.8256 C   0  0  0  0  0  0  0  0  0  0  0  0
  153.1135  138.6096  159.6516 C   0  0  2  0  0  0  0  0  0  0  0  0
  154.2015  139.0966  158.8894 O   0  0  0  0  0  0  0  0  0  0  0  0
  153.4029  137.1481  160.0474 C   0  0  0  0  0  0  0  0  0  0  0  0
  154.2525  137.0374  161.2606 N   0  3  0  0  0  0  0  0  0  0  0  0
  154.6987  135.6435  161.5151 C   0  0  0  0  0  0  0  0  0  0  0  0
  155.6451  135.5961  162.7321 C   0  0  0  0  0  0  0  0  0  0  0  0
  155.0495  136.1472  163.9490 N   0  0  0  0  0  0  0  0  0  0  0  0
  154.0152  135.2759  164.5196 C   0  0  0  0  0  0  0  0  0  0  0  0
  154.5225  133.9524  165.1265 C   0  0  2  0  0  0  0  0  0  0  0  0
  153.3850  132.9958  165.5129 C   0  0  0  0  0  0  0  0  0  0  0  0
  155.2521  134.2617  166.2947 O   0  0  0  0  0  0  0  0  0  0  0  0
  154.6116  137.5179  163.6730 C   0  0  0  0  0  0  0  0  0  0  0  0
  153.6367  137.6213  162.4825 C   0  0  0  0  0  0  0  0  0  0  0  0
  151.8707  141.2859  158.6628 C   0  0  0  0  0  0  0  0  0  0  0  0
  152.1391  141.7799  159.9517 C   0  0  0  0  0  0  0  0  0  0  0  0
  152.2127  143.1729  160.1623 C   0  0  0  0  0  0  0  0  0  0  0  0
  152.5000  143.6974  161.5581 C   0  0  0  0  0  0  0  0  0  0  0  0
  151.9128  146.1006  158.3423 H   0  0  0  0  0  0  0  0  0  0  0  0
  153.0745  145.8544  159.6451 H   0  0  0  0  0  0  0  0  0  0  0  0
  151.3395  145.8911  159.9954 H   0  0  0  0  0  0  0  0  0  0  0  0
  151.6042  144.2301  156.9547 H   0  0  0  0  0  0  0  0  0  0  0  0
  151.3156  139.3691  156.1520 H   0  0  0  0  0  0  0  0  0  0  0  0
  150.9484  138.6384  159.4762 H   0  0  0  0  0  0  0  0  0  0  0  0
  151.7473  137.9291  158.0921 H   0  0  0  0  0  0  0  0  0  0  0  0
  153.0135  139.2310  160.5410 H   0  0  0  0  0  0  0  0  0  0  0  0
  154.8826  138.4403  158.8833 H   0  0  0  0  0  0  0  0  0  0  0  0
  152.4718  136.6034  160.2111 H   0  0  0  0  0  0  0  0  0  0  0  0
  153.8998  136.6559  159.2097 H   0  0  0  0  0  0  0  0  0  0  0  0
  153.8334  134.9967  161.6672 H   0  0  0  0  0  0  0  0  0  0  0  0
  155.2247  135.2629  160.6387 H   0  0  0  0  0  0  0  0  0  0  0  0
  155.9701  134.5702  162.9097 H   0  0  0  0  0  0  0  0  0  0  0  0
  156.5509  136.1560  162.4953 H   0  0  0  0  0  0  0  0  0  0  0  0
  153.4466  135.8165  165.2761 H   0  0  0  0  0  0  0  0  0  0  0  0
  153.2956  135.0278  163.7380 H   0  0  0  0  0  0  0  0  0  0  0  0
  155.2091  133.4517  164.4447 H   0  0  0  0  0  0  0  0  0  0  0  0
  152.8053  132.7008  164.6379 H   0  0  0  0  0  0  0  0  0  0  0  0
  152.6997  133.4579  166.2246 H   0  0  0  0  0  0  0  0  0  0  0  0
  153.7743  132.0848  165.9681 H   0  0  0  0  0  0  0  0  0  0  0  0
  155.0914  135.1656  166.5201 H   0  0  0  0  0  0  0  0  0  0  0  0
  154.1654  137.9649  164.5604 H   0  0  0  0  0  0  0  0  0  0  0  0
  155.4895  138.1280  163.4560 H   0  0  0  0  0  0  0  0  0  0  0  0
  153.3975  138.6712  162.3196 H   0  0  0  0  0  0  0  0  0  0  0  0
  152.6950  137.1184  162.7052 H   0  0  0  0  0  0  0  0  0  0  0  0
  152.2842  141.0928  160.7721 H   0  0  0  0  0  0  0  0  0  0  0  0
  152.6191  142.8829  162.2730 H   0  0  0  0  0  0  0  0  0  0  0  0
  151.6821  144.3295  161.9048 H   0  0  0  0  0  0  0  0  0  0  0  0
  153.4187  144.2845  161.5637 H   0  0  0  0  0  0  0  0  0  0  0  0
  155.0901  137.5692  161.0693 H   0  0  0  0  0  0  0  0  0  0  0  0
  1  2  1  0  0  0  0
  1 26  1  0  0  0  0
  1 27  1  0  0  0  0
  1 28  1  0  0  0  0
  2 24  1  0  0  0  0
  2  3  2  0  0  0  0
  3  4  1  0  0  0  0
  3 29  1  0  0  0  0
  4 22  2  0  0  0  0
  4  5  1  0  0  0  0
  5  6  2  0  0  0  0
  6  7  1  0  0  0  0
  6 30  1  0  0  0  0
  7  8  1  0  0  0  0
  7 22  1  0  0  0  0
  8  9  1  0  0  0  0
  8 31  1  0  0  0  0
  8 32  1  0  0  0  0
  9 10  1  0  0  0  0
  9 11  1  0  0  0  0
  9 33  1  0  0  0  0
 10 34  1  0  0  0  0
 11 12  1  0  0  0  0
 11 35  1  0  0  0  0
 11 36  1  0  0  0  0
 12 21  1  0  0  0  0
 12 13  1  0  0  0  0
 12 56  1  0  0  0  0
 13 14  1  0  0  0  0
 13 37  1  0  0  0  0
 13 38  1  0  0  0  0
 14 15  1  0  0  0  0
 14 39  1  0  0  0  0
 14 40  1  0  0  0  0
 15 16  1  0  0  0  0
 15 20  1  0  0  0  0
 16 17  1  0  0  0  0
 16 41  1  0  0  0  0
 16 42  1  0  0  0  0
 17 18  1  0  0  0  0
 17 19  1  0  0  0  0
 17 43  1  0  0  0  0
 18 44  1  0  0  0  0
 18 45  1  0  0  0  0
 18 46  1  0  0  0  0
 19 47  1  0  0  0  0
 20 21  1  0  0  0  0
 20 48  1  0  0  0  0
 20 49  1  0  0  0  0
 21 50  1  0  0  0  0
 21 51  1  0  0  0  0
 22 23  1  0  0  0  0
 23 24  2  0  0  0  0
 23 52  1  0  0  0  0
 24 25  1  0  0  0  0
 25 53  1  0  0  0  0
 25 54  1  0  0  0  0
 25 55  1  0  0  0  0
M  CHG  1  12   1
M  END
> <s_m_source_file>
AV-unprocessed.smi

> <i_m_source_file_index>
1033

> <i_lp_mmshare_version>
43012

> <i_f3d_flags>
0

> <s_epik_input>
W0NIM11jKFtjSF0xKWMoW0NIM10pW2NIXWMoYzEyKW4oW2NIXW4yKVtDSDJdW0NASF0oW09IXSlbQ0gyXU4zW0NIMl1bQ0gyXU4oW0NIMl1bQ0gyXTMpW0NIMl1bQ0BIXShbQ0gzXSlbT0hd

> <s_epik_cmdline>
J2VwaWtfcHl0aG9uJywgJy1waCcsICc3LjAnLCAnLXRuJywgJzgnLCAnLW1hJywgJzIwMCcsICctbWV0YWxfYmluZGluZycsICctaW1hZScsICc8aW5maWxlLm1hZT4nLCAnLW9tYWUnLCAnPG91dGZpbGUubWFlPic=

> <r_epik_Ionization_Penalty>
0.131893

> <r_epik_Ionization_Penalty_Charging>
0.00208556

> <r_epik_Ionization_Penalty_Neutral>
0.129808

> <r_epik_State_Penalty>
0.452125

> <r_epik_Charging_Adjusted_Penalty>
0.454211

> <i_epik_Tot_Q>
1

> <i_epik_Tot_abs_Q>
1

> <r_epik_Metal_State_Penalty>
0.376389

> <b_epik_Metal_Only>
0

> <s_lp_Force_Field>
OPLS_2005

> <r_lp_Energy>
32.1786

> <b_lp_Chiralities_Consistent>
1

> <s_lp_Variant>
AV-unprocessed.smi:1033-1

> <Gold.Version>
5.8.1

> <Gold.Id.Protein>
6NUR|6NUR_protein|mol2

> <Gold.PLP.Fitness>
53.4373

> <Gold.PLP.PLP>
-52.2999

> <Gold.PLP.part.hbond>
-2.0000

> <Gold.PLP.part.metal>
0.0000

> <Gold.PLP.part.buried>
-6.1016

> <Gold.PLP.part.nonpolar>
-43.7952

> <Gold.PLP.part.repulsive>
0.1419

> <Gold.PLP.ligand.clash>
0.0000

> <Gold.PLP.ligand.torsion>
0.5886

> <Gold.PLP.Chemscore.Hbond>
0.7000

> <Gold.PLP.Chemscore.CHOScore>
0.0000

> <Gold.PLP.Chemscore.Metal>
0.0000

> <Gold.Chemscore.Hbonds>
donor molecule, donor type, donor heavy atom, donor atom, acceptor molecule, acceptor atom, score
      P1  H  7997  8009       L1    10  0.83

> <Gold.PLP.Chemscore.Internal.Correction>
0.2147

> <Gold.Rescore>
     Score         DG    S(hbond)    S(metal)    S(lipo)     H(rot)  DE(clash)    DE(int)     intcor
     14.56     -15.23       0.12        0.00     146.87       3.07       0.10       0.57       ----

> <Gold.Chemscore.Fitness>
14.5605

> <Gold.Chemscore.DG>
-15.2341

> <Gold.Chemscore.ZeroCoef>
-5.4800

> <Gold.Chemscore.Hbond>
0.1249

> <Gold.Chemscore.Metal>
0.0000

> <Gold.Chemscore.Lipo>
146.8661

> <Gold.Chemscore.Internal_Hbond>
0.0000

> <Gold.Chemscore.DEClash>
0.1037

> <Gold.Chemscore.DEInternal>
0.5698

> <Gold.Chemscore.Rot>
3.0650

> <Gold.Chemscore.Internal.Correction>
   9.000000E+99

> <Gold.Chemscore.Hbonds>
donor molecule, donor type, donor heavy atom, donor atom, acceptor molecule, acceptor atom, score
      P1  H  7997  8009       L1    10  0.13

> <Gold.Chemscore.Hbond.Weighted>
-0.4172

> <Gold.Chemscore.Metal.Weighted>
-0.0000

> <Gold.Chemscore.Lipo.Weighted>
-17.1833

> <Gold.Chemscore.Internal_Hbond.Weighted>
0.0000

> <Gold.Chemscore.DEClash.Weighted>
0.1037

> <Gold.Chemscore.DEInternal.Weighted>
0.5698

> <Gold.Chemscore.Rot.Weighted>
7.8465

> <Gold.Chemscore.Internal.Correction.Weighted>
   9.000000E+99

> <Gold.Protein.RotatedTorsions>
[ 6907 6896 6895 6894 ] final   44.75 input  -60.11 | X-H torsion
[ 7974 7965 7964 7962 ] final  109.95 input  175.53 | X-H torsion
[ 8008 7997 7996 7995 ] final  146.45 input   59.86 | X-H torsion
[ 10167 10162 10161 10158 ] final   -3.16 input  -65.29 | X-H torsion
[ 10718 10713 10712 10709 ] final  -80.20 input   66.30 | X-H torsion
[ 10763 10752 10751 10750 ] final   74.50 input  -60.55 | X-H torsion
[ 11005 11000 10999 10996 ] final  117.23 input  -57.11 | X-H torsion

> <Gold.Protein.ActiveResidues>
 VAL166  LYS551  ARG553  GLY616  TRP617  ASP618  TYR619  PRO620  LYS621  CYS622 
 ASP623  PHE694  ASN695  SER759  ASP760  ASP761  ALA762  ILE779  LEU786  VAL792 
 PHE793  MET794  SER795  GLU796  ALA797  LYS798  CYS799  TRP800  GLU811  SER814 

> <Gold.Protein.RotatedAtoms>
  152.2362  134.8273  160.0466 H   0  0  0  0  0  0  0  0  0  0  0  0  # atno 6907 bound_to 6896
  151.9004  133.3531  159.3837 H   0  0  0  0  0  0  0  0  0  0  0  0  # atno 6908 bound_to 6896
  150.7040  134.4760  159.5492 H   0  0  0  0  0  0  0  0  0  0  0  0  # atno 6909 bound_to 6896
  145.2613  139.2701  143.4015 H   0  0  0  0  0  0  0  0  0  0  0  0  # atno 7974 bound_to 7965
  156.2855  140.2182  156.5378 H   0  0  0  0  0  0  0  0  0  0  0  0  # atno 8008 bound_to 7997
  154.7395  140.0489  157.0820 H   0  0  0  0  0  0  0  0  0  0  0  0  # atno 8009 bound_to 7997
  155.0249  140.3128  155.4783 H   0  0  0  0  0  0  0  0  0  0  0  0  # atno 8010 bound_to 7997
  140.6879  143.6573  150.8297 H   0  0  0  0  0  0  0  0  0  0  0  0  # atno 10167 bound_to 10162
  156.0075  130.4567  150.3764 H   0  0  0  0  0  0  0  0  0  0  0  0  # atno 10718 bound_to 10713
  153.0591  135.5023  154.8051 H   0  0  0  0  0  0  0  0  0  0  0  0  # atno 10763 bound_to 10752
  154.6854  135.2975  154.9557 H   0  0  0  0  0  0  0  0  0  0  0  0  # atno 10764 bound_to 10752
  154.0329  135.6727  153.4835 H   0  0  0  0  0  0  0  0  0  0  0  0  # atno 10765 bound_to 10752
  139.9067  134.9607  156.7319 H   0  0  0  0  0  0  0  0  0  0  0  0  # atno 11005 bound_to 11000
  146.3274  140.3030  142.8622 LP  0  0  0  0  0  0  0  0  0  0  0  0  # atno 17320 bound_to 7965
  144.9416  140.8084  143.5627 LP  0  0  0  0  0  0  0  0  0  0  0  0  # atno 17321 bound_to 7965
  140.0282  143.5471  152.2771 LP  0  0  0  0  0  0  0  0  0  0  0  0  # atno 17342 bound_to 10162
  139.6254  144.7636  151.2650 LP  0  0  0  0  0  0  0  0  0  0  0  0  # atno 17343 bound_to 10162
  157.1846  131.0400  151.2731 LP  0  0  0  0  0  0  0  0  0  0  0  0  # atno 17370 bound_to 10713
  157.4116  130.7388  149.6843 LP  0  0  0  0  0  0  0  0  0  0  0  0  # atno 17371 bound_to 10713
  140.6918  133.9383  155.7971 LP  0  0  0  0  0  0  0  0  0  0  0  0  # atno 17394 bound_to 11000
  141.0436  134.0586  157.3872 LP  0  0  0  0  0  0  0  0  0  0  0  0  # atno 17395 bound_to 11000

$$$$
