AV-unprocessed.smi:157|AV-procd|sdf|1304|dock3
  -GOLD-   2262018593D 1   1.00000     0.00000
 Structure written by MMmdl.
 35 37  0  0  0  0  0  0  0  0  1 V2000
  154.3897  139.4446  160.6157 O   0  0  0  0  0  0  0  0  0  0  0  0
  154.1757  140.7926  160.9763 C   0  0  0  0  0  0  0  0  0  0  0  0
  152.7961  141.2681  160.4937 C   0  0  2  0  0  0  0  0  0  0  0  0
  152.6674  141.0028  159.0953 O   0  0  0  0  0  0  0  0  0  0  0  0
  152.3038  142.1680  158.4219 C   0  0  1  0  0  0  0  0  0  0  0  0
  151.3128  141.8223  157.3556 N   0  0  0  0  0  0  0  0  0  0  0  0
  150.1793  142.4828  157.0858 C   0  0  0  0  0  0  0  0  0  0  0  0
  149.4759  141.9807  156.0853 N   0  0  0  0  0  0  0  0  0  0  0  0
  150.2317  140.8910  155.6568 C   0  0  0  0  0  0  0  0  0  0  0  0
  151.3802  140.7788  156.4277 C   0  0  0  0  0  0  0  0  0  0  0  0
  152.4692  139.9295  156.4746 N   0  0  0  0  0  0  0  0  0  0  0  0
  152.7119  139.1897  155.4388 C   0  0  0  0  0  0  0  0  0  0  0  0
  151.9913  139.0267  154.2643 N   0  0  0  0  0  0  0  0  0  0  0  0
  150.5587  138.7877  154.2310 C   0  0  0  0  0  0  0  0  0  0  0  0
  149.7236  140.0385  154.5301 C   0  0  2  0  0  0  0  0  0  0  0  0
  149.6803  140.8575  153.3793 O   0  0  0  0  0  0  0  0  0  0  0  0
  151.6740  143.0853  159.4598 C   0  0  0  0  0  0  0  0  0  0  0  0
  152.5501  142.7778  160.6539 C   0  0  1  0  0  0  0  0  0  0  0  0
  151.8835  143.0956  161.8582 O   0  0  0  0  0  0  0  0  0  0  0  0
  152.0059  140.6998  160.9876 H   0  0  0  0  0  0  0  0  0  0  0  0
  153.1722  142.5968  157.9206 H   0  0  0  0  0  0  0  0  0  0  0  0
  148.6987  139.7276  154.7343 H   0  0  0  0  0  0  0  0  0  0  0  0
  153.4839  143.3371  160.5814 H   0  0  0  0  0  0  0  0  0  0  0  0
  155.2224  139.1683  160.9667 H   0  0  0  0  0  0  0  0  0  0  0  0
  154.2745  140.9059  162.0564 H   0  0  0  0  0  0  0  0  0  0  0  0
  154.9595  141.3950  160.5163 H   0  0  0  0  0  0  0  0  0  0  0  0
  149.8614  143.3549  157.6383 H   0  0  0  0  0  0  0  0  0  0  0  0
  153.6113  138.5721  155.4440 H   0  0  0  0  0  0  0  0  0  0  0  0
  152.4513  138.5996  153.4732 H   0  0  0  0  0  0  0  0  0  0  0  0
  150.2773  138.3539  153.2710 H   0  0  0  0  0  0  0  0  0  0  0  0
  150.3391  138.0295  154.9844 H   0  0  0  0  0  0  0  0  0  0  0  0
  149.5442  140.3019  152.6268 H   0  0  0  0  0  0  0  0  0  0  0  0
  151.6999  144.1277  159.1408 H   0  0  0  0  0  0  0  0  0  0  0  0
  150.6403  142.7824  159.6378 H   0  0  0  0  0  0  0  0  0  0  0  0
  151.8916  144.0342  161.9673 H   0  0  0  0  0  0  0  0  0  0  0  0
  1  2  1  0  0  0  0
  1 24  1  0  0  0  0
  2  3  1  0  0  0  0
  2 25  1  0  0  0  0
  2 26  1  0  0  0  0
  3 20  1  0  0  0  0
  3 18  1  0  0  0  0
  3  4  1  0  0  0  0
  4  5  1  0  0  0  0
  5 21  1  0  0  0  0
  5  6  1  0  0  0  0
  5 17  1  0  0  0  0
  6 10  1  0  0  0  0
  6  7  1  0  0  0  0
  7  8  2  0  0  0  0
  7 27  1  0  0  0  0
  8  9  1  0  0  0  0
  9 15  1  0  0  0  0
  9 10  2  0  0  0  0
 10 11  1  0  0  0  0
 11 12  2  0  0  0  0
 12 13  1  0  0  0  0
 12 28  1  0  0  0  0
 13 14  1  0  0  0  0
 13 29  1  0  0  0  0
 14 15  1  0  0  0  0
 14 30  1  0  0  0  0
 14 31  1  0  0  0  0
 15 22  1  0  0  0  0
 15 16  1  0  0  0  0
 16 32  1  0  0  0  0
 17 18  1  0  0  0  0
 17 33  1  0  0  0  0
 17 34  1  0  0  0  0
 18 23  1  0  0  0  0
 18 19  1  0  0  0  0
 19 35  1  0  0  0  0
M  END
> <s_m_source_file>
AV-unprocessed.smi

> <i_m_source_file_index>
157

> <i_lp_mmshare_version>
43012

> <i_f3d_flags>
0

> <s_epik_input>
W09IXVtDSDJdW0NASF0xT1tDQEhdKFtDSDJdW0NAQEhdMVtPSF0pbihbY0hdbjIpYyhjMjMpTj1bQ0hdW05IXVtDSDJdW0NASF0zW09IXQ==

> <s_epik_cmdline>
J2VwaWtfcHl0aG9uJywgJy1waCcsICc3LjAnLCAnLXRuJywgJzgnLCAnLW1hJywgJzIwMCcsICctbWV0YWxfYmluZGluZycsICctaW1hZScsICc8aW5maWxlLm1hZT4nLCAnLW9tYWUnLCAnPG91dGZpbGUubWFlPic=

> <r_lp_tautomer_probability>
1

> <r_epik_Ionization_Penalty>
0.0357149

> <r_epik_Ionization_Penalty_Charging>
0.0355056

> <r_epik_Ionization_Penalty_Neutral>
0.000209255

> <r_epik_State_Penalty>
0.0296046

> <r_epik_Charging_Adjusted_Penalty>
0.0651102

> <i_epik_Tot_Q>
0

> <i_epik_Tot_abs_Q>
0

> <r_epik_Metal_State_Penalty>
3.03559e-05

> <b_epik_Metal_Only>
0

> <s_epik_Chemistry_Notes>
This compound has an imine and may undergo hydrolysis. This compound contains an acetal/aminal-like group ( X-CH(R)-Y where X, Y are N, S, or O) that may be acid/base labile, releasing an aldehyde.

> <s_lp_Force_Field>
OPLS_2005

> <r_lp_Energy>
43.9106

> <b_lp_Chiralities_Consistent>
1

> <s_lp_Variant>
AV-unprocessed.smi:157-14

> <Gold.Version>
5.8.1

> <Gold.Id.Protein>
6NUR|6NUR_protein|mol2

> <Gold.PLP.Fitness>
42.1174

> <Gold.PLP.PLP>
-34.9935

> <Gold.PLP.part.hbond>
-4.9503

> <Gold.PLP.part.metal>
0.0000

> <Gold.PLP.part.buried>
-1.6206

> <Gold.PLP.part.nonpolar>
-29.0310

> <Gold.PLP.part.repulsive>
1.8367

> <Gold.PLP.ligand.clash>
0.0000

> <Gold.PLP.ligand.torsion>
0.4417

> <Gold.PLP.Chemscore.Hbond>
2.3615

> <Gold.PLP.Chemscore.CHOScore>
0.3027

> <Gold.PLP.Chemscore.Metal>
0.0000

> <Gold.Chemscore.Hbonds>
donor molecule, donor type, donor heavy atom, donor atom, acceptor molecule, acceptor atom, score
      L1  H    16    32       P1  7957  0.89
      P1  H  6933  6945       L1    19  0.26
      P1  H  7989  7998       L1    16  0.10
      P1  H  7997  8008       L1    11  0.30
      P1  H  8011  8017       L1    16  0.65
      L1  C     7    27       P1  8028  0.34

> <Gold.PLP.Chemscore.Internal.Correction>
0.0148

> <Gold.Rescore>
     Score         DG    S(hbond)    S(metal)    S(lipo)     H(rot)  DE(clash)    DE(int)     intcor
      3.93      -5.90       0.78        0.00      60.97       3.64       0.40       1.57       ----

> <Gold.Chemscore.Fitness>
3.9317

> <Gold.Chemscore.DG>
-5.9025

> <Gold.Chemscore.ZeroCoef>
-5.4800

> <Gold.Chemscore.Hbond>
0.7779

> <Gold.Chemscore.Metal>
0.0000

> <Gold.Chemscore.Lipo>
60.9653

> <Gold.Chemscore.Internal_Hbond>
0.0000

> <Gold.Chemscore.DEClash>
0.3978

> <Gold.Chemscore.DEInternal>
1.5730

> <Gold.Chemscore.Rot>
3.6362

> <Gold.Chemscore.Internal.Correction>
   9.000000E+99

> <Gold.Chemscore.Hbonds>
donor molecule, donor type, donor heavy atom, donor atom, acceptor molecule, acceptor atom, score
      L1  H    16    32       P1  7957  0.83
      P1  H  6933  6945       L1    19  0.21
      P1  H  7997  8008       L1    11  0.02
      P1  H  8011  8017       L1    16  0.06

> <Gold.Chemscore.Hbond.Weighted>
-2.5983

> <Gold.Chemscore.Metal.Weighted>
-0.0000

> <Gold.Chemscore.Lipo.Weighted>
-7.1329

> <Gold.Chemscore.Internal_Hbond.Weighted>
0.0000

> <Gold.Chemscore.DEClash.Weighted>
0.3978

> <Gold.Chemscore.DEInternal.Weighted>
1.5730

> <Gold.Chemscore.Rot.Weighted>
9.3087

> <Gold.Chemscore.Internal.Correction.Weighted>
   9.000000E+99

> <Gold.Protein.RotatedTorsions>
[ 6907 6896 6895 6894 ] final   15.84 input  -60.11 | X-H torsion
[ 7974 7965 7964 7962 ] final  110.96 input  175.53 | X-H torsion
[ 8008 7997 7996 7995 ] final  -79.03 input   59.86 | X-H torsion
[ 10167 10162 10161 10158 ] final -102.73 input  -65.29 | X-H torsion
[ 10718 10713 10712 10709 ] final  -93.76 input   66.30 | X-H torsion
[ 10763 10752 10751 10750 ] final   99.03 input  -60.55 | X-H torsion
[ 11005 11000 10999 10996 ] final  -84.30 input  -57.11 | X-H torsion

> <Gold.Protein.ActiveResidues>
 VAL166  LYS551  ARG553  GLY616  TRP617  ASP618  TYR619  PRO620  LYS621  CYS622 
 ASP623  PHE694  ASN695  SER759  ASP760  ASP761  ALA762  ILE779  LEU786  VAL792 
 PHE793  MET794  SER795  GLU796  ALA797  LYS798  CYS799  TRP800  GLU811  SER814 

> <Gold.Protein.RotatedAtoms>
  151.8244  135.0641  160.0428 H   0  0  0  0  0  0  0  0  0  0  0  0  # atno 6907 bound_to 6896
  152.2927  133.5573  159.5576 H   0  0  0  0  0  0  0  0  0  0  0  0  # atno 6908 bound_to 6896
  150.7237  134.0321  159.3779 H   0  0  0  0  0  0  0  0  0  0  0  0  # atno 6909 bound_to 6896
  145.2483  139.2750  143.4081 H   0  0  0  0  0  0  0  0  0  0  0  0  # atno 7974 bound_to 7965
  154.5746  140.0685  156.9015 H   0  0  0  0  0  0  0  0  0  0  0  0  # atno 8008 bound_to 7997
  155.2572  140.3356  155.4258 H   0  0  0  0  0  0  0  0  0  0  0  0  # atno 8009 bound_to 7997
  156.2144  140.1772  156.7607 H   0  0  0  0  0  0  0  0  0  0  0  0  # atno 8010 bound_to 7997
  140.2276  143.3630  152.0915 H   0  0  0  0  0  0  0  0  0  0  0  0  # atno 10167 bound_to 10162
  156.0017  130.5040  150.5825 H   0  0  0  0  0  0  0  0  0  0  0  0  # atno 10718 bound_to 10713
  153.2963  135.4128  155.1213 H   0  0  0  0  0  0  0  0  0  0  0  0  # atno 10763 bound_to 10752
  154.8536  135.3530  154.5912 H   0  0  0  0  0  0  0  0  0  0  0  0  # atno 10764 bound_to 10752
  153.6336  135.7060  153.5325 H   0  0  0  0  0  0  0  0  0  0  0  0  # atno 10765 bound_to 10752
  141.1651  133.7339  156.8848 H   0  0  0  0  0  0  0  0  0  0  0  0  # atno 11005 bound_to 11000
  146.3309  140.2867  142.8613 LP  0  0  0  0  0  0  0  0  0  0  0  0  # atno 17320 bound_to 7965
  144.9526  140.8194  143.5563 LP  0  0  0  0  0  0  0  0  0  0  0  0  # atno 17321 bound_to 7965
  139.5121  144.6912  151.5754 LP  0  0  0  0  0  0  0  0  0  0  0  0  # atno 17342 bound_to 10162
  140.6209  143.9260  150.6525 LP  0  0  0  0  0  0  0  0  0  0  0  0  # atno 17343 bound_to 10162
  157.3703  131.0764  151.1563 LP  0  0  0  0  0  0  0  0  0  0  0  0  # atno 17370 bound_to 10713
  157.2319  130.6529  149.5853 LP  0  0  0  0  0  0  0  0  0  0  0  0  # atno 17371 bound_to 10713
  140.1690  134.9113  157.2809 LP  0  0  0  0  0  0  0  0  0  0  0  0  # atno 17394 bound_to 11000
  140.2524  134.3667  155.7437 LP  0  0  0  0  0  0  0  0  0  0  0  0  # atno 17395 bound_to 11000

$$$$
