AV-unprocessed.smi:2270|AV-procd|sdf|9159|dock5
  -GOLD-   2272012363D 1   1.00000     0.00000
 Structure written by MMmdl.
 52 53  0  0  0  0  0  0  0  0  1 V2000
  146.1825  130.4510  151.7906 C   0  0  0  0  0  0  0  0  0  0  0  0
  145.6065  131.7846  151.3641 C   0  0  0  0  0  0  0  0  0  0  0  0
  144.4271  131.8524  150.5967 C   0  0  0  0  0  0  0  0  0  0  0  0
  143.9408  133.1227  150.2395 C   0  0  0  0  0  0  0  0  0  0  0  0
  144.6475  134.2649  150.6629 C   0  0  0  0  0  0  0  0  0  0  0  0
  145.8245  134.1093  151.4296 C   0  0  0  0  0  0  0  0  0  0  0  0
  146.4586  135.3203  151.8141 N   0  0  0  0  0  0  0  0  0  0  0  0
  145.8833  136.4654  152.2217 C   0  0  0  0  0  0  0  0  0  0  0  0
  144.6762  136.6310  152.3984 O   0  0  0  0  0  0  0  0  0  0  0  0
  146.8011  137.4235  152.4175 N   0  0  0  0  0  0  0  0  0  0  0  0
  146.5309  138.7943  152.8432 C   0  0  0  0  0  0  0  0  0  0  0  0
  147.6713  139.3749  153.7254 C   0  0  1  0  0  0  0  0  0  0  0  0
  147.8077  140.9274  153.6500 C   0  0  0  0  0  0  0  0  0  0  0  0
  149.0853  141.4223  154.3491 C   0  0  0  0  0  0  0  0  0  0  0  0
  146.5859  141.7464  154.1051 C   0  0  0  0  0  0  0  0  0  0  0  0
  147.7315  138.8262  155.0939 N   0  0  0  0  0  0  0  0  0  0  0  0
  146.5099  138.9894  155.8924 C   0  0  0  0  0  0  0  0  0  0  0  0
  146.7188  138.4999  157.3374 C   0  0  0  0  0  0  0  0  0  0  0  0
  147.1179  137.0940  157.3730 N   0  0  0  0  0  0  0  0  0  0  0  0
  147.3115  136.6278  158.7374 C   0  0  0  0  0  0  0  0  0  0  0  0
  148.3270  136.9225  156.5703 C   0  0  0  0  0  0  0  0  0  0  0  0
  148.1176  137.4126  155.1256 C   0  0  0  0  0  0  0  0  0  0  0  0
  146.2852  132.8795  151.7689 N   0  0  0  0  0  0  0  0  0  0  0  0
  145.7214  129.6288  151.2429 H   0  0  0  0  0  0  0  0  0  0  0  0
  146.0114  130.2916  152.8554 H   0  0  0  0  0  0  0  0  0  0  0  0
  147.2569  130.4210  151.6064 H   0  0  0  0  0  0  0  0  0  0  0  0
  143.9071  130.9567  150.2899 H   0  0  0  0  0  0  0  0  0  0  0  0
  143.0401  133.2207  149.6518 H   0  0  0  0  0  0  0  0  0  0  0  0
  144.2864  135.2483  150.3989 H   0  0  0  0  0  0  0  0  0  0  0  0
  147.4657  135.3216  151.7497 H   0  0  0  0  0  0  0  0  0  0  0  0
  147.7684  137.1901  152.2480 H   0  0  0  0  0  0  0  0  0  0  0  0
  146.3296  139.4369  151.9855 H   0  0  0  0  0  0  0  0  0  0  0  0
  145.5992  138.7586  153.4066 H   0  0  0  0  0  0  0  0  0  0  0  0
  148.5841  139.0315  153.2359 H   0  0  0  0  0  0  0  0  0  0  0  0
  147.9483  141.1725  152.5975 H   0  0  0  0  0  0  0  0  0  0  0  0
  149.0370  141.2668  155.4272 H   0  0  0  0  0  0  0  0  0  0  0  0
  149.2385  142.4879  154.1766 H   0  0  0  0  0  0  0  0  0  0  0  0
  149.9671  140.9002  153.9766 H   0  0  0  0  0  0  0  0  0  0  0  0
  146.5127  141.7978  155.1905 H   0  0  0  0  0  0  0  0  0  0  0  0
  145.6501  141.3478  153.7169 H   0  0  0  0  0  0  0  0  0  0  0  0
  146.6665  142.7745  153.7512 H   0  0  0  0  0  0  0  0  0  0  0  0
  146.1941  140.0273  155.9209 H   0  0  0  0  0  0  0  0  0  0  0  0
  145.6881  138.4297  155.4443 H   0  0  0  0  0  0  0  0  0  0  0  0
  147.4748  139.1167  157.8262 H   0  0  0  0  0  0  0  0  0  0  0  0
  145.7948  138.6343  157.9008 H   0  0  0  0  0  0  0  0  0  0  0  0
  147.5907  135.5738  158.7491 H   0  0  0  0  0  0  0  0  0  0  0  0
  146.3932  136.7343  159.3156 H   0  0  0  0  0  0  0  0  0  0  0  0
  148.0975  137.1932  159.2399 H   0  0  0  0  0  0  0  0  0  0  0  0
  149.1572  137.4671  157.0229 H   0  0  0  0  0  0  0  0  0  0  0  0
  148.6142  135.8708  156.5570 H   0  0  0  0  0  0  0  0  0  0  0  0
  147.3593  136.7974  154.6408 H   0  0  0  0  0  0  0  0  0  0  0  0
  149.0425  137.2674  154.5668 H   0  0  0  0  0  0  0  0  0  0  0  0
  1  2  1  0  0  0  0
  1 24  1  0  0  0  0
  1 25  1  0  0  0  0
  1 26  1  0  0  0  0
  2 23  1  0  0  0  0
  2  3  2  0  0  0  0
  3  4  1  0  0  0  0
  3 27  1  0  0  0  0
  4  5  2  0  0  0  0
  4 28  1  0  0  0  0
  5  6  1  0  0  0  0
  5 29  1  0  0  0  0
  6  7  1  0  0  0  0
  6 23  2  0  0  0  0
  7  8  1  0  0  0  0
  7 30  1  0  0  0  0
  8  9  2  0  0  0  0
  8 10  1  0  0  0  0
 10 11  1  0  0  0  0
 10 31  1  0  0  0  0
 11 12  1  0  0  0  0
 11 32  1  0  0  0  0
 11 33  1  0  0  0  0
 12 13  1  0  0  0  0
 12 16  1  0  0  0  0
 12 34  1  0  0  0  0
 13 14  1  0  0  0  0
 13 15  1  0  0  0  0
 13 35  1  0  0  0  0
 14 36  1  0  0  0  0
 14 37  1  0  0  0  0
 14 38  1  0  0  0  0
 15 39  1  0  0  0  0
 15 40  1  0  0  0  0
 15 41  1  0  0  0  0
 16 22  1  0  0  0  0
 16 17  1  0  0  0  0
 17 18  1  0  0  0  0
 17 42  1  0  0  0  0
 17 43  1  0  0  0  0
 18 19  1  0  0  0  0
 18 44  1  0  0  0  0
 18 45  1  0  0  0  0
 19 20  1  0  0  0  0
 19 21  1  0  0  0  0
 20 46  1  0  0  0  0
 20 47  1  0  0  0  0
 20 48  1  0  0  0  0
 21 22  1  0  0  0  0
 21 49  1  0  0  0  0
 21 50  1  0  0  0  0
 22 51  1  0  0  0  0
 22 52  1  0  0  0  0
M  END
> <s_m_source_file>
AV-unprocessed.smi

> <i_m_source_file_index>
2270

> <i_lp_mmshare_version>
43012

> <i_f3d_flags>
0

> <s_epik_input>
W0NIM11jMVtjSF1bY0hdW2NIXWMobjEpW05IXUMoPU8pW05IXVtDSDJdW0NASF0oW0NIXShbQ0gzXSlbQ0gzXSlOMltDSDJdW0NIMl1OKFtDSDNdKVtDSDJdW0NIMl0y

> <s_epik_cmdline>
J2VwaWtfcHl0aG9uJywgJy1waCcsICc3LjAnLCAnLXRuJywgJzgnLCAnLW1hJywgJzIwMCcsICctbWV0YWxfYmluZGluZycsICctaW1hZScsICc8aW5maWxlLm1hZT4nLCAnLW9tYWUnLCAnPG91dGZpbGUubWFlPic=

> <r_epik_Ionization_Penalty>
2.57754

> <r_epik_Ionization_Penalty_Charging>
0

> <r_epik_Ionization_Penalty_Neutral>
2.57754

> <r_epik_State_Penalty>
2.00874

> <r_epik_Charging_Adjusted_Penalty>
2.00874

> <i_epik_Tot_Q>
0

> <i_epik_Tot_abs_Q>
0

> <r_epik_Metal_State_Penalty>
2.00874

> <b_epik_Metal_Only>
0

> <s_lp_Force_Field>
OPLS_2005

> <r_lp_Energy>
49.2336

> <b_lp_Chiralities_Consistent>
1

> <s_lp_Variant>
AV-unprocessed.smi:2270-6

> <Gold.Version>
5.8.1

> <Gold.Id.Protein>
6NUR|6NUR_protein|mol2

> <Gold.PLP.Fitness>
37.6577

> <Gold.PLP.PLP>
-33.2530

> <Gold.PLP.part.hbond>
-1.8712

> <Gold.PLP.part.metal>
0.0000

> <Gold.PLP.part.buried>
-3.0578

> <Gold.PLP.part.nonpolar>
-28.8955

> <Gold.PLP.part.repulsive>
0.5034

> <Gold.PLP.ligand.clash>
0.0000

> <Gold.PLP.ligand.torsion>
0.9717

> <Gold.PLP.Chemscore.Hbond>
1.9760

> <Gold.PLP.Chemscore.CHOScore>
0.0000

> <Gold.PLP.Chemscore.Metal>
0.0000

> <Gold.Chemscore.Hbonds>
donor molecule, donor type, donor heavy atom, donor atom, acceptor molecule, acceptor atom, score
      L1  H     7    30       P1  7948  0.99
      L1  H    10    31       P1  7948  1.00

> <Gold.PLP.Chemscore.Internal.Correction>
0.4202

> <Gold.Rescore>
     Score         DG    S(hbond)    S(metal)    S(lipo)     H(rot)  DE(clash)    DE(int)     intcor
     14.96     -17.49       1.85        0.00      83.98       1.56       0.06       2.47       ----

> <Gold.Chemscore.Fitness>
14.9584

> <Gold.Chemscore.DG>
-17.4905

> <Gold.Chemscore.ZeroCoef>
-5.4800

> <Gold.Chemscore.Hbond>
1.8507

> <Gold.Chemscore.Metal>
0.0000

> <Gold.Chemscore.Lipo>
83.9814

> <Gold.Chemscore.Internal_Hbond>
0.0000

> <Gold.Chemscore.DEClash>
0.0620

> <Gold.Chemscore.DEInternal>
2.4701

> <Gold.Chemscore.Rot>
1.5612

> <Gold.Chemscore.Internal.Correction>
   9.000000E+99

> <Gold.Chemscore.Hbonds>
donor molecule, donor type, donor heavy atom, donor atom, acceptor molecule, acceptor atom, score
      L1  H     7    30       P1  7948  0.89
      L1  H    10    31       P1  7948  0.94

> <Gold.Chemscore.Hbond.Weighted>
-6.1813

> <Gold.Chemscore.Metal.Weighted>
-0.0000

> <Gold.Chemscore.Lipo.Weighted>
-9.8258

> <Gold.Chemscore.Internal_Hbond.Weighted>
0.0000

> <Gold.Chemscore.DEClash.Weighted>
0.0620

> <Gold.Chemscore.DEInternal.Weighted>
2.4701

> <Gold.Chemscore.Rot.Weighted>
3.9966

> <Gold.Chemscore.Internal.Correction.Weighted>
   9.000000E+99

> <Gold.Protein.RotatedTorsions>
[ 6907 6896 6895 6894 ] final    8.32 input  -60.11 | X-H torsion
[ 7974 7965 7964 7962 ] final   32.27 input  175.53 | X-H torsion
[ 8008 7997 7996 7995 ] final  -44.14 input   59.86 | X-H torsion
[ 10167 10162 10161 10158 ] final -151.00 input  -65.29 | X-H torsion
[ 10718 10713 10712 10709 ] final  144.79 input   66.30 | X-H torsion
[ 10763 10752 10751 10750 ] final -116.33 input  -60.55 | X-H torsion
[ 11005 11000 10999 10996 ] final  148.57 input  -57.11 | X-H torsion

> <Gold.Protein.ActiveResidues>
 VAL166  LYS551  ARG553  GLY616  TRP617  ASP618  TYR619  PRO620  LYS621  CYS622 
 ASP623  PHE694  ASN695  SER759  ASP760  ASP761  ALA762  ILE779  LEU786  VAL792 
 PHE793  MET794  SER795  GLU796  ALA797  LYS798  CYS799  TRP800  GLU811  SER814 

> <Gold.Protein.RotatedAtoms>
  151.7041  135.0924  160.0255 H   0  0  0  0  0  0  0  0  0  0  0  0  # atno 6907 bound_to 6896
  152.3702  133.6405  159.6090 H   0  0  0  0  0  0  0  0  0  0  0  0  # atno 6908 bound_to 6896
  150.7668  133.9199  159.3436 H   0  0  0  0  0  0  0  0  0  0  0  0  # atno 6909 bound_to 6896
  146.1497  139.6548  142.9107 H   0  0  0  0  0  0  0  0  0  0  0  0  # atno 7974 bound_to 7965
  154.3997  140.1430  156.3635 H   0  0  0  0  0  0  0  0  0  0  0  0  # atno 8008 bound_to 7997
  155.8159  140.3471  155.5464 H   0  0  0  0  0  0  0  0  0  0  0  0  # atno 8009 bound_to 7997
  155.8338  140.0916  157.1767 H   0  0  0  0  0  0  0  0  0  0  0  0  # atno 8010 bound_to 7997
  139.7305  143.8816  152.2533 H   0  0  0  0  0  0  0  0  0  0  0  0  # atno 10167 bound_to 10162
  157.3529  131.0953  151.0984 H   0  0  0  0  0  0  0  0  0  0  0  0  # atno 10718 bound_to 10713
  154.8515  135.4349  154.1804 H   0  0  0  0  0  0  0  0  0  0  0  0  # atno 10763 bound_to 10752
  153.2896  135.6960  153.7312 H   0  0  0  0  0  0  0  0  0  0  0  0  # atno 10764 bound_to 10752
  153.6484  135.3455  155.3067 H   0  0  0  0  0  0  0  0  0  0  0  0  # atno 10765 bound_to 10752
  140.0971  134.9006  157.1739 H   0  0  0  0  0  0  0  0  0  0  0  0  # atno 11005 bound_to 11000
  145.4853  141.0438  143.2623 LP  0  0  0  0  0  0  0  0  0  0  0  0  # atno 17320 bound_to 7965
  144.7889  139.6369  143.7122 LP  0  0  0  0  0  0  0  0  0  0  0  0  # atno 17321 bound_to 7965
  139.8738  144.7054  150.8957 LP  0  0  0  0  0  0  0  0  0  0  0  0  # atno 17342 bound_to 10162
  140.7770  143.3717  151.1638 LP  0  0  0  0  0  0  0  0  0  0  0  0  # atno 17343 bound_to 10162
  157.2152  130.6456  149.5789 LP  0  0  0  0  0  0  0  0  0  0  0  0  # atno 17370 bound_to 10713
  155.9724  130.4647  150.6227 LP  0  0  0  0  0  0  0  0  0  0  0  0  # atno 17371 bound_to 10713
  140.3272  134.2851  155.7235 LP  0  0  0  0  0  0  0  0  0  0  0  0  # atno 17394 bound_to 11000
  141.2095  133.7747  156.9993 LP  0  0  0  0  0  0  0  0  0  0  0  0  # atno 17395 bound_to 11000

$$$$
