AV-unprocessed.smi:581|AV-procd|sdf|2993|dock4
  -GOLD-   2262023493D 1   1.00000     0.00000
 Structure written by MMmdl.
 35 36  0  0  0  0  0  0  0  0  2 V2000
  152.1895  139.0964  155.1555 C   0  0  0  0  0  0  0  0  0  0  0  0
  151.7290  140.1283  156.1686 C   0  0  0  0  0  0  0  0  0  0  0  0
  152.5086  140.2681  157.2627 N   0  0  0  0  0  0  0  0  0  0  0  0
  152.1383  141.1596  158.1894 C   0  0  0  0  0  0  0  0  0  0  0  0
  152.9513  141.2921  159.3228 N   0  0  0  0  0  0  0  0  0  0  0  0
  152.9403  142.4956  160.1575 C   0  0  0  0  0  0  0  0  0  0  0  0
  153.1985  142.1381  161.6308 C   0  0  0  0  0  0  0  0  0  0  0  0
  154.4141  141.4085  161.7448 O   0  0  0  0  0  0  0  0  0  0  0  0
  154.3594  140.1835  161.0243 C   0  0  0  0  0  0  0  0  0  0  0  0
  154.1451  140.4683  159.5284 C   0  0  0  0  0  0  0  0  0  0  0  0
  151.0461  141.9302  158.1146 N   0  0  0  0  0  0  0  0  0  0  0  0
  150.2515  141.8104  157.0298 C   0  0  0  0  0  0  0  0  0  0  0  0
  149.1362  142.5941  156.9652 O   0  0  0  0  0  0  0  0  0  0  0  0
  150.5552  140.8995  155.9912 C   0  0  0  0  0  0  0  0  0  0  0  0
  149.6588  140.7536  154.7668 C   0  0  0  0  0  0  0  0  0  0  0  0
  149.0069  139.3581  154.6901 C   0  0  0  0  0  0  0  0  0  0  0  0
  147.7749  139.3138  153.7763 C   0  0  0  0  0  0  0  0  0  0  0  0
  147.2178  138.2012  153.6539 O   0  0  0  0  0  0  0  0  0  0  0  0
  147.4067  140.3670  153.2094 O   0  5  0  0  0  0  0  0  0  0  0  0
  149.2580  143.3559  156.4205 H   0  0  0  0  0  0  0  0  0  0  0  0
  151.3858  138.3962  154.9279 H   0  0  0  0  0  0  0  0  0  0  0  0
  153.0375  138.5216  155.5301 H   0  0  0  0  0  0  0  0  0  0  0  0
  152.4963  139.5845  154.2305 H   0  0  0  0  0  0  0  0  0  0  0  0
  151.9922  143.0292  160.0975 H   0  0  0  0  0  0  0  0  0  0  0  0
  153.7107  143.1778  159.7965 H   0  0  0  0  0  0  0  0  0  0  0  0
  153.2732  143.0466  162.2286 H   0  0  0  0  0  0  0  0  0  0  0  0
  152.3711  141.5560  162.0397 H   0  0  0  0  0  0  0  0  0  0  0  0
  155.2950  139.6438  161.1721 H   0  0  0  0  0  0  0  0  0  0  0  0
  153.5616  139.5512  161.4179 H   0  0  0  0  0  0  0  0  0  0  0  0
  155.0067  140.9992  159.1225 H   0  0  0  0  0  0  0  0  0  0  0  0
  154.0878  139.5155  159.0032 H   0  0  0  0  0  0  0  0  0  0  0  0
  150.2375  140.9546  153.8652 H   0  0  0  0  0  0  0  0  0  0  0  0
  148.8889  141.5257  154.7952 H   0  0  0  0  0  0  0  0  0  0  0  0
  149.7295  138.6280  154.3247 H   0  0  0  0  0  0  0  0  0  0  0  0
  148.7085  139.0334  155.6878 H   0  0  0  0  0  0  0  0  0  0  0  0
  1 21  1  0  0  0  0
  1 22  1  0  0  0  0
  1 23  1  0  0  0  0
  1  2  1  0  0  0  0
  2 14  2  0  0  0  0
  2  3  1  0  0  0  0
  3  4  2  0  0  0  0
  4  5  1  0  0  0  0
  4 11  1  0  0  0  0
  5 10  1  0  0  0  0
  5  6  1  0  0  0  0
  6  7  1  0  0  0  0
  6 24  1  0  0  0  0
  6 25  1  0  0  0  0
  7  8  1  0  0  0  0
  7 26  1  0  0  0  0
  7 27  1  0  0  0  0
  8  9  1  0  0  0  0
  9 10  1  0  0  0  0
  9 28  1  0  0  0  0
  9 29  1  0  0  0  0
 10 30  1  0  0  0  0
 10 31  1  0  0  0  0
 11 12  2  0  0  0  0
 12 13  1  0  0  0  0
 12 14  1  0  0  0  0
 13 20  1  0  0  0  0
 14 15  1  0  0  0  0
 15 16  1  0  0  0  0
 15 32  1  0  0  0  0
 15 33  1  0  0  0  0
 16 17  1  0  0  0  0
 16 34  1  0  0  0  0
 16 35  1  0  0  0  0
 17 18  2  0  0  0  0
 17 19  1  0  0  0  0
M  CHG  1  19  -1
M  END
> <s_m_source_file>
AV-unprocessed.smi

> <i_m_source_file_index>
581

> <i_lp_mmshare_version>
43012

> <i_f3d_flags>
0

> <s_epik_input>
W0NIMl0xW0NIMl1PW0NIMl1bQ0gyXU4xYyhuYzJbQ0gzXSlbbkhdYyg9TyljMltDSDJdW0NIMl1DKD1PKVtPSF0=

> <s_epik_cmdline>
J2VwaWtfcHl0aG9uJywgJy1waCcsICc3LjAnLCAnLXRuJywgJzgnLCAnLW1hJywgJzIwMCcsICctbWV0YWxfYmluZGluZycsICctaW1hZScsICc8aW5maWxlLm1hZT4nLCAnLW9tYWUnLCAnPG91dGZpbGUubWFlPic=

> <r_lp_tautomer_probability>
0.0131408

> <r_epik_Ionization_Penalty>
9.14148

> <r_epik_Ionization_Penalty_Charging>
0.00124504

> <r_epik_Ionization_Penalty_Neutral>
9.14023

> <r_epik_State_Penalty>
2.72329

> <r_epik_Charging_Adjusted_Penalty>
2.72453

> <i_epik_Tot_Q>
-1

> <i_epik_Tot_abs_Q>
1

> <r_epik_Metal_State_Penalty>
2.96989

> <b_epik_Metal_Only>
0

> <s_lp_Force_Field>
OPLS_2005

> <r_lp_Energy>
10.3836

> <b_lp_Chiralities_Consistent>
1

> <s_lp_Variant>
AV-unprocessed.smi:581-3

> <Gold.Version>
5.8.1

> <Gold.Id.Protein>
6NUR|6NUR_protein|mol2

> <Gold.PLP.Fitness>
42.4269

> <Gold.PLP.PLP>
-36.7644

> <Gold.PLP.part.hbond>
-2.8944

> <Gold.PLP.part.metal>
0.0000

> <Gold.PLP.part.buried>
-3.0857

> <Gold.PLP.part.nonpolar>
-30.9249

> <Gold.PLP.part.repulsive>
1.0510

> <Gold.PLP.ligand.clash>
0.0000

> <Gold.PLP.ligand.torsion>
0.2135

> <Gold.PLP.Chemscore.Hbond>
2.0000

> <Gold.PLP.Chemscore.CHOScore>
0.0000

> <Gold.PLP.Chemscore.Metal>
0.0000

> <Gold.Chemscore.Hbonds>
donor molecule, donor type, donor heavy atom, donor atom, acceptor molecule, acceptor atom, score
      L1  H    13    20       P1  8028  1.00
      P1  H  7997  8010       L1     3  1.00

> <Gold.PLP.Chemscore.Internal.Correction>
0.0894

> <Gold.Rescore>
     Score         DG    S(hbond)    S(metal)    S(lipo)     H(rot)  DE(clash)    DE(int)     intcor
     12.81     -13.22       1.68        0.00      72.30       2.48       0.16       0.24       ----

> <Gold.Chemscore.Fitness>
12.8142

> <Gold.Chemscore.DG>
-13.2152

> <Gold.Chemscore.ZeroCoef>
-5.4800

> <Gold.Chemscore.Hbond>
1.6820

> <Gold.Chemscore.Metal>
0.0000

> <Gold.Chemscore.Lipo>
72.3008

> <Gold.Chemscore.Internal_Hbond>
0.0000

> <Gold.Chemscore.DEClash>
0.1569

> <Gold.Chemscore.DEInternal>
0.2441

> <Gold.Chemscore.Rot>
2.4774

> <Gold.Chemscore.Internal.Correction>
   9.000000E+99

> <Gold.Chemscore.Hbonds>
donor molecule, donor type, donor heavy atom, donor atom, acceptor molecule, acceptor atom, score
      L1  H    13    20       P1  8028  0.98
      P1  H  7997  8010       L1     3  0.51

> <Gold.Chemscore.Hbond.Weighted>
-5.6180

> <Gold.Chemscore.Metal.Weighted>
-0.0000

> <Gold.Chemscore.Lipo.Weighted>
-8.4592

> <Gold.Chemscore.Internal_Hbond.Weighted>
0.0000

> <Gold.Chemscore.DEClash.Weighted>
0.1569

> <Gold.Chemscore.DEInternal.Weighted>
0.2441

> <Gold.Chemscore.Rot.Weighted>
6.3420

> <Gold.Chemscore.Internal.Correction.Weighted>
   9.000000E+99

> <Gold.Protein.RotatedTorsions>
[ 6907 6896 6895 6894 ] final  -55.58 input  -60.11 | X-H torsion
[ 7974 7965 7964 7962 ] final  155.90 input  175.53 | X-H torsion
[ 8008 7997 7996 7995 ] final   60.31 input   59.86 | X-H torsion
[ 10167 10162 10161 10158 ] final -138.64 input  -65.29 | X-H torsion
[ 10718 10713 10712 10709 ] final   71.26 input   66.30 | X-H torsion
[ 10763 10752 10751 10750 ] final   78.28 input  -60.55 | X-H torsion
[ 11005 11000 10999 10996 ] final  106.98 input  -57.11 | X-H torsion

> <Gold.Protein.ActiveResidues>
 VAL166  LYS551  ARG553  GLY616  TRP617  ASP618  TYR619  PRO620  LYS621  CYS622 
 ASP623  PHE694  ASN695  SER759  ASP760  ASP761  ALA762  ILE779  LEU786  VAL792 
 PHE793  MET794  SER795  GLU796  ALA797  LYS798  CYS799  TRP800  GLU811  SER814 

> <Gold.Protein.RotatedAtoms>
  150.8240  134.7461  159.6796 H   0  0  0  0  0  0  0  0  0  0  0  0  # atno 6907 bound_to 6896
  152.4352  134.5696  159.9927 H   0  0  0  0  0  0  0  0  0  0  0  0  # atno 6908 bound_to 6896
  151.5873  133.3333  159.3056 H   0  0  0  0  0  0  0  0  0  0  0  0  # atno 6909 bound_to 6896
  144.7996  139.7131  143.6187 H   0  0  0  0  0  0  0  0  0  0  0  0  # atno 7974 bound_to 7965
  155.5802  140.3491  155.4538 H   0  0  0  0  0  0  0  0  0  0  0  0  # atno 8008 bound_to 7997
  156.0379  140.1289  157.0213 H   0  0  0  0  0  0  0  0  0  0  0  0  # atno 8009 bound_to 7997
  154.4379  140.1030  156.6179 H   0  0  0  0  0  0  0  0  0  0  0  0  # atno 8010 bound_to 7997
  139.8458  143.7262  152.2661 H   0  0  0  0  0  0  0  0  0  0  0  0  # atno 10167 bound_to 10162
  157.6443  130.9519  150.0765 H   0  0  0  0  0  0  0  0  0  0  0  0  # atno 10718 bound_to 10713
  153.0862  135.4883  154.8601 H   0  0  0  0  0  0  0  0  0  0  0  0  # atno 10763 bound_to 10752
  154.7213  135.3040  154.9044 H   0  0  0  0  0  0  0  0  0  0  0  0  # atno 10764 bound_to 10752
  153.9708  135.6801  153.4800 H   0  0  0  0  0  0  0  0  0  0  0  0  # atno 10765 bound_to 10752
  139.8821  134.9386  156.5749 H   0  0  0  0  0  0  0  0  0  0  0  0  # atno 11005 bound_to 11000
  146.2274  139.5748  142.9578 LP  0  0  0  0  0  0  0  0  0  0  0  0  # atno 17320 bound_to 7965
  145.5586  141.0406  143.2238 LP  0  0  0  0  0  0  0  0  0  0  0  0  # atno 17321 bound_to 7965
  139.7514  144.7533  151.0501 LP  0  0  0  0  0  0  0  0  0  0  0  0  # atno 17342 bound_to 10162
  140.7793  143.4856  150.9960 LP  0  0  0  0  0  0  0  0  0  0  0  0  # atno 17343 bound_to 10162
  156.1754  130.3648  149.9108 LP  0  0  0  0  0  0  0  0  0  0  0  0  # atno 17370 bound_to 10713
  156.7073  130.8956  151.3606 LP  0  0  0  0  0  0  0  0  0  0  0  0  # atno 17371 bound_to 10713
  140.8071  133.8459  155.8777 LP  0  0  0  0  0  0  0  0  0  0  0  0  # atno 17394 bound_to 11000
  140.9540  134.1741  157.4706 LP  0  0  0  0  0  0  0  0  0  0  0  0  # atno 17395 bound_to 11000

$$$$
