AV-unprocessed.smi:1644|AV-procd|sdf|6589|dock1
  -GOLD-   22720 7283D 1   1.00000     0.00000
 Structure written by MMmdl.
 50 52  0  0  0  0  0  0  0  0  2 V2000
  149.1181  132.3729  154.0919 C   0  0  0  0  0  0  0  0  0  0  0  0
  149.7843  133.4800  154.9159 C   0  0  0  0  0  0  0  0  0  0  0  0
  149.0849  134.8433  154.7392 C   0  0  0  0  0  0  0  0  0  0  0  0
  149.6921  136.0207  155.5361 C   0  0  1  0  0  0  0  0  0  0  0  0
  151.0845  136.2697  155.2194 N   0  0  0  0  0  0  0  0  0  0  0  0
  151.2953  137.5190  154.7842 C   0  0  0  0  0  0  0  0  0  0  0  0
  152.3894  137.9863  154.4708 O   0  0  0  0  0  0  0  0  0  0  0  0
  150.1149  138.1653  154.7590 N   0  0  0  0  0  0  0  0  0  0  0  0
  149.9465  139.5604  154.3417 C   0  0  0  0  0  0  0  0  0  0  0  0
  149.7561  140.4983  155.5507 C   0  0  2  0  0  0  0  0  0  0  0  0
  148.7645  141.4565  155.2361 O   0  0  0  0  0  0  0  0  0  0  0  0
  151.0558  141.2485  155.9007 C   0  0  0  0  0  0  0  0  0  0  0  0
  151.6381  140.8067  157.1738 N   0  0  0  0  0  0  0  0  0  0  0  0
  152.0715  139.5769  157.5613 C   0  0  0  0  0  0  0  0  0  0  0  0
  152.5306  139.6884  158.8390 N   0  3  0  0  0  0  0  0  0  0  0  0
  152.3884  141.0093  159.2716 C   0  0  0  0  0  0  0  0  0  0  0  0
  152.7098  141.6130  160.4816 C   0  0  0  0  0  0  0  0  0  0  0  0
  152.4384  142.9946  160.6056 C   0  0  0  0  0  0  0  0  0  0  0  0
  152.7775  143.6859  161.9154 C   0  0  0  0  0  0  0  0  0  0  0  0
  151.8626  143.7252  159.5335 C   0  0  0  0  0  0  0  0  0  0  0  0
  151.5778  145.2107  159.6758 C   0  0  0  0  0  0  0  0  0  0  0  0
  151.5409  143.0926  158.3116 C   0  0  0  0  0  0  0  0  0  0  0  0
  151.8155  141.7314  158.2074 C   0  0  0  0  0  0  0  0  0  0  0  0
  149.1162  137.3797  155.1814 C   0  0  0  0  0  0  0  0  0  0  0  0
  147.9257  137.6737  155.2843 O   0  0  0  0  0  0  0  0  0  0  0  0
  149.6297  131.4210  154.2346 H   0  0  0  0  0  0  0  0  0  0  0  0
  149.1418  132.6070  153.0272 H   0  0  0  0  0  0  0  0  0  0  0  0
  148.0762  132.2375  154.3830 H   0  0  0  0  0  0  0  0  0  0  0  0
  149.7773  133.1904  155.9669 H   0  0  0  0  0  0  0  0  0  0  0  0
  150.8319  133.5528  154.6230 H   0  0  0  0  0  0  0  0  0  0  0  0
  149.0726  135.1040  153.6801 H   0  0  0  0  0  0  0  0  0  0  0  0
  148.0382  134.7386  155.0270 H   0  0  0  0  0  0  0  0  0  0  0  0
  149.5866  135.8529  156.6086 H   0  0  0  0  0  0  0  0  0  0  0  0
  151.8073  135.5742  155.3360 H   0  0  0  0  0  0  0  0  0  0  0  0
  150.8425  139.8511  153.7906 H   0  0  0  0  0  0  0  0  0  0  0  0
  149.1283  139.6696  153.6272 H   0  0  0  0  0  0  0  0  0  0  0  0
  149.4275  139.9295  156.4214 H   0  0  0  0  0  0  0  0  0  0  0  0
  148.1001  141.4338  155.9083 H   0  0  0  0  0  0  0  0  0  0  0  0
  151.8065  141.1146  155.1208 H   0  0  0  0  0  0  0  0  0  0  0  0
  150.8715  142.3215  155.9733 H   0  0  0  0  0  0  0  0  0  0  0  0
  152.0574  138.6778  156.9620 H   0  0  0  0  0  0  0  0  0  0  0  0
  153.1493  141.0510  161.2929 H   0  0  0  0  0  0  0  0  0  0  0  0
  151.8839  144.1255  162.3593 H   0  0  0  0  0  0  0  0  0  0  0  0
  153.5087  144.4778  161.7515 H   0  0  0  0  0  0  0  0  0  0  0  0
  153.1989  142.9873  162.6388 H   0  0  0  0  0  0  0  0  0  0  0  0
  151.1441  145.6229  158.7641 H   0  0  0  0  0  0  0  0  0  0  0  0
  152.4969  145.7590  159.8841 H   0  0  0  0  0  0  0  0  0  0  0  0
  150.8747  145.3893  160.4897 H   0  0  0  0  0  0  0  0  0  0  0  0
  151.1032  143.6473  157.4944 H   0  0  0  0  0  0  0  0  0  0  0  0
  152.9138  138.9186  159.3724 H   0  0  0  0  0  0  0  0  0  0  0  0
  1  2  1  0  0  0  0
  1 26  1  0  0  0  0
  1 27  1  0  0  0  0
  1 28  1  0  0  0  0
  2  3  1  0  0  0  0
  2 29  1  0  0  0  0
  2 30  1  0  0  0  0
  3  4  1  0  0  0  0
  3 31  1  0  0  0  0
  3 32  1  0  0  0  0
  4 24  1  0  0  0  0
  4  5  1  0  0  0  0
  4 33  1  0  0  0  0
  5  6  1  0  0  0  0
  5 34  1  0  0  0  0
  6  7  2  0  0  0  0
  6  8  1  0  0  0  0
  8  9  1  0  0  0  0
  8 24  1  0  0  0  0
  9 10  1  0  0  0  0
  9 35  1  0  0  0  0
  9 36  1  0  0  0  0
 10 11  1  0  0  0  0
 10 12  1  0  0  0  0
 10 37  1  0  0  0  0
 11 38  1  0  0  0  0
 12 13  1  0  0  0  0
 12 39  1  0  0  0  0
 12 40  1  0  0  0  0
 13 23  1  0  0  0  0
 13 14  1  0  0  0  0
 14 15  2  0  0  0  0
 14 41  1  0  0  0  0
 15 16  1  0  0  0  0
 15 50  1  0  0  0  0
 16 23  2  0  0  0  0
 16 17  1  0  0  0  0
 17 18  2  0  0  0  0
 17 42  1  0  0  0  0
 18 19  1  0  0  0  0
 18 20  1  0  0  0  0
 19 43  1  0  0  0  0
 19 44  1  0  0  0  0
 19 45  1  0  0  0  0
 20 21  1  0  0  0  0
 20 22  2  0  0  0  0
 21 46  1  0  0  0  0
 21 47  1  0  0  0  0
 21 48  1  0  0  0  0
 22 23  1  0  0  0  0
 22 49  1  0  0  0  0
 24 25  2  0  0  0  0
M  CHG  1  15   1
M  END
> <s_m_source_file>
AV-unprocessed.smi

> <i_m_source_file_index>
1644

> <i_lp_mmshare_version>
43012

> <i_f3d_flags>
0

> <s_epik_input>
W0NIM11bQ0gyXVtDSDJdW0NAQEhdMVtOSF1DKD1PKU4oQzE9TylbQ0gyXVtDQEhdKFtPSF0pW0NIMl1uKFtjSF1uMiljKGMyMylbY0hdYyhbQ0gzXSljKFtjSF0zKVtDSDNd

> <s_epik_cmdline>
J2VwaWtfcHl0aG9uJywgJy1waCcsICc3LjAnLCAnLXRuJywgJzgnLCAnLW1hJywgJzIwMCcsICctbWV0YWxfYmluZGluZycsICctaW1hZScsICc8aW5maWxlLm1hZT4nLCAnLW9tYWUnLCAnPG91dGZpbGUubWFlPic=

> <r_lp_tautomer_probability>
1

> <r_epik_Ionization_Penalty>
1.06742

> <r_epik_Ionization_Penalty_Charging>
1.06736

> <r_epik_Ionization_Penalty_Neutral>
5.56132e-05

> <r_epik_State_Penalty>
1.12163

> <r_epik_Charging_Adjusted_Penalty>
2.18899

> <i_epik_Tot_Q>
1

> <i_epik_Tot_abs_Q>
1

> <r_epik_Metal_State_Penalty>
1.26636

> <b_epik_Metal_Only>
0

> <s_lp_Force_Field>
OPLS_2005

> <r_lp_Energy>
29.5638

> <b_lp_Chiralities_Consistent>
1

> <s_lp_Variant>
AV-unprocessed.smi:1644-6

> <Gold.Version>
5.8.1

> <Gold.Id.Protein>
6NUR|6NUR_protein|mol2

> <Gold.PLP.Fitness>
46.9021

> <Gold.PLP.PLP>
-49.6888

> <Gold.PLP.part.hbond>
-0.7930

> <Gold.PLP.part.metal>
0.0000

> <Gold.PLP.part.buried>
-5.9840

> <Gold.PLP.part.nonpolar>
-42.5169

> <Gold.PLP.part.repulsive>
0.8023

> <Gold.PLP.ligand.clash>
0.0000

> <Gold.PLP.ligand.torsion>
1.5146

> <Gold.PLP.Chemscore.Hbond>
0.0119

> <Gold.PLP.Chemscore.CHOScore>
0.0000

> <Gold.PLP.Chemscore.Metal>
0.0000

> <Gold.Chemscore.Hbonds>
donor molecule, donor type, donor heavy atom, donor atom, acceptor molecule, acceptor atom, score
      P1  H 10752 10764       L1     7  0.02

> <Gold.PLP.Chemscore.Internal.Correction>
0.2068

> <Gold.Rescore>
     Score         DG    S(hbond)    S(metal)    S(lipo)     H(rot)  DE(clash)    DE(int)     intcor
     13.01     -14.59       0.94        0.00     112.22       2.80       0.07       1.51       ----

> <Gold.Chemscore.Fitness>
13.0143

> <Gold.Chemscore.DG>
-14.5926

> <Gold.Chemscore.ZeroCoef>
-5.4800

> <Gold.Chemscore.Hbond>
0.9403

> <Gold.Chemscore.Metal>
0.0000

> <Gold.Chemscore.Lipo>
112.2234

> <Gold.Chemscore.Internal_Hbond>
0.0000

> <Gold.Chemscore.DEClash>
0.0653

> <Gold.Chemscore.DEInternal>
1.5131

> <Gold.Chemscore.Rot>
2.7961

> <Gold.Chemscore.Internal.Correction>
   9.000000E+99

> <Gold.Chemscore.Hbond.Weighted>
-3.1405

> <Gold.Chemscore.Metal.Weighted>
-0.0000

> <Gold.Chemscore.Lipo.Weighted>
-13.1301

> <Gold.Chemscore.Internal_Hbond.Weighted>
0.0000

> <Gold.Chemscore.DEClash.Weighted>
0.0653

> <Gold.Chemscore.DEInternal.Weighted>
1.5131

> <Gold.Chemscore.Rot.Weighted>
7.1580

> <Gold.Chemscore.Internal.Correction.Weighted>
   9.000000E+99

> <Gold.Protein.RotatedTorsions>
[ 6907 6896 6895 6894 ] final  -55.70 input  -60.11 | X-H torsion
[ 7974 7965 7964 7962 ] final  108.15 input  175.53 | X-H torsion
[ 8008 7997 7996 7995 ] final -114.78 input   59.86 | X-H torsion
[ 10167 10162 10161 10158 ] final   55.37 input  -65.29 | X-H torsion
[ 10718 10713 10712 10709 ] final  -68.97 input   66.30 | X-H torsion
[ 10763 10752 10751 10750 ] final  -88.75 input  -60.55 | X-H torsion
[ 11005 11000 10999 10996 ] final    0.41 input  -57.11 | X-H torsion

> <Gold.Protein.ActiveResidues>
 VAL166  LYS551  ARG553  GLY616  TRP617  ASP618  TYR619  PRO620  LYS621  CYS622 
 ASP623  PHE694  ASN695  SER759  ASP760  ASP761  ALA762  ILE779  LEU786  VAL792 
 PHE793  MET794  SER795  GLU796  ALA797  LYS798  CYS799  TRP800  GLU811  SER814 

> <Gold.Protein.RotatedAtoms>
  150.8229  134.7446  159.6787 H   0  0  0  0  0  0  0  0  0  0  0  0  # atno 6907 bound_to 6896
  152.4343  134.5713  159.9932 H   0  0  0  0  0  0  0  0  0  0  0  0  # atno 6908 bound_to 6896
  151.5893  133.3331  159.3060 H   0  0  0  0  0  0  0  0  0  0  0  0  # atno 6909 bound_to 6896
  145.2844  139.2621  143.3898 H   0  0  0  0  0  0  0  0  0  0  0  0  # atno 7974 bound_to 7965
  155.0417  140.0392  157.2511 H   0  0  0  0  0  0  0  0  0  0  0  0  # atno 8008 bound_to 7997
  154.7211  140.2712  155.6516 H   0  0  0  0  0  0  0  0  0  0  0  0  # atno 8009 bound_to 7997
  156.2817  140.2702  156.1883 H   0  0  0  0  0  0  0  0  0  0  0  0  # atno 8010 bound_to 7997
  140.2201  144.3797  150.6454 H   0  0  0  0  0  0  0  0  0  0  0  0  # atno 10167 bound_to 10162
  156.0478  130.4304  150.2079 H   0  0  0  0  0  0  0  0  0  0  0  0  # atno 10718 bound_to 10713
  154.6479  135.5366  153.7866 H   0  0  0  0  0  0  0  0  0  0  0  0  # atno 10763 bound_to 10752
  153.0369  135.6475  154.1062 H   0  0  0  0  0  0  0  0  0  0  0  0  # atno 10764 bound_to 10752
  154.0981  135.2935  155.3237 H   0  0  0  0  0  0  0  0  0  0  0  0  # atno 10765 bound_to 10752
  140.6269  133.9611  155.8253 H   0  0  0  0  0  0  0  0  0  0  0  0  # atno 11005 bound_to 11000
  146.3205  140.3320  142.8641 LP  0  0  0  0  0  0  0  0  0  0  0  0  # atno 17320 bound_to 7965
  144.9225  140.7884  143.5739 LP  0  0  0  0  0  0  0  0  0  0  0  0  # atno 17321 bound_to 7965
  140.6261  143.2181  151.6594 LP  0  0  0  0  0  0  0  0  0  0  0  0  # atno 17342 bound_to 10162
  139.5147  144.3401  152.0748 LP  0  0  0  0  0  0  0  0  0  0  0  0  # atno 17343 bound_to 10162
  157.0167  130.9967  151.3351 LP  0  0  0  0  0  0  0  0  0  0  0  0  # atno 17370 bound_to 10713
  157.5373  130.8097  149.7987 LP  0  0  0  0  0  0  0  0  0  0  0  0  # atno 17371 bound_to 10713
  141.0703  134.0215  157.3535 LP  0  0  0  0  0  0  0  0  0  0  0  0  # atno 17394 bound_to 11000
  139.9131  135.0193  156.7774 LP  0  0  0  0  0  0  0  0  0  0  0  0  # atno 17395 bound_to 11000

$$$$
