AV-unprocessed.smi:1908|AV-procd|sdf|7734|dock8
  -GOLD-   22720 9473D 1   1.00000     0.00000
 Structure written by MMmdl.
 27 27  0  0  0  0  0  0  0  0  2 V2000
  150.8049  145.3216  158.9692 C   0  0  0  0  0  0  0  0  0  0  0  0
  150.8195  143.7880  159.0114 C   0  0  0  0  0  0  0  0  0  0  0  0
  152.1876  143.2440  159.4508 C   0  0  0  0  0  0  0  0  0  0  0  0
  150.4604  143.2624  157.6979 N   0  0  0  0  0  0  0  0  0  0  0  0
  150.5968  141.9861  157.3062 C   0  0  0  0  0  0  0  0  0  0  0  0
  151.0733  141.1053  158.0235 O   0  0  0  0  0  0  0  0  0  0  0  0
  150.1555  141.6683  155.8714 C   0  0  0  0  0  0  0  0  0  0  0  0
  150.5099  140.3007  155.4591 N   0  0  0  0  0  0  0  0  0  0  0  0
  151.8483  139.8967  155.6093 C   0  0  0  0  0  0  0  0  0  0  0  0
  152.2604  138.6617  155.2652 C   0  0  0  0  0  0  0  0  0  0  0  0
  151.2772  137.7316  154.7241 C   0  0  0  0  0  0  0  0  0  0  0  0
  151.6366  136.6009  154.4013 O   0  0  0  0  0  0  0  0  0  0  0  0
  149.9899  138.1694  154.6011 N   0  5  0  0  0  0  0  0  0  0  0  0
  149.5847  139.4281  154.9568 C   0  0  0  0  0  0  0  0  0  0  0  0
  148.4170  139.8022  154.8395 O   0  0  0  0  0  0  0  0  0  0  0  0
  151.0401  145.7422  159.9473 H   0  0  0  0  0  0  0  0  0  0  0  0
  149.8231  145.6963  158.6780 H   0  0  0  0  0  0  0  0  0  0  0  0
  151.5346  145.7077  158.2567 H   0  0  0  0  0  0  0  0  0  0  0  0
  150.0704  143.4715  159.7393 H   0  0  0  0  0  0  0  0  0  0  0  0
  152.4618  143.6243  160.4350 H   0  0  0  0  0  0  0  0  0  0  0  0
  152.9727  143.5338  158.7517 H   0  0  0  0  0  0  0  0  0  0  0  0
  152.1793  142.1552  159.5118 H   0  0  0  0  0  0  0  0  0  0  0  0
  150.0602  143.9153  157.0399 H   0  0  0  0  0  0  0  0  0  0  0  0
  149.0803  141.8262  155.7662 H   0  0  0  0  0  0  0  0  0  0  0  0
  150.6178  142.3985  155.2062 H   0  0  0  0  0  0  0  0  0  0  0  0
  152.5102  140.6425  156.0242 H   0  0  0  0  0  0  0  0  0  0  0  0
  153.2915  138.3652  155.3899 H   0  0  0  0  0  0  0  0  0  0  0  0
  1  2  1  0  0  0  0
  1 16  1  0  0  0  0
  1 17  1  0  0  0  0
  1 18  1  0  0  0  0
  2  3  1  0  0  0  0
  2  4  1  0  0  0  0
  2 19  1  0  0  0  0
  3 20  1  0  0  0  0
  3 21  1  0  0  0  0
  3 22  1  0  0  0  0
  4  5  1  0  0  0  0
  4 23  1  0  0  0  0
  5  6  2  0  0  0  0
  5  7  1  0  0  0  0
  7  8  1  0  0  0  0
  7 24  1  0  0  0  0
  7 25  1  0  0  0  0
  8 14  1  0  0  0  0
  8  9  1  0  0  0  0
  9 10  2  0  0  0  0
  9 26  1  0  0  0  0
 10 11  1  0  0  0  0
 10 27  1  0  0  0  0
 11 12  2  0  0  0  0
 11 13  1  0  0  0  0
 13 14  1  0  0  0  0
 14 15  2  0  0  0  0
M  CHG  1  13  -1
M  END
> <s_m_source_file>
AV-unprocessed.smi

> <i_m_source_file_index>
1908

> <i_lp_mmshare_version>
43012

> <i_f3d_flags>
0

> <s_epik_input>
W0NIM11bQ0hdKFtDSDNdKVtOSF1DKD1PKVtDSDJdbjFbY0hdW2NIXWMoPU8pW25IXWMxPU8=

> <s_epik_cmdline>
J2VwaWtfcHl0aG9uJywgJy1waCcsICc3LjAnLCAnLXRuJywgJzgnLCAnLW1hJywgJzIwMCcsICctbWV0YWxfYmluZGluZycsICctaW1hZScsICc8aW5maWxlLm1hZT4nLCAnLW9tYWUnLCAnPG91dGZpbGUubWFlPic=

> <r_lp_tautomer_probability>
0.999537

> <r_epik_Ionization_Penalty>
3.07884

> <r_epik_Ionization_Penalty_Charging>
2.69291e-08

> <r_epik_Ionization_Penalty_Neutral>
3.07884

> <r_epik_State_Penalty>
3.07787

> <r_epik_Charging_Adjusted_Penalty>
3.07787

> <i_epik_Tot_Q>
-1

> <i_epik_Tot_abs_Q>
1

> <r_epik_Metal_State_Penalty>
0.459857

> <b_epik_Metal_Only>
1

> <s_lp_Force_Field>
OPLS_2005

> <r_lp_Energy>
10.6939

> <b_lp_Chiralities_Consistent>
1

> <s_lp_Variant>
AV-unprocessed.smi:1908-2

> <Gold.Version>
5.8.1

> <Gold.Id.Protein>
6NUR|6NUR_protein|mol2

> <Gold.PLP.Fitness>
35.9633

> <Gold.PLP.PLP>
-30.6583

> <Gold.PLP.part.hbond>
-2.0000

> <Gold.PLP.part.metal>
0.0000

> <Gold.PLP.part.buried>
-3.3358

> <Gold.PLP.part.nonpolar>
-26.4328

> <Gold.PLP.part.repulsive>
1.3352

> <Gold.PLP.ligand.clash>
0.0000

> <Gold.PLP.ligand.torsion>
0.2654

> <Gold.PLP.Chemscore.Hbond>
1.9425

> <Gold.PLP.Chemscore.CHOScore>
0.0000

> <Gold.PLP.Chemscore.Metal>
0.0000

> <Gold.Chemscore.Hbonds>
donor molecule, donor type, donor heavy atom, donor atom, acceptor molecule, acceptor atom, score
      L1  H     4    23       P1  8028  1.00
      P1  H 10752 10763       L1    12  1.00

> <Gold.PLP.Chemscore.Internal.Correction>
0.0083

> <Gold.Rescore>
     Score         DG    S(hbond)    S(metal)    S(lipo)     H(rot)  DE(clash)    DE(int)     intcor
     12.86     -14.48       1.97        0.00      58.29       1.72       0.11       1.51       ----

> <Gold.Chemscore.Fitness>
12.8610

> <Gold.Chemscore.DG>
-14.4824

> <Gold.Chemscore.ZeroCoef>
-5.4800

> <Gold.Chemscore.Hbond>
1.9744

> <Gold.Chemscore.Metal>
0.0000

> <Gold.Chemscore.Lipo>
58.2922

> <Gold.Chemscore.Internal_Hbond>
0.0000

> <Gold.Chemscore.DEClash>
0.1143

> <Gold.Chemscore.DEInternal>
1.5071

> <Gold.Chemscore.Rot>
1.7236

> <Gold.Chemscore.Internal.Correction>
   9.000000E+99

> <Gold.Chemscore.Hbonds>
donor molecule, donor type, donor heavy atom, donor atom, acceptor molecule, acceptor atom, score
      L1  H     4    23       P1  8028  0.94
      P1  H 10752 10763       L1    12  0.97

> <Gold.Chemscore.Hbond.Weighted>
-6.5946

> <Gold.Chemscore.Metal.Weighted>
-0.0000

> <Gold.Chemscore.Lipo.Weighted>
-6.8202

> <Gold.Chemscore.Internal_Hbond.Weighted>
0.0000

> <Gold.Chemscore.DEClash.Weighted>
0.1143

> <Gold.Chemscore.DEInternal.Weighted>
1.5071

> <Gold.Chemscore.Rot.Weighted>
4.4124

> <Gold.Chemscore.Internal.Correction.Weighted>
   9.000000E+99

> <Gold.Protein.RotatedTorsions>
[ 6907 6896 6895 6894 ] final  156.56 input  -60.11 | X-H torsion
[ 7974 7965 7964 7962 ] final -143.18 input  175.53 | X-H torsion
[ 8008 7997 7996 7995 ] final   65.30 input   59.86 | X-H torsion
[ 10167 10162 10161 10158 ] final  -27.51 input  -65.29 | X-H torsion
[ 10718 10713 10712 10709 ] final   78.42 input   66.30 | X-H torsion
[ 10763 10752 10751 10750 ] final   28.12 input  -60.55 | X-H torsion
[ 11005 11000 10999 10996 ] final   77.95 input  -57.11 | X-H torsion

> <Gold.Protein.ActiveResidues>
 VAL166  LYS551  ARG553  GLY616  TRP617  ASP618  TYR619  PRO620  LYS621  CYS622 
 ASP623  PHE694  ASN695  SER759  ASP760  ASP761  ALA762  ILE779  LEU786  VAL792 
 PHE793  MET794  SER795  GLU796  ALA797  LYS798  CYS799  TRP800  GLU811  SER814 

> <Gold.Protein.RotatedAtoms>
  152.0279  133.3925  159.4284 H   0  0  0  0  0  0  0  0  0  0  0  0  # atno 6907 bound_to 6896
  150.6884  134.3554  159.4936 H   0  0  0  0  0  0  0  0  0  0  0  0  # atno 6908 bound_to 6896
  152.1336  134.9116  160.0608 H   0  0  0  0  0  0  0  0  0  0  0  0  # atno 6909 bound_to 6896
  144.8388  140.5866  143.5466 H   0  0  0  0  0  0  0  0  0  0  0  0  # atno 7974 bound_to 7965
  155.6596  140.3497  155.4778 H   0  0  0  0  0  0  0  0  0  0  0  0  # atno 8008 bound_to 7997
  155.9780  140.1169  157.0776 H   0  0  0  0  0  0  0  0  0  0  0  0  # atno 8009 bound_to 7997
  154.4184  140.1144  156.5382 H   0  0  0  0  0  0  0  0  0  0  0  0  # atno 8010 bound_to 7997
  140.7277  143.4087  151.1141 H   0  0  0  0  0  0  0  0  0  0  0  0  # atno 10167 bound_to 10162
  157.6744  130.9867  150.1783 H   0  0  0  0  0  0  0  0  0  0  0  0  # atno 10718 bound_to 10713
  153.0512  135.6521  154.0689 H   0  0  0  0  0  0  0  0  0  0  0  0  # atno 10763 bound_to 10752
  154.0377  135.2906  155.3361 H   0  0  0  0  0  0  0  0  0  0  0  0  # atno 10764 bound_to 10752
  154.6801  135.5323  153.8319 H   0  0  0  0  0  0  0  0  0  0  0  0  # atno 10765 bound_to 10752
  139.9233  134.7724  156.1587 H   0  0  0  0  0  0  0  0  0  0  0  0  # atno 11005 bound_to 11000
  145.4737  139.1501  143.3800 LP  0  0  0  0  0  0  0  0  0  0  0  0  # atno 17320 bound_to 7965
  146.2683  140.4871  142.8825 LP  0  0  0  0  0  0  0  0  0  0  0  0  # atno 17321 bound_to 7965
  139.7718  143.8483  152.3122 LP  0  0  0  0  0  0  0  0  0  0  0  0  # atno 17342 bound_to 10162
  139.8404  144.7212  150.9338 LP  0  0  0  0  0  0  0  0  0  0  0  0  # atno 17343 bound_to 10162
  156.2521  130.3701  149.8221 LP  0  0  0  0  0  0  0  0  0  0  0  0  # atno 17370 bound_to 10713
  156.5990  130.8538  151.3427 LP  0  0  0  0  0  0  0  0  0  0  0  0  # atno 17371 bound_to 10713
  141.0771  133.6770  156.2259 LP  0  0  0  0  0  0  0  0  0  0  0  0  # atno 17394 bound_to 11000
  140.6410  134.5166  157.5569 LP  0  0  0  0  0  0  0  0  0  0  0  0  # atno 17395 bound_to 11000

$$$$
