AV-unprocessed.smi:2124|AV-procd|sdf|8665|dock5
  -GOLD-   2272011413D 1   1.00000     0.00000
 Structure written by MMmdl.
 47 49  0  0  0  0  0  0  0  0  1 V2000
  149.2609  133.9001  154.7992 C   0  0  0  0  0  0  0  0  0  0  0  0
  150.0815  135.0928  155.2391 C   0  0  0  0  0  0  0  0  0  0  0  0
  150.1187  136.1168  154.3072 N   0  0  0  0  0  0  0  0  0  0  0  0
  150.8516  137.2485  154.6178 C   0  0  0  0  0  0  0  0  0  0  0  0
  150.8451  138.3201  153.5411 C   0  0  0  0  0  0  0  0  0  0  0  0
  151.5143  137.3544  155.7975 C   0  0  0  0  0  0  0  0  0  0  0  0
  152.3419  138.5828  156.1713 C   0  0  0  0  0  0  0  0  0  0  0  0
  151.5680  139.9005  156.2560 C   0  0  0  0  0  0  0  0  0  0  0  0
  151.1909  140.4644  155.2287 O   0  0  0  0  0  0  0  0  0  0  0  0
  151.3393  140.3744  157.4908 N   0  0  0  0  0  0  0  0  0  0  0  0
  150.6129  141.5983  157.8263 C   0  0  1  0  0  0  0  0  0  0  0  0
  149.1087  141.2852  157.8355 C   0  0  0  0  0  0  0  0  0  0  0  0
  151.1144  142.1482  159.1839 C   0  0  1  0  0  0  0  0  0  0  0  0
  152.6510  142.1509  159.3615 C   0  0  0  0  0  0  0  0  0  0  0  0
  152.9410  143.5772  159.8644 C   0  0  1  0  0  0  0  0  0  0  0  0
  152.7978  144.5616  158.6895 C   0  0  0  0  0  0  0  0  0  0  0  0
  151.2749  144.6045  158.4697 C   0  0  0  0  0  0  0  0  0  0  0  0
  150.7474  143.6133  159.5279 C   0  0  2  0  0  0  0  0  0  0  0  0
  151.6978  143.8887  160.6894 C   0  0  0  0  0  0  0  0  0  0  0  0
  151.4363  136.2259  156.7553 C   0  0  0  0  0  0  0  0  0  0  0  0
  152.0184  136.2586  157.8386 O   0  0  0  0  0  0  0  0  0  0  0  0
  150.6780  135.1010  156.3922 N   0  0  0  0  0  0  0  0  0  0  0  0
  149.6460  136.0767  153.4157 H   0  0  0  0  0  0  0  0  0  0  0  0
  149.1243  133.1964  155.6214 H   0  0  0  0  0  0  0  0  0  0  0  0
  149.7609  133.3785  153.9827 H   0  0  0  0  0  0  0  0  0  0  0  0
  148.2754  134.2173  154.4566 H   0  0  0  0  0  0  0  0  0  0  0  0
  150.4176  139.2457  153.9267 H   0  0  0  0  0  0  0  0  0  0  0  0
  150.2560  138.0160  152.6749 H   0  0  0  0  0  0  0  0  0  0  0  0
  151.8602  138.5242  153.1995 H   0  0  0  0  0  0  0  0  0  0  0  0
  153.1704  138.7197  155.4760 H   0  0  0  0  0  0  0  0  0  0  0  0
  152.8182  138.3917  157.1335 H   0  0  0  0  0  0  0  0  0  0  0  0
  151.6940  139.8374  158.2688 H   0  0  0  0  0  0  0  0  0  0  0  0
  150.7875  142.3437  157.0501 H   0  0  0  0  0  0  0  0  0  0  0  0
  148.5170  142.1831  158.0137 H   0  0  0  0  0  0  0  0  0  0  0  0
  148.8572  140.5605  158.6106 H   0  0  0  0  0  0  0  0  0  0  0  0
  148.7893  140.8738  156.8774 H   0  0  0  0  0  0  0  0  0  0  0  0
  150.6896  141.5190  159.9685 H   0  0  0  0  0  0  0  0  0  0  0  0
  152.9523  141.4048  160.0975 H   0  0  0  0  0  0  0  0  0  0  0  0
  153.1906  141.9385  158.4380 H   0  0  0  0  0  0  0  0  0  0  0  0
  153.8870  143.6688  160.3986 H   0  0  0  0  0  0  0  0  0  0  0  0
  153.1740  145.5492  158.9595 H   0  0  0  0  0  0  0  0  0  0  0  0
  153.3375  144.2291  157.8019 H   0  0  0  0  0  0  0  0  0  0  0  0
  150.8949  145.6075  158.6676 H   0  0  0  0  0  0  0  0  0  0  0  0
  150.9873  144.3477  157.4510 H   0  0  0  0  0  0  0  0  0  0  0  0
  149.6936  143.7545  159.7697 H   0  0  0  0  0  0  0  0  0  0  0  0
  151.5598  143.2133  161.5357 H   0  0  0  0  0  0  0  0  0  0  0  0
  151.6616  144.9197  161.0460 H   0  0  0  0  0  0  0  0  0  0  0  0
  1 24  1  0  0  0  0
  1 25  1  0  0  0  0
  1 26  1  0  0  0  0
  1  2  1  0  0  0  0
  2  3  1  0  0  0  0
  2 22  2  0  0  0  0
  3  4  1  0  0  0  0
  3 23  1  0  0  0  0
  4  6  2  0  0  0  0
  4  5  1  0  0  0  0
  5 27  1  0  0  0  0
  5 28  1  0  0  0  0
  5 29  1  0  0  0  0
  6 20  1  0  0  0  0
  6  7  1  0  0  0  0
  7  8  1  0  0  0  0
  7 30  1  0  0  0  0
  7 31  1  0  0  0  0
  8  9  2  0  0  0  0
  8 10  1  0  0  0  0
 10 11  1  0  0  0  0
 10 32  1  0  0  0  0
 11 12  1  0  0  0  0
 11 13  1  0  0  0  0
 11 33  1  0  0  0  0
 12 34  1  0  0  0  0
 12 35  1  0  0  0  0
 12 36  1  0  0  0  0
 13 18  1  0  0  0  0
 13 14  1  0  0  0  0
 13 37  1  0  0  0  0
 14 15  1  0  0  0  0
 14 38  1  0  0  0  0
 14 39  1  0  0  0  0
 15 19  1  0  0  0  0
 15 16  1  0  0  0  0
 15 40  1  0  0  0  0
 16 17  1  0  0  0  0
 16 41  1  0  0  0  0
 16 42  1  0  0  0  0
 17 18  1  0  0  0  0
 17 43  1  0  0  0  0
 17 44  1  0  0  0  0
 18 19  1  0  0  0  0
 18 45  1  0  0  0  0
 19 46  1  0  0  0  0
 19 47  1  0  0  0  0
 20 21  2  0  0  0  0
 20 22  1  0  0  0  0
M  END
> <s_m_source_file>
AV-unprocessed.smi

> <i_m_source_file_index>
2124

> <i_lp_mmshare_version>
43012

> <i_f3d_flags>
0

> <s_epik_input>
W0NIM11jMW5jKFtDSDNdKWMoYyg9TylbbkhdMSlbQ0gyXUMoPU8pW05IXVtDQEhdKFtDSDNdKVtDQEhdKFtDSDJdW0NASF0yMylbQ0BIXShbQ0gyXTMpW0NIMl1bQ0gyXTI=

> <s_epik_cmdline>
J2VwaWtfcHl0aG9uJywgJy1waCcsICc3LjAnLCAnLXRuJywgJzgnLCAnLW1hJywgJzIwMCcsICctbWV0YWxfYmluZGluZycsICctaW1hZScsICc8aW5maWxlLm1hZT4nLCAnLW9tYWUnLCAnPG91dGZpbGUubWFlPic=

> <r_lp_tautomer_probability>
0.156392

> <r_epik_Ionization_Penalty>
0.0139374

> <r_epik_Ionization_Penalty_Charging>
0.0138122

> <r_epik_Ionization_Penalty_Neutral>
0.000125146

> <r_epik_State_Penalty>
1.15342

> <r_epik_Charging_Adjusted_Penalty>
1.16723

> <i_epik_Tot_Q>
0

> <i_epik_Tot_abs_Q>
0

> <r_epik_Metal_State_Penalty>
1.3173

> <b_epik_Metal_Only>
0

> <s_lp_Force_Field>
OPLS_2005

> <r_lp_Energy>
55.9992

> <b_lp_Chiralities_Consistent>
1

> <s_lp_Variant>
AV-unprocessed.smi:2124-16

> <Gold.Version>
5.8.1

> <Gold.Id.Protein>
6NUR|6NUR_protein|mol2

> <Gold.PLP.Fitness>
45.9112

> <Gold.PLP.PLP>
-41.3685

> <Gold.PLP.part.hbond>
-3.0319

> <Gold.PLP.part.metal>
0.0000

> <Gold.PLP.part.buried>
-4.7882

> <Gold.PLP.part.nonpolar>
-33.7884

> <Gold.PLP.part.repulsive>
0.1690

> <Gold.PLP.ligand.clash>
0.0000

> <Gold.PLP.ligand.torsion>
0.7358

> <Gold.PLP.Chemscore.Hbond>
2.0000

> <Gold.PLP.Chemscore.CHOScore>
0.0000

> <Gold.PLP.Chemscore.Metal>
0.0000

> <Gold.Chemscore.Hbonds>
donor molecule, donor type, donor heavy atom, donor atom, acceptor molecule, acceptor atom, score
      L1  H     3    23       P1  7948  0.95
      P1  H  7989  7998       L1     9  0.96

> <Gold.PLP.Chemscore.Internal.Correction>
0.0144

> <Gold.Rescore>
     Score         DG    S(hbond)    S(metal)    S(lipo)     H(rot)  DE(clash)    DE(int)     intcor
     19.33     -21.91       1.98        0.00     120.03       1.65       0.52       2.06       ----

> <Gold.Chemscore.Fitness>
19.3322

> <Gold.Chemscore.DG>
-21.9133

> <Gold.Chemscore.ZeroCoef>
-5.4800

> <Gold.Chemscore.Hbond>
1.9828

> <Gold.Chemscore.Metal>
0.0000

> <Gold.Chemscore.Lipo>
120.0275

> <Gold.Chemscore.Internal_Hbond>
0.0000

> <Gold.Chemscore.DEClash>
0.5190

> <Gold.Chemscore.DEInternal>
2.0621

> <Gold.Chemscore.Rot>
1.6534

> <Gold.Chemscore.Internal.Correction>
   9.000000E+99

> <Gold.Chemscore.Hbonds>
donor molecule, donor type, donor heavy atom, donor atom, acceptor molecule, acceptor atom, score
      L1  H     3    23       P1  7948  0.22
      P1  H  6896  6908       L1    21  0.02
      P1  H  7989  7998       L1     9  0.92

> <Gold.Chemscore.Hbond.Weighted>
-6.6226

> <Gold.Chemscore.Metal.Weighted>
-0.0000

> <Gold.Chemscore.Lipo.Weighted>
-14.0432

> <Gold.Chemscore.Internal_Hbond.Weighted>
0.0000

> <Gold.Chemscore.DEClash.Weighted>
0.5190

> <Gold.Chemscore.DEInternal.Weighted>
2.0621

> <Gold.Chemscore.Rot.Weighted>
4.2326

> <Gold.Chemscore.Internal.Correction.Weighted>
   9.000000E+99

> <Gold.Protein.RotatedTorsions>
[ 6907 6896 6895 6894 ] final -114.32 input  -60.11 | X-H torsion
[ 7974 7965 7964 7962 ] final   14.33 input  175.53 | X-H torsion
[ 8008 7997 7996 7995 ] final -143.04 input   59.86 | X-H torsion
[ 10167 10162 10161 10158 ] final   53.31 input  -65.29 | X-H torsion
[ 10718 10713 10712 10709 ] final   19.94 input   66.30 | X-H torsion
[ 10763 10752 10751 10750 ] final   47.87 input  -60.55 | X-H torsion
[ 11005 11000 10999 10996 ] final  149.17 input  -57.11 | X-H torsion

> <Gold.Protein.ActiveResidues>
 VAL166  LYS551  ARG553  GLY616  TRP617  ASP618  TYR619  PRO620  LYS621  CYS622 
 ASP623  PHE694  ASN695  SER759  ASP760  ASP761  ALA762  ILE779  LEU786  VAL792 
 PHE793  MET794  SER795  GLU796  ALA797  LYS798  CYS799  TRP800  GLU811  SER814 

> <Gold.Protein.RotatedAtoms>
  150.7894  133.8817  159.3287 H   0  0  0  0  0  0  0  0  0  0  0  0  # atno 6907 bound_to 6896
  151.6659  135.0981  160.0198 H   0  0  0  0  0  0  0  0  0  0  0  0  # atno 6908 bound_to 6896
  152.3965  133.6715  159.6315 H   0  0  0  0  0  0  0  0  0  0  0  0  # atno 6909 bound_to 6896
  146.2308  139.9058  142.8532 H   0  0  0  0  0  0  0  0  0  0  0  0  # atno 7974 bound_to 7965
  155.5040  140.0578  157.2934 H   0  0  0  0  0  0  0  0  0  0  0  0  # atno 8008 bound_to 7997
  154.4576  140.1980  156.0284 H   0  0  0  0  0  0  0  0  0  0  0  0  # atno 8009 bound_to 7997
  156.0829  140.3244  155.7721 H   0  0  0  0  0  0  0  0  0  0  0  0  # atno 8010 bound_to 7997
  140.2421  144.3572  150.6377 H   0  0  0  0  0  0  0  0  0  0  0  0  # atno 10167 bound_to 10162
  157.1176  130.6535  149.5914 H   0  0  0  0  0  0  0  0  0  0  0  0  # atno 10718 bound_to 10713
  152.9796  135.5962  154.3833 H   0  0  0  0  0  0  0  0  0  0  0  0  # atno 10763 bound_to 10752
  154.3496  135.2767  155.2381 H   0  0  0  0  0  0  0  0  0  0  0  0  # atno 10764 bound_to 10752
  154.4426  135.6009  153.6194 H   0  0  0  0  0  0  0  0  0  0  0  0  # atno 10765 bound_to 10752
  140.1022  134.8976  157.1813 H   0  0  0  0  0  0  0  0  0  0  0  0  # atno 11005 bound_to 11000
  145.2279  140.9961  143.4008 LP  0  0  0  0  0  0  0  0  0  0  0  0  # atno 17320 bound_to 7965
  144.9555  139.4036  143.6381 LP  0  0  0  0  0  0  0  0  0  0  0  0  # atno 17321 bound_to 7965
  140.6106  143.2169  151.6894 LP  0  0  0  0  0  0  0  0  0  0  0  0  # atno 17342 bound_to 10162
  139.5074  144.3648  152.0527 LP  0  0  0  0  0  0  0  0  0  0  0  0  # atno 17343 bound_to 10162
  155.9836  130.4856  150.6940 LP  0  0  0  0  0  0  0  0  0  0  0  0  # atno 17370 bound_to 10713
  157.4505  131.0872  151.0851 LP  0  0  0  0  0  0  0  0  0  0  0  0  # atno 17371 bound_to 10713
  140.3204  134.2922  155.7247 LP  0  0  0  0  0  0  0  0  0  0  0  0  # atno 17394 bound_to 11000
  141.2109  133.7706  156.9903 LP  0  0  0  0  0  0  0  0  0  0  0  0  # atno 17395 bound_to 11000

$$$$
