AV-unprocessed.smi:16|AV-procd|sdf|88|dock3
  -GOLD-   2262015223D 1   1.00000     0.00000
 Structure written by MMmdl.
 60 64  0  0  0  0  0  0  0  0  2 V2000
  146.4822  138.4871  151.8955 C   0  0  0  0  0  0  0  0  0  0  0  0
  147.2920  139.3587  152.8669 C   0  0  0  0  0  0  0  0  0  0  0  0
  146.8282  139.2211  154.2704 N   0  3  2  0  0  0  0  0  0  0  0  0
  146.8455  140.5129  155.0040 C   0  0  0  0  0  0  0  0  0  0  0  0
  146.2071  140.3652  156.3943 C   0  0  0  0  0  0  0  0  0  0  0  0
  146.8987  139.2511  157.2092 C   0  0  1  0  0  0  0  0  0  0  0  0
  146.3085  139.0564  158.4962 O   0  0  0  0  0  0  0  0  0  0  0  0
  145.0055  138.4759  158.4759 C   0  0  0  0  0  0  0  0  0  0  0  0
  145.0300  137.1434  157.7124 C   0  0  0  0  0  0  0  0  0  0  0  0
  145.5961  137.3340  156.3828 N   0  0  0  0  0  0  0  0  0  0  0  0
  145.4575  136.2424  155.6001 C   0  0  0  0  0  0  0  0  0  0  0  0
  145.8825  135.0279  156.0357 N   0  0  0  0  0  0  0  0  0  0  0  0
  145.7726  133.9615  155.2367 C   0  0  0  0  0  0  0  0  0  0  0  0
  145.2919  133.8963  153.9922 N   0  0  0  0  0  0  0  0  0  0  0  0
  144.8697  135.1184  153.5567 C   0  0  0  0  0  0  0  0  0  0  0  0
  144.9076  136.3315  154.2967 C   0  0  0  0  0  0  0  0  0  0  0  0
  144.3856  137.3733  153.5425 N   0  0  0  0  0  0  0  0  0  0  0  0
  144.0471  136.8043  152.4170 C   0  0  0  0  0  0  0  0  0  0  0  0
  144.3376  135.4608  152.3262 N   0  0  0  0  0  0  0  0  0  0  0  0
  144.0540  134.5955  151.2197 C   0  0  0  0  0  0  0  0  0  0  0  0
  144.2276  133.0796  151.3377 C   0  0  0  0  0  0  0  0  0  0  0  0
  144.6312  133.0170  149.8469 C   0  0  0  0  0  0  0  0  0  0  0  0
  145.8077  132.0848  149.5152 C   0  0  0  0  0  0  0  0  0  0  0  0
  146.9014  132.3203  150.3782 O   0  0  0  0  0  0  0  0  0  0  0  0
  143.4761  132.7443  148.8622 C   0  0  0  0  0  0  0  0  0  0  0  0
  143.2699  133.8378  147.9910 O   0  0  0  0  0  0  0  0  0  0  0  0
  145.0051  134.5050  150.0244 C   0  0  0  0  0  0  0  0  0  0  0  0
  146.9384  137.9226  156.4212 C   0  0  1  0  0  0  0  0  0  0  0  0
  147.5604  138.1682  155.0230 C   0  0  0  0  0  0  0  0  0  0  0  0
  147.9264  139.5676  157.3913 H   0  0  0  0  0  0  0  0  0  0  0  0
  147.5826  137.2267  156.9610 H   0  0  0  0  0  0  0  0  0  0  0  0
  146.8321  138.6277  150.8728 H   0  0  0  0  0  0  0  0  0  0  0  0
  145.4260  138.7544  151.9175 H   0  0  0  0  0  0  0  0  0  0  0  0
  146.5643  137.4247  152.1236 H   0  0  0  0  0  0  0  0  0  0  0  0
  148.3559  139.1262  152.7999 H   0  0  0  0  0  0  0  0  0  0  0  0
  147.1845  140.3960  152.5471 H   0  0  0  0  0  0  0  0  0  0  0  0
  147.8725  140.8708  155.0940 H   0  0  0  0  0  0  0  0  0  0  0  0
  146.2946  141.2660  154.4395 H   0  0  0  0  0  0  0  0  0  0  0  0
  146.2652  141.3108  156.9336 H   0  0  0  0  0  0  0  0  0  0  0  0
  145.1470  140.1524  156.2601 H   0  0  0  0  0  0  0  0  0  0  0  0
  144.6826  138.3088  159.5035 H   0  0  0  0  0  0  0  0  0  0  0  0
  144.2825  139.1628  158.0368 H   0  0  0  0  0  0  0  0  0  0  0  0
  145.6252  136.4134  158.2633 H   0  0  0  0  0  0  0  0  0  0  0  0
  144.0185  136.7416  157.6357 H   0  0  0  0  0  0  0  0  0  0  0  0
  146.1256  133.0282  155.6504 H   0  0  0  0  0  0  0  0  0  0  0  0
  143.5856  137.3571  151.6115 H   0  0  0  0  0  0  0  0  0  0  0  0
  143.0429  134.8441  150.8927 H   0  0  0  0  0  0  0  0  0  0  0  0
  145.0405  132.8063  152.0131 H   0  0  0  0  0  0  0  0  0  0  0  0
  143.3137  132.5433  151.5950 H   0  0  0  0  0  0  0  0  0  0  0  0
  145.5168  131.0397  149.6253 H   0  0  0  0  0  0  0  0  0  0  0  0
  146.1377  132.2020  148.4827 H   0  0  0  0  0  0  0  0  0  0  0  0
  147.5772  131.6883  150.1861 H   0  0  0  0  0  0  0  0  0  0  0  0
  143.6793  131.8664  148.2489 H   0  0  0  0  0  0  0  0  0  0  0  0
  142.5444  132.5350  149.3882 H   0  0  0  0  0  0  0  0  0  0  0  0
  144.1101  134.2137  147.7771 H   0  0  0  0  0  0  0  0  0  0  0  0
  144.7393  135.1479  149.1847 H   0  0  0  0  0  0  0  0  0  0  0  0
  146.0495  134.6469  150.3094 H   0  0  0  0  0  0  0  0  0  0  0  0
  147.6000  137.2409  154.4531 H   0  0  0  0  0  0  0  0  0  0  0  0
  148.5990  138.4815  155.1414 H   0  0  0  0  0  0  0  0  0  0  0  0
  145.8601  138.9354  154.2239 H   0  0  0  0  0  0  0  0  0  0  0  0
  1  2  1  0  0  0  0
  1 32  1  0  0  0  0
  1 33  1  0  0  0  0
  1 34  1  0  0  0  0
  2  3  1  0  0  0  0
  2 35  1  0  0  0  0
  2 36  1  0  0  0  0
  3 29  1  0  0  0  0
  3  4  1  0  0  0  0
  3 60  1  0  0  0  0
  4  5  1  0  0  0  0
  4 37  1  0  0  0  0
  4 38  1  0  0  0  0
  5  6  1  0  0  0  0
  5 39  1  0  0  0  0
  5 40  1  0  0  0  0
  6 30  1  0  0  0  0
  6 28  1  0  0  0  0
  6  7  1  0  0  0  0
  7  8  1  0  0  0  0
  8  9  1  0  0  0  0
  8 41  1  0  0  0  0
  8 42  1  0  0  0  0
  9 10  1  0  0  0  0
  9 43  1  0  0  0  0
  9 44  1  0  0  0  0
 10 11  1  0  0  0  0
 10 28  1  0  0  0  0
 11 16  1  0  0  0  0
 11 12  2  0  0  0  0
 12 13  1  0  0  0  0
 13 14  2  0  0  0  0
 13 45  1  0  0  0  0
 14 15  1  0  0  0  0
 15 19  1  0  0  0  0
 15 16  2  0  0  0  0
 16 17  1  0  0  0  0
 17 18  2  0  0  0  0
 18 19  1  0  0  0  0
 18 46  1  0  0  0  0
 19 20  1  0  0  0  0
 20 27  1  0  0  0  0
 20 21  1  0  0  0  0
 20 47  1  0  0  0  0
 21 22  1  0  0  0  0
 21 48  1  0  0  0  0
 21 49  1  0  0  0  0
 22 23  1  0  0  0  0
 22 25  1  0  0  0  0
 22 27  1  0  0  0  0
 23 24  1  0  0  0  0
 23 50  1  0  0  0  0
 23 51  1  0  0  0  0
 24 52  1  0  0  0  0
 25 26  1  0  0  0  0
 25 53  1  0  0  0  0
 25 54  1  0  0  0  0
 26 55  1  0  0  0  0
 27 56  1  0  0  0  0
 27 57  1  0  0  0  0
 28 31  1  0  0  0  0
 28 29  1  0  0  0  0
 29 58  1  0  0  0  0
 29 59  1  0  0  0  0
M  CHG  1   3   1
M  END
> <s_m_source_file>
AV-unprocessed.smi

> <i_m_source_file_index>
16

> <i_lp_mmshare_version>
43012

> <i_f3d_flags>
0

> <s_epik_input>
W0NIM11bQ0gyXU4oW0NIMl1bQ0gyXTEpW0NIMl1bQ0BASF0oW0NAQEhdMTIpTihbQ0gyXVtDSDJdTzIpYyhuW2NIXW4zKWMoYzM0KW5bY0hdbjRbQ0hdKFtDSDJdNSlbQ0gyXUM1KFtDSDJdW09IXSlbQ0gyXVtPSF0=

> <s_epik_cmdline>
J2VwaWtfcHl0aG9uJywgJy1waCcsICc3LjAnLCAnLXRuJywgJzgnLCAnLW1hJywgJzIwMCcsICctbWV0YWxfYmluZGluZycsICctaW1hZScsICc8aW5maWxlLm1hZT4nLCAnLW9tYWUnLCAnPG91dGZpbGUubWFlPic=

> <r_lp_tautomer_probability>
1

> <r_epik_Ionization_Penalty>
0.0135603

> <r_epik_Ionization_Penalty_Charging>
0.0131385

> <r_epik_Ionization_Penalty_Neutral>
0.000421734

> <r_epik_State_Penalty>
0.0102091

> <r_epik_Charging_Adjusted_Penalty>
0.0233476

> <i_epik_Tot_Q>
1

> <i_epik_Tot_abs_Q>
1

> <r_epik_Metal_State_Penalty>
0.0103746

> <b_epik_Metal_Only>
0

> <s_lp_Force_Field>
OPLS_2005

> <r_lp_Energy>
60.5416

> <b_lp_Chiralities_Consistent>
1

> <s_lp_Variant>
AV-unprocessed.smi:16-2

> <Gold.Version>
5.8.1

> <Gold.Id.Protein>
6NUR|6NUR_protein|mol2

> <Gold.PLP.Fitness>
41.5078

> <Gold.PLP.PLP>
-33.3543

> <Gold.PLP.part.hbond>
-5.9825

> <Gold.PLP.part.metal>
0.0000

> <Gold.PLP.part.buried>
0.6883

> <Gold.PLP.part.nonpolar>
-28.0097

> <Gold.PLP.part.repulsive>
0.2500

> <Gold.PLP.ligand.clash>
0.0000

> <Gold.PLP.ligand.torsion>
2.2666

> <Gold.PLP.Chemscore.Hbond>
3.0000

> <Gold.PLP.Chemscore.CHOScore>
1.0000

> <Gold.PLP.Chemscore.Metal>
0.0000

> <Gold.Chemscore.Hbonds>
donor molecule, donor type, donor heavy atom, donor atom, acceptor molecule, acceptor atom, score
      L1  H    24    52       P1 10747  1.00
      L1  H    26    55       P1  7921  0.86
      P1  H 10192 10197       L1    26  1.00
      L1  C    18    46       P1 10171  1.00

> <Gold.PLP.Chemscore.Internal.Correction>
0.6867

> <Gold.Rescore>
     Score         DG    S(hbond)    S(metal)    S(lipo)     H(rot)  DE(clash)    DE(int)     intcor
     10.08     -15.89       2.95        0.00      77.68       3.33       2.50       3.31       ----

> <Gold.Chemscore.Fitness>
10.0793

> <Gold.Chemscore.DG>
-15.8941

> <Gold.Chemscore.ZeroCoef>
-5.4800

> <Gold.Chemscore.Hbond>
2.9454

> <Gold.Chemscore.Metal>
0.0000

> <Gold.Chemscore.Lipo>
77.6805

> <Gold.Chemscore.Internal_Hbond>
0.0000

> <Gold.Chemscore.DEClash>
2.5009

> <Gold.Chemscore.DEInternal>
3.3139

> <Gold.Chemscore.Rot>
3.3251

> <Gold.Chemscore.Internal.Correction>
   9.000000E+99

> <Gold.Chemscore.Hbonds>
donor molecule, donor type, donor heavy atom, donor atom, acceptor molecule, acceptor atom, score
      L1  H    24    52       P1 10747  0.99
      L1  H    26    55       P1  7921  0.84
      P1  H 10192 10197       L1    26  0.33

> <Gold.Chemscore.Hbond.Weighted>
-9.8376

> <Gold.Chemscore.Metal.Weighted>
-0.0000

> <Gold.Chemscore.Lipo.Weighted>
-9.0886

> <Gold.Chemscore.Internal_Hbond.Weighted>
0.0000

> <Gold.Chemscore.DEClash.Weighted>
2.5009

> <Gold.Chemscore.DEInternal.Weighted>
3.3139

> <Gold.Chemscore.Rot.Weighted>
8.5122

> <Gold.Chemscore.Internal.Correction.Weighted>
   9.000000E+99

> <Gold.Protein.RotatedTorsions>
[ 6907 6896 6895 6894 ] final   38.01 input  -60.11 | X-H torsion
[ 7974 7965 7964 7962 ] final -109.64 input  175.53 | X-H torsion
[ 8008 7997 7996 7995 ] final -144.79 input   59.86 | X-H torsion
[ 10167 10162 10161 10158 ] final   13.14 input  -65.29 | X-H torsion
[ 10718 10713 10712 10709 ] final  -64.89 input   66.30 | X-H torsion
[ 10763 10752 10751 10750 ] final -148.22 input  -60.55 | X-H torsion
[ 11005 11000 10999 10996 ] final  -15.68 input  -57.11 | X-H torsion

> <Gold.Protein.ActiveResidues>
 VAL166  LYS551  ARG553  GLY616  TRP617  ASP618  TYR619  PRO620  LYS621  CYS622 
 ASP623  PHE694  ASN695  SER759  ASP760  ASP761  ALA762  ILE779  LEU786  VAL792 
 PHE793  MET794  SER795  GLU796  ALA797  LYS798  CYS799  TRP800  GLU811  SER814 

> <Gold.Protein.RotatedAtoms>
  152.1508  134.8989  160.0547 H   0  0  0  0  0  0  0  0  0  0  0  0  # atno 6907 bound_to 6896
  152.0022  133.3824  159.4194 H   0  0  0  0  0  0  0  0  0  0  0  0  # atno 6908 bound_to 6896
  150.6875  134.3744  159.5050 H   0  0  0  0  0  0  0  0  0  0  0  0  # atno 6909 bound_to 6896
  145.1780  140.8957  143.3496 H   0  0  0  0  0  0  0  0  0  0  0  0  # atno 7974 bound_to 7965
  155.5326  140.0601  157.2886 H   0  0  0  0  0  0  0  0  0  0  0  0  # atno 8008 bound_to 7997
  154.4479  140.1933  156.0554 H   0  0  0  0  0  0  0  0  0  0  0  0  # atno 8009 bound_to 7997
  156.0641  140.3268  155.7501 H   0  0  0  0  0  0  0  0  0  0  0  0  # atno 8010 bound_to 7997
  140.6022  143.8581  150.6977 H   0  0  0  0  0  0  0  0  0  0  0  0  # atno 10167 bound_to 10162
  156.0702  130.4239  150.1485 H   0  0  0  0  0  0  0  0  0  0  0  0  # atno 10718 bound_to 10713
  154.8244  135.3340  154.6940 H   0  0  0  0  0  0  0  0  0  0  0  0  # atno 10763 bound_to 10752
  153.7568  135.6935  153.4938 H   0  0  0  0  0  0  0  0  0  0  0  0  # atno 10764 bound_to 10752
  153.2138  135.4473  155.0360 H   0  0  0  0  0  0  0  0  0  0  0  0  # atno 10765 bound_to 10752
  140.7991  133.8228  155.9452 H   0  0  0  0  0  0  0  0  0  0  0  0  # atno 11005 bound_to 11000
  145.0165  139.3462  143.6094 LP  0  0  0  0  0  0  0  0  0  0  0  0  # atno 17320 bound_to 7965
  146.3458  139.9449  142.8736 LP  0  0  0  0  0  0  0  0  0  0  0  0  # atno 17321 bound_to 7965
  140.2129  143.3869  152.1704 LP  0  0  0  0  0  0  0  0  0  0  0  0  # atno 17342 bound_to 10162
  139.5299  144.7147  151.5093 LP  0  0  0  0  0  0  0  0  0  0  0  0  # atno 17343 bound_to 10162
  156.9537  130.9783  151.3493 LP  0  0  0  0  0  0  0  0  0  0  0  0  # atno 17370 bound_to 10713
  157.5768  130.8348  149.8467 LP  0  0  0  0  0  0  0  0  0  0  0  0  # atno 17371 bound_to 10713
  140.9313  134.2018  157.4862 LP  0  0  0  0  0  0  0  0  0  0  0  0  # atno 17394 bound_to 11000
  139.8723  134.9834  156.5196 LP  0  0  0  0  0  0  0  0  0  0  0  0  # atno 17395 bound_to 11000

$$$$
