AV-unprocessed.smi:2667|AV-procd|sdf|10337|dock5
  -GOLD-   2272014363D 1   1.00000     0.00000
 Structure written by MMmdl.
 45 47  0  0  0  0  0  0  0  0  2 V2000
  149.4313  129.6005  153.9108 C   0  0  0  0  0  0  0  0  0  0  0  0
  149.1279  130.5903  155.0466 C   0  0  0  0  0  0  0  0  0  0  0  0
  150.3786  131.2399  155.6590 C   0  0  0  0  0  0  0  0  0  0  0  0
  151.2606  130.5307  156.1456 O   0  0  0  0  0  0  0  0  0  0  0  0
  150.4603  132.7294  155.6326 C   0  0  0  0  0  0  0  0  0  0  0  0
  151.3991  133.4422  156.4146 C   0  0  0  0  0  0  0  0  0  0  0  0
  151.4500  134.8483  156.3634 C   0  0  0  0  0  0  0  0  0  0  0  0
  150.5728  135.5748  155.5350 C   0  0  0  0  0  0  0  0  0  0  0  0
  150.6989  136.9462  155.5442 O   0  0  0  0  0  0  0  0  0  0  0  0
  151.9783  137.5090  155.8003 C   0  0  0  0  0  0  0  0  0  0  0  0
  151.9086  139.0483  155.8358 C   0  0  1  0  0  0  0  0  0  0  0  0
  151.2945  139.5107  154.6508 O   0  0  0  0  0  0  0  0  0  0  0  0
  151.2905  139.6825  157.1071 C   0  0  0  0  0  0  0  0  0  0  0  0
  151.0977  141.1407  157.0561 N   0  0  0  0  0  0  0  0  0  0  0  0
  150.3199  141.8859  156.2228 C   0  0  0  0  0  0  0  0  0  0  0  0
  150.4776  143.1931  156.5687 N   0  3  0  0  0  0  0  0  0  0  0  0
  151.3534  143.2854  157.6522 C   0  0  0  0  0  0  0  0  0  0  0  0
  151.8149  144.3928  158.3575 C   0  0  0  0  0  0  0  0  0  0  0  0
  152.7026  144.1395  159.4238 C   0  0  0  0  0  0  0  0  0  0  0  0
  153.0968  142.8269  159.7548 C   0  0  0  0  0  0  0  0  0  0  0  0
  152.6222  141.7119  159.0330 C   0  0  0  0  0  0  0  0  0  0  0  0
  151.7496  141.9701  157.9764 C   0  0  0  0  0  0  0  0  0  0  0  0
  149.6296  134.8643  154.7538 C   0  0  0  0  0  0  0  0  0  0  0  0
  149.5773  133.4580  154.8039 C   0  0  0  0  0  0  0  0  0  0  0  0
  148.5085  129.1695  153.5221 H   0  0  0  0  0  0  0  0  0  0  0  0
  150.0586  128.7775  154.2557 H   0  0  0  0  0  0  0  0  0  0  0  0
  149.9408  130.0907  153.0805 H   0  0  0  0  0  0  0  0  0  0  0  0
  148.4751  131.3784  154.6707 H   0  0  0  0  0  0  0  0  0  0  0  0
  148.5832  130.0728  155.8365 H   0  0  0  0  0  0  0  0  0  0  0  0
  152.0940  132.9318  157.0644 H   0  0  0  0  0  0  0  0  0  0  0  0
  152.1733  135.3767  156.9671 H   0  0  0  0  0  0  0  0  0  0  0  0
  152.3445  137.1563  156.7658 H   0  0  0  0  0  0  0  0  0  0  0  0
  152.6905  137.1864  155.0388 H   0  0  0  0  0  0  0  0  0  0  0  0
  152.9371  139.4064  155.7793 H   0  0  0  0  0  0  0  0  0  0  0  0
  150.3624  139.5625  154.7959 H   0  0  0  0  0  0  0  0  0  0  0  0
  150.3088  139.2417  157.2857 H   0  0  0  0  0  0  0  0  0  0  0  0
  151.8885  139.4434  157.9872 H   0  0  0  0  0  0  0  0  0  0  0  0
  149.7035  141.5086  155.4197 H   0  0  0  0  0  0  0  0  0  0  0  0
  151.5123  145.3992  158.1080 H   0  0  0  0  0  0  0  0  0  0  0  0
  153.0878  144.9683  160.0003 H   0  0  0  0  0  0  0  0  0  0  0  0
  153.7781  142.6715  160.5788 H   0  0  0  0  0  0  0  0  0  0  0  0
  152.9309  140.7113  159.2952 H   0  0  0  0  0  0  0  0  0  0  0  0
  148.9325  135.3748  154.1070 H   0  0  0  0  0  0  0  0  0  0  0  0
  148.8466  132.9457  154.1948 H   0  0  0  0  0  0  0  0  0  0  0  0
  150.0172  143.9628  156.1001 H   0  0  0  0  0  0  0  0  0  0  0  0
  1  2  1  0  0  0  0
  1 25  1  0  0  0  0
  1 26  1  0  0  0  0
  1 27  1  0  0  0  0
  2  3  1  0  0  0  0
  2 28  1  0  0  0  0
  2 29  1  0  0  0  0
  3  4  2  0  0  0  0
  3  5  1  0  0  0  0
  5 24  1  0  0  0  0
  5  6  2  0  0  0  0
  6  7  1  0  0  0  0
  6 30  1  0  0  0  0
  7  8  2  0  0  0  0
  7 31  1  0  0  0  0
  8  9  1  0  0  0  0
  8 23  1  0  0  0  0
  9 10  1  0  0  0  0
 10 11  1  0  0  0  0
 10 32  1  0  0  0  0
 10 33  1  0  0  0  0
 11 12  1  0  0  0  0
 11 13  1  0  0  0  0
 11 34  1  0  0  0  0
 12 35  1  0  0  0  0
 13 14  1  0  0  0  0
 13 36  1  0  0  0  0
 13 37  1  0  0  0  0
 14 22  1  0  0  0  0
 14 15  1  0  0  0  0
 15 16  2  0  0  0  0
 15 38  1  0  0  0  0
 16 17  1  0  0  0  0
 16 45  1  0  0  0  0
 17 22  2  0  0  0  0
 17 18  1  0  0  0  0
 18 19  2  0  0  0  0
 18 39  1  0  0  0  0
 19 20  1  0  0  0  0
 19 40  1  0  0  0  0
 20 21  2  0  0  0  0
 20 41  1  0  0  0  0
 21 22  1  0  0  0  0
 21 42  1  0  0  0  0
 23 24  2  0  0  0  0
 23 43  1  0  0  0  0
 24 44  1  0  0  0  0
M  CHG  1  16   1
M  END
> <s_m_source_file>
AV-unprocessed.smi

> <i_m_source_file_index>
2667

> <i_lp_mmshare_version>
43012

> <i_f3d_flags>
0

> <s_epik_input>
W0NIM11bQ0gyXUMoPU8pYzFbY0hdW2NIXWMoW2NIXVtjSF0xKU9bQ0gyXVtDQEhdKFtPSF0pW0NIMl1uKFtjSF1uMiljKGMyMylbY0hdW2NIXVtjSF1bY0hdMw==

> <s_epik_cmdline>
J2VwaWtfcHl0aG9uJywgJy1waCcsICc3LjAnLCAnLXRuJywgJzgnLCAnLW1hJywgJzIwMCcsICctbWV0YWxfYmluZGluZycsICctaW1hZScsICc8aW5maWxlLm1hZT4nLCAnLW9tYWUnLCAnPG91dGZpbGUubWFlPic=

> <r_lp_tautomer_probability>
0.9999

> <r_epik_Ionization_Penalty>
1.40272

> <r_epik_Ionization_Penalty_Charging>
1.40272

> <r_epik_Ionization_Penalty_Neutral>
2.3993e-06

> <r_epik_State_Penalty>
1.48501

> <r_epik_Charging_Adjusted_Penalty>
2.88772

> <i_epik_Tot_Q>
1

> <i_epik_Tot_abs_Q>
1

> <r_epik_Metal_State_Penalty>
5.5274

> <b_epik_Metal_Only>
0

> <s_lp_Force_Field>
OPLS_2005

> <r_lp_Energy>
30.2485

> <b_lp_Chiralities_Consistent>
1

> <s_lp_Variant>
AV-unprocessed.smi:2667-4

> <Gold.Version>
5.8.1

> <Gold.Id.Protein>
6NUR|6NUR_protein|mol2

> <Gold.PLP.Fitness>
55.2641

> <Gold.PLP.PLP>
-47.3497

> <Gold.PLP.part.hbond>
-1.8127

> <Gold.PLP.part.metal>
0.0000

> <Gold.PLP.part.buried>
-5.1245

> <Gold.PLP.part.nonpolar>
-41.2374

> <Gold.PLP.part.repulsive>
0.1489

> <Gold.PLP.ligand.clash>
0.0000

> <Gold.PLP.ligand.torsion>
0.6004

> <Gold.PLP.Chemscore.Hbond>
3.0000

> <Gold.PLP.Chemscore.CHOScore>
0.0000

> <Gold.PLP.Chemscore.Metal>
0.0000

> <Gold.Chemscore.Hbonds>
donor molecule, donor type, donor heavy atom, donor atom, acceptor molecule, acceptor atom, score
      L1  H    16    45       P1  8028  1.43
      P1  H  7989  7998       L1    12  1.00

> <Gold.PLP.Chemscore.Internal.Correction>
0.1151

> <Gold.Rescore>
     Score         DG    S(hbond)    S(metal)    S(lipo)     H(rot)  DE(clash)    DE(int)     intcor
     18.11     -19.79       1.96        0.00     122.89       2.59       0.04       1.64       ----

> <Gold.Chemscore.Fitness>
18.1085

> <Gold.Chemscore.DG>
-19.7874

> <Gold.Chemscore.ZeroCoef>
-5.4800

> <Gold.Chemscore.Hbond>
1.9618

> <Gold.Chemscore.Metal>
0.0000

> <Gold.Chemscore.Lipo>
122.8948

> <Gold.Chemscore.Internal_Hbond>
0.0000

> <Gold.Chemscore.DEClash>
0.0434

> <Gold.Chemscore.DEInternal>
1.6355

> <Gold.Chemscore.Rot>
2.5873

> <Gold.Chemscore.Internal.Correction>
   9.000000E+99

> <Gold.Chemscore.Hbonds>
donor molecule, donor type, donor heavy atom, donor atom, acceptor molecule, acceptor atom, score
      L1  H    16    45       P1  8028  0.70
      P1  H  7989  7998       L1    12  0.50

> <Gold.Chemscore.Hbond.Weighted>
-6.5523

> <Gold.Chemscore.Metal.Weighted>
-0.0000

> <Gold.Chemscore.Lipo.Weighted>
-14.3787

> <Gold.Chemscore.Internal_Hbond.Weighted>
0.0000

> <Gold.Chemscore.DEClash.Weighted>
0.0434

> <Gold.Chemscore.DEInternal.Weighted>
1.6355

> <Gold.Chemscore.Rot.Weighted>
6.6235

> <Gold.Chemscore.Internal.Correction.Weighted>
   9.000000E+99

> <Gold.Protein.RotatedTorsions>
[ 6907 6896 6895 6894 ] final  116.05 input  -60.11 | X-H torsion
[ 7974 7965 7964 7962 ] final   75.74 input  175.53 | X-H torsion
[ 8008 7997 7996 7995 ] final  113.85 input   59.86 | X-H torsion
[ 10167 10162 10161 10158 ] final  -14.74 input  -65.29 | X-H torsion
[ 10718 10713 10712 10709 ] final   48.83 input   66.30 | X-H torsion
[ 10763 10752 10751 10750 ] final  -40.50 input  -60.55 | X-H torsion
[ 11005 11000 10999 10996 ] final  -91.75 input  -57.11 | X-H torsion

> <Gold.Protein.ActiveResidues>
 VAL166  LYS551  ARG553  GLY616  TRP617  ASP618  TYR619  PRO620  LYS621  CYS622 
 ASP623  PHE694  ASN695  SER759  ASP760  ASP761  ALA762  ILE779  LEU786  VAL792 
 PHE793  MET794  SER795  GLU796  ALA797  LYS798  CYS799  TRP800  GLU811  SER814 

> <Gold.Protein.RotatedAtoms>
  152.4703  133.8014  159.6954 H   0  0  0  0  0  0  0  0  0  0  0  0  # atno 6907 bound_to 6896
  150.8688  133.7525  159.2974 H   0  0  0  0  0  0  0  0  0  0  0  0  # atno 6908 bound_to 6896
  151.5067  135.1067  159.9895 H   0  0  0  0  0  0  0  0  0  0  0  0  # atno 6909 bound_to 6896
  145.7117  139.2617  143.1647 H   0  0  0  0  0  0  0  0  0  0  0  0  # atno 7974 bound_to 7965
  156.2284  140.2971  156.0125 H   0  0  0  0  0  0  0  0  0  0  0  0  # atno 8008 bound_to 7997
  155.2293  140.0418  157.2977 H   0  0  0  0  0  0  0  0  0  0  0  0  # atno 8009 bound_to 7997
  154.5954  140.2412  155.7871 H   0  0  0  0  0  0  0  0  0  0  0  0  # atno 8010 bound_to 7997
  140.7206  143.5290  150.9542 H   0  0  0  0  0  0  0  0  0  0  0  0  # atno 10167 bound_to 10162
  157.4726  130.8265  149.8004 H   0  0  0  0  0  0  0  0  0  0  0  0  # atno 10718 bound_to 10713
  153.9470  135.6755  153.4744 H   0  0  0  0  0  0  0  0  0  0  0  0  # atno 10763 bound_to 10752
  153.0903  135.4878  154.8674 H   0  0  0  0  0  0  0  0  0  0  0  0  # atno 10764 bound_to 10752
  154.7346  135.3146  154.8792 H   0  0  0  0  0  0  0  0  0  0  0  0  # atno 10765 bound_to 10752
  141.1538  133.7776  156.9923 H   0  0  0  0  0  0  0  0  0  0  0  0  # atno 11005 bound_to 11000
  146.0706  140.7872  142.9690 LP  0  0  0  0  0  0  0  0  0  0  0  0  # atno 17320 bound_to 7965
  144.6940  140.3337  143.7211 LP  0  0  0  0  0  0  0  0  0  0  0  0  # atno 17321 bound_to 7965
  139.9010  143.6836  152.3131 LP  0  0  0  0  0  0  0  0  0  0  0  0  # atno 17342 bound_to 10162
  139.7185  144.7607  151.0994 LP  0  0  0  0  0  0  0  0  0  0  0  0  # atno 17343 bound_to 10162
  156.0081  130.3846  150.2360 LP  0  0  0  0  0  0  0  0  0  0  0  0  # atno 17370 bound_to 10713
  157.0543  131.0072  151.3243 LP  0  0  0  0  0  0  0  0  0  0  0  0  # atno 17371 bound_to 10713
  140.0994  134.9544  157.1900 LP  0  0  0  0  0  0  0  0  0  0  0  0  # atno 17394 bound_to 11000
  140.3338  134.2780  155.7223 LP  0  0  0  0  0  0  0  0  0  0  0  0  # atno 17395 bound_to 11000

$$$$
