AV-unprocessed.smi:100|AV-procd|sdf|897|dock4
  -GOLD-   2262017393D 1   1.00000     0.00000
 Structure written by MMmdl.
 31 33  0  0  0  0  0  0  0  0  1 V2000
  155.5656  141.0232  162.9588 N   0  0  0  0  0  0  0  0  0  0  0  0
  154.8792  140.2303  162.1245 C   0  0  0  0  0  0  0  0  0  0  0  0
  154.9389  138.8908  162.3136 N   0  0  0  0  0  0  0  0  0  0  0  0
  154.2611  138.0785  161.4954 C   0  0  0  0  0  0  0  0  0  0  0  0
  153.4849  138.3967  160.4552 N   0  0  0  0  0  0  0  0  0  0  0  0
  153.4306  139.7478  160.2666 C   0  0  0  0  0  0  0  0  0  0  0  0
  154.0932  140.7282  161.0549 C   0  0  0  0  0  0  0  0  0  0  0  0
  153.8014  141.9981  160.5742 N   0  0  0  0  0  0  0  0  0  0  0  0
  153.0105  141.7752  159.5584 C   0  0  0  0  0  0  0  0  0  0  0  0
  152.7392  140.4478  159.3025 N   0  0  0  0  0  0  0  0  0  0  0  0
  151.8764  139.8615  158.2353 C   0  0  2  0  0  0  0  0  0  0  0  0
  152.5111  140.0949  157.0134 O   0  0  0  0  0  0  0  0  0  0  0  0
  151.5891  140.6011  156.0539 C   0  0  1  0  0  0  0  0  0  0  0  0
  150.9664  139.4237  155.2785 C   0  0  0  0  0  0  0  0  0  0  0  0
  150.3427  139.8960  154.1039 O   0  0  0  0  0  0  0  0  0  0  0  0
  150.5749  141.3642  156.9089 C   0  0  2  0  0  0  0  0  0  0  0  0
  151.0370  142.5925  157.1491 F   0  0  0  0  0  0  0  0  0  0  0  0
  150.5193  140.5834  158.2125 C   0  0  1  0  0  0  0  0  0  0  0  0
  149.4328  139.6790  158.2091 O   0  0  0  0  0  0  0  0  0  0  0  0
  155.5353  142.0253  162.8377 H   0  0  0  0  0  0  0  0  0  0  0  0
  156.1114  140.6180  163.7054 H   0  0  0  0  0  0  0  0  0  0  0  0
  154.3542  137.0227  161.7033 H   0  0  0  0  0  0  0  0  0  0  0  0
  152.6000  142.5787  158.9641 H   0  0  0  0  0  0  0  0  0  0  0  0
  151.8205  138.7937  158.4529 H   0  0  0  0  0  0  0  0  0  0  0  0
  152.0881  141.2797  155.3604 H   0  0  0  0  0  0  0  0  0  0  0  0
  151.7051  138.6614  155.0297 H   0  0  0  0  0  0  0  0  0  0  0  0
  150.1965  138.9413  155.8813 H   0  0  0  0  0  0  0  0  0  0  0  0
  150.3275  139.1962  153.4691 H   0  0  0  0  0  0  0  0  0  0  0  0
  149.6035  141.4893  156.4288 H   0  0  0  0  0  0  0  0  0  0  0  0
  150.4075  141.2425  159.0752 H   0  0  0  0  0  0  0  0  0  0  0  0
  148.7946  139.9769  158.8399 H   0  0  0  0  0  0  0  0  0  0  0  0
  1  2  1  0  0  0  0
  1 20  1  0  0  0  0
  1 21  1  0  0  0  0
  2  7  1  0  0  0  0
  2  3  2  0  0  0  0
  3  4  1  0  0  0  0
  4  5  2  0  0  0  0
  4 22  1  0  0  0  0
  5  6  1  0  0  0  0
  6 10  1  0  0  0  0
  6  7  2  0  0  0  0
  7  8  1  0  0  0  0
  8  9  2  0  0  0  0
  9 10  1  0  0  0  0
  9 23  1  0  0  0  0
 10 11  1  0  0  0  0
 11 18  1  0  0  0  0
 11 12  1  0  0  0  0
 11 24  1  0  0  0  0
 12 13  1  0  0  0  0
 13 14  1  0  0  0  0
 13 16  1  0  0  0  0
 13 25  1  0  0  0  0
 14 15  1  0  0  0  0
 14 26  1  0  0  0  0
 14 27  1  0  0  0  0
 15 28  1  0  0  0  0
 16 17  1  0  0  0  0
 16 18  1  0  0  0  0
 16 29  1  0  0  0  0
 18 19  1  0  0  0  0
 18 30  1  0  0  0  0
 19 31  1  0  0  0  0
M  END
> <s_m_source_file>
AV-unprocessed.smi

> <i_m_source_file_index>
100

> <i_lp_mmshare_version>
43012

> <i_f3d_flags>
0

> <s_epik_input>
bjFbY0hdbmMoW05IMl0pYyhjMTIpbltjSF1uMltDQEBIXTNPW0NAQEhdKFtDSDJdW09IXSlbQ0BIXShGKVtDQEhdM1tPSF0=

> <s_epik_cmdline>
J2VwaWtfcHl0aG9uJywgJy1waCcsICc3LjAnLCAnLXRuJywgJzgnLCAnLW1hJywgJzIwMCcsICctbWV0YWxfYmluZGluZycsICctaW1hZScsICc8aW5maWxlLm1hZT4nLCAnLW9tYWUnLCAnPG91dGZpbGUubWFlPic=

> <r_lp_tautomer_probability>
1

> <r_epik_Ionization_Penalty>
0.000750324

> <r_epik_Ionization_Penalty_Charging>
0

> <r_epik_Ionization_Penalty_Neutral>
0.000750324

> <r_epik_State_Penalty>
-0

> <r_epik_Charging_Adjusted_Penalty>
0

> <i_epik_Tot_Q>
0

> <i_epik_Tot_abs_Q>
0

> <r_epik_Metal_State_Penalty>
-0

> <b_epik_Metal_Only>
0

> <s_epik_Chemistry_Notes>
This compound contains an acetal/aminal-like group ( X-CH(R)-Y where X, Y are N, S, or O) that may be acid/base labile, releasing an aldehyde.

> <s_lp_Force_Field>
OPLS_2005

> <r_lp_Energy>
27.7777

> <b_lp_Chiralities_Consistent>
1

> <s_lp_Variant>
AV-unprocessed.smi:100-1

> <Gold.Version>
5.8.1

> <Gold.Id.Protein>
6NUR|6NUR_protein|mol2

> <Gold.PLP.Fitness>
39.2073

> <Gold.PLP.PLP>
-33.8673

> <Gold.PLP.part.hbond>
-3.8685

> <Gold.PLP.part.metal>
0.0000

> <Gold.PLP.part.buried>
-5.3945

> <Gold.PLP.part.nonpolar>
-24.6353

> <Gold.PLP.part.repulsive>
0.0000

> <Gold.PLP.ligand.clash>
0.0000

> <Gold.PLP.ligand.torsion>
0.3386

> <Gold.PLP.Chemscore.Hbond>
2.0000

> <Gold.PLP.Chemscore.CHOScore>
0.0000

> <Gold.PLP.Chemscore.Metal>
0.0000

> <Gold.Chemscore.Hbonds>
donor molecule, donor type, donor heavy atom, donor atom, acceptor molecule, acceptor atom, score
      P1  H  7989  7998       L1    15  1.00
      P1  H  7997  8008       L1    12  1.00

> <Gold.PLP.Chemscore.Internal.Correction>
0.0172

> <Gold.Rescore>
     Score         DG    S(hbond)    S(metal)    S(lipo)     H(rot)  DE(clash)    DE(int)     intcor
      5.86      -6.24       1.56        0.00      31.68       3.19       0.05       0.33       ----

> <Gold.Chemscore.Fitness>
5.8593

> <Gold.Chemscore.DG>
-6.2364

> <Gold.Chemscore.ZeroCoef>
-5.4800

> <Gold.Chemscore.Hbond>
1.5619

> <Gold.Chemscore.Metal>
0.0000

> <Gold.Chemscore.Lipo>
31.6784

> <Gold.Chemscore.Internal_Hbond>
0.0000

> <Gold.Chemscore.DEClash>
0.0460

> <Gold.Chemscore.DEInternal>
0.3310

> <Gold.Chemscore.Rot>
3.1901

> <Gold.Chemscore.Internal.Correction>
   9.000000E+99

> <Gold.Chemscore.Hbonds>
donor molecule, donor type, donor heavy atom, donor atom, acceptor molecule, acceptor atom, score
      P1  H  7989  7998       L1    15  0.08
      P1  H  7997  8008       L1    12  0.91

> <Gold.Chemscore.Hbond.Weighted>
-5.2167

> <Gold.Chemscore.Metal.Weighted>
-0.0000

> <Gold.Chemscore.Lipo.Weighted>
-3.7064

> <Gold.Chemscore.Internal_Hbond.Weighted>
0.0000

> <Gold.Chemscore.DEClash.Weighted>
0.0460

> <Gold.Chemscore.DEInternal.Weighted>
0.3310

> <Gold.Chemscore.Rot.Weighted>
8.1667

> <Gold.Chemscore.Internal.Correction.Weighted>
   9.000000E+99

> <Gold.Protein.RotatedTorsions>
[ 6907 6896 6895 6894 ] final  -32.16 input  -60.11 | X-H torsion
[ 7974 7965 7964 7962 ] final    3.26 input  175.53 | X-H torsion
[ 8008 7997 7996 7995 ] final  -51.72 input   59.86 | X-H torsion
[ 10167 10162 10161 10158 ] final -104.25 input  -65.29 | X-H torsion
[ 10718 10713 10712 10709 ] final -105.09 input   66.30 | X-H torsion
[ 10763 10752 10751 10750 ] final -120.96 input  -60.55 | X-H torsion
[ 11005 11000 10999 10996 ] final    1.50 input  -57.11 | X-H torsion

> <Gold.Protein.ActiveResidues>
 VAL166  LYS551  ARG553  GLY616  TRP617  ASP618  TYR619  PRO620  LYS621  CYS622 
 ASP623  PHE694  ASN695  SER759  ASP760  ASP761  ALA762  ILE779  LEU786  VAL792 
 PHE793  MET794  SER795  GLU796  ALA797  LYS798  CYS799  TRP800  GLU811  SER814 

> <Gold.Protein.RotatedAtoms>
  151.0825  134.9867  159.8362 H   0  0  0  0  0  0  0  0  0  0  0  0  # atno 6907 bound_to 6896
  152.5421  134.2164  159.8780 H   0  0  0  0  0  0  0  0  0  0  0  0  # atno 6908 bound_to 6896
  151.2195  133.4466  159.2634 H   0  0  0  0  0  0  0  0  0  0  0  0  # atno 6909 bound_to 6896
  146.2445  140.0711  142.8362 H   0  0  0  0  0  0  0  0  0  0  0  0  # atno 7974 bound_to 7965
  154.4089  140.1241  156.4874 H   0  0  0  0  0  0  0  0  0  0  0  0  # atno 8008 bound_to 7997
  155.7024  140.3494  155.4919 H   0  0  0  0  0  0  0  0  0  0  0  0  # atno 8009 bound_to 7997
  155.9373  140.1080  157.1074 H   0  0  0  0  0  0  0  0  0  0  0  0  # atno 8010 bound_to 7997
  140.2113  143.3744  152.1048 H   0  0  0  0  0  0  0  0  0  0  0  0  # atno 10167 bound_to 10162
  156.0331  130.5546  150.7489 H   0  0  0  0  0  0  0  0  0  0  0  0  # atno 10718 bound_to 10713
  154.8657  135.4185  154.2543 H   0  0  0  0  0  0  0  0  0  0  0  0  # atno 10763 bound_to 10752
  153.3483  135.6997  153.6815 H   0  0  0  0  0  0  0  0  0  0  0  0  # atno 10764 bound_to 10752
  153.5765  135.3581  155.2831 H   0  0  0  0  0  0  0  0  0  0  0  0  # atno 10765 bound_to 10752
  140.6147  133.9716  155.8195 H   0  0  0  0  0  0  0  0  0  0  0  0  # atno 11005 bound_to 11000
  145.0815  140.9224  143.4822 LP  0  0  0  0  0  0  0  0  0  0  0  0  # atno 17320 bound_to 7965
  145.0865  139.2921  143.5757 LP  0  0  0  0  0  0  0  0  0  0  0  0  # atno 17321 bound_to 7965
  139.5179  144.6998  151.5527 LP  0  0  0  0  0  0  0  0  0  0  0  0  # atno 17342 bound_to 10162
  140.6321  143.9055  150.6615 LP  0  0  0  0  0  0  0  0  0  0  0  0  # atno 17343 bound_to 10162
  157.5038  131.0920  151.0282 LP  0  0  0  0  0  0  0  0  0  0  0  0  # atno 17370 bound_to 10713
  157.0655  130.5843  149.5393 LP  0  0  0  0  0  0  0  0  0  0  0  0  # atno 17371 bound_to 10713
  141.0783  134.0100  157.3424 LP  0  0  0  0  0  0  0  0  0  0  0  0  # atno 17394 bound_to 11000
  139.9177  135.0198  156.7947 LP  0  0  0  0  0  0  0  0  0  0  0  0  # atno 17395 bound_to 11000

$$$$
