AV-unprocessed.smi:2289|AV-procd|sdf|9208|dock5
  -GOLD-   2272012423D 1   1.00000     0.00000
 Structure written by MMmdl.
 40 41  0  0  0  0  0  0  0  0  1 V2000
  151.1436  135.5169  156.3562 C   0  0  0  0  0  0  0  0  0  0  0  0
  150.6165  136.9404  156.3970 C   0  0  0  0  0  0  0  0  0  0  0  0
  150.9641  137.7443  155.3080 N   0  0  0  0  0  0  0  0  0  0  0  0
  150.5632  138.9724  155.2600 C   0  0  0  0  0  0  0  0  0  0  0  0
  149.7812  139.5366  156.2815 N   0  0  0  0  0  0  0  0  0  0  0  0
  149.3934  140.9468  156.0846 C   0  0  0  0  0  0  0  0  0  0  0  0
  149.6955  141.8731  157.2916 C   0  0  2  0  0  0  0  0  0  0  0  0
  148.6700  142.8411  157.3958 O   0  0  0  0  0  0  0  0  0  0  0  0
  151.0828  142.5543  157.2953 C   0  0  0  0  0  0  0  0  0  0  0  0
  151.9597  142.1119  158.4603 C   0  0  0  0  0  0  0  0  0  0  0  0
  152.4294  140.7804  158.4626 C   0  0  0  0  0  0  0  0  0  0  0  0
  153.2438  140.3059  159.5057 C   0  0  0  0  0  0  0  0  0  0  0  0
  153.5935  141.1630  160.5624 C   0  0  0  0  0  0  0  0  0  0  0  0
  153.1284  142.4907  160.5731 C   0  0  0  0  0  0  0  0  0  0  0  0
  152.3113  142.9849  159.5284 C   0  0  0  0  0  0  0  0  0  0  0  0
  151.8202  144.4331  159.5882 C   0  0  0  0  0  0  0  0  0  0  0  0
  152.2470  145.0519  160.6898 F   0  0  0  0  0  0  0  0  0  0  0  0
  152.2619  145.1319  158.5428 F   0  0  0  0  0  0  0  0  0  0  0  0
  150.4874  144.4570  159.5983 F   0  0  0  0  0  0  0  0  0  0  0  0
  149.3868  138.8169  157.3733 C   0  0  0  0  0  0  0  0  0  0  0  0
  148.6928  139.3131  158.2630 O   0  0  0  0  0  0  0  0  0  0  0  0
  149.8539  137.4218  157.4162 C   0  0  0  0  0  0  0  0  0  0  0  0
  149.4444  136.5924  158.6271 C   0  0  0  0  0  0  0  0  0  0  0  0
  150.3181  134.8048  156.3475 H   0  0  0  0  0  0  0  0  0  0  0  0
  151.7701  135.3157  157.2254 H   0  0  0  0  0  0  0  0  0  0  0  0
  151.7464  135.3414  155.4643 H   0  0  0  0  0  0  0  0  0  0  0  0
  150.8055  139.6419  154.4328 H   0  0  0  0  0  0  0  0  0  0  0  0
  149.8488  141.3443  155.1752 H   0  0  0  0  0  0  0  0  0  0  0  0
  148.3238  141.0071  155.8782 H   0  0  0  0  0  0  0  0  0  0  0  0
  149.6104  141.2551  158.1861 H   0  0  0  0  0  0  0  0  0  0  0  0
  148.8740  143.5592  156.8162 H   0  0  0  0  0  0  0  0  0  0  0  0
  151.6067  142.3397  156.3678 H   0  0  0  0  0  0  0  0  0  0  0  0
  150.9719  143.6397  157.3143 H   0  0  0  0  0  0  0  0  0  0  0  0
  152.1658  140.1142  157.6539 H   0  0  0  0  0  0  0  0  0  0  0  0
  153.5981  139.2856  159.4948 H   0  0  0  0  0  0  0  0  0  0  0  0
  154.2171  140.8022  161.3669 H   0  0  0  0  0  0  0  0  0  0  0  0
  153.4080  143.1252  161.4005 H   0  0  0  0  0  0  0  0  0  0  0  0
  149.8211  137.0514  159.5417 H   0  0  0  0  0  0  0  0  0  0  0  0
  149.8193  135.5708  158.5946 H   0  0  0  0  0  0  0  0  0  0  0  0
  148.3574  136.5406  158.6975 H   0  0  0  0  0  0  0  0  0  0  0  0
  1  2  1  0  0  0  0
  1 24  1  0  0  0  0
  1 25  1  0  0  0  0
  1 26  1  0  0  0  0
  2 22  2  0  0  0  0
  2  3  1  0  0  0  0
  3  4  2  0  0  0  0
  4  5  1  0  0  0  0
  4 27  1  0  0  0  0
  5  6  1  0  0  0  0
  5 20  1  0  0  0  0
  6  7  1  0  0  0  0
  6 28  1  0  0  0  0
  6 29  1  0  0  0  0
  7  8  1  0  0  0  0
  7  9  1  0  0  0  0
  7 30  1  0  0  0  0
  8 31  1  0  0  0  0
  9 10  1  0  0  0  0
  9 32  1  0  0  0  0
  9 33  1  0  0  0  0
 10 15  1  0  0  0  0
 10 11  2  0  0  0  0
 11 12  1  0  0  0  0
 11 34  1  0  0  0  0
 12 13  2  0  0  0  0
 12 35  1  0  0  0  0
 13 14  1  0  0  0  0
 13 36  1  0  0  0  0
 14 15  2  0  0  0  0
 14 37  1  0  0  0  0
 15 16  1  0  0  0  0
 16 17  1  0  0  0  0
 16 18  1  0  0  0  0
 16 19  1  0  0  0  0
 20 21  2  0  0  0  0
 20 22  1  0  0  0  0
 22 23  1  0  0  0  0
 23 38  1  0  0  0  0
 23 39  1  0  0  0  0
 23 40  1  0  0  0  0
M  END
> <s_m_source_file>
AV-unprocessed.smi

> <i_m_source_file_index>
2289

> <i_lp_mmshare_version>
43012

> <i_f3d_flags>
0

> <s_epik_input>
W0NIM11jMW5bY0hdbihjKD1PKWMxW0NIM10pW0NIMl1bQ0BIXShbT0hdKVtDSDJdYzJbY0hdW2NIXVtjSF1bY0hdYzJDKEYpKEYpRg==

> <s_epik_cmdline>
J2VwaWtfcHl0aG9uJywgJy1waCcsICc3LjAnLCAnLXRuJywgJzgnLCAnLW1hJywgJzIwMCcsICctbWV0YWxfYmluZGluZycsICctaW1hZScsICc8aW5maWxlLm1hZT4nLCAnLW9tYWUnLCAnPG91dGZpbGUubWFlPic=

> <r_lp_tautomer_probability>
1

> <r_epik_Ionization_Penalty>
8.92636e-05

> <r_epik_Ionization_Penalty_Charging>
8.63033e-08

> <r_epik_Ionization_Penalty_Neutral>
8.91773e-05

> <r_epik_State_Penalty>
-0

> <r_epik_Charging_Adjusted_Penalty>
8.63033e-08

> <i_epik_Tot_Q>
0

> <i_epik_Tot_abs_Q>
0

> <r_epik_Metal_State_Penalty>
-0

> <b_epik_Metal_Only>
0

> <s_lp_Force_Field>
OPLS_2005

> <r_lp_Energy>
23.7682

> <b_lp_Chiralities_Consistent>
1

> <s_lp_Variant>
AV-unprocessed.smi:2289-1

> <Gold.Version>
5.8.1

> <Gold.Id.Protein>
6NUR|6NUR_protein|mol2

> <Gold.PLP.Fitness>
44.9097

> <Gold.PLP.PLP>
-44.4792

> <Gold.PLP.part.hbond>
-2.3547

> <Gold.PLP.part.metal>
0.0000

> <Gold.PLP.part.buried>
-6.0401

> <Gold.PLP.part.nonpolar>
-36.5745

> <Gold.PLP.part.repulsive>
0.0832

> <Gold.PLP.ligand.clash>
1.4041

> <Gold.PLP.ligand.torsion>
1.3174

> <Gold.PLP.Chemscore.Hbond>
1.0000

> <Gold.PLP.Chemscore.CHOScore>
0.0000

> <Gold.PLP.Chemscore.Metal>
0.0000

> <Gold.Chemscore.Hbonds>
donor molecule, donor type, donor heavy atom, donor atom, acceptor molecule, acceptor atom, score
      L1  H     8    31       P1  8028  1.00

> <Gold.PLP.Chemscore.Internal.Correction>
1.4696

> <Gold.Rescore>
     Score         DG    S(hbond)    S(metal)    S(lipo)     H(rot)  DE(clash)    DE(int)     intcor
     11.32     -14.18       0.95        0.00      98.94       2.37       0.04       2.82       ----

> <Gold.Chemscore.Fitness>
11.3183

> <Gold.Chemscore.DG>
-14.1825

> <Gold.Chemscore.ZeroCoef>
-5.4800

> <Gold.Chemscore.Hbond>
0.9549

> <Gold.Chemscore.Metal>
0.0000

> <Gold.Chemscore.Lipo>
98.9367

> <Gold.Chemscore.Internal_Hbond>
0.0000

> <Gold.Chemscore.DEClash>
0.0424

> <Gold.Chemscore.DEInternal>
2.8218

> <Gold.Chemscore.Rot>
2.3681

> <Gold.Chemscore.Internal.Correction>
   9.000000E+99

> <Gold.Chemscore.Hbonds>
donor molecule, donor type, donor heavy atom, donor atom, acceptor molecule, acceptor atom, score
      L1  H     8    31       P1  8028  0.60

> <Gold.Chemscore.Hbond.Weighted>
-3.1893

> <Gold.Chemscore.Metal.Weighted>
-0.0000

> <Gold.Chemscore.Lipo.Weighted>
-11.5756

> <Gold.Chemscore.Internal_Hbond.Weighted>
0.0000

> <Gold.Chemscore.DEClash.Weighted>
0.0424

> <Gold.Chemscore.DEInternal.Weighted>
2.8218

> <Gold.Chemscore.Rot.Weighted>
6.0624

> <Gold.Chemscore.Internal.Correction.Weighted>
   9.000000E+99

> <Gold.Protein.RotatedTorsions>
[ 6907 6896 6895 6894 ] final  -98.36 input  -60.11 | X-H torsion
[ 7974 7965 7964 7962 ] final  125.87 input  175.53 | X-H torsion
[ 8008 7997 7996 7995 ] final -104.81 input   59.86 | X-H torsion
[ 10167 10162 10161 10158 ] final   97.11 input  -65.29 | X-H torsion
[ 10718 10713 10712 10709 ] final  -19.49 input   66.30 | X-H torsion
[ 10763 10752 10751 10750 ] final  -38.20 input  -60.55 | X-H torsion
[ 11005 11000 10999 10996 ] final   56.48 input  -57.11 | X-H torsion

> <Gold.Protein.ActiveResidues>
 VAL166  LYS551  ARG553  GLY616  TRP617  ASP618  TYR619  PRO620  LYS621  CYS622 
 ASP623  PHE694  ASN695  SER759  ASP760  ASP761  ALA762  ILE779  LEU786  VAL792 
 PHE793  MET794  SER795  GLU796  ALA797  LYS798  CYS799  TRP800  GLU811  SER814 

> <Gold.Protein.RotatedAtoms>
  150.7044  134.1207  159.4033 H   0  0  0  0  0  0  0  0  0  0  0  0  # atno 6907 bound_to 6896
  151.9193  135.0303  160.0530 H   0  0  0  0  0  0  0  0  0  0  0  0  # atno 6908 bound_to 6896
  152.2270  133.4992  159.5231 H   0  0  0  0  0  0  0  0  0  0  0  0  # atno 6909 bound_to 6896
  145.0681  139.3752  143.4971 H   0  0  0  0  0  0  0  0  0  0  0  0  # atno 7974 bound_to 7965
  154.8907  140.0416  157.1837 H   0  0  0  0  0  0  0  0  0  0  0  0  # atno 8008 bound_to 7997
  154.8543  140.2934  155.5557 H   0  0  0  0  0  0  0  0  0  0  0  0  # atno 8009 bound_to 7997
  156.2997  140.2459  156.3507 H   0  0  0  0  0  0  0  0  0  0  0  0  # atno 8010 bound_to 7997
  139.7832  144.6880  150.9994 H   0  0  0  0  0  0  0  0  0  0  0  0  # atno 10167 bound_to 10162
  156.5449  130.4687  149.6480 H   0  0  0  0  0  0  0  0  0  0  0  0  # atno 10718 bound_to 10713
  153.9089  135.6794  153.4752 H   0  0  0  0  0  0  0  0  0  0  0  0  # atno 10763 bound_to 10752
  153.1089  135.4792  154.8998 H   0  0  0  0  0  0  0  0  0  0  0  0  # atno 10764 bound_to 10752
  154.7537  135.3191  154.8465 H   0  0  0  0  0  0  0  0  0  0  0  0  # atno 10765 bound_to 10752
  140.0526  134.5716  155.9246 H   0  0  0  0  0  0  0  0  0  0  0  0  # atno 11005 bound_to 11000
  146.3527  140.0412  142.8643 LP  0  0  0  0  0  0  0  0  0  0  0  0  # atno 17320 bound_to 7965
  145.1326  140.9526  143.4535 LP  0  0  0  0  0  0  0  0  0  0  0  0  # atno 17321 bound_to 7965
  140.7819  143.4461  151.0481 LP  0  0  0  0  0  0  0  0  0  0  0  0  # atno 17342 bound_to 10162
  139.8140  143.7911  152.3173 LP  0  0  0  0  0  0  0  0  0  0  0  0  # atno 17343 bound_to 10162
  156.2937  130.7138  151.1994 LP  0  0  0  0  0  0  0  0  0  0  0  0  # atno 17370 bound_to 10713
  157.7398  131.0524  150.5205 LP  0  0  0  0  0  0  0  0  0  0  0  0  # atno 17371 bound_to 10713
  141.1937  133.6580  156.5561 LP  0  0  0  0  0  0  0  0  0  0  0  0  # atno 17394 bound_to 11000
  140.3894  134.7453  157.4712 LP  0  0  0  0  0  0  0  0  0  0  0  0  # atno 17395 bound_to 11000

$$$$
