AV-unprocessed.smi:2729|AV-procd|sdf|10526|dock4
  -GOLD-   2272014573D 1   1.00000     0.00000
 Structure written by MMmdl.
 33 34  0  0  0  0  0  0  0  0  1 V2000
  149.9725  139.9173  154.7505 C   0  0  0  0  0  0  0  0  0  0  0  0
  148.8197  140.8810  155.1019 C   0  0  1  0  0  0  0  0  0  0  0  0
  149.3188  142.0204  155.8843 N   0  0  0  0  0  0  0  0  0  0  0  0
  149.9823  142.0045  157.0516 C   0  0  0  0  0  0  0  0  0  0  0  0
  150.2675  140.9781  157.6672 O   0  0  0  0  0  0  0  0  0  0  0  0
  150.3070  143.2515  157.4325 N   0  0  0  0  0  0  0  0  0  0  0  0
  150.9944  143.6685  158.6038 C   0  0  0  0  0  0  0  0  0  0  0  0
  151.8624  142.8403  159.3560 C   0  0  0  0  0  0  0  0  0  0  0  0
  152.4700  143.3660  160.5122 C   0  0  0  0  0  0  0  0  0  0  0  0
  152.1826  144.6952  160.8785 C   0  0  0  0  0  0  0  0  0  0  0  0
  151.3470  145.4913  160.1790 N   0  0  0  0  0  0  0  0  0  0  0  0
  150.7677  144.9803  159.0718 C   0  0  0  0  0  0  0  0  0  0  0  0
  148.0699  141.3646  153.8320 C   0  0  0  0  0  0  0  0  0  0  0  0
  146.7282  141.9864  154.2369 C   0  0  0  0  0  0  0  0  0  0  0  0
  146.1815  141.0538  155.7134 S   0  0  0  0  0  0  0  0  0  0  0  0
  145.9696  141.9976  156.8215 O   0  0  0  0  0  0  0  0  0  0  0  0
  145.1411  140.0869  155.3316 O   0  0  0  0  0  0  0  0  0  0  0  0
  147.7647  140.1614  155.9664 C   0  0  0  0  0  0  0  0  0  0  0  0
  149.6020  139.0264  154.2425 H   0  0  0  0  0  0  0  0  0  0  0  0
  150.4991  139.5879  155.6467 H   0  0  0  0  0  0  0  0  0  0  0  0
  150.7037  140.3794  154.0875 H   0  0  0  0  0  0  0  0  0  0  0  0
  149.1539  142.9284  155.4746 H   0  0  0  0  0  0  0  0  0  0  0  0
  150.0832  143.9873  156.7784 H   0  0  0  0  0  0  0  0  0  0  0  0
  152.0618  141.8164  159.0814 H   0  0  0  0  0  0  0  0  0  0  0  0
  153.1376  142.7613  161.1082 H   0  0  0  0  0  0  0  0  0  0  0  0
  152.6311  145.1281  161.7605 H   0  0  0  0  0  0  0  0  0  0  0  0
  150.1030  145.6446  158.5389 H   0  0  0  0  0  0  0  0  0  0  0  0
  148.6566  142.0489  153.2195 H   0  0  0  0  0  0  0  0  0  0  0  0
  147.8623  140.4999  153.2002 H   0  0  0  0  0  0  0  0  0  0  0  0
  146.8554  143.0308  154.5224 H   0  0  0  0  0  0  0  0  0  0  0  0
  145.9756  141.9273  153.4509 H   0  0  0  0  0  0  0  0  0  0  0  0
  147.6137  139.1370  155.6242 H   0  0  0  0  0  0  0  0  0  0  0  0
  148.0131  140.1257  157.0277 H   0  0  0  0  0  0  0  0  0  0  0  0
  1  2  1  0  0  0  0
  1 19  1  0  0  0  0
  1 20  1  0  0  0  0
  1 21  1  0  0  0  0
  2 18  1  0  0  0  0
  2  3  1  0  0  0  0
  2 13  1  0  0  0  0
  3  4  1  0  0  0  0
  3 22  1  0  0  0  0
  4  5  2  0  0  0  0
  4  6  1  0  0  0  0
  6  7  1  0  0  0  0
  6 23  1  0  0  0  0
  7 12  1  0  0  0  0
  7  8  2  0  0  0  0
  8  9  1  0  0  0  0
  8 24  1  0  0  0  0
  9 10  2  0  0  0  0
  9 25  1  0  0  0  0
 10 11  1  0  0  0  0
 10 26  1  0  0  0  0
 11 12  2  0  0  0  0
 12 27  1  0  0  0  0
 13 14  1  0  0  0  0
 13 28  1  0  0  0  0
 13 29  1  0  0  0  0
 14 15  1  0  0  0  0
 14 30  1  0  0  0  0
 14 31  1  0  0  0  0
 15 16  2  0  0  0  0
 15 17  2  0  0  0  0
 15 18  1  0  0  0  0
 18 32  1  0  0  0  0
 18 33  1  0  0  0  0
M  END
> <s_m_source_file>
AV-unprocessed.smi

> <i_m_source_file_index>
2729

> <i_lp_mmshare_version>
43012

> <i_f3d_flags>
0

> <s_epik_input>
Tz1TKD1PKShbQ0gyXTEpW0NIMl1bQ0gyXVtDQEBdMShbQ0gzXSlbTkhdQyg9TylbTkhdYzJbY0hdW2NIXVtjSF1uW2NIXTI=

> <s_epik_cmdline>
J2VwaWtfcHl0aG9uJywgJy1waCcsICc3LjAnLCAnLXRuJywgJzgnLCAnLW1hJywgJzIwMCcsICctbWV0YWxfYmluZGluZycsICctaW1hZScsICc8aW5maWxlLm1hZT4nLCAnLW9tYWUnLCAnPG91dGZpbGUubWFlPic=

> <r_epik_Ionization_Penalty>
0.00438887

> <r_epik_Ionization_Penalty_Charging>
0

> <r_epik_Ionization_Penalty_Neutral>
0.00438887

> <r_epik_State_Penalty>
0.00314315

> <r_epik_Charging_Adjusted_Penalty>
0.00314315

> <i_epik_Tot_Q>
0

> <i_epik_Tot_abs_Q>
0

> <r_epik_Metal_State_Penalty>
-0

> <b_epik_Metal_Only>
0

> <s_lp_Force_Field>
OPLS_2005

> <r_lp_Energy>
5.02931

> <b_lp_Chiralities_Consistent>
1

> <s_lp_Variant>
AV-unprocessed.smi:2729-1

> <Gold.Version>
5.8.1

> <Gold.Id.Protein>
6NUR|6NUR_protein|mol2

> <Gold.PLP.Fitness>
40.9825

> <Gold.PLP.PLP>
-32.2614

> <Gold.PLP.part.hbond>
-2.0000

> <Gold.PLP.part.metal>
0.0000

> <Gold.PLP.part.buried>
-4.8348

> <Gold.PLP.part.nonpolar>
-25.8563

> <Gold.PLP.part.repulsive>
0.5282

> <Gold.PLP.ligand.clash>
0.0000

> <Gold.PLP.ligand.torsion>
0.1351

> <Gold.PLP.Chemscore.Hbond>
1.9920

> <Gold.PLP.Chemscore.CHOScore>
1.0000

> <Gold.PLP.Chemscore.Metal>
0.0000

> <Gold.Chemscore.Hbonds>
donor molecule, donor type, donor heavy atom, donor atom, acceptor molecule, acceptor atom, score
      L1  H     3    22       P1  8028  1.00
      L1  H     6    23       P1  8028  0.98
      L1  C    12    27       P1  8029  0.97

> <Gold.PLP.Chemscore.Internal.Correction>
0.0153

> <Gold.Rescore>
     Score         DG    S(hbond)    S(metal)    S(lipo)     H(rot)  DE(clash)    DE(int)     intcor
     17.80     -19.03       1.96        0.00      81.59       1.00       0.01       1.22       ----

> <Gold.Chemscore.Fitness>
17.8021

> <Gold.Chemscore.DG>
-19.0290

> <Gold.Chemscore.ZeroCoef>
-5.4800

> <Gold.Chemscore.Hbond>
1.9650

> <Gold.Chemscore.Metal>
0.0000

> <Gold.Chemscore.Lipo>
81.5890

> <Gold.Chemscore.Internal_Hbond>
0.0000

> <Gold.Chemscore.DEClash>
0.0060

> <Gold.Chemscore.DEInternal>
1.2209

> <Gold.Chemscore.Rot>
1.0000

> <Gold.Chemscore.Internal.Correction>
   9.000000E+99

> <Gold.Chemscore.Hbonds>
donor molecule, donor type, donor heavy atom, donor atom, acceptor molecule, acceptor atom, score
      L1  H     3    22       P1  8028  0.95
      L1  H     6    23       P1  8028  0.92

> <Gold.Chemscore.Hbond.Weighted>
-6.5630

> <Gold.Chemscore.Metal.Weighted>
-0.0000

> <Gold.Chemscore.Lipo.Weighted>
-9.5459

> <Gold.Chemscore.Internal_Hbond.Weighted>
0.0000

> <Gold.Chemscore.DEClash.Weighted>
0.0060

> <Gold.Chemscore.DEInternal.Weighted>
1.2209

> <Gold.Chemscore.Rot.Weighted>
2.5600

> <Gold.Chemscore.Internal.Correction.Weighted>
   9.000000E+99

> <Gold.Protein.RotatedTorsions>
[ 6907 6896 6895 6894 ] final -151.88 input  -60.11 | X-H torsion
[ 7974 7965 7964 7962 ] final  -25.67 input  175.53 | X-H torsion
[ 8008 7997 7996 7995 ] final   92.28 input   59.86 | X-H torsion
[ 10167 10162 10161 10158 ] final  -94.53 input  -65.29 | X-H torsion
[ 10718 10713 10712 10709 ] final   -0.49 input   66.30 | X-H torsion
[ 10763 10752 10751 10750 ] final   37.61 input  -60.55 | X-H torsion
[ 11005 11000 10999 10996 ] final -130.82 input  -57.11 | X-H torsion

> <Gold.Protein.ActiveResidues>
 VAL166  LYS551  ARG553  GLY616  TRP617  ASP618  TYR619  PRO620  LYS621  CYS622 
 ASP623  PHE694  ASN695  SER759  ASP760  ASP761  ALA762  ILE779  LEU786  VAL792 
 PHE793  MET794  SER795  GLU796  ALA797  LYS798  CYS799  TRP800  GLU811  SER814 

> <Gold.Protein.RotatedAtoms>
  151.2196  133.4510  159.2600 H   0  0  0  0  0  0  0  0  0  0  0  0  # atno 6907 bound_to 6896
  151.0898  134.9909  159.8407 H   0  0  0  0  0  0  0  0  0  0  0  0  # atno 6908 bound_to 6896
  152.5433  134.2130  159.8810 H   0  0  0  0  0  0  0  0  0  0  0  0  # atno 6909 bound_to 6896
  146.1475  140.4918  142.8625 H   0  0  0  0  0  0  0  0  0  0  0  0  # atno 7974 bound_to 7965
  156.0336  140.3327  155.7166 H   0  0  0  0  0  0  0  0  0  0  0  0  # atno 8008 bound_to 7997
  155.5849  140.0640  157.2791 H   0  0  0  0  0  0  0  0  0  0  0  0  # atno 8009 bound_to 7997
  154.4363  140.1837  156.1002 H   0  0  0  0  0  0  0  0  0  0  0  0  # atno 8010 bound_to 7997
  140.3134  143.3091  152.0123 H   0  0  0  0  0  0  0  0  0  0  0  0  # atno 10167 bound_to 10162
  156.8196  130.5452  149.5699 H   0  0  0  0  0  0  0  0  0  0  0  0  # atno 10718 bound_to 10713
  153.0031  135.6273  154.2173 H   0  0  0  0  0  0  0  0  0  0  0  0  # atno 10763 bound_to 10752
  154.1916  135.2808  155.3022 H   0  0  0  0  0  0  0  0  0  0  0  0  # atno 10764 bound_to 10752
  154.5755  135.5663  153.7195 H   0  0  0  0  0  0  0  0  0  0  0  0  # atno 10765 bound_to 10752
  140.9312  134.1317  157.4233 H   0  0  0  0  0  0  0  0  0  0  0  0  # atno 11005 bound_to 11000
  144.7864  140.5945  143.6571 LP  0  0  0  0  0  0  0  0  0  0  0  0  # atno 17320 bound_to 7965
  145.4901  139.1489  143.3714 LP  0  0  0  0  0  0  0  0  0  0  0  0  # atno 17321 bound_to 7965
  139.4889  144.6367  151.6962 LP  0  0  0  0  0  0  0  0  0  0  0  0  # atno 17342 bound_to 10162
  140.5547  144.0367  150.6142 LP  0  0  0  0  0  0  0  0  0  0  0  0  # atno 17343 bound_to 10162
  156.0996  130.5959  150.9872 LP  0  0  0  0  0  0  0  0  0  0  0  0  # atno 17370 bound_to 10713
  157.6464  131.0903  150.8145 LP  0  0  0  0  0  0  0  0  0  0  0  0  # atno 17371 bound_to 10713
  139.8797  135.0006  156.6017 LP  0  0  0  0  0  0  0  0  0  0  0  0  # atno 17394 bound_to 11000
  140.7860  133.8621  155.8606 LP  0  0  0  0  0  0  0  0  0  0  0  0  # atno 17395 bound_to 11000

$$$$
