AV-unprocessed.smi:3172|AV-procd|sdf|12116|dock9
  -GOLD-   2272017553D 1   1.00000     0.00000
 Structure written by MMmdl.
 43 44  0  0  0  0  0  0  0  0  2 V2000
  151.4401  130.0154  157.2566 C   0  0  0  0  0  0  0  0  0  0  0  0
  150.9404  131.0988  156.3517 C   0  0  0  0  0  0  0  0  0  0  0  0
  150.8769  132.4238  156.7756 N   0  0  0  0  0  0  0  0  0  0  0  0
  150.3976  133.0701  155.7226 C   0  0  0  0  0  0  0  0  0  0  0  0
  150.1373  132.2921  154.6625 N   0  0  0  0  0  0  0  0  0  0  0  0
  149.6031  132.7263  153.3822 C   0  0  0  0  0  0  0  0  0  0  0  0
  148.1290  133.1730  153.4620 C   0  0  1  0  0  0  0  0  0  0  0  0
  147.8936  134.2855  154.4982 C   0  0  0  0  0  0  0  0  0  0  0  0
  147.6787  133.6246  152.1260 N   0  3  0  0  0  0  0  0  0  0  0  0
  146.2194  133.5752  151.8816 C   0  0  0  0  0  0  0  0  0  0  0  0
  145.8238  132.1714  151.3854 C   0  0  0  0  0  0  0  0  0  0  0  0
  144.3173  132.0771  151.0950 C   0  0  0  0  0  0  0  0  0  0  0  0
  143.8780  133.1509  150.0881 C   0  0  0  0  0  0  0  0  0  0  0  0
  144.2663  134.5561  150.5734 C   0  0  0  0  0  0  0  0  0  0  0  0
  145.7728  134.6498  150.8662 C   0  0  0  0  0  0  0  0  0  0  0  0
  150.4945  131.0018  155.0505 C   0  0  0  0  0  0  0  0  0  0  0  0
  150.3803  129.8048  154.1617 C   0  0  0  0  0  0  0  0  0  0  0  0
  152.3487  129.5620  156.8600 H   0  0  0  0  0  0  0  0  0  0  0  0
  150.6972  129.2254  157.3700 H   0  0  0  0  0  0  0  0  0  0  0  0
  151.6699  130.3967  158.2523 H   0  0  0  0  0  0  0  0  0  0  0  0
  150.2253  134.1367  155.7253 H   0  0  0  0  0  0  0  0  0  0  0  0
  150.2235  133.5438  153.0108 H   0  0  0  0  0  0  0  0  0  0  0  0
  149.7147  131.9094  152.6682 H   0  0  0  0  0  0  0  0  0  0  0  0
  147.5366  132.3090  153.7637 H   0  0  0  0  0  0  0  0  0  0  0  0
  148.1356  133.9504  155.5071 H   0  0  0  0  0  0  0  0  0  0  0  0
  146.8507  134.6031  154.5085 H   0  0  0  0  0  0  0  0  0  0  0  0
  148.5045  135.1629  154.2833 H   0  0  0  0  0  0  0  0  0  0  0  0
  148.0090  134.5657  151.9664 H   0  0  0  0  0  0  0  0  0  0  0  0
  145.7114  133.7484  152.8320 H   0  0  0  0  0  0  0  0  0  0  0  0
  146.3816  131.9272  150.4799 H   0  0  0  0  0  0  0  0  0  0  0  0
  146.0983  131.4216  152.1284 H   0  0  0  0  0  0  0  0  0  0  0  0
  144.0738  131.0860  150.7113 H   0  0  0  0  0  0  0  0  0  0  0  0
  143.7569  132.1950  152.0235 H   0  0  0  0  0  0  0  0  0  0  0  0
  144.3416  132.9568  149.1200 H   0  0  0  0  0  0  0  0  0  0  0  0
  142.8003  133.0956  149.9319 H   0  0  0  0  0  0  0  0  0  0  0  0
  143.9859  135.2980  149.8252 H   0  0  0  0  0  0  0  0  0  0  0  0
  143.7032  134.7994  151.4753 H   0  0  0  0  0  0  0  0  0  0  0  0
  145.9995  135.6488  151.2392 H   0  0  0  0  0  0  0  0  0  0  0  0
  146.3304  134.5340  149.9355 H   0  0  0  0  0  0  0  0  0  0  0  0
  150.8836  128.9430  154.6000 H   0  0  0  0  0  0  0  0  0  0  0  0
  150.8353  129.9922  153.1890 H   0  0  0  0  0  0  0  0  0  0  0  0
  149.3363  129.5342  154.0047 H   0  0  0  0  0  0  0  0  0  0  0  0
  148.1148  133.0186  151.4458 H   0  0  0  0  0  0  0  0  0  0  0  0
  1  2  1  0  0  0  0
  1 18  1  0  0  0  0
  1 19  1  0  0  0  0
  1 20  1  0  0  0  0
  2 16  2  0  0  0  0
  2  3  1  0  0  0  0
  3  4  2  0  0  0  0
  4  5  1  0  0  0  0
  4 21  1  0  0  0  0
  5  6  1  0  0  0  0
  5 16  1  0  0  0  0
  6  7  1  0  0  0  0
  6 22  1  0  0  0  0
  6 23  1  0  0  0  0
  7  8  1  0  0  0  0
  7  9  1  0  0  0  0
  7 24  1  0  0  0  0
  8 25  1  0  0  0  0
  8 26  1  0  0  0  0
  8 27  1  0  0  0  0
  9 10  1  0  0  0  0
  9 28  1  0  0  0  0
  9 43  1  0  0  0  0
 10 15  1  0  0  0  0
 10 11  1  0  0  0  0
 10 29  1  0  0  0  0
 11 12  1  0  0  0  0
 11 30  1  0  0  0  0
 11 31  1  0  0  0  0
 12 13  1  0  0  0  0
 12 32  1  0  0  0  0
 12 33  1  0  0  0  0
 13 14  1  0  0  0  0
 13 34  1  0  0  0  0
 13 35  1  0  0  0  0
 14 15  1  0  0  0  0
 14 36  1  0  0  0  0
 14 37  1  0  0  0  0
 15 38  1  0  0  0  0
 15 39  1  0  0  0  0
 16 17  1  0  0  0  0
 17 40  1  0  0  0  0
 17 41  1  0  0  0  0
 17 42  1  0  0  0  0
M  CHG  1   9   1
M  END
> <s_m_source_file>
AV-unprocessed.smi

> <i_m_source_file_index>
3172

> <i_lp_mmshare_version>
43012

> <i_f3d_flags>
0

> <s_epik_input>
W0NIM11jMW5bY0hdbihjMVtDSDNdKVtDSDJdW0NASF0oW0NIM10pW05IXVtDSF0yW0NIMl1bQ0gyXVtDSDJdW0NIMl1bQ0gyXTI=

> <s_epik_cmdline>
J2VwaWtfcHl0aG9uJywgJy1waCcsICc3LjAnLCAnLXRuJywgJzgnLCAnLW1hJywgJzIwMCcsICctbWV0YWxfYmluZGluZycsICctaW1hZScsICc8aW5maWxlLm1hZT4nLCAnLW9tYWUnLCAnPG91dGZpbGUubWFlPic=

> <r_lp_tautomer_probability>
1

> <r_epik_Ionization_Penalty>
0.328572

> <r_epik_Ionization_Penalty_Charging>
0.328572

> <r_epik_Ionization_Penalty_Neutral>
3.58496e-13

> <r_epik_State_Penalty>
0.596179

> <r_epik_Charging_Adjusted_Penalty>
0.924751

> <i_epik_Tot_Q>
1

> <i_epik_Tot_abs_Q>
1

> <r_epik_Metal_State_Penalty>
0.00102252

> <b_epik_Metal_Only>
0

> <s_lp_Force_Field>
OPLS_2005

> <r_lp_Energy>
17.121

> <b_lp_Chiralities_Consistent>
1

> <s_lp_Variant>
AV-unprocessed.smi:3172-4

> <Gold.Version>
5.8.1

> <Gold.Id.Protein>
6NUR|6NUR_protein|mol2

> <Gold.PLP.Fitness>
40.6586

> <Gold.PLP.PLP>
-32.8708

> <Gold.PLP.part.hbond>
-2.0000

> <Gold.PLP.part.metal>
0.0000

> <Gold.PLP.part.buried>
-3.9226

> <Gold.PLP.part.nonpolar>
-26.8577

> <Gold.PLP.part.repulsive>
0.0238

> <Gold.PLP.ligand.clash>
0.0000

> <Gold.PLP.ligand.torsion>
0.6228

> <Gold.PLP.Chemscore.Hbond>
3.0000

> <Gold.PLP.Chemscore.CHOScore>
0.0000

> <Gold.PLP.Chemscore.Metal>
0.0000

> <Gold.Chemscore.Hbonds>
donor molecule, donor type, donor heavy atom, donor atom, acceptor molecule, acceptor atom, score
      L1  H     9    28       P1  7948  1.70

> <Gold.PLP.Chemscore.Internal.Correction>
0.0335

> <Gold.Rescore>
     Score         DG    S(hbond)    S(metal)    S(lipo)     H(rot)  DE(clash)    DE(int)     intcor
     15.31     -15.90       1.85        0.00      69.10       1.50       0.00       0.58       ----

> <Gold.Chemscore.Fitness>
15.3146

> <Gold.Chemscore.DG>
-15.8978

> <Gold.Chemscore.ZeroCoef>
-5.4800

> <Gold.Chemscore.Hbond>
1.8481

> <Gold.Chemscore.Metal>
0.0000

> <Gold.Chemscore.Lipo>
69.1007

> <Gold.Chemscore.Internal_Hbond>
0.0000

> <Gold.Chemscore.DEClash>
0.0029

> <Gold.Chemscore.DEInternal>
0.5802

> <Gold.Chemscore.Rot>
1.4999

> <Gold.Chemscore.Internal.Correction>
   9.000000E+99

> <Gold.Chemscore.Hbonds>
donor molecule, donor type, donor heavy atom, donor atom, acceptor molecule, acceptor atom, score
      L1  H     9    28       P1  7948  0.15

> <Gold.Chemscore.Hbond.Weighted>
-6.1727

> <Gold.Chemscore.Metal.Weighted>
-0.0000

> <Gold.Chemscore.Lipo.Weighted>
-8.0848

> <Gold.Chemscore.Internal_Hbond.Weighted>
0.0000

> <Gold.Chemscore.DEClash.Weighted>
0.0029

> <Gold.Chemscore.DEInternal.Weighted>
0.5802

> <Gold.Chemscore.Rot.Weighted>
3.8397

> <Gold.Chemscore.Internal.Correction.Weighted>
   9.000000E+99

> <Gold.Protein.RotatedTorsions>
[ 6907 6896 6895 6894 ] final -142.03 input  -60.11 | X-H torsion
[ 7974 7965 7964 7962 ] final  142.63 input  175.53 | X-H torsion
[ 8008 7997 7996 7995 ] final  -61.37 input   59.86 | X-H torsion
[ 10167 10162 10161 10158 ] final   40.14 input  -65.29 | X-H torsion
[ 10718 10713 10712 10709 ] final  -14.36 input   66.30 | X-H torsion
[ 10763 10752 10751 10750 ] final    1.92 input  -60.55 | X-H torsion
[ 11005 11000 10999 10996 ] final    4.86 input  -57.11 | X-H torsion

> <Gold.Protein.ActiveResidues>
 VAL166  LYS551  ARG553  GLY616  TRP617  ASP618  TYR619  PRO620  LYS621  CYS622 
 ASP623  PHE694  ASN695  SER759  ASP760  ASP761  ALA762  ILE779  LEU786  VAL792 
 PHE793  MET794  SER795  GLU796  ALA797  LYS798  CYS799  TRP800  GLU811  SER814 

> <Gold.Protein.RotatedAtoms>
  151.0816  133.5386  159.2620 H   0  0  0  0  0  0  0  0  0  0  0  0  # atno 6907 bound_to 6896
  151.2287  135.0545  159.8989 H   0  0  0  0  0  0  0  0  0  0  0  0  # atno 6908 bound_to 6896
  152.5424  134.0608  159.8205 H   0  0  0  0  0  0  0  0  0  0  0  0  # atno 6909 bound_to 6896
  144.8991  139.5448  143.5762 H   0  0  0  0  0  0  0  0  0  0  0  0  # atno 7974 bound_to 7965
  154.4444  140.1019  156.6420 H   0  0  0  0  0  0  0  0  0  0  0  0  # atno 8008 bound_to 7997
  155.5491  140.3485  155.4446 H   0  0  0  0  0  0  0  0  0  0  0  0  # atno 8009 bound_to 7997
  156.0542  140.1311  157.0005 H   0  0  0  0  0  0  0  0  0  0  0  0  # atno 8010 bound_to 7997
  140.3771  144.2028  150.6131 H   0  0  0  0  0  0  0  0  0  0  0  0  # atno 10167 bound_to 10162
  156.6171  130.4865  149.6179 H   0  0  0  0  0  0  0  0  0  0  0  0  # atno 10718 bound_to 10713
  153.3021  135.6956  153.7194 H   0  0  0  0  0  0  0  0  0  0  0  0  # atno 10763 bound_to 10752
  153.6104  135.3445  155.2977 H   0  0  0  0  0  0  0  0  0  0  0  0  # atno 10764 bound_to 10752
  154.8553  135.4362  154.2134 H   0  0  0  0  0  0  0  0  0  0  0  0  # atno 10765 bound_to 10752
  140.5772  134.0047  155.8032 H   0  0  0  0  0  0  0  0  0  0  0  0  # atno 11005 bound_to 11000
  146.3098  139.7706  142.9028 LP  0  0  0  0  0  0  0  0  0  0  0  0  # atno 17320 bound_to 7965
  145.3648  141.0332  143.3264 LP  0  0  0  0  0  0  0  0  0  0  0  0  # atno 17321 bound_to 7965
  140.4975  143.2328  151.8728 LP  0  0  0  0  0  0  0  0  0  0  0  0  # atno 17342 bound_to 10162
  139.4798  144.5097  151.8949 LP  0  0  0  0  0  0  0  0  0  0  0  0  # atno 17343 bound_to 10162
  156.2342  130.6813  151.1493 LP  0  0  0  0  0  0  0  0  0  0  0  0  # atno 17370 bound_to 10713
  157.7238  131.0664  150.6021 LP  0  0  0  0  0  0  0  0  0  0  0  0  # atno 17371 bound_to 10713
  141.1019  133.9754  157.3064 LP  0  0  0  0  0  0  0  0  0  0  0  0  # atno 17394 bound_to 11000
  139.9334  135.0198  156.8476 LP  0  0  0  0  0  0  0  0  0  0  0  0  # atno 17395 bound_to 11000

$$$$
