AV-unprocessed.smi:2007|AV-procd|sdf|8137|dock9
  -GOLD-   2272010373D 1   1.00000     0.00000
 Structure written by MMmdl.
 35 36  0  0  0  0  0  0  0  0  2 V2000
  152.4515  137.5090  157.0138 C   0  0  0  0  0  0  0  0  0  0  0  0
  151.0557  136.9861  156.6498 C   0  0  2  0  0  0  0  0  0  0  0  0
  150.5869  137.5574  155.2932 C   0  0  0  0  0  0  0  0  0  0  0  0
  149.9699  138.8839  155.3394 N   0  0  0  0  0  0  0  0  0  0  0  0
  150.9722  139.9282  155.5138 C   0  0  0  0  0  0  0  0  0  0  0  0
  150.3346  141.3268  155.5835 C   0  0  0  0  0  0  0  0  0  0  0  0
  149.5631  141.5590  154.4094 O   0  0  0  0  0  0  0  0  0  0  0  0
  148.5439  140.5820  154.2219 C   0  0  0  0  0  0  0  0  0  0  0  0
  149.1771  139.1821  154.1488 C   0  0  0  0  0  0  0  0  0  0  0  0
  150.1207  137.3616  157.7103 N   0  0  0  0  0  0  0  0  0  0  0  0
  149.3357  136.5351  158.4176 C   0  0  0  0  0  0  0  0  0  0  0  0
  149.3723  135.3194  158.2140 O   0  0  0  0  0  0  0  0  0  0  0  0
  148.5498  137.1711  159.3163 N   0  5  0  0  0  0  0  0  0  0  0  0
  148.0895  136.5102  160.3908 C   0  0  0  0  0  0  0  0  0  0  0  0
  147.7886  137.1147  161.5458 N   0  0  0  0  0  0  0  0  0  0  0  0
  147.3221  136.2371  162.5261 C   0  0  0  0  0  0  0  0  0  0  0  0
  147.2575  134.9354  162.1048 C   0  0  0  0  0  0  0  0  0  0  0  0
  147.7845  134.7718  160.4541 S   0  0  0  0  0  0  0  0  0  0  0  0
  153.1846  137.2285  156.2573 H   0  0  0  0  0  0  0  0  0  0  0  0
  152.7882  137.0976  157.9659 H   0  0  0  0  0  0  0  0  0  0  0  0
  152.4601  138.5962  157.0991 H   0  0  0  0  0  0  0  0  0  0  0  0
  151.1390  135.9010  156.5871 H   0  0  0  0  0  0  0  0  0  0  0  0
  151.4553  137.5948  154.6336 H   0  0  0  0  0  0  0  0  0  0  0  0
  149.8933  136.8563  154.8267 H   0  0  0  0  0  0  0  0  0  0  0  0
  151.5404  139.7474  156.4269 H   0  0  0  0  0  0  0  0  0  0  0  0
  151.6866  139.8971  154.6897 H   0  0  0  0  0  0  0  0  0  0  0  0
  149.7013  141.4188  156.4675 H   0  0  0  0  0  0  0  0  0  0  0  0
  151.1065  142.0925  155.6606 H   0  0  0  0  0  0  0  0  0  0  0  0
  147.8225  140.6358  155.0391 H   0  0  0  0  0  0  0  0  0  0  0  0
  148.0027  140.8023  153.3018 H   0  0  0  0  0  0  0  0  0  0  0  0
  149.8050  139.1150  153.2593 H   0  0  0  0  0  0  0  0  0  0  0  0
  148.3819  138.4489  154.0248 H   0  0  0  0  0  0  0  0  0  0  0  0
  150.0485  138.3464  157.9187 H   0  0  0  0  0  0  0  0  0  0  0  0
  147.0567  136.6268  163.4975 H   0  0  0  0  0  0  0  0  0  0  0  0
  146.9333  134.0681  162.6597 H   0  0  0  0  0  0  0  0  0  0  0  0
  1  2  1  0  0  0  0
  1 19  1  0  0  0  0
  1 20  1  0  0  0  0
  1 21  1  0  0  0  0
  2  3  1  0  0  0  0
  2 10  1  0  0  0  0
  2 22  1  0  0  0  0
  3  4  1  0  0  0  0
  3 23  1  0  0  0  0
  3 24  1  0  0  0  0
  4  9  1  0  0  0  0
  4  5  1  0  0  0  0
  5  6  1  0  0  0  0
  5 25  1  0  0  0  0
  5 26  1  0  0  0  0
  6  7  1  0  0  0  0
  6 27  1  0  0  0  0
  6 28  1  0  0  0  0
  7  8  1  0  0  0  0
  8  9  1  0  0  0  0
  8 29  1  0  0  0  0
  8 30  1  0  0  0  0
  9 31  1  0  0  0  0
  9 32  1  0  0  0  0
 10 11  1  0  0  0  0
 10 33  1  0  0  0  0
 11 12  2  0  0  0  0
 11 13  1  0  0  0  0
 13 14  1  0  0  0  0
 14 18  1  0  0  0  0
 14 15  2  0  0  0  0
 15 16  1  0  0  0  0
 16 17  2  0  0  0  0
 16 34  1  0  0  0  0
 17 18  1  0  0  0  0
 17 35  1  0  0  0  0
M  CHG  1  13  -1
M  END
> <s_m_source_file>
AV-unprocessed.smi

> <i_m_source_file_index>
2007

> <i_lp_mmshare_version>
43012

> <i_f3d_flags>
0

> <s_epik_input>
W0NIMl0xW0NIMl1PW0NIMl1bQ0gyXU4xW0NIMl1bQ0BASF0oW0NIM10pW05IXUMoPU8pW05IXWMybltjSF1bY0hdczI=

> <s_epik_cmdline>
J2VwaWtfcHl0aG9uJywgJy1waCcsICc3LjAnLCAnLXRuJywgJzgnLCAnLW1hJywgJzIwMCcsICctbWV0YWxfYmluZGluZycsICctaW1hZScsICc8aW5maWxlLm1hZT4nLCAnLW9tYWUnLCAnPG91dGZpbGUubWFlPic=

> <r_lp_tautomer_probability>
0.999

> <r_epik_Ionization_Penalty>
7.09127

> <r_epik_Ionization_Penalty_Charging>
5.74083

> <r_epik_Ionization_Penalty_Neutral>
1.35044

> <r_epik_State_Penalty>
5.95014

> <r_epik_Charging_Adjusted_Penalty>
11.691

> <i_epik_Tot_Q>
-1

> <i_epik_Tot_abs_Q>
1

> <r_epik_Metal_State_Penalty>
1.93831

> <b_epik_Metal_Only>
1

> <s_lp_Force_Field>
OPLS_2005

> <r_lp_Energy>
21.0216

> <b_lp_Chiralities_Consistent>
1

> <s_lp_Variant>
AV-unprocessed.smi:2007-5

> <Gold.Version>
5.8.1

> <Gold.Id.Protein>
6NUR|6NUR_protein|mol2

> <Gold.PLP.Fitness>
39.2771

> <Gold.PLP.PLP>
-31.2994

> <Gold.PLP.part.hbond>
-5.0000

> <Gold.PLP.part.metal>
0.0000

> <Gold.PLP.part.buried>
-1.0506

> <Gold.PLP.part.nonpolar>
-23.3276

> <Gold.PLP.part.repulsive>
0.3008

> <Gold.PLP.ligand.clash>
0.0000

> <Gold.PLP.ligand.torsion>
0.7112

> <Gold.PLP.Chemscore.Hbond>
3.1200

> <Gold.PLP.Chemscore.CHOScore>
0.0000

> <Gold.PLP.Chemscore.Metal>
0.0000

> <Gold.Chemscore.Hbonds>
donor molecule, donor type, donor heavy atom, donor atom, acceptor molecule, acceptor atom, score
      P1  H  6896  6909       L1    12  1.00
      P1  H  6931  6943       L1    15  1.00
      P1  H  6934  6947       L1    15  0.63
      P1  H  8011  8017       L1     7  0.24

> <Gold.PLP.Chemscore.Internal.Correction>
0.0401

> <Gold.Rescore>
     Score         DG    S(hbond)    S(metal)    S(lipo)     H(rot)  DE(clash)    DE(int)     intcor
     15.70     -18.85       2.83        0.00      67.35       1.55       0.95       2.21       ----

> <Gold.Chemscore.Fitness>
15.6954

> <Gold.Chemscore.DG>
-18.8517

> <Gold.Chemscore.ZeroCoef>
-5.4800

> <Gold.Chemscore.Hbond>
2.8331

> <Gold.Chemscore.Metal>
0.0000

> <Gold.Chemscore.Lipo>
67.3465

> <Gold.Chemscore.Internal_Hbond>
0.0000

> <Gold.Chemscore.DEClash>
0.9500

> <Gold.Chemscore.DEInternal>
2.2063

> <Gold.Chemscore.Rot>
1.5510

> <Gold.Chemscore.Internal.Correction>
   9.000000E+99

> <Gold.Chemscore.Hbonds>
donor molecule, donor type, donor heavy atom, donor atom, acceptor molecule, acceptor atom, score
      P1  H  6896  6909       L1    12  0.53
      P1  H  6931  6943       L1    15  0.67
      P1  H  6934  6947       L1    15  0.25
      P1  H  8011  8017       L1     7  0.10

> <Gold.Chemscore.Hbond.Weighted>
-9.4627

> <Gold.Chemscore.Metal.Weighted>
-0.0000

> <Gold.Chemscore.Lipo.Weighted>
-7.8795

> <Gold.Chemscore.Internal_Hbond.Weighted>
0.0000

> <Gold.Chemscore.DEClash.Weighted>
0.9500

> <Gold.Chemscore.DEInternal.Weighted>
2.2063

> <Gold.Chemscore.Rot.Weighted>
3.9706

> <Gold.Chemscore.Internal.Correction.Weighted>
   9.000000E+99

> <Gold.Protein.RotatedTorsions>
[ 6907 6896 6895 6894 ] final   49.13 input  -60.11 | X-H torsion
[ 7974 7965 7964 7962 ] final   16.01 input  175.53 | X-H torsion
[ 8008 7997 7996 7995 ] final -157.27 input   59.86 | X-H torsion
[ 10167 10162 10161 10158 ] final  -86.66 input  -65.29 | X-H torsion
[ 10718 10713 10712 10709 ] final   -4.12 input   66.30 | X-H torsion
[ 10763 10752 10751 10750 ] final  -53.46 input  -60.55 | X-H torsion
[ 11005 11000 10999 10996 ] final  114.82 input  -57.11 | X-H torsion

> <Gold.Protein.ActiveResidues>
 VAL166  LYS551  ARG553  GLY616  TRP617  ASP618  TYR619  PRO620  LYS621  CYS622 
 ASP623  PHE694  ASN695  SER759  ASP760  ASP761  ALA762  ILE779  LEU786  VAL792 
 PHE793  MET794  SER795  GLU796  ALA797  LYS798  CYS799  TRP800  GLU811  SER814 

> <Gold.Protein.RotatedAtoms>
  152.2873  134.7761  160.0384 H   0  0  0  0  0  0  0  0  0  0  0  0  # atno 6907 bound_to 6896
  151.8320  133.3405  159.3624 H   0  0  0  0  0  0  0  0  0  0  0  0  # atno 6908 bound_to 6896
  150.7215  134.5402  159.5788 H   0  0  0  0  0  0  0  0  0  0  0  0  # atno 6909 bound_to 6896
  146.2262  139.8811  142.8570 H   0  0  0  0  0  0  0  0  0  0  0  0  # atno 7974 bound_to 7965
  155.7299  140.0801  157.2293 H   0  0  0  0  0  0  0  0  0  0  0  0  # atno 8008 bound_to 7997
  154.4034  140.1597  156.2552 H   0  0  0  0  0  0  0  0  0  0  0  0  # atno 8009 bound_to 7997
  155.9118  140.3403  155.6107 H   0  0  0  0  0  0  0  0  0  0  0  0  # atno 8010 bound_to 7997
  140.3919  143.2701  151.9253 H   0  0  0  0  0  0  0  0  0  0  0  0  # atno 10167 bound_to 10162
  156.7660  130.5285  149.5776 H   0  0  0  0  0  0  0  0  0  0  0  0  # atno 10718 bound_to 10713
  154.1591  135.6477  153.4981 H   0  0  0  0  0  0  0  0  0  0  0  0  # atno 10763 bound_to 10752
  153.0115  135.5356  154.6729 H   0  0  0  0  0  0  0  0  0  0  0  0  # atno 10764 bound_to 10752
  154.6038  135.2946  155.0479 H   0  0  0  0  0  0  0  0  0  0  0  0  # atno 10765 bound_to 10752
  139.8991  134.9574  156.6950 H   0  0  0  0  0  0  0  0  0  0  0  0  # atno 11005 bound_to 11000
  145.2512  141.0044  143.3880 LP  0  0  0  0  0  0  0  0  0  0  0  0  # atno 17320 bound_to 7965
  144.9373  139.4229  143.6466 LP  0  0  0  0  0  0  0  0  0  0  0  0  # atno 17321 bound_to 7965
  139.4788  144.5719  151.8075 LP  0  0  0  0  0  0  0  0  0  0  0  0  # atno 17342 bound_to 10162
  140.4830  144.1421  150.5936 LP  0  0  0  0  0  0  0  0  0  0  0  0  # atno 17343 bound_to 10162
  156.1308  130.6176  151.0330 LP  0  0  0  0  0  0  0  0  0  0  0  0  # atno 17370 bound_to 10713
  157.6713  131.0861  150.7606 LP  0  0  0  0  0  0  0  0  0  0  0  0  # atno 17371 bound_to 10713
  140.7195  133.9153  155.8137 LP  0  0  0  0  0  0  0  0  0  0  0  0  # atno 17394 bound_to 11000
  141.0238  134.0851  157.4091 LP  0  0  0  0  0  0  0  0  0  0  0  0  # atno 17395 bound_to 11000

$$$$
