AV-unprocessed.smi:2527|AV-procd|sdf|9947|dock8
  -GOLD-   2272013593D 1   1.00000     0.00000
 Structure written by MMmdl.
 36 38  0  0  0  0  0  0  0  0  3 V2000
  149.6233  128.2311  154.4215 C   0  0  0  0  0  0  0  0  0  0  0  0
  150.0421  129.3140  155.2330 O   0  0  0  0  0  0  0  0  0  0  0  0
  149.7741  130.5742  154.6392 C   0  0  0  0  0  0  0  0  0  0  0  0
  148.2604  130.8292  154.6126 C   0  0  0  0  0  0  0  0  0  0  0  0
  147.9028  131.9641  153.7491 N   0  0  0  0  0  0  0  0  0  0  0  0
  148.4022  133.2311  153.7135 C   0  0  0  0  0  0  0  0  0  0  0  0
  149.6727  133.8791  154.7507 S   0  0  0  0  0  0  0  0  0  0  0  0
  148.9583  135.3475  155.5395 C   0  0  0  0  0  0  0  0  0  0  0  0
  149.7156  136.6139  155.2652 C   0  0  0  0  0  0  0  0  0  0  0  0
  151.0676  136.6198  155.4068 N   0  5  0  0  0  0  0  0  0  0  0  0
  151.4165  137.8785  155.0857 C   0  0  0  0  0  0  0  0  0  0  0  0
  152.5289  138.4002  155.0542 O   0  0  0  0  0  0  0  0  0  0  0  0
  150.2885  138.5259  154.7843 N   0  0  0  0  0  0  0  0  0  0  0  0
  149.2111  137.7313  154.8959 N   0  0  0  0  0  0  0  0  0  0  0  0
  147.7458  133.9062  152.7297 N   0  3  0  0  0  0  0  0  0  0  0  0
  146.8166  133.0591  152.1231 C   0  0  0  0  0  0  0  0  0  0  0  0
  145.9234  133.2852  151.0804 C   0  0  0  0  0  0  0  0  0  0  0  0
  145.1105  132.1991  150.6936 C   0  0  0  0  0  0  0  0  0  0  0  0
  143.9811  132.4051  149.4060 Cl  0  0  0  0  0  0  0  0  0  0  0  0
  145.2053  130.9483  151.3383 C   0  0  0  0  0  0  0  0  0  0  0  0
  146.1135  130.7302  152.3949 C   0  0  0  0  0  0  0  0  0  0  0  0
  146.9124  131.8097  152.7717 C   0  0  0  0  0  0  0  0  0  0  0  0
  150.1837  139.4881  154.4980 H   0  0  0  0  0  0  0  0  0  0  0  0
  149.8526  127.2895  154.9202 H   0  0  0  0  0  0  0  0  0  0  0  0
  150.1374  128.2369  153.4594 H   0  0  0  0  0  0  0  0  0  0  0  0
  148.5476  128.2650  154.2441 H   0  0  0  0  0  0  0  0  0  0  0  0
  150.2713  131.3649  155.2027 H   0  0  0  0  0  0  0  0  0  0  0  0
  150.1712  130.5997  153.6229 H   0  0  0  0  0  0  0  0  0  0  0  0
  147.7177  129.9423  154.2859 H   0  0  0  0  0  0  0  0  0  0  0  0
  147.9024  131.0524  155.6180 H   0  0  0  0  0  0  0  0  0  0  0  0
  147.9295  135.4550  155.1945 H   0  0  0  0  0  0  0  0  0  0  0  0
  148.9048  135.1703  156.6145 H   0  0  0  0  0  0  0  0  0  0  0  0
  145.8517  134.2424  150.5851 H   0  0  0  0  0  0  0  0  0  0  0  0
  144.5690  130.1370  151.0156 H   0  0  0  0  0  0  0  0  0  0  0  0
  146.1803  129.7656  152.8758 H   0  0  0  0  0  0  0  0  0  0  0  0
  147.9238  134.8743  152.4950 H   0  0  0  0  0  0  0  0  0  0  0  0
  1  2  1  0  0  0  0
  1 24  1  0  0  0  0
  1 25  1  0  0  0  0
  1 26  1  0  0  0  0
  2  3  1  0  0  0  0
  3  4  1  0  0  0  0
  3 27  1  0  0  0  0
  3 28  1  0  0  0  0
  4  5  1  0  0  0  0
  4 29  1  0  0  0  0
  4 30  1  0  0  0  0
  5 22  1  0  0  0  0
  5  6  1  0  0  0  0
  6  7  1  0  0  0  0
  6 15  2  0  0  0  0
  7  8  1  0  0  0  0
  8 31  1  0  0  0  0
  8 32  1  0  0  0  0
  8  9  1  0  0  0  0
  9 14  2  0  0  0  0
  9 10  1  0  0  0  0
 10 11  1  0  0  0  0
 11 13  1  0  0  0  0
 11 12  2  0  0  0  0
 13 14  1  0  0  0  0
 13 23  1  0  0  0  0
 15 16  1  0  0  0  0
 15 36  1  0  0  0  0
 16 22  2  0  0  0  0
 16 17  1  0  0  0  0
 17 18  2  0  0  0  0
 17 33  1  0  0  0  0
 18 19  1  0  0  0  0
 18 20  1  0  0  0  0
 20 21  2  0  0  0  0
 20 34  1  0  0  0  0
 21 22  1  0  0  0  0
 21 35  1  0  0  0  0
M  CHG  1  10  -1
M  CHG  1  15   1
M  END
> <s_m_source_file>
AV-unprocessed.smi

> <i_m_source_file_index>
2527

> <i_lp_mmshare_version>
43012

> <i_f3d_flags>
0

> <s_epik_input>
W2NIXTFjKENsKVtjSF1bY0hdYyhjMTIpbihbQ0gyXVtDSDJdT1tDSDNdKWMobjIpU1tDSDJdYzNuYyg9TylbbkhdW25IXTM=

> <s_epik_cmdline>
J2VwaWtfcHl0aG9uJywgJy1waCcsICc3LjAnLCAnLXRuJywgJzgnLCAnLW1hJywgJzIwMCcsICctbWV0YWxfYmluZGluZycsICctaW1hZScsICc8aW5maWxlLm1hZT4nLCAnLW9tYWUnLCAnPG91dGZpbGUubWFlPic=

> <r_lp_tautomer_probability>
0.999897

> <r_epik_Ionization_Penalty>
3.64286

> <r_epik_Ionization_Penalty_Charging>
2.48685

> <r_epik_Ionization_Penalty_Neutral>
1.15601

> <r_epik_State_Penalty>
3.71863

> <r_epik_Charging_Adjusted_Penalty>
6.20549

> <i_epik_Tot_Q>
0

> <i_epik_Tot_abs_Q>
2

> <r_epik_Metal_State_Penalty>
2.92967

> <b_epik_Metal_Only>
1

> <s_lp_Force_Field>
OPLS_2005

> <r_lp_Energy>
23.3692

> <b_lp_Chiralities_Consistent>
1

> <s_lp_Variant>
AV-unprocessed.smi:2527-6

> <Gold.Version>
5.8.1

> <Gold.Id.Protein>
6NUR|6NUR_protein|mol2

> <Gold.PLP.Fitness>
50.8368

> <Gold.PLP.PLP>
-40.1337

> <Gold.PLP.part.hbond>
-2.2038

> <Gold.PLP.part.metal>
0.0000

> <Gold.PLP.part.buried>
-6.4905

> <Gold.PLP.part.nonpolar>
-32.1443

> <Gold.PLP.part.repulsive>
0.5049

> <Gold.PLP.ligand.clash>
0.0000

> <Gold.PLP.ligand.torsion>
0.6727

> <Gold.PLP.Chemscore.Hbond>
4.0000

> <Gold.PLP.Chemscore.CHOScore>
0.0000

> <Gold.PLP.Chemscore.Metal>
0.0000

> <Gold.Chemscore.Hbonds>
donor molecule, donor type, donor heavy atom, donor atom, acceptor molecule, acceptor atom, score
      L1  H    15    36       P1  7948  2.00
      P1  H 10752 10765       L1    10  0.70

> <Gold.PLP.Chemscore.Internal.Correction>
0.0485

> <Gold.Rescore>
     Score         DG    S(hbond)    S(metal)    S(lipo)     H(rot)  DE(clash)    DE(int)     intcor
     12.30     -12.94       1.98        0.00      70.16       2.88       0.06       0.58       ----

> <Gold.Chemscore.Fitness>
12.2973

> <Gold.Chemscore.DG>
-12.9384

> <Gold.Chemscore.ZeroCoef>
-5.4800

> <Gold.Chemscore.Hbond>
1.9803

> <Gold.Chemscore.Metal>
0.0000

> <Gold.Chemscore.Lipo>
70.1647

> <Gold.Chemscore.Internal_Hbond>
0.0000

> <Gold.Chemscore.DEClash>
0.0582

> <Gold.Chemscore.DEInternal>
0.5829

> <Gold.Chemscore.Rot>
2.8770

> <Gold.Chemscore.Internal.Correction>
   9.000000E+99

> <Gold.Chemscore.Hbonds>
donor molecule, donor type, donor heavy atom, donor atom, acceptor molecule, acceptor atom, score
      L1  H    15    36       P1  7948  0.79
      P1  H 10752 10765       L1    10  0.07

> <Gold.Chemscore.Hbond.Weighted>
-6.6141

> <Gold.Chemscore.Metal.Weighted>
-0.0000

> <Gold.Chemscore.Lipo.Weighted>
-8.2093

> <Gold.Chemscore.Internal_Hbond.Weighted>
0.0000

> <Gold.Chemscore.DEClash.Weighted>
0.0582

> <Gold.Chemscore.DEInternal.Weighted>
0.5829

> <Gold.Chemscore.Rot.Weighted>
7.3650

> <Gold.Chemscore.Internal.Correction.Weighted>
   9.000000E+99

> <Gold.Protein.RotatedTorsions>
[ 6907 6896 6895 6894 ] final  146.54 input  -60.11 | X-H torsion
[ 7974 7965 7964 7962 ] final   38.07 input  175.53 | X-H torsion
[ 8008 7997 7996 7995 ] final  109.91 input   59.86 | X-H torsion
[ 10167 10162 10161 10158 ] final   14.17 input  -65.29 | X-H torsion
[ 10718 10713 10712 10709 ] final -108.23 input   66.30 | X-H torsion
[ 10763 10752 10751 10750 ] final -176.62 input  -60.55 | X-H torsion
[ 11005 11000 10999 10996 ] final  -10.03 input  -57.11 | X-H torsion

> <Gold.Protein.ActiveResidues>
 VAL166  LYS551  ARG553  GLY616  TRP617  ASP618  TYR619  PRO620  LYS621  CYS622 
 ASP623  PHE694  ASN695  SER759  ASP760  ASP761  ALA762  ILE779  LEU786  VAL792 
 PHE793  MET794  SER795  GLU796  ALA797  LYS798  CYS799  TRP800  GLU811  SER814 

> <Gold.Protein.RotatedAtoms>
  152.1665  133.4616  159.4887 H   0  0  0  0  0  0  0  0  0  0  0  0  # atno 6907 bound_to 6896
  150.6914  134.2006  159.4329 H   0  0  0  0  0  0  0  0  0  0  0  0  # atno 6908 bound_to 6896
  151.9911  134.9978  160.0612 H   0  0  0  0  0  0  0  0  0  0  0  0  # atno 6909 bound_to 6896
  146.1090  139.5817  142.9364 H   0  0  0  0  0  0  0  0  0  0  0  0  # atno 7974 bound_to 7965
  156.2014  140.3049  155.9534 H   0  0  0  0  0  0  0  0  0  0  0  0  # atno 8008 bound_to 7997
  155.2945  140.0443  157.3042 H   0  0  0  0  0  0  0  0  0  0  0  0  # atno 8009 bound_to 7997
  154.5575  140.2310  155.8395 H   0  0  0  0  0  0  0  0  0  0  0  0  # atno 8010 bound_to 7997
  140.5954  143.8713  150.6913 H   0  0  0  0  0  0  0  0  0  0  0  0  # atno 10167 bound_to 10162
  156.0475  130.5702  150.7932 H   0  0  0  0  0  0  0  0  0  0  0  0  # atno 10718 bound_to 10713
  154.5701  135.2827  155.0836 H   0  0  0  0  0  0  0  0  0  0  0  0  # atno 10763 bound_to 10752
  154.2212  135.6391  153.5149 H   0  0  0  0  0  0  0  0  0  0  0  0  # atno 10764 bound_to 10752
  153.0055  135.5515  154.6321 H   0  0  0  0  0  0  0  0  0  0  0  0  # atno 10765 bound_to 10752
  140.7404  133.8675  155.8963 H   0  0  0  0  0  0  0  0  0  0  0  0  # atno 11005 bound_to 11000
  145.5702  141.0395  143.2178 LP  0  0  0  0  0  0  0  0  0  0  0  0  # atno 17320 bound_to 7965
  144.7495  139.7231  143.7279 LP  0  0  0  0  0  0  0  0  0  0  0  0  # atno 17321 bound_to 7965
  140.2246  143.3783  152.1615 LP  0  0  0  0  0  0  0  0  0  0  0  0  # atno 17342 bound_to 10162
  139.5254  144.7096  151.5248 LP  0  0  0  0  0  0  0  0  0  0  0  0  # atno 17343 bound_to 10162
  157.5367  131.0939  150.9883 LP  0  0  0  0  0  0  0  0  0  0  0  0  # atno 17370 bound_to 10713
  157.0176  130.5661  149.5327 LP  0  0  0  0  0  0  0  0  0  0  0  0  # atno 17371 bound_to 10713
  140.9842  134.1365  157.4467 LP  0  0  0  0  0  0  0  0  0  0  0  0  # atno 17394 bound_to 11000
  139.8807  135.0020  156.6101 LP  0  0  0  0  0  0  0  0  0  0  0  0  # atno 17395 bound_to 11000

$$$$
