AV-unprocessed.smi:3153|AV-procd|sdf|12019|dock6
  -GOLD-   2272017433D 1   1.00000     0.00000
 Structure written by MMmdl.
 38 39  0  0  0  0  0  0  0  0  2 V2000
  148.5115  138.8207  153.2052 O   0  0  0  0  0  0  0  0  0  0  0  0
  147.1675  139.2701  153.2285 C   0  0  0  0  0  0  0  0  0  0  0  0
  146.3753  138.4086  152.2194 C   0  0  0  0  0  0  0  0  0  0  0  0
  146.5721  136.9594  152.4363 N   0  3  0  0  0  0  0  0  0  0  0  0
  145.6569  136.1053  151.6554 C   0  0  0  0  0  0  0  0  0  0  0  0
  145.8910  134.6186  151.9636 C   0  0  0  0  0  0  0  0  0  0  0  0
  145.3718  133.7574  150.9179 N   0  0  0  0  0  0  0  0  0  0  0  0
  146.0062  132.7194  150.2678 C   0  0  0  0  0  0  0  0  0  0  0  0
  145.1170  132.1959  149.3735 C   0  0  0  0  0  0  0  0  0  0  0  0
  143.9470  132.9842  149.5585 C   0  0  0  0  0  0  0  0  0  0  0  0
  144.1011  133.9146  150.4871 N   0  0  0  0  0  0  0  0  0  0  0  0
  146.6132  139.0463  154.6560 C   0  0  0  0  0  0  0  0  0  0  0  0
  147.2788  139.9477  155.7110 C   0  0  0  0  0  0  0  0  0  0  0  0
  147.1792  141.4284  155.3205 C   0  0  0  0  0  0  0  0  0  0  0  0
  147.7827  141.6700  153.9301 C   0  0  0  0  0  0  0  0  0  0  0  0
  147.1214  140.7759  152.8655 C   0  0  0  0  0  0  0  0  0  0  0  0
  148.8770  139.0003  152.3520 H   0  0  0  0  0  0  0  0  0  0  0  0
  145.3099  138.6339  152.2888 H   0  0  0  0  0  0  0  0  0  0  0  0
  146.6828  138.6547  151.2019 H   0  0  0  0  0  0  0  0  0  0  0  0
  147.5227  136.7243  152.1894 H   0  0  0  0  0  0  0  0  0  0  0  0
  144.6274  136.3814  151.8883 H   0  0  0  0  0  0  0  0  0  0  0  0
  145.8100  136.2950  150.5922 H   0  0  0  0  0  0  0  0  0  0  0  0
  146.9575  134.4198  152.0769 H   0  0  0  0  0  0  0  0  0  0  0  0
  145.4145  134.3421  152.9053 H   0  0  0  0  0  0  0  0  0  0  0  0
  147.0263  132.4428  150.4908 H   0  0  0  0  0  0  0  0  0  0  0  0
  145.2767  131.3724  148.6932 H   0  0  0  0  0  0  0  0  0  0  0  0
  142.9968  132.9071  149.0508 H   0  0  0  0  0  0  0  0  0  0  0  0
  145.5406  139.2459  154.6596 H   0  0  0  0  0  0  0  0  0  0  0  0
  146.7244  138.0006  154.9465 H   0  0  0  0  0  0  0  0  0  0  0  0
  146.8085  139.7891  156.6819 H   0  0  0  0  0  0  0  0  0  0  0  0
  148.3265  139.6695  155.8298 H   0  0  0  0  0  0  0  0  0  0  0  0
  146.1341  141.7406  155.3268 H   0  0  0  0  0  0  0  0  0  0  0  0
  147.6912  142.0437  156.0611 H   0  0  0  0  0  0  0  0  0  0  0  0
  147.6682  142.7190  153.6551 H   0  0  0  0  0  0  0  0  0  0  0  0
  148.8558  141.4772  153.9597 H   0  0  0  0  0  0  0  0  0  0  0  0
  147.6006  140.9548  151.9023 H   0  0  0  0  0  0  0  0  0  0  0  0
  146.0819  141.0851  152.7482 H   0  0  0  0  0  0  0  0  0  0  0  0
  146.4379  136.7654  153.4186 H   0  0  0  0  0  0  0  0  0  0  0  0
  1  2  1  0  0  0  0
  1 17  1  0  0  0  0
  2 16  1  0  0  0  0
  2  3  1  0  0  0  0
  2 12  1  0  0  0  0
  3  4  1  0  0  0  0
  3 18  1  0  0  0  0
  3 19  1  0  0  0  0
  4  5  1  0  0  0  0
  4 20  1  0  0  0  0
  4 38  1  0  0  0  0
  5  6  1  0  0  0  0
  5 21  1  0  0  0  0
  5 22  1  0  0  0  0
  6  7  1  0  0  0  0
  6 23  1  0  0  0  0
  6 24  1  0  0  0  0
  7 11  1  0  0  0  0
  7  8  1  0  0  0  0
  8  9  2  0  0  0  0
  8 25  1  0  0  0  0
  9 10  1  0  0  0  0
  9 26  1  0  0  0  0
 10 11  2  0  0  0  0
 10 27  1  0  0  0  0
 12 13  1  0  0  0  0
 12 28  1  0  0  0  0
 12 29  1  0  0  0  0
 13 14  1  0  0  0  0
 13 30  1  0  0  0  0
 13 31  1  0  0  0  0
 14 15  1  0  0  0  0
 14 32  1  0  0  0  0
 14 33  1  0  0  0  0
 15 16  1  0  0  0  0
 15 34  1  0  0  0  0
 15 35  1  0  0  0  0
 16 36  1  0  0  0  0
 16 37  1  0  0  0  0
M  CHG  1   4   1
M  END
> <s_m_source_file>
AV-unprocessed.smi

> <i_m_source_file_index>
3153

> <i_lp_mmshare_version>
43012

> <i_f3d_flags>
0

> <s_epik_input>
W0NIMl0xW0NIMl1bQ0gyXVtDSDJdW0NIMl1DMShbT0hdKVtDSDJdW05IXVtDSDJdW0NIMl1uMltjSF1bY0hdW2NIXW4y

> <s_epik_cmdline>
J2VwaWtfcHl0aG9uJywgJy1waCcsICc3LjAnLCAnLXRuJywgJzgnLCAnLW1hJywgJzIwMCcsICctbWV0YWxfYmluZGluZycsICctaW1hZScsICc8aW5maWxlLm1hZT4nLCAnLW9tYWUnLCAnPG91dGZpbGUubWFlPic=

> <r_lp_tautomer_probability>
1

> <r_epik_Ionization_Penalty>
0.0240152

> <r_epik_Ionization_Penalty_Charging>
0.0240119

> <r_epik_Ionization_Penalty_Neutral>
3.38076e-06

> <r_epik_State_Penalty>
0.0194671

> <r_epik_Charging_Adjusted_Penalty>
0.043479

> <i_epik_Tot_Q>
1

> <i_epik_Tot_abs_Q>
1

> <r_epik_Metal_State_Penalty>
0.0195093

> <b_epik_Metal_Only>
0

> <s_lp_Force_Field>
OPLS_2005

> <r_lp_Energy>
15.7554

> <b_lp_Chiralities_Consistent>
1

> <s_lp_Variant>
AV-unprocessed.smi:3153-1

> <Gold.Version>
5.8.1

> <Gold.Id.Protein>
6NUR|6NUR_protein|mol2

> <Gold.PLP.Fitness>
46.1351

> <Gold.PLP.PLP>
-31.9458

> <Gold.PLP.part.hbond>
-3.0000

> <Gold.PLP.part.metal>
0.0000

> <Gold.PLP.part.buried>
-4.1026

> <Gold.PLP.part.nonpolar>
-25.5709

> <Gold.PLP.part.repulsive>
0.2263

> <Gold.PLP.ligand.clash>
0.0000

> <Gold.PLP.ligand.torsion>
0.2540

> <Gold.PLP.Chemscore.Hbond>
3.0000

> <Gold.PLP.Chemscore.CHOScore>
1.8832

> <Gold.PLP.Chemscore.Metal>
0.0000

> <Gold.Chemscore.Hbonds>
donor molecule, donor type, donor heavy atom, donor atom, acceptor molecule, acceptor atom, score
      L1  H     1    17       P1  7957  1.00
      L1  H     4    20       P1  7948  2.00
      L1  C     8    25       P1 10747  1.00
      L1  C    10    27       P1 10186  0.86

> <Gold.PLP.Chemscore.Internal.Correction>
0.0475

> <Gold.Rescore>
     Score         DG    S(hbond)    S(metal)    S(lipo)     H(rot)  DE(clash)    DE(int)     intcor
     15.48     -15.80       1.99        0.00      80.87       2.26       0.03       0.29       ----

> <Gold.Chemscore.Fitness>
15.4757

> <Gold.Chemscore.DG>
-15.7963

> <Gold.Chemscore.ZeroCoef>
-5.4800

> <Gold.Chemscore.Hbond>
1.9880

> <Gold.Chemscore.Metal>
0.0000

> <Gold.Chemscore.Lipo>
80.8741

> <Gold.Chemscore.Internal_Hbond>
0.0000

> <Gold.Chemscore.DEClash>
0.0272

> <Gold.Chemscore.DEInternal>
0.2934

> <Gold.Chemscore.Rot>
2.2601

> <Gold.Chemscore.Internal.Correction>
   9.000000E+99

> <Gold.Chemscore.Hbonds>
donor molecule, donor type, donor heavy atom, donor atom, acceptor molecule, acceptor atom, score
      L1  H     1    17       P1  7957  0.97
      L1  H     4    20       P1  7948  0.93

> <Gold.Chemscore.Hbond.Weighted>
-6.6399

> <Gold.Chemscore.Metal.Weighted>
-0.0000

> <Gold.Chemscore.Lipo.Weighted>
-9.4623

> <Gold.Chemscore.Internal_Hbond.Weighted>
0.0000

> <Gold.Chemscore.DEClash.Weighted>
0.0272

> <Gold.Chemscore.DEInternal.Weighted>
0.2934

> <Gold.Chemscore.Rot.Weighted>
5.7858

> <Gold.Chemscore.Internal.Correction.Weighted>
   9.000000E+99

> <Gold.Protein.RotatedTorsions>
[ 6907 6896 6895 6894 ] final   36.08 input  -60.11 | X-H torsion
[ 7974 7965 7964 7962 ] final   95.99 input  175.53 | X-H torsion
[ 8008 7997 7996 7995 ] final  108.26 input   59.86 | X-H torsion
[ 10167 10162 10161 10158 ] final -151.98 input  -65.29 | X-H torsion
[ 10718 10713 10712 10709 ] final -145.56 input   66.30 | X-H torsion
[ 10763 10752 10751 10750 ] final -151.02 input  -60.55 | X-H torsion
[ 11005 11000 10999 10996 ] final  156.39 input  -57.11 | X-H torsion

> <Gold.Protein.ActiveResidues>
 VAL166  LYS551  ARG553  GLY616  TRP617  ASP618  TYR619  PRO620  LYS621  CYS622 
 ASP623  PHE694  ASN695  SER759  ASP760  ASP761  ALA762  ILE779  LEU786  VAL792 
 PHE793  MET794  SER795  GLU796  ALA797  LYS798  CYS799  TRP800  GLU811  SER814 

> <Gold.Protein.RotatedAtoms>
  152.1249  134.9178  160.0561 H   0  0  0  0  0  0  0  0  0  0  0  0  # atno 6907 bound_to 6896
  152.0304  133.3930  159.4303 H   0  0  0  0  0  0  0  0  0  0  0  0  # atno 6908 bound_to 6896
  150.6852  134.3448  159.4927 H   0  0  0  0  0  0  0  0  0  0  0  0  # atno 6909 bound_to 6896
  145.4448  139.2298  143.3072 H   0  0  0  0  0  0  0  0  0  0  0  0  # atno 7974 bound_to 7965
  156.1889  140.3079  155.9293 H   0  0  0  0  0  0  0  0  0  0  0  0  # atno 8008 bound_to 7997
  155.3218  140.0456  157.3056 H   0  0  0  0  0  0  0  0  0  0  0  0  # atno 8009 bound_to 7997
  154.5429  140.2267  155.8621 H   0  0  0  0  0  0  0  0  0  0  0  0  # atno 8010 bound_to 7997
  139.7221  143.8941  152.2507 H   0  0  0  0  0  0  0  0  0  0  0  0  # atno 10167 bound_to 10162
  156.3840  130.7852  151.2047 H   0  0  0  0  0  0  0  0  0  0  0  0  # atno 10718 bound_to 10713
  154.8084  135.3270  154.7371 H   0  0  0  0  0  0  0  0  0  0  0  0  # atno 10763 bound_to 10752
  153.8025  135.6902  153.4858 H   0  0  0  0  0  0  0  0  0  0  0  0  # atno 10764 bound_to 10752
  153.1844  135.4574  155.0016 H   0  0  0  0  0  0  0  0  0  0  0  0  # atno 10765 bound_to 10752
  140.1670  134.8569  157.2644 H   0  0  0  0  0  0  0  0  0  0  0  0  # atno 11005 bound_to 11000
  146.2537  140.5200  142.8882 LP  0  0  0  0  0  0  0  0  0  0  0  0  # atno 17320 bound_to 7965
  144.8099  140.6366  143.6422 LP  0  0  0  0  0  0  0  0  0  0  0  0  # atno 17321 bound_to 7965
  139.8840  144.7002  150.8846 LP  0  0  0  0  0  0  0  0  0  0  0  0  # atno 17342 bound_to 10162
  140.7756  143.3639  151.1776 LP  0  0  0  0  0  0  0  0  0  0  0  0  # atno 17343 bound_to 10162
  157.7494  131.0335  150.4276 LP  0  0  0  0  0  0  0  0  0  0  0  0  # atno 17370 bound_to 10713
  156.4526  130.4015  149.6626 LP  0  0  0  0  0  0  0  0  0  0  0  0  # atno 17371 bound_to 10713
  140.2422  134.3782  155.7476 LP  0  0  0  0  0  0  0  0  0  0  0  0  # atno 17394 bound_to 11000
  141.2214  133.7271  156.8806 LP  0  0  0  0  0  0  0  0  0  0  0  0  # atno 17395 bound_to 11000

$$$$
