AV-unprocessed.smi:1071|AV-procd|sdf|4681|dock10
  -GOLD-   22720 3203D 1   1.00000     0.00000
 Structure written by MMmdl.
 46 47  0  0  0  0  0  0  0  0  1 V2000
  148.2544  134.2906  158.5343 C   0  0  0  0  0  0  0  0  0  0  0  0
  149.5219  134.1784  157.9114 O   0  0  0  0  0  0  0  0  0  0  0  0
  149.6485  135.0243  156.7805 C   0  0  0  0  0  0  0  0  0  0  0  0
  151.0546  134.8701  156.1930 C   0  0  0  0  0  0  0  0  0  0  0  0
  151.2846  135.9283  155.2674 O   0  0  0  0  0  0  0  0  0  0  0  0
  151.5091  137.1976  155.7595 C   0  0  0  0  0  0  0  0  0  0  0  0
  151.7878  138.2337  154.8464 C   0  0  0  0  0  0  0  0  0  0  0  0
  152.0196  139.5323  155.3385 C   0  0  0  0  0  0  0  0  0  0  0  0
  151.9740  139.7520  156.7359 C   0  0  0  0  0  0  0  0  0  0  0  0
  152.1703  141.0154  157.3562 N   0  0  0  0  0  0  0  0  0  0  0  0
  152.1668  141.3215  158.6687 C   0  0  0  0  0  0  0  0  0  0  0  0
  152.1103  140.4829  159.5673 O   0  0  0  0  0  0  0  0  0  0  0  0
  152.3599  142.6444  158.8950 N   0  0  0  0  0  0  0  0  0  0  0  0
  151.7645  143.6562  158.0075 C   0  0  0  0  0  0  0  0  0  0  0  0
  150.4058  144.0950  158.5939 C   0  0  0  0  0  0  0  0  0  0  0  0
  150.5911  144.6470  159.9380 N   0  0  0  0  0  0  0  0  0  0  0  0
  149.3016  145.0291  160.4946 C   0  0  0  0  0  0  0  0  0  0  0  0
  151.2402  143.6733  160.8199 C   0  0  0  0  0  0  0  0  0  0  0  0
  152.5993  143.2544  160.2191 C   0  0  1  0  0  0  0  0  0  0  0  0
  153.4378  142.4049  161.1967 C   0  0  0  0  0  0  0  0  0  0  0  0
  151.6707  138.6512  157.5636 C   0  0  0  0  0  0  0  0  0  0  0  0
  151.4478  137.4041  157.0984 N   0  0  0  0  0  0  0  0  0  0  0  0
  148.2102  133.6250  159.3961 H   0  0  0  0  0  0  0  0  0  0  0  0
  147.4527  134.0093  157.8501 H   0  0  0  0  0  0  0  0  0  0  0  0
  148.0753  135.3078  158.8851 H   0  0  0  0  0  0  0  0  0  0  0  0
  148.8927  134.7909  156.0290 H   0  0  0  0  0  0  0  0  0  0  0  0
  149.4953  136.0596  157.0890 H   0  0  0  0  0  0  0  0  0  0  0  0
  151.7876  134.9298  156.9990 H   0  0  0  0  0  0  0  0  0  0  0  0
  151.1579  133.8934  155.7167 H   0  0  0  0  0  0  0  0  0  0  0  0
  151.8190  138.0367  153.7848 H   0  0  0  0  0  0  0  0  0  0  0  0
  152.2119  140.3277  154.6358 H   0  0  0  0  0  0  0  0  0  0  0  0
  152.2165  141.8028  156.7259 H   0  0  0  0  0  0  0  0  0  0  0  0
  152.4352  144.5123  157.9185 H   0  0  0  0  0  0  0  0  0  0  0  0
  151.6155  143.2959  156.9889 H   0  0  0  0  0  0  0  0  0  0  0  0
  149.9530  144.8505  157.9507 H   0  0  0  0  0  0  0  0  0  0  0  0
  149.7191  143.2472  158.6271 H   0  0  0  0  0  0  0  0  0  0  0  0
  149.4274  145.4655  161.4860 H   0  0  0  0  0  0  0  0  0  0  0  0
  148.6356  144.1692  160.5808 H   0  0  0  0  0  0  0  0  0  0  0  0
  148.8179  145.7745  159.8625 H   0  0  0  0  0  0  0  0  0  0  0  0
  151.3913  144.1251  161.8014 H   0  0  0  0  0  0  0  0  0  0  0  0
  150.6000  142.8008  160.9611 H   0  0  0  0  0  0  0  0  0  0  0  0
  153.1883  144.1585  160.0517 H   0  0  0  0  0  0  0  0  0  0  0  0
  153.7436  143.0046  162.0542 H   0  0  0  0  0  0  0  0  0  0  0  0
  154.3452  142.0326  160.7206 H   0  0  0  0  0  0  0  0  0  0  0  0
  152.8846  141.5536  161.5924 H   0  0  0  0  0  0  0  0  0  0  0  0
  151.6098  138.7720  158.6354 H   0  0  0  0  0  0  0  0  0  0  0  0
  1  2  1  0  0  0  0
  1 23  1  0  0  0  0
  1 24  1  0  0  0  0
  1 25  1  0  0  0  0
  2  3  1  0  0  0  0
  3  4  1  0  0  0  0
  3 26  1  0  0  0  0
  3 27  1  0  0  0  0
  4  5  1  0  0  0  0
  4 28  1  0  0  0  0
  4 29  1  0  0  0  0
  5  6  1  0  0  0  0
  6 22  1  0  0  0  0
  6  7  2  0  0  0  0
  7  8  1  0  0  0  0
  7 30  1  0  0  0  0
  8  9  2  0  0  0  0
  8 31  1  0  0  0  0
  9 10  1  0  0  0  0
  9 21  1  0  0  0  0
 10 11  1  0  0  0  0
 10 32  1  0  0  0  0
 11 12  2  0  0  0  0
 11 13  1  0  0  0  0
 13 19  1  0  0  0  0
 13 14  1  0  0  0  0
 14 15  1  0  0  0  0
 14 33  1  0  0  0  0
 14 34  1  0  0  0  0
 15 16  1  0  0  0  0
 15 35  1  0  0  0  0
 15 36  1  0  0  0  0
 16 17  1  0  0  0  0
 16 18  1  0  0  0  0
 17 37  1  0  0  0  0
 17 38  1  0  0  0  0
 17 39  1  0  0  0  0
 18 19  1  0  0  0  0
 18 40  1  0  0  0  0
 18 41  1  0  0  0  0
 19 20  1  0  0  0  0
 19 42  1  0  0  0  0
 20 43  1  0  0  0  0
 20 44  1  0  0  0  0
 20 45  1  0  0  0  0
 21 22  2  0  0  0  0
 21 46  1  0  0  0  0
M  END
> <s_m_source_file>
AV-unprocessed.smi

> <i_m_source_file_index>
1071

> <i_lp_mmshare_version>
43012

> <i_f3d_flags>
0

> <s_epik_input>
W0NIM11PW0NIMl1bQ0gyXU9jMVtjSF1bY0hdYyhbY0hdbjEpW05IXUMoPU8pTjJbQ0gyXVtDSDJdTihbQ0gzXSlbQ0gyXVtDQEhdMltDSDNd

> <s_epik_cmdline>
J2VwaWtfcHl0aG9uJywgJy1waCcsICc3LjAnLCAnLXRuJywgJzgnLCAnLW1hJywgJzIwMCcsICctbWV0YWxfYmluZGluZycsICctaW1hZScsICc8aW5maWxlLm1hZT4nLCAnLW9tYWUnLCAnPG91dGZpbGUubWFlPic=

> <r_lp_tautomer_probability>
1

> <r_epik_Ionization_Penalty>
0.623446

> <r_epik_Ionization_Penalty_Charging>
0

> <r_epik_Ionization_Penalty_Neutral>
0.623446

> <r_epik_State_Penalty>
0.639577

> <r_epik_Charging_Adjusted_Penalty>
0.639577

> <i_epik_Tot_Q>
0

> <i_epik_Tot_abs_Q>
0

> <r_epik_Metal_State_Penalty>
0.639567

> <b_epik_Metal_Only>
0

> <s_lp_Force_Field>
OPLS_2005

> <r_lp_Energy>
47.7745

> <b_lp_Chiralities_Consistent>
1

> <s_lp_Variant>
AV-unprocessed.smi:1071-5

> <Gold.Version>
5.8.1

> <Gold.Id.Protein>
6NUR|6NUR_protein|mol2

> <Gold.PLP.Fitness>
40.8563

> <Gold.PLP.PLP>
-35.0174

> <Gold.PLP.part.hbond>
-2.0000

> <Gold.PLP.part.metal>
0.0000

> <Gold.PLP.part.buried>
-1.2105

> <Gold.PLP.part.nonpolar>
-32.3746

> <Gold.PLP.part.repulsive>
0.3881

> <Gold.PLP.ligand.clash>
0.0000

> <Gold.PLP.ligand.torsion>
0.3550

> <Gold.PLP.Chemscore.Hbond>
2.0000

> <Gold.PLP.Chemscore.CHOScore>
0.0000

> <Gold.PLP.Chemscore.Metal>
0.0000

> <Gold.Chemscore.Hbonds>
donor molecule, donor type, donor heavy atom, donor atom, acceptor molecule, acceptor atom, score
      P1  H  6896  6907       L1     2  1.00
      P1  H 10752 10764       L1     5  0.95

> <Gold.PLP.Chemscore.Internal.Correction>
0.5489

> <Gold.Rescore>
     Score         DG    S(hbond)    S(metal)    S(lipo)     H(rot)  DE(clash)    DE(int)     intcor
     14.32     -17.77       1.51        0.00      96.23       1.57       0.26       3.19       ----

> <Gold.Chemscore.Fitness>
14.3174

> <Gold.Chemscore.DG>
-17.7675

> <Gold.Chemscore.ZeroCoef>
-5.4800

> <Gold.Chemscore.Hbond>
1.5145

> <Gold.Chemscore.Metal>
0.0000

> <Gold.Chemscore.Lipo>
96.2332

> <Gold.Chemscore.Internal_Hbond>
0.0000

> <Gold.Chemscore.DEClash>
0.2608

> <Gold.Chemscore.DEInternal>
3.1893

> <Gold.Chemscore.Rot>
1.5743

> <Gold.Chemscore.Internal.Correction>
   9.000000E+99

> <Gold.Chemscore.Hbonds>
donor molecule, donor type, donor heavy atom, donor atom, acceptor molecule, acceptor atom, score
      P1  H  6896  6907       L1     2  0.30
      P1  H 10752 10764       L1     5  0.07

> <Gold.Chemscore.Hbond.Weighted>
-5.0584

> <Gold.Chemscore.Metal.Weighted>
-0.0000

> <Gold.Chemscore.Lipo.Weighted>
-11.2593

> <Gold.Chemscore.Internal_Hbond.Weighted>
0.0000

> <Gold.Chemscore.DEClash.Weighted>
0.2608

> <Gold.Chemscore.DEInternal.Weighted>
3.1893

> <Gold.Chemscore.Rot.Weighted>
4.0301

> <Gold.Chemscore.Internal.Correction.Weighted>
   9.000000E+99

> <Gold.Protein.RotatedTorsions>
[ 6907 6896 6895 6894 ] final  -91.98 input  -60.11 | X-H torsion
[ 7974 7965 7964 7962 ] final  107.41 input  175.53 | X-H torsion
[ 8008 7997 7996 7995 ] final   31.58 input   59.86 | X-H torsion
[ 10167 10162 10161 10158 ] final -153.13 input  -65.29 | X-H torsion
[ 10718 10713 10712 10709 ] final    0.56 input   66.30 | X-H torsion
[ 10763 10752 10751 10750 ] final  -55.72 input  -60.55 | X-H torsion
[ 11005 11000 10999 10996 ] final -122.13 input  -57.11 | X-H torsion

> <Gold.Protein.ActiveResidues>
 VAL166  LYS551  ARG553  GLY616  TRP617  ASP618  TYR619  PRO620  LYS621  CYS622 
 ASP623  PHE694  ASN695  SER759  ASP760  ASP761  ALA762  ILE779  LEU786  VAL792 
 PHE793  MET794  SER795  GLU796  ALA797  LYS798  CYS799  TRP800  GLU811  SER814 

> <Gold.Protein.RotatedAtoms>
  150.6900  134.2192  159.4389 H   0  0  0  0  0  0  0  0  0  0  0  0  # atno 6907 bound_to 6896
  152.0149  134.9853  160.0578 H   0  0  0  0  0  0  0  0  0  0  0  0  # atno 6908 bound_to 6896
  152.1452  133.4453  159.4823 H   0  0  0  0  0  0  0  0  0  0  0  0  # atno 6909 bound_to 6896
  145.2939  139.2591  143.3850 H   0  0  0  0  0  0  0  0  0  0  0  0  # atno 7974 bound_to 7965
  155.1086  140.3237  155.4527 H   0  0  0  0  0  0  0  0  0  0  0  0  # atno 8008 bound_to 7997
  156.2697  140.2048  156.6158 H   0  0  0  0  0  0  0  0  0  0  0  0  # atno 8009 bound_to 7997
  154.6773  140.0530  157.0216 H   0  0  0  0  0  0  0  0  0  0  0  0  # atno 8010 bound_to 7997
  139.7123  143.9089  152.2472 H   0  0  0  0  0  0  0  0  0  0  0  0  # atno 10167 bound_to 10162
  156.8353  130.5502  149.5683 H   0  0  0  0  0  0  0  0  0  0  0  0  # atno 10718 bound_to 10713
  154.1952  135.6420  153.5071 H   0  0  0  0  0  0  0  0  0  0  0  0  # atno 10763 bound_to 10752
  153.0025  135.5438  154.6373 H   0  0  0  0  0  0  0  0  0  0  0  0  # atno 10764 bound_to 10752
  154.5772  135.2922  155.0742 H   0  0  0  0  0  0  0  0  0  0  0  0  # atno 10765 bound_to 10752
  141.0018  134.0391  157.3527 H   0  0  0  0  0  0  0  0  0  0  0  0  # atno 11005 bound_to 11000
  146.3175  140.3437  142.8650 LP  0  0  0  0  0  0  0  0  0  0  0  0  # atno 17320 bound_to 7965
  144.9149  140.7801  143.5784 LP  0  0  0  0  0  0  0  0  0  0  0  0  # atno 17321 bound_to 7965
  139.8962  144.6938  150.8716 LP  0  0  0  0  0  0  0  0  0  0  0  0  # atno 17342 bound_to 10162
  140.7736  143.3549  151.1942 LP  0  0  0  0  0  0  0  0  0  0  0  0  # atno 17343 bound_to 10162
  156.0911  130.5896  150.9734 LP  0  0  0  0  0  0  0  0  0  0  0  0  # atno 17370 bound_to 10713
  157.6385  131.0913  150.8300 LP  0  0  0  0  0  0  0  0  0  0  0  0  # atno 17371 bound_to 10713
  139.9043  135.0175  156.7413 LP  0  0  0  0  0  0  0  0  0  0  0  0  # atno 17394 bound_to 11000
  140.6876  133.9419  155.7947 LP  0  0  0  0  0  0  0  0  0  0  0  0  # atno 17395 bound_to 11000

$$$$
