AV-unprocessed.smi:2442|AV-procd|sdf|9627|dock3
  -GOLD-   2272013263D 1   1.00000     0.00000
 Structure written by MMmdl.
 47 48  0  0  0  0  0  0  0  0  2 V2000
  150.6497  139.4217  155.4316 C   0  0  0  0  0  0  0  0  0  0  0  0
  150.2653  139.3383  154.0685 O   0  0  0  0  0  0  0  0  0  0  0  0
  148.9677  139.8534  153.7918 C   0  0  2  0  0  0  0  0  0  0  0  0
  148.8880  141.3309  154.2320 C   0  0  0  0  0  0  0  0  0  0  0  0
  147.4650  141.8909  154.0905 C   0  0  0  0  0  0  0  0  0  0  0  0
  146.4582  141.0391  154.8753 C   0  0  0  0  0  0  0  0  0  0  0  0
  146.5155  139.5710  154.4286 C   0  0  0  0  0  0  0  0  0  0  0  0
  147.9374  138.9904  154.5570 C   0  0  1  0  0  0  0  0  0  0  0  0
  147.9370  137.6266  154.0323 N   0  0  0  0  0  0  0  0  0  0  0  0
  147.3205  136.5767  154.5925 C   0  0  0  0  0  0  0  0  0  0  0  0
  146.6495  136.6330  155.6234 O   0  0  0  0  0  0  0  0  0  0  0  0
  147.5287  135.4502  153.8970 N   0  0  0  0  0  0  0  0  0  0  0  0
  146.9888  134.1439  154.2545 C   0  0  0  0  0  0  0  0  0  0  0  0
  147.0255  133.1681  153.0653 C   0  0  0  0  0  0  0  0  0  0  0  0
  145.7904  133.2883  152.1864 C   0  0  0  0  0  0  0  0  0  0  0  0
  145.3859  134.5655  151.7371 C   0  0  0  0  0  0  0  0  0  0  0  0
  144.2399  134.6859  150.9264 C   0  0  0  0  0  0  0  0  0  0  0  0
  143.5397  133.5833  150.5870 N   0  3  0  0  0  0  0  0  0  0  0  0
  143.8868  132.3432  150.9929 C   0  0  0  0  0  0  0  0  0  0  0  0
  145.0245  132.1543  151.8080 C   0  0  0  0  0  0  0  0  0  0  0  0
  145.3963  130.7501  152.2517 C   0  0  0  0  0  0  0  0  0  0  0  0
  151.6581  139.0252  155.5479 H   0  0  0  0  0  0  0  0  0  0  0  0
  149.9902  138.8430  156.0780 H   0  0  0  0  0  0  0  0  0  0  0  0
  150.6574  140.4568  155.7753 H   0  0  0  0  0  0  0  0  0  0  0  0
  148.7540  139.7808  152.7234 H   0  0  0  0  0  0  0  0  0  0  0  0
  149.2092  141.4190  155.2708 H   0  0  0  0  0  0  0  0  0  0  0  0
  149.5716  141.9440  153.6455 H   0  0  0  0  0  0  0  0  0  0  0  0
  147.4348  142.9219  154.4440 H   0  0  0  0  0  0  0  0  0  0  0  0
  147.1831  141.9156  153.0370 H   0  0  0  0  0  0  0  0  0  0  0  0
  146.6733  141.1067  155.9424 H   0  0  0  0  0  0  0  0  0  0  0  0
  145.4503  141.4309  154.7363 H   0  0  0  0  0  0  0  0  0  0  0  0
  145.8166  138.9810  155.0231 H   0  0  0  0  0  0  0  0  0  0  0  0
  146.1776  139.4984  153.3937 H   0  0  0  0  0  0  0  0  0  0  0  0
  148.2005  138.9858  155.6168 H   0  0  0  0  0  0  0  0  0  0  0  0
  148.4625  137.4698  153.1850 H   0  0  0  0  0  0  0  0  0  0  0  0
  148.0942  135.5011  153.0621 H   0  0  0  0  0  0  0  0  0  0  0  0
  147.5420  133.7407  155.1038 H   0  0  0  0  0  0  0  0  0  0  0  0
  145.9611  134.2798  154.5930 H   0  0  0  0  0  0  0  0  0  0  0  0
  147.9113  133.3636  152.4594 H   0  0  0  0  0  0  0  0  0  0  0  0
  147.1304  132.1396  153.4111 H   0  0  0  0  0  0  0  0  0  0  0  0
  145.9472  135.4471  152.0113 H   0  0  0  0  0  0  0  0  0  0  0  0
  143.8655  135.6235  150.5424 H   0  0  0  0  0  0  0  0  0  0  0  0
  143.2449  131.5429  150.6543 H   0  0  0  0  0  0  0  0  0  0  0  0
  144.6259  130.0314  151.9701 H   0  0  0  0  0  0  0  0  0  0  0  0
  145.5157  130.7010  153.3339 H   0  0  0  0  0  0  0  0  0  0  0  0
  146.3316  130.4391  151.7857 H   0  0  0  0  0  0  0  0  0  0  0  0
  142.7129  133.6912  149.9987 H   0  0  0  0  0  0  0  0  0  0  0  0
  1  2  1  0  0  0  0
  1 22  1  0  0  0  0
  1 23  1  0  0  0  0
  1 24  1  0  0  0  0
  2  3  1  0  0  0  0
  3  8  1  0  0  0  0
  3  4  1  0  0  0  0
  3 25  1  0  0  0  0
  4  5  1  0  0  0  0
  4 26  1  0  0  0  0
  4 27  1  0  0  0  0
  5  6  1  0  0  0  0
  5 28  1  0  0  0  0
  5 29  1  0  0  0  0
  6  7  1  0  0  0  0
  6 30  1  0  0  0  0
  6 31  1  0  0  0  0
  7  8  1  0  0  0  0
  7 32  1  0  0  0  0
  7 33  1  0  0  0  0
  8  9  1  0  0  0  0
  8 34  1  0  0  0  0
  9 10  1  0  0  0  0
  9 35  1  0  0  0  0
 10 11  2  0  0  0  0
 10 12  1  0  0  0  0
 12 13  1  0  0  0  0
 12 36  1  0  0  0  0
 13 14  1  0  0  0  0
 13 37  1  0  0  0  0
 13 38  1  0  0  0  0
 14 15  1  0  0  0  0
 14 39  1  0  0  0  0
 14 40  1  0  0  0  0
 15 20  1  0  0  0  0
 15 16  2  0  0  0  0
 16 17  1  0  0  0  0
 16 41  1  0  0  0  0
 17 18  2  0  0  0  0
 17 42  1  0  0  0  0
 18 19  1  0  0  0  0
 18 47  1  0  0  0  0
 19 20  2  0  0  0  0
 19 43  1  0  0  0  0
 20 21  1  0  0  0  0
 21 44  1  0  0  0  0
 21 45  1  0  0  0  0
 21 46  1  0  0  0  0
M  CHG  1  18   1
M  END
> <s_m_source_file>
AV-unprocessed.smi

> <i_m_source_file_index>
2442

> <i_lp_mmshare_version>
43012

> <i_f3d_flags>
0

> <s_epik_input>
W0NIM11PW0NAQEhdMVtDSDJdW0NIMl1bQ0gyXVtDSDJdW0NASF0xW05IXUMoPU8pW05IXVtDSDJdW0NIMl1jMltjSF1bY0hdbltjSF1jMltDSDNd

> <s_epik_cmdline>
J2VwaWtfcHl0aG9uJywgJy1waCcsICc3LjAnLCAnLXRuJywgJzgnLCAnLW1hJywgJzIwMCcsICctbWV0YWxfYmluZGluZycsICctaW1hZScsICc8aW5maWxlLm1hZT4nLCAnLW9tYWUnLCAnPG91dGZpbGUubWFlPic=

> <r_epik_Ionization_Penalty>
1.07145

> <r_epik_Ionization_Penalty_Charging>
1.0714

> <r_epik_Ionization_Penalty_Neutral>
4.9109e-05

> <r_epik_State_Penalty>
1.12601

> <r_epik_Charging_Adjusted_Penalty>
2.19741

> <i_epik_Tot_Q>
1

> <i_epik_Tot_abs_Q>
1

> <r_epik_Metal_State_Penalty>
1.2173

> <b_epik_Metal_Only>
0

> <s_lp_Force_Field>
OPLS_2005

> <r_lp_Energy>
14.7728

> <b_lp_Chiralities_Consistent>
1

> <s_lp_Variant>
AV-unprocessed.smi:2442-5

> <Gold.Version>
5.8.1

> <Gold.Id.Protein>
6NUR|6NUR_protein|mol2

> <Gold.PLP.Fitness>
46.0977

> <Gold.PLP.PLP>
-32.7744

> <Gold.PLP.part.hbond>
-3.8848

> <Gold.PLP.part.metal>
0.0000

> <Gold.PLP.part.buried>
-2.2057

> <Gold.PLP.part.nonpolar>
-27.9732

> <Gold.PLP.part.repulsive>
0.2211

> <Gold.PLP.ligand.clash>
0.0000

> <Gold.PLP.ligand.torsion>
0.4581

> <Gold.PLP.Chemscore.Hbond>
4.7330

> <Gold.PLP.Chemscore.CHOScore>
0.0000

> <Gold.PLP.Chemscore.Metal>
0.0000

> <Gold.Chemscore.Hbonds>
donor molecule, donor type, donor heavy atom, donor atom, acceptor molecule, acceptor atom, score
      L1  H     9    35       P1  7948  0.94
      L1  H    12    36       P1  7948  1.00
      L1  H    18    47       P1 10186  2.00
      P1  H  7989  7998       L1     2  0.51

> <Gold.PLP.Chemscore.Internal.Correction>
0.0406

> <Gold.Rescore>
     Score         DG    S(hbond)    S(metal)    S(lipo)     H(rot)  DE(clash)    DE(int)     intcor
     19.62     -20.26       2.87        0.00      82.03       1.72       0.16       0.48       ----

> <Gold.Chemscore.Fitness>
19.6201

> <Gold.Chemscore.DG>
-20.2594

> <Gold.Chemscore.ZeroCoef>
-5.4800

> <Gold.Chemscore.Hbond>
2.8731

> <Gold.Chemscore.Metal>
0.0000

> <Gold.Chemscore.Lipo>
82.0309

> <Gold.Chemscore.Internal_Hbond>
0.0000

> <Gold.Chemscore.DEClash>
0.1596

> <Gold.Chemscore.DEInternal>
0.4797

> <Gold.Chemscore.Rot>
1.7244

> <Gold.Chemscore.Internal.Correction>
   9.000000E+99

> <Gold.Chemscore.Hbonds>
donor molecule, donor type, donor heavy atom, donor atom, acceptor molecule, acceptor atom, score
      L1  H     9    35       P1  7948  0.91
      L1  H    12    36       P1  7948  0.99
      L1  H    18    47       P1 10186  0.97
      P1  H  7989  7998       L1     2  0.02

> <Gold.Chemscore.Hbond.Weighted>
-9.5963

> <Gold.Chemscore.Metal.Weighted>
-0.0000

> <Gold.Chemscore.Lipo.Weighted>
-9.5976

> <Gold.Chemscore.Internal_Hbond.Weighted>
0.0000

> <Gold.Chemscore.DEClash.Weighted>
0.1596

> <Gold.Chemscore.DEInternal.Weighted>
0.4797

> <Gold.Chemscore.Rot.Weighted>
4.4145

> <Gold.Chemscore.Internal.Correction.Weighted>
   9.000000E+99

> <Gold.Protein.RotatedTorsions>
[ 6907 6896 6895 6894 ] final   -6.19 input  -60.11 | X-H torsion
[ 7974 7965 7964 7962 ] final   48.88 input  175.53 | X-H torsion
[ 8008 7997 7996 7995 ] final  107.03 input   59.86 | X-H torsion
[ 10167 10162 10161 10158 ] final  153.65 input  -65.29 | X-H torsion
[ 10718 10713 10712 10709 ] final   42.08 input   66.30 | X-H torsion
[ 10763 10752 10751 10750 ] final   54.90 input  -60.55 | X-H torsion
[ 11005 11000 10999 10996 ] final  178.40 input  -57.11 | X-H torsion

> <Gold.Protein.ActiveResidues>
 VAL166  LYS551  ARG553  GLY616  TRP617  ASP618  TYR619  PRO620  LYS621  CYS622 
 ASP623  PHE694  ASN695  SER759  ASP760  ASP761  ALA762  ILE779  LEU786  VAL792 
 PHE793  MET794  SER795  GLU796  ALA797  LYS798  CYS799  TRP800  GLU811  SER814 

> <Gold.Protein.RotatedAtoms>
  151.4695  135.1045  159.9747 H   0  0  0  0  0  0  0  0  0  0  0  0  # atno 6907 bound_to 6896
  152.4822  133.8278  159.7098 H   0  0  0  0  0  0  0  0  0  0  0  0  # atno 6908 bound_to 6896
  150.8902  133.7192  159.2933 H   0  0  0  0  0  0  0  0  0  0  0  0  # atno 6909 bound_to 6896
  146.0162  139.4599  142.9925 H   0  0  0  0  0  0  0  0  0  0  0  0  # atno 7974 bound_to 7965
  156.1791  140.3102  155.9114 H   0  0  0  0  0  0  0  0  0  0  0  0  # atno 8008 bound_to 7997
  155.3423  140.0466  157.3062 H   0  0  0  0  0  0  0  0  0  0  0  0  # atno 8009 bound_to 7997
  154.5322  140.2234  155.8794 H   0  0  0  0  0  0  0  0  0  0  0  0  # atno 8010 bound_to 7997
  139.4826  144.5255  151.7808 H   0  0  0  0  0  0  0  0  0  0  0  0  # atno 10167 bound_to 10162
  157.4008  130.7859  149.7347 H   0  0  0  0  0  0  0  0  0  0  0  0  # atno 10718 bound_to 10713
  152.9810  135.5729  154.4980 H   0  0  0  0  0  0  0  0  0  0  0  0  # atno 10763 bound_to 10752
  154.4504  135.2778  155.1787 H   0  0  0  0  0  0  0  0  0  0  0  0  # atno 10764 bound_to 10752
  154.3417  135.6228  153.5653 H   0  0  0  0  0  0  0  0  0  0  0  0  # atno 10765 bound_to 10752
  140.3947  134.6831  157.4528 H   0  0  0  0  0  0  0  0  0  0  0  0  # atno 11005 bound_to 11000
  145.7264  141.0057  143.1375 LP  0  0  0  0  0  0  0  0  0  0  0  0  # atno 17320 bound_to 7965
  144.6972  139.8932  143.7454 LP  0  0  0  0  0  0  0  0  0  0  0  0  # atno 17321 bound_to 7965
  140.4774  144.1499  150.5927 LP  0  0  0  0  0  0  0  0  0  0  0  0  # atno 17342 bound_to 10162
  140.4315  143.2566  151.9589 LP  0  0  0  0  0  0  0  0  0  0  0  0  # atno 17343 bound_to 10162
  155.9823  130.4011  150.3426 LP  0  0  0  0  0  0  0  0  0  0  0  0  # atno 17370 bound_to 10713
  157.1553  131.0331  151.2866 LP  0  0  0  0  0  0  0  0  0  0  0  0  # atno 17371 bound_to 10713
  140.0380  134.6308  155.9018 LP  0  0  0  0  0  0  0  0  0  0  0  0  # atno 17394 bound_to 11000
  141.1878  133.6561  156.5298 LP  0  0  0  0  0  0  0  0  0  0  0  0  # atno 17395 bound_to 11000

$$$$
