AV-unprocessed.smi:1503|AV-procd|sdf|6069|dock1
  -GOLD-   22720 6183D 1   1.00000     0.00000
 Structure written by MMmdl.
 44 45  0  0  0  0  0  0  0  0  1 V2000
  145.1267  133.9778  150.8824 C   0  0  0  0  0  0  0  0  0  0  0  0
  145.0946  135.2114  151.4081 C   0  0  0  0  0  0  0  0  0  0  0  0
  145.8693  136.3953  150.8645 C   0  0  0  0  0  0  0  0  0  0  0  0
  146.6687  137.0322  151.9036 N   0  0  0  0  0  0  0  0  0  0  0  0
  146.1749  137.6194  153.0044 C   0  0  0  0  0  0  0  0  0  0  0  0
  144.9704  137.6737  153.2564 O   0  0  0  0  0  0  0  0  0  0  0  0
  147.2095  138.2290  153.9559 C   0  0  0  0  0  0  0  0  0  0  0  0
  148.0124  139.3899  153.3374 C   0  0  0  0  0  0  0  0  0  0  0  0
  148.7966  140.1700  154.3887 C   0  0  0  0  0  0  0  0  0  0  0  0
  148.5138  141.4516  154.7231 C   0  0  0  0  0  0  0  0  0  0  0  0
  147.3805  142.2648  154.1227 C   0  0  0  0  0  0  0  0  0  0  0  0
  149.2593  142.1214  155.6755 N   0  0  0  0  0  0  0  0  0  0  0  0
  150.3279  141.4724  156.2821 C   0  0  0  0  0  0  0  0  0  0  0  0
  151.0150  142.2434  157.2189 N   0  0  0  0  0  0  0  0  0  0  0  0
  151.3632  143.6296  156.9058 C   0  0  0  0  0  0  0  0  0  0  0  0
  151.6463  144.4354  158.1848 C   0  0  0  0  0  0  0  0  0  0  0  0
  152.6668  143.7941  158.9382 O   0  0  0  0  0  0  0  0  0  0  0  0
  152.2748  142.4877  159.3381 C   0  0  0  0  0  0  0  0  0  0  0  0
  152.0094  141.6233  158.0942 C   0  0  0  0  0  0  0  0  0  0  0  0
  150.6558  140.2416  156.0114 N   0  0  0  0  0  0  0  0  0  0  0  0
  149.9299  139.5046  155.0639 C   0  0  0  0  0  0  0  0  0  0  0  0
  150.2332  138.3388  154.8147 O   0  0  0  0  0  0  0  0  0  0  0  0
  149.0010  143.0723  155.8953 H   0  0  0  0  0  0  0  0  0  0  0  0
  145.7300  133.7532  150.0150 H   0  0  0  0  0  0  0  0  0  0  0  0
  144.5485  133.1750  151.3152 H   0  0  0  0  0  0  0  0  0  0  0  0
  144.4778  135.3990  152.2750 H   0  0  0  0  0  0  0  0  0  0  0  0
  146.4988  136.0922  150.0258 H   0  0  0  0  0  0  0  0  0  0  0  0
  145.1595  137.1275  150.4797 H   0  0  0  0  0  0  0  0  0  0  0  0
  147.6702  137.0311  151.7747 H   0  0  0  0  0  0  0  0  0  0  0  0
  146.6898  138.5752  154.8499 H   0  0  0  0  0  0  0  0  0  0  0  0
  147.8917  137.4403  154.2759 H   0  0  0  0  0  0  0  0  0  0  0  0
  148.6980  139.0145  152.5758 H   0  0  0  0  0  0  0  0  0  0  0  0
  147.3394  140.0643  152.8082 H   0  0  0  0  0  0  0  0  0  0  0  0
  146.4309  141.7434  154.2457 H   0  0  0  0  0  0  0  0  0  0  0  0
  147.5510  142.4257  153.0581 H   0  0  0  0  0  0  0  0  0  0  0  0
  147.2902  143.2419  154.5988 H   0  0  0  0  0  0  0  0  0  0  0  0
  150.5674  144.1202  156.3446 H   0  0  0  0  0  0  0  0  0  0  0  0
  152.2453  143.6318  156.2640 H   0  0  0  0  0  0  0  0  0  0  0  0
  151.9757  145.4424  157.9286 H   0  0  0  0  0  0  0  0  0  0  0  0
  150.7420  144.5391  158.7868 H   0  0  0  0  0  0  0  0  0  0  0  0
  153.0707  142.0469  159.9382 H   0  0  0  0  0  0  0  0  0  0  0  0
  151.3883  142.5392  159.9724 H   0  0  0  0  0  0  0  0  0  0  0  0
  152.9350  141.4811  157.5348 H   0  0  0  0  0  0  0  0  0  0  0  0
  151.6723  140.6347  158.4091 H   0  0  0  0  0  0  0  0  0  0  0  0
  1  2  2  0  0  0  0
  1 24  1  0  0  0  0
  1 25  1  0  0  0  0
  2  3  1  0  0  0  0
  2 26  1  0  0  0  0
  3  4  1  0  0  0  0
  3 27  1  0  0  0  0
  3 28  1  0  0  0  0
  4  5  1  0  0  0  0
  4 29  1  0  0  0  0
  5  6  2  0  0  0  0
  5  7  1  0  0  0  0
  7  8  1  0  0  0  0
  7 30  1  0  0  0  0
  7 31  1  0  0  0  0
  8 32  1  0  0  0  0
  8 33  1  0  0  0  0
  8  9  1  0  0  0  0
  9 21  1  0  0  0  0
  9 10  2  0  0  0  0
 10 12  1  0  0  0  0
 10 11  1  0  0  0  0
 11 34  1  0  0  0  0
 11 35  1  0  0  0  0
 11 36  1  0  0  0  0
 12 23  1  0  0  0  0
 12 13  1  0  0  0  0
 13 14  1  0  0  0  0
 13 20  2  0  0  0  0
 14 19  1  0  0  0  0
 14 15  1  0  0  0  0
 15 16  1  0  0  0  0
 15 37  1  0  0  0  0
 15 38  1  0  0  0  0
 16 17  1  0  0  0  0
 16 39  1  0  0  0  0
 16 40  1  0  0  0  0
 17 18  1  0  0  0  0
 18 19  1  0  0  0  0
 18 41  1  0  0  0  0
 18 42  1  0  0  0  0
 19 43  1  0  0  0  0
 19 44  1  0  0  0  0
 20 21  1  0  0  0  0
 21 22  2  0  0  0  0
M  END
> <s_m_source_file>
AV-unprocessed.smi

> <i_m_source_file_index>
1503

> <i_lp_mmshare_version>
43012

> <i_f3d_flags>
0

> <s_epik_input>
W0NIMl09W0NIXVtDSDJdW05IXUMoPU8pW0NIMl1bQ0gyXWMxYyhbQ0gzXSluYyhbbkhdYzE9TylOMltDSDJdW0NIMl1PW0NIMl1bQ0gyXTI=

> <s_epik_cmdline>
J2VwaWtfcHl0aG9uJywgJy1waCcsICc3LjAnLCAnLXRuJywgJzgnLCAnLW1hJywgJzIwMCcsICctbWV0YWxfYmluZGluZycsICctaW1hZScsICc8aW5maWxlLm1hZT4nLCAnLW9tYWUnLCAnPG91dGZpbGUubWFlPic=

> <r_lp_tautomer_probability>
0.108306

> <r_epik_Ionization_Penalty>
0.0745381

> <r_epik_Ionization_Penalty_Charging>
0.0625831

> <r_epik_Ionization_Penalty_Neutral>
0.0119549

> <r_epik_State_Penalty>
1.70762

> <r_epik_Charging_Adjusted_Penalty>
1.7702

> <i_epik_Tot_Q>
0

> <i_epik_Tot_abs_Q>
0

> <r_epik_Metal_State_Penalty>
2.68249

> <b_epik_Metal_Only>
0

> <s_lp_Force_Field>
OPLS_2005

> <r_lp_Energy>
25.2683

> <b_lp_Chiralities_Consistent>
1

> <s_lp_Variant>
AV-unprocessed.smi:1503-2

> <Gold.Version>
5.8.1

> <Gold.Id.Protein>
6NUR|6NUR_protein|mol2

> <Gold.PLP.Fitness>
43.6504

> <Gold.PLP.PLP>
-38.2714

> <Gold.PLP.part.hbond>
-1.8466

> <Gold.PLP.part.metal>
0.0000

> <Gold.PLP.part.buried>
-2.2956

> <Gold.PLP.part.nonpolar>
-35.7281

> <Gold.PLP.part.repulsive>
0.8638

> <Gold.PLP.ligand.clash>
0.0000

> <Gold.PLP.ligand.torsion>
0.5346

> <Gold.PLP.Chemscore.Hbond>
2.0000

> <Gold.PLP.Chemscore.CHOScore>
0.0000

> <Gold.PLP.Chemscore.Metal>
0.0000

> <Gold.Chemscore.Hbonds>
donor molecule, donor type, donor heavy atom, donor atom, acceptor molecule, acceptor atom, score
      L1  H     4    29       P1  7948  0.84
      L1  H    12    23       P1  8028  1.00

> <Gold.PLP.Chemscore.Internal.Correction>
0.4482

> <Gold.Rescore>
     Score         DG    S(hbond)    S(metal)    S(lipo)     H(rot)  DE(clash)    DE(int)     intcor
     16.56     -17.23       1.95        0.00      86.77       1.92       0.15       0.51       ----

> <Gold.Chemscore.Fitness>
16.5648

> <Gold.Chemscore.DG>
-17.2302

> <Gold.Chemscore.ZeroCoef>
-5.4800

> <Gold.Chemscore.Hbond>
1.9491

> <Gold.Chemscore.Metal>
0.0000

> <Gold.Chemscore.Lipo>
86.7715

> <Gold.Chemscore.Internal_Hbond>
0.0000

> <Gold.Chemscore.DEClash>
0.1508

> <Gold.Chemscore.DEInternal>
0.5146

> <Gold.Chemscore.Rot>
1.9187

> <Gold.Chemscore.Internal.Correction>
   9.000000E+99

> <Gold.Chemscore.Hbonds>
donor molecule, donor type, donor heavy atom, donor atom, acceptor molecule, acceptor atom, score
      L1  H     4    29       P1  7948  0.78
      L1  H    12    23       P1  8028  0.99

> <Gold.Chemscore.Hbond.Weighted>
-6.5099

> <Gold.Chemscore.Metal.Weighted>
-0.0000

> <Gold.Chemscore.Lipo.Weighted>
-10.1523

> <Gold.Chemscore.Internal_Hbond.Weighted>
0.0000

> <Gold.Chemscore.DEClash.Weighted>
0.1508

> <Gold.Chemscore.DEInternal.Weighted>
0.5146

> <Gold.Chemscore.Rot.Weighted>
4.9119

> <Gold.Chemscore.Internal.Correction.Weighted>
   9.000000E+99

> <Gold.Protein.RotatedTorsions>
[ 6907 6896 6895 6894 ] final  -11.27 input  -60.11 | X-H torsion
[ 7974 7965 7964 7962 ] final -152.97 input  175.53 | X-H torsion
[ 8008 7997 7996 7995 ] final   23.86 input   59.86 | X-H torsion
[ 10167 10162 10161 10158 ] final  164.49 input  -65.29 | X-H torsion
[ 10718 10713 10712 10709 ] final  144.20 input   66.30 | X-H torsion
[ 10763 10752 10751 10750 ] final   98.92 input  -60.55 | X-H torsion
[ 11005 11000 10999 10996 ] final -174.67 input  -57.11 | X-H torsion

> <Gold.Protein.ActiveResidues>
 VAL166  LYS551  ARG553  GLY616  TRP617  ASP618  TYR619  PRO620  LYS621  CYS622 
 ASP623  PHE694  ASN695  SER759  ASP760  ASP761  ALA762  ILE779  LEU786  VAL792 
 PHE793  MET794  SER795  GLU796  ALA797  LYS798  CYS799  TRP800  GLU811  SER814 

> <Gold.Protein.RotatedAtoms>
  151.3889  135.0952  159.9519 H   0  0  0  0  0  0  0  0  0  0  0  0  # atno 6907 bound_to 6896
  152.5086  133.8999  159.7446 H   0  0  0  0  0  0  0  0  0  0  0  0  # atno 6908 bound_to 6896
  150.9448  133.6559  159.2812 H   0  0  0  0  0  0  0  0  0  0  0  0  # atno 6909 bound_to 6896
  144.7765  140.4589  143.5869 H   0  0  0  0  0  0  0  0  0  0  0  0  # atno 7974 bound_to 7965
  154.9874  140.3109  155.4920 H   0  0  0  0  0  0  0  0  0  0  0  0  # atno 8008 bound_to 7997
  156.2945  140.2255  156.4917 H   0  0  0  0  0  0  0  0  0  0  0  0  # atno 8009 bound_to 7997
  154.7734  140.0451  157.1058 H   0  0  0  0  0  0  0  0  0  0  0  0  # atno 8010 bound_to 7997
  139.4890  144.4230  151.9164 H   0  0  0  0  0  0  0  0  0  0  0  0  # atno 10167 bound_to 10162
  157.3599  131.0963  151.0924 H   0  0  0  0  0  0  0  0  0  0  0  0  # atno 10718 bound_to 10713
  153.2949  135.4131  155.1201 H   0  0  0  0  0  0  0  0  0  0  0  0  # atno 10763 bound_to 10752
  154.8532  135.3527  154.5930 H   0  0  0  0  0  0  0  0  0  0  0  0  # atno 10764 bound_to 10752
  153.6354  135.7059  153.5319 H   0  0  0  0  0  0  0  0  0  0  0  0  # atno 10765 bound_to 10752
  140.4719  134.6157  157.4885 H   0  0  0  0  0  0  0  0  0  0  0  0  # atno 11005 bound_to 11000
  145.6170  139.1519  143.3043 LP  0  0  0  0  0  0  0  0  0  0  0  0  # atno 17320 bound_to 7965
  146.1948  140.6283  142.9129 LP  0  0  0  0  0  0  0  0  0  0  0  0  # atno 17321 bound_to 7965
  140.3674  144.2897  150.5924 LP  0  0  0  0  0  0  0  0  0  0  0  0  # atno 17342 bound_to 10162
  140.5349  143.2235  151.8179 LP  0  0  0  0  0  0  0  0  0  0  0  0  # atno 17343 bound_to 10162
  157.2068  130.6419  149.5759 LP  0  0  0  0  0  0  0  0  0  0  0  0  # atno 17370 bound_to 10713
  155.9736  130.4673  150.6319 LP  0  0  0  0  0  0  0  0  0  0  0  0  # atno 17371 bound_to 10713
  139.9880  134.7031  155.9740 LP  0  0  0  0  0  0  0  0  0  0  0  0  # atno 17394 bound_to 11000
  141.1573  133.6541  156.4202 LP  0  0  0  0  0  0  0  0  0  0  0  0  # atno 17395 bound_to 11000

$$$$
