AV-unprocessed.smi:182|AV-procd|sdf|1455|dock8
  -GOLD-   2262019253D 1   1.00000     0.00000
 Structure written by MMmdl.
 56 59  0  0  0  0  0  0  0  0  1 V2000
  157.3484  139.3962  160.2143 N   0  0  0  0  0  0  0  0  0  0  0  0
  156.0590  139.7391  160.1678 C   0  0  0  0  0  0  0  0  0  0  0  0
  155.3604  139.5186  159.1800 O   0  0  0  0  0  0  0  0  0  0  0  0
  155.4860  140.4328  161.4076 C   0  0  0  0  0  0  0  0  0  0  0  0
  153.9796  140.7414  161.2900 C   0  0  0  0  0  0  0  0  0  0  0  0
  153.5914  141.4702  159.9881 C   0  0  2  0  0  0  0  0  0  0  0  0
  152.8603  142.7919  160.2958 C   0  0  0  0  0  0  0  0  0  0  0  0
  152.4484  143.5028  158.9985 C   0  0  0  0  0  0  0  0  0  0  0  0
  151.6045  142.5764  158.1114 C   0  0  0  0  0  0  0  0  0  0  0  0
  152.3066  141.3186  157.8615 N   0  0  0  0  0  0  0  0  0  0  0  0
  151.8156  140.5925  156.8241 C   0  0  0  0  0  0  0  0  0  0  0  0
  152.6674  140.0456  155.9150 N   0  0  0  0  0  0  0  0  0  0  0  0
  152.1961  139.3249  154.8938 C   0  0  0  0  0  0  0  0  0  0  0  0
  150.9301  139.0271  154.5976 N   0  0  0  0  0  0  0  0  0  0  0  0
  150.0685  139.5732  155.5026 C   0  0  0  0  0  0  0  0  0  0  0  0
  150.4227  140.3685  156.6296 C   0  0  0  0  0  0  0  0  0  0  0  0
  149.2739  140.7749  157.2987 N   0  0  0  0  0  0  0  0  0  0  0  0
  148.2992  140.2436  156.6127 C   0  0  0  0  0  0  0  0  0  0  0  0
  148.6880  139.4791  155.5360 N   0  0  0  0  0  0  0  0  0  0  0  0
  147.8288  138.8179  154.5983 C   0  0  0  0  0  0  0  0  0  0  0  0
  148.3864  138.1967  153.3153 C   0  0  0  0  0  0  0  0  0  0  0  0
  147.0691  138.5418  152.5836 C   0  0  0  0  0  0  0  0  0  0  0  0
  147.2272  139.0901  151.1556 C   0  0  0  0  0  0  0  0  0  0  0  0
  147.2369  138.0452  150.2043 O   0  0  0  0  0  0  0  0  0  0  0  0
  146.0040  137.4270  152.5834 C   0  0  0  0  0  0  0  0  0  0  0  0
  144.8030  137.8607  151.9778 O   0  0  0  0  0  0  0  0  0  0  0  0
  146.8964  139.6136  153.6820 C   0  0  0  0  0  0  0  0  0  0  0  0
  152.7209  140.5909  159.0635 C   0  0  0  0  0  0  0  0  0  0  0  0
  157.7724  138.9387  159.4202 H   0  0  0  0  0  0  0  0  0  0  0  0
  157.8960  139.5962  161.0388 H   0  0  0  0  0  0  0  0  0  0  0  0
  155.6605  139.8004  162.2792 H   0  0  0  0  0  0  0  0  0  0  0  0
  156.0515  141.3509  161.5660 H   0  0  0  0  0  0  0  0  0  0  0  0
  153.4035  139.8183  161.3717 H   0  0  0  0  0  0  0  0  0  0  0  0
  153.6829  141.3588  162.1394 H   0  0  0  0  0  0  0  0  0  0  0  0
  154.5097  141.7184  159.4537 H   0  0  0  0  0  0  0  0  0  0  0  0
  151.9738  142.5929  160.8999 H   0  0  0  0  0  0  0  0  0  0  0  0
  153.4988  143.4491  160.8871 H   0  0  0  0  0  0  0  0  0  0  0  0
  151.8877  144.4088  159.2292 H   0  0  0  0  0  0  0  0  0  0  0  0
  153.3388  143.8186  158.4535 H   0  0  0  0  0  0  0  0  0  0  0  0
  150.6563  142.3547  158.6032 H   0  0  0  0  0  0  0  0  0  0  0  0
  151.3600  143.0927  157.1841 H   0  0  0  0  0  0  0  0  0  0  0  0
  152.9401  138.9278  154.2191 H   0  0  0  0  0  0  0  0  0  0  0  0
  147.2628  140.3926  156.8798 H   0  0  0  0  0  0  0  0  0  0  0  0
  147.2674  138.0794  155.1731 H   0  0  0  0  0  0  0  0  0  0  0  0
  149.2454  138.7463  152.9257 H   0  0  0  0  0  0  0  0  0  0  0  0
  148.6100  137.1325  153.3933 H   0  0  0  0  0  0  0  0  0  0  0  0
  146.4031  139.7585  150.9043 H   0  0  0  0  0  0  0  0  0  0  0  0
  148.1395  139.6770  151.0478 H   0  0  0  0  0  0  0  0  0  0  0  0
  146.3570  137.9253  149.8813 H   0  0  0  0  0  0  0  0  0  0  0  0
  146.3518  136.5490  152.0388 H   0  0  0  0  0  0  0  0  0  0  0  0
  145.7830  137.0855  153.5950 H   0  0  0  0  0  0  0  0  0  0  0  0
  144.6915  138.7816  152.1579 H   0  0  0  0  0  0  0  0  0  0  0  0
  145.8788  139.7235  154.0587 H   0  0  0  0  0  0  0  0  0  0  0  0
  147.3146  140.5824  153.4019 H   0  0  0  0  0  0  0  0  0  0  0  0
  153.2818  139.7035  158.7684 H   0  0  0  0  0  0  0  0  0  0  0  0
  151.8334  140.2493  159.5985 H   0  0  0  0  0  0  0  0  0  0  0  0
  1  2  1  0  0  0  0
  1 29  1  0  0  0  0
  1 30  1  0  0  0  0
  2  3  2  0  0  0  0
  2  4  1  0  0  0  0
  4  5  1  0  0  0  0
  4 31  1  0  0  0  0
  4 32  1  0  0  0  0
  5  6  1  0  0  0  0
  5 33  1  0  0  0  0
  5 34  1  0  0  0  0
  6 28  1  0  0  0  0
  6  7  1  0  0  0  0
  6 35  1  0  0  0  0
  7  8  1  0  0  0  0
  7 36  1  0  0  0  0
  7 37  1  0  0  0  0
  8  9  1  0  0  0  0
  8 38  1  0  0  0  0
  8 39  1  0  0  0  0
  9 10  1  0  0  0  0
  9 40  1  0  0  0  0
  9 41  1  0  0  0  0
 10 11  1  0  0  0  0
 10 28  1  0  0  0  0
 11 16  1  0  0  0  0
 11 12  2  0  0  0  0
 12 13  1  0  0  0  0
 13 14  2  0  0  0  0
 13 42  1  0  0  0  0
 14 15  1  0  0  0  0
 15 19  1  0  0  0  0
 15 16  2  0  0  0  0
 16 17  1  0  0  0  0
 17 18  2  0  0  0  0
 18 19  1  0  0  0  0
 18 43  1  0  0  0  0
 19 20  1  0  0  0  0
 20 27  1  0  0  0  0
 20 21  1  0  0  0  0
 20 44  1  0  0  0  0
 21 22  1  0  0  0  0
 21 45  1  0  0  0  0
 21 46  1  0  0  0  0
 22 23  1  0  0  0  0
 22 25  1  0  0  0  0
 22 27  1  0  0  0  0
 23 24  1  0  0  0  0
 23 47  1  0  0  0  0
 23 48  1  0  0  0  0
 24 49  1  0  0  0  0
 25 26  1  0  0  0  0
 25 50  1  0  0  0  0
 25 51  1  0  0  0  0
 26 52  1  0  0  0  0
 27 53  1  0  0  0  0
 27 54  1  0  0  0  0
 28 55  1  0  0  0  0
 28 56  1  0  0  0  0
M  END
> <s_m_source_file>
AV-unprocessed.smi

> <i_m_source_file_index>
182

> <i_lp_mmshare_version>
43012

> <i_f3d_flags>
0

> <s_epik_input>
W05IMl1DKD1PKVtDSDJdW0NIMl1bQ0BASF0xW0NIMl1bQ0gyXVtDSDJdTihbQ0gyXTEpYyhuW2NIXW4yKWMoYzIzKW5bY0hdbjNbQ0hdKFtDSDJdNClbQ0gyXUM0KFtDSDJdW09IXSlbQ0gyXVtPSF0=

> <s_epik_cmdline>
J2VwaWtfcHl0aG9uJywgJy1waCcsICc3LjAnLCAnLXRuJywgJzgnLCAnLW1hJywgJzIwMCcsICctbWV0YWxfYmluZGluZycsICctaW1hZScsICc8aW5maWxlLm1hZT4nLCAnLW9tYWUnLCAnPG91dGZpbGUubWFlPic=

> <r_lp_tautomer_probability>
1

> <r_epik_Ionization_Penalty>
0.00186057

> <r_epik_Ionization_Penalty_Charging>
0

> <r_epik_Ionization_Penalty_Neutral>
0.00186057

> <r_epik_State_Penalty>
0.00110736

> <r_epik_Charging_Adjusted_Penalty>
0.00110736

> <i_epik_Tot_Q>
0

> <i_epik_Tot_abs_Q>
0

> <r_epik_Metal_State_Penalty>
-0

> <b_epik_Metal_Only>
0

> <s_lp_Force_Field>
OPLS_2005

> <r_lp_Energy>
36.2346

> <b_lp_Chiralities_Consistent>
1

> <s_lp_Variant>
AV-unprocessed.smi:182-1

> <Gold.Version>
5.8.1

> <Gold.Id.Protein>
6NUR|6NUR_protein|mol2

> <Gold.PLP.Fitness>
56.7077

> <Gold.PLP.PLP>
-44.4369

> <Gold.PLP.part.hbond>
-6.2543

> <Gold.PLP.part.metal>
0.0000

> <Gold.PLP.part.buried>
-0.3530

> <Gold.PLP.part.nonpolar>
-37.1881

> <Gold.PLP.part.repulsive>
0.1870

> <Gold.PLP.ligand.clash>
0.0016

> <Gold.PLP.ligand.torsion>
1.7799

> <Gold.PLP.Chemscore.Hbond>
4.9513

> <Gold.PLP.Chemscore.CHOScore>
0.0000

> <Gold.PLP.Chemscore.Metal>
0.0000

> <Gold.Chemscore.Hbonds>
donor molecule, donor type, donor heavy atom, donor atom, acceptor molecule, acceptor atom, score
      L1  H    26    52       P1 10175  1.00
      P1  H  7997  8008       L1    12  1.00
      P1  H  7997  8010       L1     3  1.00

> <Gold.PLP.Chemscore.Internal.Correction>
0.9785

> <Gold.Rescore>
     Score         DG    S(hbond)    S(metal)    S(lipo)     H(rot)  DE(clash)    DE(int)     intcor
     13.92     -20.37       4.49        0.00     103.86       4.79       2.28       4.18       ----

> <Gold.Chemscore.Fitness>
13.9162

> <Gold.Chemscore.DG>
-20.3737

> <Gold.Chemscore.ZeroCoef>
-5.4800

> <Gold.Chemscore.Hbond>
4.4939

> <Gold.Chemscore.Metal>
0.0000

> <Gold.Chemscore.Lipo>
103.8646

> <Gold.Chemscore.Internal_Hbond>
0.0000

> <Gold.Chemscore.DEClash>
2.2791

> <Gold.Chemscore.DEInternal>
4.1785

> <Gold.Chemscore.Rot>
4.7922

> <Gold.Chemscore.Internal.Correction>
   9.000000E+99

> <Gold.Chemscore.Hbonds>
donor molecule, donor type, donor heavy atom, donor atom, acceptor molecule, acceptor atom, score
      L1  H    26    52       P1 10175  0.96
      P1  H  7997  8008       L1    12  0.92
      P1  H  7997  8010       L1     3  0.99

> <Gold.Chemscore.Hbond.Weighted>
-15.0096

> <Gold.Chemscore.Metal.Weighted>
-0.0000

> <Gold.Chemscore.Lipo.Weighted>
-12.1522

> <Gold.Chemscore.Internal_Hbond.Weighted>
0.0000

> <Gold.Chemscore.DEClash.Weighted>
2.2791

> <Gold.Chemscore.DEInternal.Weighted>
4.1785

> <Gold.Chemscore.Rot.Weighted>
12.2680

> <Gold.Chemscore.Internal.Correction.Weighted>
   9.000000E+99

> <Gold.Protein.RotatedTorsions>
[ 6907 6896 6895 6894 ] final  -25.99 input  -60.11 | X-H torsion
[ 7974 7965 7964 7962 ] final  -45.26 input  175.53 | X-H torsion
[ 8008 7997 7996 7995 ] final  -23.90 input   59.86 | X-H torsion
[ 10167 10162 10161 10158 ] final   36.15 input  -65.29 | X-H torsion
[ 10718 10713 10712 10709 ] final  -73.39 input   66.30 | X-H torsion
[ 10763 10752 10751 10750 ] final  142.14 input  -60.55 | X-H torsion
[ 11005 11000 10999 10996 ] final -152.20 input  -57.11 | X-H torsion

> <Gold.Protein.ActiveResidues>
 VAL166  LYS551  ARG553  GLY616  TRP617  ASP618  TYR619  PRO620  LYS621  CYS622 
 ASP623  PHE694  ASN695  SER759  ASP760  ASP761  ALA762  ILE779  LEU786  VAL792 
 PHE793  MET794  SER795  GLU796  ALA797  LYS798  CYS799  TRP800  GLU811  SER814 

> <Gold.Protein.RotatedAtoms>
  151.1674  135.0302  159.8736 H   0  0  0  0  0  0  0  0  0  0  0  0  # atno 6907 bound_to 6896
  152.5450  134.1210  159.8409 H   0  0  0  0  0  0  0  0  0  0  0  0  # atno 6908 bound_to 6896
  151.1312  133.4989  159.2631 H   0  0  0  0  0  0  0  0  0  0  0  0  # atno 6909 bound_to 6896
  145.9838  140.7255  142.9350 H   0  0  0  0  0  0  0  0  0  0  0  0  # atno 7974 bound_to 7965
  154.4559  140.1968  156.0382 H   0  0  0  0  0  0  0  0  0  0  0  0  # atno 8008 bound_to 7997
  156.0744  140.3280  155.7588 H   0  0  0  0  0  0  0  0  0  0  0  0  # atno 8009 bound_to 7997
  155.5211  140.0570  157.2897 H   0  0  0  0  0  0  0  0  0  0  0  0  # atno 8010 bound_to 7997
  140.4155  144.1533  150.6143 H   0  0  0  0  0  0  0  0  0  0  0  0  # atno 10167 bound_to 10162
  156.0282  130.4393  150.2736 H   0  0  0  0  0  0  0  0  0  0  0  0  # atno 10718 bound_to 10713
  153.9509  135.2970  155.3438 H   0  0  0  0  0  0  0  0  0  0  0  0  # atno 10763 bound_to 10752
  154.7427  135.5017  153.9153 H   0  0  0  0  0  0  0  0  0  0  0  0  # atno 10764 bound_to 10752
  153.0994  135.6730  153.9809 H   0  0  0  0  0  0  0  0  0  0  0  0  # atno 10765 bound_to 10752
  140.7214  134.3723  157.5182 H   0  0  0  0  0  0  0  0  0  0  0  0  # atno 11005 bound_to 11000
  144.6869  140.2953  143.7271 LP  0  0  0  0  0  0  0  0  0  0  0  0  # atno 17320 bound_to 7965
  145.7730  139.1864  143.2201 LP  0  0  0  0  0  0  0  0  0  0  0  0  # atno 17321 bound_to 7965
  140.4591  143.2456  151.9244 LP  0  0  0  0  0  0  0  0  0  0  0  0  # atno 17342 bound_to 10162
  139.4782  144.5485  151.8421 LP  0  0  0  0  0  0  0  0  0  0  0  0  # atno 17343 bound_to 10162
  157.0839  131.0151  151.3146 LP  0  0  0  0  0  0  0  0  0  0  0  0  # atno 17370 bound_to 10713
  157.4906  130.7820  149.7504 LP  0  0  0  0  0  0  0  0  0  0  0  0  # atno 17371 bound_to 10713
  139.8847  134.8957  156.2686 LP  0  0  0  0  0  0  0  0  0  0  0  0  # atno 17394 bound_to 11000
  141.0000  133.7157  156.0945 LP  0  0  0  0  0  0  0  0  0  0  0  0  # atno 17395 bound_to 11000

$$$$
