AV-unprocessed.smi:2193|AV-procd|sdf|8901|dock8
  -GOLD-   2272012113D 1   1.00000     0.00000
 Structure written by MMmdl.
 41 43  0  0  0  0  0  0  0  0  2 V2000
  145.9593  138.5094  151.8039 O   0  0  0  0  0  0  0  0  0  0  0  0
  145.4423  137.5106  152.6582 C   0  0  0  0  0  0  0  0  0  0  0  0
  145.3752  136.1616  152.0154 C   0  0  0  0  0  0  0  0  0  0  0  0
  146.4330  135.4276  151.5646 N   0  3  0  0  0  0  0  0  0  0  0  0
  145.9795  134.2253  151.0213 C   0  0  0  0  0  0  0  0  0  0  0  0
  146.6729  133.1655  150.4450 C   0  0  0  0  0  0  0  0  0  0  0  0
  145.8997  132.0794  149.9847 C   0  0  0  0  0  0  0  0  0  0  0  0
  144.4946  132.0750  150.1050 C   0  0  0  0  0  0  0  0  0  0  0  0
  143.8028  133.1555  150.6910 C   0  0  0  0  0  0  0  0  0  0  0  0
  144.5753  134.2243  151.1446 C   0  0  0  0  0  0  0  0  0  0  0  0
  144.2478  135.4345  151.7656 N   0  0  0  0  0  0  0  0  0  0  0  0
  142.8348  135.7392  152.0411 C   0  0  0  0  0  0  0  0  0  0  0  0
  142.2082  134.7969  153.0888 C   0  0  1  0  0  0  0  0  0  0  0  0
  143.2008  134.4337  154.0282 O   0  0  0  0  0  0  0  0  0  0  0  0
  141.0431  135.4644  153.8365 C   0  0  0  0  0  0  0  0  0  0  0  0
  141.1255  136.8717  153.6515 O   0  0  0  0  0  0  0  0  0  0  0  0
  139.9627  137.6093  153.7175 C   0  0  0  0  0  0  0  0  0  0  0  0
  140.0733  138.9984  153.4996 C   0  0  0  0  0  0  0  0  0  0  0  0
  138.9373  139.8293  153.5481 C   0  0  0  0  0  0  0  0  0  0  0  0
  137.6725  139.2756  153.8179 C   0  0  0  0  0  0  0  0  0  0  0  0
  136.5788  140.0726  153.8658 F   0  0  0  0  0  0  0  0  0  0  0  0
  137.5469  137.8914  154.0381 C   0  0  0  0  0  0  0  0  0  0  0  0
  138.6835  137.0602  153.9888 C   0  0  0  0  0  0  0  0  0  0  0  0
  145.3554  138.6338  151.0874 H   0  0  0  0  0  0  0  0  0  0  0  0
  146.0664  137.4561  153.5504 H   0  0  0  0  0  0  0  0  0  0  0  0
  144.4417  137.8013  152.9791 H   0  0  0  0  0  0  0  0  0  0  0  0
  147.7492  133.1667  150.3513 H   0  0  0  0  0  0  0  0  0  0  0  0
  146.3941  131.2331  149.5301 H   0  0  0  0  0  0  0  0  0  0  0  0
  143.9359  131.2250  149.7402 H   0  0  0  0  0  0  0  0  0  0  0  0
  142.7265  133.1428  150.7791 H   0  0  0  0  0  0  0  0  0  0  0  0
  142.7771  136.7743  152.3801 H   0  0  0  0  0  0  0  0  0  0  0  0
  142.2861  135.6959  151.0994 H   0  0  0  0  0  0  0  0  0  0  0  0
  141.8501  133.8949  152.5916 H   0  0  0  0  0  0  0  0  0  0  0  0
  142.9867  133.5813  154.3755 H   0  0  0  0  0  0  0  0  0  0  0  0
  140.0852  135.0663  153.4964 H   0  0  0  0  0  0  0  0  0  0  0  0
  141.1325  135.2539  154.9035 H   0  0  0  0  0  0  0  0  0  0  0  0
  141.0404  139.4323  153.2921 H   0  0  0  0  0  0  0  0  0  0  0  0
  139.0372  140.8913  153.3782 H   0  0  0  0  0  0  0  0  0  0  0  0
  136.5767  137.4653  154.2459 H   0  0  0  0  0  0  0  0  0  0  0  0
  138.5464  136.0039  154.1634 H   0  0  0  0  0  0  0  0  0  0  0  0
  147.3953  135.7344  151.6291 H   0  0  0  0  0  0  0  0  0  0  0  0
  1  2  1  0  0  0  0
  1 24  1  0  0  0  0
  2  3  1  0  0  0  0
  2 25  1  0  0  0  0
  2 26  1  0  0  0  0
  3 11  1  0  0  0  0
  3  4  2  0  0  0  0
  4  5  1  0  0  0  0
  4 41  1  0  0  0  0
  5 10  2  0  0  0  0
  5  6  1  0  0  0  0
  6  7  2  0  0  0  0
  6 27  1  0  0  0  0
  7  8  1  0  0  0  0
  7 28  1  0  0  0  0
  8  9  2  0  0  0  0
  8 29  1  0  0  0  0
  9 10  1  0  0  0  0
  9 30  1  0  0  0  0
 10 11  1  0  0  0  0
 11 12  1  0  0  0  0
 12 13  1  0  0  0  0
 12 31  1  0  0  0  0
 12 32  1  0  0  0  0
 13 14  1  0  0  0  0
 13 15  1  0  0  0  0
 13 33  1  0  0  0  0
 14 34  1  0  0  0  0
 15 16  1  0  0  0  0
 15 35  1  0  0  0  0
 15 36  1  0  0  0  0
 16 17  1  0  0  0  0
 17 23  1  0  0  0  0
 17 18  2  0  0  0  0
 18 19  1  0  0  0  0
 18 37  1  0  0  0  0
 19 20  2  0  0  0  0
 19 38  1  0  0  0  0
 20 21  1  0  0  0  0
 20 22  1  0  0  0  0
 22 23  2  0  0  0  0
 22 39  1  0  0  0  0
 23 40  1  0  0  0  0
M  CHG  1   4   1
M  END
> <s_m_source_file>
AV-unprocessed.smi

> <i_m_source_file_index>
2193

> <i_lp_mmshare_version>
43012

> <i_f3d_flags>
0

> <s_epik_input>
W2NIXTFbY0hdW2NIXVtjSF1jKGMxMiluKGMobjIpW0NIMl1bT0hdKVtDSDJdW0NASF0oW09IXSlbQ0gyXU9jM1tjSF1bY0hdYyhGKVtjSF1bY0hdMw==

> <s_epik_cmdline>
J2VwaWtfcHl0aG9uJywgJy1waCcsICc3LjAnLCAnLXRuJywgJzgnLCAnLW1hJywgJzIwMCcsICctbWV0YWxfYmluZGluZycsICctaW1hZScsICc8aW5maWxlLm1hZT4nLCAnLW9tYWUnLCAnPG91dGZpbGUubWFlPic=

> <r_lp_tautomer_probability>
1

> <r_epik_Ionization_Penalty>
1.43752

> <r_epik_Ionization_Penalty_Charging>
1.43666

> <r_epik_Ionization_Penalty_Neutral>
0.000858184

> <r_epik_State_Penalty>
1.52171

> <r_epik_Charging_Adjusted_Penalty>
2.95837

> <i_epik_Tot_Q>
1

> <i_epik_Tot_abs_Q>
1

> <r_epik_Metal_State_Penalty>
5.56725

> <b_epik_Metal_Only>
0

> <s_lp_Force_Field>
OPLS_2005

> <r_lp_Energy>
18.7626

> <b_lp_Chiralities_Consistent>
1

> <s_lp_Variant>
AV-unprocessed.smi:2193-4

> <Gold.Version>
5.8.1

> <Gold.Id.Protein>
6NUR|6NUR_protein|mol2

> <Gold.PLP.Fitness>
54.4397

> <Gold.PLP.PLP>
-44.6396

> <Gold.PLP.part.hbond>
-3.9211

> <Gold.PLP.part.metal>
0.0000

> <Gold.PLP.part.buried>
-5.2679

> <Gold.PLP.part.nonpolar>
-36.5439

> <Gold.PLP.part.repulsive>
0.1865

> <Gold.PLP.ligand.clash>
0.0000

> <Gold.PLP.ligand.torsion>
1.1259

> <Gold.PLP.Chemscore.Hbond>
4.0000

> <Gold.PLP.Chemscore.CHOScore>
0.0000

> <Gold.PLP.Chemscore.Metal>
0.0000

> <Gold.Chemscore.Hbonds>
donor molecule, donor type, donor heavy atom, donor atom, acceptor molecule, acceptor atom, score
      L1  H     1    24       P1 10171  1.00
      L1  H     4    41       P1  7948  2.00
      L1  H    14    34       P1 10957  1.00

> <Gold.PLP.Chemscore.Internal.Correction>
0.0520

> <Gold.Rescore>
     Score         DG    S(hbond)    S(metal)    S(lipo)     H(rot)  DE(clash)    DE(int)     intcor
     18.01     -20.07       2.99        0.00     111.71       3.31       0.88       1.18       ----

> <Gold.Chemscore.Fitness>
18.0074

> <Gold.Chemscore.DG>
-20.0658

> <Gold.Chemscore.ZeroCoef>
-5.4800

> <Gold.Chemscore.Hbond>
2.9935

> <Gold.Chemscore.Metal>
0.0000

> <Gold.Chemscore.Lipo>
111.7090

> <Gold.Chemscore.Internal_Hbond>
0.0000

> <Gold.Chemscore.DEClash>
0.8820

> <Gold.Chemscore.DEInternal>
1.1764

> <Gold.Chemscore.Rot>
3.3134

> <Gold.Chemscore.Internal.Correction>
   9.000000E+99

> <Gold.Chemscore.Hbonds>
donor molecule, donor type, donor heavy atom, donor atom, acceptor molecule, acceptor atom, score
      L1  H     1    24       P1 10171  0.99
      L1  H     4    41       P1  7948  0.99
      L1  H    14    34       P1 10957  1.00

> <Gold.Chemscore.Hbond.Weighted>
-9.9982

> <Gold.Chemscore.Metal.Weighted>
-0.0000

> <Gold.Chemscore.Lipo.Weighted>
-13.0700

> <Gold.Chemscore.Internal_Hbond.Weighted>
0.0000

> <Gold.Chemscore.DEClash.Weighted>
0.8820

> <Gold.Chemscore.DEInternal.Weighted>
1.1764

> <Gold.Chemscore.Rot.Weighted>
8.4823

> <Gold.Chemscore.Internal.Correction.Weighted>
   9.000000E+99

> <Gold.Protein.RotatedTorsions>
[ 6907 6896 6895 6894 ] final  167.31 input  -60.11 | X-H torsion
[ 7974 7965 7964 7962 ] final  -53.86 input  175.53 | X-H torsion
[ 8008 7997 7996 7995 ] final  158.06 input   59.86 | X-H torsion
[ 10167 10162 10161 10158 ] final  -38.85 input  -65.29 | X-H torsion
[ 10718 10713 10712 10709 ] final   80.43 input   66.30 | X-H torsion
[ 10763 10752 10751 10750 ] final   35.05 input  -60.55 | X-H torsion
[ 11005 11000 10999 10996 ] final  163.57 input  -57.11 | X-H torsion

> <Gold.Protein.ActiveResidues>
 VAL166  LYS551  ARG553  GLY616  TRP617  ASP618  TYR619  PRO620  LYS621  CYS622 
 ASP623  PHE694  ASN695  SER759  ASP760  ASP761  ALA762  ILE779  LEU786  VAL792 
 PHE793  MET794  SER795  GLU796  ALA797  LYS798  CYS799  TRP800  GLU811  SER814 

> <Gold.Protein.RotatedAtoms>
  151.8653  133.3465  159.3716 H   0  0  0  0  0  0  0  0  0  0  0  0  # atno 6907 bound_to 6896
  150.7168  134.5166  159.5642 H   0  0  0  0  0  0  0  0  0  0  0  0  # atno 6908 bound_to 6896
  152.2688  134.7956  160.0469 H   0  0  0  0  0  0  0  0  0  0  0  0  # atno 6909 bound_to 6896
  145.8920  140.8063  142.9786 H   0  0  0  0  0  0  0  0  0  0  0  0  # atno 7974 bound_to 7965
  156.2326  140.1868  156.7203 H   0  0  0  0  0  0  0  0  0  0  0  0  # atno 8008 bound_to 7997
  154.6049  140.0630  156.9445 H   0  0  0  0  0  0  0  0  0  0  0  0  # atno 8009 bound_to 7997
  155.2112  140.3300  155.4331 H   0  0  0  0  0  0  0  0  0  0  0  0  # atno 8010 bound_to 7997
  140.7080  143.3251  151.2700 H   0  0  0  0  0  0  0  0  0  0  0  0  # atno 10167 bound_to 10162
  157.6806  130.9959  150.2078 H   0  0  0  0  0  0  0  0  0  0  0  0  # atno 10718 bound_to 10713
  153.0136  135.6344  154.1765 H   0  0  0  0  0  0  0  0  0  0  0  0  # atno 10763 bound_to 10752
  154.1505  135.2829  155.3138 H   0  0  0  0  0  0  0  0  0  0  0  0  # atno 10764 bound_to 10752
  154.6057  135.5573  153.7481 H   0  0  0  0  0  0  0  0  0  0  0  0  # atno 10765 bound_to 10752
  140.2371  134.8079  157.3375 H   0  0  0  0  0  0  0  0  0  0  0  0  # atno 11005 bound_to 11000
  144.6731  140.1545  143.7427 LP  0  0  0  0  0  0  0  0  0  0  0  0  # atno 17320 bound_to 7965
  145.8896  139.2368  143.1557 LP  0  0  0  0  0  0  0  0  0  0  0  0  # atno 17321 bound_to 7965
  139.6716  144.0009  152.2756 LP  0  0  0  0  0  0  0  0  0  0  0  0  # atno 17342 bound_to 10162
  139.9610  144.6558  150.8080 LP  0  0  0  0  0  0  0  0  0  0  0  0  # atno 17343 bound_to 10162
  156.2755  130.3727  149.7988 LP  0  0  0  0  0  0  0  0  0  0  0  0  # atno 17370 bound_to 10713
  156.5692  130.8417  151.3351 LP  0  0  0  0  0  0  0  0  0  0  0  0  # atno 17371 bound_to 10713
  140.1691  134.4632  155.7844 LP  0  0  0  0  0  0  0  0  0  0  0  0  # atno 17394 bound_to 11000
  141.2213  133.6934  156.7676 LP  0  0  0  0  0  0  0  0  0  0  0  0  # atno 17395 bound_to 11000

$$$$
