AV-unprocessed.smi:868|AV-procd|sdf|4002|dock2
  -GOLD-   22720 1483D 1   1.00000     0.00000
 Structure written by MMmdl.
 47 49  0  0  0  0  0  0  0  0  1 V2000
  147.8614  136.2605  162.8803 C   0  0  0  0  0  0  0  0  0  0  0  0
  147.1426  135.3098  161.9089 C   0  0  0  0  0  0  0  0  0  0  0  0
  146.7952  133.9899  162.6140 C   0  0  0  0  0  0  0  0  0  0  0  0
  147.9444  135.0313  160.6100 C   0  0  0  0  0  0  0  0  0  0  0  0
  147.7278  135.9916  159.4191 C   0  0  0  0  0  0  0  0  0  0  0  0
  149.0752  136.2889  158.7145 C   0  0  0  0  0  0  0  0  0  0  0  0
  149.7416  135.3853  158.2086 O   0  0  0  0  0  0  0  0  0  0  0  0
  149.4727  137.5716  158.7079 N   0  0  0  0  0  0  0  0  0  0  0  0
  150.7350  138.0561  158.1642 C   0  0  0  0  0  0  0  0  0  0  0  0
  151.0345  139.4863  158.6405 C   0  0  0  0  0  0  0  0  0  0  0  0
  150.9301  140.4911  157.5362 C   0  0  0  0  0  0  0  0  0  0  0  0
  150.6414  140.1673  156.2699 N   0  0  0  0  0  0  0  0  0  0  0  0
  150.5822  141.3638  155.5844 N   0  0  0  0  0  0  0  0  0  0  0  0
  150.8324  142.2911  156.5075 C   0  0  0  0  0  0  0  0  0  0  0  0
  151.0745  141.8171  157.7402 N   0  0  0  0  0  0  0  0  0  0  0  0
  151.3259  142.5522  158.9687 C   0  0  0  0  0  0  0  0  0  0  0  0
  151.5114  144.0438  158.7980 C   0  0  0  0  0  0  0  0  0  0  0  0
  152.7077  143.1572  159.0614 C   0  0  0  0  0  0  0  0  0  0  0  0
  146.5756  135.6607  158.4332 C   0  0  0  0  0  0  0  0  0  0  0  0
  146.1313  137.1224  158.4502 C   0  0  0  0  0  0  0  0  0  0  0  0
  146.9683  137.3075  159.7155 C   0  0  0  0  0  0  0  0  0  0  0  0
  148.8551  135.8913  163.1357 H   0  0  0  0  0  0  0  0  0  0  0  0
  147.2998  136.3699  163.8085 H   0  0  0  0  0  0  0  0  0  0  0  0
  147.9693  137.2589  162.4583 H   0  0  0  0  0  0  0  0  0  0  0  0
  146.1926  135.7734  161.6422 H   0  0  0  0  0  0  0  0  0  0  0  0
  147.6946  133.4609  162.9311 H   0  0  0  0  0  0  0  0  0  0  0  0
  146.2332  133.3272  161.9554 H   0  0  0  0  0  0  0  0  0  0  0  0
  146.1831  134.1654  163.4991 H   0  0  0  0  0  0  0  0  0  0  0  0
  149.0048  135.0238  160.8657 H   0  0  0  0  0  0  0  0  0  0  0  0
  147.7362  134.0103  160.2867 H   0  0  0  0  0  0  0  0  0  0  0  0
  148.8677  138.2561  159.1382 H   0  0  0  0  0  0  0  0  0  0  0  0
  151.5485  137.3813  158.4364 H   0  0  0  0  0  0  0  0  0  0  0  0
  150.6631  138.0343  157.0765 H   0  0  0  0  0  0  0  0  0  0  0  0
  150.3611  139.7626  159.4516 H   0  0  0  0  0  0  0  0  0  0  0  0
  152.0422  139.5379  159.0551 H   0  0  0  0  0  0  0  0  0  0  0  0
  150.8339  143.3464  156.2772 H   0  0  0  0  0  0  0  0  0  0  0  0
  150.8303  142.1374  159.8441 H   0  0  0  0  0  0  0  0  0  0  0  0
  151.4255  144.4748  157.8023 H   0  0  0  0  0  0  0  0  0  0  0  0
  151.1776  144.6854  159.6107 H   0  0  0  0  0  0  0  0  0  0  0  0
  153.1650  143.2128  160.0471 H   0  0  0  0  0  0  0  0  0  0  0  0
  153.3988  142.9910  158.2369 H   0  0  0  0  0  0  0  0  0  0  0  0
  146.8592  135.3026  157.4432 H   0  0  0  0  0  0  0  0  0  0  0  0
  145.8282  134.9989  158.8733 H   0  0  0  0  0  0  0  0  0  0  0  0
  146.5164  137.6906  157.6021 H   0  0  0  0  0  0  0  0  0  0  0  0
  145.0599  137.2707  158.5868 H   0  0  0  0  0  0  0  0  0  0  0  0
  146.3677  137.2479  160.6246 H   0  0  0  0  0  0  0  0  0  0  0  0
  147.5674  138.2194  159.7112 H   0  0  0  0  0  0  0  0  0  0  0  0
  1  2  1  0  0  0  0
  1 22  1  0  0  0  0
  1 23  1  0  0  0  0
  1 24  1  0  0  0  0
  2  3  1  0  0  0  0
  2  4  1  0  0  0  0
  2 25  1  0  0  0  0
  3 26  1  0  0  0  0
  3 27  1  0  0  0  0
  3 28  1  0  0  0  0
  4  5  1  0  0  0  0
  4 29  1  0  0  0  0
  4 30  1  0  0  0  0
  5 21  1  0  0  0  0
  5  6  1  0  0  0  0
  5 19  1  0  0  0  0
  6  7  2  0  0  0  0
  6  8  1  0  0  0  0
  8  9  1  0  0  0  0
  8 31  1  0  0  0  0
  9 10  1  0  0  0  0
  9 32  1  0  0  0  0
  9 33  1  0  0  0  0
 10 11  1  0  0  0  0
 10 34  1  0  0  0  0
 10 35  1  0  0  0  0
 11 15  1  0  0  0  0
 11 12  2  0  0  0  0
 12 13  1  0  0  0  0
 13 14  2  0  0  0  0
 14 15  1  0  0  0  0
 14 36  1  0  0  0  0
 15 16  1  0  0  0  0
 16 18  1  0  0  0  0
 16 17  1  0  0  0  0
 16 37  1  0  0  0  0
 17 18  1  0  0  0  0
 17 38  1  0  0  0  0
 17 39  1  0  0  0  0
 18 40  1  0  0  0  0
 18 41  1  0  0  0  0
 19 20  1  0  0  0  0
 19 42  1  0  0  0  0
 19 43  1  0  0  0  0
 20 21  1  0  0  0  0
 20 44  1  0  0  0  0
 20 45  1  0  0  0  0
 21 46  1  0  0  0  0
 21 47  1  0  0  0  0
M  END
> <s_m_source_file>
AV-unprocessed.smi

> <i_m_source_file_index>
868

> <i_lp_mmshare_version>
43012

> <i_f3d_flags>
0

> <s_epik_input>
W0NIM11bQ0hdKFtDSDNdKVtDSDJdQzEoW0NIMl1bQ0gyXVtDSDJdMSlDKD1PKVtOSF1bQ0gyXVtDSDJdYzJubltjSF1uMltDSF0zW0NIMl1bQ0gyXTM=

> <s_epik_cmdline>
J2VwaWtfcHl0aG9uJywgJy1waCcsICc3LjAnLCAnLXRuJywgJzgnLCAnLW1hJywgJzIwMCcsICctbWV0YWxfYmluZGluZycsICctaW1hZScsICc8aW5maWxlLm1hZT4nLCAnLW9tYWUnLCAnPG91dGZpbGUubWFlPic=

> <r_lp_tautomer_probability>
1

> <r_epik_Ionization_Penalty>
0.000232087

> <r_epik_Ionization_Penalty_Charging>
0

> <r_epik_Ionization_Penalty_Neutral>
0.000232087

> <r_epik_State_Penalty>
-0

> <r_epik_Charging_Adjusted_Penalty>
0

> <i_epik_Tot_Q>
0

> <i_epik_Tot_abs_Q>
0

> <r_epik_Metal_State_Penalty>
-0

> <b_epik_Metal_Only>
0

> <s_lp_Force_Field>
OPLS_2005

> <r_lp_Energy>
30.4352

> <b_lp_Chiralities_Consistent>
1

> <s_lp_Variant>
AV-unprocessed.smi:868-1

> <Gold.Version>
5.8.1

> <Gold.Id.Protein>
6NUR|6NUR_protein|mol2

> <Gold.PLP.Fitness>
38.8695

> <Gold.PLP.PLP>
-35.3891

> <Gold.PLP.part.hbond>
-2.0000

> <Gold.PLP.part.metal>
0.0000

> <Gold.PLP.part.buried>
-4.9486

> <Gold.PLP.part.nonpolar>
-28.6930

> <Gold.PLP.part.repulsive>
0.2322

> <Gold.PLP.ligand.clash>
1.3596

> <Gold.PLP.ligand.torsion>
2.1016

> <Gold.PLP.Chemscore.Hbond>
1.6864

> <Gold.PLP.Chemscore.CHOScore>
1.0000

> <Gold.PLP.Chemscore.Metal>
0.0000

> <Gold.Chemscore.Hbonds>
donor molecule, donor type, donor heavy atom, donor atom, acceptor molecule, acceptor atom, score
      P1  H  6896  6908       L1     7  1.00
      P1  H  7989  7998       L1    13  0.08
      L1  C    14    36       P1  8028  0.95

> <Gold.PLP.Chemscore.Internal.Correction>
0.9840

> <Gold.Rescore>
     Score         DG    S(hbond)    S(metal)    S(lipo)     H(rot)  DE(clash)    DE(int)     intcor
     13.18     -15.20       1.74        0.00      80.76       2.17       0.19       1.83       ----

> <Gold.Chemscore.Fitness>
13.1846

> <Gold.Chemscore.DG>
-15.2050

> <Gold.Chemscore.ZeroCoef>
-5.4800

> <Gold.Chemscore.Hbond>
1.7432

> <Gold.Chemscore.Metal>
0.0000

> <Gold.Chemscore.Lipo>
80.7582

> <Gold.Chemscore.Internal_Hbond>
0.0000

> <Gold.Chemscore.DEClash>
0.1927

> <Gold.Chemscore.DEInternal>
1.8276

> <Gold.Chemscore.Rot>
2.1664

> <Gold.Chemscore.Internal.Correction>
   9.000000E+99

> <Gold.Chemscore.Hbonds>
donor molecule, donor type, donor heavy atom, donor atom, acceptor molecule, acceptor atom, score
      P1  H  6896  6908       L1     7  0.80
      P1  H  7989  7998       L1    13  0.05

> <Gold.Chemscore.Hbond.Weighted>
-5.8223

> <Gold.Chemscore.Metal.Weighted>
-0.0000

> <Gold.Chemscore.Lipo.Weighted>
-9.4487

> <Gold.Chemscore.Internal_Hbond.Weighted>
0.0000

> <Gold.Chemscore.DEClash.Weighted>
0.1927

> <Gold.Chemscore.DEInternal.Weighted>
1.8276

> <Gold.Chemscore.Rot.Weighted>
5.5461

> <Gold.Chemscore.Internal.Correction.Weighted>
   9.000000E+99

> <Gold.Protein.RotatedTorsions>
[ 6907 6896 6895 6894 ] final  159.14 input  -60.11 | X-H torsion
[ 7974 7965 7964 7962 ] final    6.71 input  175.53 | X-H torsion
[ 8008 7997 7996 7995 ] final  -86.61 input   59.86 | X-H torsion
[ 10167 10162 10161 10158 ] final -177.81 input  -65.29 | X-H torsion
[ 10718 10713 10712 10709 ] final  -51.13 input   66.30 | X-H torsion
[ 10763 10752 10751 10750 ] final   31.93 input  -60.55 | X-H torsion
[ 11005 11000 10999 10996 ] final  -86.92 input  -57.11 | X-H torsion

> <Gold.Protein.ActiveResidues>
 VAL166  LYS551  ARG553  GLY616  TRP617  ASP618  TYR619  PRO620  LYS621  CYS622 
 ASP623  PHE694  ASN695  SER759  ASP760  ASP761  ALA762  ILE779  LEU786  VAL792 
 PHE793  MET794  SER795  GLU796  ALA797  LYS798  CYS799  TRP800  GLU811  SER814 

> <Gold.Protein.RotatedAtoms>
  151.9900  133.3787  159.4140 H   0  0  0  0  0  0  0  0  0  0  0  0  # atno 6907 bound_to 6896
  150.6923  134.3947  159.5101 H   0  0  0  0  0  0  0  0  0  0  0  0  # atno 6908 bound_to 6896
  152.1679  134.8858  160.0587 H   0  0  0  0  0  0  0  0  0  0  0  0  # atno 6909 bound_to 6896
  146.2433  140.0193  142.8399 H   0  0  0  0  0  0  0  0  0  0  0  0  # atno 7974 bound_to 7965
  154.6538  140.0576  156.9986 H   0  0  0  0  0  0  0  0  0  0  0  0  # atno 8008 bound_to 7997
  155.1331  140.3258  155.4451 H   0  0  0  0  0  0  0  0  0  0  0  0  # atno 8009 bound_to 7997
  156.2588  140.1977  156.6449 H   0  0  0  0  0  0  0  0  0  0  0  0  # atno 8010 bound_to 7997
  139.5462  144.2229  152.0992 H   0  0  0  0  0  0  0  0  0  0  0  0  # atno 10167 bound_to 10162
  156.1738  130.4149  149.9607 H   0  0  0  0  0  0  0  0  0  0  0  0  # atno 10718 bound_to 10713
  153.0289  135.6426  154.1275 H   0  0  0  0  0  0  0  0  0  0  0  0  # atno 10763 bound_to 10752
  154.1000  135.2860  155.3255 H   0  0  0  0  0  0  0  0  0  0  0  0  # atno 10764 bound_to 10752
  154.6405  135.5461  153.7847 H   0  0  0  0  0  0  0  0  0  0  0  0  # atno 10765 bound_to 10752
  141.1624  133.7482  156.9231 H   0  0  0  0  0  0  0  0  0  0  0  0  # atno 11005 bound_to 11000
  145.1256  140.9488  143.4575 LP  0  0  0  0  0  0  0  0  0  0  0  0  # atno 17320 bound_to 7965
  145.0438  139.3238  143.5963 LP  0  0  0  0  0  0  0  0  0  0  0  0  # atno 17321 bound_to 7965
  140.1716  144.4930  150.6576 LP  0  0  0  0  0  0  0  0  0  0  0  0  # atno 17342 bound_to 10162
  140.6711  143.2286  151.5623 LP  0  0  0  0  0  0  0  0  0  0  0  0  # atno 17343 bound_to 10162
  156.7399  130.9075  151.3631 LP  0  0  0  0  0  0  0  0  0  0  0  0  # atno 17370 bound_to 10713
  157.6821  130.9150  150.0294 LP  0  0  0  0  0  0  0  0  0  0  0  0  # atno 17371 bound_to 10713
  140.1437  134.9276  157.2501 LP  0  0  0  0  0  0  0  0  0  0  0  0  # atno 17394 bound_to 11000
  140.2805  134.3355  155.7344 LP  0  0  0  0  0  0  0  0  0  0  0  0  # atno 17395 bound_to 11000

$$$$
