AV-unprocessed.smi:2880|AV-procd|sdf|11054|dock7
  -GOLD-   2272015523D 1   1.00000     0.00000
 Structure written by MMmdl.
 47 48  0  0  0  0  0  0  0  0  1 V2000
  151.1030  130.7360  157.4886 C   0  0  0  0  0  0  0  0  0  0  0  0
  151.5629  131.0548  156.0524 C   0  0  0  0  0  0  0  0  0  0  0  0
  153.1056  131.1737  156.0480 C   0  0  0  0  0  0  0  0  0  0  0  0
  151.1585  129.9058  155.1086 C   0  0  0  0  0  0  0  0  0  0  0  0
  150.9086  132.2918  155.6050 N   0  0  0  0  0  0  0  0  0  0  0  0
  151.0430  133.5639  156.1358 C   0  0  0  0  0  0  0  0  0  0  0  0
  150.2514  134.4110  155.4143 C   0  0  0  0  0  0  0  0  0  0  0  0
  149.6578  133.5562  154.4480 C   0  0  0  0  0  0  0  0  0  0  0  0
  148.7526  134.0696  153.4847 N   0  0  0  0  0  0  0  0  0  0  0  0
  147.6512  133.4750  152.9953 C   0  0  0  0  0  0  0  0  0  0  0  0
  147.2288  132.3711  153.3412 O   0  0  0  0  0  0  0  0  0  0  0  0
  147.0638  134.2406  152.0633 N   0  0  0  0  0  0  0  0  0  0  0  0
  145.8703  133.8931  151.2928 C   0  0  1  0  0  0  0  0  0  0  0  0
  146.2239  132.7376  150.3353 C   0  0  0  0  0  0  0  0  0  0  0  0
  145.0086  132.2908  149.5113 C   0  0  0  0  0  0  0  0  0  0  0  0
  143.8429  131.9007  150.4283 C   0  0  0  0  0  0  0  0  0  0  0  0
  143.4789  133.0539  151.3753 C   0  0  0  0  0  0  0  0  0  0  0  0
  144.6835  133.5162  152.2240 C   0  0  2  0  0  0  0  0  0  0  0  0
  144.2501  134.6620  153.1679 C   0  0  0  0  0  0  0  0  0  0  0  0
  143.1767  134.2802  154.0040 O   0  0  0  0  0  0  0  0  0  0  0  0
  150.0448  132.2945  154.5609 N   0  0  0  0  0  0  0  0  0  0  0  0
  151.5750  129.8269  157.8625 H   0  0  0  0  0  0  0  0  0  0  0  0
  150.0243  130.5873  157.5460 H   0  0  0  0  0  0  0  0  0  0  0  0
  151.3603  131.5449  158.1735 H   0  0  0  0  0  0  0  0  0  0  0  0
  153.4501  131.9701  156.7089 H   0  0  0  0  0  0  0  0  0  0  0  0
  153.4919  131.3791  155.0488 H   0  0  0  0  0  0  0  0  0  0  0  0
  153.5725  130.2488  156.3888 H   0  0  0  0  0  0  0  0  0  0  0  0
  151.6322  128.9679  155.4004 H   0  0  0  0  0  0  0  0  0  0  0  0
  151.4544  130.1170  154.0803 H   0  0  0  0  0  0  0  0  0  0  0  0
  150.0809  129.7388  155.1120 H   0  0  0  0  0  0  0  0  0  0  0  0
  151.6881  133.7615  156.9789 H   0  0  0  0  0  0  0  0  0  0  0  0
  150.1202  135.4732  155.5571 H   0  0  0  0  0  0  0  0  0  0  0  0
  148.9789  134.9800  153.1122 H   0  0  0  0  0  0  0  0  0  0  0  0
  147.4922  135.1287  151.8477 H   0  0  0  0  0  0  0  0  0  0  0  0
  145.5598  134.7433  150.6825 H   0  0  0  0  0  0  0  0  0  0  0  0
  147.0273  133.0419  149.6631 H   0  0  0  0  0  0  0  0  0  0  0  0
  146.6040  131.8886  150.9055 H   0  0  0  0  0  0  0  0  0  0  0  0
  144.6990  133.0975  148.8455 H   0  0  0  0  0  0  0  0  0  0  0  0
  145.2791  131.4491  148.8734 H   0  0  0  0  0  0  0  0  0  0  0  0
  142.9753  131.6225  149.8294 H   0  0  0  0  0  0  0  0  0  0  0  0
  144.1123  131.0189  151.0110 H   0  0  0  0  0  0  0  0  0  0  0  0
  143.0964  133.8935  150.7931 H   0  0  0  0  0  0  0  0  0  0  0  0
  142.6640  132.7357  152.0266 H   0  0  0  0  0  0  0  0  0  0  0  0
  144.9824  132.6661  152.8401 H   0  0  0  0  0  0  0  0  0  0  0  0
  145.0879  135.0004  153.7783 H   0  0  0  0  0  0  0  0  0  0  0  0
  143.9108  135.5230  152.5915 H   0  0  0  0  0  0  0  0  0  0  0  0
  143.1619  133.3368  154.0609 H   0  0  0  0  0  0  0  0  0  0  0  0
  1  2  1  0  0  0  0
  1 22  1  0  0  0  0
  1 23  1  0  0  0  0
  1 24  1  0  0  0  0
  2  3  1  0  0  0  0
  2  4  1  0  0  0  0
  2  5  1  0  0  0  0
  3 25  1  0  0  0  0
  3 26  1  0  0  0  0
  3 27  1  0  0  0  0
  4 28  1  0  0  0  0
  4 29  1  0  0  0  0
  4 30  1  0  0  0  0
  5 21  1  0  0  0  0
  5  6  1  0  0  0  0
  6  7  2  0  0  0  0
  6 31  1  0  0  0  0
  7  8  1  0  0  0  0
  7 32  1  0  0  0  0
  8  9  1  0  0  0  0
  8 21  2  0  0  0  0
  9 10  1  0  0  0  0
  9 33  1  0  0  0  0
 10 11  2  0  0  0  0
 10 12  1  0  0  0  0
 12 13  1  0  0  0  0
 12 34  1  0  0  0  0
 13 18  1  0  0  0  0
 13 14  1  0  0  0  0
 13 35  1  0  0  0  0
 14 15  1  0  0  0  0
 14 36  1  0  0  0  0
 14 37  1  0  0  0  0
 15 16  1  0  0  0  0
 15 38  1  0  0  0  0
 15 39  1  0  0  0  0
 16 17  1  0  0  0  0
 16 40  1  0  0  0  0
 16 41  1  0  0  0  0
 17 18  1  0  0  0  0
 17 42  1  0  0  0  0
 17 43  1  0  0  0  0
 18 19  1  0  0  0  0
 18 44  1  0  0  0  0
 19 20  1  0  0  0  0
 19 45  1  0  0  0  0
 19 46  1  0  0  0  0
 20 47  1  0  0  0  0
M  END
> <s_m_source_file>
AV-unprocessed.smi

> <i_m_source_file_index>
2880

> <i_lp_mmshare_version>
43012

> <i_f3d_flags>
0

> <s_epik_input>
W0NIM11DKFtDSDNdKShbQ0gzXSluMVtjSF1bY0hdYyhuMSlbTkhdQyg9TylbTkhdW0NAQEhdMltDSDJdW0NIMl1bQ0gyXVtDSDJdW0NASF0yW0NIMl1bT0hd

> <s_epik_cmdline>
J2VwaWtfcHl0aG9uJywgJy1waCcsICc3LjAnLCAnLXRuJywgJzgnLCAnLW1hJywgJzIwMCcsICctbWV0YWxfYmluZGluZycsICctaW1hZScsICc8aW5maWxlLm1hZT4nLCAnLW9tYWUnLCAnPG91dGZpbGUubWFlPic=

> <r_lp_tautomer_probability>
1

> <r_epik_Ionization_Penalty>
3.89283e-05

> <r_epik_Ionization_Penalty_Charging>
0

> <r_epik_Ionization_Penalty_Neutral>
3.89283e-05

> <r_epik_State_Penalty>
-0

> <r_epik_Charging_Adjusted_Penalty>
0

> <i_epik_Tot_Q>
0

> <i_epik_Tot_abs_Q>
0

> <r_epik_Metal_State_Penalty>
-0

> <b_epik_Metal_Only>
0

> <s_lp_Force_Field>
OPLS_2005

> <r_lp_Energy>
21.9333

> <b_lp_Chiralities_Consistent>
1

> <s_lp_Variant>
AV-unprocessed.smi:2880-4

> <Gold.Version>
5.8.1

> <Gold.Id.Protein>
6NUR|6NUR_protein|mol2

> <Gold.PLP.Fitness>
45.2991

> <Gold.PLP.PLP>
-36.9942

> <Gold.PLP.part.hbond>
-3.0000

> <Gold.PLP.part.metal>
0.0000

> <Gold.PLP.part.buried>
-5.0215

> <Gold.PLP.part.nonpolar>
-29.0313

> <Gold.PLP.part.repulsive>
0.1373

> <Gold.PLP.ligand.clash>
0.0000

> <Gold.PLP.ligand.torsion>
0.3542

> <Gold.PLP.Chemscore.Hbond>
3.0000

> <Gold.PLP.Chemscore.CHOScore>
0.0000

> <Gold.PLP.Chemscore.Metal>
0.0000

> <Gold.Chemscore.Hbonds>
donor molecule, donor type, donor heavy atom, donor atom, acceptor molecule, acceptor atom, score
      L1  H     9    33       P1  7948  0.90
      L1  H    12    34       P1  7948  0.99
      L1  H    20    47       P1 10957  1.00

> <Gold.PLP.Chemscore.Internal.Correction>
0.0133

> <Gold.Rescore>
     Score         DG    S(hbond)    S(metal)    S(lipo)     H(rot)  DE(clash)    DE(int)     intcor
     16.60     -18.23       2.60        0.00      77.91       1.97       0.01       1.63       ----

> <Gold.Chemscore.Fitness>
16.5982

> <Gold.Chemscore.DG>
-18.2318

> <Gold.Chemscore.ZeroCoef>
-5.4800

> <Gold.Chemscore.Hbond>
2.5967

> <Gold.Chemscore.Metal>
0.0000

> <Gold.Chemscore.Lipo>
77.9060

> <Gold.Chemscore.Internal_Hbond>
0.0000

> <Gold.Chemscore.DEClash>
0.0082

> <Gold.Chemscore.DEInternal>
1.6253

> <Gold.Chemscore.Rot>
1.9672

> <Gold.Chemscore.Internal.Correction>
   9.000000E+99

> <Gold.Chemscore.Hbonds>
donor molecule, donor type, donor heavy atom, donor atom, acceptor molecule, acceptor atom, score
      L1  H     9    33       P1  7948  0.17
      L1  H    12    34       P1  7948  0.86
      L1  H    20    47       P1 10957  0.98

> <Gold.Chemscore.Hbond.Weighted>
-8.6728

> <Gold.Chemscore.Metal.Weighted>
-0.0000

> <Gold.Chemscore.Lipo.Weighted>
-9.1150

> <Gold.Chemscore.Internal_Hbond.Weighted>
0.0000

> <Gold.Chemscore.DEClash.Weighted>
0.0082

> <Gold.Chemscore.DEInternal.Weighted>
1.6253

> <Gold.Chemscore.Rot.Weighted>
5.0360

> <Gold.Chemscore.Internal.Correction.Weighted>
   9.000000E+99

> <Gold.Protein.RotatedTorsions>
[ 6907 6896 6895 6894 ] final   66.77 input  -60.11 | X-H torsion
[ 7974 7965 7964 7962 ] final  104.47 input  175.53 | X-H torsion
[ 8008 7997 7996 7995 ] final  -87.61 input   59.86 | X-H torsion
[ 10167 10162 10161 10158 ] final -156.34 input  -65.29 | X-H torsion
[ 10718 10713 10712 10709 ] final  156.84 input   66.30 | X-H torsion
[ 10763 10752 10751 10750 ] final   48.17 input  -60.55 | X-H torsion
[ 11005 11000 10999 10996 ] final  -40.04 input  -57.11 | X-H torsion

> <Gold.Protein.ActiveResidues>
 VAL166  LYS551  ARG553  GLY616  TRP617  ASP618  TYR619  PRO620  LYS621  CYS622 
 ASP623  PHE694  ASN695  SER759  ASP760  ASP761  ALA762  ILE779  LEU786  VAL792 
 PHE793  MET794  SER795  GLU796  ALA797  LYS798  CYS799  TRP800  GLU811  SER814 

> <Gold.Protein.RotatedAtoms>
  152.4505  134.5404  159.9837 H   0  0  0  0  0  0  0  0  0  0  0  0  # atno 6907 bound_to 6896
  151.5478  133.3416  159.2955 H   0  0  0  0  0  0  0  0  0  0  0  0  # atno 6908 bound_to 6896
  150.8432  134.7763  159.7012 H   0  0  0  0  0  0  0  0  0  0  0  0  # atno 6909 bound_to 6896
  145.3324  139.2483  143.3653 H   0  0  0  0  0  0  0  0  0  0  0  0  # atno 7974 bound_to 7965
  154.6652  140.0563  157.0106 H   0  0  0  0  0  0  0  0  0  0  0  0  # atno 8008 bound_to 7997
  155.1169  140.3243  155.4488 H   0  0  0  0  0  0  0  0  0  0  0  0  # atno 8009 bound_to 7997
  156.2635  140.2004  156.6292 H   0  0  0  0  0  0  0  0  0  0  0  0  # atno 8010 bound_to 7997
  139.6858  143.9503  152.2360 H   0  0  0  0  0  0  0  0  0  0  0  0  # atno 10167 bound_to 10162
  157.1996  131.0673  151.2033 H   0  0  0  0  0  0  0  0  0  0  0  0  # atno 10718 bound_to 10713
  152.9794  135.5953  154.3882 H   0  0  0  0  0  0  0  0  0  0  0  0  # atno 10763 bound_to 10752
  154.3540  135.2767  155.2358 H   0  0  0  0  0  0  0  0  0  0  0  0  # atno 10764 bound_to 10752
  154.4385  135.6019  153.6169 H   0  0  0  0  0  0  0  0  0  0  0  0  # atno 10765 bound_to 10752
  141.0146  133.6891  156.2268 H   0  0  0  0  0  0  0  0  0  0  0  0  # atno 11005 bound_to 11000
  146.3040  140.3905  142.8694 LP  0  0  0  0  0  0  0  0  0  0  0  0  # atno 17320 bound_to 7965
  144.8854  140.7454  143.5960 LP  0  0  0  0  0  0  0  0  0  0  0  0  # atno 17321 bound_to 7965
  139.9306  144.6744  150.8367 LP  0  0  0  0  0  0  0  0  0  0  0  0  # atno 17342 bound_to 10162
  140.7667  143.3311  151.2407 LP  0  0  0  0  0  0  0  0  0  0  0  0  # atno 17343 bound_to 10162
  157.3780  130.7216  149.6610 LP  0  0  0  0  0  0  0  0  0  0  0  0  # atno 17370 bound_to 10713
  155.9702  130.4180  150.4307 LP  0  0  0  0  0  0  0  0  0  0  0  0  # atno 17371 bound_to 10713
  140.6676  134.4902  157.5586 LP  0  0  0  0  0  0  0  0  0  0  0  0  # atno 17394 bound_to 11000
  139.9109  134.8346  156.1531 LP  0  0  0  0  0  0  0  0  0  0  0  0  # atno 17395 bound_to 11000

$$$$
