AV-unprocessed.smi:3058|AV-procd|sdf|11676|dock1
  -GOLD-   2272017 83D 1   1.00000     0.00000
 Structure written by MMmdl.
 39 41  0  0  0  0  0  0  0  0  2 V2000
  152.5089  140.4480  159.0901 O   0  0  0  0  0  0  0  0  0  0  0  0
  152.8563  141.3420  159.8624 C   0  0  0  0  0  0  0  0  0  0  0  0
  153.8423  141.1885  160.7613 N   0  0  0  0  0  0  0  0  0  0  0  0
  154.6673  139.9924  160.9206 C   0  0  0  0  0  0  0  0  0  0  0  0
  155.2603  139.8742  162.3392 C   0  0  0  0  0  0  0  0  0  0  0  0
  154.9885  138.5355  163.0049 C   0  0  0  0  0  0  0  0  0  0  0  0
  154.2744  137.5235  162.3249 C   0  0  0  0  0  0  0  0  0  0  0  0
  154.0027  136.3066  162.9833 C   0  0  0  0  0  0  0  0  0  0  0  0
  154.4537  136.1270  164.3069 C   0  0  0  0  0  0  0  0  0  0  0  0
  155.1377  137.1153  164.9241 N   0  3  0  0  0  0  0  0  0  0  0  0
  155.4187  138.2947  164.3278 C   0  0  0  0  0  0  0  0  0  0  0  0
  152.1902  142.7278  159.8155 C   0  0  1  0  0  0  0  0  0  0  0  0
  153.0954  143.8112  159.1773 C   0  0  0  0  0  0  0  0  0  0  0  0
  152.2166  144.3858  158.0488 C   0  0  2  0  0  0  0  0  0  0  0  0
  151.0437  145.1739  158.6631 C   0  0  0  0  0  0  0  0  0  0  0  0
  150.1430  144.0579  159.2278 C   0  0  0  0  0  0  0  0  0  0  0  0
  150.9418  142.7819  158.8983 C   0  0  1  0  0  0  0  0  0  0  0  0
  151.5147  143.1399  157.5268 C   0  0  0  0  0  0  0  0  0  0  0  0
  154.0577  141.9713  161.3622 H   0  0  0  0  0  0  0  0  0  0  0  0
  154.0477  139.1203  160.7112 H   0  0  0  0  0  0  0  0  0  0  0  0
  155.4669  139.9781  160.1780 H   0  0  0  0  0  0  0  0  0  0  0  0
  156.3377  140.0400  162.2994 H   0  0  0  0  0  0  0  0  0  0  0  0
  154.8569  140.6667  162.9705 H   0  0  0  0  0  0  0  0  0  0  0  0
  153.9255  137.6812  161.3147 H   0  0  0  0  0  0  0  0  0  0  0  0
  153.4517  135.5244  162.4819 H   0  0  0  0  0  0  0  0  0  0  0  0
  154.2879  135.2305  164.8865 H   0  0  0  0  0  0  0  0  0  0  0  0
  155.9606  139.0107  164.9285 H   0  0  0  0  0  0  0  0  0  0  0  0
  151.9172  143.0169  160.8320 H   0  0  0  0  0  0  0  0  0  0  0  0
  153.3861  144.5770  159.8973 H   0  0  0  0  0  0  0  0  0  0  0  0
  154.0144  143.3921  158.7633 H   0  0  0  0  0  0  0  0  0  0  0  0
  152.7765  144.9472  157.3002 H   0  0  0  0  0  0  0  0  0  0  0  0
  151.3745  145.8727  159.4327 H   0  0  0  0  0  0  0  0  0  0  0  0
  150.5136  145.7436  157.8989 H   0  0  0  0  0  0  0  0  0  0  0  0
  149.9542  144.1721  160.2959 H   0  0  0  0  0  0  0  0  0  0  0  0
  149.1782  144.0517  158.7189 H   0  0  0  0  0  0  0  0  0  0  0  0
  150.3352  141.8754  158.9151 H   0  0  0  0  0  0  0  0  0  0  0  0
  150.7471  143.3575  156.7817 H   0  0  0  0  0  0  0  0  0  0  0  0
  152.1996  142.3979  157.1162 H   0  0  0  0  0  0  0  0  0  0  0  0
  155.4513  136.9667  165.8837 H   0  0  0  0  0  0  0  0  0  0  0  0
  1  2  2  0  0  0  0
  2  3  1  0  0  0  0
  2 12  1  0  0  0  0
  3  4  1  0  0  0  0
  3 19  1  0  0  0  0
  4  5  1  0  0  0  0
  4 20  1  0  0  0  0
  4 21  1  0  0  0  0
  5  6  1  0  0  0  0
  5 22  1  0  0  0  0
  5 23  1  0  0  0  0
  6 11  1  0  0  0  0
  6  7  2  0  0  0  0
  7  8  1  0  0  0  0
  7 24  1  0  0  0  0
  8  9  2  0  0  0  0
  8 25  1  0  0  0  0
  9 10  1  0  0  0  0
  9 26  1  0  0  0  0
 10 11  2  0  0  0  0
 10 39  1  0  0  0  0
 11 27  1  0  0  0  0
 12 17  1  0  0  0  0
 12 13  1  0  0  0  0
 12 28  1  0  0  0  0
 13 14  1  0  0  0  0
 13 29  1  0  0  0  0
 13 30  1  0  0  0  0
 14 18  1  0  0  0  0
 14 15  1  0  0  0  0
 14 31  1  0  0  0  0
 15 16  1  0  0  0  0
 15 32  1  0  0  0  0
 15 33  1  0  0  0  0
 16 17  1  0  0  0  0
 16 34  1  0  0  0  0
 16 35  1  0  0  0  0
 17 18  1  0  0  0  0
 17 36  1  0  0  0  0
 18 37  1  0  0  0  0
 18 38  1  0  0  0  0
M  CHG  1  10   1
M  END
> <s_m_source_file>
AV-unprocessed.smi

> <i_m_source_file_index>
3058

> <i_lp_mmshare_version>
43012

> <i_f3d_flags>
0

> <s_epik_input>
W0NIMl0xW0NIMl1bQ0BIXShbQ0gyXTIpW0NAQEhdKFtDSDJdW0NAQEhdMTIpQyg9TylbTkhdW0NIMl1bQ0gyXWMzW2NIXVtjSF1bY0hdbltjSF0z

> <s_epik_cmdline>
J2VwaWtfcHl0aG9uJywgJy1waCcsICc3LjAnLCAnLXRuJywgJzgnLCAnLW1hJywgJzIwMCcsICctbWV0YWxfYmluZGluZycsICctaW1hZScsICc8aW5maWxlLm1hZT4nLCAnLW9tYWUnLCAnPG91dGZpbGUubWFlPic=

> <r_epik_Ionization_Penalty>
2.24375

> <r_epik_Ionization_Penalty_Charging>
2.24375

> <r_epik_Ionization_Penalty_Neutral>
1.89995e-08

> <r_epik_State_Penalty>
2.39035

> <r_epik_Charging_Adjusted_Penalty>
4.63411

> <i_epik_Tot_Q>
1

> <i_epik_Tot_abs_Q>
1

> <r_epik_Metal_State_Penalty>
2.40369

> <b_epik_Metal_Only>
0

> <s_lp_Force_Field>
OPLS_2005

> <r_lp_Energy>
53.8629

> <b_lp_Chiralities_Consistent>
1

> <s_lp_Variant>
AV-unprocessed.smi:3058-8

> <Gold.Version>
5.8.1

> <Gold.Id.Protein>
6NUR|6NUR_protein|mol2

> <Gold.PLP.Fitness>
41.9577

> <Gold.PLP.PLP>
-43.4485

> <Gold.PLP.part.hbond>
-0.5076

> <Gold.PLP.part.metal>
0.0000

> <Gold.PLP.part.buried>
-6.0939

> <Gold.PLP.part.nonpolar>
-36.9682

> <Gold.PLP.part.repulsive>
0.1380

> <Gold.PLP.ligand.clash>
0.0000

> <Gold.PLP.ligand.torsion>
0.7650

> <Gold.PLP.Chemscore.Hbond>
0.0000

> <Gold.PLP.Chemscore.CHOScore>
0.0000

> <Gold.PLP.Chemscore.Metal>
0.0000

> <Gold.PLP.Chemscore.Internal.Correction>
0.0392

> <Gold.Rescore>
     Score         DG    S(hbond)    S(metal)    S(lipo)     H(rot)  DE(clash)    DE(int)     intcor
     16.22     -17.08       0.00        0.00     130.98       1.45       0.12       0.73       ----

> <Gold.Chemscore.Fitness>
16.2227

> <Gold.Chemscore.DG>
-17.0799

> <Gold.Chemscore.ZeroCoef>
-5.4800

> <Gold.Chemscore.Hbond>
0.0000

> <Gold.Chemscore.Metal>
0.0000

> <Gold.Chemscore.Lipo>
130.9754

> <Gold.Chemscore.Internal_Hbond>
0.0000

> <Gold.Chemscore.DEClash>
0.1241

> <Gold.Chemscore.DEInternal>
0.7332

> <Gold.Chemscore.Rot>
1.4548

> <Gold.Chemscore.Internal.Correction>
   9.000000E+99

> <Gold.Chemscore.Hbond.Weighted>
-0.0000

> <Gold.Chemscore.Metal.Weighted>
-0.0000

> <Gold.Chemscore.Lipo.Weighted>
-15.3241

> <Gold.Chemscore.Internal_Hbond.Weighted>
0.0000

> <Gold.Chemscore.DEClash.Weighted>
0.1241

> <Gold.Chemscore.DEInternal.Weighted>
0.7332

> <Gold.Chemscore.Rot.Weighted>
3.7242

> <Gold.Chemscore.Internal.Correction.Weighted>
   9.000000E+99

> <Gold.Protein.RotatedTorsions>
[ 6907 6896 6895 6894 ] final  142.96 input  -60.11 | X-H torsion
[ 7974 7965 7964 7962 ] final   78.03 input  175.53 | X-H torsion
[ 8008 7997 7996 7995 ] final  128.25 input   59.86 | X-H torsion
[ 10167 10162 10161 10158 ] final  139.30 input  -65.29 | X-H torsion
[ 10718 10713 10712 10709 ] final   46.45 input   66.30 | X-H torsion
[ 10763 10752 10751 10750 ] final  -44.40 input  -60.55 | X-H torsion
[ 11005 11000 10999 10996 ] final   78.69 input  -57.11 | X-H torsion

> <Gold.Protein.ActiveResidues>
 VAL166  LYS551  ARG553  GLY616  TRP617  ASP618  TYR619  PRO620  LYS621  CYS622 
 ASP623  PHE694  ASN695  SER759  ASP760  ASP761  ALA762  ILE779  LEU786  VAL792 
 PHE793  MET794  SER795  GLU796  ALA797  LYS798  CYS799  TRP800  GLU811  SER814 

> <Gold.Protein.RotatedAtoms>
  152.2123  133.4920  159.5116 H   0  0  0  0  0  0  0  0  0  0  0  0  # atno 6907 bound_to 6896
  150.6993  134.1451  159.4128 H   0  0  0  0  0  0  0  0  0  0  0  0  # atno 6908 bound_to 6896
  151.9371  135.0230  160.0584 H   0  0  0  0  0  0  0  0  0  0  0  0  # atno 6909 bound_to 6896
  145.6823  139.2527  143.1807 H   0  0  0  0  0  0  0  0  0  0  0  0  # atno 7974 bound_to 7965
  156.2910  140.2649  156.2406 H   0  0  0  0  0  0  0  0  0  0  0  0  # atno 8008 bound_to 7997
  154.9981  140.0388  157.2366 H   0  0  0  0  0  0  0  0  0  0  0  0  # atno 8009 bound_to 7997
  154.7626  140.2763  155.6207 H   0  0  0  0  0  0  0  0  0  0  0  0  # atno 8010 bound_to 7997
  139.5083  144.6303  151.5835 H   0  0  0  0  0  0  0  0  0  0  0  0  # atno 10167 bound_to 10162
  157.4482  130.8122  149.7762 H   0  0  0  0  0  0  0  0  0  0  0  0  # atno 10718 bound_to 10713
  154.0115  135.6681  153.4765 H   0  0  0  0  0  0  0  0  0  0  0  0  # atno 10763 bound_to 10752
  153.0619  135.5023  154.8108 H   0  0  0  0  0  0  0  0  0  0  0  0  # atno 10764 bound_to 10752
  154.6993  135.3076  154.9329 H   0  0  0  0  0  0  0  0  0  0  0  0  # atno 10765 bound_to 10752
  139.9202  134.7784  156.1682 H   0  0  0  0  0  0  0  0  0  0  0  0  # atno 11005 bound_to 11000
  146.0953  140.7608  142.9575 LP  0  0  0  0  0  0  0  0  0  0  0  0  # atno 17320 bound_to 7965
  144.7022  140.3702  143.7147 LP  0  0  0  0  0  0  0  0  0  0  0  0  # atno 17321 bound_to 7965
  140.6033  143.9570  150.6401 LP  0  0  0  0  0  0  0  0  0  0  0  0  # atno 17342 bound_to 10162
  140.2788  143.3404  152.1170 LP  0  0  0  0  0  0  0  0  0  0  0  0  # atno 17343 bound_to 10162
  155.9976  130.3899  150.2734 LP  0  0  0  0  0  0  0  0  0  0  0  0  # atno 17370 bound_to 10713
  157.0903  131.0168  151.3124 LP  0  0  0  0  0  0  0  0  0  0  0  0  # atno 17371 bound_to 10713
  141.0716  133.6794  156.2152 LP  0  0  0  0  0  0  0  0  0  0  0  0  # atno 17394 bound_to 11000
  140.6497  134.5080  157.5576 LP  0  0  0  0  0  0  0  0  0  0  0  0  # atno 17395 bound_to 11000

$$$$
