AV-unprocessed.smi:2830|AV-procd|sdf|10907|dock2
  -GOLD-   2272015353D 1   1.00000     0.00000
 Structure written by MMmdl.
 28 28  0  0  0  0  0  0  0  0  1 V2000
  144.1071  132.1523  150.4594 C   0  0  0  0  0  0  0  0  0  0  0  0
  145.4287  132.3927  150.0095 O   0  0  0  0  0  0  0  0  0  0  0  0
  146.1135  133.3432  150.8102 C   0  0  0  0  0  0  0  0  0  0  0  0
  146.8747  132.6061  151.9270 C   0  0  1  0  0  0  0  0  0  0  0  0
  147.8436  133.5112  152.5425 N   0  0  0  0  0  0  0  0  0  0  0  0
  148.5806  133.1614  153.6843 C   0  0  0  0  0  0  0  0  0  0  0  0
  149.1538  134.1954  154.4546 C   0  0  0  0  0  0  0  0  0  0  0  0
  149.8960  133.8578  155.6032 C   0  0  0  0  0  0  0  0  0  0  0  0
  150.0404  132.4980  155.9414 C   0  0  0  0  0  0  0  0  0  0  0  0
  150.7950  132.0985  157.1168 C   0  0  0  0  0  0  0  0  0  0  0  0
  151.3960  131.7804  158.0529 N   0  0  0  0  0  0  0  0  0  0  0  0
  149.4337  131.5348  155.1101 C   0  0  0  0  0  0  0  0  0  0  0  0
  148.7223  131.8533  154.0074 N   0  0  0  0  0  0  0  0  0  0  0  0
  145.8723  132.0149  152.9313 C   0  0  0  0  0  0  0  0  0  0  0  0
  145.0516  132.8709  153.5457 N   0  0  0  0  0  0  0  0  0  0  0  0
  145.8476  130.8069  153.1617 O   0  0  0  0  0  0  0  0  0  0  0  0
  143.6291  131.4161  149.8131 H   0  0  0  0  0  0  0  0  0  0  0  0
  143.5088  133.0640  150.4314 H   0  0  0  0  0  0  0  0  0  0  0  0
  144.1016  131.7602  151.4774 H   0  0  0  0  0  0  0  0  0  0  0  0
  146.7995  133.9352  150.2009 H   0  0  0  0  0  0  0  0  0  0  0  0
  145.3814  134.0323  151.2363 H   0  0  0  0  0  0  0  0  0  0  0  0
  147.4152  131.7791  151.4626 H   0  0  0  0  0  0  0  0  0  0  0  0
  147.8794  134.4630  152.2080 H   0  0  0  0  0  0  0  0  0  0  0  0
  149.0277  135.2310  154.1743 H   0  0  0  0  0  0  0  0  0  0  0  0
  150.3427  134.6328  156.2093 H   0  0  0  0  0  0  0  0  0  0  0  0
  149.5179  130.4803  155.3301 H   0  0  0  0  0  0  0  0  0  0  0  0
  144.3816  132.5310  154.2203 H   0  0  0  0  0  0  0  0  0  0  0  0
  145.1108  133.8573  153.3387 H   0  0  0  0  0  0  0  0  0  0  0  0
  1  2  1  0  0  0  0
  1 17  1  0  0  0  0
  1 18  1  0  0  0  0
  1 19  1  0  0  0  0
  2  3  1  0  0  0  0
  3  4  1  0  0  0  0
  3 20  1  0  0  0  0
  3 21  1  0  0  0  0
  4  5  1  0  0  0  0
  4 14  1  0  0  0  0
  4 22  1  0  0  0  0
  5  6  1  0  0  0  0
  5 23  1  0  0  0  0
  6 13  1  0  0  0  0
  6  7  2  0  0  0  0
  7  8  1  0  0  0  0
  7 24  1  0  0  0  0
  8  9  2  0  0  0  0
  8 25  1  0  0  0  0
  9 10  1  0  0  0  0
  9 12  1  0  0  0  0
 10 11  3  0  0  0  0
 12 13  2  0  0  0  0
 12 26  1  0  0  0  0
 14 15  1  0  0  0  0
 14 16  2  0  0  0  0
 15 27  1  0  0  0  0
 15 28  1  0  0  0  0
M  END
> <s_m_source_file>
AV-unprocessed.smi

> <i_m_source_file_index>
2830

> <i_lp_mmshare_version>
43012

> <i_f3d_flags>
0

> <s_epik_input>
W0NIM11PW0NIMl1bQ0BASF0oQyg9TylbTkgyXSlbTkhdYzFbY0hdW2NIXWMoQyNOKVtjSF1uMQ==

> <s_epik_cmdline>
J2VwaWtfcHl0aG9uJywgJy1waCcsICc3LjAnLCAnLXRuJywgJzgnLCAnLW1hJywgJzIwMCcsICctbWV0YWxfYmluZGluZycsICctaW1hZScsICc8aW5maWxlLm1hZT4nLCAnLW9tYWUnLCAnPG91dGZpbGUubWFlPic=

> <r_lp_tautomer_probability>
1

> <r_epik_Ionization_Penalty>
4.37908e-06

> <r_epik_Ionization_Penalty_Charging>
0

> <r_epik_Ionization_Penalty_Neutral>
4.37908e-06

> <r_epik_State_Penalty>
-0

> <r_epik_Charging_Adjusted_Penalty>
0

> <i_epik_Tot_Q>
0

> <i_epik_Tot_abs_Q>
0

> <r_epik_Metal_State_Penalty>
-0

> <b_epik_Metal_Only>
0

> <s_lp_Force_Field>
OPLS_2005

> <r_lp_Energy>
3.76959

> <b_lp_Chiralities_Consistent>
1

> <s_lp_Variant>
AV-unprocessed.smi:2830-2

> <Gold.Version>
5.8.1

> <Gold.Id.Protein>
6NUR|6NUR_protein|mol2

> <Gold.PLP.Fitness>
33.5819

> <Gold.PLP.PLP>
-25.4964

> <Gold.PLP.part.hbond>
-3.0000

> <Gold.PLP.part.metal>
0.0000

> <Gold.PLP.part.buried>
-3.1824

> <Gold.PLP.part.nonpolar>
-20.3867

> <Gold.PLP.part.repulsive>
0.4223

> <Gold.PLP.ligand.clash>
0.0000

> <Gold.PLP.ligand.torsion>
0.4513

> <Gold.PLP.Chemscore.Hbond>
2.9833

> <Gold.PLP.Chemscore.CHOScore>
0.0000

> <Gold.PLP.Chemscore.Metal>
0.0000

> <Gold.Chemscore.Hbonds>
donor molecule, donor type, donor heavy atom, donor atom, acceptor molecule, acceptor atom, score
      L1  H     5    23       P1  7948  0.95
      L1  H    15    27       P1 10957  1.00
      P1  H  6896  6907       L1    11  1.00

> <Gold.PLP.Chemscore.Internal.Correction>
0.0384

> <Gold.Rescore>
     Score         DG    S(hbond)    S(metal)    S(lipo)     H(rot)  DE(clash)    DE(int)     intcor
     12.00     -12.64       2.50        0.00      40.64       2.32       0.04       0.60       ----

> <Gold.Chemscore.Fitness>
12.0006

> <Gold.Chemscore.DG>
-12.6388

> <Gold.Chemscore.ZeroCoef>
-5.4800

> <Gold.Chemscore.Hbond>
2.4978

> <Gold.Chemscore.Metal>
0.0000

> <Gold.Chemscore.Lipo>
40.6373

> <Gold.Chemscore.Internal_Hbond>
0.0000

> <Gold.Chemscore.DEClash>
0.0396

> <Gold.Chemscore.DEInternal>
0.5986

> <Gold.Chemscore.Rot>
2.3197

> <Gold.Chemscore.Internal.Correction>
   9.000000E+99

> <Gold.Chemscore.Hbonds>
donor molecule, donor type, donor heavy atom, donor atom, acceptor molecule, acceptor atom, score
      L1  H     5    23       P1  7948  0.30
      L1  H    15    27       P1 10957  0.72
      P1  H  6896  6907       L1    11  0.81

> <Gold.Chemscore.Hbond.Weighted>
-8.3426

> <Gold.Chemscore.Metal.Weighted>
-0.0000

> <Gold.Chemscore.Lipo.Weighted>
-4.7546

> <Gold.Chemscore.Internal_Hbond.Weighted>
0.0000

> <Gold.Chemscore.DEClash.Weighted>
0.0396

> <Gold.Chemscore.DEInternal.Weighted>
0.5986

> <Gold.Chemscore.Rot.Weighted>
5.9384

> <Gold.Chemscore.Internal.Correction.Weighted>
   9.000000E+99

> <Gold.Protein.RotatedTorsions>
[ 6907 6896 6895 6894 ] final  178.29 input  -60.11 | X-H torsion
[ 7974 7965 7964 7962 ] final  -69.44 input  175.53 | X-H torsion
[ 8008 7997 7996 7995 ] final   24.84 input   59.86 | X-H torsion
[ 10167 10162 10161 10158 ] final -111.76 input  -65.29 | X-H torsion
[ 10718 10713 10712 10709 ] final  -63.65 input   66.30 | X-H torsion
[ 10763 10752 10751 10750 ] final  -20.87 input  -60.55 | X-H torsion
[ 11005 11000 10999 10996 ] final   37.83 input  -57.11 | X-H torsion

> <Gold.Protein.ActiveResidues>
 VAL166  LYS551  ARG553  GLY616  TRP617  ASP618  TYR619  PRO620  LYS621  CYS622 
 ASP623  PHE694  ASN695  SER759  ASP760  ASP761  ALA762  ILE779  LEU786  VAL792 
 PHE793  MET794  SER795  GLU796  ALA797  LYS798  CYS799  TRP800  GLU811  SER814 

> <Gold.Protein.RotatedAtoms>
  151.6902  133.3311  159.3240 H   0  0  0  0  0  0  0  0  0  0  0  0  # atno 6907 bound_to 6896
  150.7782  134.6705  159.6398 H   0  0  0  0  0  0  0  0  0  0  0  0  # atno 6908 bound_to 6896
  152.3831  134.6562  160.0187 H   0  0  0  0  0  0  0  0  0  0  0  0  # atno 6909 bound_to 6896
  145.7038  140.9106  143.0717 H   0  0  0  0  0  0  0  0  0  0  0  0  # atno 7974 bound_to 7965
  155.0025  140.3127  155.4861 H   0  0  0  0  0  0  0  0  0  0  0  0  # atno 8008 bound_to 7997
  156.2922  140.2229  156.5077 H   0  0  0  0  0  0  0  0  0  0  0  0  # atno 8009 bound_to 7997
  154.7605  140.0459  157.0958 H   0  0  0  0  0  0  0  0  0  0  0  0  # atno 8010 bound_to 7997
  140.1301  143.4368  152.1633 H   0  0  0  0  0  0  0  0  0  0  0  0  # atno 10167 bound_to 10162
  156.0778  130.4223  150.1308 H   0  0  0  0  0  0  0  0  0  0  0  0  # atno 10718 bound_to 10713
  153.6272  135.6990  153.5289 H   0  0  0  0  0  0  0  0  0  0  0  0  # atno 10763 bound_to 10752
  153.2889  135.4163  155.1148 H   0  0  0  0  0  0  0  0  0  0  0  0  # atno 10764 bound_to 10752
  154.8530  135.3620  154.5814 H   0  0  0  0  0  0  0  0  0  0  0  0  # atno 10765 bound_to 10752
  140.2186  134.3668  155.8015 H   0  0  0  0  0  0  0  0  0  0  0  0  # atno 11005 bound_to 11000
  144.6961  139.8983  143.7457 LP  0  0  0  0  0  0  0  0  0  0  0  0  # atno 17320 bound_to 7965
  146.0774  139.3762  143.0485 LP  0  0  0  0  0  0  0  0  0  0  0  0  # atno 17321 bound_to 7965
  139.5524  144.7347  151.4395 LP  0  0  0  0  0  0  0  0  0  0  0  0  # atno 17342 bound_to 10162
  140.6822  143.8056  150.7137 LP  0  0  0  0  0  0  0  0  0  0  0  0  # atno 17343 bound_to 10162
  156.9345  130.9724  151.3527 LP  0  0  0  0  0  0  0  0  0  0  0  0  # atno 17370 bound_to 10713
  157.5881  130.8424  149.8619 LP  0  0  0  0  0  0  0  0  0  0  0  0  # atno 17371 bound_to 10713
  141.2224  133.7181  156.8538 LP  0  0  0  0  0  0  0  0  0  0  0  0  # atno 17394 bound_to 11000
  140.1874  134.8990  157.3020 LP  0  0  0  0  0  0  0  0  0  0  0  0  # atno 17395 bound_to 11000

$$$$
