AV-unprocessed.smi:1978|AV-procd|sdf|8015|dock3
  -GOLD-   2272010203D 1   1.00000     0.00000
 Structure written by MMmdl.
 44 45  0  0  0  0  0  0  0  0  3 V2000
  151.9307  144.7393  159.8187 C   0  0  0  0  0  0  0  0  0  0  0  0
  151.8094  143.4819  159.0284 C   0  0  0  0  0  0  0  0  0  0  0  0
  151.3743  143.2190  157.7603 C   0  0  0  0  0  0  0  0  0  0  0  0
  151.5210  141.8102  157.6558 C   0  0  0  0  0  0  0  0  0  0  0  0
  151.1594  141.1324  156.4617 N   0  0  0  0  0  0  0  0  0  0  0  0
  151.7963  140.1240  155.8389 C   0  0  0  0  0  0  0  0  0  0  0  0
  152.8625  139.6870  156.2875 O   0  0  0  0  0  0  0  0  0  0  0  0
  151.1270  139.7005  154.7320 N   0  5  0  0  0  0  0  0  0  0  0  0
  150.9174  138.3005  154.3614 C   0  0  0  0  0  0  0  0  0  0  0  0
  149.5137  137.8281  154.8187 C   0  0  1  0  0  0  0  0  0  0  0  0
  148.3526  138.7001  154.2690 C   0  0  0  0  0  0  0  0  0  0  0  0
  149.3554  136.3681  154.5245 N   0  3  2  0  0  0  0  0  0  0  0  0
  148.1111  135.7138  155.0280 C   0  0  0  0  0  0  0  0  0  0  0  0
  147.9203  134.3291  154.3895 C   0  0  0  0  0  0  0  0  0  0  0  0
  149.1468  133.4395  154.6240 C   0  0  0  0  0  0  0  0  0  0  0  0
  150.4125  134.1465  154.1183 C   0  0  0  0  0  0  0  0  0  0  0  0
  150.5863  135.5473  154.7419 C   0  0  2  0  0  0  0  0  0  0  0  0
  151.0292  135.4816  156.2185 C   0  0  0  0  0  0  0  0  0  0  0  0
  152.0067  141.2636  158.7608 N   0  0  0  0  0  0  0  0  0  0  0  0
  152.1941  142.3321  159.6456 O   0  0  0  0  0  0  0  0  0  0  0  0
  151.5069  145.5839  159.2750 H   0  0  0  0  0  0  0  0  0  0  0  0
  152.9763  144.9634  160.0300 H   0  0  0  0  0  0  0  0  0  0  0  0
  151.4034  144.6506  160.7687 H   0  0  0  0  0  0  0  0  0  0  0  0
  151.0064  143.9219  157.0277 H   0  0  0  0  0  0  0  0  0  0  0  0
  150.2978  141.4359  156.0332 H   0  0  0  0  0  0  0  0  0  0  0  0
  151.0142  138.1486  153.2862 H   0  0  0  0  0  0  0  0  0  0  0  0
  151.6608  137.6418  154.8135 H   0  0  0  0  0  0  0  0  0  0  0  0
  149.5013  137.9386  155.9043 H   0  0  0  0  0  0  0  0  0  0  0  0
  148.4179  139.7305  154.6234 H   0  0  0  0  0  0  0  0  0  0  0  0
  147.3848  138.3254  154.6004 H   0  0  0  0  0  0  0  0  0  0  0  0
  148.3285  138.7375  153.1786 H   0  0  0  0  0  0  0  0  0  0  0  0
  148.1388  135.6205  156.1137 H   0  0  0  0  0  0  0  0  0  0  0  0
  147.2440  136.3294  154.7872 H   0  0  0  0  0  0  0  0  0  0  0  0
  147.0291  133.8504  154.7963 H   0  0  0  0  0  0  0  0  0  0  0  0
  147.7490  134.4416  153.3180 H   0  0  0  0  0  0  0  0  0  0  0  0
  149.2427  133.2099  155.6857 H   0  0  0  0  0  0  0  0  0  0  0  0
  149.0208  132.4854  154.1113 H   0  0  0  0  0  0  0  0  0  0  0  0
  151.2908  133.5313  154.3164 H   0  0  0  0  0  0  0  0  0  0  0  0
  150.3526  134.2445  153.0334 H   0  0  0  0  0  0  0  0  0  0  0  0
  151.3948  136.0283  154.1892 H   0  0  0  0  0  0  0  0  0  0  0  0
  151.9239  134.8676  156.3242 H   0  0  0  0  0  0  0  0  0  0  0  0
  150.2632  135.0525  156.8634 H   0  0  0  0  0  0  0  0  0  0  0  0
  151.2781  136.4683  156.6075 H   0  0  0  0  0  0  0  0  0  0  0  0
  149.2475  136.3584  153.5199 H   0  0  0  0  0  0  0  0  0  0  0  0
  1  2  1  0  0  0  0
  1 21  1  0  0  0  0
  1 22  1  0  0  0  0
  1 23  1  0  0  0  0
  2 20  1  0  0  0  0
  2  3  2  0  0  0  0
  3  4  1  0  0  0  0
  3 24  1  0  0  0  0
  4  5  1  0  0  0  0
  4 19  2  0  0  0  0
  5  6  1  0  0  0  0
  5 25  1  0  0  0  0
  6  7  2  0  0  0  0
  6  8  1  0  0  0  0
  8  9  1  0  0  0  0
  9 10  1  0  0  0  0
  9 26  1  0  0  0  0
  9 27  1  0  0  0  0
 10 11  1  0  0  0  0
 10 12  1  0  0  0  0
 10 28  1  0  0  0  0
 11 29  1  0  0  0  0
 11 30  1  0  0  0  0
 11 31  1  0  0  0  0
 12 17  1  0  0  0  0
 12 13  1  0  0  0  0
 12 44  1  0  0  0  0
 13 14  1  0  0  0  0
 13 32  1  0  0  0  0
 13 33  1  0  0  0  0
 14 15  1  0  0  0  0
 14 34  1  0  0  0  0
 14 35  1  0  0  0  0
 15 16  1  0  0  0  0
 15 36  1  0  0  0  0
 15 37  1  0  0  0  0
 16 17  1  0  0  0  0
 16 38  1  0  0  0  0
 16 39  1  0  0  0  0
 17 18  1  0  0  0  0
 17 40  1  0  0  0  0
 18 41  1  0  0  0  0
 18 42  1  0  0  0  0
 18 43  1  0  0  0  0
 19 20  1  0  0  0  0
M  CHG  1   8  -1
M  CHG  1  12   1
M  END
> <s_m_source_file>
AV-unprocessed.smi

> <i_m_source_file_index>
1978

> <i_lp_mmshare_version>
43012

> <i_f3d_flags>
0

> <s_epik_input>
W0NIM11jMVtjSF1jKG5vMSlbTkhdQyg9TylbTkhdW0NIMl1bQ0BIXShbQ0gzXSlOMltDSDJdW0NIMl1bQ0gyXVtDSDJdW0NASF0yW0NIM10=

> <s_epik_cmdline>
J2VwaWtfcHl0aG9uJywgJy1waCcsICc3LjAnLCAnLXRuJywgJzgnLCAnLW1hJywgJzIwMCcsICctbWV0YWxfYmluZGluZycsICctaW1hZScsICc8aW5maWxlLm1hZT4nLCAnLW9tYWUnLCAnPG91dGZpbGUubWFlPic=

> <r_epik_Ionization_Penalty>
6.7666

> <r_epik_Ionization_Penalty_Charging>
6.7666

> <r_epik_Ionization_Penalty_Neutral>
5.77131e-06

> <r_epik_State_Penalty>
6.79217

> <r_epik_Charging_Adjusted_Penalty>
13.5588

> <i_epik_Tot_Q>
0

> <i_epik_Tot_abs_Q>
2

> <r_epik_Metal_State_Penalty>
2.72569

> <b_epik_Metal_Only>
1

> <s_lp_Force_Field>
OPLS_2005

> <r_lp_Energy>
20.871

> <b_lp_Chiralities_Consistent>
1

> <s_lp_Variant>
AV-unprocessed.smi:1978-24

> <Gold.Version>
5.8.1

> <Gold.Id.Protein>
6NUR|6NUR_protein|mol2

> <Gold.PLP.Fitness>
44.3355

> <Gold.PLP.PLP>
-34.1017

> <Gold.PLP.part.hbond>
-3.0000

> <Gold.PLP.part.metal>
0.0000

> <Gold.PLP.part.buried>
-6.2565

> <Gold.PLP.part.nonpolar>
-26.5481

> <Gold.PLP.part.repulsive>
0.1929

> <Gold.PLP.ligand.clash>
0.0000

> <Gold.PLP.ligand.torsion>
1.0165

> <Gold.PLP.Chemscore.Hbond>
4.0000

> <Gold.PLP.Chemscore.CHOScore>
0.0000

> <Gold.PLP.Chemscore.Metal>
0.0000

> <Gold.Chemscore.Hbonds>
donor molecule, donor type, donor heavy atom, donor atom, acceptor molecule, acceptor atom, score
      L1  H    12    44       P1  7948  2.00
      P1  H  7989  7998       L1     8  1.00
      P1  H  7997  8010       L1     7  1.00

> <Gold.PLP.Chemscore.Internal.Correction>
0.2668

> <Gold.Rescore>
     Score         DG    S(hbond)    S(metal)    S(lipo)     H(rot)  DE(clash)    DE(int)     intcor
     18.74     -19.91       2.75        0.00      77.98       1.52       0.07       1.09       ----

> <Gold.Chemscore.Fitness>
18.7431

> <Gold.Chemscore.DG>
-19.9091

> <Gold.Chemscore.ZeroCoef>
-5.4800

> <Gold.Chemscore.Hbond>
2.7527

> <Gold.Chemscore.Metal>
0.0000

> <Gold.Chemscore.Lipo>
77.9806

> <Gold.Chemscore.Internal_Hbond>
0.0000

> <Gold.Chemscore.DEClash>
0.0724

> <Gold.Chemscore.DEInternal>
1.0936

> <Gold.Chemscore.Rot>
1.5190

> <Gold.Chemscore.Internal.Correction>
   9.000000E+99

> <Gold.Chemscore.Hbonds>
donor molecule, donor type, donor heavy atom, donor atom, acceptor molecule, acceptor atom, score
      L1  H    12    44       P1  7948  0.90
      P1  H  7989  7998       L1     8  0.38
      P1  H  7997  8010       L1     7  0.94

> <Gold.Chemscore.Hbond.Weighted>
-9.1940

> <Gold.Chemscore.Metal.Weighted>
-0.0000

> <Gold.Chemscore.Lipo.Weighted>
-9.1237

> <Gold.Chemscore.Internal_Hbond.Weighted>
0.0000

> <Gold.Chemscore.DEClash.Weighted>
0.0724

> <Gold.Chemscore.DEInternal.Weighted>
1.0936

> <Gold.Chemscore.Rot.Weighted>
3.8886

> <Gold.Chemscore.Internal.Correction.Weighted>
   9.000000E+99

> <Gold.Protein.RotatedTorsions>
[ 6907 6896 6895 6894 ] final  -91.42 input  -60.11 | X-H torsion
[ 7974 7965 7964 7962 ] final   50.69 input  175.53 | X-H torsion
[ 8008 7997 7996 7995 ] final   81.38 input   59.86 | X-H torsion
[ 10167 10162 10161 10158 ] final  -38.70 input  -65.29 | X-H torsion
[ 10718 10713 10712 10709 ] final -115.04 input   66.30 | X-H torsion
[ 10763 10752 10751 10750 ] final -159.63 input  -60.55 | X-H torsion
[ 11005 11000 10999 10996 ] final -105.96 input  -57.11 | X-H torsion

> <Gold.Protein.ActiveResidues>
 VAL166  LYS551  ARG553  GLY616  TRP617  ASP618  TYR619  PRO620  LYS621  CYS622 
 ASP623  PHE694  ASN695  SER759  ASP760  ASP761  ALA762  ILE779  LEU786  VAL792 
 PHE793  MET794  SER795  GLU796  ALA797  LYS798  CYS799  TRP800  GLU811  SER814 

> <Gold.Protein.RotatedAtoms>
  150.6892  134.2281  159.4423 H   0  0  0  0  0  0  0  0  0  0  0  0  # atno 6907 bound_to 6896
  152.0233  134.9808  160.0580 H   0  0  0  0  0  0  0  0  0  0  0  0  # atno 6908 bound_to 6896
  152.1376  133.4410  159.4788 H   0  0  0  0  0  0  0  0  0  0  0  0  # atno 6909 bound_to 6896
  145.9987  139.4416  143.0028 H   0  0  0  0  0  0  0  0  0  0  0  0  # atno 7974 bound_to 7965
  155.8964  140.3436  155.5994 H   0  0  0  0  0  0  0  0  0  0  0  0  # atno 8008 bound_to 7997
  155.7551  140.0825  157.2201 H   0  0  0  0  0  0  0  0  0  0  0  0  # atno 8009 bound_to 7997
  154.4039  140.1546  156.2756 H   0  0  0  0  0  0  0  0  0  0  0  0  # atno 8010 bound_to 7997
  140.7085  143.3260  151.2678 H   0  0  0  0  0  0  0  0  0  0  0  0  # atno 10167 bound_to 10162
  156.0869  130.6059  150.8854 H   0  0  0  0  0  0  0  0  0  0  0  0  # atno 10718 bound_to 10713
  154.7458  135.3080  154.8647 H   0  0  0  0  0  0  0  0  0  0  0  0  # atno 10763 bound_to 10752
  153.9448  135.6770  153.4748 H   0  0  0  0  0  0  0  0  0  0  0  0  # atno 10764 bound_to 10752
  153.1055  135.4891  154.8870 H   0  0  0  0  0  0  0  0  0  0  0  0  # atno 10765 bound_to 10752
  141.1028  133.8853  157.1798 H   0  0  0  0  0  0  0  0  0  0  0  0  # atno 11005 bound_to 11000
  145.7520  140.9969  143.1245 LP  0  0  0  0  0  0  0  0  0  0  0  0  # atno 17320 bound_to 7965
  144.6912  139.9226  143.7468 LP  0  0  0  0  0  0  0  0  0  0  0  0  # atno 17321 bound_to 7965
  139.6729  143.9989  152.2764 LP  0  0  0  0  0  0  0  0  0  0  0  0  # atno 17342 bound_to 10162
  139.9593  144.6568  150.8095 LP  0  0  0  0  0  0  0  0  0  0  0  0  # atno 17343 bound_to 10162
  157.6007  131.0941  150.8965 LP  0  0  0  0  0  0  0  0  0  0  0  0  # atno 17370 bound_to 10713
  156.9123  130.5285  149.5280 LP  0  0  0  0  0  0  0  0  0  0  0  0  # atno 17371 bound_to 10713
  139.9886  135.0073  156.9921 LP  0  0  0  0  0  0  0  0  0  0  0  0  # atno 17394 bound_to 11000
  140.4979  134.1127  155.7245 LP  0  0  0  0  0  0  0  0  0  0  0  0  # atno 17395 bound_to 11000

$$$$
