AV-unprocessed.smi:2784|AV-procd|sdf|10727|dock7
  -GOLD-   2272015163D 1   1.00000     0.00000
 Structure written by MMmdl.
 31 32  0  0  0  0  0  0  0  0  1 V2000
  148.9982  145.2819  160.4057 C   0  0  0  0  0  0  0  0  0  0  0  0
  149.6142  144.5978  159.3266 O   0  0  0  0  0  0  0  0  0  0  0  0
  150.9589  145.0017  159.0818 C   0  0  1  0  0  0  0  0  0  0  0  0
  151.7455  144.9467  160.3960 C   0  0  0  0  0  0  0  0  0  0  0  0
  152.1142  143.4735  160.5482 C   0  0  0  0  0  0  0  0  0  0  0  0
  152.3904  142.9877  159.1223 C   0  0  0  0  0  0  0  0  0  0  0  0
  151.6663  143.9668  158.1772 C   0  0  1  0  0  0  0  0  0  0  0  0
  150.7489  143.2623  157.2839 N   0  0  0  0  0  0  0  0  0  0  0  0
  151.0059  142.0839  156.6985 C   0  0  0  0  0  0  0  0  0  0  0  0
  152.0544  141.4588  156.8622 O   0  0  0  0  0  0  0  0  0  0  0  0
  149.9823  141.6907  155.9225 N   0  0  0  0  0  0  0  0  0  0  0  0
  149.8944  140.5102  155.1427 C   0  0  0  0  0  0  0  0  0  0  0  0
  148.7814  139.9631  154.6510 N   0  0  0  0  0  0  0  0  0  0  0  0
  149.2174  138.8354  153.9706 C   0  0  0  0  0  0  0  0  0  0  0  0
  150.5814  138.7641  154.0907 C   0  0  0  0  0  0  0  0  0  0  0  0
  151.0264  139.8238  154.8346 O   0  0  0  0  0  0  0  0  0  0  0  0
  147.9823  144.9106  160.5392 H   0  0  0  0  0  0  0  0  0  0  0  0
  148.9386  146.3525  160.2067 H   0  0  0  0  0  0  0  0  0  0  0  0
  149.5356  145.1306  161.3419 H   0  0  0  0  0  0  0  0  0  0  0  0
  150.9871  145.9920  158.6234 H   0  0  0  0  0  0  0  0  0  0  0  0
  152.6556  145.5402  160.2995 H   0  0  0  0  0  0  0  0  0  0  0  0
  151.1944  145.3307  161.2542 H   0  0  0  0  0  0  0  0  0  0  0  0
  152.9628  143.3207  161.2151 H   0  0  0  0  0  0  0  0  0  0  0  0
  151.2653  142.9280  160.9626 H   0  0  0  0  0  0  0  0  0  0  0  0
  153.4622  143.0106  158.9208 H   0  0  0  0  0  0  0  0  0  0  0  0
  152.0645  141.9542  158.9952 H   0  0  0  0  0  0  0  0  0  0  0  0
  152.4243  144.4776  157.5802 H   0  0  0  0  0  0  0  0  0  0  0  0
  149.8666  143.7124  157.0897 H   0  0  0  0  0  0  0  0  0  0  0  0
  149.1810  142.3026  155.8819 H   0  0  0  0  0  0  0  0  0  0  0  0
  148.5297  138.1784  153.4590 H   0  0  0  0  0  0  0  0  0  0  0  0
  151.3305  138.0734  153.7326 H   0  0  0  0  0  0  0  0  0  0  0  0
  1  2  1  0  0  0  0
  1 17  1  0  0  0  0
  1 18  1  0  0  0  0
  1 19  1  0  0  0  0
  2  3  1  0  0  0  0
  3  7  1  0  0  0  0
  3  4  1  0  0  0  0
  3 20  1  0  0  0  0
  4  5  1  0  0  0  0
  4 21  1  0  0  0  0
  4 22  1  0  0  0  0
  5  6  1  0  0  0  0
  5 23  1  0  0  0  0
  5 24  1  0  0  0  0
  6  7  1  0  0  0  0
  6 25  1  0  0  0  0
  6 26  1  0  0  0  0
  7  8  1  0  0  0  0
  7 27  1  0  0  0  0
  8  9  1  0  0  0  0
  8 28  1  0  0  0  0
  9 10  2  0  0  0  0
  9 11  1  0  0  0  0
 11 12  1  0  0  0  0
 11 29  1  0  0  0  0
 12 16  1  0  0  0  0
 12 13  2  0  0  0  0
 13 14  1  0  0  0  0
 14 15  2  0  0  0  0
 14 30  1  0  0  0  0
 15 16  1  0  0  0  0
 15 31  1  0  0  0  0
M  END
> <s_m_source_file>
AV-unprocessed.smi

> <i_m_source_file_index>
2784

> <i_lp_mmshare_version>
43012

> <i_f3d_flags>
0

> <s_epik_input>
W0NIM11PW0NAQEhdMVtDSDJdW0NIMl1bQ0gyXVtDQEhdMVtOSF1DKD1PKVtOSF1jMm5bY0hdW2NIXW8y

> <s_epik_cmdline>
J2VwaWtfcHl0aG9uJywgJy1waCcsICc3LjAnLCAnLXRuJywgJzgnLCAnLW1hJywgJzIwMCcsICctbWV0YWxfYmluZGluZycsICctaW1hZScsICc8aW5maWxlLm1hZT4nLCAnLW9tYWUnLCAnPG91dGZpbGUubWFlPic=

> <r_lp_tautomer_probability>
0.785861

> <r_epik_Ionization_Penalty>
4.58897e-05

> <r_epik_Ionization_Penalty_Charging>
0

> <r_epik_Ionization_Penalty_Neutral>
4.58897e-05

> <r_epik_State_Penalty>
0.0380021

> <r_epik_Charging_Adjusted_Penalty>
0.0380021

> <i_epik_Tot_Q>
0

> <i_epik_Tot_abs_Q>
0

> <r_epik_Metal_State_Penalty>
0.0585611

> <b_epik_Metal_Only>
0

> <s_lp_Force_Field>
OPLS_2005

> <r_lp_Energy>
20.0634

> <b_lp_Chiralities_Consistent>
1

> <s_lp_Variant>
AV-unprocessed.smi:2784-2

> <Gold.Version>
5.8.1

> <Gold.Id.Protein>
6NUR|6NUR_protein|mol2

> <Gold.PLP.Fitness>
38.2129

> <Gold.PLP.PLP>
-30.8955

> <Gold.PLP.part.hbond>
-2.1549

> <Gold.PLP.part.metal>
0.0000

> <Gold.PLP.part.buried>
-1.2014

> <Gold.PLP.part.nonpolar>
-28.1327

> <Gold.PLP.part.repulsive>
0.7762

> <Gold.PLP.ligand.clash>
0.0264

> <Gold.PLP.ligand.torsion>
0.4358

> <Gold.PLP.Chemscore.Hbond>
1.7363

> <Gold.PLP.Chemscore.CHOScore>
0.9980

> <Gold.PLP.Chemscore.Metal>
0.0000

> <Gold.Chemscore.Hbonds>
donor molecule, donor type, donor heavy atom, donor atom, acceptor molecule, acceptor atom, score
      L1  H     8    28       P1  8028  0.85
      P1  H  7989  7998       L1    16  0.90
      L1  C    14    30       P1  7948  0.99

> <Gold.PLP.Chemscore.Internal.Correction>
0.0123

> <Gold.Rescore>
     Score         DG    S(hbond)    S(metal)    S(lipo)     H(rot)  DE(clash)    DE(int)     intcor
     12.16     -16.69       1.52        0.00      81.24       1.32       1.25       3.28       ----

> <Gold.Chemscore.Fitness>
12.1553

> <Gold.Chemscore.DG>
-16.6885

> <Gold.Chemscore.ZeroCoef>
-5.4800

> <Gold.Chemscore.Hbond>
1.5245

> <Gold.Chemscore.Metal>
0.0000

> <Gold.Chemscore.Lipo>
81.2396

> <Gold.Chemscore.Internal_Hbond>
0.0000

> <Gold.Chemscore.DEClash>
1.2536

> <Gold.Chemscore.DEInternal>
3.2797

> <Gold.Chemscore.Rot>
1.3235

> <Gold.Chemscore.Internal.Correction>
   9.000000E+99

> <Gold.Chemscore.Hbonds>
donor molecule, donor type, donor heavy atom, donor atom, acceptor molecule, acceptor atom, score
      L1  H     8    28       P1  8028  0.76
      L1  H    11    29       P1  8028  0.04
      P1  H  7989  7998       L1    16  0.05

> <Gold.Chemscore.Hbond.Weighted>
-5.0917

> <Gold.Chemscore.Metal.Weighted>
-0.0000

> <Gold.Chemscore.Lipo.Weighted>
-9.5050

> <Gold.Chemscore.Internal_Hbond.Weighted>
0.0000

> <Gold.Chemscore.DEClash.Weighted>
1.2536

> <Gold.Chemscore.DEInternal.Weighted>
3.2797

> <Gold.Chemscore.Rot.Weighted>
3.3882

> <Gold.Chemscore.Internal.Correction.Weighted>
   9.000000E+99

> <Gold.Protein.RotatedTorsions>
[ 6907 6896 6895 6894 ] final  -92.29 input  -60.11 | X-H torsion
[ 7974 7965 7964 7962 ] final  -13.99 input  175.53 | X-H torsion
[ 8008 7997 7996 7995 ] final   68.21 input   59.86 | X-H torsion
[ 10167 10162 10161 10158 ] final   -9.91 input  -65.29 | X-H torsion
[ 10718 10713 10712 10709 ] final -160.40 input   66.30 | X-H torsion
[ 10763 10752 10751 10750 ] final   23.93 input  -60.55 | X-H torsion
[ 11005 11000 10999 10996 ] final  145.49 input  -57.11 | X-H torsion

> <Gold.Protein.ActiveResidues>
 VAL166  LYS551  ARG553  GLY616  TRP617  ASP618  TYR619  PRO620  LYS621  CYS622 
 ASP623  PHE694  ASN695  SER759  ASP760  ASP761  ALA762  ILE779  LEU786  VAL792 
 PHE793  MET794  SER795  GLU796  ALA797  LYS798  CYS799  TRP800  GLU811  SER814 

> <Gold.Protein.RotatedAtoms>
  150.6904  134.2145  159.4372 H   0  0  0  0  0  0  0  0  0  0  0  0  # atno 6907 bound_to 6896
  152.0105  134.9876  160.0577 H   0  0  0  0  0  0  0  0  0  0  0  0  # atno 6908 bound_to 6896
  152.1493  133.4477  159.4842 H   0  0  0  0  0  0  0  0  0  0  0  0  # atno 6909 bound_to 6896
  146.2092  140.3283  142.8396 H   0  0  0  0  0  0  0  0  0  0  0  0  # atno 7974 bound_to 7965
  155.7048  140.3495  155.4948 H   0  0  0  0  0  0  0  0  0  0  0  0  # atno 8008 bound_to 7997
  155.9409  140.1101  157.1078 H   0  0  0  0  0  0  0  0  0  0  0  0  # atno 8009 bound_to 7997
  154.4102  140.1213  156.4912 H   0  0  0  0  0  0  0  0  0  0  0  0  # atno 8010 bound_to 7997
  140.7100  143.5805  150.8997 H   0  0  0  0  0  0  0  0  0  0  0  0  # atno 10167 bound_to 10162
  156.5817  130.8732  151.2866 H   0  0  0  0  0  0  0  0  0  0  0  0  # atno 10718 bound_to 10713
  153.0801  135.6616  154.0063 H   0  0  0  0  0  0  0  0  0  0  0  0  # atno 10763 bound_to 10752
  153.9687  135.2967  155.3430 H   0  0  0  0  0  0  0  0  0  0  0  0  # atno 10764 bound_to 10752
  154.7198  135.5169  153.8866 H   0  0  0  0  0  0  0  0  0  0  0  0  # atno 10765 bound_to 10752
  140.0716  134.9148  157.1354 H   0  0  0  0  0  0  0  0  0  0  0  0  # atno 11005 bound_to 11000
  144.8870  140.7475  143.5950 LP  0  0  0  0  0  0  0  0  0  0  0  0  # atno 17320 bound_to 7965
  145.3205  139.1790  143.4590 LP  0  0  0  0  0  0  0  0  0  0  0  0  # atno 17321 bound_to 7965
  139.9531  143.6249  152.3023 LP  0  0  0  0  0  0  0  0  0  0  0  0  # atno 17342 bound_to 10162
  139.6775  144.7658  151.1670 LP  0  0  0  0  0  0  0  0  0  0  0  0  # atno 17343 bound_to 10162
  157.7325  130.9716  150.1931 LP  0  0  0  0  0  0  0  0  0  0  0  0  # atno 17370 bound_to 10713
  156.2626  130.3712  149.8115 LP  0  0  0  0  0  0  0  0  0  0  0  0  # atno 17371 bound_to 10713
  140.3619  134.2485  155.7186 LP  0  0  0  0  0  0  0  0  0  0  0  0  # atno 17394 bound_to 11000
  141.2014  133.7964  157.0443 LP  0  0  0  0  0  0  0  0  0  0  0  0  # atno 17395 bound_to 11000

$$$$
