AV-unprocessed.smi:2355|AV-procd|sdf|9388|dock2
  -GOLD-   2272013 23D 1   1.00000     0.00000
 Structure written by MMmdl.
 48 49  0  0  0  0  0  0  0  0  1 V2000
  152.1089  145.9114  160.3815 C   0  0  0  0  0  0  0  0  0  0  0  0
  152.1171  144.5352  159.7500 C   0  0  0  0  0  0  0  0  0  0  0  0
  152.9006  143.4965  160.2885 C   0  0  0  0  0  0  0  0  0  0  0  0
  152.8637  142.2393  159.6543 C   0  0  0  0  0  0  0  0  0  0  0  0
  153.6779  141.0764  160.1813 C   0  0  0  0  0  0  0  0  0  0  0  0
  152.1149  141.9879  158.5592 N   0  0  0  0  0  0  0  0  0  0  0  0
  151.3572  142.9811  158.0311 C   0  0  0  0  0  0  0  0  0  0  0  0
  150.5398  142.8221  156.8807 N   0  0  0  0  0  0  0  0  0  0  0  0
  150.0035  141.6898  156.3923 C   0  0  0  0  0  0  0  0  0  0  0  0
  150.1196  140.5722  156.8962 O   0  0  0  0  0  0  0  0  0  0  0  0
  149.3154  141.9290  155.2664 N   0  0  0  0  0  0  0  0  0  0  0  0
  148.6358  140.9243  154.4483 C   0  0  1  0  0  0  0  0  0  0  0  0
  149.4944  139.6489  154.3730 C   0  0  0  0  0  0  0  0  0  0  0  0
  147.1762  140.6975  154.9543 C   0  0  1  0  0  0  0  0  0  0  0  0
  147.1934  139.8327  156.2417 C   0  0  0  0  0  0  0  0  0  0  0  0
  146.3999  141.9525  155.1218 N   0  0  0  0  0  0  0  0  0  0  0  0
  146.1606  142.6571  153.8559 C   0  0  0  0  0  0  0  0  0  0  0  0
  145.3360  143.9434  154.0343 C   0  0  0  0  0  0  0  0  0  0  0  0
  144.0989  143.6362  154.6613 O   0  0  0  0  0  0  0  0  0  0  0  0
  144.2834  143.0243  155.9300 C   0  0  0  0  0  0  0  0  0  0  0  0
  145.1014  141.7313  155.7690 C   0  0  0  0  0  0  0  0  0  0  0  0
  151.3361  144.2712  158.6068 C   0  0  0  0  0  0  0  0  0  0  0  0
  152.7833  145.9605  161.2370 H   0  0  0  0  0  0  0  0  0  0  0  0
  151.1048  146.1635  160.7232 H   0  0  0  0  0  0  0  0  0  0  0  0
  152.4239  146.6617  159.6559 H   0  0  0  0  0  0  0  0  0  0  0  0
  153.5128  143.6585  161.1637 H   0  0  0  0  0  0  0  0  0  0  0  0
  154.3364  141.3898  160.9918 H   0  0  0  0  0  0  0  0  0  0  0  0
  154.2939  140.6519  159.3878 H   0  0  0  0  0  0  0  0  0  0  0  0
  153.0184  140.2953  160.5602 H   0  0  0  0  0  0  0  0  0  0  0  0
  150.3533  143.6667  156.3610 H   0  0  0  0  0  0  0  0  0  0  0  0
  149.2790  142.8795  154.9289 H   0  0  0  0  0  0  0  0  0  0  0  0
  148.5873  141.2593  153.4133 H   0  0  0  0  0  0  0  0  0  0  0  0
  148.9693  138.8510  153.8473 H   0  0  0  0  0  0  0  0  0  0  0  0
  149.7778  139.2779  155.3576 H   0  0  0  0  0  0  0  0  0  0  0  0
  150.4203  139.8426  153.8301 H   0  0  0  0  0  0  0  0  0  0  0  0
  146.6755  140.1028  154.1887 H   0  0  0  0  0  0  0  0  0  0  0  0
  147.7898  138.9298  156.1269 H   0  0  0  0  0  0  0  0  0  0  0  0
  146.2009  139.4748  156.5108 H   0  0  0  0  0  0  0  0  0  0  0  0
  147.5917  140.3866  157.0923 H   0  0  0  0  0  0  0  0  0  0  0  0
  147.1004  142.9547  153.3955 H   0  0  0  0  0  0  0  0  0  0  0  0
  145.6548  141.9946  153.1521 H   0  0  0  0  0  0  0  0  0  0  0  0
  145.8849  144.6739  154.6308 H   0  0  0  0  0  0  0  0  0  0  0  0
  145.1398  144.4043  153.0663 H   0  0  0  0  0  0  0  0  0  0  0  0
  144.7840  143.7170  156.6084 H   0  0  0  0  0  0  0  0  0  0  0  0
  143.3073  142.8031  156.3620 H   0  0  0  0  0  0  0  0  0  0  0  0
  144.5219  141.0056  155.1962 H   0  0  0  0  0  0  0  0  0  0  0  0
  145.2341  141.3151  156.7657 H   0  0  0  0  0  0  0  0  0  0  0  0
  150.7279  145.0541  158.1768 H   0  0  0  0  0  0  0  0  0  0  0  0
  1  2  1  0  0  0  0
  1 23  1  0  0  0  0
  1 24  1  0  0  0  0
  1 25  1  0  0  0  0
  2 22  1  0  0  0  0
  2  3  2  0  0  0  0
  3  4  1  0  0  0  0
  3 26  1  0  0  0  0
  4  5  1  0  0  0  0
  4  6  2  0  0  0  0
  5 27  1  0  0  0  0
  5 28  1  0  0  0  0
  5 29  1  0  0  0  0
  6  7  1  0  0  0  0
  7  8  1  0  0  0  0
  7 22  2  0  0  0  0
  8  9  1  0  0  0  0
  8 30  1  0  0  0  0
  9 10  2  0  0  0  0
  9 11  1  0  0  0  0
 11 12  1  0  0  0  0
 11 31  1  0  0  0  0
 12 13  1  0  0  0  0
 12 14  1  0  0  0  0
 12 32  1  0  0  0  0
 13 33  1  0  0  0  0
 13 34  1  0  0  0  0
 13 35  1  0  0  0  0
 14 15  1  0  0  0  0
 14 16  1  0  0  0  0
 14 36  1  0  0  0  0
 15 37  1  0  0  0  0
 15 38  1  0  0  0  0
 15 39  1  0  0  0  0
 16 21  1  0  0  0  0
 16 17  1  0  0  0  0
 17 18  1  0  0  0  0
 17 40  1  0  0  0  0
 17 41  1  0  0  0  0
 18 19  1  0  0  0  0
 18 42  1  0  0  0  0
 18 43  1  0  0  0  0
 19 20  1  0  0  0  0
 20 21  1  0  0  0  0
 20 44  1  0  0  0  0
 20 45  1  0  0  0  0
 21 46  1  0  0  0  0
 21 47  1  0  0  0  0
 22 48  1  0  0  0  0
M  END
> <s_m_source_file>
AV-unprocessed.smi

> <i_m_source_file_index>
2355

> <i_lp_mmshare_version>
43012

> <i_f3d_flags>
0

> <s_epik_input>
W0NIM11jMVtjSF1jKFtDSDNdKW5jKFtjSF0xKVtOSF1DKD1PKVtOSF1bQ0BIXShbQ0gzXSlbQ0BIXShbQ0gzXSlOMltDSDJdW0NIMl1PW0NIMl1bQ0gyXTI=

> <s_epik_cmdline>
J2VwaWtfcHl0aG9uJywgJy1waCcsICc3LjAnLCAnLXRuJywgJzgnLCAnLW1hJywgJzIwMCcsICctbWV0YWxfYmluZGluZycsICctaW1hZScsICc8aW5maWxlLm1hZT4nLCAnLW9tYWUnLCAnPG91dGZpbGUubWFlPic=

> <r_epik_Ionization_Penalty>
0.266238

> <r_epik_Ionization_Penalty_Charging>
0

> <r_epik_Ionization_Penalty_Neutral>
0.266238

> <r_epik_State_Penalty>
0.257924

> <r_epik_Charging_Adjusted_Penalty>
0.257924

> <i_epik_Tot_Q>
0

> <i_epik_Tot_abs_Q>
0

> <r_epik_Metal_State_Penalty>
0.257904

> <b_epik_Metal_Only>
0

> <s_lp_Force_Field>
OPLS_2005

> <r_lp_Energy>
36.8304

> <b_lp_Chiralities_Consistent>
1

> <s_lp_Variant>
AV-unprocessed.smi:2355-4

> <Gold.Version>
5.8.1

> <Gold.Id.Protein>
6NUR|6NUR_protein|mol2

> <Gold.PLP.Fitness>
47.6747

> <Gold.PLP.PLP>
-43.9596

> <Gold.PLP.part.hbond>
-2.0000

> <Gold.PLP.part.metal>
0.0000

> <Gold.PLP.part.buried>
-8.1954

> <Gold.PLP.part.nonpolar>
-36.0855

> <Gold.PLP.part.repulsive>
0.6137

> <Gold.PLP.ligand.clash>
0.0000

> <Gold.PLP.ligand.torsion>
0.6848

> <Gold.PLP.Chemscore.Hbond>
1.6640

> <Gold.PLP.Chemscore.CHOScore>
0.0000

> <Gold.PLP.Chemscore.Metal>
0.0000

> <Gold.Chemscore.Hbonds>
donor molecule, donor type, donor heavy atom, donor atom, acceptor molecule, acceptor atom, score
      L1  H     8    30       P1  8028  0.85
      L1  H    11    31       P1  8028  0.78

> <Gold.PLP.Chemscore.Internal.Correction>
0.0926

> <Gold.Rescore>
     Score         DG    S(hbond)    S(metal)    S(lipo)     H(rot)  DE(clash)    DE(int)     intcor
     16.85     -20.36       1.80        0.00     106.48       1.40       0.13       3.38       ----

> <Gold.Chemscore.Fitness>
16.8477

> <Gold.Chemscore.DG>
-20.3574

> <Gold.Chemscore.ZeroCoef>
-5.4800

> <Gold.Chemscore.Hbond>
1.7984

> <Gold.Chemscore.Metal>
0.0000

> <Gold.Chemscore.Lipo>
106.4843

> <Gold.Chemscore.Internal_Hbond>
0.0000

> <Gold.Chemscore.DEClash>
0.1343

> <Gold.Chemscore.DEInternal>
3.3754

> <Gold.Chemscore.Rot>
1.4015

> <Gold.Chemscore.Internal.Correction>
   9.000000E+99

> <Gold.Chemscore.Hbonds>
donor molecule, donor type, donor heavy atom, donor atom, acceptor molecule, acceptor atom, score
      L1  H     8    30       P1  8028  0.83
      L1  H    11    31       P1  8028  0.74

> <Gold.Chemscore.Hbond.Weighted>
-6.0065

> <Gold.Chemscore.Metal.Weighted>
-0.0000

> <Gold.Chemscore.Lipo.Weighted>
-12.4587

> <Gold.Chemscore.Internal_Hbond.Weighted>
0.0000

> <Gold.Chemscore.DEClash.Weighted>
0.1343

> <Gold.Chemscore.DEInternal.Weighted>
3.3754

> <Gold.Chemscore.Rot.Weighted>
3.5878

> <Gold.Chemscore.Internal.Correction.Weighted>
   9.000000E+99

> <Gold.Protein.RotatedTorsions>
[ 6907 6896 6895 6894 ] final -151.67 input  -60.11 | X-H torsion
[ 7974 7965 7964 7962 ] final   -6.91 input  175.53 | X-H torsion
[ 8008 7997 7996 7995 ] final  -42.73 input   59.86 | X-H torsion
[ 10167 10162 10161 10158 ] final  -94.38 input  -65.29 | X-H torsion
[ 10718 10713 10712 10709 ] final    0.78 input   66.30 | X-H torsion
[ 10763 10752 10751 10750 ] final  -16.47 input  -60.55 | X-H torsion
[ 11005 11000 10999 10996 ] final   30.11 input  -57.11 | X-H torsion

> <Gold.Protein.ActiveResidues>
 VAL166  LYS551  ARG553  GLY616  TRP617  ASP618  TYR619  PRO620  LYS621  CYS622 
 ASP623  PHE694  ASN695  SER759  ASP760  ASP761  ALA762  ILE779  LEU786  VAL792 
 PHE793  MET794  SER795  GLU796  ALA797  LYS798  CYS799  TRP800  GLU811  SER814 

> <Gold.Protein.RotatedAtoms>
  151.2165  133.4526  159.2599 H   0  0  0  0  0  0  0  0  0  0  0  0  # atno 6907 bound_to 6896
  151.0926  134.9925  159.8420 H   0  0  0  0  0  0  0  0  0  0  0  0  # atno 6908 bound_to 6896
  152.5436  134.2097  159.8798 H   0  0  0  0  0  0  0  0  0  0  0  0  # atno 6909 bound_to 6896
  146.2320  140.2241  142.8338 H   0  0  0  0  0  0  0  0  0  0  0  0  # atno 7974 bound_to 7965
  154.3998  140.1466  156.3403 H   0  0  0  0  0  0  0  0  0  0  0  0  # atno 8008 bound_to 7997
  155.8362  140.3464  155.5582 H   0  0  0  0  0  0  0  0  0  0  0  0  # atno 8009 bound_to 7997
  155.8135  140.0887  157.1880 H   0  0  0  0  0  0  0  0  0  0  0  0  # atno 8010 bound_to 7997
  140.3150  143.3082  152.0108 H   0  0  0  0  0  0  0  0  0  0  0  0  # atno 10167 bound_to 10162
  156.8385  130.5513  149.5680 H   0  0  0  0  0  0  0  0  0  0  0  0  # atno 10718 bound_to 10713
  153.5590  135.7010  153.5556 H   0  0  0  0  0  0  0  0  0  0  0  0  # atno 10763 bound_to 10752
  153.3446  135.4012  155.1598 H   0  0  0  0  0  0  0  0  0  0  0  0  # atno 10764 bound_to 10752
  154.8650  135.3750  154.5106 H   0  0  0  0  0  0  0  0  0  0  0  0  # atno 10765 bound_to 10752
  140.2979  134.2790  155.7760 H   0  0  0  0  0  0  0  0  0  0  0  0  # atno 11005 bound_to 11000
  144.9609  140.8274  143.5514 LP  0  0  0  0  0  0  0  0  0  0  0  0  # atno 17320 bound_to 7965
  145.2212  139.2158  143.5092 LP  0  0  0  0  0  0  0  0  0  0  0  0  # atno 17321 bound_to 7965
  139.4886  144.6355  151.6984 LP  0  0  0  0  0  0  0  0  0  0  0  0  # atno 17342 bound_to 10162
  140.5534  144.0387  150.6137 LP  0  0  0  0  0  0  0  0  0  0  0  0  # atno 17343 bound_to 10162
  156.0894  130.5884  150.9705 LP  0  0  0  0  0  0  0  0  0  0  0  0  # atno 17370 bound_to 10713
  157.6368  131.0915  150.8332 LP  0  0  0  0  0  0  0  0  0  0  0  0  # atno 17371 bound_to 10713
  141.2134  133.7627  156.9723 LP  0  0  0  0  0  0  0  0  0  0  0  0  # atno 17394 bound_to 11000
  140.1136  134.9461  157.2101 LP  0  0  0  0  0  0  0  0  0  0  0  0  # atno 17395 bound_to 11000

$$$$
