AV-unprocessed.smi:3277|AV-procd|sdf|12536|dock2
  -GOLD-   2272018453D 1   1.00000     0.00000
 Structure written by MMmdl.
 35 37  0  0  0  0  0  0  0  0  1 V2000
  153.2989  137.4579  158.7045 C   0  0  0  0  0  0  0  0  0  0  0  0
  153.0653  138.3629  157.5900 N   0  0  0  0  0  0  0  0  0  0  0  0
  152.6129  137.9789  156.3870 C   0  0  0  0  0  0  0  0  0  0  0  0
  152.3431  136.8110  156.1076 O   0  0  0  0  0  0  0  0  0  0  0  0
  152.4306  139.0786  155.3393 C   0  0  0  0  0  0  0  0  0  0  0  0
  151.6049  140.1670  155.9466 C   0  0  0  0  0  0  0  0  0  0  0  0
  151.9295  140.7953  157.0797 N   0  0  0  0  0  0  0  0  0  0  0  0
  151.0017  141.7778  157.4443 C   0  0  0  0  0  0  0  0  0  0  0  0
  151.1879  142.5942  158.6966 C   0  0  2  0  0  0  0  0  0  0  0  0
  150.2596  143.8218  158.8213 C   0  0  0  0  0  0  0  0  0  0  0  0
  151.2444  144.9489  159.1891 C   0  0  1  0  0  0  0  0  0  0  0  0
  151.8269  144.7019  160.5952 C   0  0  0  0  0  0  0  0  0  0  0  0
  152.8044  143.5316  160.3619 C   0  0  0  0  0  0  0  0  0  0  0  0
  152.5953  143.2127  158.8687 C   0  0  2  0  0  0  0  0  0  0  0  0
  152.4340  144.6196  158.2963 C   0  0  0  0  0  0  0  0  0  0  0  0
  149.9625  141.8868  156.5537 C   0  0  0  0  0  0  0  0  0  0  0  0
  150.1123  140.7644  155.2302 S   0  0  0  0  0  0  0  0  0  0  0  0
  153.7179  138.0067  159.5477 H   0  0  0  0  0  0  0  0  0  0  0  0
  154.0012  136.6709  158.4273 H   0  0  0  0  0  0  0  0  0  0  0  0
  152.3662  136.9955  159.0284 H   0  0  0  0  0  0  0  0  0  0  0  0
  153.2629  139.3416  157.7399 H   0  0  0  0  0  0  0  0  0  0  0  0
  153.3993  139.4744  155.0312 H   0  0  0  0  0  0  0  0  0  0  0  0
  151.9329  138.6891  154.4505 H   0  0  0  0  0  0  0  0  0  0  0  0
  150.9960  141.9361  159.5456 H   0  0  0  0  0  0  0  0  0  0  0  0
  149.7723  144.0526  157.8729 H   0  0  0  0  0  0  0  0  0  0  0  0
  149.4778  143.6809  159.5682 H   0  0  0  0  0  0  0  0  0  0  0  0
  150.8317  145.9491  159.0547 H   0  0  0  0  0  0  0  0  0  0  0  0
  152.3616  145.5808  160.9574 H   0  0  0  0  0  0  0  0  0  0  0  0
  151.0516  144.4576  161.3222 H   0  0  0  0  0  0  0  0  0  0  0  0
  153.8314  143.8490  160.5470 H   0  0  0  0  0  0  0  0  0  0  0  0
  152.6005  142.6790  161.0107 H   0  0  0  0  0  0  0  0  0  0  0  0
  153.4025  142.6173  158.4407 H   0  0  0  0  0  0  0  0  0  0  0  0
  152.1945  144.6392  157.2326 H   0  0  0  0  0  0  0  0  0  0  0  0
  153.2989  145.2613  158.4739 H   0  0  0  0  0  0  0  0  0  0  0  0
  149.1191  142.5600  156.5957 H   0  0  0  0  0  0  0  0  0  0  0  0
  1  2  1  0  0  0  0
  1 18  1  0  0  0  0
  1 19  1  0  0  0  0
  1 20  1  0  0  0  0
  2  3  1  0  0  0  0
  2 21  1  0  0  0  0
  3  4  2  0  0  0  0
  3  5  1  0  0  0  0
  5  6  1  0  0  0  0
  5 22  1  0  0  0  0
  5 23  1  0  0  0  0
  6 17  1  0  0  0  0
  6  7  2  0  0  0  0
  7  8  1  0  0  0  0
  8  9  1  0  0  0  0
  8 16  2  0  0  0  0
  9 14  1  0  0  0  0
  9 10  1  0  0  0  0
  9 24  1  0  0  0  0
 10 11  1  0  0  0  0
 10 25  1  0  0  0  0
 10 26  1  0  0  0  0
 11 15  1  0  0  0  0
 11 12  1  0  0  0  0
 11 27  1  0  0  0  0
 12 13  1  0  0  0  0
 12 28  1  0  0  0  0
 12 29  1  0  0  0  0
 13 14  1  0  0  0  0
 13 30  1  0  0  0  0
 13 31  1  0  0  0  0
 14 15  1  0  0  0  0
 14 32  1  0  0  0  0
 15 33  1  0  0  0  0
 15 34  1  0  0  0  0
 16 17  1  0  0  0  0
 16 35  1  0  0  0  0
M  END
> <s_m_source_file>
AV-unprocessed.smi

> <i_m_source_file_index>
3277

> <i_lp_mmshare_version>
43012

> <i_f3d_flags>
0

> <s_epik_input>
W0NIM11bTkhdQyg9TylbQ0gyXWMxbmMoW2NIXXMxKVtDQEhdKFtDSDJdW0NAQEhdMjMpW0NAQEhdKFtDSDJdMylbQ0gyXVtDSDJdMg==

> <s_epik_cmdline>
J2VwaWtfcHl0aG9uJywgJy1waCcsICc3LjAnLCAnLXRuJywgJzgnLCAnLW1hJywgJzIwMCcsICctbWV0YWxfYmluZGluZycsICctaW1hZScsICc8aW5maWxlLm1hZT4nLCAnLW9tYWUnLCAnPG91dGZpbGUubWFlPic=

> <r_lp_tautomer_probability>
1

> <r_epik_Ionization_Penalty>
8.50008e-05

> <r_epik_Ionization_Penalty_Charging>
0

> <r_epik_Ionization_Penalty_Neutral>
8.50008e-05

> <r_epik_State_Penalty>
-0

> <r_epik_Charging_Adjusted_Penalty>
0

> <i_epik_Tot_Q>
0

> <i_epik_Tot_abs_Q>
0

> <r_epik_Metal_State_Penalty>
-0

> <b_epik_Metal_Only>
0

> <s_lp_Force_Field>
OPLS_2005

> <r_lp_Energy>
44.9061

> <b_lp_Chiralities_Consistent>
1

> <s_lp_Variant>
AV-unprocessed.smi:3277-1

> <Gold.Version>
5.8.1

> <Gold.Id.Protein>
6NUR|6NUR_protein|mol2

> <Gold.PLP.Fitness>
45.4346

> <Gold.PLP.PLP>
-40.0878

> <Gold.PLP.part.hbond>
-1.0000

> <Gold.PLP.part.metal>
0.0000

> <Gold.PLP.part.buried>
-3.1059

> <Gold.PLP.part.nonpolar>
-35.9966

> <Gold.PLP.part.repulsive>
0.1061

> <Gold.PLP.ligand.clash>
0.0000

> <Gold.PLP.ligand.torsion>
0.3279

> <Gold.PLP.Chemscore.Hbond>
1.0000

> <Gold.PLP.Chemscore.CHOScore>
1.0000

> <Gold.PLP.Chemscore.Metal>
0.0000

> <Gold.Chemscore.Hbonds>
donor molecule, donor type, donor heavy atom, donor atom, acceptor molecule, acceptor atom, score
      P1  H 10752 10763       L1     4  0.98
      L1  C    16    35       P1  8028  0.99

> <Gold.PLP.Chemscore.Internal.Correction>
0.0026

> <Gold.Rescore>
     Score         DG    S(hbond)    S(metal)    S(lipo)     H(rot)  DE(clash)    DE(int)     intcor
     17.59     -19.23       0.99        0.00     120.30       1.41       0.00       1.64       ----

> <Gold.Chemscore.Fitness>
17.5885

> <Gold.Chemscore.DG>
-19.2305

> <Gold.Chemscore.ZeroCoef>
-5.4800

> <Gold.Chemscore.Hbond>
0.9852

> <Gold.Chemscore.Metal>
0.0000

> <Gold.Chemscore.Lipo>
120.3007

> <Gold.Chemscore.Internal_Hbond>
0.0000

> <Gold.Chemscore.DEClash>
0.0000

> <Gold.Chemscore.DEInternal>
1.6420

> <Gold.Chemscore.Rot>
1.4122

> <Gold.Chemscore.Internal.Correction>
   9.000000E+99

> <Gold.Chemscore.Hbonds>
donor molecule, donor type, donor heavy atom, donor atom, acceptor molecule, acceptor atom, score
      P1  H 10752 10763       L1     4  0.93

> <Gold.Chemscore.Hbond.Weighted>
-3.2905

> <Gold.Chemscore.Metal.Weighted>
-0.0000

> <Gold.Chemscore.Lipo.Weighted>
-14.0752

> <Gold.Chemscore.Internal_Hbond.Weighted>
0.0000

> <Gold.Chemscore.DEClash.Weighted>
0.0000

> <Gold.Chemscore.DEInternal.Weighted>
1.6420

> <Gold.Chemscore.Rot.Weighted>
3.6151

> <Gold.Chemscore.Internal.Correction.Weighted>
   9.000000E+99

> <Gold.Protein.RotatedTorsions>
[ 6907 6896 6895 6894 ] final   82.60 input  -60.11 | X-H torsion
[ 7974 7965 7964 7962 ] final -105.92 input  175.53 | X-H torsion
[ 8008 7997 7996 7995 ] final  137.73 input   59.86 | X-H torsion
[ 10167 10162 10161 10158 ] final   36.39 input  -65.29 | X-H torsion
[ 10718 10713 10712 10709 ] final -152.06 input   66.30 | X-H torsion
[ 10763 10752 10751 10750 ] final   97.58 input  -60.55 | X-H torsion
[ 11005 11000 10999 10996 ] final -158.99 input  -57.11 | X-H torsion

> <Gold.Protein.ActiveResidues>
 VAL166  LYS551  ARG553  GLY616  TRP617  ASP618  TYR619  PRO620  LYS621  CYS622 
 ASP623  PHE694  ASN695  SER759  ASP760  ASP761  ALA762  ILE779  LEU786  VAL792 
 PHE793  MET794  SER795  GLU796  ALA797  LYS798  CYS799  TRP800  GLU811  SER814 

> <Gold.Protein.RotatedAtoms>
  152.5304  134.3025  159.9083 H   0  0  0  0  0  0  0  0  0  0  0  0  # atno 6907 bound_to 6896
  151.2976  133.4130  159.2645 H   0  0  0  0  0  0  0  0  0  0  0  0  # atno 6908 bound_to 6896
  151.0147  134.9440  159.8083 H   0  0  0  0  0  0  0  0  0  0  0  0  # atno 6909 bound_to 6896
  145.2244  140.9147  143.3241 H   0  0  0  0  0  0  0  0  0  0  0  0  # atno 7974 bound_to 7965
  156.3001  140.2412  156.3958 H   0  0  0  0  0  0  0  0  0  0  0  0  # atno 8008 bound_to 7997
  154.8572  140.0421  157.1662 H   0  0  0  0  0  0  0  0  0  0  0  0  # atno 8009 bound_to 7997
  154.8935  140.2966  155.5361 H   0  0  0  0  0  0  0  0  0  0  0  0  # atno 8010 bound_to 7997
  140.4132  144.1563  150.6141 H   0  0  0  0  0  0  0  0  0  0  0  0  # atno 10167 bound_to 10162
  156.4675  130.8243  151.2473 H   0  0  0  0  0  0  0  0  0  0  0  0  # atno 10718 bound_to 10713
  153.2786  135.4178  155.1057 H   0  0  0  0  0  0  0  0  0  0  0  0  # atno 10763 bound_to 10752
  154.8481  135.3490  154.6143 H   0  0  0  0  0  0  0  0  0  0  0  0  # atno 10764 bound_to 10752
  153.6564  135.7050  153.5249 H   0  0  0  0  0  0  0  0  0  0  0  0  # atno 10765 bound_to 10752
  140.6475  134.4485  157.5234 H   0  0  0  0  0  0  0  0  0  0  0  0  # atno 11005 bound_to 11000
  144.9735  139.3856  143.6297 LP  0  0  0  0  0  0  0  0  0  0  0  0  # atno 17320 bound_to 7965
  146.3368  139.8844  142.8819 LP  0  0  0  0  0  0  0  0  0  0  0  0  # atno 17321 bound_to 7965
  140.4615  143.2447  151.9213 LP  0  0  0  0  0  0  0  0  0  0  0  0  # atno 17342 bound_to 10162
  139.4782  144.5462  151.8454 LP  0  0  0  0  0  0  0  0  0  0  0  0  # atno 17343 bound_to 10162
  157.7493  131.0087  150.3238 LP  0  0  0  0  0  0  0  0  0  0  0  0  # atno 17370 bound_to 10713
  156.3652  130.3854  149.7219 LP  0  0  0  0  0  0  0  0  0  0  0  0  # atno 17371 bound_to 10713
  139.9057  134.8454  156.1714 LP  0  0  0  0  0  0  0  0  0  0  0  0  # atno 17394 bound_to 11000
  141.0561  133.6864  156.1863 LP  0  0  0  0  0  0  0  0  0  0  0  0  # atno 17395 bound_to 11000

$$$$
