AV-unprocessed.smi:221|AV-procd|sdf|1696|dock2
  -GOLD-   2262020143D 1   1.00000     0.00000
 Structure written by MMmdl.
 50 53  0  0  0  0  0  0  0  0  1 V2000
  143.0056  133.1961  150.7130 N   0  0  0  0  0  0  0  0  0  0  0  0
  143.8251  132.4301  149.9851 C   0  0  0  0  0  0  0  0  0  0  0  0
  143.5491  132.1094  148.8314 O   0  0  0  0  0  0  0  0  0  0  0  0
  145.1472  131.9480  150.6145 C   0  0  2  0  0  0  0  0  0  0  0  0
  145.2092  130.4118  150.6541 C   0  0  0  0  0  0  0  0  0  0  0  0
  146.1723  130.1289  151.7999 C   0  0  2  0  0  0  0  0  0  0  0  0
  146.0291  128.9024  152.3011 F   0  0  0  0  0  0  0  0  0  0  0  0
  145.8384  131.2219  152.8115 C   0  0  0  0  0  0  0  0  0  0  0  0
  145.3472  132.3428  152.0171 N   0  0  0  0  0  0  0  0  0  0  0  0
  145.6951  133.6081  152.3776 C   0  0  0  0  0  0  0  0  0  0  0  0
  145.1820  134.6644  151.6926 N   0  0  0  0  0  0  0  0  0  0  0  0
  145.5077  135.9158  152.0278 C   0  0  0  0  0  0  0  0  0  0  0  0
  146.3140  136.3337  153.0046 N   0  0  0  0  0  0  0  0  0  0  0  0
  146.8250  135.2821  153.7058 C   0  0  0  0  0  0  0  0  0  0  0  0
  146.5697  133.9017  153.4644 C   0  0  0  0  0  0  0  0  0  0  0  0
  147.2538  133.1291  154.3969 N   0  0  0  0  0  0  0  0  0  0  0  0
  147.8830  133.9995  155.1378 C   0  0  0  0  0  0  0  0  0  0  0  0
  147.6782  135.3158  154.7950 N   0  0  0  0  0  0  0  0  0  0  0  0
  148.2514  136.4785  155.4503 C   0  0  0  0  0  0  0  0  0  0  0  0
  149.7996  136.4282  155.5104 C   0  0  2  0  0  0  0  0  0  0  0  0
  150.2892  135.4589  156.6116 C   0  0  0  0  0  0  0  0  0  0  0  0
  149.8039  135.8390  157.8823 O   0  0  0  0  0  0  0  0  0  0  0  0
  150.4541  137.8311  155.6434 C   0  0  1  0  0  0  0  0  0  0  0  0
  151.9818  137.8478  155.7167 C   0  0  0  0  0  0  0  0  0  0  0  0
  152.3905  138.9937  154.7877 C   0  0  0  0  0  0  0  0  0  0  0  0
  151.2085  139.7624  154.6263 O   0  0  0  0  0  0  0  0  0  0  0  0
  150.1344  138.8419  154.5361 C   0  0  0  0  0  0  0  0  0  0  0  0
  145.9814  132.3135  150.0129 H   0  0  0  0  0  0  0  0  0  0  0  0
  147.2032  130.2307  151.4575 H   0  0  0  0  0  0  0  0  0  0  0  0
  142.1365  133.5210  150.3147 H   0  0  0  0  0  0  0  0  0  0  0  0
  143.2600  133.4473  151.6573 H   0  0  0  0  0  0  0  0  0  0  0  0
  144.2303  129.9880  150.8875 H   0  0  0  0  0  0  0  0  0  0  0  0
  145.5444  129.9792  149.7108 H   0  0  0  0  0  0  0  0  0  0  0  0
  145.0416  130.8995  153.4830 H   0  0  0  0  0  0  0  0  0  0  0  0
  146.7137  131.4696  153.4137 H   0  0  0  0  0  0  0  0  0  0  0  0
  145.0575  136.6927  151.4277 H   0  0  0  0  0  0  0  0  0  0  0  0
  148.5139  133.7044  155.9639 H   0  0  0  0  0  0  0  0  0  0  0  0
  147.9038  137.3589  154.9113 H   0  0  0  0  0  0  0  0  0  0  0  0
  147.8287  136.5483  156.4525 H   0  0  0  0  0  0  0  0  0  0  0  0
  150.1395  136.0206  154.5568 H   0  0  0  0  0  0  0  0  0  0  0  0
  149.9791  134.4362  156.3958 H   0  0  0  0  0  0  0  0  0  0  0  0
  151.3768  135.4529  156.6760 H   0  0  0  0  0  0  0  0  0  0  0  0
  149.1744  136.5347  157.7681 H   0  0  0  0  0  0  0  0  0  0  0  0
  150.1133  138.2791  156.5779 H   0  0  0  0  0  0  0  0  0  0  0  0
  152.3025  138.0480  156.7400 H   0  0  0  0  0  0  0  0  0  0  0  0
  152.4494  136.9118  155.4126 H   0  0  0  0  0  0  0  0  0  0  0  0
  153.2061  139.5935  155.1925 H   0  0  0  0  0  0  0  0  0  0  0  0
  152.7012  138.6071  153.8155 H   0  0  0  0  0  0  0  0  0  0  0  0
  150.1424  138.3932  153.5429 H   0  0  0  0  0  0  0  0  0  0  0  0
  149.1726  139.3345  154.6815 H   0  0  0  0  0  0  0  0  0  0  0  0
  1  2  1  0  0  0  0
  1 30  1  0  0  0  0
  1 31  1  0  0  0  0
  2  3  2  0  0  0  0
  2  4  1  0  0  0  0
  4 28  1  0  0  0  0
  4  9  1  0  0  0  0
  4  5  1  0  0  0  0
  5  6  1  0  0  0  0
  5 32  1  0  0  0  0
  5 33  1  0  0  0  0
  6 29  1  0  0  0  0
  6  7  1  0  0  0  0
  6  8  1  0  0  0  0
  8  9  1  0  0  0  0
  8 34  1  0  0  0  0
  8 35  1  0  0  0  0
  9 10  1  0  0  0  0
 10 15  1  0  0  0  0
 10 11  2  0  0  0  0
 11 12  1  0  0  0  0
 12 13  2  0  0  0  0
 12 36  1  0  0  0  0
 13 14  1  0  0  0  0
 14 18  1  0  0  0  0
 14 15  2  0  0  0  0
 15 16  1  0  0  0  0
 16 17  2  0  0  0  0
 17 18  1  0  0  0  0
 17 37  1  0  0  0  0
 18 19  1  0  0  0  0
 19 20  1  0  0  0  0
 19 38  1  0  0  0  0
 19 39  1  0  0  0  0
 20 21  1  0  0  0  0
 20 23  1  0  0  0  0
 20 40  1  0  0  0  0
 21 22  1  0  0  0  0
 21 41  1  0  0  0  0
 21 42  1  0  0  0  0
 22 43  1  0  0  0  0
 23 27  1  0  0  0  0
 23 24  1  0  0  0  0
 23 44  1  0  0  0  0
 24 25  1  0  0  0  0
 24 45  1  0  0  0  0
 24 46  1  0  0  0  0
 25 26  1  0  0  0  0
 25 47  1  0  0  0  0
 25 48  1  0  0  0  0
 26 27  1  0  0  0  0
 27 49  1  0  0  0  0
 27 50  1  0  0  0  0
M  END
> <s_m_source_file>
AV-unprocessed.smi

> <i_m_source_file_index>
221

> <i_lp_mmshare_version>
43012

> <i_f3d_flags>
0

> <s_epik_input>
W05IMl1DKD1PKVtDQEBIXTFbQ0gyXVtDQEBIXShGKVtDSDJdTjFjKG5bY0hdbjIpYyhjMjMpbltjSF1uM1tDSDJdW0NASF0oW0NIMl1bT0hdKVtDQEBIXTRbQ0gyXVtDSDJdT1tDSDJdNA==

> <s_epik_cmdline>
J2VwaWtfcHl0aG9uJywgJy1waCcsICc3LjAnLCAnLXRuJywgJzgnLCAnLW1hJywgJzIwMCcsICctbWV0YWxfYmluZGluZycsICctaW1hZScsICc8aW5maWxlLm1hZT4nLCAnLW9tYWUnLCAnPG91dGZpbGUubWFlPic=

> <r_lp_tautomer_probability>
1

> <r_epik_Ionization_Penalty>
0.000818822

> <r_epik_Ionization_Penalty_Charging>
0

> <r_epik_Ionization_Penalty_Neutral>
0.000818822

> <r_epik_State_Penalty>
0.000440551

> <r_epik_Charging_Adjusted_Penalty>
0.000440551

> <i_epik_Tot_Q>
0

> <i_epik_Tot_abs_Q>
0

> <r_epik_Metal_State_Penalty>
-0

> <b_epik_Metal_Only>
0

> <s_lp_Force_Field>
OPLS_2005

> <r_lp_Energy>
49.7935

> <b_lp_Chiralities_Consistent>
1

> <s_lp_Variant>
AV-unprocessed.smi:221-11

> <Gold.Version>
5.8.1

> <Gold.Id.Protein>
6NUR|6NUR_protein|mol2

> <Gold.PLP.Fitness>
46.5472

> <Gold.PLP.PLP>
-35.9121

> <Gold.PLP.part.hbond>
-4.0000

> <Gold.PLP.part.metal>
0.0000

> <Gold.PLP.part.buried>
-5.4934

> <Gold.PLP.part.nonpolar>
-28.0145

> <Gold.PLP.part.repulsive>
2.1212

> <Gold.PLP.ligand.clash>
0.0000

> <Gold.PLP.ligand.torsion>
0.5318

> <Gold.PLP.Chemscore.Hbond>
3.5754

> <Gold.PLP.Chemscore.CHOScore>
0.2118

> <Gold.PLP.Chemscore.Metal>
0.0000

> <Gold.Chemscore.Hbonds>
donor molecule, donor type, donor heavy atom, donor atom, acceptor molecule, acceptor atom, score
      L1  H     1    30       P1 10186  1.00
      P1  H  6896  6907       L1    22  0.42
      P1  H  7989  7998       L1    26  1.00
      P1  H 10785 10796       L1     3  0.82
      L1  C    12    36       P1 10171  0.43

> <Gold.PLP.Chemscore.Internal.Correction>
0.3373

> <Gold.Rescore>
     Score         DG    S(hbond)    S(metal)    S(lipo)     H(rot)  DE(clash)    DE(int)     intcor
     11.27     -17.24       3.50        0.00      73.05       3.31       2.63       3.34       ----

> <Gold.Chemscore.Fitness>
11.2672

> <Gold.Chemscore.DG>
-17.2382

> <Gold.Chemscore.ZeroCoef>
-5.4800

> <Gold.Chemscore.Hbond>
3.4977

> <Gold.Chemscore.Metal>
0.0000

> <Gold.Chemscore.Lipo>
73.0486

> <Gold.Chemscore.Internal_Hbond>
0.0000

> <Gold.Chemscore.DEClash>
2.6278

> <Gold.Chemscore.DEInternal>
3.3432

> <Gold.Chemscore.Rot>
3.3089

> <Gold.Chemscore.Internal.Correction>
   9.000000E+99

> <Gold.Chemscore.Hbonds>
donor molecule, donor type, donor heavy atom, donor atom, acceptor molecule, acceptor atom, score
      L1  H     1    30       P1 10186  0.99
      P1  H  6896  6907       L1    22  0.33
      P1  H  7989  7998       L1    26  0.39
      P1  H 10785 10796       L1     3  0.59

> <Gold.Chemscore.Hbond.Weighted>
-11.6824

> <Gold.Chemscore.Metal.Weighted>
-0.0000

> <Gold.Chemscore.Lipo.Weighted>
-8.5467

> <Gold.Chemscore.Internal_Hbond.Weighted>
0.0000

> <Gold.Chemscore.DEClash.Weighted>
2.6278

> <Gold.Chemscore.DEInternal.Weighted>
3.3432

> <Gold.Chemscore.Rot.Weighted>
8.4709

> <Gold.Chemscore.Internal.Correction.Weighted>
   9.000000E+99

> <Gold.Protein.RotatedTorsions>
[ 6907 6896 6895 6894 ] final  -71.22 input  -60.11 | X-H torsion
[ 7974 7965 7964 7962 ] final  146.08 input  175.53 | X-H torsion
[ 8008 7997 7996 7995 ] final  160.51 input   59.86 | X-H torsion
[ 10167 10162 10161 10158 ] final -167.28 input  -65.29 | X-H torsion
[ 10718 10713 10712 10709 ] final -176.05 input   66.30 | X-H torsion
[ 10763 10752 10751 10750 ] final   47.48 input  -60.55 | X-H torsion
[ 11005 11000 10999 10996 ] final   30.93 input  -57.11 | X-H torsion

> <Gold.Protein.ActiveResidues>
 VAL166  LYS551  ARG553  GLY616  TRP617  ASP618  TYR619  PRO620  LYS621  CYS622 
 ASP623  PHE694  ASN695  SER759  ASP760  ASP761  ALA762  ILE779  LEU786  VAL792 
 PHE793  MET794  SER795  GLU796  ALA797  LYS798  CYS799  TRP800  GLU811  SER814 

> <Gold.Protein.RotatedAtoms>
  150.7222  134.5340  159.5713 H   0  0  0  0  0  0  0  0  0  0  0  0  # atno 6907 bound_to 6896
  152.2866  134.7766  160.0395 H   0  0  0  0  0  0  0  0  0  0  0  0  # atno 6908 bound_to 6896
  151.8394  133.3386  159.3675 H   0  0  0  0  0  0  0  0  0  0  0  0  # atno 6909 bound_to 6896
  144.8700  139.5862  143.5891 H   0  0  0  0  0  0  0  0  0  0  0  0  # atno 7974 bound_to 7965
  156.2167  140.1802  156.7571 H   0  0  0  0  0  0  0  0  0  0  0  0  # atno 8008 bound_to 7997
  154.5803  140.0667  156.9123 H   0  0  0  0  0  0  0  0  0  0  0  0  # atno 8009 bound_to 7997
  155.2515  140.3329  155.4284 H   0  0  0  0  0  0  0  0  0  0  0  0  # atno 8010 bound_to 7997
  139.6060  144.0913  152.1793 H   0  0  0  0  0  0  0  0  0  0  0  0  # atno 10167 bound_to 10162
  156.8090  130.9579  151.3116 H   0  0  0  0  0  0  0  0  0  0  0  0  # atno 10718 bound_to 10713
  152.9799  135.5975  154.3770 H   0  0  0  0  0  0  0  0  0  0  0  0  # atno 10763 bound_to 10752
  154.3438  135.2767  155.2410 H   0  0  0  0  0  0  0  0  0  0  0  0  # atno 10764 bound_to 10752
  154.4480  135.5997  153.6228 H   0  0  0  0  0  0  0  0  0  0  0  0  # atno 10765 bound_to 10752
  140.2892  134.2883  155.7780 H   0  0  0  0  0  0  0  0  0  0  0  0  # atno 11005 bound_to 11000
  146.2923  139.7175  142.9152 LP  0  0  0  0  0  0  0  0  0  0  0  0  # atno 17320 bound_to 7965
  145.4149  141.0400  143.2996 LP  0  0  0  0  0  0  0  0  0  0  0  0  # atno 17321 bound_to 7965
  140.0520  144.5925  150.7329 LP  0  0  0  0  0  0  0  0  0  0  0  0  # atno 17342 bound_to 10162
  140.7285  143.2662  151.4037 LP  0  0  0  0  0  0  0  0  0  0  0  0  # atno 17343 bound_to 10162
  157.6515  130.8889  149.9644 LP  0  0  0  0  0  0  0  0  0  0  0  0  # atno 17370 bound_to 10713
  156.1056  130.3653  150.0140 LP  0  0  0  0  0  0  0  0  0  0  0  0  # atno 17371 bound_to 10713
  141.2149  133.7574  156.9599 LP  0  0  0  0  0  0  0  0  0  0  0  0  # atno 17394 bound_to 11000
  140.1211  134.9416  157.2204 LP  0  0  0  0  0  0  0  0  0  0  0  0  # atno 17395 bound_to 11000

$$$$
