AV-unprocessed.smi:1014|AV-procd|sdf|4432|dock1
  -GOLD-   22720 2393D 1   1.00000     0.00000
 Structure written by MMmdl.
 33 33  0  0  0  0  0  0  0  0  1 V2000
  146.4230  142.6100  154.0455 C   0  0  0  0  0  0  0  0  0  0  0  0
  147.3503  141.4783  153.5806 C   0  0  0  0  0  0  0  0  0  0  0  0
  148.1570  140.8401  154.7312 C   0  0  2  0  0  0  0  0  0  0  0  0
  148.8460  141.8882  155.5078 N   0  0  0  0  0  0  0  0  0  0  0  0
  149.5690  141.3979  156.6756 C   0  0  0  0  0  0  0  0  0  0  0  0
  151.0450  141.8053  156.5648 C   0  0  0  0  0  0  0  0  0  0  0  0
  151.4695  142.5844  157.7114 N   0  0  0  0  0  0  0  0  0  0  0  0
  151.2129  143.9102  157.9883 C   0  0  0  0  0  0  0  0  0  0  0  0
  151.8214  144.2073  159.1749 C   0  0  0  0  0  0  0  0  0  0  0  0
  151.8475  145.5133  159.9156 C   0  0  0  0  0  0  0  0  0  0  0  0
  152.4345  142.9777  159.5489 C   0  0  0  0  0  0  0  0  0  0  0  0
  152.2238  142.0097  158.6720 N   0  0  0  0  0  0  0  0  0  0  0  0
  149.1197  139.7739  154.1797 C   0  0  0  0  0  0  0  0  0  0  0  0
  148.5822  138.7576  153.5005 N   0  0  0  0  0  0  0  0  0  0  0  0
  150.3298  139.8587  154.3816 O   0  0  0  0  0  0  0  0  0  0  0  0
  145.8619  143.0200  153.2058 H   0  0  0  0  0  0  0  0  0  0  0  0
  146.9870  143.4268  154.4965 H   0  0  0  0  0  0  0  0  0  0  0  0
  145.7033  142.2526  154.7823 H   0  0  0  0  0  0  0  0  0  0  0  0
  146.7340  140.7194  153.0957 H   0  0  0  0  0  0  0  0  0  0  0  0
  148.0260  141.8532  152.8103 H   0  0  0  0  0  0  0  0  0  0  0  0
  147.4515  140.3376  155.3958 H   0  0  0  0  0  0  0  0  0  0  0  0
  149.4627  142.4364  154.9253 H   0  0  0  0  0  0  0  0  0  0  0  0
  149.1317  141.8171  157.5830 H   0  0  0  0  0  0  0  0  0  0  0  0
  149.4970  140.3120  156.7457 H   0  0  0  0  0  0  0  0  0  0  0  0
  151.6810  140.9215  156.4958 H   0  0  0  0  0  0  0  0  0  0  0  0
  151.2168  142.3911  155.6601 H   0  0  0  0  0  0  0  0  0  0  0  0
  150.6256  144.5266  157.3238 H   0  0  0  0  0  0  0  0  0  0  0  0
  151.9457  145.3656  160.9913 H   0  0  0  0  0  0  0  0  0  0  0  0
  150.9359  146.0888  159.7535 H   0  0  0  0  0  0  0  0  0  0  0  0
  152.6830  146.1374  159.5986 H   0  0  0  0  0  0  0  0  0  0  0  0
  153.0246  142.7619  160.4276 H   0  0  0  0  0  0  0  0  0  0  0  0
  149.1769  138.0354  153.1204 H   0  0  0  0  0  0  0  0  0  0  0  0
  147.5820  138.7158  153.3693 H   0  0  0  0  0  0  0  0  0  0  0  0
  1  2  1  0  0  0  0
  1 16  1  0  0  0  0
  1 17  1  0  0  0  0
  1 18  1  0  0  0  0
  2  3  1  0  0  0  0
  2 19  1  0  0  0  0
  2 20  1  0  0  0  0
  3  4  1  0  0  0  0
  3 13  1  0  0  0  0
  3 21  1  0  0  0  0
  4  5  1  0  0  0  0
  4 22  1  0  0  0  0
  5  6  1  0  0  0  0
  5 23  1  0  0  0  0
  5 24  1  0  0  0  0
  6  7  1  0  0  0  0
  6 25  1  0  0  0  0
  6 26  1  0  0  0  0
  7 12  1  0  0  0  0
  7  8  1  0  0  0  0
  8  9  2  0  0  0  0
  8 27  1  0  0  0  0
  9 10  1  0  0  0  0
  9 11  1  0  0  0  0
 10 28  1  0  0  0  0
 10 29  1  0  0  0  0
 10 30  1  0  0  0  0
 11 12  2  0  0  0  0
 11 31  1  0  0  0  0
 13 14  1  0  0  0  0
 13 15  2  0  0  0  0
 14 32  1  0  0  0  0
 14 33  1  0  0  0  0
M  END
> <s_m_source_file>
AV-unprocessed.smi

> <i_m_source_file_index>
1014

> <i_lp_mmshare_version>
43012

> <i_f3d_flags>
0

> <s_epik_input>
W0NIM11bQ0gyXVtDQEBIXShDKD1PKVtOSDJdKVtOSF1bQ0gyXVtDSDJdbjFbY0hdYyhbQ0gzXSlbY0hdbjE=

> <s_epik_cmdline>
J2VwaWtfcHl0aG9uJywgJy1waCcsICc3LjAnLCAnLXRuJywgJzgnLCAnLW1hJywgJzIwMCcsICctbWV0YWxfYmluZGluZycsICctaW1hZScsICc8aW5maWxlLm1hZT4nLCAnLW9tYWUnLCAnPG91dGZpbGUubWFlPic=

> <r_lp_tautomer_probability>
1

> <r_epik_Ionization_Penalty>
0.767127

> <r_epik_Ionization_Penalty_Charging>
0

> <r_epik_Ionization_Penalty_Neutral>
0.767127

> <r_epik_State_Penalty>
0.793761

> <r_epik_Charging_Adjusted_Penalty>
0.793761

> <i_epik_Tot_Q>
0

> <i_epik_Tot_abs_Q>
0

> <r_epik_Metal_State_Penalty>
0.79201

> <b_epik_Metal_Only>
0

> <s_lp_Force_Field>
OPLS_2005

> <r_lp_Energy>
4.2036

> <b_lp_Chiralities_Consistent>
1

> <s_lp_Variant>
AV-unprocessed.smi:1014-3

> <Gold.Version>
5.8.1

> <Gold.Id.Protein>
6NUR|6NUR_protein|mol2

> <Gold.PLP.Fitness>
43.6376

> <Gold.PLP.PLP>
-38.0350

> <Gold.PLP.part.hbond>
-4.0000

> <Gold.PLP.part.metal>
0.0000

> <Gold.PLP.part.buried>
-5.5700

> <Gold.PLP.part.nonpolar>
-29.2932

> <Gold.PLP.part.repulsive>
0.1729

> <Gold.PLP.ligand.clash>
0.0000

> <Gold.PLP.ligand.torsion>
0.9974

> <Gold.PLP.Chemscore.Hbond>
1.5070

> <Gold.PLP.Chemscore.CHOScore>
1.0000

> <Gold.PLP.Chemscore.Metal>
0.0000

> <Gold.Chemscore.Hbonds>
donor molecule, donor type, donor heavy atom, donor atom, acceptor molecule, acceptor atom, score
      L1  H    14    32       P1  7948  0.47
      P1  H  7989  7998       L1    15  1.00
      L1  C     8    27       P1  8028  1.00

> <Gold.PLP.Chemscore.Internal.Correction>
0.0765

> <Gold.Rescore>
     Score         DG    S(hbond)    S(metal)    S(lipo)     H(rot)  DE(clash)    DE(int)     intcor
     11.74     -14.17       1.80        0.00      77.93       2.51       0.16       2.26       ----

> <Gold.Chemscore.Fitness>
11.7414

> <Gold.Chemscore.DG>
-14.1693

> <Gold.Chemscore.ZeroCoef>
-5.4800

> <Gold.Chemscore.Hbond>
1.7953

> <Gold.Chemscore.Metal>
0.0000

> <Gold.Chemscore.Lipo>
77.9284

> <Gold.Chemscore.Internal_Hbond>
0.0000

> <Gold.Chemscore.DEClash>
0.1649

> <Gold.Chemscore.DEInternal>
2.2630

> <Gold.Chemscore.Rot>
2.5096

> <Gold.Chemscore.Internal.Correction>
   9.000000E+99

> <Gold.Chemscore.Hbonds>
donor molecule, donor type, donor heavy atom, donor atom, acceptor molecule, acceptor atom, score
      L1  H    14    32       P1  7948  0.48
      P1  H  7989  7998       L1    15  1.00

> <Gold.Chemscore.Hbond.Weighted>
-5.9963

> <Gold.Chemscore.Metal.Weighted>
-0.0000

> <Gold.Chemscore.Lipo.Weighted>
-9.1176

> <Gold.Chemscore.Internal_Hbond.Weighted>
0.0000

> <Gold.Chemscore.DEClash.Weighted>
0.1649

> <Gold.Chemscore.DEInternal.Weighted>
2.2630

> <Gold.Chemscore.Rot.Weighted>
6.4246

> <Gold.Chemscore.Internal.Correction.Weighted>
   9.000000E+99

> <Gold.Protein.RotatedTorsions>
[ 6907 6896 6895 6894 ] final -100.39 input  -60.11 | X-H torsion
[ 7974 7965 7964 7962 ] final -130.07 input  175.53 | X-H torsion
[ 8008 7997 7996 7995 ] final  -80.00 input   59.86 | X-H torsion
[ 10167 10162 10161 10158 ] final  -29.99 input  -65.29 | X-H torsion
[ 10718 10713 10712 10709 ] final -115.03 input   66.30 | X-H torsion
[ 10763 10752 10751 10750 ] final -179.95 input  -60.55 | X-H torsion
[ 11005 11000 10999 10996 ] final -100.02 input  -57.11 | X-H torsion

> <Gold.Protein.ActiveResidues>
 VAL166  LYS551  ARG553  GLY616  TRP617  ASP618  TYR619  PRO620  LYS621  CYS622 
 ASP623  PHE694  ASN695  SER759  ASP760  ASP761  ALA762  ILE779  LEU786  VAL792 
 PHE793  MET794  SER795  GLU796  ALA797  LYS798  CYS799  TRP800  GLU811  SER814 

> <Gold.Protein.RotatedAtoms>
  150.7114  134.0894  159.3925 H   0  0  0  0  0  0  0  0  0  0  0  0  # atno 6907 bound_to 6896
  151.8879  135.0426  160.0504 H   0  0  0  0  0  0  0  0  0  0  0  0  # atno 6908 bound_to 6896
  152.2515  133.5184  159.5365 H   0  0  0  0  0  0  0  0  0  0  0  0  # atno 6909 bound_to 6896
  144.9510  140.7344  143.4788 H   0  0  0  0  0  0  0  0  0  0  0  0  # atno 7974 bound_to 7965
  154.5840  140.0669  156.9144 H   0  0  0  0  0  0  0  0  0  0  0  0  # atno 8008 bound_to 7997
  155.2412  140.3345  155.4274 H   0  0  0  0  0  0  0  0  0  0  0  0  # atno 8009 bound_to 7997
  156.2209  140.1798  156.7463 H   0  0  0  0  0  0  0  0  0  0  0  0  # atno 8010 bound_to 7997
  140.7254  143.3884  151.1473 H   0  0  0  0  0  0  0  0  0  0  0  0  # atno 10167 bound_to 10162
  156.0869  130.6059  150.8853 H   0  0  0  0  0  0  0  0  0  0  0  0  # atno 10718 bound_to 10713
  154.5286  135.2798  155.1200 H   0  0  0  0  0  0  0  0  0  0  0  0  # atno 10763 bound_to 10752
  154.2729  135.6300  153.5321 H   0  0  0  0  0  0  0  0  0  0  0  0  # atno 10764 bound_to 10752
  152.9952  135.5633  154.5793 H   0  0  0  0  0  0  0  0  0  0  0  0  # atno 10765 bound_to 10752
  141.1287  133.8366  157.1048 H   0  0  0  0  0  0  0  0  0  0  0  0  # atno 11005 bound_to 11000
  145.2844  139.1906  143.4774 LP  0  0  0  0  0  0  0  0  0  0  0  0  # atno 17320 bound_to 7965
  146.3321  140.2811  142.8610 LP  0  0  0  0  0  0  0  0  0  0  0  0  # atno 17321 bound_to 7965
  139.7485  143.8815  152.3070 LP  0  0  0  0  0  0  0  0  0  0  0  0  # atno 17342 bound_to 10162
  139.8660  144.7093  150.9043 LP  0  0  0  0  0  0  0  0  0  0  0  0  # atno 17343 bound_to 10162
  157.6006  131.0941  150.8967 LP  0  0  0  0  0  0  0  0  0  0  0  0  # atno 17370 bound_to 10713
  156.9125  130.5286  149.5280 LP  0  0  0  0  0  0  0  0  0  0  0  0  # atno 17371 bound_to 10713
  140.0311  134.9900  157.0782 LP  0  0  0  0  0  0  0  0  0  0  0  0  # atno 17394 bound_to 11000
  140.4284  134.1807  155.7167 LP  0  0  0  0  0  0  0  0  0  0  0  0  # atno 17395 bound_to 11000

$$$$
