AV-unprocessed.smi:283|AV-procd|sdf|2129|dock6
  -GOLD-   2262021443D 1   1.00000     0.00000
 Structure written by MMmdl.
 48 51  0  0  0  0  0  0  0  0  1 V2000
  149.6615  142.5590  158.0175 C   0  0  0  0  0  0  0  0  0  0  0  0
  150.8076  141.6491  157.5551 C   0  0  2  0  0  0  0  0  0  0  0  0
  150.2606  140.4193  156.9853 N   0  0  0  0  0  0  0  0  0  0  0  0
  149.4013  140.4533  155.9428 C   0  0  0  0  0  0  0  0  0  0  0  0
  149.2649  141.6569  155.3371 N   0  0  0  0  0  0  0  0  0  0  0  0
  148.4217  141.8001  154.3112 C   0  0  0  0  0  0  0  0  0  0  0  0
  147.6392  140.8827  153.7405 N   0  0  0  0  0  0  0  0  0  0  0  0
  147.7825  139.6619  154.3336 C   0  0  0  0  0  0  0  0  0  0  0  0
  148.6383  139.3619  155.4318 C   0  0  0  0  0  0  0  0  0  0  0  0
  148.5175  138.0146  155.7489 N   0  0  0  0  0  0  0  0  0  0  0  0
  147.6315  137.5598  154.9069 C   0  0  0  0  0  0  0  0  0  0  0  0
  147.1453  138.4835  154.0045 N   0  0  0  0  0  0  0  0  0  0  0  0
  146.1127  138.3230  152.9261 C   0  0  2  0  0  0  0  0  0  0  0  0
  144.9812  137.7521  153.5086 O   0  0  0  0  0  0  0  0  0  0  0  0
  144.9879  136.3456  153.2964 C   0  0  1  0  0  0  0  0  0  0  0  0
  143.5890  135.7412  153.5156 C   0  0  0  0  0  0  0  0  0  0  0  0
  143.6667  134.3317  153.5361 O   0  0  0  0  0  0  0  0  0  0  0  0
  145.5458  136.2392  151.8694 C   0  0  1  0  0  0  0  0  0  0  0  0
  144.5099  136.4107  150.9151 O   0  0  0  0  0  0  0  0  0  0  0  0
  146.5892  137.3608  151.8204 C   0  0  1  0  0  0  0  0  0  0  0  0
  146.6745  137.9802  150.5505 O   0  0  0  0  0  0  0  0  0  0  0  0
  151.8110  141.4378  158.6928 C   0  0  0  0  0  0  0  0  0  0  0  0
  152.1407  140.1263  159.1083 C   0  0  0  0  0  0  0  0  0  0  0  0
  153.0651  139.9125  160.1476 C   0  0  0  0  0  0  0  0  0  0  0  0
  153.6639  141.0096  160.7917 C   0  0  0  0  0  0  0  0  0  0  0  0
  153.3320  142.3190  160.3984 C   0  0  0  0  0  0  0  0  0  0  0  0
  152.4074  142.5390  159.3578 C   0  0  0  0  0  0  0  0  0  0  0  0
  152.0275  144.1702  158.9278 Cl  0  0  0  0  0  0  0  0  0  0  0  0
  145.8973  139.3314  152.5721 H   0  0  0  0  0  0  0  0  0  0  0  0
  145.6967  135.8795  153.9812 H   0  0  0  0  0  0  0  0  0  0  0  0
  146.0010  135.2640  151.6938 H   0  0  0  0  0  0  0  0  0  0  0  0
  147.5735  136.9628  152.0652 H   0  0  0  0  0  0  0  0  0  0  0  0
  150.0400  143.5208  158.3647 H   0  0  0  0  0  0  0  0  0  0  0  0
  149.1007  142.1071  158.8365 H   0  0  0  0  0  0  0  0  0  0  0  0
  148.9633  142.7567  157.2035 H   0  0  0  0  0  0  0  0  0  0  0  0
  151.3044  142.1640  156.7348 H   0  0  0  0  0  0  0  0  0  0  0  0
  150.7732  139.5825  157.2224 H   0  0  0  0  0  0  0  0  0  0  0  0
  148.3641  142.7923  153.8885 H   0  0  0  0  0  0  0  0  0  0  0  0
  147.3201  136.5263  154.9264 H   0  0  0  0  0  0  0  0  0  0  0  0
  143.1354  136.1058  154.4377 H   0  0  0  0  0  0  0  0  0  0  0  0
  142.9274  136.0187  152.6944 H   0  0  0  0  0  0  0  0  0  0  0  0
  144.2729  134.0727  154.2131 H   0  0  0  0  0  0  0  0  0  0  0  0
  144.4804  137.3219  150.6660 H   0  0  0  0  0  0  0  0  0  0  0  0
  145.8564  138.4200  150.3754 H   0  0  0  0  0  0  0  0  0  0  0  0
  151.6875  139.2717  158.6279 H   0  0  0  0  0  0  0  0  0  0  0  0
  153.3130  138.9061  160.4510 H   0  0  0  0  0  0  0  0  0  0  0  0
  154.3731  140.8472  161.5900 H   0  0  0  0  0  0  0  0  0  0  0  0
  153.7880  143.1597  160.9005 H   0  0  0  0  0  0  0  0  0  0  0  0
  1  2  1  0  0  0  0
  1 33  1  0  0  0  0
  1 34  1  0  0  0  0
  1 35  1  0  0  0  0
  2  3  1  0  0  0  0
  2 22  1  0  0  0  0
  2 36  1  0  0  0  0
  3  4  1  0  0  0  0
  3 37  1  0  0  0  0
  4  9  1  0  0  0  0
  4  5  2  0  0  0  0
  5  6  1  0  0  0  0
  6  7  2  0  0  0  0
  6 38  1  0  0  0  0
  7  8  1  0  0  0  0
  8 12  1  0  0  0  0
  8  9  2  0  0  0  0
  9 10  1  0  0  0  0
 10 11  2  0  0  0  0
 11 12  1  0  0  0  0
 11 39  1  0  0  0  0
 12 13  1  0  0  0  0
 13 29  1  0  0  0  0
 13 20  1  0  0  0  0
 13 14  1  0  0  0  0
 14 15  1  0  0  0  0
 15 30  1  0  0  0  0
 15 16  1  0  0  0  0
 15 18  1  0  0  0  0
 16 17  1  0  0  0  0
 16 40  1  0  0  0  0
 16 41  1  0  0  0  0
 17 42  1  0  0  0  0
 18 31  1  0  0  0  0
 18 19  1  0  0  0  0
 18 20  1  0  0  0  0
 19 43  1  0  0  0  0
 20 32  1  0  0  0  0
 20 21  1  0  0  0  0
 21 44  1  0  0  0  0
 22 27  1  0  0  0  0
 22 23  2  0  0  0  0
 23 24  1  0  0  0  0
 23 45  1  0  0  0  0
 24 25  2  0  0  0  0
 24 46  1  0  0  0  0
 25 26  1  0  0  0  0
 25 47  1  0  0  0  0
 26 27  2  0  0  0  0
 26 48  1  0  0  0  0
 27 28  1  0  0  0  0
M  END
> <s_m_source_file>
AV-unprocessed.smi

> <i_m_source_file_index>
283

> <i_lp_mmshare_version>
43012

> <i_f3d_flags>
0

> <s_epik_input>
Q2xjMVtjSF1bY0hdW2NIXVtjSF1jMVtDQEhdKFtDSDNdKVtOSF1jKG5bY0hdbjIpYyhjMjMpbltjSF1uM1tDQEBIXTRPW0NASF0oW0NIMl1bT0hdKVtDQEBIXShbT0hdKVtDQEhdNFtPSF0=

> <s_epik_cmdline>
J2VwaWtfcHl0aG9uJywgJy1waCcsICc3LjAnLCAnLXRuJywgJzgnLCAnLW1hJywgJzIwMCcsICctbWV0YWxfYmluZGluZycsICctaW1hZScsICc8aW5maWxlLm1hZT4nLCAnLW9tYWUnLCAnPG91dGZpbGUubWFlPic=

> <r_lp_tautomer_probability>
1

> <r_epik_Ionization_Penalty>
0.000266407

> <r_epik_Ionization_Penalty_Charging>
0

> <r_epik_Ionization_Penalty_Neutral>
0.000266407

> <r_epik_State_Penalty>
-0

> <r_epik_Charging_Adjusted_Penalty>
0

> <i_epik_Tot_Q>
0

> <i_epik_Tot_abs_Q>
0

> <r_epik_Metal_State_Penalty>
-0

> <b_epik_Metal_Only>
0

> <s_epik_Chemistry_Notes>
This compound contains an acetal/aminal-like group ( X-CH(R)-Y where X, Y are N, S, or O) that may be acid/base labile, releasing an aldehyde.

> <s_lp_Force_Field>
OPLS_2005

> <r_lp_Energy>
46.6771

> <b_lp_Chiralities_Consistent>
1

> <s_lp_Variant>
AV-unprocessed.smi:283-5

> <Gold.Version>
5.8.1

> <Gold.Id.Protein>
6NUR|6NUR_protein|mol2

> <Gold.PLP.Fitness>
52.4866

> <Gold.PLP.PLP>
-42.2497

> <Gold.PLP.part.hbond>
-3.8829

> <Gold.PLP.part.metal>
0.0000

> <Gold.PLP.part.buried>
-3.3071

> <Gold.PLP.part.nonpolar>
-36.4032

> <Gold.PLP.part.repulsive>
0.8940

> <Gold.PLP.ligand.clash>
0.0000

> <Gold.PLP.ligand.torsion>
0.2055

> <Gold.PLP.Chemscore.Hbond>
2.9440

> <Gold.PLP.Chemscore.CHOScore>
0.5789

> <Gold.PLP.Chemscore.Metal>
0.0000

> <Gold.Chemscore.Hbonds>
donor molecule, donor type, donor heavy atom, donor atom, acceptor molecule, acceptor atom, score
      L1  H    19    43       P1 10171  1.00
      L1  H    21    44       P1 10171  0.96
      P1  H  7954  7966       L1    21  0.99
      L1  C     6    38       P1  8028  0.51

> <Gold.PLP.Chemscore.Internal.Correction>
0.0792

> <Gold.Rescore>
     Score         DG    S(hbond)    S(metal)    S(lipo)     H(rot)  DE(clash)    DE(int)     intcor
     14.33     -16.72       2.89        0.00     103.18       4.10       2.16       0.23       ----

> <Gold.Chemscore.Fitness>
14.3348

> <Gold.Chemscore.DG>
-16.7202

> <Gold.Chemscore.ZeroCoef>
-5.4800

> <Gold.Chemscore.Hbond>
2.8909

> <Gold.Chemscore.Metal>
0.0000

> <Gold.Chemscore.Lipo>
103.1829

> <Gold.Chemscore.Internal_Hbond>
0.0000

> <Gold.Chemscore.DEClash>
2.1600

> <Gold.Chemscore.DEInternal>
0.2253

> <Gold.Chemscore.Rot>
4.0968

> <Gold.Chemscore.Internal.Correction>
   9.000000E+99

> <Gold.Chemscore.Hbonds>
donor molecule, donor type, donor heavy atom, donor atom, acceptor molecule, acceptor atom, score
      L1  H    19    43       P1 10171  0.96
      L1  H    21    44       P1 10171  0.89
      P1  H  7954  7966       L1    21  0.80

> <Gold.Chemscore.Hbond.Weighted>
-9.6557

> <Gold.Chemscore.Metal.Weighted>
-0.0000

> <Gold.Chemscore.Lipo.Weighted>
-12.0724

> <Gold.Chemscore.Internal_Hbond.Weighted>
0.0000

> <Gold.Chemscore.DEClash.Weighted>
2.1600

> <Gold.Chemscore.DEInternal.Weighted>
0.2253

> <Gold.Chemscore.Rot.Weighted>
10.4879

> <Gold.Chemscore.Internal.Correction.Weighted>
   9.000000E+99

> <Gold.Protein.RotatedTorsions>
[ 6907 6896 6895 6894 ] final  136.96 input  -60.11 | X-H torsion
[ 7974 7965 7964 7962 ] final  -24.47 input  175.53 | X-H torsion
[ 8008 7997 7996 7995 ] final -159.80 input   59.86 | X-H torsion
[ 10167 10162 10161 10158 ] final   10.65 input  -65.29 | X-H torsion
[ 10718 10713 10712 10709 ] final   33.24 input   66.30 | X-H torsion
[ 10763 10752 10751 10750 ] final  151.90 input  -60.55 | X-H torsion
[ 11005 11000 10999 10996 ] final   97.20 input  -57.11 | X-H torsion

> <Gold.Protein.ActiveResidues>
 VAL166  LYS551  ARG553  GLY616  TRP617  ASP618  TYR619  PRO620  LYS621  CYS622 
 ASP623  PHE694  ASN695  SER759  ASP760  ASP761  ALA762  ILE779  LEU786  VAL792 
 PHE793  MET794  SER795  GLU796  ALA797  LYS798  CYS799  TRP800  GLU811  SER814 

> <Gold.Protein.RotatedAtoms>
  152.2835  133.5492  159.5512 H   0  0  0  0  0  0  0  0  0  0  0  0  # atno 6907 bound_to 6896
  150.7205  134.0531  159.3814 H   0  0  0  0  0  0  0  0  0  0  0  0  # atno 6908 bound_to 6896
  151.8440  135.0580  160.0502 H   0  0  0  0  0  0  0  0  0  0  0  0  # atno 6909 bound_to 6896
  146.1552  140.4756  142.8594 H   0  0  0  0  0  0  0  0  0  0  0  0  # atno 7974 bound_to 7965
  155.7680  140.0848  157.2122 H   0  0  0  0  0  0  0  0  0  0  0  0  # atno 8008 bound_to 7997
  154.3998  140.1530  156.2966 H   0  0  0  0  0  0  0  0  0  0  0  0  # atno 8009 bound_to 7997
  155.8775  140.3422  155.5867 H   0  0  0  0  0  0  0  0  0  0  0  0  # atno 8010 bound_to 7997
  140.6181  143.8265  150.7142 H   0  0  0  0  0  0  0  0  0  0  0  0  # atno 10167 bound_to 10162
  157.2954  130.7324  149.6635 H   0  0  0  0  0  0  0  0  0  0  0  0  # atno 10718 bound_to 10713
  154.1112  135.2839  155.3230 H   0  0  0  0  0  0  0  0  0  0  0  0  # atno 10763 bound_to 10752
  154.6488  135.5376  153.7880 H   0  0  0  0  0  0  0  0  0  0  0  0  # atno 10764 bound_to 10752
  153.0345  135.6505  154.1271 H   0  0  0  0  0  0  0  0  0  0  0  0  # atno 10765 bound_to 10752
  139.8777  134.8989  156.4272 H   0  0  0  0  0  0  0  0  0  0  0  0  # atno 11005 bound_to 11000
  144.7955  140.6114  143.6513 LP  0  0  0  0  0  0  0  0  0  0  0  0  # atno 17320 bound_to 7965
  145.4725  139.1502  143.3806 LP  0  0  0  0  0  0  0  0  0  0  0  0  # atno 17321 bound_to 7965
  140.1848  143.4084  152.1906 LP  0  0  0  0  0  0  0  0  0  0  0  0  # atno 17342 bound_to 10162
  139.5415  144.7261  151.4718 LP  0  0  0  0  0  0  0  0  0  0  0  0  # atno 17343 bound_to 10162
  155.9669  130.4296  150.4840 LP  0  0  0  0  0  0  0  0  0  0  0  0  # atno 17370 bound_to 10713
  157.2810  131.0607  151.2197 LP  0  0  0  0  0  0  0  0  0  0  0  0  # atno 17371 bound_to 10713
  140.9092  133.7724  155.9771 LP  0  0  0  0  0  0  0  0  0  0  0  0  # atno 17394 bound_to 11000
  140.8565  134.2891  157.5253 LP  0  0  0  0  0  0  0  0  0  0  0  0  # atno 17395 bound_to 11000

$$$$
