AV-unprocessed.smi:1976|AV-procd|sdf|7988|dock4
  -GOLD-   2272010173D 1   1.00000     0.00000
 Structure written by MMmdl.
 45 47  0  0  0  0  0  0  0  0  2 V2000
  146.1979  132.2897  154.5767 O   0  0  0  0  0  0  0  0  0  0  0  0
  147.2310  132.7442  154.0832 C   0  0  0  0  0  0  0  0  0  0  0  0
  148.6045  132.4188  154.6876 C   0  0  0  0  0  0  0  0  0  0  0  0
  149.0534  131.0426  154.4158 N   0  0  0  0  0  0  0  0  0  0  0  0
  148.1760  130.2133  153.6901 C   0  0  0  0  0  0  0  0  0  0  0  0
  148.4615  128.9329  153.3850 C   0  0  0  0  0  0  0  0  0  0  0  0
  147.5182  128.0800  152.5510 C   0  0  0  0  0  0  0  0  0  0  0  0
  148.0448  126.8797  152.3071 F   0  0  0  0  0  0  0  0  0  0  0  0
  146.3703  127.9045  153.2043 F   0  0  0  0  0  0  0  0  0  0  0  0
  147.2461  128.6631  151.3830 F   0  0  0  0  0  0  0  0  0  0  0  0
  149.7553  128.4404  153.8152 C   0  0  0  0  0  0  0  0  0  0  0  0
  150.6113  129.2238  154.5000 C   0  0  0  0  0  0  0  0  0  0  0  0
  150.2773  130.6081  154.8424 C   0  0  0  0  0  0  0  0  0  0  0  0
  151.0494  131.3342  155.4696 O   0  0  0  0  0  0  0  0  0  0  0  0
  147.2399  133.5435  153.0059 N   0  0  0  0  0  0  0  0  0  0  0  0
  146.0593  133.9519  152.2504 C   0  0  1  0  0  0  0  0  0  0  0  0
  145.9173  135.4758  152.1342 C   0  0  0  0  0  0  0  0  0  0  0  0
  145.3745  135.7287  150.7133 C   0  0  0  0  0  0  0  0  0  0  0  0
  145.1658  134.4001  150.0920 N   0  3  2  0  0  0  0  0  0  0  0  0
  143.7431  133.9663  150.1653 C   0  0  0  0  0  0  0  0  0  0  0  0
  143.5609  132.5035  149.7409 C   0  0  0  0  0  0  0  0  0  0  0  0
  144.4215  131.5892  150.6160 C   0  0  0  0  0  0  0  0  0  0  0  0
  145.8907  132.0041  150.4916 C   0  0  0  0  0  0  0  0  0  0  0  0
  146.1238  133.5042  150.7842 C   0  0  2  0  0  0  0  0  0  0  0  0
  149.3423  133.1285  154.3080 H   0  0  0  0  0  0  0  0  0  0  0  0
  148.5568  132.6049  155.7615 H   0  0  0  0  0  0  0  0  0  0  0  0
  147.2542  130.6891  153.3883 H   0  0  0  0  0  0  0  0  0  0  0  0
  150.0428  127.4249  153.5862 H   0  0  0  0  0  0  0  0  0  0  0  0
  151.5669  128.8232  154.8050 H   0  0  0  0  0  0  0  0  0  0  0  0
  148.1332  133.8788  152.6748 H   0  0  0  0  0  0  0  0  0  0  0  0
  145.1525  133.5618  152.7162 H   0  0  0  0  0  0  0  0  0  0  0  0
  145.2461  135.8664  152.8999 H   0  0  0  0  0  0  0  0  0  0  0  0
  146.8790  135.9770  152.2554 H   0  0  0  0  0  0  0  0  0  0  0  0
  144.4676  136.3354  150.7171 H   0  0  0  0  0  0  0  0  0  0  0  0
  146.1195  136.2691  150.1280 H   0  0  0  0  0  0  0  0  0  0  0  0
  143.3662  134.0956  151.1812 H   0  0  0  0  0  0  0  0  0  0  0  0
  143.1416  134.6138  149.5261 H   0  0  0  0  0  0  0  0  0  0  0  0
  142.5116  132.2195  149.8255 H   0  0  0  0  0  0  0  0  0  0  0  0
  143.8330  132.3822  148.6913 H   0  0  0  0  0  0  0  0  0  0  0  0
  144.0989  131.6483  151.6561 H   0  0  0  0  0  0  0  0  0  0  0  0
  144.2989  130.5501  150.3095 H   0  0  0  0  0  0  0  0  0  0  0  0
  146.5134  131.3852  151.1380 H   0  0  0  0  0  0  0  0  0  0  0  0
  146.2219  131.7933  149.4738 H   0  0  0  0  0  0  0  0  0  0  0  0
  147.1157  133.7575  150.4040 H   0  0  0  0  0  0  0  0  0  0  0  0
  145.4145  134.4455  149.1141 H   0  0  0  0  0  0  0  0  0  0  0  0
  1  2  2  0  0  0  0
  2  3  1  0  0  0  0
  2 15  1  0  0  0  0
  3  4  1  0  0  0  0
  3 25  1  0  0  0  0
  3 26  1  0  0  0  0
  4 13  1  0  0  0  0
  4  5  1  0  0  0  0
  5  6  2  0  0  0  0
  5 27  1  0  0  0  0
  6  7  1  0  0  0  0
  6 11  1  0  0  0  0
  7  8  1  0  0  0  0
  7  9  1  0  0  0  0
  7 10  1  0  0  0  0
 11 12  2  0  0  0  0
 11 28  1  0  0  0  0
 12 13  1  0  0  0  0
 12 29  1  0  0  0  0
 13 14  2  0  0  0  0
 15 16  1  0  0  0  0
 15 30  1  0  0  0  0
 16 24  1  0  0  0  0
 16 17  1  0  0  0  0
 16 31  1  0  0  0  0
 17 18  1  0  0  0  0
 17 32  1  0  0  0  0
 17 33  1  0  0  0  0
 18 19  1  0  0  0  0
 18 34  1  0  0  0  0
 18 35  1  0  0  0  0
 19 24  1  0  0  0  0
 19 20  1  0  0  0  0
 19 45  1  0  0  0  0
 20 21  1  0  0  0  0
 20 36  1  0  0  0  0
 20 37  1  0  0  0  0
 21 22  1  0  0  0  0
 21 38  1  0  0  0  0
 21 39  1  0  0  0  0
 22 23  1  0  0  0  0
 22 40  1  0  0  0  0
 22 41  1  0  0  0  0
 23 24  1  0  0  0  0
 23 42  1  0  0  0  0
 23 43  1  0  0  0  0
 24 44  1  0  0  0  0
M  CHG  1  19   1
M  END
> <s_m_source_file>
AV-unprocessed.smi

> <i_m_source_file_index>
1976

> <i_lp_mmshare_version>
43012

> <i_f3d_flags>
0

> <s_epik_input>
W0NIMl0xW0NIMl1bQ0gyXVtDSDJdW0NASF0oTjEyKVtDQEBIXShbQ0gyXVtDSDJdMilbTkhdQyg9TylbQ0gyXW4zW2NIXWMoQyhGKShGKUYpW2NIXVtjSF1jMz1P

> <s_epik_cmdline>
J2VwaWtfcHl0aG9uJywgJy1waCcsICc3LjAnLCAnLXRuJywgJzgnLCAnLW1hJywgJzIwMCcsICctbWV0YWxfYmluZGluZycsICctaW1hZScsICc8aW5maWxlLm1hZT4nLCAnLW9tYWUnLCAnPG91dGZpbGUubWFlPic=

> <r_lp_tautomer_probability>
1

> <r_epik_Ionization_Penalty>
0.00171506

> <r_epik_Ionization_Penalty_Charging>
0.00171498

> <r_epik_Ionization_Penalty_Neutral>
7.81737e-08

> <r_epik_State_Penalty>
0.00115937

> <r_epik_Charging_Adjusted_Penalty>
0.00287436

> <i_epik_Tot_Q>
1

> <i_epik_Tot_abs_Q>
1

> <r_epik_Metal_State_Penalty>
-0

> <b_epik_Metal_Only>
0

> <s_lp_Force_Field>
OPLS_2005

> <r_lp_Energy>
48.7142

> <b_lp_Chiralities_Consistent>
1

> <s_lp_Variant>
AV-unprocessed.smi:1976-6

> <Gold.Version>
5.8.1

> <Gold.Id.Protein>
6NUR|6NUR_protein|mol2

> <Gold.PLP.Fitness>
42.8959

> <Gold.PLP.PLP>
-40.9865

> <Gold.PLP.part.hbond>
-1.0000

> <Gold.PLP.part.metal>
0.0000

> <Gold.PLP.part.buried>
0.3682

> <Gold.PLP.part.nonpolar>
-41.6367

> <Gold.PLP.part.repulsive>
0.2062

> <Gold.PLP.ligand.clash>
0.7259

> <Gold.PLP.ligand.torsion>
0.2040

> <Gold.PLP.Chemscore.Hbond>
1.0000

> <Gold.PLP.Chemscore.CHOScore>
0.0000

> <Gold.PLP.Chemscore.Metal>
0.0000

> <Gold.Chemscore.Hbonds>
donor molecule, donor type, donor heavy atom, donor atom, acceptor molecule, acceptor atom, score
      L1  H    19    45       P1  7921  1.00

> <Gold.PLP.Chemscore.Internal.Correction>
0.0433

> <Gold.Rescore>
     Score         DG    S(hbond)    S(metal)    S(lipo)     H(rot)  DE(clash)    DE(int)     intcor
     12.86     -14.56       0.91        0.00      86.37       1.58       0.22       1.47       ----

> <Gold.Chemscore.Fitness>
12.8644

> <Gold.Chemscore.DG>
-14.5592

> <Gold.Chemscore.ZeroCoef>
-5.4800

> <Gold.Chemscore.Hbond>
0.9062

> <Gold.Chemscore.Metal>
0.0000

> <Gold.Chemscore.Lipo>
86.3661

> <Gold.Chemscore.Internal_Hbond>
0.0000

> <Gold.Chemscore.DEClash>
0.2237

> <Gold.Chemscore.DEInternal>
1.4712

> <Gold.Chemscore.Rot>
1.5830

> <Gold.Chemscore.Internal.Correction>
   9.000000E+99

> <Gold.Chemscore.Hbonds>
donor molecule, donor type, donor heavy atom, donor atom, acceptor molecule, acceptor atom, score
      L1  H    19    45       P1  7921  0.98

> <Gold.Chemscore.Hbond.Weighted>
-3.0267

> <Gold.Chemscore.Metal.Weighted>
-0.0000

> <Gold.Chemscore.Lipo.Weighted>
-10.1048

> <Gold.Chemscore.Internal_Hbond.Weighted>
0.0000

> <Gold.Chemscore.DEClash.Weighted>
0.2237

> <Gold.Chemscore.DEInternal.Weighted>
1.4712

> <Gold.Chemscore.Rot.Weighted>
4.0524

> <Gold.Chemscore.Internal.Correction.Weighted>
   9.000000E+99

> <Gold.Protein.RotatedTorsions>
[ 6907 6896 6895 6894 ] final   28.28 input  -60.11 | X-H torsion
[ 7974 7965 7964 7962 ] final   75.46 input  175.53 | X-H torsion
[ 8008 7997 7996 7995 ] final -157.64 input   59.86 | X-H torsion
[ 10167 10162 10161 10158 ] final    5.43 input  -65.29 | X-H torsion
[ 10718 10713 10712 10709 ] final    6.70 input   66.30 | X-H torsion
[ 10763 10752 10751 10750 ] final  -21.99 input  -60.55 | X-H torsion
[ 11005 11000 10999 10996 ] final  -17.66 input  -57.11 | X-H torsion

> <Gold.Protein.ActiveResidues>
 VAL166  LYS551  ARG553  GLY616  TRP617  ASP618  TYR619  PRO620  LYS621  CYS622 
 ASP623  PHE694  ASN695  SER759  ASP760  ASP761  ALA762  ILE779  LEU786  VAL792 
 PHE793  MET794  SER795  GLU796  ALA797  LYS798  CYS799  TRP800  GLU811  SER814 

> <Gold.Protein.RotatedAtoms>
  152.0146  134.9857  160.0568 H   0  0  0  0  0  0  0  0  0  0  0  0  # atno 6907 bound_to 6896
  152.1396  133.4451  159.4768 H   0  0  0  0  0  0  0  0  0  0  0  0  # atno 6908 bound_to 6896
  150.6864  134.2240  159.4451 H   0  0  0  0  0  0  0  0  0  0  0  0  # atno 6909 bound_to 6896
  145.7153  139.2629  143.1627 H   0  0  0  0  0  0  0  0  0  0  0  0  # atno 7974 bound_to 7965
  155.7356  140.0807  157.2269 H   0  0  0  0  0  0  0  0  0  0  0  0  # atno 8008 bound_to 7997
  154.4028  140.1587  156.2612 H   0  0  0  0  0  0  0  0  0  0  0  0  # atno 8009 bound_to 7997
  155.9069  140.3406  155.6071 H   0  0  0  0  0  0  0  0  0  0  0  0  # atno 8010 bound_to 7997
  140.6482  143.7609  150.7533 H   0  0  0  0  0  0  0  0  0  0  0  0  # atno 10167 bound_to 10162
  156.9261  130.5809  149.5648 H   0  0  0  0  0  0  0  0  0  0  0  0  # atno 10718 bound_to 10713
  153.6449  135.6983  153.5229 H   0  0  0  0  0  0  0  0  0  0  0  0  # atno 10763 bound_to 10752
  153.2753  135.4202  155.1026 H   0  0  0  0  0  0  0  0  0  0  0  0  # atno 10764 bound_to 10752
  154.8491  135.3588  154.5993 H   0  0  0  0  0  0  0  0  0  0  0  0  # atno 10765 bound_to 10752
  140.8191  133.8082  155.9641 H   0  0  0  0  0  0  0  0  0  0  0  0  # atno 11005 bound_to 11000
  146.0675  140.7905  142.9704 LP  0  0  0  0  0  0  0  0  0  0  0  0  # atno 17320 bound_to 7965
  144.6931  140.3291  143.7219 LP  0  0  0  0  0  0  0  0  0  0  0  0  # atno 17321 bound_to 7965
  140.1255  143.4573  152.2287 LP  0  0  0  0  0  0  0  0  0  0  0  0  # atno 17342 bound_to 10162
  139.5695  144.7454  151.3931 LP  0  0  0  0  0  0  0  0  0  0  0  0  # atno 17343 bound_to 10162
  156.0468  130.5544  150.8900 LP  0  0  0  0  0  0  0  0  0  0  0  0  # atno 17370 bound_to 10713
  157.5877  131.0945  150.9170 LP  0  0  0  0  0  0  0  0  0  0  0  0  # atno 17371 bound_to 10713
  140.9118  134.2251  157.4981 LP  0  0  0  0  0  0  0  0  0  0  0  0  # atno 17394 bound_to 11000
  139.8709  134.9753  156.4879 LP  0  0  0  0  0  0  0  0  0  0  0  0  # atno 17395 bound_to 11000

$$$$
