AV-unprocessed.smi:402|AV-procd|sdf|2495|dock2
  -GOLD-   2262022443D 1   1.00000     0.00000
 Structure written by MMmdl.
 38 39  0  0  0  0  0  0  0  0  1 V2000
  150.5397  141.0572  157.8850 O   0  0  0  0  0  0  0  0  0  0  0  0
  149.8455  141.9516  157.4033 C   0  0  0  0  0  0  0  0  0  0  0  0
  148.3240  141.7444  157.2995 C   0  0  0  0  0  0  0  0  0  0  0  0
  147.8579  141.1733  156.0221 N   0  0  0  0  0  0  0  0  0  0  0  0
  148.3310  141.7798  154.8414 C   0  0  0  0  0  0  0  0  0  0  0  0
  147.9754  141.3386  153.6246 C   0  0  0  0  0  0  0  0  0  0  0  0
  147.0806  140.2086  153.5429 C   0  0  0  0  0  0  0  0  0  0  0  0
  146.6248  139.6186  154.6657 C   0  0  0  0  0  0  0  0  0  0  0  0
  147.0139  140.0952  155.9980 C   0  0  0  0  0  0  0  0  0  0  0  0
  146.6133  139.5537  157.0284 O   0  0  0  0  0  0  0  0  0  0  0  0
  150.3603  143.1082  156.9568 N   0  0  0  0  0  0  0  0  0  0  0  0
  151.7770  143.4449  156.9370 C   0  0  0  0  0  0  0  0  0  0  0  0
  152.2797  143.8182  158.3447 C   0  0  0  0  0  0  0  0  0  0  0  0
  152.3253  142.6005  159.2962 C   0  0  0  0  0  0  0  0  0  0  0  0
  152.8086  142.9934  160.7016 C   0  0  0  0  0  0  0  0  0  0  0  0
  151.9443  144.1155  161.2958 C   0  0  0  0  0  0  0  0  0  0  0  0
  151.9026  145.3333  160.3609 C   0  0  0  0  0  0  0  0  0  0  0  0
  151.4162  144.9399  158.9565 C   0  0  0  0  0  0  0  0  0  0  0  0
  148.0054  141.1134  158.1312 H   0  0  0  0  0  0  0  0  0  0  0  0
  147.8411  142.7060  157.4786 H   0  0  0  0  0  0  0  0  0  0  0  0
  149.0002  142.6150  154.9896 H   0  0  0  0  0  0  0  0  0  0  0  0
  148.3505  141.8148  152.7307 H   0  0  0  0  0  0  0  0  0  0  0  0
  146.7754  139.8344  152.5766 H   0  0  0  0  0  0  0  0  0  0  0  0
  145.9567  138.7737  154.5849 H   0  0  0  0  0  0  0  0  0  0  0  0
  149.7245  143.7949  156.5779 H   0  0  0  0  0  0  0  0  0  0  0  0
  152.3317  142.5877  156.5529 H   0  0  0  0  0  0  0  0  0  0  0  0
  151.9537  144.2737  156.2490 H   0  0  0  0  0  0  0  0  0  0  0  0
  153.2963  144.2022  158.2430 H   0  0  0  0  0  0  0  0  0  0  0  0
  151.3332  142.1521  159.3657 H   0  0  0  0  0  0  0  0  0  0  0  0
  152.9839  141.8272  158.8991 H   0  0  0  0  0  0  0  0  0  0  0  0
  152.7890  142.1227  161.3577 H   0  0  0  0  0  0  0  0  0  0  0  0
  153.8482  143.3195  160.6520 H   0  0  0  0  0  0  0  0  0  0  0  0
  150.9311  143.7476  161.4628 H   0  0  0  0  0  0  0  0  0  0  0  0
  152.3327  144.4078  162.2717 H   0  0  0  0  0  0  0  0  0  0  0  0
  151.2499  146.1001  160.7790 H   0  0  0  0  0  0  0  0  0  0  0  0
  152.8967  145.7770  160.2932 H   0  0  0  0  0  0  0  0  0  0  0  0
  151.4307  145.8172  158.3087 H   0  0  0  0  0  0  0  0  0  0  0  0
  150.3760  144.6158  159.0113 H   0  0  0  0  0  0  0  0  0  0  0  0
  1  2  2  0  0  0  0
  2  3  1  0  0  0  0
  2 11  1  0  0  0  0
  3  4  1  0  0  0  0
  3 19  1  0  0  0  0
  3 20  1  0  0  0  0
  4  9  1  0  0  0  0
  4  5  1  0  0  0  0
  5  6  2  0  0  0  0
  5 21  1  0  0  0  0
  6  7  1  0  0  0  0
  6 22  1  0  0  0  0
  7  8  2  0  0  0  0
  7 23  1  0  0  0  0
  8  9  1  0  0  0  0
  8 24  1  0  0  0  0
  9 10  2  0  0  0  0
 11 12  1  0  0  0  0
 11 25  1  0  0  0  0
 12 13  1  0  0  0  0
 12 26  1  0  0  0  0
 12 27  1  0  0  0  0
 13 18  1  0  0  0  0
 13 14  1  0  0  0  0
 13 28  1  0  0  0  0
 14 15  1  0  0  0  0
 14 29  1  0  0  0  0
 14 30  1  0  0  0  0
 15 16  1  0  0  0  0
 15 31  1  0  0  0  0
 15 32  1  0  0  0  0
 16 17  1  0  0  0  0
 16 33  1  0  0  0  0
 16 34  1  0  0  0  0
 17 18  1  0  0  0  0
 17 35  1  0  0  0  0
 17 36  1  0  0  0  0
 18 37  1  0  0  0  0
 18 38  1  0  0  0  0
M  END
> <s_m_source_file>
AV-unprocessed.smi

> <i_m_source_file_index>
402

> <i_lp_mmshare_version>
43012

> <i_f3d_flags>
0

> <s_epik_input>
W0NIMl0xW0NIMl1bQ0gyXVtDSDJdW0NIMl1bQ0hdMVtDSDJdW05IXUMoPU8pW0NIMl1uMltjSF1bY0hdW2NIXVtjSF1jMj1P

> <s_epik_cmdline>
J2VwaWtfcHl0aG9uJywgJy1waCcsICc3LjAnLCAnLXRuJywgJzgnLCAnLW1hJywgJzIwMCcsICctbWV0YWxfYmluZGluZycsICctaW1hZScsICc8aW5maWxlLm1hZT4nLCAnLW9tYWUnLCAnPG91dGZpbGUubWFlPic=

> <r_lp_tautomer_probability>
1

> <r_epik_Ionization_Penalty>
3.79717e-07

> <r_epik_Ionization_Penalty_Charging>
3.5992e-07

> <r_epik_Ionization_Penalty_Neutral>
1.97978e-08

> <r_epik_State_Penalty>
-0

> <r_epik_Charging_Adjusted_Penalty>
3.5992e-07

> <i_epik_Tot_Q>
0

> <i_epik_Tot_abs_Q>
0

> <r_epik_Metal_State_Penalty>
-0

> <b_epik_Metal_Only>
0

> <s_lp_Force_Field>
OPLS_2005

> <r_lp_Energy>
19.8269

> <b_lp_Chiralities_Consistent>
1

> <s_lp_Variant>
AV-unprocessed.smi:402-1

> <Gold.Version>
5.8.1

> <Gold.Id.Protein>
6NUR|6NUR_protein|mol2

> <Gold.PLP.Fitness>
42.3273

> <Gold.PLP.PLP>
-37.5176

> <Gold.PLP.part.hbond>
-1.0000

> <Gold.PLP.part.metal>
0.0000

> <Gold.PLP.part.buried>
-4.9458

> <Gold.PLP.part.nonpolar>
-31.8158

> <Gold.PLP.part.repulsive>
0.0327

> <Gold.PLP.ligand.clash>
0.0045

> <Gold.PLP.ligand.torsion>
0.6075

> <Gold.PLP.Chemscore.Hbond>
1.0000

> <Gold.PLP.Chemscore.CHOScore>
1.0000

> <Gold.PLP.Chemscore.Metal>
0.0000

> <Gold.Chemscore.Hbonds>
donor molecule, donor type, donor heavy atom, donor atom, acceptor molecule, acceptor atom, score
      L1  H    11    25       P1  8028  1.00
      L1  C     5    21       P1  8028  1.00

> <Gold.PLP.Chemscore.Internal.Correction>
0.0292

> <Gold.Rescore>
     Score         DG    S(hbond)    S(metal)    S(lipo)     H(rot)  DE(clash)    DE(int)     intcor
     14.53     -17.96       0.99        0.00     112.74       1.57       1.45       1.98       ----

> <Gold.Chemscore.Fitness>
14.5325

> <Gold.Chemscore.DG>
-17.9592

> <Gold.Chemscore.ZeroCoef>
-5.4800

> <Gold.Chemscore.Hbond>
0.9917

> <Gold.Chemscore.Metal>
0.0000

> <Gold.Chemscore.Lipo>
112.7355

> <Gold.Chemscore.Internal_Hbond>
0.0000

> <Gold.Chemscore.DEClash>
1.4499

> <Gold.Chemscore.DEInternal>
1.9768

> <Gold.Chemscore.Rot>
1.5715

> <Gold.Chemscore.Internal.Correction>
   9.000000E+99

> <Gold.Chemscore.Hbonds>
donor molecule, donor type, donor heavy atom, donor atom, acceptor molecule, acceptor atom, score
      L1  H    11    25       P1  8028  0.94

> <Gold.Chemscore.Hbond.Weighted>
-3.3122

> <Gold.Chemscore.Metal.Weighted>
-0.0000

> <Gold.Chemscore.Lipo.Weighted>
-13.1901

> <Gold.Chemscore.Internal_Hbond.Weighted>
0.0000

> <Gold.Chemscore.DEClash.Weighted>
1.4499

> <Gold.Chemscore.DEInternal.Weighted>
1.9768

> <Gold.Chemscore.Rot.Weighted>
4.0231

> <Gold.Chemscore.Internal.Correction.Weighted>
   9.000000E+99

> <Gold.Protein.RotatedTorsions>
[ 6907 6896 6895 6894 ] final   29.39 input  -60.11 | X-H torsion
[ 7974 7965 7964 7962 ] final  -63.82 input  175.53 | X-H torsion
[ 8008 7997 7996 7995 ] final   51.97 input   59.86 | X-H torsion
[ 10167 10162 10161 10158 ] final  138.41 input  -65.29 | X-H torsion
[ 10718 10713 10712 10709 ] final  130.86 input   66.30 | X-H torsion
[ 10763 10752 10751 10750 ] final   55.89 input  -60.55 | X-H torsion
[ 11005 11000 10999 10996 ] final   37.34 input  -57.11 | X-H torsion

> <Gold.Protein.ActiveResidues>
 VAL166  LYS551  ARG553  GLY616  TRP617  ASP618  TYR619  PRO620  LYS621  CYS622 
 ASP623  PHE694  ASN695  SER759  ASP760  ASP761  ALA762  ILE779  LEU786  VAL792 
 PHE793  MET794  SER795  GLU796  ALA797  LYS798  CYS799  TRP800  GLU811  SER814 

> <Gold.Protein.RotatedAtoms>
  152.0309  134.9768  160.0572 H   0  0  0  0  0  0  0  0  0  0  0  0  # atno 6907 bound_to 6896
  152.1245  133.4367  159.4700 H   0  0  0  0  0  0  0  0  0  0  0  0  # atno 6908 bound_to 6896
  150.6851  134.2413  159.4517 H   0  0  0  0  0  0  0  0  0  0  0  0  # atno 6909 bound_to 6896
  145.7744  140.8796  143.0363 H   0  0  0  0  0  0  0  0  0  0  0  0  # atno 7974 bound_to 7965
  155.4441  140.3455  155.4293 H   0  0  0  0  0  0  0  0  0  0  0  0  # atno 8008 bound_to 7997
  156.1261  140.1501  156.9165 H   0  0  0  0  0  0  0  0  0  0  0  0  # atno 8009 bound_to 7997
  154.4859  140.0855  156.7464 H   0  0  0  0  0  0  0  0  0  0  0  0  # atno 8010 bound_to 7997
  139.5112  144.6355  151.5708 H   0  0  0  0  0  0  0  0  0  0  0  0  # atno 10167 bound_to 10162
  157.5022  131.1094  150.9410 H   0  0  0  0  0  0  0  0  0  0  0  0  # atno 10718 bound_to 10713
  152.9823  135.5695  154.5140 H   0  0  0  0  0  0  0  0  0  0  0  0  # atno 10763 bound_to 10752
  154.4639  135.2782  155.1695 H   0  0  0  0  0  0  0  0  0  0  0  0  # atno 10764 bound_to 10752
  154.3271  135.6257  153.5587 H   0  0  0  0  0  0  0  0  0  0  0  0  # atno 10765 bound_to 10752
  140.2235  134.3612  155.7994 H   0  0  0  0  0  0  0  0  0  0  0  0  # atno 11005 bound_to 11000
  144.6807  139.9900  143.7484 LP  0  0  0  0  0  0  0  0  0  0  0  0  # atno 17320 bound_to 7965
  146.0138  139.3192  143.0854 LP  0  0  0  0  0  0  0  0  0  0  0  0  # atno 17321 bound_to 7965
  140.6102  143.9449  150.6448 LP  0  0  0  0  0  0  0  0  0  0  0  0  # atno 17342 bound_to 10162
  140.2689  143.3470  152.1255 LP  0  0  0  0  0  0  0  0  0  0  0  0  # atno 17343 bound_to 10162
  157.0077  130.5625  149.5317 LP  0  0  0  0  0  0  0  0  0  0  0  0  # atno 17370 bound_to 10713
  156.0236  130.5331  150.8345 LP  0  0  0  0  0  0  0  0  0  0  0  0  # atno 17371 bound_to 10713
  141.2222  133.7206  156.8615 LP  0  0  0  0  0  0  0  0  0  0  0  0  # atno 17394 bound_to 11000
  140.1825  134.9023  157.2965 LP  0  0  0  0  0  0  0  0  0  0  0  0  # atno 17395 bound_to 11000

$$$$
