AV-unprocessed.smi:2917|AV-procd|sdf|11190|dock4
  -GOLD-   2272016 83D 1   1.00000     0.00000
 Structure written by MMmdl.
 34 35  0  0  0  0  0  0  0  0  1 V2000
  148.4819  140.0879  154.0810 C   0  0  0  0  0  0  0  0  0  0  0  0
  147.7468  141.2680  154.7524 C   0  0  0  0  0  0  0  0  0  0  0  0
  148.7039  142.0833  155.5165 N   0  0  0  0  0  0  0  0  0  0  0  0
  149.5745  141.6872  156.4604 C   0  0  0  0  0  0  0  0  0  0  0  0
  149.6946  140.5239  156.8424 O   0  0  0  0  0  0  0  0  0  0  0  0
  150.2737  142.7320  156.9353 N   0  0  0  0  0  0  0  0  0  0  0  0
  151.2829  142.7391  157.9360 C   0  0  0  0  0  0  0  0  0  0  0  0
  151.9178  143.9091  158.4189 C   0  0  0  0  0  0  0  0  0  0  0  0
  152.8919  143.7863  159.4283 C   0  0  0  0  0  0  0  0  0  0  0  0
  153.1905  142.5019  159.9228 C   0  0  0  0  0  0  0  0  0  0  0  0
  152.5834  141.3800  159.4821 N   0  0  0  0  0  0  0  0  0  0  0  0
  151.6496  141.5056  158.5149 C   0  0  0  0  0  0  0  0  0  0  0  0
  146.9842  142.1102  153.7001 C   0  0  0  0  0  0  0  0  0  0  0  0
  146.0627  143.1550  154.3549 C   0  0  0  0  0  0  0  0  0  0  0  0
  145.1437  142.5096  155.2285 O   0  0  0  0  0  0  0  0  0  0  0  0
  145.7846  141.8250  156.2983 C   0  0  0  0  0  0  0  0  0  0  0  0
  146.6988  140.7161  155.7434 C   0  0  0  0  0  0  0  0  0  0  0  0
  147.7801  139.4134  153.5894 H   0  0  0  0  0  0  0  0  0  0  0  0
  149.0409  139.5015  154.8112 H   0  0  0  0  0  0  0  0  0  0  0  0
  149.1849  140.4235  153.3189 H   0  0  0  0  0  0  0  0  0  0  0  0
  148.6982  143.0685  155.2971 H   0  0  0  0  0  0  0  0  0  0  0  0
  150.0084  143.6401  156.5830 H   0  0  0  0  0  0  0  0  0  0  0  0
  151.6700  144.8918  158.0494 H   0  0  0  0  0  0  0  0  0  0  0  0
  153.3952  144.6584  159.8183 H   0  0  0  0  0  0  0  0  0  0  0  0
  153.9320  142.3734  160.6974 H   0  0  0  0  0  0  0  0  0  0  0  0
  151.1830  140.5873  158.1890 H   0  0  0  0  0  0  0  0  0  0  0  0
  147.6683  142.5997  153.0074 H   0  0  0  0  0  0  0  0  0  0  0  0
  146.3703  141.4488  153.0871 H   0  0  0  0  0  0  0  0  0  0  0  0
  146.6387  143.9039  154.9007 H   0  0  0  0  0  0  0  0  0  0  0  0
  145.5002  143.6877  153.5880 H   0  0  0  0  0  0  0  0  0  0  0  0
  146.3460  142.5315  156.9114 H   0  0  0  0  0  0  0  0  0  0  0  0
  145.0201  141.3899  156.9420 H   0  0  0  0  0  0  0  0  0  0  0  0
  146.0738  139.9761  155.2411 H   0  0  0  0  0  0  0  0  0  0  0  0
  147.1879  140.1913  156.5654 H   0  0  0  0  0  0  0  0  0  0  0  0
  1  2  1  0  0  0  0
  1 18  1  0  0  0  0
  1 19  1  0  0  0  0
  1 20  1  0  0  0  0
  2 17  1  0  0  0  0
  2  3  1  0  0  0  0
  2 13  1  0  0  0  0
  3  4  1  0  0  0  0
  3 21  1  0  0  0  0
  4  5  2  0  0  0  0
  4  6  1  0  0  0  0
  6  7  1  0  0  0  0
  6 22  1  0  0  0  0
  7 12  1  0  0  0  0
  7  8  2  0  0  0  0
  8  9  1  0  0  0  0
  8 23  1  0  0  0  0
  9 10  2  0  0  0  0
  9 24  1  0  0  0  0
 10 11  1  0  0  0  0
 10 25  1  0  0  0  0
 11 12  2  0  0  0  0
 12 26  1  0  0  0  0
 13 14  1  0  0  0  0
 13 27  1  0  0  0  0
 13 28  1  0  0  0  0
 14 15  1  0  0  0  0
 14 29  1  0  0  0  0
 14 30  1  0  0  0  0
 15 16  1  0  0  0  0
 16 17  1  0  0  0  0
 16 31  1  0  0  0  0
 16 32  1  0  0  0  0
 17 33  1  0  0  0  0
 17 34  1  0  0  0  0
M  END
> <s_m_source_file>
AV-unprocessed.smi

> <i_m_source_file_index>
2917

> <i_lp_mmshare_version>
43012

> <i_f3d_flags>
0

> <s_epik_input>
W0NIMl0xW0NIMl1PW0NIMl1bQ0gyXUMxKFtDSDNdKVtOSF1DKD1PKVtOSF1jMltjSF1bY0hdW2NIXW5bY0hdMg==

> <s_epik_cmdline>
J2VwaWtfcHl0aG9uJywgJy1waCcsICc3LjAnLCAnLXRuJywgJzgnLCAnLW1hJywgJzIwMCcsICctbWV0YWxfYmluZGluZycsICctaW1hZScsICc8aW5maWxlLm1hZT4nLCAnLW9tYWUnLCAnPG91dGZpbGUubWFlPic=

> <r_epik_Ionization_Penalty>
0.00491607

> <r_epik_Ionization_Penalty_Charging>
0

> <r_epik_Ionization_Penalty_Neutral>
0.00491607

> <r_epik_State_Penalty>
0.00354213

> <r_epik_Charging_Adjusted_Penalty>
0.00354213

> <i_epik_Tot_Q>
0

> <i_epik_Tot_abs_Q>
0

> <r_epik_Metal_State_Penalty>
-0

> <b_epik_Metal_Only>
0

> <s_lp_Force_Field>
OPLS_2005

> <r_lp_Energy>
13.2781

> <b_lp_Chiralities_Consistent>
1

> <s_lp_Variant>
AV-unprocessed.smi:2917-1

> <Gold.Version>
5.8.1

> <Gold.Id.Protein>
6NUR|6NUR_protein|mol2

> <Gold.PLP.Fitness>
38.9589

> <Gold.PLP.PLP>
-33.0395

> <Gold.PLP.part.hbond>
-2.0000

> <Gold.PLP.part.metal>
0.0000

> <Gold.PLP.part.buried>
-5.1191

> <Gold.PLP.part.nonpolar>
-25.9896

> <Gold.PLP.part.repulsive>
0.3537

> <Gold.PLP.ligand.clash>
0.0000

> <Gold.PLP.ligand.torsion>
0.0437

> <Gold.PLP.Chemscore.Hbond>
2.0000

> <Gold.PLP.Chemscore.CHOScore>
0.0000

> <Gold.PLP.Chemscore.Metal>
0.0000

> <Gold.Chemscore.Hbonds>
donor molecule, donor type, donor heavy atom, donor atom, acceptor molecule, acceptor atom, score
      L1  H     3    21       P1  8028  1.00
      L1  H     6    22       P1  8028  1.00

> <Gold.PLP.Chemscore.Internal.Correction>
0.0068

> <Gold.Rescore>
     Score         DG    S(hbond)    S(metal)    S(lipo)     H(rot)  DE(clash)    DE(int)     intcor
     17.63     -19.09       1.94        0.00      82.93       1.00       0.01       1.45       ----

> <Gold.Chemscore.Fitness>
17.6267

> <Gold.Chemscore.DG>
-19.0912

> <Gold.Chemscore.ZeroCoef>
-5.4800

> <Gold.Chemscore.Hbond>
1.9368

> <Gold.Chemscore.Metal>
0.0000

> <Gold.Chemscore.Lipo>
82.9263

> <Gold.Chemscore.Internal_Hbond>
0.0000

> <Gold.Chemscore.DEClash>
0.0110

> <Gold.Chemscore.DEInternal>
1.4535

> <Gold.Chemscore.Rot>
1.0000

> <Gold.Chemscore.Internal.Correction>
   9.000000E+99

> <Gold.Chemscore.Hbonds>
donor molecule, donor type, donor heavy atom, donor atom, acceptor molecule, acceptor atom, score
      L1  H     3    21       P1  8028  0.98
      L1  H     6    22       P1  8028  0.96

> <Gold.Chemscore.Hbond.Weighted>
-6.4688

> <Gold.Chemscore.Metal.Weighted>
-0.0000

> <Gold.Chemscore.Lipo.Weighted>
-9.7024

> <Gold.Chemscore.Internal_Hbond.Weighted>
0.0000

> <Gold.Chemscore.DEClash.Weighted>
0.0110

> <Gold.Chemscore.DEInternal.Weighted>
1.4535

> <Gold.Chemscore.Rot.Weighted>
2.5600

> <Gold.Chemscore.Internal.Correction.Weighted>
   9.000000E+99

> <Gold.Protein.RotatedTorsions>
[ 6907 6896 6895 6894 ] final  170.17 input  -60.11 | X-H torsion
[ 7974 7965 7964 7962 ] final  167.66 input  175.53 | X-H torsion
[ 8008 7997 7996 7995 ] final   34.10 input   59.86 | X-H torsion
[ 10167 10162 10161 10158 ] final   -8.84 input  -65.29 | X-H torsion
[ 10718 10713 10712 10709 ] final  123.22 input   66.30 | X-H torsion
[ 10763 10752 10751 10750 ] final -126.79 input  -60.55 | X-H torsion
[ 11005 11000 10999 10996 ] final  133.61 input  -57.11 | X-H torsion

> <Gold.Protein.ActiveResidues>
 VAL166  LYS551  ARG553  GLY616  TRP617  ASP618  TYR619  PRO620  LYS621  CYS622 
 ASP623  PHE694  ASN695  SER759  ASP760  ASP761  ALA762  ILE779  LEU786  VAL792 
 PHE793  MET794  SER795  GLU796  ALA797  LYS798  CYS799  TRP800  GLU811  SER814 

> <Gold.Protein.RotatedAtoms>
  151.8203  133.3393  159.3581 H   0  0  0  0  0  0  0  0  0  0  0  0  # atno 6907 bound_to 6896
  150.7297  134.5580  159.5837 H   0  0  0  0  0  0  0  0  0  0  0  0  # atno 6908 bound_to 6896
  152.3011  134.7611  160.0409 H   0  0  0  0  0  0  0  0  0  0  0  0  # atno 6909 bound_to 6896
  144.7416  139.8793  143.6395 H   0  0  0  0  0  0  0  0  0  0  0  0  # atno 7974 bound_to 7965
  155.1494  140.3273  155.4434 H   0  0  0  0  0  0  0  0  0  0  0  0  # atno 8008 bound_to 7997
  156.2579  140.1979  156.6557 H   0  0  0  0  0  0  0  0  0  0  0  0  # atno 8009 bound_to 7997
  154.6484  140.0561  156.9913 H   0  0  0  0  0  0  0  0  0  0  0  0  # atno 8010 bound_to 7997
  140.7070  143.5924  150.8880 H   0  0  0  0  0  0  0  0  0  0  0  0  # atno 10167 bound_to 10162
  157.5681  131.1085  150.8417 H   0  0  0  0  0  0  0  0  0  0  0  0  # atno 10718 bound_to 10713
  154.8748  135.3983  154.3488 H   0  0  0  0  0  0  0  0  0  0  0  0  # atno 10763 bound_to 10752
  153.4277  135.7024  153.6257 H   0  0  0  0  0  0  0  0  0  0  0  0  # atno 10764 bound_to 10752
  153.4892  135.3752  155.2452 H   0  0  0  0  0  0  0  0  0  0  0  0  # atno 10765 bound_to 10752
  139.9862  134.9531  156.9749 H   0  0  0  0  0  0  0  0  0  0  0  0  # atno 11005 bound_to 11000
  146.1223  139.4243  143.0220 LP  0  0  0  0  0  0  0  0  0  0  0  0  # atno 17320 bound_to 7965
  145.7286  141.0050  143.1364 LP  0  0  0  0  0  0  0  0  0  0  0  0  # atno 17321 bound_to 7965
  139.9649  143.6122  152.2991 LP  0  0  0  0  0  0  0  0  0  0  0  0  # atno 17342 bound_to 10162
  139.6688  144.7661  151.1823 LP  0  0  0  0  0  0  0  0  0  0  0  0  # atno 17343 bound_to 10162
  156.8896  130.5208  149.5287 LP  0  0  0  0  0  0  0  0  0  0  0  0  # atno 17370 bound_to 10713
  156.0728  130.5757  150.9417 LP  0  0  0  0  0  0  0  0  0  0  0  0  # atno 17371 bound_to 10713
  140.4997  134.1109  155.7248 LP  0  0  0  0  0  0  0  0  0  0  0  0  # atno 17394 bound_to 11000
  141.1527  133.8940  157.2057 LP  0  0  0  0  0  0  0  0  0  0  0  0  # atno 17395 bound_to 11000

$$$$
