AV-unprocessed.smi:2012|AV-procd|sdf|8156|dock2
  -GOLD-   2272010393D 1   1.00000     0.00000
 Structure written by MMmdl.
 50 51  0  0  0  0  0  0  0  0  1 V2000
  148.1120  140.8254  154.1215 C   0  0  0  0  0  0  0  0  0  0  0  0
  149.3644  140.2376  154.7633 C   0  0  0  0  0  0  0  0  0  0  0  0
  150.4030  140.1609  154.1096 O   0  0  0  0  0  0  0  0  0  0  0  0
  149.2366  139.8182  156.0351 N   0  0  0  0  0  0  0  0  0  0  0  0
  150.2560  139.2421  156.9237 C   0  0  1  0  0  0  0  0  0  0  0  0
  151.4232  140.2220  157.1390 C   0  0  0  0  0  0  0  0  0  0  0  0
  152.5725  139.8980  156.8390 O   0  0  0  0  0  0  0  0  0  0  0  0
  151.1099  141.4309  157.6319 N   0  0  0  0  0  0  0  0  0  0  0  0
  152.0629  142.5132  157.8511 C   0  0  0  0  0  0  0  0  0  0  0  0
  152.2857  142.8273  159.3220 C   0  0  0  0  0  0  0  0  0  0  0  0
  151.5615  143.8598  159.9470 C   0  0  0  0  0  0  0  0  0  0  0  0
  151.7973  144.1073  161.3109 C   0  0  0  0  0  0  0  0  0  0  0  0
  152.6847  143.4066  162.0470 N   0  0  0  0  0  0  0  0  0  0  0  0
  153.3971  142.4136  161.4601 C   0  0  0  0  0  0  0  0  0  0  0  0
  154.3037  141.7062  162.2851 N   0  0  0  0  0  0  0  0  0  0  0  0
  154.3019  141.9711  163.7223 C   0  0  0  0  0  0  0  0  0  0  0  0
  155.5545  141.3788  164.3893 C   0  0  0  0  0  0  0  0  0  0  0  0
  155.6598  139.9952  164.0764 O   0  0  0  0  0  0  0  0  0  0  0  0
  155.8091  139.7869  162.6773 C   0  0  0  0  0  0  0  0  0  0  0  0
  154.5665  140.3093  161.9366 C   0  0  0  0  0  0  0  0  0  0  0  0
  153.2228  142.1000  160.0874 C   0  0  0  0  0  0  0  0  0  0  0  0
  149.6842  138.5823  158.2182 C   0  0  0  0  0  0  0  0  0  0  0  0
  150.7435  137.7826  159.0019 C   0  0  0  0  0  0  0  0  0  0  0  0
  148.4780  137.6717  157.9183 C   0  0  0  0  0  0  0  0  0  0  0  0
  147.4356  141.2337  154.8734 H   0  0  0  0  0  0  0  0  0  0  0  0
  147.5813  140.0551  153.5617 H   0  0  0  0  0  0  0  0  0  0  0  0
  148.3779  141.6286  153.4336 H   0  0  0  0  0  0  0  0  0  0  0  0
  148.3213  139.9237  156.4473 H   0  0  0  0  0  0  0  0  0  0  0  0
  150.6662  138.4210  156.3332 H   0  0  0  0  0  0  0  0  0  0  0  0
  150.1421  141.6227  157.8457 H   0  0  0  0  0  0  0  0  0  0  0  0
  153.0183  142.2210  157.4152 H   0  0  0  0  0  0  0  0  0  0  0  0
  151.7402  143.4085  157.3167 H   0  0  0  0  0  0  0  0  0  0  0  0
  150.8375  144.4460  159.4003 H   0  0  0  0  0  0  0  0  0  0  0  0
  151.2581  144.8882  161.8262 H   0  0  0  0  0  0  0  0  0  0  0  0
  154.2907  143.0438  163.9128 H   0  0  0  0  0  0  0  0  0  0  0  0
  153.4011  141.5451  164.1660 H   0  0  0  0  0  0  0  0  0  0  0  0
  156.4532  141.9061  164.0650 H   0  0  0  0  0  0  0  0  0  0  0  0
  155.4923  141.4946  165.4714 H   0  0  0  0  0  0  0  0  0  0  0  0
  156.7125  140.2824  162.3180 H   0  0  0  0  0  0  0  0  0  0  0  0
  155.9361  138.7207  162.4891 H   0  0  0  0  0  0  0  0  0  0  0  0
  153.6938  139.7119  162.2017 H   0  0  0  0  0  0  0  0  0  0  0  0
  154.7270  140.1826  160.8663 H   0  0  0  0  0  0  0  0  0  0  0  0
  153.7902  141.3195  159.6044 H   0  0  0  0  0  0  0  0  0  0  0  0
  149.3426  139.3650  158.8946 H   0  0  0  0  0  0  0  0  0  0  0  0
  151.2033  137.0145  158.3792 H   0  0  0  0  0  0  0  0  0  0  0  0
  150.3021  137.2871  159.8670 H   0  0  0  0  0  0  0  0  0  0  0  0
  151.5356  138.4275  159.3820 H   0  0  0  0  0  0  0  0  0  0  0  0
  148.7526  136.8626  157.2411 H   0  0  0  0  0  0  0  0  0  0  0  0
  147.6553  138.2219  157.4624 H   0  0  0  0  0  0  0  0  0  0  0  0
  148.0901  137.2209  158.8321 H   0  0  0  0  0  0  0  0  0  0  0  0
  1  2  1  0  0  0  0
  1 25  1  0  0  0  0
  1 26  1  0  0  0  0
  1 27  1  0  0  0  0
  2  3  2  0  0  0  0
  2  4  1  0  0  0  0
  4  5  1  0  0  0  0
  4 28  1  0  0  0  0
  5  6  1  0  0  0  0
  5 22  1  0  0  0  0
  5 29  1  0  0  0  0
  6  7  2  0  0  0  0
  6  8  1  0  0  0  0
  8  9  1  0  0  0  0
  8 30  1  0  0  0  0
  9 10  1  0  0  0  0
  9 31  1  0  0  0  0
  9 32  1  0  0  0  0
 10 21  1  0  0  0  0
 10 11  2  0  0  0  0
 11 12  1  0  0  0  0
 11 33  1  0  0  0  0
 12 13  2  0  0  0  0
 12 34  1  0  0  0  0
 13 14  1  0  0  0  0
 14 15  1  0  0  0  0
 14 21  2  0  0  0  0
 15 20  1  0  0  0  0
 15 16  1  0  0  0  0
 16 17  1  0  0  0  0
 16 35  1  0  0  0  0
 16 36  1  0  0  0  0
 17 18  1  0  0  0  0
 17 37  1  0  0  0  0
 17 38  1  0  0  0  0
 18 19  1  0  0  0  0
 19 20  1  0  0  0  0
 19 39  1  0  0  0  0
 19 40  1  0  0  0  0
 20 41  1  0  0  0  0
 20 42  1  0  0  0  0
 21 43  1  0  0  0  0
 22 23  1  0  0  0  0
 22 24  1  0  0  0  0
 22 44  1  0  0  0  0
 23 45  1  0  0  0  0
 23 46  1  0  0  0  0
 23 47  1  0  0  0  0
 24 48  1  0  0  0  0
 24 49  1  0  0  0  0
 24 50  1  0  0  0  0
M  END
> <s_m_source_file>
AV-unprocessed.smi

> <i_m_source_file_index>
2012

> <i_lp_mmshare_version>
43012

> <i_f3d_flags>
0

> <s_epik_input>
W0NIM11DKD1PKVtOSF1bQ0BASF0oW0NIXShbQ0gzXSlbQ0gzXSlDKD1PKVtOSF1bQ0gyXWMxW2NIXVtjSF1uYyhbY0hdMSlOMltDSDJdW0NIMl1PW0NIMl1bQ0gyXTI=

> <s_epik_cmdline>
J2VwaWtfcHl0aG9uJywgJy1waCcsICc3LjAnLCAnLXRuJywgJzgnLCAnLW1hJywgJzIwMCcsICctbWV0YWxfYmluZGluZycsICctaW1hZScsICc8aW5maWxlLm1hZT4nLCAnLW9tYWUnLCAnPG91dGZpbGUubWFlPic=

> <r_lp_tautomer_probability>
1

> <r_epik_Ionization_Penalty>
0.00518786

> <r_epik_Ionization_Penalty_Charging>
0

> <r_epik_Ionization_Penalty_Neutral>
0.00518786

> <r_epik_State_Penalty>
0.00378052

> <r_epik_Charging_Adjusted_Penalty>
0.00378052

> <i_epik_Tot_Q>
0

> <i_epik_Tot_abs_Q>
0

> <r_epik_Metal_State_Penalty>
-0

> <b_epik_Metal_Only>
0

> <s_lp_Force_Field>
OPLS_2005

> <r_lp_Energy>
18.0004

> <b_lp_Chiralities_Consistent>
1

> <s_lp_Variant>
AV-unprocessed.smi:2012-2

> <Gold.Version>
5.8.1

> <Gold.Id.Protein>
6NUR|6NUR_protein|mol2

> <Gold.PLP.Fitness>
45.3046

> <Gold.PLP.PLP>
-40.6742

> <Gold.PLP.part.hbond>
-2.8217

> <Gold.PLP.part.metal>
0.0000

> <Gold.PLP.part.buried>
-4.1390

> <Gold.PLP.part.nonpolar>
-32.6172

> <Gold.PLP.part.repulsive>
0.8579

> <Gold.PLP.ligand.clash>
0.0000

> <Gold.PLP.ligand.torsion>
1.1397

> <Gold.PLP.Chemscore.Hbond>
2.0000

> <Gold.PLP.Chemscore.CHOScore>
0.0000

> <Gold.PLP.Chemscore.Metal>
0.0000

> <Gold.Chemscore.Hbonds>
donor molecule, donor type, donor heavy atom, donor atom, acceptor molecule, acceptor atom, score
      P1  H  7989  7998       L1     3  1.00
      P1  H  7997  8009       L1     7  1.00

> <Gold.PLP.Chemscore.Internal.Correction>
0.9099

> <Gold.Rescore>
     Score         DG    S(hbond)    S(metal)    S(lipo)     H(rot)  DE(clash)    DE(int)     intcor
     17.23     -18.72       1.99        0.00     104.07       2.18       0.55       0.94       ----

> <Gold.Chemscore.Fitness>
17.2302

> <Gold.Chemscore.DG>
-18.7220

> <Gold.Chemscore.ZeroCoef>
-5.4800

> <Gold.Chemscore.Hbond>
1.9908

> <Gold.Chemscore.Metal>
0.0000

> <Gold.Chemscore.Lipo>
104.0749

> <Gold.Chemscore.Internal_Hbond>
0.0000

> <Gold.Chemscore.DEClash>
0.5548

> <Gold.Chemscore.DEInternal>
0.9370

> <Gold.Chemscore.Rot>
2.1813

> <Gold.Chemscore.Internal.Correction>
   9.000000E+99

> <Gold.Chemscore.Hbonds>
donor molecule, donor type, donor heavy atom, donor atom, acceptor molecule, acceptor atom, score
      P1  H  7989  7998       L1     3  0.90
      P1  H  7997  8009       L1     7  1.00

> <Gold.Chemscore.Hbond.Weighted>
-6.6494

> <Gold.Chemscore.Metal.Weighted>
-0.0000

> <Gold.Chemscore.Lipo.Weighted>
-12.1768

> <Gold.Chemscore.Internal_Hbond.Weighted>
0.0000

> <Gold.Chemscore.DEClash.Weighted>
0.5548

> <Gold.Chemscore.DEInternal.Weighted>
0.9370

> <Gold.Chemscore.Rot.Weighted>
5.5842

> <Gold.Chemscore.Internal.Correction.Weighted>
   9.000000E+99

> <Gold.Protein.RotatedTorsions>
[ 6907 6896 6895 6894 ] final  162.42 input  -60.11 | X-H torsion
[ 7974 7965 7964 7962 ] final -114.13 input  175.53 | X-H torsion
[ 8008 7997 7996 7995 ] final -167.46 input   59.86 | X-H torsion
[ 10167 10162 10161 10158 ] final   22.13 input  -65.29 | X-H torsion
[ 10718 10713 10712 10709 ] final  -43.98 input   66.30 | X-H torsion
[ 10763 10752 10751 10750 ] final   51.38 input  -60.55 | X-H torsion
[ 11005 11000 10999 10996 ] final   68.92 input  -57.11 | X-H torsion

> <Gold.Protein.ActiveResidues>
 VAL166  LYS551  ARG553  GLY616  TRP617  ASP618  TYR619  PRO620  LYS621  CYS622 
 ASP623  PHE694  ASN695  SER759  ASP760  ASP761  ALA762  ILE779  LEU786  VAL792 
 PHE793  MET794  SER795  GLU796  ALA797  LYS798  CYS799  TRP800  GLU811  SER814 

> <Gold.Protein.RotatedAtoms>
  151.9407  133.3637  159.3963 H   0  0  0  0  0  0  0  0  0  0  0  0  # atno 6907 bound_to 6896
  150.6999  134.4442  159.5315 H   0  0  0  0  0  0  0  0  0  0  0  0  # atno 6908 bound_to 6896
  152.2098  134.8511  160.0549 H   0  0  0  0  0  0  0  0  0  0  0  0  # atno 6909 bound_to 6896
  145.1238  140.8685  143.3798 H   0  0  0  0  0  0  0  0  0  0  0  0  # atno 7974 bound_to 7965
  155.8780  140.1004  157.1505 H   0  0  0  0  0  0  0  0  0  0  0  0  # atno 8008 bound_to 7997
  154.4002  140.1334  156.4224 H   0  0  0  0  0  0  0  0  0  0  0  0  # atno 8009 bound_to 7997
  155.7676  140.3461  155.5232 H   0  0  0  0  0  0  0  0  0  0  0  0  # atno 8010 bound_to 7997
  140.5373  143.9739  150.6499 H   0  0  0  0  0  0  0  0  0  0  0  0  # atno 10167 bound_to 10162
  156.2433  130.4182  149.8734 H   0  0  0  0  0  0  0  0  0  0  0  0  # atno 10718 bound_to 10713
  152.9785  135.5848  154.4405 H   0  0  0  0  0  0  0  0  0  0  0  0  # atno 10763 bound_to 10752
  154.4007  135.2769  155.2100 H   0  0  0  0  0  0  0  0  0  0  0  0  # atno 10764 bound_to 10752
  154.3932  135.6120  153.5909 H   0  0  0  0  0  0  0  0  0  0  0  0  # atno 10765 bound_to 10752
  139.9683  134.6943  156.0499 H   0  0  0  0  0  0  0  0  0  0  0  0  # atno 11005 bound_to 11000
  145.0710  139.3031  143.5832 LP  0  0  0  0  0  0  0  0  0  0  0  0  # atno 17320 bound_to 7965
  146.3519  140.0185  142.8660 LP  0  0  0  0  0  0  0  0  0  0  0  0  # atno 17321 bound_to 7965
  140.3130  143.3186  152.0860 LP  0  0  0  0  0  0  0  0  0  0  0  0  # atno 17342 bound_to 10162
  139.4975  144.6624  151.6434 LP  0  0  0  0  0  0  0  0  0  0  0  0  # atno 17343 bound_to 10162
  156.6308  130.8665  151.3495 LP  0  0  0  0  0  0  0  0  0  0  0  0  # atno 17370 bound_to 10713
  157.7184  130.9527  150.1345 LP  0  0  0  0  0  0  0  0  0  0  0  0  # atno 17371 bound_to 10713
  141.1363  133.6574  156.3603 LP  0  0  0  0  0  0  0  0  0  0  0  0  # atno 17394 bound_to 11000
  140.5348  134.6178  157.5361 LP  0  0  0  0  0  0  0  0  0  0  0  0  # atno 17395 bound_to 11000

$$$$
