AV-unprocessed.smi:283|AV-procd|sdf|2149|dock9
  -GOLD-   2262021483D 1   1.00000     0.00000
 Structure written by MMmdl.
 48 51  0  0  0  0  0  0  0  0  1 V2000
  150.9744  140.2860  156.0197 C   0  0  0  0  0  0  0  0  0  0  0  0
  150.1211  141.2990  156.7945 C   0  0  2  0  0  0  0  0  0  0  0  0
  149.3941  142.1576  155.8611 N   0  0  0  0  0  0  0  0  0  0  0  0
  148.4594  141.6383  155.0336 C   0  0  0  0  0  0  0  0  0  0  0  0
  148.0833  142.2909  153.9029 N   0  0  0  0  0  0  0  0  0  0  0  0
  147.1570  141.7577  153.1018 C   0  0  0  0  0  0  0  0  0  0  0  0
  146.4937  140.6089  153.2441 N   0  0  0  0  0  0  0  0  0  0  0  0
  146.8620  139.9502  154.3816 C   0  0  0  0  0  0  0  0  0  0  0  0
  147.8330  140.3982  155.3208 C   0  0  0  0  0  0  0  0  0  0  0  0
  147.9567  139.4748  156.3501 N   0  0  0  0  0  0  0  0  0  0  0  0
  147.1033  138.5379  156.0356 C   0  0  0  0  0  0  0  0  0  0  0  0
  146.3985  138.7433  154.8700 N   0  0  0  0  0  0  0  0  0  0  0  0
  145.3512  137.8495  154.2770 C   0  0  2  0  0  0  0  0  0  0  0  0
  145.0744  136.8251  155.1816 O   0  0  0  0  0  0  0  0  0  0  0  0
  144.9338  135.5917  154.4852 C   0  0  2  0  0  0  0  0  0  0  0  0
  145.1677  134.3955  155.4250 C   0  0  0  0  0  0  0  0  0  0  0  0
  143.9527  134.0049  156.0291 O   0  0  0  0  0  0  0  0  0  0  0  0
  145.9201  135.7203  153.3147 C   0  0  2  0  0  0  0  0  0  0  0  0
  147.2354  135.3536  153.6962 O   0  0  0  0  0  0  0  0  0  0  0  0
  145.8004  137.1978  152.9519 C   0  0  2  0  0  0  0  0  0  0  0  0
  146.9727  137.7375  152.3628 O   0  0  0  0  0  0  0  0  0  0  0  0
  150.9805  142.0647  157.8027 C   0  0  0  0  0  0  0  0  0  0  0  0
  151.0420  143.4761  157.7364 C   0  0  0  0  0  0  0  0  0  0  0  0
  151.8233  144.2050  158.6523 C   0  0  0  0  0  0  0  0  0  0  0  0
  152.5568  143.5288  159.6436 C   0  0  0  0  0  0  0  0  0  0  0  0
  152.5113  142.1241  159.7128 C   0  0  0  0  0  0  0  0  0  0  0  0
  151.7313  141.3888  158.7975 C   0  0  0  0  0  0  0  0  0  0  0  0
  151.7241  139.6644  158.9243 Cl  0  0  0  0  0  0  0  0  0  0  0  0
  144.4816  138.4964  154.1554 H   0  0  0  0  0  0  0  0  0  0  0  0
  143.9250  135.5497  154.0696 H   0  0  0  0  0  0  0  0  0  0  0  0
  145.6296  135.0812  152.4803 H   0  0  0  0  0  0  0  0  0  0  0  0
  144.9782  137.3185  152.2451 H   0  0  0  0  0  0  0  0  0  0  0  0
  151.4638  139.5874  156.6989 H   0  0  0  0  0  0  0  0  0  0  0  0
  151.7502  140.7824  155.4357 H   0  0  0  0  0  0  0  0  0  0  0  0
  150.3624  139.7010  155.3325 H   0  0  0  0  0  0  0  0  0  0  0  0
  149.3635  140.7297  157.3313 H   0  0  0  0  0  0  0  0  0  0  0  0
  149.4854  143.1504  156.0210 H   0  0  0  0  0  0  0  0  0  0  0  0
  146.9110  142.3343  152.2224 H   0  0  0  0  0  0  0  0  0  0  0  0
  146.9568  137.6651  156.6550 H   0  0  0  0  0  0  0  0  0  0  0  0
  145.5375  133.5395  154.8595 H   0  0  0  0  0  0  0  0  0  0  0  0
  145.9109  134.6286  156.1882 H   0  0  0  0  0  0  0  0  0  0  0  0
  143.5883  133.2853  155.5370 H   0  0  0  0  0  0  0  0  0  0  0  0
  147.8331  135.6101  153.0108 H   0  0  0  0  0  0  0  0  0  0  0  0
  147.5269  137.0231  152.0891 H   0  0  0  0  0  0  0  0  0  0  0  0
  150.4860  144.0096  156.9793 H   0  0  0  0  0  0  0  0  0  0  0  0
  151.8595  145.2828  158.5934 H   0  0  0  0  0  0  0  0  0  0  0  0
  153.1563  144.0861  160.3481 H   0  0  0  0  0  0  0  0  0  0  0  0
  153.0797  141.6081  160.4726 H   0  0  0  0  0  0  0  0  0  0  0  0
  1  2  1  0  0  0  0
  1 33  1  0  0  0  0
  1 34  1  0  0  0  0
  1 35  1  0  0  0  0
  2  3  1  0  0  0  0
  2 22  1  0  0  0  0
  2 36  1  0  0  0  0
  3  4  1  0  0  0  0
  3 37  1  0  0  0  0
  4  9  1  0  0  0  0
  4  5  2  0  0  0  0
  5  6  1  0  0  0  0
  6  7  2  0  0  0  0
  6 38  1  0  0  0  0
  7  8  1  0  0  0  0
  8 12  1  0  0  0  0
  8  9  2  0  0  0  0
  9 10  1  0  0  0  0
 10 11  2  0  0  0  0
 11 12  1  0  0  0  0
 11 39  1  0  0  0  0
 12 13  1  0  0  0  0
 13 29  1  0  0  0  0
 13 20  1  0  0  0  0
 13 14  1  0  0  0  0
 14 15  1  0  0  0  0
 15 30  1  0  0  0  0
 15 16  1  0  0  0  0
 15 18  1  0  0  0  0
 16 17  1  0  0  0  0
 16 40  1  0  0  0  0
 16 41  1  0  0  0  0
 17 42  1  0  0  0  0
 18 31  1  0  0  0  0
 18 19  1  0  0  0  0
 18 20  1  0  0  0  0
 19 43  1  0  0  0  0
 20 32  1  0  0  0  0
 20 21  1  0  0  0  0
 21 44  1  0  0  0  0
 22 27  1  0  0  0  0
 22 23  2  0  0  0  0
 23 24  1  0  0  0  0
 23 45  1  0  0  0  0
 24 25  2  0  0  0  0
 24 46  1  0  0  0  0
 25 26  1  0  0  0  0
 25 47  1  0  0  0  0
 26 27  2  0  0  0  0
 26 48  1  0  0  0  0
 27 28  1  0  0  0  0
M  END
> <s_m_source_file>
AV-unprocessed.smi

> <i_m_source_file_index>
283

> <i_lp_mmshare_version>
43012

> <i_f3d_flags>
0

> <s_epik_input>
Q2xjMVtjSF1bY0hdW2NIXVtjSF1jMVtDQEhdKFtDSDNdKVtOSF1jKG5bY0hdbjIpYyhjMjMpbltjSF1uM1tDQEBIXTRPW0NASF0oW0NIMl1bT0hdKVtDQEBIXShbT0hdKVtDQEhdNFtPSF0=

> <s_epik_cmdline>
J2VwaWtfcHl0aG9uJywgJy1waCcsICc3LjAnLCAnLXRuJywgJzgnLCAnLW1hJywgJzIwMCcsICctbWV0YWxfYmluZGluZycsICctaW1hZScsICc8aW5maWxlLm1hZT4nLCAnLW9tYWUnLCAnPG91dGZpbGUubWFlPic=

> <r_lp_tautomer_probability>
1

> <r_epik_Ionization_Penalty>
0.000266407

> <r_epik_Ionization_Penalty_Charging>
0

> <r_epik_Ionization_Penalty_Neutral>
0.000266407

> <r_epik_State_Penalty>
-0

> <r_epik_Charging_Adjusted_Penalty>
0

> <i_epik_Tot_Q>
0

> <i_epik_Tot_abs_Q>
0

> <r_epik_Metal_State_Penalty>
-0

> <b_epik_Metal_Only>
0

> <s_epik_Chemistry_Notes>
This compound contains an acetal/aminal-like group ( X-CH(R)-Y where X, Y are N, S, or O) that may be acid/base labile, releasing an aldehyde.

> <s_lp_Force_Field>
OPLS_2005

> <r_lp_Energy>
56.6736

> <b_lp_Chiralities_Consistent>
1

> <s_lp_Variant>
AV-unprocessed.smi:283-25

> <Gold.Version>
5.8.1

> <Gold.Id.Protein>
6NUR|6NUR_protein|mol2

> <Gold.PLP.Fitness>
48.1322

> <Gold.PLP.PLP>
-37.2166

> <Gold.PLP.part.hbond>
-4.6311

> <Gold.PLP.part.metal>
0.0000

> <Gold.PLP.part.buried>
-4.7580

> <Gold.PLP.part.nonpolar>
-29.0656

> <Gold.PLP.part.repulsive>
1.1919

> <Gold.PLP.ligand.clash>
0.0902

> <Gold.PLP.ligand.torsion>
0.6085

> <Gold.PLP.Chemscore.Hbond>
4.0549

> <Gold.PLP.Chemscore.CHOScore>
0.0000

> <Gold.PLP.Chemscore.Metal>
0.0000

> <Gold.Chemscore.Hbonds>
donor molecule, donor type, donor heavy atom, donor atom, acceptor molecule, acceptor atom, score
      L1  H     3    37       P1  8028  0.93
      L1  H    17    42       P1 10957  1.00
      L1  H    19    43       P1  7948  1.00
      L1  H    21    44       P1  7948  1.00
      P1  H  8011  8017       L1     5  0.07

> <Gold.PLP.Chemscore.Internal.Correction>
0.0583

> <Gold.Rescore>
     Score         DG    S(hbond)    S(metal)    S(lipo)     H(rot)  DE(clash)    DE(int)     intcor
     12.74     -18.80       3.88        0.00      92.73       4.10       3.00       3.05       ----

> <Gold.Chemscore.Fitness>
12.7421

> <Gold.Chemscore.DG>
-18.7955

> <Gold.Chemscore.ZeroCoef>
-5.4800

> <Gold.Chemscore.Hbond>
3.8786

> <Gold.Chemscore.Metal>
0.0000

> <Gold.Chemscore.Lipo>
92.7253

> <Gold.Chemscore.Internal_Hbond>
0.0000

> <Gold.Chemscore.DEClash>
3.0016

> <Gold.Chemscore.DEInternal>
3.0518

> <Gold.Chemscore.Rot>
4.0968

> <Gold.Chemscore.Internal.Correction>
   9.000000E+99

> <Gold.Chemscore.Hbonds>
donor molecule, donor type, donor heavy atom, donor atom, acceptor molecule, acceptor atom, score
      L1  H     3    37       P1  8028  0.90
      L1  H    17    42       P1 10957  1.00
      L1  H    19    43       P1  7948  1.00
      L1  H    21    44       P1  7948  0.98
      P1  H  8011  8017       L1     5  0.01

> <Gold.Chemscore.Hbond.Weighted>
-12.9546

> <Gold.Chemscore.Metal.Weighted>
-0.0000

> <Gold.Chemscore.Lipo.Weighted>
-10.8489

> <Gold.Chemscore.Internal_Hbond.Weighted>
0.0000

> <Gold.Chemscore.DEClash.Weighted>
3.0016

> <Gold.Chemscore.DEInternal.Weighted>
3.0518

> <Gold.Chemscore.Rot.Weighted>
10.4879

> <Gold.Chemscore.Internal.Correction.Weighted>
   9.000000E+99

> <Gold.Protein.RotatedTorsions>
[ 6907 6896 6895 6894 ] final -173.14 input  -60.11 | X-H torsion
[ 7974 7965 7964 7962 ] final  140.19 input  175.53 | X-H torsion
[ 8008 7997 7996 7995 ] final -178.97 input   59.86 | X-H torsion
[ 10167 10162 10161 10158 ] final -105.24 input  -65.29 | X-H torsion
[ 10718 10713 10712 10709 ] final   12.99 input   66.30 | X-H torsion
[ 10763 10752 10751 10750 ] final -134.76 input  -60.55 | X-H torsion
[ 11005 11000 10999 10996 ] final  -74.99 input  -57.11 | X-H torsion

> <Gold.Protein.ActiveResidues>
 VAL166  LYS551  ARG553  GLY616  TRP617  ASP618  TYR619  PRO620  LYS621  CYS622 
 ASP623  PHE694  ASN695  SER759  ASP760  ASP761  ALA762  ILE779  LEU786  VAL792 
 PHE793  MET794  SER795  GLU796  ALA797  LYS798  CYS799  TRP800  GLU811  SER814 

> <Gold.Protein.RotatedAtoms>
  151.5514  133.3417  159.2953 H   0  0  0  0  0  0  0  0  0  0  0  0  # atno 6907 bound_to 6896
  150.8476  134.7793  159.6994 H   0  0  0  0  0  0  0  0  0  0  0  0  # atno 6908 bound_to 6896
  152.4530  134.5360  159.9876 H   0  0  0  0  0  0  0  0  0  0  0  0  # atno 6909 bound_to 6896
  144.9209  139.5169  143.5664 H   0  0  0  0  0  0  0  0  0  0  0  0  # atno 7974 bound_to 7965
  156.0251  140.1269  157.0317 H   0  0  0  0  0  0  0  0  0  0  0  0  # atno 8008 bound_to 7997
  154.4327  140.1061  156.6089 H   0  0  0  0  0  0  0  0  0  0  0  0  # atno 8009 bound_to 7997
  155.5888  140.3469  155.4563 H   0  0  0  0  0  0  0  0  0  0  0  0  # atno 8010 bound_to 7997
  140.2007  143.3821  152.1132 H   0  0  0  0  0  0  0  0  0  0  0  0  # atno 10167 bound_to 10162
  157.0181  130.6144  149.5717 H   0  0  0  0  0  0  0  0  0  0  0  0  # atno 10718 bound_to 10713
  154.8714  135.3724  154.4789 H   0  0  0  0  0  0  0  0  0  0  0  0  # atno 10763 bound_to 10752
  153.5443  135.7026  153.5626 H   0  0  0  0  0  0  0  0  0  0  0  0  # atno 10764 bound_to 10752
  153.3774  135.4005  155.1796 H   0  0  0  0  0  0  0  0  0  0  0  0  # atno 10765 bound_to 10752
  141.1641  133.6931  156.7449 H   0  0  0  0  0  0  0  0  0  0  0  0  # atno 11005 bound_to 11000
  146.3204  139.8087  142.8950 LP  0  0  0  0  0  0  0  0  0  0  0  0  # atno 17320 bound_to 7965
  145.3298  141.0264  143.3453 LP  0  0  0  0  0  0  0  0  0  0  0  0  # atno 17321 bound_to 7965
  139.5218  144.7051  151.5378 LP  0  0  0  0  0  0  0  0  0  0  0  0  # atno 17342 bound_to 10162
  140.6392  143.8922  150.6676 LP  0  0  0  0  0  0  0  0  0  0  0  0  # atno 17343 bound_to 10162
  156.0112  130.5203  150.7993 LP  0  0  0  0  0  0  0  0  0  0  0  0  # atno 17370 bound_to 10713
  157.5270  131.0934  151.0005 LP  0  0  0  0  0  0  0  0  0  0  0  0  # atno 17371 bound_to 10713
  140.2647  134.8439  157.3791 LP  0  0  0  0  0  0  0  0  0  0  0  0  # atno 17394 bound_to 11000
  140.1578  134.4767  155.7916 LP  0  0  0  0  0  0  0  0  0  0  0  0  # atno 17395 bound_to 11000

$$$$
