AV-unprocessed.smi:1205|AV-procd|sdf|5043|dock7
  -GOLD-   22720 4 63D 1   1.00000     0.00000
 Structure written by MMmdl.
 49 50  0  0  0  0  0  0  0  0  2 V2000
  153.3943  141.5125  160.9502 C   0  0  0  0  0  0  0  0  0  0  0  0
  152.5603  142.2182  159.9220 C   0  0  0  0  0  0  0  0  0  0  0  0
  151.9117  141.6589  158.7827 C   0  0  0  0  0  0  0  0  0  0  0  0
  151.3072  142.7474  158.2158 C   0  0  0  0  0  0  0  0  0  0  0  0
  150.5343  142.8109  157.0988 N   0  0  0  0  0  0  0  0  0  0  0  0
  150.1978  141.8213  156.2536 C   0  0  0  0  0  0  0  0  0  0  0  0
  150.5509  140.6459  156.3521 O   0  0  0  0  0  0  0  0  0  0  0  0
  149.4091  142.2731  155.2670 N   0  0  0  0  0  0  0  0  0  0  0  0
  148.8818  141.4665  154.1689 C   0  0  0  0  0  0  0  0  0  0  0  0
  147.5526  140.7611  154.5277 C   0  0  2  0  0  0  0  0  0  0  0  0
  147.0841  139.7435  153.4636 C   0  0  0  0  0  0  0  0  0  0  0  0
  146.5030  141.7687  154.8614 N   0  3  1  0  0  0  0  0  0  0  0  0
  146.1331  142.6930  153.7544 C   0  0  0  0  0  0  0  0  0  0  0  0
  145.2504  143.8377  154.2745 C   0  0  0  0  0  0  0  0  0  0  0  0
  143.9982  143.2891  154.9743 C   0  0  0  0  0  0  0  0  0  0  0  0
  144.3682  142.2755  156.0740 C   0  0  2  0  0  0  0  0  0  0  0  0
  144.9506  142.9470  157.3302 C   0  0  0  0  0  0  0  0  0  0  0  0
  145.3010  141.1812  155.5133 C   0  0  0  0  0  0  0  0  0  0  0  0
  151.5869  143.8594  158.9787 N   0  0  0  0  0  0  0  0  0  0  0  0
  151.1709  145.2356  158.7913 C   0  0  0  0  0  0  0  0  0  0  0  0
  152.3618  143.5268  160.0335 N   0  0  0  0  0  0  0  0  0  0  0  0
  153.5378  140.4637  160.6894 H   0  0  0  0  0  0  0  0  0  0  0  0
  152.9201  141.5483  161.9313 H   0  0  0  0  0  0  0  0  0  0  0  0
  154.3803  141.9696  161.0382 H   0  0  0  0  0  0  0  0  0  0  0  0
  151.9035  140.6295  158.4576 H   0  0  0  0  0  0  0  0  0  0  0  0
  150.1777  143.7285  156.8758 H   0  0  0  0  0  0  0  0  0  0  0  0
  149.1680  143.2537  155.2662 H   0  0  0  0  0  0  0  0  0  0  0  0
  148.7205  142.1356  153.3230 H   0  0  0  0  0  0  0  0  0  0  0  0
  149.6336  140.7481  153.8405 H   0  0  0  0  0  0  0  0  0  0  0  0
  147.7534  140.1971  155.4397 H   0  0  0  0  0  0  0  0  0  0  0  0
  147.7884  138.9171  153.3713 H   0  0  0  0  0  0  0  0  0  0  0  0
  146.9925  140.2018  152.4787 H   0  0  0  0  0  0  0  0  0  0  0  0
  146.1205  139.3046  153.7208 H   0  0  0  0  0  0  0  0  0  0  0  0
  147.0242  143.1154  153.2919 H   0  0  0  0  0  0  0  0  0  0  0  0
  145.5994  142.1482  152.9745 H   0  0  0  0  0  0  0  0  0  0  0  0
  145.8216  144.4613  154.9628 H   0  0  0  0  0  0  0  0  0  0  0  0
  144.9576  144.4855  153.4478 H   0  0  0  0  0  0  0  0  0  0  0  0
  143.4059  144.1059  155.3879 H   0  0  0  0  0  0  0  0  0  0  0  0
  143.3647  142.7986  154.2339 H   0  0  0  0  0  0  0  0  0  0  0  0
  143.4446  141.7877  156.3882 H   0  0  0  0  0  0  0  0  0  0  0  0
  145.9006  143.4408  157.1261 H   0  0  0  0  0  0  0  0  0  0  0  0
  145.1240  142.2147  158.1193 H   0  0  0  0  0  0  0  0  0  0  0  0
  144.2657  143.6970  157.7266 H   0  0  0  0  0  0  0  0  0  0  0  0
  144.7578  140.5723  154.7895 H   0  0  0  0  0  0  0  0  0  0  0  0
  145.5985  140.5118  156.3217 H   0  0  0  0  0  0  0  0  0  0  0  0
  151.3140  145.5263  157.7502 H   0  0  0  0  0  0  0  0  0  0  0  0
  151.7573  145.9024  159.4251 H   0  0  0  0  0  0  0  0  0  0  0  0
  150.1164  145.3364  159.0489 H   0  0  0  0  0  0  0  0  0  0  0  0
  146.9220  142.3499  155.5733 H   0  0  0  0  0  0  0  0  0  0  0  0
  1  2  1  0  0  0  0
  1 22  1  0  0  0  0
  1 23  1  0  0  0  0
  1 24  1  0  0  0  0
  2 21  2  0  0  0  0
  2  3  1  0  0  0  0
  3  4  2  0  0  0  0
  3 25  1  0  0  0  0
  4  5  1  0  0  0  0
  4 19  1  0  0  0  0
  5  6  1  0  0  0  0
  5 26  1  0  0  0  0
  6  7  2  0  0  0  0
  6  8  1  0  0  0  0
  8  9  1  0  0  0  0
  8 27  1  0  0  0  0
  9 10  1  0  0  0  0
  9 28  1  0  0  0  0
  9 29  1  0  0  0  0
 10 11  1  0  0  0  0
 10 12  1  0  0  0  0
 10 30  1  0  0  0  0
 11 31  1  0  0  0  0
 11 32  1  0  0  0  0
 11 33  1  0  0  0  0
 12 18  1  0  0  0  0
 12 13  1  0  0  0  0
 12 49  1  0  0  0  0
 13 14  1  0  0  0  0
 13 34  1  0  0  0  0
 13 35  1  0  0  0  0
 14 15  1  0  0  0  0
 14 36  1  0  0  0  0
 14 37  1  0  0  0  0
 15 16  1  0  0  0  0
 15 38  1  0  0  0  0
 15 39  1  0  0  0  0
 16 17  1  0  0  0  0
 16 18  1  0  0  0  0
 16 40  1  0  0  0  0
 17 41  1  0  0  0  0
 17 42  1  0  0  0  0
 17 43  1  0  0  0  0
 18 44  1  0  0  0  0
 18 45  1  0  0  0  0
 19 20  1  0  0  0  0
 19 21  1  0  0  0  0
 20 46  1  0  0  0  0
 20 47  1  0  0  0  0
 20 48  1  0  0  0  0
M  CHG  1  12   1
M  END
> <s_m_source_file>
AV-unprocessed.smi

> <i_m_source_file_index>
1205

> <i_lp_mmshare_version>
43012

> <i_f3d_flags>
0

> <s_epik_input>
W0NIM11jMVtjSF1jKG4objEpW0NIM10pW05IXUMoPU8pW05IXVtDSDJdW0NASF0oW0NIM10pTjJbQ0gyXVtDSDJdW0NIMl1bQ0BASF0oW0NIM10pW0NIMl0y

> <s_epik_cmdline>
J2VwaWtfcHl0aG9uJywgJy1waCcsICc3LjAnLCAnLXRuJywgJzgnLCAnLW1hJywgJzIwMCcsICctbWV0YWxfYmluZGluZycsICctaW1hZScsICc8aW5maWxlLm1hZT4nLCAnLW9tYWUnLCAnPG91dGZpbGUubWFlPic=

> <r_lp_tautomer_probability>
1

> <r_epik_Ionization_Penalty>
0.0020309

> <r_epik_Ionization_Penalty_Charging>
0.00195276

> <r_epik_Ionization_Penalty_Neutral>
7.81448e-05

> <r_epik_State_Penalty>
0.00133177

> <r_epik_Charging_Adjusted_Penalty>
0.00328452

> <i_epik_Tot_Q>
1

> <i_epik_Tot_abs_Q>
1

> <r_epik_Metal_State_Penalty>
-0

> <b_epik_Metal_Only>
0

> <s_lp_Force_Field>
OPLS_2005

> <r_lp_Energy>
25.0457

> <b_lp_Chiralities_Consistent>
1

> <s_lp_Variant>
AV-unprocessed.smi:1205-5

> <Gold.Version>
5.8.1

> <Gold.Id.Protein>
6NUR|6NUR_protein|mol2

> <Gold.PLP.Fitness>
47.6162

> <Gold.PLP.PLP>
-42.3415

> <Gold.PLP.part.hbond>
-2.0000

> <Gold.PLP.part.metal>
0.0000

> <Gold.PLP.part.buried>
-5.9725

> <Gold.PLP.part.nonpolar>
-34.1447

> <Gold.PLP.part.repulsive>
0.2965

> <Gold.PLP.ligand.clash>
0.0000

> <Gold.PLP.ligand.torsion>
0.2598

> <Gold.PLP.Chemscore.Hbond>
1.8882

> <Gold.PLP.Chemscore.CHOScore>
0.0000

> <Gold.PLP.Chemscore.Metal>
0.0000

> <Gold.Chemscore.Hbonds>
donor molecule, donor type, donor heavy atom, donor atom, acceptor molecule, acceptor atom, score
      L1  H     5    26       P1  8028  0.88
      L1  H     8    27       P1  8028  1.00

> <Gold.PLP.Chemscore.Internal.Correction>
0.1299

> <Gold.Rescore>
     Score         DG    S(hbond)    S(metal)    S(lipo)     H(rot)  DE(clash)    DE(int)     intcor
     16.08     -17.61       1.95        0.00      80.04       1.47       0.15       1.38       ----

> <Gold.Chemscore.Fitness>
16.0842

> <Gold.Chemscore.DG>
-17.6100

> <Gold.Chemscore.ZeroCoef>
-5.4800

> <Gold.Chemscore.Hbond>
1.9514

> <Gold.Chemscore.Metal>
0.0000

> <Gold.Chemscore.Lipo>
80.0419

> <Gold.Chemscore.Internal_Hbond>
0.0000

> <Gold.Chemscore.DEClash>
0.1462

> <Gold.Chemscore.DEInternal>
1.3795

> <Gold.Chemscore.Rot>
1.4658

> <Gold.Chemscore.Internal.Correction>
   9.000000E+99

> <Gold.Chemscore.Hbonds>
donor molecule, donor type, donor heavy atom, donor atom, acceptor molecule, acceptor atom, score
      L1  H     5    26       P1  8028  0.81
      L1  H     8    27       P1  8028  0.93

> <Gold.Chemscore.Hbond.Weighted>
-6.5176

> <Gold.Chemscore.Metal.Weighted>
-0.0000

> <Gold.Chemscore.Lipo.Weighted>
-9.3649

> <Gold.Chemscore.Internal_Hbond.Weighted>
0.0000

> <Gold.Chemscore.DEClash.Weighted>
0.1462

> <Gold.Chemscore.DEInternal.Weighted>
1.3795

> <Gold.Chemscore.Rot.Weighted>
3.7526

> <Gold.Chemscore.Internal.Correction.Weighted>
   9.000000E+99

> <Gold.Protein.RotatedTorsions>
[ 6907 6896 6895 6894 ] final    5.10 input  -60.11 | X-H torsion
[ 7974 7965 7964 7962 ] final  -38.26 input  175.53 | X-H torsion
[ 8008 7997 7996 7995 ] final  163.41 input   59.86 | X-H torsion
[ 10167 10162 10161 10158 ] final -152.63 input  -65.29 | X-H torsion
[ 10718 10713 10712 10709 ] final   80.41 input   66.30 | X-H torsion
[ 10763 10752 10751 10750 ] final   72.60 input  -60.55 | X-H torsion
[ 11005 11000 10999 10996 ] final -123.62 input  -57.11 | X-H torsion

> <Gold.Protein.ActiveResidues>
 VAL166  LYS551  ARG553  GLY616  TRP617  ASP618  TYR619  PRO620  LYS621  CYS622 
 ASP623  PHE694  ASN695  SER759  ASP760  ASP761  ALA762  ILE779  LEU786  VAL792 
 PHE793  MET794  SER795  GLU796  ALA797  LYS798  CYS799  TRP800  GLU811  SER814 

> <Gold.Protein.RotatedAtoms>
  151.6520  135.1000  160.0162 H   0  0  0  0  0  0  0  0  0  0  0  0  # atno 6907 bound_to 6896
  152.3995  133.6792  159.6313 H   0  0  0  0  0  0  0  0  0  0  0  0  # atno 6908 bound_to 6896
  150.7897  133.8732  159.3306 H   0  0  0  0  0  0  0  0  0  0  0  0  # atno 6909 bound_to 6896
  146.0502  140.6491  142.9045 H   0  0  0  0  0  0  0  0  0  0  0  0  # atno 7974 bound_to 7965
  156.1959  140.1724  156.8000 H   0  0  0  0  0  0  0  0  0  0  0  0  # atno 8008 bound_to 7997
  154.5528  140.0714  156.8727 H   0  0  0  0  0  0  0  0  0  0  0  0  # atno 8009 bound_to 7997
  155.2995  140.3360  155.4251 H   0  0  0  0  0  0  0  0  0  0  0  0  # atno 8010 bound_to 7997
  139.7165  143.9025  152.2488 H   0  0  0  0  0  0  0  0  0  0  0  0  # atno 10167 bound_to 10162
  157.6805  130.9958  150.2076 H   0  0  0  0  0  0  0  0  0  0  0  0  # atno 10718 bound_to 10713
  153.0469  135.5094  154.7768 H   0  0  0  0  0  0  0  0  0  0  0  0  # atno 10763 bound_to 10752
  154.6661  135.2946  154.9806 H   0  0  0  0  0  0  0  0  0  0  0  0  # atno 10764 bound_to 10752
  154.0640  135.6687  153.4868 H   0  0  0  0  0  0  0  0  0  0  0  0  # atno 10765 bound_to 10752
  140.9905  134.0546  157.3660 H   0  0  0  0  0  0  0  0  0  0  0  0  # atno 11005 bound_to 11000
  144.7118  140.4068  143.7074 LP  0  0  0  0  0  0  0  0  0  0  0  0  # atno 17320 bound_to 7965
  145.6737  139.1604  143.2740 LP  0  0  0  0  0  0  0  0  0  0  0  0  # atno 17321 bound_to 7965
  139.8909  144.6966  150.8772 LP  0  0  0  0  0  0  0  0  0  0  0  0  # atno 17342 bound_to 10162
  140.7745  143.3587  151.1870 LP  0  0  0  0  0  0  0  0  0  0  0  0  # atno 17343 bound_to 10162
  156.2753  130.3727  149.7989 LP  0  0  0  0  0  0  0  0  0  0  0  0  # atno 17370 bound_to 10713
  156.5694  130.8418  151.3352 LP  0  0  0  0  0  0  0  0  0  0  0  0  # atno 17371 bound_to 10713
  139.8990  135.0157  156.7175 LP  0  0  0  0  0  0  0  0  0  0  0  0  # atno 17394 bound_to 11000
  140.7047  133.9275  155.8046 LP  0  0  0  0  0  0  0  0  0  0  0  0  # atno 17395 bound_to 11000

$$$$
