AV-unprocessed.smi:2473|AV-procd|sdf|9749|dock9
  -GOLD-   2272013393D 1   1.00000     0.00000
 Structure written by MMmdl.
 47 48  0  0  0  0  0  0  0  0  1 V2000
  153.8068  141.3870  161.4425 C   0  0  0  0  0  0  0  0  0  0  0  0
  152.7526  141.8269  160.4166 C   0  0  2  0  0  0  0  0  0  0  0  0
  152.6988  140.8574  159.2238 C   0  0  0  0  0  0  0  0  0  0  0  0
  151.6363  141.2863  158.1929 C   0  0  2  0  0  0  0  0  0  0  0  0
  151.6088  140.3055  157.0134 C   0  0  0  0  0  0  0  0  0  0  0  0
  152.6602  139.8603  156.5528 O   0  0  0  0  0  0  0  0  0  0  0  0
  150.3961  139.9539  156.5559 N   0  0  0  0  0  0  0  0  0  0  0  0
  150.1355  138.9407  155.5363 C   0  0  0  0  0  0  0  0  0  0  0  0
  150.0213  139.5504  154.1251 C   0  0  0  0  0  0  0  0  0  0  0  0
  148.9257  140.5673  153.9877 C   0  0  0  0  0  0  0  0  0  0  0  0
  148.9664  141.7680  154.5569 N   0  0  0  0  0  0  0  0  0  0  0  0
  147.7944  142.3952  154.1494 C   0  0  0  0  0  0  0  0  0  0  0  0
  147.0771  141.5431  153.3455 C   0  0  0  0  0  0  0  0  0  0  0  0
  147.8143  140.3705  153.2498 N   0  0  0  0  0  0  0  0  0  0  0  0
  147.4360  139.1914  152.4940 C   0  0  0  0  0  0  0  0  0  0  0  0
  151.9111  142.7285  157.7113 C   0  0  0  0  0  0  0  0  0  0  0  0
  151.9953  143.7590  158.8654 C   0  0  0  0  0  0  0  0  0  0  0  0
  152.4866  145.1037  158.2942 C   0  0  0  0  0  0  0  0  0  0  0  0
  150.6065  143.9965  159.4983 C   0  0  0  0  0  0  0  0  0  0  0  0
  153.0122  143.2667  159.9262 C   0  0  0  0  0  0  0  0  0  0  0  0
  154.8066  141.3830  161.0072 H   0  0  0  0  0  0  0  0  0  0  0  0
  153.6001  140.3818  161.8108 H   0  0  0  0  0  0  0  0  0  0  0  0
  153.8204  142.0563  162.3030 H   0  0  0  0  0  0  0  0  0  0  0  0
  151.7868  141.7981  160.9213 H   0  0  0  0  0  0  0  0  0  0  0  0
  153.6817  140.8100  158.7513 H   0  0  0  0  0  0  0  0  0  0  0  0
  152.4836  139.8500  159.5816 H   0  0  0  0  0  0  0  0  0  0  0  0
  150.6588  141.2551  158.6759 H   0  0  0  0  0  0  0  0  0  0  0  0
  149.5889  140.3782  156.9896 H   0  0  0  0  0  0  0  0  0  0  0  0
  150.9505  138.2174  155.5564 H   0  0  0  0  0  0  0  0  0  0  0  0
  149.2292  138.3807  155.7726 H   0  0  0  0  0  0  0  0  0  0  0  0
  150.9735  139.9961  153.8374 H   0  0  0  0  0  0  0  0  0  0  0  0
  149.8385  138.7540  153.4032 H   0  0  0  0  0  0  0  0  0  0  0  0
  147.5604  143.4017  154.4628 H   0  0  0  0  0  0  0  0  0  0  0  0
  146.1289  141.6719  152.8450 H   0  0  0  0  0  0  0  0  0  0  0  0
  146.5193  139.3814  151.9353 H   0  0  0  0  0  0  0  0  0  0  0  0
  147.2684  138.3557  153.1735 H   0  0  0  0  0  0  0  0  0  0  0  0
  148.2252  138.9298  151.7896 H   0  0  0  0  0  0  0  0  0  0  0  0
  152.8518  142.7430  157.1577 H   0  0  0  0  0  0  0  0  0  0  0  0
  151.1426  143.0336  156.9993 H   0  0  0  0  0  0  0  0  0  0  0  0
  152.5684  145.8613  159.0745 H   0  0  0  0  0  0  0  0  0  0  0  0
  151.8034  145.4867  157.5352 H   0  0  0  0  0  0  0  0  0  0  0  0
  153.4687  145.0074  157.8295 H   0  0  0  0  0  0  0  0  0  0  0  0
  150.6588  144.7401  160.2943 H   0  0  0  0  0  0  0  0  0  0  0  0
  150.1814  143.0930  159.9322 H   0  0  0  0  0  0  0  0  0  0  0  0
  149.8946  144.3627  158.7580 H   0  0  0  0  0  0  0  0  0  0  0  0
  153.0180  143.9494  160.7772 H   0  0  0  0  0  0  0  0  0  0  0  0
  154.0174  143.3100  159.5040 H   0  0  0  0  0  0  0  0  0  0  0  0
  1  2  1  0  0  0  0
  1 21  1  0  0  0  0
  1 22  1  0  0  0  0
  1 23  1  0  0  0  0
  2 20  1  0  0  0  0
  2  3  1  0  0  0  0
  2 24  1  0  0  0  0
  3  4  1  0  0  0  0
  3 25  1  0  0  0  0
  3 26  1  0  0  0  0
  4  5  1  0  0  0  0
  4 16  1  0  0  0  0
  4 27  1  0  0  0  0
  5  6  2  0  0  0  0
  5  7  1  0  0  0  0
  7  8  1  0  0  0  0
  7 28  1  0  0  0  0
  8  9  1  0  0  0  0
  8 29  1  0  0  0  0
  8 30  1  0  0  0  0
  9 10  1  0  0  0  0
  9 31  1  0  0  0  0
  9 32  1  0  0  0  0
 10 14  1  0  0  0  0
 10 11  2  0  0  0  0
 11 12  1  0  0  0  0
 12 13  2  0  0  0  0
 12 33  1  0  0  0  0
 13 14  1  0  0  0  0
 13 34  1  0  0  0  0
 14 15  1  0  0  0  0
 15 35  1  0  0  0  0
 15 36  1  0  0  0  0
 15 37  1  0  0  0  0
 16 17  1  0  0  0  0
 16 38  1  0  0  0  0
 16 39  1  0  0  0  0
 17 18  1  0  0  0  0
 17 19  1  0  0  0  0
 17 20  1  0  0  0  0
 18 40  1  0  0  0  0
 18 41  1  0  0  0  0
 18 42  1  0  0  0  0
 19 43  1  0  0  0  0
 19 44  1  0  0  0  0
 19 45  1  0  0  0  0
 20 46  1  0  0  0  0
 20 47  1  0  0  0  0
M  END
> <s_m_source_file>
AV-unprocessed.smi

> <i_m_source_file_index>
2473

> <i_lp_mmshare_version>
43012

> <i_f3d_flags>
0

> <s_epik_input>
W0NIM11bQ0BASF0oW0NIMl0xKVtDSDJdW0NASF0oW0NIMl1DMShbQ0gzXSlbQ0gzXSlDKD1PKVtOSF1bQ0gyXVtDSDJdYzJuW2NIXVtjSF1uMltDSDNd

> <s_epik_cmdline>
J2VwaWtfcHl0aG9uJywgJy1waCcsICc3LjAnLCAnLXRuJywgJzgnLCAnLW1hJywgJzIwMCcsICctbWV0YWxfYmluZGluZycsICctaW1hZScsICc8aW5maWxlLm1hZT4nLCAnLW9tYWUnLCAnPG91dGZpbGUubWFlPic=

> <r_lp_tautomer_probability>
1

> <r_epik_Ionization_Penalty>
1.22858

> <r_epik_Ionization_Penalty_Charging>
1.22858

> <r_epik_Ionization_Penalty_Neutral>
2.12671e-08

> <r_epik_State_Penalty>
1.2965

> <r_epik_Charging_Adjusted_Penalty>
2.52508

> <i_epik_Tot_Q>
0

> <i_epik_Tot_abs_Q>
0

> <r_epik_Metal_State_Penalty>
0.411461

> <b_epik_Metal_Only>
0

> <s_lp_Force_Field>
OPLS_2005

> <r_lp_Energy>
12.8127

> <b_lp_Chiralities_Consistent>
1

> <s_lp_Variant>
AV-unprocessed.smi:2473-7

> <Gold.Version>
5.8.1

> <Gold.Id.Protein>
6NUR|6NUR_protein|mol2

> <Gold.PLP.Fitness>
50.8437

> <Gold.PLP.PLP>
-44.3644

> <Gold.PLP.part.hbond>
-1.0000

> <Gold.PLP.part.metal>
0.0000

> <Gold.PLP.part.buried>
-4.0429

> <Gold.PLP.part.nonpolar>
-39.4425

> <Gold.PLP.part.repulsive>
0.1597

> <Gold.PLP.ligand.clash>
0.0000

> <Gold.PLP.ligand.torsion>
0.8135

> <Gold.PLP.Chemscore.Hbond>
1.0000

> <Gold.PLP.Chemscore.CHOScore>
1.6968

> <Gold.PLP.Chemscore.Metal>
0.0000

> <Gold.Chemscore.Hbonds>
donor molecule, donor type, donor heavy atom, donor atom, acceptor molecule, acceptor atom, score
      P1  H  7997  8008       L1     6  1.00
      L1  C    12    33       P1  8028  0.94
      L1  C    13    34       P1 10175  0.22

> <Gold.PLP.Chemscore.Internal.Correction>
0.0160

> <Gold.Rescore>
     Score         DG    S(hbond)    S(metal)    S(lipo)     H(rot)  DE(clash)    DE(int)     intcor
     18.34     -19.23       1.00        0.00     122.07       1.51       0.05       0.84       ----

> <Gold.Chemscore.Fitness>
18.3438

> <Gold.Chemscore.DG>
-19.2318

> <Gold.Chemscore.ZeroCoef>
-5.4800

> <Gold.Chemscore.Hbond>
0.9994

> <Gold.Chemscore.Metal>
0.0000

> <Gold.Chemscore.Lipo>
122.0651

> <Gold.Chemscore.Internal_Hbond>
0.0000

> <Gold.Chemscore.DEClash>
0.0519

> <Gold.Chemscore.DEInternal>
0.8361

> <Gold.Chemscore.Rot>
1.5109

> <Gold.Chemscore.Internal.Correction>
   9.000000E+99

> <Gold.Chemscore.Hbonds>
donor molecule, donor type, donor heavy atom, donor atom, acceptor molecule, acceptor atom, score
      P1  H  7997  8008       L1     6  0.99

> <Gold.Chemscore.Hbond.Weighted>
-3.3381

> <Gold.Chemscore.Metal.Weighted>
-0.0000

> <Gold.Chemscore.Lipo.Weighted>
-14.2816

> <Gold.Chemscore.Internal_Hbond.Weighted>
0.0000

> <Gold.Chemscore.DEClash.Weighted>
0.0519

> <Gold.Chemscore.DEInternal.Weighted>
0.8361

> <Gold.Chemscore.Rot.Weighted>
3.8680

> <Gold.Chemscore.Internal.Correction.Weighted>
   9.000000E+99

> <Gold.Protein.RotatedTorsions>
[ 6907 6896 6895 6894 ] final   60.88 input  -60.11 | X-H torsion
[ 7974 7965 7964 7962 ] final  142.11 input  175.53 | X-H torsion
[ 8008 7997 7996 7995 ] final  -38.75 input   59.86 | X-H torsion
[ 10167 10162 10161 10158 ] final -118.78 input  -65.29 | X-H torsion
[ 10718 10713 10712 10709 ] final -141.60 input   66.30 | X-H torsion
[ 10763 10752 10751 10750 ] final -100.10 input  -60.55 | X-H torsion
[ 11005 11000 10999 10996 ] final  -64.87 input  -57.11 | X-H torsion

> <Gold.Protein.ActiveResidues>
 VAL166  LYS551  ARG553  GLY616  TRP617  ASP618  TYR619  PRO620  LYS621  CYS622 
 ASP623  PHE694  ASN695  SER759  ASP760  ASP761  ALA762  ILE779  LEU786  VAL792 
 PHE793  MET794  SER795  GLU796  ALA797  LYS798  CYS799  TRP800  GLU811  SER814 

> <Gold.Protein.RotatedAtoms>
  152.4041  134.6237  160.0057 H   0  0  0  0  0  0  0  0  0  0  0  0  # atno 6907 bound_to 6896
  151.6434  133.3319  159.3143 H   0  0  0  0  0  0  0  0  0  0  0  0  # atno 6908 bound_to 6896
  150.7937  134.7023  159.6602 H   0  0  0  0  0  0  0  0  0  0  0  0  # atno 6909 bound_to 6896
  144.9036  139.5389  143.5742 H   0  0  0  0  0  0  0  0  0  0  0  0  # atno 7974 bound_to 7965
  154.4032  140.1569  156.2751 H   0  0  0  0  0  0  0  0  0  0  0  0  # atno 8008 bound_to 7997
  155.8919  140.3438  155.5940 H   0  0  0  0  0  0  0  0  0  0  0  0  # atno 8009 bound_to 7997
  155.7548  140.0810  157.2174 H   0  0  0  0  0  0  0  0  0  0  0  0  # atno 8010 bound_to 7997
  140.0538  143.5034  152.2068 H   0  0  0  0  0  0  0  0  0  0  0  0  # atno 10167 bound_to 10162
  156.3360  130.7612  151.1739 H   0  0  0  0  0  0  0  0  0  0  0  0  # atno 10718 bound_to 10713
  154.7552  135.4947  153.9361 H   0  0  0  0  0  0  0  0  0  0  0  0  # atno 10763 bound_to 10752
  153.1188  135.6727  153.9380 H   0  0  0  0  0  0  0  0  0  0  0  0  # atno 10764 bound_to 10752
  153.9118  135.3098  155.3427 H   0  0  0  0  0  0  0  0  0  0  0  0  # atno 10765 bound_to 10752
  141.1438  133.6672  156.5899 H   0  0  0  0  0  0  0  0  0  0  0  0  # atno 11005 bound_to 11000
  146.3122  139.7786  142.9011 LP  0  0  0  0  0  0  0  0  0  0  0  0  # atno 17320 bound_to 7965
  145.3574  141.0319  143.3304 LP  0  0  0  0  0  0  0  0  0  0  0  0  # atno 17321 bound_to 7965
  139.5936  144.7559  151.3340 LP  0  0  0  0  0  0  0  0  0  0  0  0  # atno 17342 bound_to 10162
  140.7204  143.7151  150.7739 LP  0  0  0  0  0  0  0  0  0  0  0  0  # atno 17343 bound_to 10162
  157.7439  131.0468  150.4911 LP  0  0  0  0  0  0  0  0  0  0  0  0  # atno 17370 bound_to 10713
  156.5084  130.4133  149.6314 LP  0  0  0  0  0  0  0  0  0  0  0  0  # atno 17371 bound_to 10713
  140.3771  134.7556  157.4637 LP  0  0  0  0  0  0  0  0  0  0  0  0  # atno 17394 bound_to 11000
  140.0666  134.5921  155.8688 LP  0  0  0  0  0  0  0  0  0  0  0  0  # atno 17395 bound_to 11000

$$$$
