AV-unprocessed.smi:1946|AV-procd|sdf|7864|dock4
  -GOLD-   2272010 13D 1   1.00000     0.00000
 Structure written by MMmdl.
 39 41  0  0  0  0  0  0  0  0  2 V2000
  144.2703  145.6177  154.5839 C   0  0  0  0  0  0  0  0  0  0  0  0
  144.1873  144.3129  155.8768 S   0  0  0  0  0  0  0  0  0  0  0  0
  144.2813  144.9662  157.1916 O   0  0  0  0  0  0  0  0  0  0  0  0
  143.0385  143.4449  155.5754 O   0  0  0  0  0  0  0  0  0  0  0  0
  145.6828  143.3666  155.6171 C   0  0  0  0  0  0  0  0  0  0  0  0
  146.1448  143.1383  154.3060 C   0  0  0  0  0  0  0  0  0  0  0  0
  147.3392  142.4202  154.1039 C   0  0  0  0  0  0  0  0  0  0  0  0
  148.0770  141.9378  155.2079 C   0  0  0  0  0  0  0  0  0  0  0  0
  149.3749  141.1714  154.9948 C   0  0  1  0  0  0  0  0  0  0  0  0
  149.6088  140.8945  153.6302 O   0  0  0  0  0  0  0  0  0  0  0  0
  150.6015  141.9253  155.5471 C   0  0  0  0  0  0  0  0  0  0  0  0
  150.9841  141.4762  156.8917 N   0  0  0  0  0  0  0  0  0  0  0  0
  150.7418  140.2932  157.5190 C   0  0  0  0  0  0  0  0  0  0  0  0
  151.3123  140.3590  158.7540 N   0  3  0  0  0  0  0  0  0  0  0  0
  151.9246  141.6034  158.9191 C   0  0  0  0  0  0  0  0  0  0  0  0
  152.6282  142.1382  159.9939 C   0  0  0  0  0  0  0  0  0  0  0  0
  153.1267  143.4483  159.8350 C   0  0  0  0  0  0  0  0  0  0  0  0
  152.9184  144.1748  158.6445 C   0  0  0  0  0  0  0  0  0  0  0  0
  152.2031  143.6230  157.5611 C   0  0  0  0  0  0  0  0  0  0  0  0
  151.7153  142.3273  157.7262 C   0  0  0  0  0  0  0  0  0  0  0  0
  147.6137  142.1878  156.5183 C   0  0  0  0  0  0  0  0  0  0  0  0
  146.4197  142.9052  156.7257 C   0  0  0  0  0  0  0  0  0  0  0  0
  143.3901  146.2561  154.6575 H   0  0  0  0  0  0  0  0  0  0  0  0
  144.2995  145.1529  153.5985 H   0  0  0  0  0  0  0  0  0  0  0  0
  145.1673  146.2190  154.7296 H   0  0  0  0  0  0  0  0  0  0  0  0
  145.5905  143.5090  153.4565 H   0  0  0  0  0  0  0  0  0  0  0  0
  147.6904  142.2445  153.0975 H   0  0  0  0  0  0  0  0  0  0  0  0
  149.2944  140.2053  155.4942 H   0  0  0  0  0  0  0  0  0  0  0  0
  148.9474  140.2902  153.3289 H   0  0  0  0  0  0  0  0  0  0  0  0
  151.4641  141.8042  154.8902 H   0  0  0  0  0  0  0  0  0  0  0  0
  150.4023  142.9967  155.6017 H   0  0  0  0  0  0  0  0  0  0  0  0
  150.2003  139.4529  157.1086 H   0  0  0  0  0  0  0  0  0  0  0  0
  152.7883  141.5853  160.9081 H   0  0  0  0  0  0  0  0  0  0  0  0
  153.6792  143.9056  160.6429 H   0  0  0  0  0  0  0  0  0  0  0  0
  153.3144  145.1765  158.5607 H   0  0  0  0  0  0  0  0  0  0  0  0
  152.0478  144.1881  156.6539 H   0  0  0  0  0  0  0  0  0  0  0  0
  148.1751  141.8337  157.3707 H   0  0  0  0  0  0  0  0  0  0  0  0
  146.0759  143.0973  157.7314 H   0  0  0  0  0  0  0  0  0  0  0  0
  151.2825  139.6087  159.4325 H   0  0  0  0  0  0  0  0  0  0  0  0
  1  2  1  0  0  0  0
  1 23  1  0  0  0  0
  1 24  1  0  0  0  0
  1 25  1  0  0  0  0
  2  3  2  0  0  0  0
  2  4  2  0  0  0  0
  2  5  1  0  0  0  0
  5 22  1  0  0  0  0
  5  6  2  0  0  0  0
  6  7  1  0  0  0  0
  6 26  1  0  0  0  0
  7  8  2  0  0  0  0
  7 27  1  0  0  0  0
  8  9  1  0  0  0  0
  8 21  1  0  0  0  0
  9 10  1  0  0  0  0
  9 11  1  0  0  0  0
  9 28  1  0  0  0  0
 10 29  1  0  0  0  0
 11 12  1  0  0  0  0
 11 30  1  0  0  0  0
 11 31  1  0  0  0  0
 12 20  1  0  0  0  0
 12 13  1  0  0  0  0
 13 14  2  0  0  0  0
 13 32  1  0  0  0  0
 14 15  1  0  0  0  0
 14 39  1  0  0  0  0
 15 20  2  0  0  0  0
 15 16  1  0  0  0  0
 16 17  2  0  0  0  0
 16 33  1  0  0  0  0
 17 18  1  0  0  0  0
 17 34  1  0  0  0  0
 18 19  2  0  0  0  0
 18 35  1  0  0  0  0
 19 20  1  0  0  0  0
 19 36  1  0  0  0  0
 21 22  2  0  0  0  0
 21 37  1  0  0  0  0
 22 38  1  0  0  0  0
M  CHG  1  14   1
M  END
> <s_m_source_file>
AV-unprocessed.smi

> <i_m_source_file_index>
1946

> <i_lp_mmshare_version>
43012

> <i_f3d_flags>
0

> <s_epik_input>
W0NIM11TKD1PKSg9TyljMVtjSF1bY0hdYyhbY0hdW2NIXTEpW0NASF0oW09IXSlbQ0gyXW4oW2NIXW4yKWMoYzIzKVtjSF1bY0hdW2NIXVtjSF0z

> <s_epik_cmdline>
J2VwaWtfcHl0aG9uJywgJy1waCcsICc3LjAnLCAnLXRuJywgJzgnLCAnLW1hJywgJzIwMCcsICctbWV0YWxfYmluZGluZycsICctaW1hZScsICc8aW5maWxlLm1hZT4nLCAnLW9tYWUnLCAnPG91dGZpbGUubWFlPic=

> <r_epik_Ionization_Penalty>
1.3029

> <r_epik_Ionization_Penalty_Charging>
1.3029

> <r_epik_Ionization_Penalty_Neutral>
1.34362e-06

> <r_epik_State_Penalty>
1.377

> <r_epik_Charging_Adjusted_Penalty>
2.6799

> <i_epik_Tot_Q>
1

> <i_epik_Tot_abs_Q>
1

> <r_epik_Metal_State_Penalty>
5.40879

> <b_epik_Metal_Only>
0

> <s_lp_Force_Field>
OPLS_2005

> <r_lp_Energy>
16.9066

> <b_lp_Chiralities_Consistent>
1

> <s_lp_Variant>
AV-unprocessed.smi:1946-4

> <Gold.Version>
5.8.1

> <Gold.Id.Protein>
6NUR|6NUR_protein|mol2

> <Gold.PLP.Fitness>
48.7236

> <Gold.PLP.PLP>
-46.6236

> <Gold.PLP.part.hbond>
-3.0000

> <Gold.PLP.part.metal>
0.0000

> <Gold.PLP.part.buried>
-4.3002

> <Gold.PLP.part.nonpolar>
-39.8007

> <Gold.PLP.part.repulsive>
0.3820

> <Gold.PLP.ligand.clash>
0.0000

> <Gold.PLP.ligand.torsion>
2.0885

> <Gold.PLP.Chemscore.Hbond>
1.4096

> <Gold.PLP.Chemscore.CHOScore>
0.0000

> <Gold.PLP.Chemscore.Metal>
0.0000

> <Gold.Chemscore.Hbonds>
donor molecule, donor type, donor heavy atom, donor atom, acceptor molecule, acceptor atom, score
      P1  H  7989  7998       L1    10  0.35
      P1  H  8011  8017       L1    10  1.00

> <Gold.PLP.Chemscore.Internal.Correction>
2.0482

> <Gold.Rescore>
     Score         DG    S(hbond)    S(metal)    S(lipo)     H(rot)  DE(clash)    DE(int)     intcor
     14.94     -17.91       1.19        0.00     116.77       2.04       0.93       2.04       ----

> <Gold.Chemscore.Fitness>
14.9445

> <Gold.Chemscore.DG>
-17.9129

> <Gold.Chemscore.ZeroCoef>
-5.4800

> <Gold.Chemscore.Hbond>
1.1943

> <Gold.Chemscore.Metal>
0.0000

> <Gold.Chemscore.Lipo>
116.7658

> <Gold.Chemscore.Internal_Hbond>
0.0000

> <Gold.Chemscore.DEClash>
0.9329

> <Gold.Chemscore.DEInternal>
2.0354

> <Gold.Chemscore.Rot>
2.0382

> <Gold.Chemscore.Internal.Correction>
   9.000000E+99

> <Gold.Chemscore.Hbonds>
donor molecule, donor type, donor heavy atom, donor atom, acceptor molecule, acceptor atom, score
      L1  H    10    29       P1  7957  0.02
      P1  H  7989  7998       L1    10  0.16
      P1  H  8011  8017       L1    10  0.67

> <Gold.Chemscore.Hbond.Weighted>
-3.9890

> <Gold.Chemscore.Metal.Weighted>
-0.0000

> <Gold.Chemscore.Lipo.Weighted>
-13.6616

> <Gold.Chemscore.Internal_Hbond.Weighted>
0.0000

> <Gold.Chemscore.DEClash.Weighted>
0.9329

> <Gold.Chemscore.DEInternal.Weighted>
2.0354

> <Gold.Chemscore.Rot.Weighted>
5.2177

> <Gold.Chemscore.Internal.Correction.Weighted>
   9.000000E+99

> <Gold.Protein.RotatedTorsions>
[ 6907 6896 6895 6894 ] final  170.50 input  -60.11 | X-H torsion
[ 7974 7965 7964 7962 ] final   17.38 input  175.53 | X-H torsion
[ 8008 7997 7996 7995 ] final   92.75 input   59.86 | X-H torsion
[ 10167 10162 10161 10158 ] final  171.27 input  -65.29 | X-H torsion
[ 10718 10713 10712 10709 ] final    6.91 input   66.30 | X-H torsion
[ 10763 10752 10751 10750 ] final  -37.95 input  -60.55 | X-H torsion
[ 11005 11000 10999 10996 ] final  -58.34 input  -57.11 | X-H torsion

> <Gold.Protein.ActiveResidues>
 VAL166  LYS551  ARG553  GLY616  TRP617  ASP618  TYR619  PRO620  LYS621  CYS622 
 ASP623  PHE694  ASN695  SER759  ASP760  ASP761  ALA762  ILE779  LEU786  VAL792 
 PHE793  MET794  SER795  GLU796  ALA797  LYS798  CYS799  TRP800  GLU811  SER814 

> <Gold.Protein.RotatedAtoms>
  151.8151  133.3387  159.3566 H   0  0  0  0  0  0  0  0  0  0  0  0  # atno 6907 bound_to 6896
  150.7313  134.5627  159.5860 H   0  0  0  0  0  0  0  0  0  0  0  0  # atno 6908 bound_to 6896
  152.3047  134.7570  160.0401 H   0  0  0  0  0  0  0  0  0  0  0  0  # atno 6909 bound_to 6896
  146.2220  139.8610  142.8605 H   0  0  0  0  0  0  0  0  0  0  0  0  # atno 7974 bound_to 7965
  156.0389  140.3321  155.7222 H   0  0  0  0  0  0  0  0  0  0  0  0  # atno 8008 bound_to 7997
  155.5773  140.0633  157.2809 H   0  0  0  0  0  0  0  0  0  0  0  0  # atno 8009 bound_to 7997
  154.4384  140.1850  156.0929 H   0  0  0  0  0  0  0  0  0  0  0  0  # atno 8010 bound_to 7997
  139.5042  144.3504  151.9928 H   0  0  0  0  0  0  0  0  0  0  0  0  # atno 10167 bound_to 10162
  156.9291  130.5819  149.5649 H   0  0  0  0  0  0  0  0  0  0  0  0  # atno 10718 bound_to 10713
  153.9048  135.6798  153.4753 H   0  0  0  0  0  0  0  0  0  0  0  0  # atno 10763 bound_to 10752
  153.1110  135.4783  154.9032 H   0  0  0  0  0  0  0  0  0  0  0  0  # atno 10764 bound_to 10752
  154.7557  135.3196  154.8429 H   0  0  0  0  0  0  0  0  0  0  0  0  # atno 10765 bound_to 10752
  141.1203  133.6612  156.4906 H   0  0  0  0  0  0  0  0  0  0  0  0  # atno 11005 bound_to 11000
  145.2704  141.0107  143.3775 LP  0  0  0  0  0  0  0  0  0  0  0  0  # atno 17320 bound_to 7965
  144.9228  139.4391  143.6533 LP  0  0  0  0  0  0  0  0  0  0  0  0  # atno 17321 bound_to 7965
  140.2941  144.3721  150.6079 LP  0  0  0  0  0  0  0  0  0  0  0  0  # atno 17342 bound_to 10162
  140.5924  143.2167  151.7228 LP  0  0  0  0  0  0  0  0  0  0  0  0  # atno 17343 bound_to 10162
  156.0455  130.5532  150.8871 LP  0  0  0  0  0  0  0  0  0  0  0  0  # atno 17370 bound_to 10713
  157.5858  131.0945  150.9198 LP  0  0  0  0  0  0  0  0  0  0  0  0  # atno 17371 bound_to 10713
  140.4526  134.6914  157.5047 LP  0  0  0  0  0  0  0  0  0  0  0  0  # atno 17394 bound_to 11000
  140.0155  134.6625  155.9316 LP  0  0  0  0  0  0  0  0  0  0  0  0  # atno 17395 bound_to 11000

$$$$
