AV-unprocessed.smi:1668|AV-procd|sdf|6681|dock6
  -GOLD-   22720 7393D 1   1.00000     0.00000
 Structure written by MMmdl.
 44 46  0  0  0  0  0  0  0  0  1 V2000
  154.3011  134.9363  164.2351 C   0  0  0  0  0  0  0  0  0  0  0  0
  154.1168  136.1530  163.5265 O   0  0  0  0  0  0  0  0  0  0  0  0
  154.5012  136.1975  162.2037 C   0  0  0  0  0  0  0  0  0  0  0  0
  155.0685  135.1082  161.5019 C   0  0  0  0  0  0  0  0  0  0  0  0
  155.4229  135.2402  160.1470 C   0  0  0  0  0  0  0  0  0  0  0  0
  155.2212  136.4616  159.4585 C   0  0  0  0  0  0  0  0  0  0  0  0
  155.5321  136.6354  158.1255 O   0  0  0  0  0  0  0  0  0  0  0  0
  156.0390  135.5255  157.3999 C   0  0  0  0  0  0  0  0  0  0  0  0
  154.6607  137.5576  160.1602 C   0  0  0  0  0  0  0  0  0  0  0  0
  154.3837  138.8833  159.4497 C   0  0  2  0  0  0  0  0  0  0  0  0
  155.5620  139.5019  158.9730 O   0  0  0  0  0  0  0  0  0  0  0  0
  153.6396  139.8956  160.3496 C   0  0  0  0  0  0  0  0  0  0  0  0
  152.9870  140.9528  159.5760 N   0  0  0  0  0  0  0  0  0  0  0  0
  152.5124  140.8398  158.3127 C   0  0  0  0  0  0  0  0  0  0  0  0
  152.5956  139.8415  157.5973 O   0  0  0  0  0  0  0  0  0  0  0  0
  151.8984  142.0013  157.9893 N   0  0  0  0  0  0  0  0  0  0  0  0
  151.2041  142.3046  156.7440 C   0  0  0  0  0  0  0  0  0  0  0  0
  151.9673  142.8772  159.0800 C   0  0  0  0  0  0  0  0  0  0  0  0
  151.4602  144.1766  159.2527 C   0  0  0  0  0  0  0  0  0  0  0  0
  151.6865  144.7971  160.5036 C   0  0  0  0  0  0  0  0  0  0  0  0
  152.3963  144.1236  161.5313 C   0  0  0  0  0  0  0  0  0  0  0  0
  152.8966  142.8163  161.3294 C   0  0  0  0  0  0  0  0  0  0  0  0
  152.6580  142.2220  160.0775 C   0  0  0  0  0  0  0  0  0  0  0  0
  154.3057  137.4121  161.5198 C   0  0  0  0  0  0  0  0  0  0  0  0
  153.9499  135.0599  165.2595 H   0  0  0  0  0  0  0  0  0  0  0  0
  155.3544  134.6563  164.2793 H   0  0  0  0  0  0  0  0  0  0  0  0
  153.7288  134.1229  163.7868 H   0  0  0  0  0  0  0  0  0  0  0  0
  155.2397  134.1558  161.9799 H   0  0  0  0  0  0  0  0  0  0  0  0
  155.8504  134.3805  159.6544 H   0  0  0  0  0  0  0  0  0  0  0  0
  156.1259  135.7970  156.3479 H   0  0  0  0  0  0  0  0  0  0  0  0
  155.3667  134.6684  157.4626 H   0  0  0  0  0  0  0  0  0  0  0  0
  157.0308  135.2373  157.7501 H   0  0  0  0  0  0  0  0  0  0  0  0
  153.7801  138.6939  158.5619 H   0  0  0  0  0  0  0  0  0  0  0  0
  156.1366  139.6556  159.7074 H   0  0  0  0  0  0  0  0  0  0  0  0
  152.8993  139.3814  160.9631 H   0  0  0  0  0  0  0  0  0  0  0  0
  154.3394  140.3538  161.0506 H   0  0  0  0  0  0  0  0  0  0  0  0
  151.4356  143.3173  156.4127 H   0  0  0  0  0  0  0  0  0  0  0  0
  150.1262  142.2288  156.8892 H   0  0  0  0  0  0  0  0  0  0  0  0
  151.4886  141.6197  155.9439 H   0  0  0  0  0  0  0  0  0  0  0  0
  150.9168  144.6808  158.4676 H   0  0  0  0  0  0  0  0  0  0  0  0
  151.3126  145.7949  160.6792 H   0  0  0  0  0  0  0  0  0  0  0  0
  152.5547  144.6138  162.4806 H   0  0  0  0  0  0  0  0  0  0  0  0
  153.4306  142.2982  162.1119 H   0  0  0  0  0  0  0  0  0  0  0  0
  153.8601  138.2411  162.0501 H   0  0  0  0  0  0  0  0  0  0  0  0
  1  2  1  0  0  0  0
  1 25  1  0  0  0  0
  1 26  1  0  0  0  0
  1 27  1  0  0  0  0
  2  3  1  0  0  0  0
  3 24  1  0  0  0  0
  3  4  2  0  0  0  0
  4  5  1  0  0  0  0
  4 28  1  0  0  0  0
  5  6  2  0  0  0  0
  5 29  1  0  0  0  0
  6  7  1  0  0  0  0
  6  9  1  0  0  0  0
  7  8  1  0  0  0  0
  8 30  1  0  0  0  0
  8 31  1  0  0  0  0
  8 32  1  0  0  0  0
  9 10  1  0  0  0  0
  9 24  2  0  0  0  0
 10 11  1  0  0  0  0
 10 12  1  0  0  0  0
 10 33  1  0  0  0  0
 11 34  1  0  0  0  0
 12 13  1  0  0  0  0
 12 35  1  0  0  0  0
 12 36  1  0  0  0  0
 13 23  1  0  0  0  0
 13 14  1  0  0  0  0
 14 15  2  0  0  0  0
 14 16  1  0  0  0  0
 16 17  1  0  0  0  0
 16 18  1  0  0  0  0
 17 37  1  0  0  0  0
 17 38  1  0  0  0  0
 17 39  1  0  0  0  0
 18 23  2  0  0  0  0
 18 19  1  0  0  0  0
 19 20  2  0  0  0  0
 19 40  1  0  0  0  0
 20 21  1  0  0  0  0
 20 41  1  0  0  0  0
 21 22  2  0  0  0  0
 21 42  1  0  0  0  0
 22 23  1  0  0  0  0
 22 43  1  0  0  0  0
 24 44  1  0  0  0  0
M  END
> <s_m_source_file>
AV-unprocessed.smi

> <i_m_source_file_index>
1668

> <i_lp_mmshare_version>
43012

> <i_f3d_flags>
0

> <s_epik_input>
W0NIM11PYzFbY0hdW2NIXWMoT1tDSDNdKWMoW2NIXTEpW0NASF0oW09IXSlbQ0gyXW4oYyg9TyluMltDSDNdKWMoYzIzKVtjSF1bY0hdW2NIXVtjSF0z

> <s_epik_cmdline>
J2VwaWtfcHl0aG9uJywgJy1waCcsICc3LjAnLCAnLXRuJywgJzgnLCAnLW1hJywgJzIwMCcsICctbWV0YWxfYmluZGluZycsICctaW1hZScsICc8aW5maWxlLm1hZT4nLCAnLW9tYWUnLCAnPG91dGZpbGUubWFlPic=

> <r_lp_tautomer_probability>
1

> <r_epik_Ionization_Penalty>
1.34538e-06

> <r_epik_Ionization_Penalty_Charging>
1.76928e-09

> <r_epik_Ionization_Penalty_Neutral>
1.34362e-06

> <r_epik_State_Penalty>
-0

> <r_epik_Charging_Adjusted_Penalty>
1.76928e-09

> <i_epik_Tot_Q>
0

> <i_epik_Tot_abs_Q>
0

> <r_epik_Metal_State_Penalty>
-0

> <b_epik_Metal_Only>
0

> <s_lp_Force_Field>
OPLS_2005

> <r_lp_Energy>
46.5536

> <b_lp_Chiralities_Consistent>
1

> <s_lp_Variant>
AV-unprocessed.smi:1668-1

> <Gold.Version>
5.8.1

> <Gold.Id.Protein>
6NUR|6NUR_protein|mol2

> <Gold.PLP.Fitness>
48.9561

> <Gold.PLP.PLP>
-45.4350

> <Gold.PLP.part.hbond>
-2.0000

> <Gold.PLP.part.metal>
0.0000

> <Gold.PLP.part.buried>
-6.6207

> <Gold.PLP.part.nonpolar>
-35.8368

> <Gold.PLP.part.repulsive>
0.0435

> <Gold.PLP.ligand.clash>
0.1047

> <Gold.PLP.ligand.torsion>
0.5258

> <Gold.PLP.Chemscore.Hbond>
1.5348

> <Gold.PLP.Chemscore.CHOScore>
0.0000

> <Gold.PLP.Chemscore.Metal>
0.0000

> <Gold.Chemscore.Hbonds>
donor molecule, donor type, donor heavy atom, donor atom, acceptor molecule, acceptor atom, score
      P1  H  7997  8008       L1    15  0.93
      P1  H  7997  8010       L1    11  0.56

> <Gold.PLP.Chemscore.Internal.Correction>
0.0732

> <Gold.Rescore>
     Score         DG    S(hbond)    S(metal)    S(lipo)     H(rot)  DE(clash)    DE(int)     intcor
     16.81     -18.84       1.42        0.00     122.83       2.24       0.06       1.97       ----

> <Gold.Chemscore.Fitness>
16.8149

> <Gold.Chemscore.DG>
-18.8398

> <Gold.Chemscore.ZeroCoef>
-5.4800

> <Gold.Chemscore.Hbond>
1.4178

> <Gold.Chemscore.Metal>
0.0000

> <Gold.Chemscore.Lipo>
122.8289

> <Gold.Chemscore.Internal_Hbond>
0.0000

> <Gold.Chemscore.DEClash>
0.0562

> <Gold.Chemscore.DEInternal>
1.9687

> <Gold.Chemscore.Rot>
2.2448

> <Gold.Chemscore.Internal.Correction>
   9.000000E+99

> <Gold.Chemscore.Hbonds>
donor molecule, donor type, donor heavy atom, donor atom, acceptor molecule, acceptor atom, score
      P1  H  7997  8008       L1    15  0.38
      P1  H  7997  8010       L1    11  0.55

> <Gold.Chemscore.Hbond.Weighted>
-4.7356

> <Gold.Chemscore.Metal.Weighted>
-0.0000

> <Gold.Chemscore.Lipo.Weighted>
-14.3710

> <Gold.Chemscore.Internal_Hbond.Weighted>
0.0000

> <Gold.Chemscore.DEClash.Weighted>
0.0562

> <Gold.Chemscore.DEInternal.Weighted>
1.9687

> <Gold.Chemscore.Rot.Weighted>
5.7467

> <Gold.Chemscore.Internal.Correction.Weighted>
   9.000000E+99

> <Gold.Protein.RotatedTorsions>
[ 6907 6896 6895 6894 ] final -114.05 input  -60.11 | X-H torsion
[ 7974 7965 7964 7962 ] final  125.24 input  175.53 | X-H torsion
[ 8008 7997 7996 7995 ] final  -53.98 input   59.86 | X-H torsion
[ 10167 10162 10161 10158 ] final  145.37 input  -65.29 | X-H torsion
[ 10718 10713 10712 10709 ] final  -97.43 input   66.30 | X-H torsion
[ 10763 10752 10751 10750 ] final   86.32 input  -60.55 | X-H torsion
[ 11005 11000 10999 10996 ] final -109.92 input  -57.11 | X-H torsion

> <Gold.Protein.ActiveResidues>
 VAL166  LYS551  ARG553  GLY616  TRP617  ASP618  TYR619  PRO620  LYS621  CYS622 
 ASP623  PHE694  ASN695  SER759  ASP760  ASP761  ALA762  ILE779  LEU786  VAL792 
 PHE793  MET794  SER795  GLU796  ALA797  LYS798  CYS799  TRP800  GLU811  SER814 

> <Gold.Protein.RotatedAtoms>
  150.7874  133.8856  159.3298 H   0  0  0  0  0  0  0  0  0  0  0  0  # atno 6907 bound_to 6896
  151.6703  135.0975  160.0206 H   0  0  0  0  0  0  0  0  0  0  0  0  # atno 6908 bound_to 6896
  152.3941  133.6682  159.6297 H   0  0  0  0  0  0  0  0  0  0  0  0  # atno 6909 bound_to 6896
  145.0753  139.3699  143.4937 H   0  0  0  0  0  0  0  0  0  0  0  0  # atno 7974 bound_to 7965
  154.4149  140.1187  156.5242 H   0  0  0  0  0  0  0  0  0  0  0  0  # atno 8008 bound_to 7997
  155.6671  140.3496  155.4785 H   0  0  0  0  0  0  0  0  0  0  0  0  # atno 8009 bound_to 7997
  155.9664  140.1133  157.0841 H   0  0  0  0  0  0  0  0  0  0  0  0  # atno 8010 bound_to 7997
  139.4927  144.5906  151.6688 H   0  0  0  0  0  0  0  0  0  0  0  0  # atno 10167 bound_to 10162
  156.0083  130.5194  150.6373 H   0  0  0  0  0  0  0  0  0  0  0  0  # atno 10718 bound_to 10713
  153.1559  135.4585  154.9703 H   0  0  0  0  0  0  0  0  0  0  0  0  # atno 10763 bound_to 10752
  154.7861  135.3204  154.7886 H   0  0  0  0  0  0  0  0  0  0  0  0  # atno 10764 bound_to 10752
  153.8383  135.6932  153.4860 H   0  0  0  0  0  0  0  0  0  0  0  0  # atno 10765 bound_to 10752
  141.0821  133.9202  157.2266 H   0  0  0  0  0  0  0  0  0  0  0  0  # atno 11005 bound_to 11000
  146.3530  140.0517  142.8635 LP  0  0  0  0  0  0  0  0  0  0  0  0  # atno 17320 bound_to 7965
  145.1244  140.9481  143.4581 LP  0  0  0  0  0  0  0  0  0  0  0  0  # atno 17321 bound_to 7965
  140.5532  144.0391  150.6136 LP  0  0  0  0  0  0  0  0  0  0  0  0  # atno 17342 bound_to 10162
  140.3452  143.2996  152.0546 LP  0  0  0  0  0  0  0  0  0  0  0  0  # atno 17343 bound_to 10162
  157.4160  131.0830  151.1176 LP  0  0  0  0  0  0  0  0  0  0  0  0  # atno 17370 bound_to 10713
  157.1793  130.6302  149.5666 LP  0  0  0  0  0  0  0  0  0  0  0  0  # atno 17371 bound_to 10713
  139.9636  135.0148  156.9326 LP  0  0  0  0  0  0  0  0  0  0  0  0  # atno 17394 bound_to 11000
  140.5445  134.0687  155.7351 LP  0  0  0  0  0  0  0  0  0  0  0  0  # atno 17395 bound_to 11000

$$$$
