AV-unprocessed.smi:278|AV-procd|sdf|2087|dock5
  -GOLD-   2262021363D 1   1.00000     0.00000
 Structure written by MMmdl.
 50 54  0  0  0  0  0  0  0  0  1 V2000
  146.8874  136.2004  154.4561 O   0  0  0  0  0  0  0  0  0  0  0  0
  146.8599  134.7509  154.7059 S   0  0  0  0  0  0  0  0  0  0  0  0
  145.6480  134.1016  155.2281 O   0  0  0  0  0  0  0  0  0  0  0  0
  147.3983  133.8728  153.1877 C   0  0  0  0  0  0  0  0  0  0  0  0
  148.5669  132.9704  153.6050 C   0  0  0  0  0  0  0  0  0  0  0  0
  149.3043  133.6166  154.7920 C   0  0  1  0  0  0  0  0  0  0  0  0
  150.1976  134.7987  154.4011 C   0  0  0  0  0  0  0  0  0  0  0  0
  150.2118  135.6653  155.5709 N   0  0  0  0  0  0  0  0  0  0  0  0
  150.8373  136.8715  155.5509 C   0  0  0  0  0  0  0  0  0  0  0  0
  151.6862  137.1464  154.5246 N   0  0  0  0  0  0  0  0  0  0  0  0
  152.3276  138.3167  154.4664 C   0  0  0  0  0  0  0  0  0  0  0  0
  152.2737  139.3399  155.3195 N   0  0  0  0  0  0  0  0  0  0  0  0
  151.4317  139.0719  156.3578 C   0  0  0  0  0  0  0  0  0  0  0  0
  150.6812  137.8761  156.5525 C   0  0  0  0  0  0  0  0  0  0  0  0
  149.9495  137.9745  157.7320 N   0  0  0  0  0  0  0  0  0  0  0  0
  150.2388  139.1588  158.1967 C   0  0  0  0  0  0  0  0  0  0  0  0
  151.1232  139.8847  157.4341 N   0  0  0  0  0  0  0  0  0  0  0  0
  151.6169  141.2211  157.7156 C   0  0  0  0  0  0  0  0  0  0  0  0
  150.6259  142.3189  157.2826 C   0  0  2  0  0  0  0  0  0  0  0  0
  150.6339  142.4781  155.8767 O   0  0  0  0  0  0  0  0  0  0  0  0
  150.8885  143.6679  157.9826 C   0  0  2  0  0  0  0  0  0  0  0  0
  152.1899  144.3867  157.6170 C   0  0  0  0  0  0  0  0  0  0  0  0
  152.3790  145.2797  158.8229 C   0  0  0  0  0  0  0  0  0  0  0  0
  151.9059  144.3754  159.9590 C   0  0  0  0  0  0  0  0  0  0  0  0
  150.8920  143.5422  159.4027 O   0  0  0  0  0  0  0  0  0  0  0  0
  149.0270  135.4392  156.3874 C   0  0  0  0  0  0  0  0  0  0  0  0
  148.2934  134.2490  155.7512 C   0  0  1  0  0  0  0  0  0  0  0  0
  149.9080  132.8787  155.3220 H   0  0  0  0  0  0  0  0  0  0  0  0
  147.9349  133.5377  156.4957 H   0  0  0  0  0  0  0  0  0  0  0  0
  146.5644  133.3189  152.7564 H   0  0  0  0  0  0  0  0  0  0  0  0
  147.7258  134.6215  152.4662 H   0  0  0  0  0  0  0  0  0  0  0  0
  148.1660  132.0096  153.9293 H   0  0  0  0  0  0  0  0  0  0  0  0
  149.2373  132.7663  152.7696 H   0  0  0  0  0  0  0  0  0  0  0  0
  151.2021  134.4677  154.1350 H   0  0  0  0  0  0  0  0  0  0  0  0
  149.7824  135.3465  153.5541 H   0  0  0  0  0  0  0  0  0  0  0  0
  152.9776  138.4518  153.6146 H   0  0  0  0  0  0  0  0  0  0  0  0
  149.8133  139.5374  159.1148 H   0  0  0  0  0  0  0  0  0  0  0  0
  151.8127  141.2933  158.7860 H   0  0  0  0  0  0  0  0  0  0  0  0
  152.5774  141.3492  157.2152 H   0  0  0  0  0  0  0  0  0  0  0  0
  149.6184  141.9973  157.5490 H   0  0  0  0  0  0  0  0  0  0  0  0
  150.5267  143.3964  155.6804 H   0  0  0  0  0  0  0  0  0  0  0  0
  150.0622  144.3406  157.7466 H   0  0  0  0  0  0  0  0  0  0  0  0
  153.0278  143.6929  157.5428 H   0  0  0  0  0  0  0  0  0  0  0  0
  152.1212  144.9402  156.6803 H   0  0  0  0  0  0  0  0  0  0  0  0
  153.4066  145.6209  158.9491 H   0  0  0  0  0  0  0  0  0  0  0  0
  151.7339  146.1558  158.7453 H   0  0  0  0  0  0  0  0  0  0  0  0
  152.7233  143.7405  160.3030 H   0  0  0  0  0  0  0  0  0  0  0  0
  151.5338  144.9404  160.8139 H   0  0  0  0  0  0  0  0  0  0  0  0
  149.3486  135.1831  157.3972 H   0  0  0  0  0  0  0  0  0  0  0  0
  148.3934  136.3235  156.4542 H   0  0  0  0  0  0  0  0  0  0  0  0
  1  2  2  0  0  0  0
  2 27  1  0  0  0  0
  2  3  2  0  0  0  0
  2  4  1  0  0  0  0
  4  5  1  0  0  0  0
  4 30  1  0  0  0  0
  4 31  1  0  0  0  0
  5  6  1  0  0  0  0
  5 32  1  0  0  0  0
  5 33  1  0  0  0  0
  6 28  1  0  0  0  0
  6 27  1  0  0  0  0
  6  7  1  0  0  0  0
  7  8  1  0  0  0  0
  7 34  1  0  0  0  0
  7 35  1  0  0  0  0
  8  9  1  0  0  0  0
  8 26  1  0  0  0  0
  9 14  1  0  0  0  0
  9 10  2  0  0  0  0
 10 11  1  0  0  0  0
 11 12  2  0  0  0  0
 11 36  1  0  0  0  0
 12 13  1  0  0  0  0
 13 17  1  0  0  0  0
 13 14  2  0  0  0  0
 14 15  1  0  0  0  0
 15 16  2  0  0  0  0
 16 17  1  0  0  0  0
 16 37  1  0  0  0  0
 17 18  1  0  0  0  0
 18 19  1  0  0  0  0
 18 38  1  0  0  0  0
 18 39  1  0  0  0  0
 19 20  1  0  0  0  0
 19 21  1  0  0  0  0
 19 40  1  0  0  0  0
 20 41  1  0  0  0  0
 21 25  1  0  0  0  0
 21 22  1  0  0  0  0
 21 42  1  0  0  0  0
 22 23  1  0  0  0  0
 22 43  1  0  0  0  0
 22 44  1  0  0  0  0
 23 24  1  0  0  0  0
 23 45  1  0  0  0  0
 23 46  1  0  0  0  0
 24 25  1  0  0  0  0
 24 47  1  0  0  0  0
 24 48  1  0  0  0  0
 26 27  1  0  0  0  0
 26 49  1  0  0  0  0
 26 50  1  0  0  0  0
 27 29  1  0  0  0  0
M  END
> <s_m_source_file>
AV-unprocessed.smi

> <i_m_source_file_index>
278

> <i_lp_mmshare_version>
43012

> <i_f3d_flags>
0

> <s_epik_input>
W0NIMl0xW0NIMl1TKD1PKSg9TylbQ0BASF0oW0NAQEhdMTIpW0NIMl1OKFtDSDJdMiljKG5bY0hdbjMpYyhjMzQpbltjSF1uNFtDSDJdW0NASF0oW09IXSlbQ0BASF01W0NIMl1bQ0gyXVtDSDJdTzU=

> <s_epik_cmdline>
J2VwaWtfcHl0aG9uJywgJy1waCcsICc3LjAnLCAnLXRuJywgJzgnLCAnLW1hJywgJzIwMCcsICctbWV0YWxfYmluZGluZycsICctaW1hZScsICc8aW5maWxlLm1hZT4nLCAnLW9tYWUnLCAnPG91dGZpbGUubWFlPic=

> <r_lp_tautomer_probability>
1

> <r_epik_Ionization_Penalty>
0.000636766

> <r_epik_Ionization_Penalty_Charging>
0

> <r_epik_Ionization_Penalty_Neutral>
0.000636766

> <r_epik_State_Penalty>
0.000329976

> <r_epik_Charging_Adjusted_Penalty>
0.000329976

> <i_epik_Tot_Q>
0

> <i_epik_Tot_abs_Q>
0

> <r_epik_Metal_State_Penalty>
-0

> <b_epik_Metal_Only>
0

> <s_lp_Force_Field>
OPLS_2005

> <r_lp_Energy>
50.3002

> <b_lp_Chiralities_Consistent>
1

> <s_lp_Variant>
AV-unprocessed.smi:278-1

> <Gold.Version>
5.8.1

> <Gold.Id.Protein>
6NUR|6NUR_protein|mol2

> <Gold.PLP.Fitness>
48.8497

> <Gold.PLP.PLP>
-43.5873

> <Gold.PLP.part.hbond>
-2.6689

> <Gold.PLP.part.metal>
0.0000

> <Gold.PLP.part.buried>
-8.0105

> <Gold.PLP.part.nonpolar>
-32.7331

> <Gold.PLP.part.repulsive>
0.3266

> <Gold.PLP.ligand.clash>
0.0000

> <Gold.PLP.ligand.torsion>
0.5861

> <Gold.PLP.Chemscore.Hbond>
2.0590

> <Gold.PLP.Chemscore.CHOScore>
0.0000

> <Gold.PLP.Chemscore.Metal>
0.0000

> <Gold.Chemscore.Hbonds>
donor molecule, donor type, donor heavy atom, donor atom, acceptor molecule, acceptor atom, score
      L1  H    20    41       P1  8028  0.58
      P1  H 10752 10763       L1    10  1.00

> <Gold.PLP.Chemscore.Internal.Correction>
0.2576

> <Gold.Rescore>
     Score         DG    S(hbond)    S(metal)    S(lipo)     H(rot)  DE(clash)    DE(int)     intcor
     13.86     -15.45       1.52        0.00      88.55       2.13       0.08       1.52       ----

> <Gold.Chemscore.Fitness>
13.8590

> <Gold.Chemscore.DG>
-15.4526

> <Gold.Chemscore.ZeroCoef>
-5.4800

> <Gold.Chemscore.Hbond>
1.5202

> <Gold.Chemscore.Metal>
0.0000

> <Gold.Chemscore.Lipo>
88.5465

> <Gold.Chemscore.Internal_Hbond>
0.0000

> <Gold.Chemscore.DEClash>
0.0782

> <Gold.Chemscore.DEInternal>
1.5154

> <Gold.Chemscore.Rot>
2.1346

> <Gold.Chemscore.Internal.Correction>
   9.000000E+99

> <Gold.Chemscore.Hbonds>
donor molecule, donor type, donor heavy atom, donor atom, acceptor molecule, acceptor atom, score
      L1  H    20    41       P1  8028  0.58
      P1  H 10752 10763       L1    10  0.57

> <Gold.Chemscore.Hbond.Weighted>
-5.0773

> <Gold.Chemscore.Metal.Weighted>
-0.0000

> <Gold.Chemscore.Lipo.Weighted>
-10.3599

> <Gold.Chemscore.Internal_Hbond.Weighted>
0.0000

> <Gold.Chemscore.DEClash.Weighted>
0.0782

> <Gold.Chemscore.DEInternal.Weighted>
1.5154

> <Gold.Chemscore.Rot.Weighted>
5.4646

> <Gold.Chemscore.Internal.Correction.Weighted>
   9.000000E+99

> <Gold.Protein.RotatedTorsions>
[ 6907 6896 6895 6894 ] final  177.78 input  -60.11 | X-H torsion
[ 7974 7965 7964 7962 ] final  103.52 input  175.53 | X-H torsion
[ 8008 7997 7996 7995 ] final  122.54 input   59.86 | X-H torsion
[ 10167 10162 10161 10158 ] final  -22.28 input  -65.29 | X-H torsion
[ 10718 10713 10712 10709 ] final  103.00 input   66.30 | X-H torsion
[ 10763 10752 10751 10750 ] final   32.83 input  -60.55 | X-H torsion
[ 11005 11000 10999 10996 ] final  -13.55 input  -57.11 | X-H torsion

> <Gold.Protein.ActiveResidues>
 VAL166  LYS551  ARG553  GLY616  TRP617  ASP618  TYR619  PRO620  LYS621  CYS622 
 ASP623  PHE694  ASN695  SER759  ASP760  ASP761  ALA762  ILE779  LEU786  VAL792 
 PHE793  MET794  SER795  GLU796  ALA797  LYS798  CYS799  TRP800  GLU811  SER814 

> <Gold.Protein.RotatedAtoms>
  151.6984  133.3311  159.3260 H   0  0  0  0  0  0  0  0  0  0  0  0  # atno 6907 bound_to 6896
  150.7747  134.6637  159.6363 H   0  0  0  0  0  0  0  0  0  0  0  0  # atno 6908 bound_to 6896
  152.3785  134.6630  160.0203 H   0  0  0  0  0  0  0  0  0  0  0  0  # atno 6909 bound_to 6896
  145.3449  139.2453  143.3589 H   0  0  0  0  0  0  0  0  0  0  0  0  # atno 7974 bound_to 7965
  156.2731  140.2783  156.1483 H   0  0  0  0  0  0  0  0  0  0  0  0  # atno 8008 bound_to 7997
  155.0880  140.0388  157.2677 H   0  0  0  0  0  0  0  0  0  0  0  0  # atno 8009 bound_to 7997
  154.6911  140.2629  155.6817 H   0  0  0  0  0  0  0  0  0  0  0  0  # atno 8010 bound_to 7997
  140.7285  143.4549  151.0462 H   0  0  0  0  0  0  0  0  0  0  0  0  # atno 10167 bound_to 10162
  157.6785  131.0768  150.5490 H   0  0  0  0  0  0  0  0  0  0  0  0  # atno 10718 bound_to 10713
  153.0242  135.6403  154.1416 H   0  0  0  0  0  0  0  0  0  0  0  0  # atno 10763 bound_to 10752
  154.1147  135.2850  155.3224 H   0  0  0  0  0  0  0  0  0  0  0  0  # atno 10764 bound_to 10752
  154.6306  135.5494  153.7739 H   0  0  0  0  0  0  0  0  0  0  0  0  # atno 10765 bound_to 10752
  140.7773  133.8391  155.9260 H   0  0  0  0  0  0  0  0  0  0  0  0  # atno 11005 bound_to 11000
  146.2992  140.4053  142.8710 LP  0  0  0  0  0  0  0  0  0  0  0  0  # atno 17320 bound_to 7965
  144.8762  140.7339  143.6015 LP  0  0  0  0  0  0  0  0  0  0  0  0  # atno 17321 bound_to 7965
  139.8229  143.7796  152.3177 LP  0  0  0  0  0  0  0  0  0  0  0  0  # atno 17342 bound_to 10162
  139.7884  144.7419  150.9989 LP  0  0  0  0  0  0  0  0  0  0  0  0  # atno 17343 bound_to 10162
  156.5795  130.4300  149.5984 LP  0  0  0  0  0  0  0  0  0  0  0  0  # atno 17370 bound_to 10713
  156.2673  130.6997  151.1784 LP  0  0  0  0  0  0  0  0  0  0  0  0  # atno 17371 bound_to 10713
  140.9517  134.1770  157.4723 LP  0  0  0  0  0  0  0  0  0  0  0  0  # atno 17394 bound_to 11000
  139.8747  134.9911  156.5535 LP  0  0  0  0  0  0  0  0  0  0  0  0  # atno 17395 bound_to 11000

$$$$
