AV-unprocessed.smi:2079|AV-procd|sdf|8475|dock8
  -GOLD-   2272011183D 1   1.00000     0.00000
 Structure written by MMmdl.
 42 43  0  0  0  0  0  0  0  0  2 V2000
  143.9894  135.3231  152.2394 C   0  0  0  0  0  0  0  0  0  0  0  0
  145.0490  136.3365  151.9729 C   0  0  0  0  0  0  0  0  0  0  0  0
  145.6943  137.2399  152.7698 C   0  0  0  0  0  0  0  0  0  0  0  0
  146.5872  137.8796  151.8693 C   0  0  0  0  0  0  0  0  0  0  0  0
  147.4640  138.9018  152.3144 N   0  0  0  0  0  0  0  0  0  0  0  0
  147.3161  139.6918  153.3915 C   0  0  0  0  0  0  0  0  0  0  0  0
  146.3836  139.6321  154.1936 O   0  0  0  0  0  0  0  0  0  0  0  0
  148.3225  140.5719  153.4984 N   0  0  0  0  0  0  0  0  0  0  0  0
  148.4308  141.5829  154.5445 C   0  0  0  0  0  0  0  0  0  0  0  0
  149.7186  141.4031  155.3765 C   0  0  0  0  0  0  0  0  0  0  0  0
  149.9499  142.4986  156.3627 N   0  3  2  0  0  0  0  0  0  0  0  0
  151.3980  142.8337  156.4975 C   0  0  0  0  0  0  0  0  0  0  0  0
  151.6297  144.0431  157.4143 C   0  0  0  0  0  0  0  0  0  0  0  0
  151.0260  143.7942  158.7956 C   0  0  0  0  0  0  0  0  0  0  0  0
  149.5411  143.4590  158.6428 C   0  0  0  0  0  0  0  0  0  0  0  0
  149.3143  142.2557  157.7011 C   0  0  1  0  0  0  0  0  0  0  0  0
  147.7988  141.9754  157.6199 C   0  0  0  0  0  0  0  0  0  0  0  0
  146.4926  137.4120  150.6341 N   0  0  0  0  0  0  0  0  0  0  0  0
  145.5067  136.4201  150.6942 O   0  0  0  0  0  0  0  0  0  0  0  0
  143.5493  135.4694  153.2260 H   0  0  0  0  0  0  0  0  0  0  0  0
  144.4022  134.3152  152.1989 H   0  0  0  0  0  0  0  0  0  0  0  0
  143.1917  135.3924  151.4997 H   0  0  0  0  0  0  0  0  0  0  0  0
  145.5502  137.4103  153.8265 H   0  0  0  0  0  0  0  0  0  0  0  0
  148.2810  139.0571  151.7429 H   0  0  0  0  0  0  0  0  0  0  0  0
  149.0503  140.5552  152.7985 H   0  0  0  0  0  0  0  0  0  0  0  0
  148.4168  142.5481  154.0406 H   0  0  0  0  0  0  0  0  0  0  0  0
  147.5492  141.5493  155.1871 H   0  0  0  0  0  0  0  0  0  0  0  0
  149.6220  140.4528  155.8953 H   0  0  0  0  0  0  0  0  0  0  0  0
  150.5860  141.3104  154.7213 H   0  0  0  0  0  0  0  0  0  0  0  0
  151.9381  141.9659  156.8797 H   0  0  0  0  0  0  0  0  0  0  0  0
  151.8331  143.0737  155.5294 H   0  0  0  0  0  0  0  0  0  0  0  0
  152.6978  144.2425  157.5057 H   0  0  0  0  0  0  0  0  0  0  0  0
  151.1845  144.9343  156.9699 H   0  0  0  0  0  0  0  0  0  0  0  0
  151.5457  142.9716  159.2887 H   0  0  0  0  0  0  0  0  0  0  0  0
  151.1536  144.6730  159.4284 H   0  0  0  0  0  0  0  0  0  0  0  0
  149.1190  143.2505  159.6266 H   0  0  0  0  0  0  0  0  0  0  0  0
  149.0096  144.3319  158.2604 H   0  0  0  0  0  0  0  0  0  0  0  0
  149.7944  141.3819  158.1452 H   0  0  0  0  0  0  0  0  0  0  0  0
  147.3498  141.9744  158.6136 H   0  0  0  0  0  0  0  0  0  0  0  0
  147.5778  140.9974  157.1934 H   0  0  0  0  0  0  0  0  0  0  0  0
  147.2836  142.7334  157.0289 H   0  0  0  0  0  0  0  0  0  0  0  0
  149.4972  143.3184  155.9840 H   0  0  0  0  0  0  0  0  0  0  0  0
  1  2  1  0  0  0  0
  1 20  1  0  0  0  0
  1 21  1  0  0  0  0
  1 22  1  0  0  0  0
  2 19  1  0  0  0  0
  2  3  2  0  0  0  0
  3  4  1  0  0  0  0
  3 23  1  0  0  0  0
  4  5  1  0  0  0  0
  4 18  2  0  0  0  0
  5  6  1  0  0  0  0
  5 24  1  0  0  0  0
  6  7  2  0  0  0  0
  6  8  1  0  0  0  0
  8  9  1  0  0  0  0
  8 25  1  0  0  0  0
  9 10  1  0  0  0  0
  9 26  1  0  0  0  0
  9 27  1  0  0  0  0
 10 11  1  0  0  0  0
 10 28  1  0  0  0  0
 10 29  1  0  0  0  0
 11 16  1  0  0  0  0
 11 12  1  0  0  0  0
 11 42  1  0  0  0  0
 12 13  1  0  0  0  0
 12 30  1  0  0  0  0
 12 31  1  0  0  0  0
 13 14  1  0  0  0  0
 13 32  1  0  0  0  0
 13 33  1  0  0  0  0
 14 15  1  0  0  0  0
 14 34  1  0  0  0  0
 14 35  1  0  0  0  0
 15 16  1  0  0  0  0
 15 36  1  0  0  0  0
 15 37  1  0  0  0  0
 16 17  1  0  0  0  0
 16 38  1  0  0  0  0
 17 39  1  0  0  0  0
 17 40  1  0  0  0  0
 17 41  1  0  0  0  0
 18 19  1  0  0  0  0
M  CHG  1  11   1
M  END
> <s_m_source_file>
AV-unprocessed.smi

> <i_m_source_file_index>
2079

> <i_lp_mmshare_version>
43012

> <i_f3d_flags>
0

> <s_epik_input>
W0NIM11jMVtjSF1jKG5vMSlbTkhdQyg9TylbTkhdW0NIMl1bQ0gyXU4yW0NIMl1bQ0gyXVtDSDJdW0NIMl1bQ0BIXTJbQ0gzXQ==

> <s_epik_cmdline>
J2VwaWtfcHl0aG9uJywgJy1waCcsICc3LjAnLCAnLXRuJywgJzgnLCAnLW1hJywgJzIwMCcsICctbWV0YWxfYmluZGluZycsICctaW1hZScsICc8aW5maWxlLm1hZT4nLCAnLW9tYWUnLCAnPG91dGZpbGUubWFlPic=

> <r_epik_Ionization_Penalty>
0.00265971

> <r_epik_Ionization_Penalty_Charging>
0.00262393

> <r_epik_Ionization_Penalty_Neutral>
3.57846e-05

> <r_epik_State_Penalty>
0.00182566

> <r_epik_Charging_Adjusted_Penalty>
0.00444959

> <i_epik_Tot_Q>
1

> <i_epik_Tot_abs_Q>
1

> <r_epik_Metal_State_Penalty>
0.0216344

> <b_epik_Metal_Only>
0

> <s_lp_Force_Field>
OPLS_2005

> <r_lp_Energy>
17.1717

> <b_lp_Chiralities_Consistent>
1

> <s_lp_Variant>
AV-unprocessed.smi:2079-1

> <Gold.Version>
5.8.1

> <Gold.Id.Protein>
6NUR|6NUR_protein|mol2

> <Gold.PLP.Fitness>
41.4948

> <Gold.PLP.PLP>
-27.6599

> <Gold.PLP.part.hbond>
-4.9098

> <Gold.PLP.part.metal>
0.0000

> <Gold.PLP.part.buried>
-3.6443

> <Gold.PLP.part.nonpolar>
-23.8923

> <Gold.PLP.part.repulsive>
4.8452

> <Gold.PLP.ligand.clash>
0.0000

> <Gold.PLP.ligand.torsion>
0.5561

> <Gold.PLP.Chemscore.Hbond>
4.9760

> <Gold.PLP.Chemscore.CHOScore>
0.0000

> <Gold.PLP.Chemscore.Metal>
0.0000

> <Gold.Chemscore.Hbonds>
donor molecule, donor type, donor heavy atom, donor atom, acceptor molecule, acceptor atom, score
      L1  H     5    24       P1  7957  1.00
      L1  H     8    25       P1  7957  0.98
      L1  H    11    42       P1  8028  2.00
      P1  H  7954  7966       L1    18  1.00

> <Gold.PLP.Chemscore.Internal.Correction>
0.0191

> <Gold.Rescore>
     Score         DG    S(hbond)    S(metal)    S(lipo)     H(rot)  DE(clash)    DE(int)     intcor
     16.29     -21.05       3.58        0.00      65.20       1.57       2.91       1.85       ----

> <Gold.Chemscore.Fitness>
16.2903

> <Gold.Chemscore.DG>
-21.0542

> <Gold.Chemscore.ZeroCoef>
-5.4800

> <Gold.Chemscore.Hbond>
3.5821

> <Gold.Chemscore.Metal>
0.0000

> <Gold.Chemscore.Lipo>
65.1993

> <Gold.Chemscore.Internal_Hbond>
0.0000

> <Gold.Chemscore.DEClash>
2.9129

> <Gold.Chemscore.DEInternal>
1.8511

> <Gold.Chemscore.Rot>
1.5697

> <Gold.Chemscore.Internal.Correction>
   9.000000E+99

> <Gold.Chemscore.Hbonds>
donor molecule, donor type, donor heavy atom, donor atom, acceptor molecule, acceptor atom, score
      L1  H     5    24       P1  7957  0.90
      L1  H     8    25       P1  7957  0.93
      L1  H    11    42       P1  8028  0.96
      P1  H  7954  7966       L1    18  0.37

> <Gold.Chemscore.Hbond.Weighted>
-11.9644

> <Gold.Chemscore.Metal.Weighted>
-0.0000

> <Gold.Chemscore.Lipo.Weighted>
-7.6283

> <Gold.Chemscore.Internal_Hbond.Weighted>
0.0000

> <Gold.Chemscore.DEClash.Weighted>
2.9129

> <Gold.Chemscore.DEInternal.Weighted>
1.8511

> <Gold.Chemscore.Rot.Weighted>
4.0185

> <Gold.Chemscore.Internal.Correction.Weighted>
   9.000000E+99

> <Gold.Protein.RotatedTorsions>
[ 6907 6896 6895 6894 ] final  144.67 input  -60.11 | X-H torsion
[ 7974 7965 7964 7962 ] final  -48.49 input  175.53 | X-H torsion
[ 8008 7997 7996 7995 ] final -156.44 input   59.86 | X-H torsion
[ 10167 10162 10161 10158 ] final -115.61 input  -65.29 | X-H torsion
[ 10718 10713 10712 10709 ] final   48.98 input   66.30 | X-H torsion
[ 10763 10752 10751 10750 ] final  144.13 input  -60.55 | X-H torsion
[ 11005 11000 10999 10996 ] final  -43.27 input  -57.11 | X-H torsion

> <Gold.Protein.ActiveResidues>
 VAL166  LYS551  ARG553  GLY616  TRP617  ASP618  TYR619  PRO620  LYS621  CYS622 
 ASP623  PHE694  ASN695  SER759  ASP760  ASP761  ALA762  ILE779  LEU786  VAL792 
 PHE793  MET794  SER795  GLU796  ALA797  LYS798  CYS799  TRP800  GLU811  SER814 

> <Gold.Protein.RotatedAtoms>
  152.1907  133.4771  159.5006 H   0  0  0  0  0  0  0  0  0  0  0  0  # atno 6907 bound_to 6896
  150.6950  134.1716  159.4223 H   0  0  0  0  0  0  0  0  0  0  0  0  # atno 6908 bound_to 6896
  151.9630  135.0114  160.0599 H   0  0  0  0  0  0  0  0  0  0  0  0  # atno 6909 bound_to 6896
  145.9505  140.7576  142.9507 H   0  0  0  0  0  0  0  0  0  0  0  0  # atno 7974 bound_to 7965
  155.7171  140.0785  157.2346 H   0  0  0  0  0  0  0  0  0  0  0  0  # atno 8008 bound_to 7997
  154.4050  140.1619  156.2415 H   0  0  0  0  0  0  0  0  0  0  0  0  # atno 8009 bound_to 7997
  155.9230  140.3396  155.6190 H   0  0  0  0  0  0  0  0  0  0  0  0  # atno 8010 bound_to 7997
  140.0882  143.4724  152.1886 H   0  0  0  0  0  0  0  0  0  0  0  0  # atno 10167 bound_to 10162
  157.4741  130.8274  149.8020 H   0  0  0  0  0  0  0  0  0  0  0  0  # atno 10718 bound_to 10713
  153.9838  135.2938  155.3418 H   0  0  0  0  0  0  0  0  0  0  0  0  # atno 10763 bound_to 10752
  154.7254  135.5091  153.8880 H   0  0  0  0  0  0  0  0  0  0  0  0  # atno 10764 bound_to 10752
  153.0842  135.6688  154.0098 H   0  0  0  0  0  0  0  0  0  0  0  0  # atno 10765 bound_to 10752
  141.0372  133.6795  156.2709 H   0  0  0  0  0  0  0  0  0  0  0  0  # atno 11005 bound_to 11000
  144.6795  140.2428  143.7341 LP  0  0  0  0  0  0  0  0  0  0  0  0  # atno 17320 bound_to 7965
  145.8177  139.2030  143.1956 LP  0  0  0  0  0  0  0  0  0  0  0  0  # atno 17321 bound_to 7965
  139.5740  144.7478  151.3815 LP  0  0  0  0  0  0  0  0  0  0  0  0  # atno 17342 bound_to 10162
  140.7042  143.7555  150.7454 LP  0  0  0  0  0  0  0  0  0  0  0  0  # atno 17343 bound_to 10162
  156.0088  130.3843  150.2337 LP  0  0  0  0  0  0  0  0  0  0  0  0  # atno 17370 bound_to 10713
  157.0521  131.0065  151.3250 LP  0  0  0  0  0  0  0  0  0  0  0  0  # atno 17371 bound_to 10713
  140.6300  134.5273  157.5558 LP  0  0  0  0  0  0  0  0  0  0  0  0  # atno 17394 bound_to 11000
  139.9249  134.8075  156.1098 LP  0  0  0  0  0  0  0  0  0  0  0  0  # atno 17395 bound_to 11000

$$$$
