AV-unprocessed.smi:1046|AV-procd|sdf|4554|dock3
  -GOLD-   22720 2583D 1   1.00000     0.00000
 Structure written by MMmdl.
 54 56  0  0  0  0  0  0  0  0  3 V2000
  153.3310  143.0307  159.4392 C   0  0  0  0  0  0  0  0  0  0  0  0
  152.3156  142.3391  158.5464 C   0  0  0  0  0  0  0  0  0  0  0  0
  152.7212  141.2223  157.7812 C   0  0  0  0  0  0  0  0  0  0  0  0
  151.8079  140.5521  156.9384 C   0  0  0  0  0  0  0  0  0  0  0  0
  151.9835  139.4543  156.1134 N   0  0  0  0  0  0  0  0  0  0  0  0
  150.7684  139.3121  155.5925 C   0  0  0  0  0  0  0  0  0  0  0  0
  149.8224  140.1854  155.9889 N   0  0  0  0  0  0  0  0  0  0  0  0
  148.4344  140.2300  155.5657 C   0  0  0  0  0  0  0  0  0  0  0  0
  148.2914  140.4089  154.0421 C   0  0  2  0  0  0  0  0  0  0  0  0
  149.0013  141.5647  153.6397 O   0  0  0  0  0  0  0  0  0  0  0  0
  146.8161  140.5608  153.6220 C   0  0  0  0  0  0  0  0  0  0  0  0
  146.2465  139.3116  153.0534 N   0  3  2  0  0  0  0  0  0  0  0  0
  146.6179  138.1126  153.8448 C   0  0  0  0  0  0  0  0  0  0  0  0
  145.9372  136.8461  153.2959 C   0  0  0  0  0  0  0  0  0  0  0  0
  146.2505  136.6497  151.8576 N   0  3  1  0  0  0  0  0  0  0  0  0
  145.6841  135.3983  151.2914 C   0  0  0  0  0  0  0  0  0  0  0  0
  144.1456  135.3996  151.2735 C   0  0  0  0  0  0  0  0  0  0  0  0
  143.6680  134.1767  150.7537 O   0  0  0  0  0  0  0  0  0  0  0  0
  145.8773  137.8478  151.0661 C   0  0  0  0  0  0  0  0  0  0  0  0
  146.5585  139.1145  151.6144 C   0  0  0  0  0  0  0  0  0  0  0  0
  150.4677  141.0338  156.8815 C   0  0  0  0  0  0  0  0  0  0  0  0
  150.0521  142.1444  157.6368 C   0  0  0  0  0  0  0  0  0  0  0  0
  150.9770  142.8016  158.4749 C   0  0  0  0  0  0  0  0  0  0  0  0
  150.5192  143.9997  159.2875 C   0  0  0  0  0  0  0  0  0  0  0  0
  154.3105  142.5563  159.3712 H   0  0  0  0  0  0  0  0  0  0  0  0
  153.0126  142.9921  160.4811 H   0  0  0  0  0  0  0  0  0  0  0  0
  153.4449  144.0757  159.1497 H   0  0  0  0  0  0  0  0  0  0  0  0
  153.7410  140.8704  157.8351 H   0  0  0  0  0  0  0  0  0  0  0  0
  150.5520  138.5241  154.8857 H   0  0  0  0  0  0  0  0  0  0  0  0
  147.9551  139.3032  155.8838 H   0  0  0  0  0  0  0  0  0  0  0  0
  147.9312  141.0397  156.0968 H   0  0  0  0  0  0  0  0  0  0  0  0
  148.7399  139.5467  153.5500 H   0  0  0  0  0  0  0  0  0  0  0  0
  149.2733  141.4524  152.7406 H   0  0  0  0  0  0  0  0  0  0  0  0
  146.2077  140.8811  154.4693 H   0  0  0  0  0  0  0  0  0  0  0  0
  146.7513  141.3608  152.8823 H   0  0  0  0  0  0  0  0  0  0  0  0
  147.7023  137.9904  153.8335 H   0  0  0  0  0  0  0  0  0  0  0  0
  146.3257  138.2536  154.8862 H   0  0  0  0  0  0  0  0  0  0  0  0
  146.2675  135.9861  153.8775 H   0  0  0  0  0  0  0  0  0  0  0  0
  144.8563  136.9189  153.4267 H   0  0  0  0  0  0  0  0  0  0  0  0
  146.0751  135.2439  150.2847 H   0  0  0  0  0  0  0  0  0  0  0  0
  146.0172  134.5425  151.8808 H   0  0  0  0  0  0  0  0  0  0  0  0
  143.7207  135.5707  152.2619 H   0  0  0  0  0  0  0  0  0  0  0  0
  143.7863  136.2058  150.6334 H   0  0  0  0  0  0  0  0  0  0  0  0
  142.7223  134.1906  150.7691 H   0  0  0  0  0  0  0  0  0  0  0  0
  146.1678  137.7061  150.0243 H   0  0  0  0  0  0  0  0  0  0  0  0
  144.7927  137.9696  151.0797 H   0  0  0  0  0  0  0  0  0  0  0  0
  146.2266  139.9719  151.0304 H   0  0  0  0  0  0  0  0  0  0  0  0
  147.6394  139.0430  151.4822 H   0  0  0  0  0  0  0  0  0  0  0  0
  149.0306  142.4882  157.5716 H   0  0  0  0  0  0  0  0  0  0  0  0
  149.4577  144.2000  159.1389 H   0  0  0  0  0  0  0  0  0  0  0  0
  151.0725  144.8921  158.9941 H   0  0  0  0  0  0  0  0  0  0  0  0
  150.6804  143.8259  160.3516 H   0  0  0  0  0  0  0  0  0  0  0  0
  145.2431  139.4040  153.1315 H   0  0  0  0  0  0  0  0  0  0  0  0
  147.2540  136.5595  151.7795 H   0  0  0  0  0  0  0  0  0  0  0  0
  1  2  1  0  0  0  0
  1 25  1  0  0  0  0
  1 26  1  0  0  0  0
  1 27  1  0  0  0  0
  2 23  1  0  0  0  0
  2  3  2  0  0  0  0
  3  4  1  0  0  0  0
  3 28  1  0  0  0  0
  4 21  2  0  0  0  0
  4  5  1  0  0  0  0
  5  6  2  0  0  0  0
  6  7  1  0  0  0  0
  6 29  1  0  0  0  0
  7  8  1  0  0  0  0
  7 21  1  0  0  0  0
  8  9  1  0  0  0  0
  8 30  1  0  0  0  0
  8 31  1  0  0  0  0
  9 10  1  0  0  0  0
  9 11  1  0  0  0  0
  9 32  1  0  0  0  0
 10 33  1  0  0  0  0
 11 12  1  0  0  0  0
 11 34  1  0  0  0  0
 11 35  1  0  0  0  0
 12 20  1  0  0  0  0
 12 13  1  0  0  0  0
 12 53  1  0  0  0  0
 13 14  1  0  0  0  0
 13 36  1  0  0  0  0
 13 37  1  0  0  0  0
 14 15  1  0  0  0  0
 14 38  1  0  0  0  0
 14 39  1  0  0  0  0
 15 16  1  0  0  0  0
 15 19  1  0  0  0  0
 15 54  1  0  0  0  0
 16 17  1  0  0  0  0
 16 40  1  0  0  0  0
 16 41  1  0  0  0  0
 17 18  1  0  0  0  0
 17 42  1  0  0  0  0
 17 43  1  0  0  0  0
 18 44  1  0  0  0  0
 19 20  1  0  0  0  0
 19 45  1  0  0  0  0
 19 46  1  0  0  0  0
 20 47  1  0  0  0  0
 20 48  1  0  0  0  0
 21 22  1  0  0  0  0
 22 23  2  0  0  0  0
 22 49  1  0  0  0  0
 23 24  1  0  0  0  0
 24 50  1  0  0  0  0
 24 51  1  0  0  0  0
 24 52  1  0  0  0  0
M  CHG  1  12   1
M  CHG  1  15   1
M  END
> <s_m_source_file>
AV-unprocessed.smi

> <i_m_source_file_index>
1046

> <i_lp_mmshare_version>
43012

> <i_f3d_flags>
0

> <s_epik_input>
W0NIM11jKFtjSF0xKWMoW0NIM10pW2NIXWMoYzEyKW4oW2NIXW4yKVtDSDJdW0NASF0oW09IXSlbQ0gyXU4zW0NIMl1bQ0gyXU4oW0NIMl1bQ0gyXTMpW0NIMl1bQ0gyXVtPSF0=

> <s_epik_cmdline>
J2VwaWtfcHl0aG9uJywgJy1waCcsICc3LjAnLCAnLXRuJywgJzgnLCAnLW1hJywgJzIwMCcsICctbWV0YWxfYmluZGluZycsICctaW1hZScsICc8aW5maWxlLm1hZT4nLCAnLW9tYWUnLCAnPG91dGZpbGUubWFlPic=

> <r_epik_Ionization_Penalty>
3.17398

> <r_epik_Ionization_Penalty_Charging>
3.09061

> <r_epik_Ionization_Penalty_Neutral>
0.0833726

> <r_epik_State_Penalty>
2.17606

> <r_epik_Charging_Adjusted_Penalty>
5.26667

> <i_epik_Tot_Q>
2

> <i_epik_Tot_abs_Q>
2

> <r_epik_Metal_State_Penalty>
2.08587

> <b_epik_Metal_Only>
0

> <s_lp_Force_Field>
OPLS_2005

> <r_lp_Energy>
27.9633

> <b_lp_Chiralities_Consistent>
1

> <s_lp_Variant>
AV-unprocessed.smi:1046-7

> <Gold.Version>
5.8.1

> <Gold.Id.Protein>
6NUR|6NUR_protein|mol2

> <Gold.PLP.Fitness>
57.5594

> <Gold.PLP.PLP>
-40.8719

> <Gold.PLP.part.hbond>
-6.0000

> <Gold.PLP.part.metal>
0.0000

> <Gold.PLP.part.buried>
-0.7291

> <Gold.PLP.part.nonpolar>
-34.6316

> <Gold.PLP.part.repulsive>
0.0705

> <Gold.PLP.ligand.clash>
0.0000

> <Gold.PLP.ligand.torsion>
0.7944

> <Gold.PLP.Chemscore.Hbond>
5.9920

> <Gold.PLP.Chemscore.CHOScore>
0.0000

> <Gold.PLP.Chemscore.Metal>
0.0000

> <Gold.Chemscore.Hbonds>
donor molecule, donor type, donor heavy atom, donor atom, acceptor molecule, acceptor atom, score
      L1  H    10    33       P1  7957  0.69
      L1  H    12    53       P1 10175  1.73
      L1  H    15    54       P1  7948  2.00
      L1  H    18    44       P1 10186  0.71

> <Gold.PLP.Chemscore.Internal.Correction>
0.3002

> <Gold.Rescore>
     Score         DG    S(hbond)    S(metal)    S(lipo)     H(rot)  DE(clash)    DE(int)     intcor
     21.28     -23.93       3.83        0.00     120.30       3.28       1.90       0.75       ----

> <Gold.Chemscore.Fitness>
21.2818

> <Gold.Chemscore.DG>
-23.9318

> <Gold.Chemscore.ZeroCoef>
-5.4800

> <Gold.Chemscore.Hbond>
3.8264

> <Gold.Chemscore.Metal>
0.0000

> <Gold.Chemscore.Lipo>
120.3031

> <Gold.Chemscore.Internal_Hbond>
0.0000

> <Gold.Chemscore.DEClash>
1.8969

> <Gold.Chemscore.DEInternal>
0.7531

> <Gold.Chemscore.Rot>
3.2828

> <Gold.Chemscore.Internal.Correction>
   9.000000E+99

> <Gold.Chemscore.Hbonds>
donor molecule, donor type, donor heavy atom, donor atom, acceptor molecule, acceptor atom, score
      L1  H    10    33       P1  7957  0.68
      L1  H    12    53       P1 10175  0.82
      L1  H    15    54       P1  7948  1.00
      L1  H    18    44       P1 10186  0.38

> <Gold.Chemscore.Hbond.Weighted>
-12.7802

> <Gold.Chemscore.Metal.Weighted>
-0.0000

> <Gold.Chemscore.Lipo.Weighted>
-14.0755

> <Gold.Chemscore.Internal_Hbond.Weighted>
0.0000

> <Gold.Chemscore.DEClash.Weighted>
1.8969

> <Gold.Chemscore.DEInternal.Weighted>
0.7531

> <Gold.Chemscore.Rot.Weighted>
8.4039

> <Gold.Chemscore.Internal.Correction.Weighted>
   9.000000E+99

> <Gold.Protein.RotatedTorsions>
[ 6907 6896 6895 6894 ] final -108.31 input  -60.11 | X-H torsion
[ 7974 7965 7964 7962 ] final  160.32 input  175.53 | X-H torsion
[ 8008 7997 7996 7995 ] final  140.27 input   59.86 | X-H torsion
[ 10167 10162 10161 10158 ] final  -50.32 input  -65.29 | X-H torsion
[ 10718 10713 10712 10709 ] final  -79.65 input   66.30 | X-H torsion
[ 10763 10752 10751 10750 ] final  176.40 input  -60.55 | X-H torsion
[ 11005 11000 10999 10996 ] final   30.93 input  -57.11 | X-H torsion

> <Gold.Protein.ActiveResidues>
 VAL166  LYS551  ARG553  GLY616  TRP617  ASP618  TYR619  PRO620  LYS621  CYS622 
 ASP623  PHE694  ASN695  SER759  ASP760  ASP761  ALA762  ILE779  LEU786  VAL792 
 PHE793  MET794  SER795  GLU796  ALA797  LYS798  CYS799  TRP800  GLU811  SER814 

> <Gold.Protein.RotatedAtoms>
  150.7494  133.9696  159.3541 H   0  0  0  0  0  0  0  0  0  0  0  0  # atno 6907 bound_to 6896
  151.7628  135.0803  160.0357 H   0  0  0  0  0  0  0  0  0  0  0  0  # atno 6908 bound_to 6896
  152.3391  133.6009  159.5900 H   0  0  0  0  0  0  0  0  0  0  0  0  # atno 6909 bound_to 6896
  144.7743  139.7740  143.6285 H   0  0  0  0  0  0  0  0  0  0  0  0  # atno 7974 bound_to 7965
  156.2981  140.2345  156.4374 H   0  0  0  0  0  0  0  0  0  0  0  0  # atno 8008 bound_to 7997
  154.8216  140.0437  157.1435 H   0  0  0  0  0  0  0  0  0  0  0  0  # atno 8009 bound_to 7997
  154.9309  140.3016  155.5172 H   0  0  0  0  0  0  0  0  0  0  0  0  # atno 8010 bound_to 7997
  140.6643  143.2662  151.4342 H   0  0  0  0  0  0  0  0  0  0  0  0  # atno 10167 bound_to 10162
  156.0088  130.4552  150.3680 H   0  0  0  0  0  0  0  0  0  0  0  0  # atno 10718 bound_to 10713
  154.4806  135.2774  155.1573 H   0  0  0  0  0  0  0  0  0  0  0  0  # atno 10763 bound_to 10752
  154.3285  135.6195  153.5544 H   0  0  0  0  0  0  0  0  0  0  0  0  # atno 10764 bound_to 10752
  152.9875  135.5760  154.5206 H   0  0  0  0  0  0  0  0  0  0  0  0  # atno 10765 bound_to 10752
  140.2892  134.2884  155.7780 H   0  0  0  0  0  0  0  0  0  0  0  0  # atno 11005 bound_to 11000
  146.1912  139.5154  142.9804 LP  0  0  0  0  0  0  0  0  0  0  0  0  # atno 17320 bound_to 7965
  145.6231  141.0319  143.1904 LP  0  0  0  0  0  0  0  0  0  0  0  0  # atno 17321 bound_to 7965
  139.5887  144.1548  152.2061 LP  0  0  0  0  0  0  0  0  0  0  0  0  # atno 17342 bound_to 10162
  140.0895  144.5632  150.7064 LP  0  0  0  0  0  0  0  0  0  0  0  0  # atno 17343 bound_to 10162
  157.1766  131.0382  151.2769 LP  0  0  0  0  0  0  0  0  0  0  0  0  # atno 17370 bound_to 10713
  157.4182  130.7423  149.6892 LP  0  0  0  0  0  0  0  0  0  0  0  0  # atno 17371 bound_to 10713
  141.2149  133.7574  156.9599 LP  0  0  0  0  0  0  0  0  0  0  0  0  # atno 17394 bound_to 11000
  140.1211  134.9416  157.2205 LP  0  0  0  0  0  0  0  0  0  0  0  0  # atno 17395 bound_to 11000

$$$$
