AV-unprocessed.smi:1385|AV-procd|sdf|5628|dock3
  -GOLD-   22720 5243D 1   1.00000     0.00000
 Structure written by MMmdl.
 38 39  0  0  0  0  0  0  0  0  1 V2000
  136.7462  137.5043  153.8634 C   0  0  0  0  0  0  0  0  0  0  0  0
  138.1462  137.9973  153.7275 C   0  0  0  0  0  0  0  0  0  0  0  0
  138.5319  139.2085  154.1471 N   0  0  0  0  0  0  0  0  0  0  0  0
  139.8818  139.4384  153.9199 N   0  0  0  0  0  0  0  0  0  0  0  0
  140.4758  138.3895  153.3344 C   0  0  0  0  0  0  0  0  0  0  0  0
  141.8529  138.3521  152.9904 N   0  0  0  0  0  0  0  0  0  0  0  0
  142.6268  137.2759  152.7649 C   0  0  0  0  0  0  0  0  0  0  0  0
  142.2521  136.1045  152.8234 O   0  0  0  0  0  0  0  0  0  0  0  0
  143.8832  137.6361  152.4651 N   0  0  0  0  0  0  0  0  0  0  0  0
  144.9743  136.7121  152.1695 C   0  0  0  0  0  0  0  0  0  0  0  0
  144.6276  135.8168  150.9687 C   0  0  0  0  0  0  0  0  0  0  0  0
  145.7116  134.7494  150.7353 C   0  0  0  0  0  0  0  0  0  0  0  0
  145.8959  133.9251  151.9394 N   0  0  0  0  0  0  0  0  0  0  0  0
  146.8867  132.8419  151.7376 C   0  0  0  0  0  0  0  0  0  0  0  0
  147.1214  131.9488  152.9616 C   0  0  0  0  0  0  0  0  0  0  0  0
  148.1160  131.0608  152.8846 N   0  0  0  0  0  0  0  0  0  0  0  0
  146.4099  132.0558  153.9579 O   0  0  0  0  0  0  0  0  0  0  0  0
  146.3217  134.7624  153.0659 C   0  0  0  0  0  0  0  0  0  0  0  0
  145.2534  135.8219  153.3883 C   0  0  0  0  0  0  0  0  0  0  0  0
  139.4229  137.0232  153.0093 S   0  0  0  0  0  0  0  0  0  0  0  0
  136.0544  138.3402  153.9707 H   0  0  0  0  0  0  0  0  0  0  0  0
  136.6622  136.8642  154.7417 H   0  0  0  0  0  0  0  0  0  0  0  0
  136.4632  136.9293  152.9815 H   0  0  0  0  0  0  0  0  0  0  0  0
  142.3022  139.2522  152.9079 H   0  0  0  0  0  0  0  0  0  0  0  0
  144.1034  138.6211  152.4408 H   0  0  0  0  0  0  0  0  0  0  0  0
  145.8790  137.2807  151.9445 H   0  0  0  0  0  0  0  0  0  0  0  0
  143.6672  135.3259  151.1342 H   0  0  0  0  0  0  0  0  0  0  0  0
  144.5124  136.4228  150.0692 H   0  0  0  0  0  0  0  0  0  0  0  0
  145.4040  134.1384  149.8868 H   0  0  0  0  0  0  0  0  0  0  0  0
  146.6543  135.2235  150.4565 H   0  0  0  0  0  0  0  0  0  0  0  0
  146.5813  132.2160  150.8967 H   0  0  0  0  0  0  0  0  0  0  0  0
  147.8501  133.2758  151.4659 H   0  0  0  0  0  0  0  0  0  0  0  0
  148.3008  130.4463  153.6642 H   0  0  0  0  0  0  0  0  0  0  0  0
  148.6727  131.0023  152.0444 H   0  0  0  0  0  0  0  0  0  0  0  0
  146.4788  134.1424  153.9496 H   0  0  0  0  0  0  0  0  0  0  0  0
  147.2760  135.2435  152.8433 H   0  0  0  0  0  0  0  0  0  0  0  0
  145.5836  136.4324  154.2294 H   0  0  0  0  0  0  0  0  0  0  0  0
  144.3359  135.3249  153.7077 H   0  0  0  0  0  0  0  0  0  0  0  0
  1  2  1  0  0  0  0
  1 21  1  0  0  0  0
  1 22  1  0  0  0  0
  1 23  1  0  0  0  0
  2 20  1  0  0  0  0
  2  3  2  0  0  0  0
  3  4  1  0  0  0  0
  4  5  2  0  0  0  0
  5  6  1  0  0  0  0
  5 20  1  0  0  0  0
  6  7  1  0  0  0  0
  6 24  1  0  0  0  0
  7  8  2  0  0  0  0
  7  9  1  0  0  0  0
  9 10  1  0  0  0  0
  9 25  1  0  0  0  0
 10 19  1  0  0  0  0
 10 11  1  0  0  0  0
 10 26  1  0  0  0  0
 11 12  1  0  0  0  0
 11 27  1  0  0  0  0
 11 28  1  0  0  0  0
 12 13  1  0  0  0  0
 12 29  1  0  0  0  0
 12 30  1  0  0  0  0
 13 14  1  0  0  0  0
 13 18  1  0  0  0  0
 14 15  1  0  0  0  0
 14 31  1  0  0  0  0
 14 32  1  0  0  0  0
 15 16  1  0  0  0  0
 15 17  2  0  0  0  0
 16 33  1  0  0  0  0
 16 34  1  0  0  0  0
 18 19  1  0  0  0  0
 18 35  1  0  0  0  0
 18 36  1  0  0  0  0
 19 37  1  0  0  0  0
 19 38  1  0  0  0  0
M  END
> <s_m_source_file>
AV-unprocessed.smi

> <i_m_source_file_index>
1385

> <i_lp_mmshare_version>
43012

> <i_f3d_flags>
0

> <s_epik_input>
W0NIM11jMW5uYyhzMSlbTkhdQyg9TylbTkhdW0NIXTJbQ0gyXVtDSDJdTihbQ0gyXVtDSDJdMilbQ0gyXUMoPU8pW05IMl0=

> <s_epik_cmdline>
J2VwaWtfcHl0aG9uJywgJy1waCcsICc3LjAnLCAnLXRuJywgJzgnLCAnLW1hJywgJzIwMCcsICctbWV0YWxfYmluZGluZycsICctaW1hZScsICc8aW5maWxlLm1hZT4nLCAnLW9tYWUnLCAnPG91dGZpbGUubWFlPic=

> <r_lp_tautomer_probability>
1

> <r_epik_Ionization_Penalty>
0.159363

> <r_epik_Ionization_Penalty_Charging>
0

> <r_epik_Ionization_Penalty_Neutral>
0.159363

> <r_epik_State_Penalty>
0.146692

> <r_epik_Charging_Adjusted_Penalty>
0.146692

> <i_epik_Tot_Q>
0

> <i_epik_Tot_abs_Q>
0

> <r_epik_Metal_State_Penalty>
0.501772

> <b_epik_Metal_Only>
0

> <s_lp_Force_Field>
OPLS_2005

> <r_lp_Energy>
10.053

> <b_lp_Chiralities_Consistent>
1

> <s_lp_Variant>
AV-unprocessed.smi:1385-1

> <Gold.Version>
5.8.1

> <Gold.Id.Protein>
6NUR|6NUR_protein|mol2

> <Gold.PLP.Fitness>
37.9360

> <Gold.PLP.PLP>
-29.2462

> <Gold.PLP.part.hbond>
-4.0000

> <Gold.PLP.part.metal>
0.0000

> <Gold.PLP.part.buried>
-3.9850

> <Gold.PLP.part.nonpolar>
-21.6830

> <Gold.PLP.part.repulsive>
0.6435

> <Gold.PLP.ligand.clash>
0.0000

> <Gold.PLP.ligand.torsion>
0.1586

> <Gold.PLP.Chemscore.Hbond>
3.0000

> <Gold.PLP.Chemscore.CHOScore>
0.0000

> <Gold.PLP.Chemscore.Metal>
0.0000

> <Gold.Chemscore.Hbonds>
donor molecule, donor type, donor heavy atom, donor atom, acceptor molecule, acceptor atom, score
      L1  H     6    24       P1 10175  1.00
      L1  H     9    25       P1 10175  1.00
      L1  H    16    34       P1 10747  1.00

> <Gold.PLP.Chemscore.Internal.Correction>
0.0071

> <Gold.Rescore>
     Score         DG    S(hbond)    S(metal)    S(lipo)     H(rot)  DE(clash)    DE(int)     intcor
     12.42     -15.94       2.93        0.00      50.39       2.04       0.04       3.48       ----

> <Gold.Chemscore.Fitness>
12.4216

> <Gold.Chemscore.DG>
-15.9407

> <Gold.Chemscore.ZeroCoef>
-5.4800

> <Gold.Chemscore.Hbond>
2.9309

> <Gold.Chemscore.Metal>
0.0000

> <Gold.Chemscore.Lipo>
50.3897

> <Gold.Chemscore.Internal_Hbond>
0.0000

> <Gold.Chemscore.DEClash>
0.0404

> <Gold.Chemscore.DEInternal>
3.4787

> <Gold.Chemscore.Rot>
2.0407

> <Gold.Chemscore.Internal.Correction>
   9.000000E+99

> <Gold.Chemscore.Hbonds>
donor molecule, donor type, donor heavy atom, donor atom, acceptor molecule, acceptor atom, score
      L1  H     6    24       P1 10175  0.97
      L1  H     9    25       P1 10175  0.97
      L1  H    16    34       P1 10747  0.87

> <Gold.Chemscore.Hbond.Weighted>
-9.7894

> <Gold.Chemscore.Metal.Weighted>
-0.0000

> <Gold.Chemscore.Lipo.Weighted>
-5.8956

> <Gold.Chemscore.Internal_Hbond.Weighted>
0.0000

> <Gold.Chemscore.DEClash.Weighted>
0.0404

> <Gold.Chemscore.DEInternal.Weighted>
3.4787

> <Gold.Chemscore.Rot.Weighted>
5.2243

> <Gold.Chemscore.Internal.Correction.Weighted>
   9.000000E+99

> <Gold.Protein.RotatedTorsions>
[ 6907 6896 6895 6894 ] final -116.16 input  -60.11 | X-H torsion
[ 7974 7965 7964 7962 ] final   40.21 input  175.53 | X-H torsion
[ 8008 7997 7996 7995 ] final -167.72 input   59.86 | X-H torsion
[ 10167 10162 10161 10158 ] final -105.91 input  -65.29 | X-H torsion
[ 10718 10713 10712 10709 ] final -105.45 input   66.30 | X-H torsion
[ 10763 10752 10751 10750 ] final   98.91 input  -60.55 | X-H torsion
[ 11005 11000 10999 10996 ] final  -89.42 input  -57.11 | X-H torsion

> <Gold.Protein.ActiveResidues>
 VAL166  LYS551  ARG553  GLY616  TRP617  ASP618  TYR619  PRO620  LYS621  CYS622 
 ASP623  PHE694  ASN695  SER759  ASP760  ASP761  ALA762  ILE779  LEU786  VAL792 
 PHE793  MET794  SER795  GLU796  ALA797  LYS798  CYS799  TRP800  GLU811  SER814 

> <Gold.Protein.RotatedAtoms>
  150.8034  133.8556  159.3217 H   0  0  0  0  0  0  0  0  0  0  0  0  # atno 6907 bound_to 6896
  151.6362  135.1016  160.0141 H   0  0  0  0  0  0  0  0  0  0  0  0  # atno 6908 bound_to 6896
  152.4123  133.6943  159.6443 H   0  0  0  0  0  0  0  0  0  0  0  0  # atno 6909 bound_to 6896
  146.0923  139.5559  142.9468 H   0  0  0  0  0  0  0  0  0  0  0  0  # atno 7974 bound_to 7965
  155.8816  140.1010  157.1481 H   0  0  0  0  0  0  0  0  0  0  0  0  # atno 8008 bound_to 7997
  154.4006  140.1328  156.4267 H   0  0  0  0  0  0  0  0  0  0  0  0  # atno 8009 bound_to 7997
  155.7636  140.3462  155.5213 H   0  0  0  0  0  0  0  0  0  0  0  0  # atno 8010 bound_to 7997
  140.1934  143.3874  152.1188 H   0  0  0  0  0  0  0  0  0  0  0  0  # atno 10167 bound_to 10162
  156.0346  130.5564  150.7540 H   0  0  0  0  0  0  0  0  0  0  0  0  # atno 10718 bound_to 10713
  153.2949  135.4132  155.1200 H   0  0  0  0  0  0  0  0  0  0  0  0  # atno 10763 bound_to 10752
  154.8532  135.3527  154.5931 H   0  0  0  0  0  0  0  0  0  0  0  0  # atno 10764 bound_to 10752
  153.6354  135.7059  153.5318 H   0  0  0  0  0  0  0  0  0  0  0  0  # atno 10765 bound_to 10752
  141.1585  133.7629  156.9592 H   0  0  0  0  0  0  0  0  0  0  0  0  # atno 11005 bound_to 11000
  145.6016  141.0354  143.2015 LP  0  0  0  0  0  0  0  0  0  0  0  0  # atno 17320 bound_to 7965
  144.7369  139.7560  143.7326 LP  0  0  0  0  0  0  0  0  0  0  0  0  # atno 17321 bound_to 7965
  139.5246  144.7086  151.5277 LP  0  0  0  0  0  0  0  0  0  0  0  0  # atno 17342 bound_to 10162
  140.6440  143.8832  150.6719 LP  0  0  0  0  0  0  0  0  0  0  0  0  # atno 17343 bound_to 10162
  157.5077  131.0923  151.0237 LP  0  0  0  0  0  0  0  0  0  0  0  0  # atno 17370 bound_to 10713
  157.0601  130.5822  149.5384 LP  0  0  0  0  0  0  0  0  0  0  0  0  # atno 17371 bound_to 10713
  140.1204  134.9420  157.2195 LP  0  0  0  0  0  0  0  0  0  0  0  0  # atno 17394 bound_to 11000
  140.3079  134.3057  155.7274 LP  0  0  0  0  0  0  0  0  0  0  0  0  # atno 17395 bound_to 11000

$$$$
