AV-unprocessed.smi:2630|AV-procd|sdf|10246|dock7
  -GOLD-   2272014253D 1   1.00000     0.00000
 Structure written by MMmdl.
 35 36  0  0  0  0  0  0  0  0  1 V2000
  149.7539  141.0310  154.9652 C   0  0  0  0  0  0  0  0  0  0  0  0
  150.2032  140.0589  154.0384 O   0  0  0  0  0  0  0  0  0  0  0  0
  149.4155  138.8795  154.0617 C   0  0  0  0  0  0  0  0  0  0  0  0
  147.9387  139.2421  153.8328 C   0  0  0  0  0  0  0  0  0  0  0  0
  147.0566  138.0936  153.8962 N   0  0  0  0  0  0  0  0  0  0  0  0
  146.1278  137.7712  152.9031 C   0  0  0  0  0  0  0  0  0  0  0  0
  146.0357  138.5745  151.7792 N   0  0  0  0  0  0  0  0  0  0  0  0
  145.3072  136.6968  153.0359 C   0  0  0  0  0  0  0  0  0  0  0  0
  144.0691  136.1976  151.8627 S   0  0  0  0  0  0  0  0  0  0  0  0
  144.7424  134.6720  151.2894 C   0  0  0  0  0  0  0  0  0  0  0  0
  146.1274  134.4317  151.3910 C   0  0  0  0  0  0  0  0  0  0  0  0
  146.6649  133.2164  150.9244 C   0  0  0  0  0  0  0  0  0  0  0  0
  145.8184  132.2421  150.3597 C   0  0  0  0  0  0  0  0  0  0  0  0
  144.4336  132.4828  150.2605 C   0  0  0  0  0  0  0  0  0  0  0  0
  143.8943  133.6981  150.7257 C   0  0  0  0  0  0  0  0  0  0  0  0
  145.3481  135.8196  154.2079 C   0  0  0  0  0  0  0  0  0  0  0  0
  144.6556  134.8212  154.4043 O   0  0  0  0  0  0  0  0  0  0  0  0
  146.2847  136.2068  155.1659 N   0  0  0  0  0  0  0  0  0  0  0  0
  147.1357  137.3070  155.0734 C   0  0  0  0  0  0  0  0  0  0  0  0
  147.9074  137.5520  156.0013 O   0  0  0  0  0  0  0  0  0  0  0  0
  146.3488  135.6440  156.0016 H   0  0  0  0  0  0  0  0  0  0  0  0
  150.3899  141.9143  154.9072 H   0  0  0  0  0  0  0  0  0  0  0  0
  149.7962  140.6518  155.9871 H   0  0  0  0  0  0  0  0  0  0  0  0
  148.7304  141.3387  154.7469 H   0  0  0  0  0  0  0  0  0  0  0  0
  149.7502  138.2041  153.2734 H   0  0  0  0  0  0  0  0  0  0  0  0
  149.5410  138.3556  155.0105 H   0  0  0  0  0  0  0  0  0  0  0  0
  147.5867  139.9679  154.5647 H   0  0  0  0  0  0  0  0  0  0  0  0
  147.7863  139.7193  152.8634 H   0  0  0  0  0  0  0  0  0  0  0  0
  146.6227  139.3874  151.6590 H   0  0  0  0  0  0  0  0  0  0  0  0
  145.4537  138.3226  150.9933 H   0  0  0  0  0  0  0  0  0  0  0  0
  146.7799  135.1770  151.8216 H   0  0  0  0  0  0  0  0  0  0  0  0
  147.7264  133.0318  150.9991 H   0  0  0  0  0  0  0  0  0  0  0  0
  146.2315  131.3103  150.0025 H   0  0  0  0  0  0  0  0  0  0  0  0
  143.7852  131.7359  149.8267 H   0  0  0  0  0  0  0  0  0  0  0  0
  142.8329  133.8824  150.6454 H   0  0  0  0  0  0  0  0  0  0  0  0
  1  2  1  0  0  0  0
  1 22  1  0  0  0  0
  1 23  1  0  0  0  0
  1 24  1  0  0  0  0
  2  3  1  0  0  0  0
  3  4  1  0  0  0  0
  3 25  1  0  0  0  0
  3 26  1  0  0  0  0
  4  5  1  0  0  0  0
  4 27  1  0  0  0  0
  4 28  1  0  0  0  0
  5 19  1  0  0  0  0
  5  6  1  0  0  0  0
  6  7  1  0  0  0  0
  6  8  2  0  0  0  0
  7 29  1  0  0  0  0
  7 30  1  0  0  0  0
  8  9  1  0  0  0  0
  8 16  1  0  0  0  0
  9 10  1  0  0  0  0
 10 15  1  0  0  0  0
 10 11  2  0  0  0  0
 11 12  1  0  0  0  0
 11 31  1  0  0  0  0
 12 13  2  0  0  0  0
 12 32  1  0  0  0  0
 13 14  1  0  0  0  0
 13 33  1  0  0  0  0
 14 15  2  0  0  0  0
 14 34  1  0  0  0  0
 15 35  1  0  0  0  0
 16 17  2  0  0  0  0
 16 18  1  0  0  0  0
 18 21  1  0  0  0  0
 18 19  1  0  0  0  0
 19 20  2  0  0  0  0
M  END
> <s_m_source_file>
AV-unprocessed.smi

> <i_m_source_file_index>
2630

> <i_lp_mmshare_version>
43012

> <i_f3d_flags>
0

> <s_epik_input>
W0NIM11PW0NIMl1bQ0gyXW4xYyhbTkgyXSljKGMoPU8pW25IXWMxPU8pU2MyW2NIXVtjSF1bY0hdW2NIXVtjSF0y

> <s_epik_cmdline>
J2VwaWtfcHl0aG9uJywgJy1waCcsICc3LjAnLCAnLXRuJywgJzgnLCAnLW1hJywgJzIwMCcsICctbWV0YWxfYmluZGluZycsICctaW1hZScsICc8aW5maWxlLm1hZT4nLCAnLW9tYWUnLCAnPG91dGZpbGUubWFlPic=

> <r_lp_tautomer_probability>
1

> <r_epik_Ionization_Penalty>
1.3786e-05

> <r_epik_Ionization_Penalty_Charging>
1.17844e-05

> <r_epik_Ionization_Penalty_Neutral>
2.00164e-06

> <r_epik_State_Penalty>
-0

> <r_epik_Charging_Adjusted_Penalty>
1.17844e-05

> <i_epik_Tot_Q>
0

> <i_epik_Tot_abs_Q>
0

> <r_epik_Metal_State_Penalty>
0.0115847

> <b_epik_Metal_Only>
0

> <s_epik_Chemistry_Notes>
This compound has an imine and may undergo hydrolysis.

> <s_lp_Force_Field>
OPLS_2005

> <r_lp_Energy>
18.8348

> <b_lp_Chiralities_Consistent>
1

> <s_lp_Variant>
AV-unprocessed.smi:2630-1

> <Gold.Version>
5.8.1

> <Gold.Id.Protein>
6NUR|6NUR_protein|mol2

> <Gold.PLP.Fitness>
34.8681

> <Gold.PLP.PLP>
-29.8836

> <Gold.PLP.part.hbond>
-2.4851

> <Gold.PLP.part.metal>
0.0000

> <Gold.PLP.part.buried>
-1.9688

> <Gold.PLP.part.nonpolar>
-24.8558

> <Gold.PLP.part.repulsive>
0.9545

> <Gold.PLP.ligand.clash>
0.0000

> <Gold.PLP.ligand.torsion>
0.4433

> <Gold.PLP.Chemscore.Hbond>
1.9440

> <Gold.PLP.Chemscore.CHOScore>
0.0000

> <Gold.PLP.Chemscore.Metal>
0.0000

> <Gold.Chemscore.Hbonds>
donor molecule, donor type, donor heavy atom, donor atom, acceptor molecule, acceptor atom, score
      L1  H     7    30       P1 10171  1.00
      P1  H  7989  7998       L1     2  0.93

> <Gold.PLP.Chemscore.Internal.Correction>
0.0391

> <Gold.Rescore>
     Score         DG    S(hbond)    S(metal)    S(lipo)     H(rot)  DE(clash)    DE(int)     intcor
     11.68     -13.54       1.70        0.00      65.49       2.07       0.29       1.56       ----

> <Gold.Chemscore.Fitness>
11.6821

> <Gold.Chemscore.DG>
-13.5378

> <Gold.Chemscore.ZeroCoef>
-5.4800

> <Gold.Chemscore.Hbond>
1.7035

> <Gold.Chemscore.Metal>
0.0000

> <Gold.Chemscore.Lipo>
65.4902

> <Gold.Chemscore.Internal_Hbond>
0.0000

> <Gold.Chemscore.DEClash>
0.2926

> <Gold.Chemscore.DEInternal>
1.5631

> <Gold.Chemscore.Rot>
2.0680

> <Gold.Chemscore.Internal.Correction>
   9.000000E+99

> <Gold.Chemscore.Hbonds>
donor molecule, donor type, donor heavy atom, donor atom, acceptor molecule, acceptor atom, score
      L1  H     7    30       P1 10171  0.94
      P1  H  7989  7998       L1     2  0.20

> <Gold.Chemscore.Hbond.Weighted>
-5.6896

> <Gold.Chemscore.Metal.Weighted>
-0.0000

> <Gold.Chemscore.Lipo.Weighted>
-7.6624

> <Gold.Chemscore.Internal_Hbond.Weighted>
0.0000

> <Gold.Chemscore.DEClash.Weighted>
0.2926

> <Gold.Chemscore.DEInternal.Weighted>
1.5631

> <Gold.Chemscore.Rot.Weighted>
5.2941

> <Gold.Chemscore.Internal.Correction.Weighted>
   9.000000E+99

> <Gold.Protein.RotatedTorsions>
[ 6907 6896 6895 6894 ] final -137.93 input  -60.11 | X-H torsion
[ 7974 7965 7964 7962 ] final   10.33 input  175.53 | X-H torsion
[ 8008 7997 7996 7995 ] final -148.38 input   59.86 | X-H torsion
[ 10167 10162 10161 10158 ] final  -58.99 input  -65.29 | X-H torsion
[ 10718 10713 10712 10709 ] final  -88.85 input   66.30 | X-H torsion
[ 10763 10752 10751 10750 ] final -144.64 input  -60.55 | X-H torsion
[ 11005 11000 10999 10996 ] final   12.04 input  -57.11 | X-H torsion

> <Gold.Protein.ActiveResidues>
 VAL166  LYS551  ARG553  GLY616  TRP617  ASP618  TYR619  PRO620  LYS621  CYS622 
 ASP623  PHE694  ASN695  SER759  ASP760  ASP761  ALA762  ILE779  LEU786  VAL792 
 PHE793  MET794  SER795  GLU796  ALA797  LYS798  CYS799  TRP800  GLU811  SER814 

> <Gold.Protein.RotatedAtoms>
  151.0286  133.5811  159.2662 H   0  0  0  0  0  0  0  0  0  0  0  0  # atno 6907 bound_to 6896
  151.2901  135.0738  159.9211 H   0  0  0  0  0  0  0  0  0  0  0  0  # atno 6908 bound_to 6896
  152.5339  133.9986  159.7938 H   0  0  0  0  0  0  0  0  0  0  0  0  # atno 6909 bound_to 6896
  146.2390  139.9651  142.8454 H   0  0  0  0  0  0  0  0  0  0  0  0  # atno 7974 bound_to 7965
  155.5908  140.0652  157.2759 H   0  0  0  0  0  0  0  0  0  0  0  0  # atno 8008 bound_to 7997
  154.4306  140.1835  156.1119 H   0  0  0  0  0  0  0  0  0  0  0  0  # atno 8009 bound_to 7997
  156.0234  140.3314  155.7066 H   0  0  0  0  0  0  0  0  0  0  0  0  # atno 8010 bound_to 7997
  140.6163  143.2403  151.5589 H   0  0  0  0  0  0  0  0  0  0  0  0  # atno 10167 bound_to 10162
  155.9984  130.4851  150.5083 H   0  0  0  0  0  0  0  0  0  0  0  0  # atno 10718 bound_to 10713
  154.8419  135.3435  154.6379 H   0  0  0  0  0  0  0  0  0  0  0  0  # atno 10763 bound_to 10752
  153.6989  135.6970  153.5073 H   0  0  0  0  0  0  0  0  0  0  0  0  # atno 10764 bound_to 10752
  153.2538  135.4345  155.0779 H   0  0  0  0  0  0  0  0  0  0  0  0  # atno 10765 bound_to 10752
  140.4965  134.0789  155.7783 H   0  0  0  0  0  0  0  0  0  0  0  0  # atno 11005 bound_to 11000
  145.1734  140.9732  143.4308 LP  0  0  0  0  0  0  0  0  0  0  0  0  # atno 17320 bound_to 7965
  145.0007  139.3601  143.6169 LP  0  0  0  0  0  0  0  0  0  0  0  0  # atno 17321 bound_to 7965
  139.5401  144.2671  152.1333 LP  0  0  0  0  0  0  0  0  0  0  0  0  # atno 17342 bound_to 10162
  140.1881  144.4779  150.6493 LP  0  0  0  0  0  0  0  0  0  0  0  0  # atno 17343 bound_to 10162
  157.3059  131.0654  151.2035 LP  0  0  0  0  0  0  0  0  0  0  0  0  # atno 17370 bound_to 10713
  157.2999  130.6837  149.6158 LP  0  0  0  0  0  0  0  0  0  0  0  0  # atno 17371 bound_to 10713
  141.1458  133.9058  157.2219 LP  0  0  0  0  0  0  0  0  0  0  0  0  # atno 17394 bound_to 11000
  139.9738  135.0120  156.9581 LP  0  0  0  0  0  0  0  0  0  0  0  0  # atno 17395 bound_to 11000

$$$$
