AV-unprocessed.smi:919|AV-procd|sdf|4164|dock5
  -GOLD-   22720 2 73D 1   1.00000     0.00000
 Structure written by MMmdl.
 43 45  0  0  0  0  0  0  0  0  1 V2000
  150.0419  138.7032  154.6930 C   0  0  0  0  0  0  0  0  0  0  0  0
  149.3649  139.9821  154.2919 C   0  0  0  0  0  0  0  0  0  0  0  0
  150.0942  141.0725  154.1243 N   0  0  0  0  0  0  0  0  0  0  0  0
  149.1993  142.0794  153.7494 O   0  0  0  0  0  0  0  0  0  0  0  0
  147.9510  141.5485  153.7049 C   0  0  0  0  0  0  0  0  0  0  0  0
  146.8422  142.4670  153.3162 C   0  0  0  0  0  0  0  0  0  0  0  0
  147.9832  140.2235  154.0409 C   0  0  0  0  0  0  0  0  0  0  0  0
  146.8345  139.2546  154.1157 C   0  0  0  0  0  0  0  0  0  0  0  0
  146.3081  138.9028  152.7157 C   0  0  0  0  0  0  0  0  0  0  0  0
  146.6173  137.5244  152.3570 N   0  0  0  0  0  0  0  0  0  0  0  0
  145.7373  136.5088  152.3754 C   0  0  0  0  0  0  0  0  0  0  0  0
  144.5616  136.6367  152.7130 O   0  0  0  0  0  0  0  0  0  0  0  0
  146.2381  135.3238  151.9844 N   0  0  0  0  0  0  0  0  0  0  0  0
  145.5427  134.0379  151.8946 C   0  0  2  0  0  0  0  0  0  0  0  0
  146.3226  132.9778  151.0808 C   0  0  0  0  0  0  0  0  0  0  0  0
  145.3301  132.6034  149.9647 C   0  0  1  0  0  0  0  0  0  0  0  0
  144.1411  131.8305  150.5682 C   0  0  0  0  0  0  0  0  0  0  0  0
  143.3672  132.9285  151.3247 C   0  0  0  0  0  0  0  0  0  0  0  0
  144.2357  134.1770  151.0833 C   0  0  2  0  0  0  0  0  0  0  0  0
  144.7004  133.9524  149.6470 C   0  0  0  0  0  0  0  0  0  0  0  0
  149.3205  137.9036  154.8604 H   0  0  0  0  0  0  0  0  0  0  0  0
  150.6114  138.8322  155.6139 H   0  0  0  0  0  0  0  0  0  0  0  0
  150.7317  138.3673  153.9186 H   0  0  0  0  0  0  0  0  0  0  0  0
  146.1881  141.9936  152.5835 H   0  0  0  0  0  0  0  0  0  0  0  0
  147.2281  143.3877  152.8781 H   0  0  0  0  0  0  0  0  0  0  0  0
  146.2396  142.7316  154.1850 H   0  0  0  0  0  0  0  0  0  0  0  0
  147.1332  138.3411  154.6309 H   0  0  0  0  0  0  0  0  0  0  0  0
  146.0248  139.6743  154.7137 H   0  0  0  0  0  0  0  0  0  0  0  0
  145.2307  139.0689  152.6602 H   0  0  0  0  0  0  0  0  0  0  0  0
  146.7612  139.5580  151.9711 H   0  0  0  0  0  0  0  0  0  0  0  0
  147.5630  137.3286  152.0629 H   0  0  0  0  0  0  0  0  0  0  0  0
  147.2074  135.3174  151.7010 H   0  0  0  0  0  0  0  0  0  0  0  0
  145.3219  133.6821  152.9026 H   0  0  0  0  0  0  0  0  0  0  0  0
  147.2360  133.3922  150.6509 H   0  0  0  0  0  0  0  0  0  0  0  0
  146.6051  132.1169  151.6877 H   0  0  0  0  0  0  0  0  0  0  0  0
  145.7954  132.1004  149.1166 H   0  0  0  0  0  0  0  0  0  0  0  0
  143.5203  131.3961  149.7835 H   0  0  0  0  0  0  0  0  0  0  0  0
  144.4654  131.0222  151.2246 H   0  0  0  0  0  0  0  0  0  0  0  0
  142.3729  133.0599  150.8954 H   0  0  0  0  0  0  0  0  0  0  0  0
  143.2452  132.7006  152.3843 H   0  0  0  0  0  0  0  0  0  0  0  0
  143.7014  135.1123  151.2553 H   0  0  0  0  0  0  0  0  0  0  0  0
  145.4207  134.6958  149.3012 H   0  0  0  0  0  0  0  0  0  0  0  0
  143.8795  133.8897  148.9304 H   0  0  0  0  0  0  0  0  0  0  0  0
  1  2  1  0  0  0  0
  1 21  1  0  0  0  0
  1 22  1  0  0  0  0
  1 23  1  0  0  0  0
  2  7  1  0  0  0  0
  2  3  2  0  0  0  0
  3  4  1  0  0  0  0
  4  5  1  0  0  0  0
  5  6  1  0  0  0  0
  5  7  2  0  0  0  0
  6 24  1  0  0  0  0
  6 25  1  0  0  0  0
  6 26  1  0  0  0  0
  7  8  1  0  0  0  0
  8  9  1  0  0  0  0
  8 27  1  0  0  0  0
  8 28  1  0  0  0  0
  9 10  1  0  0  0  0
  9 29  1  0  0  0  0
  9 30  1  0  0  0  0
 10 11  1  0  0  0  0
 10 31  1  0  0  0  0
 11 12  2  0  0  0  0
 11 13  1  0  0  0  0
 13 14  1  0  0  0  0
 13 32  1  0  0  0  0
 14 19  1  0  0  0  0
 14 15  1  0  0  0  0
 14 33  1  0  0  0  0
 15 16  1  0  0  0  0
 15 34  1  0  0  0  0
 15 35  1  0  0  0  0
 16 20  1  0  0  0  0
 16 17  1  0  0  0  0
 16 36  1  0  0  0  0
 17 18  1  0  0  0  0
 17 37  1  0  0  0  0
 17 38  1  0  0  0  0
 18 19  1  0  0  0  0
 18 39  1  0  0  0  0
 18 40  1  0  0  0  0
 19 20  1  0  0  0  0
 19 41  1  0  0  0  0
 20 42  1  0  0  0  0
 20 43  1  0  0  0  0
M  END
> <s_m_source_file>
AV-unprocessed.smi

> <i_m_source_file_index>
919

> <i_lp_mmshare_version>
43012

> <i_f3d_flags>
0

> <s_epik_input>
W0NIM11jMW5vYyhbQ0gzXSljMVtDSDJdW0NIMl1bTkhdQyg9TylbTkhdW0NASF0oW0NIMl1bQ0BASF0yMylbQ0BASF0oW0NIMl0zKVtDSDJdW0NIMl0y

> <s_epik_cmdline>
J2VwaWtfcHl0aG9uJywgJy1waCcsICc3LjAnLCAnLXRuJywgJzgnLCAnLW1hJywgJzIwMCcsICctbWV0YWxfYmluZGluZycsICctaW1hZScsICc8aW5maWxlLm1hZT4nLCAnLW9tYWUnLCAnPG91dGZpbGUubWFlPic=

> <r_lp_tautomer_probability>
1

> <r_epik_Ionization_Penalty>
6.40771e-05

> <r_epik_Ionization_Penalty_Charging>
0

> <r_epik_Ionization_Penalty_Neutral>
6.40771e-05

> <r_epik_State_Penalty>
-0

> <r_epik_Charging_Adjusted_Penalty>
0

> <i_epik_Tot_Q>
0

> <i_epik_Tot_abs_Q>
0

> <r_epik_Metal_State_Penalty>
-0

> <b_epik_Metal_Only>
0

> <s_lp_Force_Field>
OPLS_2005

> <r_lp_Energy>
47.5349

> <b_lp_Chiralities_Consistent>
1

> <s_lp_Variant>
AV-unprocessed.smi:919-1

> <Gold.Version>
5.8.1

> <Gold.Id.Protein>
6NUR|6NUR_protein|mol2

> <Gold.PLP.Fitness>
45.2011

> <Gold.PLP.PLP>
-36.7230

> <Gold.PLP.part.hbond>
-4.6782

> <Gold.PLP.part.metal>
0.0000

> <Gold.PLP.part.buried>
-1.7061

> <Gold.PLP.part.nonpolar>
-30.1916

> <Gold.PLP.part.repulsive>
0.5121

> <Gold.PLP.ligand.clash>
0.0000

> <Gold.PLP.ligand.torsion>
0.7093

> <Gold.PLP.Chemscore.Hbond>
3.2891

> <Gold.PLP.Chemscore.CHOScore>
0.0000

> <Gold.PLP.Chemscore.Metal>
0.0000

> <Gold.Chemscore.Hbonds>
donor molecule, donor type, donor heavy atom, donor atom, acceptor molecule, acceptor atom, score
      L1  H    10    31       P1  7948  1.00
      L1  H    13    32       P1  7948  0.94
      P1  H  7989  7998       L1     3  0.48
      P1  H  8011  8017       L1     4  0.42

> <Gold.PLP.Chemscore.Internal.Correction>
0.0293

> <Gold.Rescore>
     Score         DG    S(hbond)    S(metal)    S(lipo)     H(rot)  DE(clash)    DE(int)     intcor
     18.68     -21.18       2.41        0.00      98.69       1.52       2.01       0.49       ----

> <Gold.Chemscore.Fitness>
18.6804

> <Gold.Chemscore.DG>
-21.1841

> <Gold.Chemscore.ZeroCoef>
-5.4800

> <Gold.Chemscore.Hbond>
2.4068

> <Gold.Chemscore.Metal>
0.0000

> <Gold.Chemscore.Lipo>
98.6886

> <Gold.Chemscore.Internal_Hbond>
0.0000

> <Gold.Chemscore.DEClash>
2.0134

> <Gold.Chemscore.DEInternal>
0.4904

> <Gold.Chemscore.Rot>
1.5161

> <Gold.Chemscore.Internal.Correction>
   9.000000E+99

> <Gold.Chemscore.Hbonds>
donor molecule, donor type, donor heavy atom, donor atom, acceptor molecule, acceptor atom, score
      L1  H    10    31       P1  7948  0.97
      L1  H    13    32       P1  7948  0.88
      P1  H  7989  7998       L1     3  0.45
      P1  H  8011  8017       L1     4  0.09

> <Gold.Chemscore.Hbond.Weighted>
-8.0388

> <Gold.Chemscore.Metal.Weighted>
-0.0000

> <Gold.Chemscore.Lipo.Weighted>
-11.5466

> <Gold.Chemscore.Internal_Hbond.Weighted>
0.0000

> <Gold.Chemscore.DEClash.Weighted>
2.0134

> <Gold.Chemscore.DEInternal.Weighted>
0.4904

> <Gold.Chemscore.Rot.Weighted>
3.8813

> <Gold.Chemscore.Internal.Correction.Weighted>
   9.000000E+99

> <Gold.Protein.RotatedTorsions>
[ 6907 6896 6895 6894 ] final  -25.19 input  -60.11 | X-H torsion
[ 7974 7965 7964 7962 ] final -106.01 input  175.53 | X-H torsion
[ 8008 7997 7996 7995 ] final   29.02 input   59.86 | X-H torsion
[ 10167 10162 10161 10158 ] final  168.28 input  -65.29 | X-H torsion
[ 10718 10713 10712 10709 ] final  143.19 input   66.30 | X-H torsion
[ 10763 10752 10751 10750 ] final  -80.39 input  -60.55 | X-H torsion
[ 11005 11000 10999 10996 ] final  -43.33 input  -57.11 | X-H torsion

> <Gold.Protein.ActiveResidues>
 VAL166  LYS551  ARG553  GLY616  TRP617  ASP618  TYR619  PRO620  LYS621  CYS622 
 ASP623  PHE694  ASN695  SER759  ASP760  ASP761  ALA762  ILE779  LEU786  VAL792 
 PHE793  MET794  SER795  GLU796  ALA797  LYS798  CYS799  TRP800  GLU811  SER814 

> <Gold.Protein.RotatedAtoms>
  151.1787  135.0351  159.8782 H   0  0  0  0  0  0  0  0  0  0  0  0  # atno 6907 bound_to 6896
  152.5446  134.1087  159.8359 H   0  0  0  0  0  0  0  0  0  0  0  0  # atno 6908 bound_to 6896
  151.1202  133.5063  159.2634 H   0  0  0  0  0  0  0  0  0  0  0  0  # atno 6909 bound_to 6896
  145.2232  140.9142  143.3247 H   0  0  0  0  0  0  0  0  0  0  0  0  # atno 7974 bound_to 7965
  155.0679  140.3197  155.4639 H   0  0  0  0  0  0  0  0  0  0  0  0  # atno 8008 bound_to 7997
  156.2797  140.2117  156.5752 H   0  0  0  0  0  0  0  0  0  0  0  0  # atno 8009 bound_to 7997
  154.7078  140.0501  157.0509 H   0  0  0  0  0  0  0  0  0  0  0  0  # atno 8010 bound_to 7997
  139.4964  144.3831  151.9600 H   0  0  0  0  0  0  0  0  0  0  0  0  # atno 10167 bound_to 10162
  157.3718  131.0980  151.0821 H   0  0  0  0  0  0  0  0  0  0  0  0  # atno 10718 bound_to 10713
  154.5506  135.5662  153.6919 H   0  0  0  0  0  0  0  0  0  0  0  0  # atno 10763 bound_to 10752
  152.9989  135.6250  154.2378 H   0  0  0  0  0  0  0  0  0  0  0  0  # atno 10764 bound_to 10752
  154.2313  135.2866  155.2868 H   0  0  0  0  0  0  0  0  0  0  0  0  # atno 10765 bound_to 10752
  141.0376  133.6793  156.2718 H   0  0  0  0  0  0  0  0  0  0  0  0  # atno 11005 bound_to 11000
  144.9746  139.3845  143.6292 LP  0  0  0  0  0  0  0  0  0  0  0  0  # atno 17320 bound_to 7965
  146.3371  139.8859  142.8817 LP  0  0  0  0  0  0  0  0  0  0  0  0  # atno 17321 bound_to 7965
  140.3268  144.3364  150.5996 LP  0  0  0  0  0  0  0  0  0  0  0  0  # atno 17342 bound_to 10162
  140.5678  143.2184  151.7653 LP  0  0  0  0  0  0  0  0  0  0  0  0  # atno 17343 bound_to 10162
  157.1923  130.6357  149.5709 LP  0  0  0  0  0  0  0  0  0  0  0  0  # atno 17370 bound_to 10713
  155.9757  130.4718  150.6477 LP  0  0  0  0  0  0  0  0  0  0  0  0  # atno 17371 bound_to 10713
  140.6293  134.5280  157.5557 LP  0  0  0  0  0  0  0  0  0  0  0  0  # atno 17394 bound_to 11000
  139.9252  134.8070  156.1090 LP  0  0  0  0  0  0  0  0  0  0  0  0  # atno 17395 bound_to 11000

$$$$
