AV-unprocessed.smi:114|AV-procd|sdf|1115|dock9
  -GOLD-   2262018233D 1   1.00000     0.00000
 Structure written by MMmdl.
 32 34  0  0  0  0  0  0  0  0  1 V2000
  143.3528  146.4885  155.1213 N   0  0  0  0  0  0  0  0  0  0  0  0
  143.8281  145.3081  155.5425 C   0  0  0  0  0  0  0  0  0  0  0  0
  143.4522  144.8602  156.7631 N   0  0  0  0  0  0  0  0  0  0  0  0
  143.9052  143.6868  157.2217 C   0  0  0  0  0  0  0  0  0  0  0  0
  143.4769  143.3148  158.4507 F   0  0  0  0  0  0  0  0  0  0  0  0
  144.7344  142.8401  156.6022 N   0  0  0  0  0  0  0  0  0  0  0  0
  145.1164  143.2877  155.3711 C   0  0  0  0  0  0  0  0  0  0  0  0
  144.7060  144.5081  154.7708 C   0  0  0  0  0  0  0  0  0  0  0  0
  145.2855  144.6377  153.5162 N   0  0  0  0  0  0  0  0  0  0  0  0
  145.9984  143.5509  153.3864 C   0  0  0  0  0  0  0  0  0  0  0  0
  145.9585  142.6857  154.4578 N   0  0  0  0  0  0  0  0  0  0  0  0
  146.6675  141.3781  154.5995 C   0  0  2  0  0  0  0  0  0  0  0  0
  147.3265  141.3741  155.8282 O   0  0  0  0  0  0  0  0  0  0  0  0
  148.6209  140.8034  155.6771 C   0  0  2  0  0  0  0  0  0  0  0  0
  149.5465  141.3119  156.7929 C   0  0  0  0  0  0  0  0  0  0  0  0
  149.1151  142.5789  157.2414 O   0  0  0  0  0  0  0  0  0  0  0  0
  149.0298  141.2776  154.2812 C   0  0  1  0  0  0  0  0  0  0  0  0
  150.0703  140.4987  153.7199 O   0  0  0  0  0  0  0  0  0  0  0  0
  147.7225  141.2027  153.4944 C   0  0  1  0  0  0  0  0  0  0  0  0
  147.5616  139.9581  152.8382 O   0  0  0  0  0  0  0  0  0  0  0  0
  145.8766  140.6268  154.5782 H   0  0  0  0  0  0  0  0  0  0  0  0
  148.5406  139.7144  155.6880 H   0  0  0  0  0  0  0  0  0  0  0  0
  149.3620  142.3148  154.3287 H   0  0  0  0  0  0  0  0  0  0  0  0
  147.6531  141.9991  152.7520 H   0  0  0  0  0  0  0  0  0  0  0  0
  143.6204  146.8432  154.2142 H   0  0  0  0  0  0  0  0  0  0  0  0
  142.7285  147.0204  155.7101 H   0  0  0  0  0  0  0  0  0  0  0  0
  146.5814  143.3511  152.4989 H   0  0  0  0  0  0  0  0  0  0  0  0
  149.5120  140.6350  157.6471 H   0  0  0  0  0  0  0  0  0  0  0  0
  150.5834  141.3572  156.4582 H   0  0  0  0  0  0  0  0  0  0  0  0
  149.0205  143.1466  156.4918 H   0  0  0  0  0  0  0  0  0  0  0  0
  149.8183  140.2516  152.8432 H   0  0  0  0  0  0  0  0  0  0  0  0
  148.1569  139.9289  152.1047 H   0  0  0  0  0  0  0  0  0  0  0  0
  1  2  1  0  0  0  0
  1 25  1  0  0  0  0
  1 26  1  0  0  0  0
  2  8  1  0  0  0  0
  2  3  2  0  0  0  0
  3  4  1  0  0  0  0
  4  5  1  0  0  0  0
  4  6  2  0  0  0  0
  6  7  1  0  0  0  0
  7 11  1  0  0  0  0
  7  8  2  0  0  0  0
  8  9  1  0  0  0  0
  9 10  2  0  0  0  0
 10 11  1  0  0  0  0
 10 27  1  0  0  0  0
 11 12  1  0  0  0  0
 12 21  1  0  0  0  0
 12 19  1  0  0  0  0
 12 13  1  0  0  0  0
 13 14  1  0  0  0  0
 14 22  1  0  0  0  0
 14 15  1  0  0  0  0
 14 17  1  0  0  0  0
 15 16  1  0  0  0  0
 15 28  1  0  0  0  0
 15 29  1  0  0  0  0
 16 30  1  0  0  0  0
 17 23  1  0  0  0  0
 17 18  1  0  0  0  0
 17 19  1  0  0  0  0
 18 31  1  0  0  0  0
 19 24  1  0  0  0  0
 19 20  1  0  0  0  0
 20 32  1  0  0  0  0
M  END
> <s_m_source_file>
AV-unprocessed.smi

> <i_m_source_file_index>
114

> <i_lp_mmshare_version>
43012

> <i_f3d_flags>
0

> <s_epik_input>
RmMobjEpbmMoW05IMl0pYyhjMTIpbltjSF1uMltDQEBIXTNPW0NASF0oW0NIMl1bT0hdKVtDQEBIXShbT0hdKVtDQEBIXTNbT0hd

> <s_epik_cmdline>
J2VwaWtfcHl0aG9uJywgJy1waCcsICc3LjAnLCAnLXRuJywgJzgnLCAnLW1hJywgJzIwMCcsICctbWV0YWxfYmluZGluZycsICctaW1hZScsICc8aW5maWxlLm1hZT4nLCAnLW9tYWUnLCAnPG91dGZpbGUubWFlPic=

> <r_lp_tautomer_probability>
1

> <r_epik_Ionization_Penalty>
1.13199e-05

> <r_epik_Ionization_Penalty_Charging>
0

> <r_epik_Ionization_Penalty_Neutral>
1.13199e-05

> <r_epik_State_Penalty>
-0

> <r_epik_Charging_Adjusted_Penalty>
0

> <i_epik_Tot_Q>
0

> <i_epik_Tot_abs_Q>
0

> <r_epik_Metal_State_Penalty>
-0

> <b_epik_Metal_Only>
0

> <s_epik_Chemistry_Notes>
This compound contains an acetal/aminal-like group ( X-CH(R)-Y where X, Y are N, S, or O) that may be acid/base labile, releasing an aldehyde.

> <s_lp_Force_Field>
OPLS_2005

> <r_lp_Energy>
39.1628

> <b_lp_Chiralities_Consistent>
1

> <s_lp_Variant>
AV-unprocessed.smi:114-9

> <Gold.Version>
5.8.1

> <Gold.Id.Protein>
6NUR|6NUR_protein|mol2

> <Gold.PLP.Fitness>
38.0119

> <Gold.PLP.PLP>
-28.1152

> <Gold.PLP.part.hbond>
-3.8108

> <Gold.PLP.part.metal>
0.0000

> <Gold.PLP.part.buried>
-6.0114

> <Gold.PLP.part.nonpolar>
-18.1712

> <Gold.PLP.part.repulsive>
0.3666

> <Gold.PLP.ligand.clash>
0.0000

> <Gold.PLP.ligand.torsion>
0.5900

> <Gold.PLP.Chemscore.Hbond>
3.6880

> <Gold.PLP.Chemscore.CHOScore>
0.0000

> <Gold.PLP.Chemscore.Metal>
0.0000

> <Gold.Chemscore.Hbonds>
donor molecule, donor type, donor heavy atom, donor atom, acceptor molecule, acceptor atom, score
      L1  H    16    30       P1  8028  1.00
      L1  H    18    31       P1  7957  1.00
      L1  H    20    32       P1  7957  1.00
      P1  H  7989  7998       L1    18  0.62

> <Gold.PLP.Chemscore.Internal.Correction>
0.0127

> <Gold.Rescore>
     Score         DG    S(hbond)    S(metal)    S(lipo)     H(rot)  DE(clash)    DE(int)     intcor
      7.54      -8.80       3.00        0.00      30.92       4.03       0.06       1.19       ----

> <Gold.Chemscore.Fitness>
7.5402

> <Gold.Chemscore.DG>
-8.7963

> <Gold.Chemscore.ZeroCoef>
-5.4800

> <Gold.Chemscore.Hbond>
2.9968

> <Gold.Chemscore.Metal>
0.0000

> <Gold.Chemscore.Lipo>
30.9244

> <Gold.Chemscore.Internal_Hbond>
0.0000

> <Gold.Chemscore.DEClash>
0.0638

> <Gold.Chemscore.DEInternal>
1.1923

> <Gold.Chemscore.Rot>
4.0277

> <Gold.Chemscore.Internal.Correction>
   9.000000E+99

> <Gold.Chemscore.Hbonds>
donor molecule, donor type, donor heavy atom, donor atom, acceptor molecule, acceptor atom, score
      L1  H    16    30       P1  8028  0.97
      L1  H    18    31       P1  7957  1.00
      L1  H    20    32       P1  7957  1.00
      P1  H  7989  7998       L1    18  0.16

> <Gold.Chemscore.Hbond.Weighted>
-10.0092

> <Gold.Chemscore.Metal.Weighted>
-0.0000

> <Gold.Chemscore.Lipo.Weighted>
-3.6182

> <Gold.Chemscore.Internal_Hbond.Weighted>
0.0000

> <Gold.Chemscore.DEClash.Weighted>
0.0638

> <Gold.Chemscore.DEInternal.Weighted>
1.1923

> <Gold.Chemscore.Rot.Weighted>
10.3110

> <Gold.Chemscore.Internal.Correction.Weighted>
   9.000000E+99

> <Gold.Protein.RotatedTorsions>
[ 6907 6896 6895 6894 ] final   41.05 input  -60.11 | X-H torsion
[ 7974 7965 7964 7962 ] final   10.52 input  175.53 | X-H torsion
[ 8008 7997 7996 7995 ] final  -62.71 input   59.86 | X-H torsion
[ 10167 10162 10161 10158 ] final   20.80 input  -65.29 | X-H torsion
[ 10718 10713 10712 10709 ] final   51.24 input   66.30 | X-H torsion
[ 10763 10752 10751 10750 ] final -144.80 input  -60.55 | X-H torsion
[ 11005 11000 10999 10996 ] final  -16.93 input  -57.11 | X-H torsion

> <Gold.Protein.ActiveResidues>
 VAL166  LYS551  ARG553  GLY616  TRP617  ASP618  TYR619  PRO620  LYS621  CYS622 
 ASP623  PHE694  ASN695  SER759  ASP760  ASP761  ALA762  ILE779  LEU786  VAL792 
 PHE793  MET794  SER795  GLU796  ALA797  LYS798  CYS799  TRP800  GLU811  SER814 

> <Gold.Protein.RotatedAtoms>
  152.1903  134.8678  160.0517 H   0  0  0  0  0  0  0  0  0  0  0  0  # atno 6907 bound_to 6896
  151.9569  133.3678  159.4029 H   0  0  0  0  0  0  0  0  0  0  0  0  # atno 6908 bound_to 6896
  150.6934  134.4205  159.5247 H   0  0  0  0  0  0  0  0  0  0  0  0  # atno 6909 bound_to 6896
  146.2387  139.9622  142.8457 H   0  0  0  0  0  0  0  0  0  0  0  0  # atno 7974 bound_to 7965
  154.4514  140.0990  156.6630 H   0  0  0  0  0  0  0  0  0  0  0  0  # atno 8008 bound_to 7997
  155.5272  140.3480  155.4400 H   0  0  0  0  0  0  0  0  0  0  0  0  # atno 8009 bound_to 7997
  156.0689  140.1344  156.9841 H   0  0  0  0  0  0  0  0  0  0  0  0  # atno 8010 bound_to 7997
  140.5475  143.9567  150.6557 H   0  0  0  0  0  0  0  0  0  0  0  0  # atno 10167 bound_to 10162
  157.4962  130.8408  149.8261 H   0  0  0  0  0  0  0  0  0  0  0  0  # atno 10718 bound_to 10713
  154.8412  135.3430  154.6403 H   0  0  0  0  0  0  0  0  0  0  0  0  # atno 10763 bound_to 10752
  153.7014  135.6969  153.5066 H   0  0  0  0  0  0  0  0  0  0  0  0  # atno 10764 bound_to 10752
  153.2520  135.4350  155.0761 H   0  0  0  0  0  0  0  0  0  0  0  0  # atno 10765 bound_to 10752
  140.8117  133.8135  155.9570 H   0  0  0  0  0  0  0  0  0  0  0  0  # atno 11005 bound_to 11000
  145.1760  140.9744  143.4294 LP  0  0  0  0  0  0  0  0  0  0  0  0  # atno 17320 bound_to 7965
  144.9985  139.3620  143.6179 LP  0  0  0  0  0  0  0  0  0  0  0  0  # atno 17321 bound_to 7965
  140.2985  143.3276  152.0995 LP  0  0  0  0  0  0  0  0  0  0  0  0  # atno 17342 bound_to 10162
  139.5013  144.6712  151.6239 LP  0  0  0  0  0  0  0  0  0  0  0  0  # atno 17343 bound_to 10162
  156.0202  130.3798  150.1986 LP  0  0  0  0  0  0  0  0  0  0  0  0  # atno 17370 bound_to 10713
  157.0175  130.9969  151.3349 LP  0  0  0  0  0  0  0  0  0  0  0  0  # atno 17371 bound_to 10713
  140.9191  134.2165  157.4938 LP  0  0  0  0  0  0  0  0  0  0  0  0  # atno 17394 bound_to 11000
  139.8713  134.9784  156.4996 LP  0  0  0  0  0  0  0  0  0  0  0  0  # atno 17395 bound_to 11000

$$$$
