AV-unprocessed.smi:1622|AV-procd|sdf|6499|dock2
  -GOLD-   22720 7163D 1   1.00000     0.00000
 Structure written by MMmdl.
 40 41  0  0  0  0  0  0  0  0  3 V2000
  150.9314  131.6624  155.6858 C   0  0  0  0  0  0  0  0  0  0  0  0
  149.6575  132.0488  154.9182 C   0  0  0  0  0  0  0  0  0  0  0  0
  149.7131  133.4395  154.2284 C   0  0  2  0  0  0  0  0  0  0  0  0
  150.2671  134.5415  155.1656 C   0  0  0  0  0  0  0  0  0  0  0  0
  149.8421  134.3435  156.5460 N   0  0  0  0  0  0  0  0  0  0  0  0
  149.2114  135.2518  157.3009 C   0  0  0  0  0  0  0  0  0  0  0  0
  148.9608  136.3674  156.8395 O   0  0  0  0  0  0  0  0  0  0  0  0
  148.9083  134.8081  158.5411 N   0  5  0  0  0  0  0  0  0  0  0  0
  148.2251  135.5961  159.3879 C   0  0  0  0  0  0  0  0  0  0  0  0
  148.6987  136.7762  159.8123 N   0  0  0  0  0  0  0  0  0  0  0  0
  147.8374  137.4263  160.6846 N   0  0  0  0  0  0  0  0  0  0  0  0
  146.7272  136.7210  160.9139 C   0  0  0  0  0  0  0  0  0  0  0  0
  145.6425  137.1989  161.8172 C   0  0  0  0  0  0  0  0  0  0  0  0
  146.6515  135.1843  160.0686 S   0  0  0  0  0  0  0  0  0  0  0  0
  148.3853  133.8156  153.6598 N   0  3  0  0  0  0  0  0  0  0  0  0
  147.8489  132.9133  152.6177 C   0  0  0  0  0  0  0  0  0  0  0  0
  146.3566  133.2191  152.5617 C   0  0  0  0  0  0  0  0  0  0  0  0
  146.0038  133.4753  154.0221 C   0  0  0  0  0  0  0  0  0  0  0  0
  147.2979  134.0076  154.6532 C   0  0  0  0  0  0  0  0  0  0  0  0
  150.8072  130.6931  156.1690 H   0  0  0  0  0  0  0  0  0  0  0  0
  151.1672  132.3893  156.4628 H   0  0  0  0  0  0  0  0  0  0  0  0
  151.7928  131.5851  155.0222 H   0  0  0  0  0  0  0  0  0  0  0  0
  149.4537  131.2780  154.1745 H   0  0  0  0  0  0  0  0  0  0  0  0
  148.8096  131.9982  155.6005 H   0  0  0  0  0  0  0  0  0  0  0  0
  150.4047  133.3567  153.3883 H   0  0  0  0  0  0  0  0  0  0  0  0
  151.3573  134.5413  155.1668 H   0  0  0  0  0  0  0  0  0  0  0  0
  149.9538  135.5257  154.8135 H   0  0  0  0  0  0  0  0  0  0  0  0
  150.0321  133.4443  156.9636 H   0  0  0  0  0  0  0  0  0  0  0  0
  146.0167  137.2851  162.8375 H   0  0  0  0  0  0  0  0  0  0  0  0
  144.8058  136.5000  161.8095 H   0  0  0  0  0  0  0  0  0  0  0  0
  145.2849  138.1753  161.4895 H   0  0  0  0  0  0  0  0  0  0  0  0
  148.3318  133.0692  151.6526 H   0  0  0  0  0  0  0  0  0  0  0  0
  148.0015  131.8742  152.9147 H   0  0  0  0  0  0  0  0  0  0  0  0
  146.1852  134.1220  151.9742 H   0  0  0  0  0  0  0  0  0  0  0  0
  145.7734  132.4113  152.1184 H   0  0  0  0  0  0  0  0  0  0  0  0
  145.1675  134.1661  154.1324 H   0  0  0  0  0  0  0  0  0  0  0  0
  145.7219  132.5366  154.5005 H   0  0  0  0  0  0  0  0  0  0  0  0
  147.4986  133.4688  155.5803 H   0  0  0  0  0  0  0  0  0  0  0  0
  147.2160  135.0676  154.8957 H   0  0  0  0  0  0  0  0  0  0  0  0
  148.5074  134.7096  153.2059 H   0  0  0  0  0  0  0  0  0  0  0  0
  1  2  1  0  0  0  0
  1 20  1  0  0  0  0
  1 21  1  0  0  0  0
  1 22  1  0  0  0  0
  2  3  1  0  0  0  0
  2 23  1  0  0  0  0
  2 24  1  0  0  0  0
  3  4  1  0  0  0  0
  3 15  1  0  0  0  0
  3 25  1  0  0  0  0
  4  5  1  0  0  0  0
  4 26  1  0  0  0  0
  4 27  1  0  0  0  0
  5  6  1  0  0  0  0
  5 28  1  0  0  0  0
  6  7  2  0  0  0  0
  6  8  1  0  0  0  0
  8  9  1  0  0  0  0
  9 14  1  0  0  0  0
  9 10  2  0  0  0  0
 10 11  1  0  0  0  0
 11 12  2  0  0  0  0
 12 13  1  0  0  0  0
 12 14  1  0  0  0  0
 13 29  1  0  0  0  0
 13 30  1  0  0  0  0
 13 31  1  0  0  0  0
 15 19  1  0  0  0  0
 15 16  1  0  0  0  0
 15 40  1  0  0  0  0
 16 17  1  0  0  0  0
 16 32  1  0  0  0  0
 16 33  1  0  0  0  0
 17 18  1  0  0  0  0
 17 34  1  0  0  0  0
 17 35  1  0  0  0  0
 18 19  1  0  0  0  0
 18 36  1  0  0  0  0
 18 37  1  0  0  0  0
 19 38  1  0  0  0  0
 19 39  1  0  0  0  0
M  CHG  1   8  -1
M  CHG  1  15   1
M  END
> <s_m_source_file>
AV-unprocessed.smi

> <i_m_source_file_index>
1622

> <i_lp_mmshare_version>
43012

> <i_f3d_flags>
0

> <s_epik_input>
W0NIMl0xW0NIMl1bQ0gyXVtDSDJdTjFbQ0BIXShbQ0gyXVtDSDNdKVtDSDJdW05IXUMoPU8pW05IXWMybm5jKHMyKVtDSDNd

> <s_epik_cmdline>
J2VwaWtfcHl0aG9uJywgJy1waCcsICc3LjAnLCAnLXRuJywgJzgnLCAnLW1hJywgJzIwMCcsICctbWV0YWxfYmluZGluZycsICctaW1hZScsICc8aW5maWxlLm1hZT4nLCAnLW9tYWUnLCAnPG91dGZpbGUubWFlPic=

> <r_lp_tautomer_probability>
1

> <r_epik_Ionization_Penalty>
4.34497

> <r_epik_Ionization_Penalty_Charging>
4.23453

> <r_epik_Ionization_Penalty_Neutral>
0.110433

> <r_epik_State_Penalty>
4.23293

> <r_epik_Charging_Adjusted_Penalty>
8.46746

> <i_epik_Tot_Q>
0

> <i_epik_Tot_abs_Q>
2

> <r_epik_Metal_State_Penalty>
0.701092

> <b_epik_Metal_Only>
1

> <s_lp_Force_Field>
OPLS_2005

> <r_lp_Energy>
26.4527

> <b_lp_Chiralities_Consistent>
1

> <s_lp_Variant>
AV-unprocessed.smi:1622-3

> <Gold.Version>
5.8.1

> <Gold.Id.Protein>
6NUR|6NUR_protein|mol2

> <Gold.PLP.Fitness>
41.2755

> <Gold.PLP.PLP>
-25.7742

> <Gold.PLP.part.hbond>
-4.0368

> <Gold.PLP.part.metal>
0.0000

> <Gold.PLP.part.buried>
-4.2274

> <Gold.PLP.part.nonpolar>
-17.4679

> <Gold.PLP.part.repulsive>
0.0900

> <Gold.PLP.ligand.clash>
0.0000

> <Gold.PLP.ligand.torsion>
0.9900

> <Gold.PLP.Chemscore.Hbond>
5.7280

> <Gold.PLP.Chemscore.CHOScore>
0.0000

> <Gold.PLP.Chemscore.Metal>
0.0000

> <Gold.Chemscore.Hbonds>
donor molecule, donor type, donor heavy atom, donor atom, acceptor molecule, acceptor atom, score
      L1  H    15    40       P1  7948  1.95
      P1  H  6896  6907       L1     8  2.00
      P1  H  6931  6943       L1    11  0.70
      P1  H  6934  6947       L1    11  0.76

> <Gold.PLP.Chemscore.Internal.Correction>
0.2972

> <Gold.Rescore>
     Score         DG    S(hbond)    S(metal)    S(lipo)     H(rot)  DE(clash)    DE(int)     intcor
     13.19     -14.34       2.12        0.00      53.10       1.73       0.05       1.10       ----

> <Gold.Chemscore.Fitness>
13.1862

> <Gold.Chemscore.DG>
-14.3394

> <Gold.Chemscore.ZeroCoef>
-5.4800

> <Gold.Chemscore.Hbond>
2.1221

> <Gold.Chemscore.Metal>
0.0000

> <Gold.Chemscore.Lipo>
53.1010

> <Gold.Chemscore.Internal_Hbond>
0.0000

> <Gold.Chemscore.DEClash>
0.0548

> <Gold.Chemscore.DEInternal>
1.0984

> <Gold.Chemscore.Rot>
1.7348

> <Gold.Chemscore.Internal.Correction>
   9.000000E+99

> <Gold.Chemscore.Hbonds>
donor molecule, donor type, donor heavy atom, donor atom, acceptor molecule, acceptor atom, score
      L1  H    15    40       P1  7948  0.46
      P1  H  6896  6907       L1     8  0.35
      P1  H  6931  6943       L1    11  0.24
      P1  H  6934  6947       L1    11  0.17

> <Gold.Chemscore.Hbond.Weighted>
-7.0877

> <Gold.Chemscore.Metal.Weighted>
-0.0000

> <Gold.Chemscore.Lipo.Weighted>
-6.2128

> <Gold.Chemscore.Internal_Hbond.Weighted>
0.0000

> <Gold.Chemscore.DEClash.Weighted>
0.0548

> <Gold.Chemscore.DEInternal.Weighted>
1.0984

> <Gold.Chemscore.Rot.Weighted>
4.4411

> <Gold.Chemscore.Internal.Correction.Weighted>
   9.000000E+99

> <Gold.Protein.RotatedTorsions>
[ 6907 6896 6895 6894 ] final  -82.25 input  -60.11 | X-H torsion
[ 7974 7965 7964 7962 ] final  -32.65 input  175.53 | X-H torsion
[ 8008 7997 7996 7995 ] final   34.91 input   59.86 | X-H torsion
[ 10167 10162 10161 10158 ] final   99.85 input  -65.29 | X-H torsion
[ 10718 10713 10712 10709 ] final   51.60 input   66.30 | X-H torsion
[ 10763 10752 10751 10750 ] final    0.02 input  -60.55 | X-H torsion
[ 11005 11000 10999 10996 ] final  -53.10 input  -57.11 | X-H torsion

> <Gold.Protein.ActiveResidues>
 VAL166  LYS551  ARG553  GLY616  TRP617  ASP618  TYR619  PRO620  LYS621  CYS622 
 ASP623  PHE694  ASN695  SER759  ASP760  ASP761  ALA762  ILE779  LEU786  VAL792 
 PHE793  MET794  SER795  GLU796  ALA797  LYS798  CYS799  TRP800  GLU811  SER814 

> <Gold.Protein.RotatedAtoms>
  150.6900  134.3694  159.4985 H   0  0  0  0  0  0  0  0  0  0  0  0  # atno 6907 bound_to 6896
  152.1512  134.8984  160.0557 H   0  0  0  0  0  0  0  0  0  0  0  0  # atno 6908 bound_to 6896
  152.0081  133.3816  159.4245 H   0  0  0  0  0  0  0  0  0  0  0  0  # atno 6909 bound_to 6896
  146.0973  140.5819  142.8837 H   0  0  0  0  0  0  0  0  0  0  0  0  # atno 7974 bound_to 7965
  155.1625  140.3284  155.4408 H   0  0  0  0  0  0  0  0  0  0  0  0  # atno 8008 bound_to 7997
  156.2538  140.1957  156.6682 H   0  0  0  0  0  0  0  0  0  0  0  0  # atno 8009 bound_to 7997
  154.6395  140.0572  156.9815 H   0  0  0  0  0  0  0  0  0  0  0  0  # atno 8010 bound_to 7997
  139.7580  144.6963  151.0334 H   0  0  0  0  0  0  0  0  0  0  0  0  # atno 10167 bound_to 10162
  157.4996  130.8429  149.8300 H   0  0  0  0  0  0  0  0  0  0  0  0  # atno 10718 bound_to 10713
  153.3260  135.6972  153.6989 H   0  0  0  0  0  0  0  0  0  0  0  0  # atno 10763 bound_to 10752
  153.5810  135.3498  155.2875 H   0  0  0  0  0  0  0  0  0  0  0  0  # atno 10764 bound_to 10752
  154.8608  135.4295  154.2437 H   0  0  0  0  0  0  0  0  0  0  0  0  # atno 10765 bound_to 10752
  141.0958  133.6625  156.4121 H   0  0  0  0  0  0  0  0  0  0  0  0  # atno 11005 bound_to 11000
  144.7405  140.4928  143.6873 LP  0  0  0  0  0  0  0  0  0  0  0  0  # atno 17320 bound_to 7965
  145.5924  139.1497  143.3175 LP  0  0  0  0  0  0  0  0  0  0  0  0  # atno 17321 bound_to 7965
  140.7804  143.4730  151.0120 LP  0  0  0  0  0  0  0  0  0  0  0  0  # atno 17342 bound_to 10162
  139.8417  143.7555  152.3180 LP  0  0  0  0  0  0  0  0  0  0  0  0  # atno 17343 bound_to 10162
  156.0221  130.3792  150.1930 LP  0  0  0  0  0  0  0  0  0  0  0  0  # atno 17370 bound_to 10713
  157.0120  130.9954  151.3363 LP  0  0  0  0  0  0  0  0  0  0  0  0  # atno 17371 bound_to 10713
  140.5143  134.6365  157.5295 LP  0  0  0  0  0  0  0  0  0  0  0  0  # atno 17394 bound_to 11000
  139.9795  134.7161  155.9886 LP  0  0  0  0  0  0  0  0  0  0  0  0  # atno 17395 bound_to 11000

$$$$
