AV-unprocessed.smi:48|AV-procd|sdf|460|dock10
  -GOLD-   2262016333D 1   1.00000     0.00000
 Structure written by MMmdl.
 30 32  0  0  0  0  0  0  0  0  1 V2000
  144.6156  134.8491  153.2598 O   0  0  0  0  0  0  0  0  0  0  0  0
  145.1878  135.7016  154.2284 C   0  0  0  0  0  0  0  0  0  0  0  0
  146.2023  136.6467  153.5672 C   0  0  2  0  0  0  0  0  0  0  0  0
  146.6930  137.5764  154.5330 O   0  0  0  0  0  0  0  0  0  0  0  0
  147.0082  138.7968  153.9288 C   0  0  1  0  0  0  0  0  0  0  0  0
  148.4706  139.0771  154.1100 N   0  0  0  0  0  0  0  0  0  0  0  0
  149.0772  140.2790  154.0304 C   0  0  0  0  0  0  0  0  0  0  0  0
  150.3948  140.3185  154.2211 N   0  0  0  0  0  0  0  0  0  0  0  0
  150.6789  138.9838  154.4574 C   0  0  0  0  0  0  0  0  0  0  0  0
  151.8854  138.2961  154.7353 C   0  0  0  0  0  0  0  0  0  0  0  0
  153.3873  139.1402  154.8341 Cl  0  0  0  0  0  0  0  0  0  0  0  0
  151.8362  136.9557  154.9213 N   0  0  0  0  0  0  0  0  0  0  0  0
  150.6581  136.3259  154.8385 C   0  0  0  0  0  0  0  0  0  0  0  0
  149.4487  136.8377  154.5855 N   0  0  0  0  0  0  0  0  0  0  0  0
  149.4979  138.1894  154.3973 C   0  0  0  0  0  0  0  0  0  0  0  0
  146.5761  138.7155  152.4511 C   0  0  1  0  0  0  0  0  0  0  0  0
  147.6493  138.4830  151.5517 O   0  0  0  0  0  0  0  0  0  0  0  0
  145.5873  137.5584  152.5040 C   0  0  1  0  0  0  0  0  0  0  0  0
  145.4084  136.9192  151.2541 O   0  0  0  0  0  0  0  0  0  0  0  0
  147.0325  136.0891  153.1313 H   0  0  0  0  0  0  0  0  0  0  0  0
  146.5037  139.5966  154.4726 H   0  0  0  0  0  0  0  0  0  0  0  0
  146.0869  139.6466  152.1627 H   0  0  0  0  0  0  0  0  0  0  0  0
  144.6224  137.9295  152.8533 H   0  0  0  0  0  0  0  0  0  0  0  0
  144.5829  133.9728  153.6120 H   0  0  0  0  0  0  0  0  0  0  0  0
  144.3767  136.2762  154.6766 H   0  0  0  0  0  0  0  0  0  0  0  0
  145.6496  135.1173  155.0248 H   0  0  0  0  0  0  0  0  0  0  0  0
  148.5187  141.1788  153.8170 H   0  0  0  0  0  0  0  0  0  0  0  0
  150.6879  135.2581  154.9969 H   0  0  0  0  0  0  0  0  0  0  0  0
  148.3021  139.1537  151.6815 H   0  0  0  0  0  0  0  0  0  0  0  0
  144.6806  137.3266  150.8102 H   0  0  0  0  0  0  0  0  0  0  0  0
  1  2  1  0  0  0  0
  1 24  1  0  0  0  0
  2  3  1  0  0  0  0
  2 25  1  0  0  0  0
  2 26  1  0  0  0  0
  3 20  1  0  0  0  0
  3 18  1  0  0  0  0
  3  4  1  0  0  0  0
  4  5  1  0  0  0  0
  5 21  1  0  0  0  0
  5  6  1  0  0  0  0
  5 16  1  0  0  0  0
  6 15  1  0  0  0  0
  6  7  1  0  0  0  0
  7  8  2  0  0  0  0
  7 27  1  0  0  0  0
  8  9  1  0  0  0  0
  9 15  2  0  0  0  0
  9 10  1  0  0  0  0
 10 11  1  0  0  0  0
 10 12  2  0  0  0  0
 12 13  1  0  0  0  0
 13 14  2  0  0  0  0
 13 28  1  0  0  0  0
 14 15  1  0  0  0  0
 16 22  1  0  0  0  0
 16 17  1  0  0  0  0
 16 18  1  0  0  0  0
 17 29  1  0  0  0  0
 18 23  1  0  0  0  0
 18 19  1  0  0  0  0
 19 30  1  0  0  0  0
M  END
> <s_m_source_file>
AV-unprocessed.smi

> <i_m_source_file_index>
48

> <i_lp_mmshare_version>
43012

> <i_f3d_flags>
0

> <s_epik_input>
W09IXVtDSDJdW0NASF0xT1tDQEhdKFtDQEhdKFtPSF0pW0NAQEhdMVtPSF0pbihbY0hdbjIpYyhjMjMpbltjSF1uYzNDbA==

> <s_epik_cmdline>
J2VwaWtfcHl0aG9uJywgJy1waCcsICc3LjAnLCAnLXRuJywgJzgnLCAnLW1hJywgJzIwMCcsICctbWV0YWxfYmluZGluZycsICctaW1hZScsICc8aW5maWxlLm1hZT4nLCAnLW9tYWUnLCAnPG91dGZpbGUubWFlPic=

> <r_lp_tautomer_probability>
1

> <r_epik_Ionization_Penalty>
3.45505e-06

> <r_epik_Ionization_Penalty_Charging>
0

> <r_epik_Ionization_Penalty_Neutral>
3.45505e-06

> <r_epik_State_Penalty>
-0

> <r_epik_Charging_Adjusted_Penalty>
0

> <i_epik_Tot_Q>
0

> <i_epik_Tot_abs_Q>
0

> <r_epik_Metal_State_Penalty>
-0

> <b_epik_Metal_Only>
0

> <s_epik_Chemistry_Notes>
This compound contains an acetal/aminal-like group ( X-CH(R)-Y where X, Y are N, S, or O) that may be acid/base labile, releasing an aldehyde.

> <s_lp_Force_Field>
OPLS_2005

> <r_lp_Energy>
44.1755

> <b_lp_Chiralities_Consistent>
1

> <s_lp_Variant>
AV-unprocessed.smi:48-14

> <Gold.Version>
5.8.1

> <Gold.Id.Protein>
6NUR|6NUR_protein|mol2

> <Gold.PLP.Fitness>
39.3187

> <Gold.PLP.PLP>
-25.6158

> <Gold.PLP.part.hbond>
-5.7871

> <Gold.PLP.part.metal>
0.0000

> <Gold.PLP.part.buried>
0.7142

> <Gold.PLP.part.nonpolar>
-22.2190

> <Gold.PLP.part.repulsive>
1.7539

> <Gold.PLP.ligand.clash>
0.0000

> <Gold.PLP.ligand.torsion>
0.5808

> <Gold.PLP.Chemscore.Hbond>
4.9520

> <Gold.PLP.Chemscore.CHOScore>
0.0000

> <Gold.PLP.Chemscore.Metal>
0.0000

> <Gold.Chemscore.Hbonds>
donor molecule, donor type, donor heavy atom, donor atom, acceptor molecule, acceptor atom, score
      L1  H    17    29       P1  7957  0.99
      L1  H    19    30       P1 10171  1.00
      P1  H  7954  7966       L1    17  0.95
      P1  H  7989  7998       L1     8  0.99
      P1  H 10752 10764       L1    12  1.00

> <Gold.PLP.Chemscore.Internal.Correction>
0.0085

> <Gold.Rescore>
     Score         DG    S(hbond)    S(metal)    S(lipo)     H(rot)  DE(clash)    DE(int)     intcor
     10.02     -13.43       3.83        0.00      41.75       3.80       1.45       1.96       ----

> <Gold.Chemscore.Fitness>
10.0222

> <Gold.Chemscore.DG>
-13.4333

> <Gold.Chemscore.ZeroCoef>
-5.4800

> <Gold.Chemscore.Hbond>
3.8327

> <Gold.Chemscore.Metal>
0.0000

> <Gold.Chemscore.Lipo>
41.7473

> <Gold.Chemscore.Internal_Hbond>
0.0000

> <Gold.Chemscore.DEClash>
1.4526

> <Gold.Chemscore.DEInternal>
1.9585

> <Gold.Chemscore.Rot>
3.8017

> <Gold.Chemscore.Internal.Correction>
   9.000000E+99

> <Gold.Chemscore.Hbonds>
donor molecule, donor type, donor heavy atom, donor atom, acceptor molecule, acceptor atom, score
      L1  H    17    29       P1  7957  0.88
      L1  H    19    30       P1 10171  0.99
      P1  H  7954  7966       L1    17  0.20
      P1  H  7989  7998       L1     8  0.49
      P1  H 10752 10764       L1    12  0.29

> <Gold.Chemscore.Hbond.Weighted>
-12.8013

> <Gold.Chemscore.Metal.Weighted>
-0.0000

> <Gold.Chemscore.Lipo.Weighted>
-4.8844

> <Gold.Chemscore.Internal_Hbond.Weighted>
0.0000

> <Gold.Chemscore.DEClash.Weighted>
1.4526

> <Gold.Chemscore.DEInternal.Weighted>
1.9585

> <Gold.Chemscore.Rot.Weighted>
9.7324

> <Gold.Chemscore.Internal.Correction.Weighted>
   9.000000E+99

> <Gold.Protein.RotatedTorsions>
[ 6907 6896 6895 6894 ] final  -81.46 input  -60.11 | X-H torsion
[ 7974 7965 7964 7962 ] final  155.70 input  175.53 | X-H torsion
[ 8008 7997 7996 7995 ] final  132.64 input   59.86 | X-H torsion
[ 10167 10162 10161 10158 ] final -175.04 input  -65.29 | X-H torsion
[ 10718 10713 10712 10709 ] final  -67.90 input   66.30 | X-H torsion
[ 10763 10752 10751 10750 ] final  -53.00 input  -60.55 | X-H torsion
[ 11005 11000 10999 10996 ] final  -46.27 input  -57.11 | X-H torsion

> <Gold.Protein.ActiveResidues>
 VAL166  LYS551  ARG553  GLY616  TRP617  ASP618  TYR619  PRO620  LYS621  CYS622 
 ASP623  PHE694  ASN695  SER759  ASP760  ASP761  ALA762  ILE779  LEU786  VAL792 
 PHE793  MET794  SER795  GLU796  ALA797  LYS798  CYS799  TRP800  GLU811  SER814 

> <Gold.Protein.RotatedAtoms>
  150.6912  134.3814  159.5035 H   0  0  0  0  0  0  0  0  0  0  0  0  # atno 6907 bound_to 6896
  152.1616  134.8905  160.0550 H   0  0  0  0  0  0  0  0  0  0  0  0  # atno 6908 bound_to 6896
  151.9964  133.3775  159.4201 H   0  0  0  0  0  0  0  0  0  0  0  0  # atno 6909 bound_to 6896
  144.8008  139.7104  143.6182 H   0  0  0  0  0  0  0  0  0  0  0  0  # atno 7974 bound_to 7965
  156.2984  140.2541  156.3122 H   0  0  0  0  0  0  0  0  0  0  0  0  # atno 8008 bound_to 7997
  154.9316  140.0398  157.2069 H   0  0  0  0  0  0  0  0  0  0  0  0  # atno 8009 bound_to 7997
  154.8213  140.2860  155.5789 H   0  0  0  0  0  0  0  0  0  0  0  0  # atno 8010 bound_to 7997
  139.5602  144.1890  152.1225 H   0  0  0  0  0  0  0  0  0  0  0  0  # atno 10167 bound_to 10162
  156.0533  130.4285  150.1922 H   0  0  0  0  0  0  0  0  0  0  0  0  # atno 10718 bound_to 10713
  154.1518  135.6489  153.4965 H   0  0  0  0  0  0  0  0  0  0  0  0  # atno 10763 bound_to 10752
  153.0135  135.5340  154.6800 H   0  0  0  0  0  0  0  0  0  0  0  0  # atno 10764 bound_to 10752
  154.6090  135.2952  155.0424 H   0  0  0  0  0  0  0  0  0  0  0  0  # atno 10765 bound_to 10752
  141.0568  133.6723  156.3131 H   0  0  0  0  0  0  0  0  0  0  0  0  # atno 11005 bound_to 11000
  146.2289  139.5775  142.9568 LP  0  0  0  0  0  0  0  0  0  0  0  0  # atno 17320 bound_to 7965
  145.5558  141.0409  143.2253 LP  0  0  0  0  0  0  0  0  0  0  0  0  # atno 17321 bound_to 7965
  140.1401  144.5209  150.6749 LP  0  0  0  0  0  0  0  0  0  0  0  0  # atno 17342 bound_to 10162
  140.6880  143.2360  151.5207 LP  0  0  0  0  0  0  0  0  0  0  0  0  # atno 17343 bound_to 10162
  157.0002  130.9920  151.3392 LP  0  0  0  0  0  0  0  0  0  0  0  0  # atno 17370 bound_to 10713
  157.5480  130.8163  149.8109 LP  0  0  0  0  0  0  0  0  0  0  0  0  # atno 17371 bound_to 10713
  140.5948  134.5614  157.5506 LP  0  0  0  0  0  0  0  0  0  0  0  0  # atno 17394 bound_to 11000
  139.9397  134.7809  156.0710 LP  0  0  0  0  0  0  0  0  0  0  0  0  # atno 17395 bound_to 11000

$$$$
