AV-unprocessed.smi:99|AV-procd|sdf|883|dock5
  -GOLD-   2262017363D 1   1.00000     0.00000
 Structure written by MMmdl.
 52 55  0  0  0  0  0  0  0  0  2 V2000
  148.0332  132.1787  153.5780 O   0  0  0  0  0  0  0  0  0  0  0  0
  147.1856  133.0475  153.3616 C   0  0  0  0  0  0  0  0  0  0  0  0
  147.1521  134.2392  153.9974 O   0  0  0  0  0  0  0  0  0  0  0  0
  148.0730  134.5531  155.0371 C   0  0  0  0  0  0  0  0  0  0  0  0
  147.6721  135.8423  155.7750 C   0  0  2  0  0  0  0  0  0  0  0  0
  148.0210  136.9879  155.0014 O   0  0  0  0  0  0  0  0  0  0  0  0
  148.5434  138.0034  155.8123 C   0  0  2  0  0  0  0  0  0  0  0  0
  150.0048  138.1943  155.4251 N   0  0  0  0  0  0  0  0  0  0  0  0
  150.6024  137.5150  154.3712 C   0  0  0  0  0  0  0  0  0  0  0  0
  151.8753  137.7609  154.0002 C   0  0  0  0  0  0  0  0  0  0  0  0
  152.6455  138.7769  154.7076 C   0  0  0  0  0  0  0  0  0  0  0  0
  153.8078  138.9884  154.3672 O   0  0  0  0  0  0  0  0  0  0  0  0
  152.0326  139.4553  155.7183 N   0  5  0  0  0  0  0  0  0  0  0  0
  150.7418  139.2143  156.0915 C   0  0  0  0  0  0  0  0  0  0  0  0
  150.1794  139.8446  156.9874 O   0  0  0  0  0  0  0  0  0  0  0  0
  148.3139  137.5807  157.2747 C   0  0  1  0  0  0  0  0  0  0  0  0
  147.0662  138.0724  157.7281 O   0  0  0  0  0  0  0  0  0  0  0  0
  148.3202  136.0633  157.1395 C   0  0  1  0  0  0  0  0  0  0  0  0
  147.6742  135.3844  158.2092 O   0  0  0  0  0  0  0  0  0  0  0  0
  148.0725  135.5798  159.4845 C   0  0  0  0  0  0  0  0  0  0  0  0
  149.0670  136.2378  159.7976 O   0  0  0  0  0  0  0  0  0  0  0  0
  147.1845  134.9110  160.4784 C   0  0  0  0  0  0  0  0  0  0  0  0
  147.4750  135.0302  161.8578 C   0  0  0  0  0  0  0  0  0  0  0  0
  146.6586  134.4040  162.8196 C   0  0  0  0  0  0  0  0  0  0  0  0
  145.5414  133.6514  162.4138 C   0  0  0  0  0  0  0  0  0  0  0  0
  145.2409  133.5261  161.0450 C   0  0  0  0  0  0  0  0  0  0  0  0
  146.0563  134.1514  160.0815 C   0  0  0  0  0  0  0  0  0  0  0  0
  146.1058  132.9055  152.3439 C   0  0  0  0  0  0  0  0  0  0  0  0
  145.4860  134.0661  151.8257 C   0  0  0  0  0  0  0  0  0  0  0  0
  144.4503  133.9630  150.8768 C   0  0  0  0  0  0  0  0  0  0  0  0
  144.0223  132.6977  150.4343 C   0  0  0  0  0  0  0  0  0  0  0  0
  144.6335  131.5358  150.9397 C   0  0  0  0  0  0  0  0  0  0  0  0
  145.6696  131.6368  151.8884 C   0  0  0  0  0  0  0  0  0  0  0  0
  148.0717  133.7229  155.7436 H   0  0  0  0  0  0  0  0  0  0  0  0
  149.0945  134.6313  154.6625 H   0  0  0  0  0  0  0  0  0  0  0  0
  146.5879  135.8625  155.8944 H   0  0  0  0  0  0  0  0  0  0  0  0
  148.0745  138.9654  155.5973 H   0  0  0  0  0  0  0  0  0  0  0  0
  150.0690  136.7665  153.8101 H   0  0  0  0  0  0  0  0  0  0  0  0
  152.3175  137.2214  153.1756 H   0  0  0  0  0  0  0  0  0  0  0  0
  149.0795  137.9710  157.9444 H   0  0  0  0  0  0  0  0  0  0  0  0
  147.1040  139.0166  157.7403 H   0  0  0  0  0  0  0  0  0  0  0  0
  149.3527  135.7296  157.0777 H   0  0  0  0  0  0  0  0  0  0  0  0
  148.3285  135.6015  162.1937 H   0  0  0  0  0  0  0  0  0  0  0  0
  146.8911  134.5009  163.8699 H   0  0  0  0  0  0  0  0  0  0  0  0
  144.9160  133.1707  163.1517 H   0  0  0  0  0  0  0  0  0  0  0  0
  144.3836  132.9483  160.7323 H   0  0  0  0  0  0  0  0  0  0  0  0
  145.7981  134.0339  159.0392 H   0  0  0  0  0  0  0  0  0  0  0  0
  145.7931  135.0481  152.1557 H   0  0  0  0  0  0  0  0  0  0  0  0
  143.9819  134.8564  150.4910 H   0  0  0  0  0  0  0  0  0  0  0  0
  143.2249  132.6180  149.7102 H   0  0  0  0  0  0  0  0  0  0  0  0
  144.3023  130.5634  150.6063 H   0  0  0  0  0  0  0  0  0  0  0  0
  146.1089  130.7240  152.2633 H   0  0  0  0  0  0  0  0  0  0  0  0
  1  2  2  0  0  0  0
  2  3  1  0  0  0  0
  2 28  1  0  0  0  0
  3  4  1  0  0  0  0
  4  5  1  0  0  0  0
  4 34  1  0  0  0  0
  4 35  1  0  0  0  0
  5 18  1  0  0  0  0
  5  6  1  0  0  0  0
  5 36  1  0  0  0  0
  6  7  1  0  0  0  0
  7  8  1  0  0  0  0
  7 16  1  0  0  0  0
  7 37  1  0  0  0  0
  8 14  1  0  0  0  0
  8  9  1  0  0  0  0
  9 10  2  0  0  0  0
  9 38  1  0  0  0  0
 10 11  1  0  0  0  0
 10 39  1  0  0  0  0
 11 12  2  0  0  0  0
 11 13  1  0  0  0  0
 13 14  1  0  0  0  0
 14 15  2  0  0  0  0
 16 17  1  0  0  0  0
 16 18  1  0  0  0  0
 16 40  1  0  0  0  0
 17 41  1  0  0  0  0
 18 19  1  0  0  0  0
 18 42  1  0  0  0  0
 19 20  1  0  0  0  0
 20 21  2  0  0  0  0
 20 22  1  0  0  0  0
 22 27  1  0  0  0  0
 22 23  2  0  0  0  0
 23 24  1  0  0  0  0
 23 43  1  0  0  0  0
 24 25  2  0  0  0  0
 24 44  1  0  0  0  0
 25 26  1  0  0  0  0
 25 45  1  0  0  0  0
 26 27  2  0  0  0  0
 26 46  1  0  0  0  0
 27 47  1  0  0  0  0
 28 33  1  0  0  0  0
 28 29  2  0  0  0  0
 29 30  1  0  0  0  0
 29 48  1  0  0  0  0
 30 31  2  0  0  0  0
 30 49  1  0  0  0  0
 31 32  1  0  0  0  0
 31 50  1  0  0  0  0
 32 33  2  0  0  0  0
 32 51  1  0  0  0  0
 33 52  1  0  0  0  0
M  CHG  1  13  -1
M  END
> <s_m_source_file>
AV-unprocessed.smi

> <i_m_source_file_index>
99

> <i_lp_mmshare_version>
43012

> <i_f3d_flags>
0

> <s_epik_input>
W2NIXTFbY0hdW2NIXVtjSF1bY0hdYzFDKD1PKU9bQ0gyXVtDQEBIXTJPW0NAQEhdKG4zW2NIXVtjSF1jKD1PKVtuSF1jMz1PKVtDQEBIXShbT0hdKVtDQEhdMk9DKD1PKWM0W2NIXVtjSF1bY0hdW2NIXVtjSF00

> <s_epik_cmdline>
J2VwaWtfcHl0aG9uJywgJy1waCcsICc3LjAnLCAnLXRuJywgJzgnLCAnLW1hJywgJzIwMCcsICctbWV0YWxfYmluZGluZycsICctaW1hZScsICc8aW5maWxlLm1hZT4nLCAnLW9tYWUnLCAnPG91dGZpbGUubWFlPic=

> <r_lp_tautomer_probability>
1

> <r_epik_Ionization_Penalty>
2.89159

> <r_epik_Ionization_Penalty_Charging>
2.1077e-08

> <r_epik_Ionization_Penalty_Neutral>
2.89159

> <r_epik_State_Penalty>
2.88671

> <r_epik_Charging_Adjusted_Penalty>
2.88671

> <i_epik_Tot_Q>
-1

> <i_epik_Tot_abs_Q>
1

> <r_epik_Metal_State_Penalty>
0.0727308

> <b_epik_Metal_Only>
1

> <s_epik_Chemistry_Notes>
This compound has an ester and may undergo hydrolysis at high or low pH. This compound contains an acetal/aminal-like group ( X-CH(R)-Y where X, Y are N, S, or O) that may be acid/base labile, releasing an aldehyde.

> <s_lp_Force_Field>
OPLS_2005

> <r_lp_Energy>
45.2738

> <b_lp_Chiralities_Consistent>
1

> <s_lp_Variant>
AV-unprocessed.smi:99-19

> <Gold.Version>
5.8.1

> <Gold.Id.Protein>
6NUR|6NUR_protein|mol2

> <Gold.PLP.Fitness>
53.1803

> <Gold.PLP.PLP>
-44.6584

> <Gold.PLP.part.hbond>
-2.2049

> <Gold.PLP.part.metal>
0.0000

> <Gold.PLP.part.buried>
-8.4875

> <Gold.PLP.part.nonpolar>
-35.3617

> <Gold.PLP.part.repulsive>
1.4548

> <Gold.PLP.ligand.clash>
0.0000

> <Gold.PLP.ligand.torsion>
0.4657

> <Gold.PLP.Chemscore.Hbond>
2.0000

> <Gold.PLP.Chemscore.CHOScore>
1.0723

> <Gold.PLP.Chemscore.Metal>
0.0000

> <Gold.Chemscore.Hbonds>
donor molecule, donor type, donor heavy atom, donor atom, acceptor molecule, acceptor atom, score
      P1  H  6896  6908       L1    21  0.37
      P1  H  7997  8009       L1    12  1.00
      L1  C     9    38       P1  7948  1.00
      L1  C     9    38       P1  7949  0.03

> <Gold.PLP.Chemscore.Internal.Correction>
0.2366

> <Gold.Rescore>
     Score         DG    S(hbond)    S(metal)    S(lipo)     H(rot)  DE(clash)    DE(int)     intcor
     14.79     -15.68       1.94        0.00     100.25       3.13       0.02       0.87       ----

> <Gold.Chemscore.Fitness>
14.7929

> <Gold.Chemscore.DG>
-15.6784

> <Gold.Chemscore.ZeroCoef>
-5.4800

> <Gold.Chemscore.Hbond>
1.9442

> <Gold.Chemscore.Metal>
0.0000

> <Gold.Chemscore.Lipo>
100.2520

> <Gold.Chemscore.Internal_Hbond>
0.0000

> <Gold.Chemscore.DEClash>
0.0158

> <Gold.Chemscore.DEInternal>
0.8698

> <Gold.Chemscore.Rot>
3.1346

> <Gold.Chemscore.Internal.Correction>
   9.000000E+99

> <Gold.Chemscore.Hbonds>
donor molecule, donor type, donor heavy atom, donor atom, acceptor molecule, acceptor atom, score
      P1  H  6896  6908       L1    21  0.11
      P1  H  7997  8009       L1    12  0.72

> <Gold.Chemscore.Hbond.Weighted>
-6.4935

> <Gold.Chemscore.Metal.Weighted>
-0.0000

> <Gold.Chemscore.Lipo.Weighted>
-11.7295

> <Gold.Chemscore.Internal_Hbond.Weighted>
0.0000

> <Gold.Chemscore.DEClash.Weighted>
0.0158

> <Gold.Chemscore.DEInternal.Weighted>
0.8698

> <Gold.Chemscore.Rot.Weighted>
8.0246

> <Gold.Chemscore.Internal.Correction.Weighted>
   9.000000E+99

> <Gold.Protein.RotatedTorsions>
[ 6907 6896 6895 6894 ] final  173.89 input  -60.11 | X-H torsion
[ 7974 7965 7964 7962 ] final  -73.91 input  175.53 | X-H torsion
[ 8008 7997 7996 7995 ] final -118.03 input   59.86 | X-H torsion
[ 10167 10162 10161 10158 ] final  107.42 input  -65.29 | X-H torsion
[ 10718 10713 10712 10709 ] final  115.69 input   66.30 | X-H torsion
[ 10763 10752 10751 10750 ] final  -95.80 input  -60.55 | X-H torsion
[ 11005 11000 10999 10996 ] final   68.24 input  -57.11 | X-H torsion

> <Gold.Protein.ActiveResidues>
 VAL166  LYS551  ARG553  GLY616  TRP617  ASP618  TYR619  PRO620  LYS621  CYS622 
 ASP623  PHE694  ASN695  SER759  ASP760  ASP761  ALA762  ILE779  LEU786  VAL792 
 PHE793  MET794  SER795  GLU796  ALA797  LYS798  CYS799  TRP800  GLU811  SER814 

> <Gold.Protein.RotatedAtoms>
  151.7611  133.3334  159.3417 H   0  0  0  0  0  0  0  0  0  0  0  0  # atno 6907 bound_to 6896
  150.7498  134.6105  159.6093 H   0  0  0  0  0  0  0  0  0  0  0  0  # atno 6908 bound_to 6896
  152.3405  134.7143  160.0316 H   0  0  0  0  0  0  0  0  0  0  0  0  # atno 6909 bound_to 6896
  145.6460  140.9297  143.1010 H   0  0  0  0  0  0  0  0  0  0  0  0  # atno 7974 bound_to 7965
  155.0932  140.0395  157.2675 H   0  0  0  0  0  0  0  0  0  0  0  0  # atno 8008 bound_to 7997
  154.6815  140.2634  155.6878 H   0  0  0  0  0  0  0  0  0  0  0  0  # atno 8009 bound_to 7997
  156.2696  140.2777  156.1361 H   0  0  0  0  0  0  0  0  0  0  0  0  # atno 8010 bound_to 7997
  139.6928  144.7105  151.1318 H   0  0  0  0  0  0  0  0  0  0  0  0  # atno 10167 bound_to 10162
  157.6206  131.1016  150.7366 H   0  0  0  0  0  0  0  0  0  0  0  0  # atno 10718 bound_to 10713
  154.7181  135.5107  153.8770 H   0  0  0  0  0  0  0  0  0  0  0  0  # atno 10763 bound_to 10752
  153.0838  135.6639  153.9999 H   0  0  0  0  0  0  0  0  0  0  0  0  # atno 10764 bound_to 10752
  153.9827  135.3027  155.3398 H   0  0  0  0  0  0  0  0  0  0  0  0  # atno 10765 bound_to 10752
  139.9723  134.6880  156.0422 H   0  0  0  0  0  0  0  0  0  0  0  0  # atno 11005 bound_to 11000
  144.7140  139.8266  143.7405 LP  0  0  0  0  0  0  0  0  0  0  0  0  # atno 17320 bound_to 7965
  146.1242  139.4265  143.0209 LP  0  0  0  0  0  0  0  0  0  0  0  0  # atno 17321 bound_to 7965
  140.7688  143.5534  150.9179 LP  0  0  0  0  0  0  0  0  0  0  0  0  # atno 17342 bound_to 10162
  139.9212  143.6603  152.3096 LP  0  0  0  0  0  0  0  0  0  0  0  0  # atno 17343 bound_to 10162
  156.7724  130.4833  149.5416 LP  0  0  0  0  0  0  0  0  0  0  0  0  # atno 17370 bound_to 10713
  156.1350  130.6205  151.0388 LP  0  0  0  0  0  0  0  0  0  0  0  0  # atno 17371 bound_to 10713
  141.1402  133.6566  156.3708 LP  0  0  0  0  0  0  0  0  0  0  0  0  # atno 17394 bound_to 11000
  140.5267  134.6252  157.5336 LP  0  0  0  0  0  0  0  0  0  0  0  0  # atno 17395 bound_to 11000

$$$$
