AV-unprocessed.smi:18|AV-procd|sdf|107|dock2
  -GOLD-   2262015263D 1   1.00000     0.00000
 Structure written by MMmdl.
 47 50  0  0  0  0  0  0  0  0  1 V2000
  149.9673  142.4944  156.5567 O   0  0  0  0  0  0  0  0  0  0  0  0
  151.2041  141.8502  156.3272 C   0  0  0  0  0  0  0  0  0  0  0  0
  151.1012  140.3328  156.5621 C   0  0  0  0  0  0  0  0  0  0  0  0
  150.6123  140.0297  157.9940 C   0  0  0  0  0  0  0  0  0  0  0  0
  150.1325  138.6691  158.1825 N   0  0  0  0  0  0  0  0  0  0  0  0
  150.8190  137.6288  158.7698 C   0  0  0  0  0  0  0  0  0  0  0  0
  150.1721  136.4968  158.8312 N   0  0  0  0  0  0  0  0  0  0  0  0
  148.9537  136.7742  158.2258 C   0  0  0  0  0  0  0  0  0  0  0  0
  147.7883  136.0072  157.9607 C   0  0  0  0  0  0  0  0  0  0  0  0
  147.7000  134.7000  158.3050 N   0  0  0  0  0  0  0  0  0  0  0  0
  147.3936  133.8969  157.1255 C   0  0  0  0  0  0  0  0  0  0  0  0
  147.4638  132.4018  157.4594 C   0  0  0  0  0  0  0  0  0  0  0  0
  146.5736  132.1307  158.5325 O   0  0  0  0  0  0  0  0  0  0  0  0
  146.9427  132.8309  159.7143 C   0  0  0  0  0  0  0  0  0  0  0  0
  146.8935  134.3605  159.4871 C   0  0  1  0  0  0  0  0  0  0  0  0
  147.3684  135.1170  160.7555 C   0  0  0  0  0  0  0  0  0  0  0  0
  146.2311  135.7081  161.6028 C   0  0  0  0  0  0  0  0  0  0  0  0
  145.4862  134.7235  162.1042 F   0  0  0  0  0  0  0  0  0  0  0  0
  146.7222  136.4343  162.6065 F   0  0  0  0  0  0  0  0  0  0  0  0
  146.7607  136.6189  157.3133 N   0  0  0  0  0  0  0  0  0  0  0  0
  146.8610  137.9054  156.9654 C   0  0  0  0  0  0  0  0  0  0  0  0
  147.8793  138.7459  157.1611 N   0  0  0  0  0  0  0  0  0  0  0  0
  148.9146  138.1321  157.8026 C   0  0  0  0  0  0  0  0  0  0  0  0
  150.3956  139.5674  155.4332 C   0  0  0  0  0  0  0  0  0  0  0  0
  151.6512  139.1404  154.8645 O   0  0  0  0  0  0  0  0  0  0  0  0
  152.3164  139.5251  156.0860 C   0  0  0  0  0  0  0  0  0  0  0  0
  149.3263  141.8400  156.7891 H   0  0  0  0  0  0  0  0  0  0  0  0
  151.5478  142.0807  155.3189 H   0  0  0  0  0  0  0  0  0  0  0  0
  151.9383  142.2921  157.0016 H   0  0  0  0  0  0  0  0  0  0  0  0
  151.4120  140.2037  158.7151 H   0  0  0  0  0  0  0  0  0  0  0  0
  149.8129  140.7149  158.2783 H   0  0  0  0  0  0  0  0  0  0  0  0
  151.8187  137.7403  159.1639 H   0  0  0  0  0  0  0  0  0  0  0  0
  146.3956  134.1487  156.7633 H   0  0  0  0  0  0  0  0  0  0  0  0
  148.0941  134.1235  156.3202 H   0  0  0  0  0  0  0  0  0  0  0  0
  147.1698  131.8084  156.5936 H   0  0  0  0  0  0  0  0  0  0  0  0
  148.4803  132.1045  157.7226 H   0  0  0  0  0  0  0  0  0  0  0  0
  146.2480  132.5359  160.4995 H   0  0  0  0  0  0  0  0  0  0  0  0
  147.9368  132.5143  160.0348 H   0  0  0  0  0  0  0  0  0  0  0  0
  145.8590  134.6368  159.2779 H   0  0  0  0  0  0  0  0  0  0  0  0
  147.9665  134.4459  161.3733 H   0  0  0  0  0  0  0  0  0  0  0  0
  148.0306  135.9396  160.4869 H   0  0  0  0  0  0  0  0  0  0  0  0
  145.5612  136.3441  161.0253 H   0  0  0  0  0  0  0  0  0  0  0  0
  146.0027  138.3205  156.4580 H   0  0  0  0  0  0  0  0  0  0  0  0
  149.8031  138.7159  155.7700 H   0  0  0  0  0  0  0  0  0  0  0  0
  149.8189  140.2002  154.7577 H   0  0  0  0  0  0  0  0  0  0  0  0
  153.2097  140.1246  155.9075 H   0  0  0  0  0  0  0  0  0  0  0  0
  152.5461  138.6605  156.7109 H   0  0  0  0  0  0  0  0  0  0  0  0
  1  2  1  0  0  0  0
  1 27  1  0  0  0  0
  2  3  1  0  0  0  0
  2 28  1  0  0  0  0
  2 29  1  0  0  0  0
  3 26  1  0  0  0  0
  3  4  1  0  0  0  0
  3 24  1  0  0  0  0
  4  5  1  0  0  0  0
  4 30  1  0  0  0  0
  4 31  1  0  0  0  0
  5 23  1  0  0  0  0
  5  6  1  0  0  0  0
  6  7  2  0  0  0  0
  6 32  1  0  0  0  0
  7  8  1  0  0  0  0
  8 23  2  0  0  0  0
  8  9  1  0  0  0  0
  9 10  1  0  0  0  0
  9 20  2  0  0  0  0
 10 15  1  0  0  0  0
 10 11  1  0  0  0  0
 11 12  1  0  0  0  0
 11 33  1  0  0  0  0
 11 34  1  0  0  0  0
 12 13  1  0  0  0  0
 12 35  1  0  0  0  0
 12 36  1  0  0  0  0
 13 14  1  0  0  0  0
 14 15  1  0  0  0  0
 14 37  1  0  0  0  0
 14 38  1  0  0  0  0
 15 16  1  0  0  0  0
 15 39  1  0  0  0  0
 16 17  1  0  0  0  0
 16 40  1  0  0  0  0
 16 41  1  0  0  0  0
 17 18  1  0  0  0  0
 17 19  1  0  0  0  0
 17 42  1  0  0  0  0
 20 21  1  0  0  0  0
 21 22  2  0  0  0  0
 21 43  1  0  0  0  0
 22 23  1  0  0  0  0
 24 25  1  0  0  0  0
 24 44  1  0  0  0  0
 24 45  1  0  0  0  0
 25 26  1  0  0  0  0
 26 46  1  0  0  0  0
 26 47  1  0  0  0  0
M  END
> <s_m_source_file>
AV-unprocessed.smi

> <i_m_source_file_index>
18

> <i_lp_mmshare_version>
43012

> <i_f3d_flags>
0

> <s_epik_input>
W0NIMl0xT1tDSDJdQzEoW0NIMl1bT0hdKVtDSDJdbihbY0hdbjIpYyhjMjMpbltjSF1uYzNONFtDSDJdW0NIMl1PW0NIMl1bQ0BIXTRbQ0gyXVtDSF0oRilG

> <s_epik_cmdline>
J2VwaWtfcHl0aG9uJywgJy1waCcsICc3LjAnLCAnLXRuJywgJzgnLCAnLW1hJywgJzIwMCcsICctbWV0YWxfYmluZGluZycsICctaW1hZScsICc8aW5maWxlLm1hZT4nLCAnLW9tYWUnLCAnPG91dGZpbGUubWFlPic=

> <r_lp_tautomer_probability>
1

> <r_epik_Ionization_Penalty>
6.63711e-05

> <r_epik_Ionization_Penalty_Charging>
0

> <r_epik_Ionization_Penalty_Neutral>
6.63711e-05

> <r_epik_State_Penalty>
-0

> <r_epik_Charging_Adjusted_Penalty>
0

> <i_epik_Tot_Q>
0

> <i_epik_Tot_abs_Q>
0

> <r_epik_Metal_State_Penalty>
-0

> <b_epik_Metal_Only>
0

> <s_lp_Force_Field>
OPLS_2005

> <r_lp_Energy>
38.6486

> <b_lp_Chiralities_Consistent>
1

> <s_lp_Variant>
AV-unprocessed.smi:18-1

> <Gold.Version>
5.8.1

> <Gold.Id.Protein>
6NUR|6NUR_protein|mol2

> <Gold.PLP.Fitness>
39.9334

> <Gold.PLP.PLP>
-36.2991

> <Gold.PLP.part.hbond>
-2.7999

> <Gold.PLP.part.metal>
0.0000

> <Gold.PLP.part.buried>
-6.4374

> <Gold.PLP.part.nonpolar>
-26.5967

> <Gold.PLP.part.repulsive>
0.0749

> <Gold.PLP.ligand.clash>
0.0000

> <Gold.PLP.ligand.torsion>
1.4569

> <Gold.PLP.Chemscore.Hbond>
2.0000

> <Gold.PLP.Chemscore.CHOScore>
0.0000

> <Gold.PLP.Chemscore.Metal>
0.0000

> <Gold.Chemscore.Hbonds>
donor molecule, donor type, donor heavy atom, donor atom, acceptor molecule, acceptor atom, score
      P1  H  6896  6908       L1     7  1.00
      P1  H  7989  7998       L1    25  0.33

> <Gold.PLP.Chemscore.Internal.Correction>
0.5480

> <Gold.Rescore>
     Score         DG    S(hbond)    S(metal)    S(lipo)     H(rot)  DE(clash)    DE(int)     intcor
      9.64     -11.00       1.85        0.00      59.20       2.96       0.02       1.33       ----

> <Gold.Chemscore.Fitness>
9.6418

> <Gold.Chemscore.DG>
-10.9961

> <Gold.Chemscore.ZeroCoef>
-5.4800

> <Gold.Chemscore.Hbond>
1.8497

> <Gold.Chemscore.Metal>
0.0000

> <Gold.Chemscore.Lipo>
59.2020

> <Gold.Chemscore.Internal_Hbond>
0.0000

> <Gold.Chemscore.DEClash>
0.0202

> <Gold.Chemscore.DEInternal>
1.3340

> <Gold.Chemscore.Rot>
2.9643

> <Gold.Chemscore.Internal.Correction>
   9.000000E+99

> <Gold.Chemscore.Hbonds>
donor molecule, donor type, donor heavy atom, donor atom, acceptor molecule, acceptor atom, score
      P1  H  6896  6908       L1     7  0.97
      P1  H  7989  7998       L1    25  0.01

> <Gold.Chemscore.Hbond.Weighted>
-6.1781

> <Gold.Chemscore.Metal.Weighted>
-0.0000

> <Gold.Chemscore.Lipo.Weighted>
-6.9266

> <Gold.Chemscore.Internal_Hbond.Weighted>
0.0000

> <Gold.Chemscore.DEClash.Weighted>
0.0202

> <Gold.Chemscore.DEInternal.Weighted>
1.3340

> <Gold.Chemscore.Rot.Weighted>
7.5886

> <Gold.Chemscore.Internal.Correction.Weighted>
   9.000000E+99

> <Gold.Protein.RotatedTorsions>
[ 6907 6896 6895 6894 ] final -165.37 input  -60.11 | X-H torsion
[ 7974 7965 7964 7962 ] final  119.02 input  175.53 | X-H torsion
[ 8008 7997 7996 7995 ] final -126.25 input   59.86 | X-H torsion
[ 10167 10162 10161 10158 ] final  103.60 input  -65.29 | X-H torsion
[ 10718 10713 10712 10709 ] final   55.22 input   66.30 | X-H torsion
[ 10763 10752 10751 10750 ] final -147.77 input  -60.55 | X-H torsion
[ 11005 11000 10999 10996 ] final   51.94 input  -57.11 | X-H torsion

> <Gold.Protein.ActiveResidues>
 VAL166  LYS551  ARG553  GLY616  TRP617  ASP618  TYR619  PRO620  LYS621  CYS622 
 ASP623  PHE694  ASN695  SER759  ASP760  ASP761  ALA762  ILE779  LEU786  VAL792 
 PHE793  MET794  SER795  GLU796  ALA797  LYS798  CYS799  TRP800  GLU811  SER814 

> <Gold.Protein.RotatedAtoms>
  151.4266  133.3682  159.2762 H   0  0  0  0  0  0  0  0  0  0  0  0  # atno 6907 bound_to 6896
  150.9255  134.8673  159.7527 H   0  0  0  0  0  0  0  0  0  0  0  0  # atno 6908 bound_to 6896
  152.5003  134.4207  159.9532 H   0  0  0  0  0  0  0  0  0  0  0  0  # atno 6909 bound_to 6896
  145.1482  139.3226  143.4580 H   0  0  0  0  0  0  0  0  0  0  0  0  # atno 7974 bound_to 7965
  155.2266  140.0424  157.2956 H   0  0  0  0  0  0  0  0  0  0  0  0  # atno 8008 bound_to 7997
  154.5915  140.2428  155.7884 H   0  0  0  0  0  0  0  0  0  0  0  0  # atno 8009 bound_to 7997
  156.2262  140.2953  156.0082 H   0  0  0  0  0  0  0  0  0  0  0  0  # atno 8010 bound_to 7997
  139.7249  144.7050  151.0814 H   0  0  0  0  0  0  0  0  0  0  0  0  # atno 10167 bound_to 10162
  157.5326  130.8641  149.8708 H   0  0  0  0  0  0  0  0  0  0  0  0  # atno 10718 bound_to 10713
  154.8268  135.3351  154.6870 H   0  0  0  0  0  0  0  0  0  0  0  0  # atno 10763 bound_to 10752
  153.7495  135.6940  153.4953 H   0  0  0  0  0  0  0  0  0  0  0  0  # atno 10764 bound_to 10752
  153.2186  135.4457  155.0414 H   0  0  0  0  0  0  0  0  0  0  0  0  # atno 10765 bound_to 10752
  140.0891  134.5234  155.8870 H   0  0  0  0  0  0  0  0  0  0  0  0  # atno 11005 bound_to 11000
  146.3497  140.1546  142.8592 LP  0  0  0  0  0  0  0  0  0  0  0  0  # atno 17320 bound_to 7965
  145.0459  140.8981  143.5024 LP  0  0  0  0  0  0  0  0  0  0  0  0  # atno 17321 bound_to 7965
  140.7761  143.5118  150.9643 LP  0  0  0  0  0  0  0  0  0  0  0  0  # atno 17342 bound_to 10162
  139.8806  143.7077  152.3157 LP  0  0  0  0  0  0  0  0  0  0  0  0  # atno 17343 bound_to 10162
  156.0434  130.3733  150.1378 LP  0  0  0  0  0  0  0  0  0  0  0  0  # atno 17370 bound_to 10713
  156.9562  130.9790  151.3488 LP  0  0  0  0  0  0  0  0  0  0  0  0  # atno 17371 bound_to 10713
  141.2072  133.6662  156.6290 LP  0  0  0  0  0  0  0  0  0  0  0  0  # atno 17394 bound_to 11000
  140.3378  134.7874  157.4375 LP  0  0  0  0  0  0  0  0  0  0  0  0  # atno 17395 bound_to 11000

$$$$
