AV-unprocessed.smi:1740|AV-procd|sdf|7011|dock3
  -GOLD-   22720 8223D 1   1.00000     0.00000
 Structure written by MMmdl.
 53 55  0  0  0  0  0  0  0  0  3 V2000
  144.4864  134.0653  149.6953 N   0  0  0  0  0  0  0  0  0  0  0  0
  144.3208  134.5698  150.9196 C   0  0  0  0  0  0  0  0  0  0  0  0
  144.6461  135.7215  151.2028 O   0  0  0  0  0  0  0  0  0  0  0  0
  143.6842  133.6493  151.9665 C   0  0  0  0  0  0  0  0  0  0  0  0
  143.7150  134.2219  153.3370 N   0  3  2  0  0  0  0  0  0  0  0  0
  142.8496  135.4217  153.4894 C   0  0  0  0  0  0  0  0  0  0  0  0
  142.7884  135.8772  154.9583 C   0  0  0  0  0  0  0  0  0  0  0  0
  144.1871  136.1296  155.5484 C   0  0  2  0  0  0  0  0  0  0  0  0
  144.7656  137.3600  155.0080 N   0  0  0  0  0  0  0  0  0  0  0  0
  145.9913  137.8221  155.2956 C   0  0  0  0  0  0  0  0  0  0  0  0
  146.7795  137.2441  156.0437 O   0  0  0  0  0  0  0  0  0  0  0  0
  146.2520  138.9708  154.6498 N   0  0  0  0  0  0  0  0  0  0  0  0
  147.4522  139.7333  154.7105 C   0  0  0  0  0  0  0  0  0  0  0  0
  148.7121  139.0883  154.8046 C   0  0  0  0  0  0  0  0  0  0  0  0
  149.8855  139.8535  154.9385 C   0  0  0  0  0  0  0  0  0  0  0  0
  149.7805  141.2537  154.9932 C   0  0  0  0  0  0  0  0  0  0  0  0
  148.5668  141.8371  154.9122 N   0  3  0  0  0  0  0  0  0  0  0  0
  147.4021  141.1565  154.7666 C   0  0  0  0  0  0  0  0  0  0  0  0
  146.2065  141.9059  154.6767 N   0  0  0  0  0  0  0  0  0  0  0  0
  145.6037  142.4788  155.8755 C   0  0  0  0  0  0  0  0  0  0  0  0
  144.5958  143.5041  155.3632 C   0  0  0  0  0  0  0  0  0  0  0  0
  145.2841  144.0444  154.1137 C   0  0  0  0  0  0  0  0  0  0  0  0
  146.0318  142.8281  153.5585 C   0  0  0  0  0  0  0  0  0  0  0  0
  145.0973  134.9118  155.2929 C   0  0  0  0  0  0  0  0  0  0  0  0
  145.0959  134.4857  153.8141 C   0  0  0  0  0  0  0  0  0  0  0  0
  144.8971  134.6373  148.9709 H   0  0  0  0  0  0  0  0  0  0  0  0
  144.1988  133.1193  149.4899 H   0  0  0  0  0  0  0  0  0  0  0  0
  142.6502  133.4949  151.6554 H   0  0  0  0  0  0  0  0  0  0  0  0
  144.1640  132.6692  151.9584 H   0  0  0  0  0  0  0  0  0  0  0  0
  143.2268  136.2277  152.8582 H   0  0  0  0  0  0  0  0  0  0  0  0
  141.8389  135.2024  153.1446 H   0  0  0  0  0  0  0  0  0  0  0  0
  142.1704  136.7713  155.0498 H   0  0  0  0  0  0  0  0  0  0  0  0
  142.2891  135.1049  155.5451 H   0  0  0  0  0  0  0  0  0  0  0  0
  144.0715  136.2575  156.6264 H   0  0  0  0  0  0  0  0  0  0  0  0
  144.1852  137.9042  154.3864 H   0  0  0  0  0  0  0  0  0  0  0  0
  145.5661  139.2796  153.9763 H   0  0  0  0  0  0  0  0  0  0  0  0
  148.7916  138.0112  154.7972 H   0  0  0  0  0  0  0  0  0  0  0  0
  150.8497  139.3716  155.0110 H   0  0  0  0  0  0  0  0  0  0  0  0
  150.6233  141.9210  155.1019 H   0  0  0  0  0  0  0  0  0  0  0  0
  145.1260  141.7127  156.4872 H   0  0  0  0  0  0  0  0  0  0  0  0
  146.3589  142.9823  156.4805 H   0  0  0  0  0  0  0  0  0  0  0  0
  143.6631  143.0083  155.0899 H   0  0  0  0  0  0  0  0  0  0  0  0
  144.3678  144.2789  156.0957 H   0  0  0  0  0  0  0  0  0  0  0  0
  144.5875  144.4788  153.3961 H   0  0  0  0  0  0  0  0  0  0  0  0
  146.0000  144.8174  154.3969 H   0  0  0  0  0  0  0  0  0  0  0  0
  146.9825  143.1197  153.1097 H   0  0  0  0  0  0  0  0  0  0  0  0
  145.4297  142.3376  152.7932 H   0  0  0  0  0  0  0  0  0  0  0  0
  146.1163  135.1170  155.6231 H   0  0  0  0  0  0  0  0  0  0  0  0
  144.7492  134.0755  155.9005 H   0  0  0  0  0  0  0  0  0  0  0  0
  145.7024  133.5858  153.7045 H   0  0  0  0  0  0  0  0  0  0  0  0
  145.5576  135.2555  153.1936 H   0  0  0  0  0  0  0  0  0  0  0  0
  143.3372  133.5072  153.9433 H   0  0  0  0  0  0  0  0  0  0  0  0
  148.5246  142.8554  154.9543 H   0  0  0  0  0  0  0  0  0  0  0  0
  1  2  1  0  0  0  0
  1 26  1  0  0  0  0
  1 27  1  0  0  0  0
  2  3  2  0  0  0  0
  2  4  1  0  0  0  0
  4  5  1  0  0  0  0
  4 28  1  0  0  0  0
  4 29  1  0  0  0  0
  5 25  1  0  0  0  0
  5  6  1  0  0  0  0
  5 52  1  0  0  0  0
  6  7  1  0  0  0  0
  6 30  1  0  0  0  0
  6 31  1  0  0  0  0
  7  8  1  0  0  0  0
  7 32  1  0  0  0  0
  7 33  1  0  0  0  0
  8  9  1  0  0  0  0
  8 24  1  0  0  0  0
  8 34  1  0  0  0  0
  9 10  1  0  0  0  0
  9 35  1  0  0  0  0
 10 11  2  0  0  0  0
 10 12  1  0  0  0  0
 12 13  1  0  0  0  0
 12 36  1  0  0  0  0
 13 18  1  0  0  0  0
 13 14  2  0  0  0  0
 14 15  1  0  0  0  0
 14 37  1  0  0  0  0
 15 16  2  0  0  0  0
 15 38  1  0  0  0  0
 16 17  1  0  0  0  0
 16 39  1  0  0  0  0
 17 18  2  0  0  0  0
 17 53  1  0  0  0  0
 18 19  1  0  0  0  0
 19 23  1  0  0  0  0
 19 20  1  0  0  0  0
 20 21  1  0  0  0  0
 20 40  1  0  0  0  0
 20 41  1  0  0  0  0
 21 22  1  0  0  0  0
 21 42  1  0  0  0  0
 21 43  1  0  0  0  0
 22 23  1  0  0  0  0
 22 44  1  0  0  0  0
 22 45  1  0  0  0  0
 23 46  1  0  0  0  0
 23 47  1  0  0  0  0
 24 25  1  0  0  0  0
 24 48  1  0  0  0  0
 24 49  1  0  0  0  0
 25 50  1  0  0  0  0
 25 51  1  0  0  0  0
M  CHG  1   5   1
M  CHG  1  17   1
M  END
> <s_m_source_file>
AV-unprocessed.smi

> <i_m_source_file_index>
1740

> <i_lp_mmshare_version>
43012

> <i_f3d_flags>
0

> <s_epik_input>
W05IMl1DKD1PKVtDSDJdTjFbQ0gyXVtDSDJdW0NIXShbQ0gyXVtDSDJdMSlbTkhdQyg9TylbTkhdYzJbY0hdW2NIXVtjSF1uYzJOM1tDSDJdW0NIMl1bQ0gyXVtDSDJdMw==

> <s_epik_cmdline>
J2VwaWtfcHl0aG9uJywgJy1waCcsICc3LjAnLCAnLXRuJywgJzgnLCAnLW1hJywgJzIwMCcsICctbWV0YWxfYmluZGluZycsICctaW1hZScsICc8aW5maWxlLm1hZT4nLCAnLW9tYWUnLCAnPG91dGZpbGUubWFlPic=

> <r_lp_tautomer_probability>
0.999994

> <r_epik_Ionization_Penalty>
2.11361

> <r_epik_Ionization_Penalty_Charging>
2.11355

> <r_epik_Ionization_Penalty_Neutral>
5.98217e-05

> <r_epik_State_Penalty>
2.13444

> <r_epik_Charging_Adjusted_Penalty>
4.24799

> <i_epik_Tot_Q>
2

> <i_epik_Tot_abs_Q>
2

> <r_epik_Metal_State_Penalty>
2.23528

> <b_epik_Metal_Only>
0

> <s_lp_Force_Field>
OPLS_2005

> <r_lp_Energy>
48.4513

> <b_lp_Chiralities_Consistent>
1

> <s_lp_Variant>
AV-unprocessed.smi:1740-6

> <Gold.Version>
5.8.1

> <Gold.Id.Protein>
6NUR|6NUR_protein|mol2

> <Gold.PLP.Fitness>
42.9834

> <Gold.PLP.PLP>
-28.8952

> <Gold.PLP.part.hbond>
-3.0000

> <Gold.PLP.part.metal>
0.0000

> <Gold.PLP.part.buried>
-7.9286

> <Gold.PLP.part.nonpolar>
-19.2594

> <Gold.PLP.part.repulsive>
0.6400

> <Gold.PLP.ligand.clash>
0.0000

> <Gold.PLP.ligand.torsion>
0.6316

> <Gold.PLP.Chemscore.Hbond>
4.9825

> <Gold.PLP.Chemscore.CHOScore>
0.0000

> <Gold.PLP.Chemscore.Metal>
0.0000

> <Gold.Chemscore.Hbonds>
donor molecule, donor type, donor heavy atom, donor atom, acceptor molecule, acceptor atom, score
      L1  H     1    26       P1  7921  0.98
      L1  H     5    52       P1 10957  1.92
      L1  H    17    53       P1  8028  2.00

> <Gold.PLP.Chemscore.Internal.Correction>
0.4039

> <Gold.Rescore>
     Score         DG    S(hbond)    S(metal)    S(lipo)     H(rot)  DE(clash)    DE(int)     intcor
     11.73     -16.13       2.92        0.00      56.32       2.22       0.02       4.38       ----

> <Gold.Chemscore.Fitness>
11.7276

> <Gold.Chemscore.DG>
-16.1260

> <Gold.Chemscore.ZeroCoef>
-5.4800

> <Gold.Chemscore.Hbond>
2.9168

> <Gold.Chemscore.Metal>
0.0000

> <Gold.Chemscore.Lipo>
56.3156

> <Gold.Chemscore.Internal_Hbond>
0.0000

> <Gold.Chemscore.DEClash>
0.0158

> <Gold.Chemscore.DEInternal>
4.3826

> <Gold.Chemscore.Rot>
2.2207

> <Gold.Chemscore.Internal.Correction>
   9.000000E+99

> <Gold.Chemscore.Hbonds>
donor molecule, donor type, donor heavy atom, donor atom, acceptor molecule, acceptor atom, score
      L1  H     1    26       P1  7921  0.93
      L1  H     5    52       P1 10957  0.91
      L1  H    17    53       P1  8028  0.95

> <Gold.Chemscore.Hbond.Weighted>
-9.7420

> <Gold.Chemscore.Metal.Weighted>
-0.0000

> <Gold.Chemscore.Lipo.Weighted>
-6.5889

> <Gold.Chemscore.Internal_Hbond.Weighted>
0.0000

> <Gold.Chemscore.DEClash.Weighted>
0.0158

> <Gold.Chemscore.DEInternal.Weighted>
4.3826

> <Gold.Chemscore.Rot.Weighted>
5.6849

> <Gold.Chemscore.Internal.Correction.Weighted>
   9.000000E+99

> <Gold.Protein.RotatedTorsions>
[ 6907 6896 6895 6894 ] final  155.70 input  -60.11 | X-H torsion
[ 7974 7965 7964 7962 ] final  147.36 input  175.53 | X-H torsion
[ 8008 7997 7996 7995 ] final -170.62 input   59.86 | X-H torsion
[ 10167 10162 10161 10158 ] final  -99.40 input  -65.29 | X-H torsion
[ 10718 10713 10712 10709 ] final   69.51 input   66.30 | X-H torsion
[ 10763 10752 10751 10750 ] final  148.19 input  -60.55 | X-H torsion
[ 11005 11000 10999 10996 ] final  -64.26 input  -57.11 | X-H torsion

> <Gold.Protein.ActiveResidues>
 VAL166  LYS551  ARG553  GLY616  TRP617  ASP618  TYR619  PRO620  LYS621  CYS622 
 ASP623  PHE694  ASN695  SER759  ASP760  ASP761  ALA762  ILE779  LEU786  VAL792 
 PHE793  MET794  SER795  GLU796  ALA797  LYS798  CYS799  TRP800  GLU811  SER814 

> <Gold.Protein.RotatedAtoms>
  152.0403  133.3974  159.4333 H   0  0  0  0  0  0  0  0  0  0  0  0  # atno 6907 bound_to 6896
  150.6876  134.3422  159.4882 H   0  0  0  0  0  0  0  0  0  0  0  0  # atno 6908 bound_to 6896
  152.1220  134.9198  160.0613 H   0  0  0  0  0  0  0  0  0  0  0  0  # atno 6909 bound_to 6896
  144.8598  139.6019  143.5936 H   0  0  0  0  0  0  0  0  0  0  0  0  # atno 7974 bound_to 7965
  155.9208  140.1074  157.1208 H   0  0  0  0  0  0  0  0  0  0  0  0  # atno 8008 bound_to 7997
  154.4054  140.1256  156.4742 H   0  0  0  0  0  0  0  0  0  0  0  0  # atno 8009 bound_to 7997
  155.7198  140.3470  155.5013 H   0  0  0  0  0  0  0  0  0  0  0  0  # atno 8010 bound_to 7997
  140.2628  143.3396  152.0609 H   0  0  0  0  0  0  0  0  0  0  0  0  # atno 10167 bound_to 10162
  157.6349  130.9429  150.0523 H   0  0  0  0  0  0  0  0  0  0  0  0  # atno 10718 bound_to 10713
  154.0507  135.2882  155.3341 H   0  0  0  0  0  0  0  0  0  0  0  0  # atno 10763 bound_to 10752
  154.6871  135.5241  153.8344 H   0  0  0  0  0  0  0  0  0  0  0  0  # atno 10764 bound_to 10752
  153.0562  135.6596  154.0704 H   0  0  0  0  0  0  0  0  0  0  0  0  # atno 10765 bound_to 10752
  141.1419  133.6663  156.5806 H   0  0  0  0  0  0  0  0  0  0  0  0  # atno 11005 bound_to 11000
  146.2851  139.6983  142.9201 LP  0  0  0  0  0  0  0  0  0  0  0  0  # atno 17320 bound_to 7965
  145.4335  141.0417  143.2897 LP  0  0  0  0  0  0  0  0  0  0  0  0  # atno 17321 bound_to 7965
  139.5011  144.6707  151.6249 LP  0  0  0  0  0  0  0  0  0  0  0  0  # atno 17342 bound_to 10162
  140.5952  143.9709  150.6350 LP  0  0  0  0  0  0  0  0  0  0  0  0  # atno 17343 bound_to 10162
  156.1581  130.3643  149.9339 LP  0  0  0  0  0  0  0  0  0  0  0  0  # atno 17370 bound_to 10713
  156.7344  130.9055  151.3628 LP  0  0  0  0  0  0  0  0  0  0  0  0  # atno 17371 bound_to 10713
  140.3840  134.7498  157.4679 LP  0  0  0  0  0  0  0  0  0  0  0  0  # atno 17394 bound_to 11000
  140.0616  134.5988  155.8743 LP  0  0  0  0  0  0  0  0  0  0  0  0  # atno 17395 bound_to 11000

$$$$
