AV-unprocessed.smi:3094|AV-procd|sdf|11790|dock8
  -GOLD-   2272017163D 1   1.00000     0.00000
 Structure written by MMmdl.
 29 30  0  0  0  0  0  0  0  0  1 V2000
  150.8437  140.4002  157.1672 C   0  0  0  0  0  0  0  0  0  0  0  0
  149.8890  141.4484  156.5757 C   0  0  2  0  0  0  0  0  0  0  0  0
  149.8485  141.3709  155.0377 C   0  0  0  0  0  0  0  0  0  0  0  0
  148.4941  141.2597  154.5278 N   0  0  0  0  0  0  0  0  0  0  0  0
  148.0294  140.3646  153.5732 C   0  0  0  0  0  0  0  0  0  0  0  0
  146.6872  140.6238  153.4117 C   0  0  0  0  0  0  0  0  0  0  0  0
  146.3076  141.6700  154.2493 N   0  0  0  0  0  0  0  0  0  0  0  0
  147.4302  141.9961  154.8768 C   0  0  0  0  0  0  0  0  0  0  0  0
  150.2951  142.7872  156.9999 N   0  0  0  0  0  0  0  0  0  0  0  0
  150.7001  143.1250  158.2337 C   0  0  0  0  0  0  0  0  0  0  0  0
  150.7957  142.3144  159.1562 O   0  0  0  0  0  0  0  0  0  0  0  0
  151.0226  144.5752  158.3868 C   0  0  0  0  0  0  0  0  0  0  0  0
  152.4743  144.9544  158.5971 C   0  0  0  0  0  0  0  0  0  0  0  0
  151.5001  145.0482  159.7447 C   0  0  0  0  0  0  0  0  0  0  0  0
  150.5477  139.3922  156.8757 H   0  0  0  0  0  0  0  0  0  0  0  0
  150.8451  140.4378  158.2571 H   0  0  0  0  0  0  0  0  0  0  0  0
  151.8676  140.5579  156.8265 H   0  0  0  0  0  0  0  0  0  0  0  0
  148.8847  141.2388  156.9490 H   0  0  0  0  0  0  0  0  0  0  0  0
  150.3241  142.2468  154.5933 H   0  0  0  0  0  0  0  0  0  0  0  0
  150.4081  140.5015  154.6909 H   0  0  0  0  0  0  0  0  0  0  0  0
  148.6735  139.6355  153.1038 H   0  0  0  0  0  0  0  0  0  0  0  0
  145.9717  140.1417  152.7620 H   0  0  0  0  0  0  0  0  0  0  0  0
  147.4787  142.7865  155.6115 H   0  0  0  0  0  0  0  0  0  0  0  0
  150.2481  143.5175  156.3045 H   0  0  0  0  0  0  0  0  0  0  0  0
  150.4128  145.2726  157.8141 H   0  0  0  0  0  0  0  0  0  0  0  0
  153.2193  144.1615  158.6368 H   0  0  0  0  0  0  0  0  0  0  0  0
  152.8134  145.8803  158.1373 H   0  0  0  0  0  0  0  0  0  0  0  0
  151.1786  146.0377  160.0631 H   0  0  0  0  0  0  0  0  0  0  0  0
  151.5988  144.3176  160.5458 H   0  0  0  0  0  0  0  0  0  0  0  0
  1  2  1  0  0  0  0
  1 15  1  0  0  0  0
  1 16  1  0  0  0  0
  1 17  1  0  0  0  0
  2  3  1  0  0  0  0
  2  9  1  0  0  0  0
  2 18  1  0  0  0  0
  3  4  1  0  0  0  0
  3 19  1  0  0  0  0
  3 20  1  0  0  0  0
  4  8  1  0  0  0  0
  4  5  1  0  0  0  0
  5  6  2  0  0  0  0
  5 21  1  0  0  0  0
  6  7  1  0  0  0  0
  6 22  1  0  0  0  0
  7  8  2  0  0  0  0
  8 23  1  0  0  0  0
  9 10  1  0  0  0  0
  9 24  1  0  0  0  0
 10 11  2  0  0  0  0
 10 12  1  0  0  0  0
 12 14  1  0  0  0  0
 12 13  1  0  0  0  0
 12 25  1  0  0  0  0
 13 14  1  0  0  0  0
 13 26  1  0  0  0  0
 13 27  1  0  0  0  0
 14 28  1  0  0  0  0
 14 29  1  0  0  0  0
M  END
> <s_m_source_file>
AV-unprocessed.smi

> <i_m_source_file_index>
3094

> <i_lp_mmshare_version>
43012

> <i_f3d_flags>
0

> <s_epik_input>
W0NIMl0xW0NIMl1bQ0hdMUMoPU8pW05IXVtDQEhdKFtDSDNdKVtDSDJdbjJbY0hdW2NIXW5bY0hdMg==

> <s_epik_cmdline>
J2VwaWtfcHl0aG9uJywgJy1waCcsICc3LjAnLCAnLXRuJywgJzgnLCAnLW1hJywgJzIwMCcsICctbWV0YWxfYmluZGluZycsICctaW1hZScsICc8aW5maWxlLm1hZT4nLCAnLW9tYWUnLCAnPG91dGZpbGUubWFlPic=

> <r_lp_tautomer_probability>
1

> <r_epik_Ionization_Penalty>
0.642614

> <r_epik_Ionization_Penalty_Charging>
0.642614

> <r_epik_Ionization_Penalty_Neutral>
4.09963e-08

> <r_epik_State_Penalty>
0.660429

> <r_epik_Charging_Adjusted_Penalty>
1.30304

> <i_epik_Tot_Q>
0

> <i_epik_Tot_abs_Q>
0

> <r_epik_Metal_State_Penalty>
0.31224

> <b_epik_Metal_Only>
0

> <s_lp_Force_Field>
OPLS_2005

> <r_lp_Energy>
8.14958

> <b_lp_Chiralities_Consistent>
1

> <s_lp_Variant>
AV-unprocessed.smi:3094-3

> <Gold.Version>
5.8.1

> <Gold.Id.Protein>
6NUR|6NUR_protein|mol2

> <Gold.PLP.Fitness>
38.8066

> <Gold.PLP.PLP>
-30.4096

> <Gold.PLP.part.hbond>
-1.5462

> <Gold.PLP.part.metal>
0.0000

> <Gold.PLP.part.buried>
-0.3542

> <Gold.PLP.part.nonpolar>
-28.3158

> <Gold.PLP.part.repulsive>
0.2044

> <Gold.PLP.ligand.clash>
0.0000

> <Gold.PLP.ligand.torsion>
1.1400

> <Gold.PLP.Chemscore.Hbond>
0.7200

> <Gold.PLP.Chemscore.CHOScore>
2.8122

> <Gold.PLP.Chemscore.Metal>
0.0000

> <Gold.Chemscore.Hbonds>
donor molecule, donor type, donor heavy atom, donor atom, acceptor molecule, acceptor atom, score
      L1  H     9    24       P1  8028  0.72
      L1  C     5    21       P1  7957  0.82
      L1  C     6    22       P1 10175  1.00
      L1  C     8    23       P1  8028  0.99

> <Gold.PLP.Chemscore.Internal.Correction>
0.0803

> <Gold.Rescore>
     Score         DG    S(hbond)    S(metal)    S(lipo)     H(rot)  DE(clash)    DE(int)     intcor
      9.43     -12.25       0.95        0.00      70.85       1.83       0.06       2.76       ----

> <Gold.Chemscore.Fitness>
9.4321

> <Gold.Chemscore.DG>
-12.2538

> <Gold.Chemscore.ZeroCoef>
-5.4800

> <Gold.Chemscore.Hbond>
0.9526

> <Gold.Chemscore.Metal>
0.0000

> <Gold.Chemscore.Lipo>
70.8457

> <Gold.Chemscore.Internal_Hbond>
0.0000

> <Gold.Chemscore.DEClash>
0.0585

> <Gold.Chemscore.DEInternal>
2.7632

> <Gold.Chemscore.Rot>
1.8347

> <Gold.Chemscore.Internal.Correction>
   9.000000E+99

> <Gold.Chemscore.Hbonds>
donor molecule, donor type, donor heavy atom, donor atom, acceptor molecule, acceptor atom, score
      L1  H     9    24       P1  8028  0.72

> <Gold.Chemscore.Hbond.Weighted>
-3.1817

> <Gold.Chemscore.Metal.Weighted>
-0.0000

> <Gold.Chemscore.Lipo.Weighted>
-8.2889

> <Gold.Chemscore.Internal_Hbond.Weighted>
0.0000

> <Gold.Chemscore.DEClash.Weighted>
0.0585

> <Gold.Chemscore.DEInternal.Weighted>
2.7632

> <Gold.Chemscore.Rot.Weighted>
4.6969

> <Gold.Chemscore.Internal.Correction.Weighted>
   9.000000E+99

> <Gold.Protein.RotatedTorsions>
[ 6907 6896 6895 6894 ] final    3.03 input  -60.11 | X-H torsion
[ 7974 7965 7964 7962 ] final   50.30 input  175.53 | X-H torsion
[ 8008 7997 7996 7995 ] final   -0.25 input   59.86 | X-H torsion
[ 10167 10162 10161 10158 ] final   12.68 input  -65.29 | X-H torsion
[ 10718 10713 10712 10709 ] final  -97.75 input   66.30 | X-H torsion
[ 10763 10752 10751 10750 ] final   67.66 input  -60.55 | X-H torsion
[ 11005 11000 10999 10996 ] final   12.70 input  -57.11 | X-H torsion

> <Gold.Protein.ActiveResidues>
 VAL166  LYS551  ARG553  GLY616  TRP617  ASP618  TYR619  PRO620  LYS621  CYS622 
 ASP623  PHE694  ASN695  SER759  ASP760  ASP761  ALA762  ILE779  LEU786  VAL792 
 PHE793  MET794  SER795  GLU796  ALA797  LYS798  CYS799  TRP800  GLU811  SER814 

> <Gold.Protein.RotatedAtoms>
  151.6184  135.1034  160.0096 H   0  0  0  0  0  0  0  0  0  0  0  0  # atno 6907 bound_to 6896
  152.4171  133.7051  159.6457 H   0  0  0  0  0  0  0  0  0  0  0  0  # atno 6908 bound_to 6896
  150.8059  133.8438  159.3227 H   0  0  0  0  0  0  0  0  0  0  0  0  # atno 6909 bound_to 6896
  146.0025  139.4454  143.0006 H   0  0  0  0  0  0  0  0  0  0  0  0  # atno 7974 bound_to 7965
  154.6602  140.2589  155.7117 H   0  0  0  0  0  0  0  0  0  0  0  0  # atno 8008 bound_to 7997
  156.2615  140.2850  156.0992 H   0  0  0  0  0  0  0  0  0  0  0  0  # atno 8009 bound_to 7997
  155.1320  140.0379  157.2767 H   0  0  0  0  0  0  0  0  0  0  0  0  # atno 8010 bound_to 7997
  140.6052  143.8523  150.7006 H   0  0  0  0  0  0  0  0  0  0  0  0  # atno 10167 bound_to 10162
  156.0091  130.5208  150.6421 H   0  0  0  0  0  0  0  0  0  0  0  0  # atno 10718 bound_to 10713
  153.0197  135.5276  154.7014 H   0  0  0  0  0  0  0  0  0  0  0  0  # atno 10763 bound_to 10752
  154.6122  135.2879  155.0422 H   0  0  0  0  0  0  0  0  0  0  0  0  # atno 10764 bound_to 10752
  154.1440  135.6573  153.5001 H   0  0  0  0  0  0  0  0  0  0  0  0  # atno 10765 bound_to 10752
  140.4890  134.0859  155.7767 H   0  0  0  0  0  0  0  0  0  0  0  0  # atno 11005 bound_to 11000
  145.7466  140.9988  143.1273 LP  0  0  0  0  0  0  0  0  0  0  0  0  # atno 17320 bound_to 7965
  144.6924  139.9163  143.7466 LP  0  0  0  0  0  0  0  0  0  0  0  0  # atno 17321 bound_to 7965
  140.2078  143.3907  152.1742 LP  0  0  0  0  0  0  0  0  0  0  0  0  # atno 17342 bound_to 10162
  139.5320  144.7169  151.5024 LP  0  0  0  0  0  0  0  0  0  0  0  0  # atno 17343 bound_to 10162
  157.4199  131.0835  151.1141 LP  0  0  0  0  0  0  0  0  0  0  0  0  # atno 17370 bound_to 10713
  157.1746  130.6282  149.5651 LP  0  0  0  0  0  0  0  0  0  0  0  0  # atno 17371 bound_to 10713
  141.1493  133.8997  157.2137 LP  0  0  0  0  0  0  0  0  0  0  0  0  # atno 17394 bound_to 11000
  139.9780  135.0107  156.9680 LP  0  0  0  0  0  0  0  0  0  0  0  0  # atno 17395 bound_to 11000

$$$$
