AV-unprocessed.smi:3104|AV-procd|sdf|11817|dock2
  -GOLD-   2272017183D 1   1.00000     0.00000
 Structure written by MMmdl.
 37 38  0  0  0  0  0  0  0  0  2 V2000
  145.8778  143.1166  153.5444 C   0  0  0  0  0  0  0  0  0  0  0  0
  146.9091  142.0630  153.8274 C   0  0  0  0  0  0  0  0  0  0  0  0
  146.8381  140.6711  153.5394 C   0  0  0  0  0  0  0  0  0  0  0  0
  147.9265  140.0151  153.9058 N   0  0  0  0  0  0  0  0  0  0  0  0
  148.7235  140.9556  154.4578 N   0  0  0  0  0  0  0  0  0  0  0  0
  150.0463  140.5805  154.9459 C   0  0  2  0  0  0  0  0  0  0  0  0
  150.2737  139.0711  154.7374 C   0  0  0  0  0  0  0  0  0  0  0  0
  150.2539  141.0373  156.4154 C   0  0  1  0  0  0  0  0  0  0  0  0
  151.4443  140.3364  157.0911 C   0  0  0  0  0  0  0  0  0  0  0  0
  150.4703  142.5021  156.4812 N   0  3  0  0  0  0  0  0  0  0  0  0
  150.6033  143.0502  157.8461 C   0  0  0  0  0  0  0  0  0  0  0  0
  151.3730  144.3537  157.8378 C   0  0  0  0  0  0  0  0  0  0  0  0
  152.7194  144.4427  158.5191 C   0  0  0  0  0  0  0  0  0  0  0  0
  151.5323  145.1681  159.1015 C   0  0  0  0  0  0  0  0  0  0  0  0
  148.1349  142.2042  154.4136 C   0  0  0  0  0  0  0  0  0  0  0  0
  144.9089  142.6807  153.2995 H   0  0  0  0  0  0  0  0  0  0  0  0
  146.1682  143.7467  152.7036 H   0  0  0  0  0  0  0  0  0  0  0  0
  145.7262  143.7724  154.4020 H   0  0  0  0  0  0  0  0  0  0  0  0
  146.0351  140.1228  153.0687 H   0  0  0  0  0  0  0  0  0  0  0  0
  150.7796  141.0996  154.3253 H   0  0  0  0  0  0  0  0  0  0  0  0
  151.3109  138.7914  154.9200 H   0  0  0  0  0  0  0  0  0  0  0  0
  150.0442  138.7800  153.7117 H   0  0  0  0  0  0  0  0  0  0  0  0
  149.6466  138.4742  155.4003 H   0  0  0  0  0  0  0  0  0  0  0  0
  149.3606  140.7849  156.9896 H   0  0  0  0  0  0  0  0  0  0  0  0
  151.2826  139.2625  157.1824 H   0  0  0  0  0  0  0  0  0  0  0  0
  151.6007  140.7189  158.1004 H   0  0  0  0  0  0  0  0  0  0  0  0
  152.3676  140.4902  156.5315 H   0  0  0  0  0  0  0  0  0  0  0  0
  151.3124  142.7253  155.9704 H   0  0  0  0  0  0  0  0  0  0  0  0
  149.6202  143.2128  158.2885 H   0  0  0  0  0  0  0  0  0  0  0  0
  151.1295  142.3307  158.4744 H   0  0  0  0  0  0  0  0  0  0  0  0
  151.2890  144.9115  156.9068 H   0  0  0  0  0  0  0  0  0  0  0  0
  153.0796  143.5647  159.0517 H   0  0  0  0  0  0  0  0  0  0  0  0
  153.4885  145.0435  158.0376 H   0  0  0  0  0  0  0  0  0  0  0  0
  151.5091  146.2518  159.0070 H   0  0  0  0  0  0  0  0  0  0  0  0
  151.1050  144.7716  160.0205 H   0  0  0  0  0  0  0  0  0  0  0  0
  148.6330  143.0841  154.7936 H   0  0  0  0  0  0  0  0  0  0  0  0
  149.6898  142.9553  156.0262 H   0  0  0  0  0  0  0  0  0  0  0  0
  1  2  1  0  0  0  0
  1 16  1  0  0  0  0
  1 17  1  0  0  0  0
  1 18  1  0  0  0  0
  2 15  2  0  0  0  0
  2  3  1  0  0  0  0
  3  4  2  0  0  0  0
  3 19  1  0  0  0  0
  4  5  1  0  0  0  0
  5  6  1  0  0  0  0
  5 15  1  0  0  0  0
  6  7  1  0  0  0  0
  6  8  1  0  0  0  0
  6 20  1  0  0  0  0
  7 21  1  0  0  0  0
  7 22  1  0  0  0  0
  7 23  1  0  0  0  0
  8  9  1  0  0  0  0
  8 10  1  0  0  0  0
  8 24  1  0  0  0  0
  9 25  1  0  0  0  0
  9 26  1  0  0  0  0
  9 27  1  0  0  0  0
 10 11  1  0  0  0  0
 10 28  1  0  0  0  0
 10 37  1  0  0  0  0
 11 12  1  0  0  0  0
 11 29  1  0  0  0  0
 11 30  1  0  0  0  0
 12 14  1  0  0  0  0
 12 13  1  0  0  0  0
 12 31  1  0  0  0  0
 13 14  1  0  0  0  0
 13 32  1  0  0  0  0
 13 33  1  0  0  0  0
 14 34  1  0  0  0  0
 14 35  1  0  0  0  0
 15 36  1  0  0  0  0
M  CHG  1  10   1
M  END
> <s_m_source_file>
AV-unprocessed.smi

> <i_m_source_file_index>
3104

> <i_lp_mmshare_version>
43012

> <i_f3d_flags>
0

> <s_epik_input>
W0NIM11jMVtjSF1ubihbY0hdMSlbQ0BIXShbQ0gzXSlbQ0BIXShbQ0gzXSlbTkhdW0NIMl1bQ0hdMltDSDJdW0NIMl0y

> <s_epik_cmdline>
J2VwaWtfcHl0aG9uJywgJy1waCcsICc3LjAnLCAnLXRuJywgJzgnLCAnLW1hJywgJzIwMCcsICctbWV0YWxfYmluZGluZycsICctaW1hZScsICc8aW5maWxlLm1hZT4nLCAnLW9tYWUnLCAnPG91dGZpbGUubWFlPic=

> <r_lp_tautomer_probability>
1

> <r_epik_Ionization_Penalty>
0.00120445

> <r_epik_Ionization_Penalty_Charging>
0.00118273

> <r_epik_Ionization_Penalty_Neutral>
2.17265e-05

> <r_epik_State_Penalty>
-0

> <r_epik_Charging_Adjusted_Penalty>
0.00118273

> <i_epik_Tot_Q>
1

> <i_epik_Tot_abs_Q>
1

> <r_epik_Metal_State_Penalty>
-0

> <b_epik_Metal_Only>
0

> <s_lp_Force_Field>
OPLS_2005

> <r_lp_Energy>
20.7188

> <b_lp_Chiralities_Consistent>
1

> <s_lp_Variant>
AV-unprocessed.smi:3104-3

> <Gold.Version>
5.8.1

> <Gold.Id.Protein>
6NUR|6NUR_protein|mol2

> <Gold.PLP.Fitness>
47.4197

> <Gold.PLP.PLP>
-38.5226

> <Gold.PLP.part.hbond>
-1.0000

> <Gold.PLP.part.metal>
0.0000

> <Gold.PLP.part.buried>
-0.4535

> <Gold.PLP.part.nonpolar>
-38.6377

> <Gold.PLP.part.repulsive>
0.2376

> <Gold.PLP.ligand.clash>
0.0000

> <Gold.PLP.ligand.torsion>
0.8400

> <Gold.PLP.Chemscore.Hbond>
1.7446

> <Gold.PLP.Chemscore.CHOScore>
1.5717

> <Gold.PLP.Chemscore.Metal>
0.0000

> <Gold.Chemscore.Hbonds>
donor molecule, donor type, donor heavy atom, donor atom, acceptor molecule, acceptor atom, score
      L1  H    10    37       P1  8028  1.73
      L1  C     3    19       P1 10175  1.00
      L1  C    15    36       P1  8028  0.54

> <Gold.PLP.Chemscore.Internal.Correction>
0.6280

> <Gold.Rescore>
     Score         DG    S(hbond)    S(metal)    S(lipo)     H(rot)  DE(clash)    DE(int)     intcor
     14.89     -15.95       0.80        0.00      99.27       1.49       0.21       0.84       ----

> <Gold.Chemscore.Fitness>
14.8934

> <Gold.Chemscore.DG>
-15.9454

> <Gold.Chemscore.ZeroCoef>
-5.4800

> <Gold.Chemscore.Hbond>
0.7997

> <Gold.Chemscore.Metal>
0.0000

> <Gold.Chemscore.Lipo>
99.2722

> <Gold.Chemscore.Internal_Hbond>
0.0000

> <Gold.Chemscore.DEClash>
0.2100

> <Gold.Chemscore.DEInternal>
0.8420

> <Gold.Chemscore.Rot>
1.4923

> <Gold.Chemscore.Internal.Correction>
   9.000000E+99

> <Gold.Chemscore.Hbonds>
donor molecule, donor type, donor heavy atom, donor atom, acceptor molecule, acceptor atom, score
      L1  H    10    37       P1  8028  0.83

> <Gold.Chemscore.Hbond.Weighted>
-2.6709

> <Gold.Chemscore.Metal.Weighted>
-0.0000

> <Gold.Chemscore.Lipo.Weighted>
-11.6148

> <Gold.Chemscore.Internal_Hbond.Weighted>
0.0000

> <Gold.Chemscore.DEClash.Weighted>
0.2100

> <Gold.Chemscore.DEInternal.Weighted>
0.8420

> <Gold.Chemscore.Rot.Weighted>
3.8204

> <Gold.Chemscore.Internal.Correction.Weighted>
   9.000000E+99

> <Gold.Protein.RotatedTorsions>
[ 6907 6896 6895 6894 ] final  179.52 input  -60.11 | X-H torsion
[ 7974 7965 7964 7962 ] final  126.66 input  175.53 | X-H torsion
[ 8008 7997 7996 7995 ] final -169.07 input   59.86 | X-H torsion
[ 10167 10162 10161 10158 ] final  -32.41 input  -65.29 | X-H torsion
[ 10718 10713 10712 10709 ] final  107.83 input   66.30 | X-H torsion
[ 10763 10752 10751 10750 ] final  150.86 input  -60.55 | X-H torsion
[ 11005 11000 10999 10996 ] final  -37.86 input  -57.11 | X-H torsion

> <Gold.Protein.ActiveResidues>
 VAL166  LYS551  ARG553  GLY616  TRP617  ASP618  TYR619  PRO620  LYS621  CYS622 
 ASP623  PHE694  ASN695  SER759  ASP760  ASP761  ALA762  ILE779  LEU786  VAL792 
 PHE793  MET794  SER795  GLU796  ALA797  LYS798  CYS799  TRP800  GLU811  SER814 

> <Gold.Protein.RotatedAtoms>
  151.6703  133.3314  159.3194 H   0  0  0  0  0  0  0  0  0  0  0  0  # atno 6907 bound_to 6896
  150.7871  134.6868  159.6484 H   0  0  0  0  0  0  0  0  0  0  0  0  # atno 6908 bound_to 6896
  152.3943  134.6395  160.0147 H   0  0  0  0  0  0  0  0  0  0  0  0  # atno 6909 bound_to 6896
  145.0593  139.3818  143.5014 H   0  0  0  0  0  0  0  0  0  0  0  0  # atno 7974 bound_to 7965
  155.9001  140.1039  157.1356 H   0  0  0  0  0  0  0  0  0  0  0  0  # atno 8008 bound_to 7997
  154.4025  140.1294  156.4489 H   0  0  0  0  0  0  0  0  0  0  0  0  # atno 8009 bound_to 7997
  155.7433  140.3466  155.5117 H   0  0  0  0  0  0  0  0  0  0  0  0  # atno 8010 bound_to 7997
  140.7221  143.3697  151.1803 H   0  0  0  0  0  0  0  0  0  0  0  0  # atno 10167 bound_to 10162
  157.6612  131.0881  150.6215 H   0  0  0  0  0  0  0  0  0  0  0  0  # atno 10718 bound_to 10713
  154.0944  135.2850  155.3265 H   0  0  0  0  0  0  0  0  0  0  0  0  # atno 10763 bound_to 10752
  154.6598  135.5338  153.8007 H   0  0  0  0  0  0  0  0  0  0  0  0  # atno 10764 bound_to 10752
  153.0402  135.6531  154.1111 H   0  0  0  0  0  0  0  0  0  0  0  0  # atno 10765 bound_to 10752
  140.9984  133.6968  156.1976 H   0  0  0  0  0  0  0  0  0  0  0  0  # atno 11005 bound_to 11000
  146.3523  140.0283  142.8652 LP  0  0  0  0  0  0  0  0  0  0  0  0  # atno 17320 bound_to 7965
  145.1429  140.9581  143.4478 LP  0  0  0  0  0  0  0  0  0  0  0  0  # atno 17321 bound_to 7965
  139.7265  143.9140  152.3004 LP  0  0  0  0  0  0  0  0  0  0  0  0  # atno 17342 bound_to 10162
  139.8914  144.6963  150.8766 LP  0  0  0  0  0  0  0  0  0  0  0  0  # atno 17343 bound_to 10162
  156.6518  130.4487  149.5717 LP  0  0  0  0  0  0  0  0  0  0  0  0  # atno 17370 bound_to 10713
  156.2132  130.6692  151.1291 LP  0  0  0  0  0  0  0  0  0  0  0  0  # atno 17371 bound_to 10713
  140.6929  134.4646  157.5588 LP  0  0  0  0  0  0  0  0  0  0  0  0  # atno 17394 bound_to 11000
  139.9026  134.8521  156.1833 LP  0  0  0  0  0  0  0  0  0  0  0  0  # atno 17395 bound_to 11000

$$$$
