AV-unprocessed.smi:3162|AV-procd|sdf|12063|dock1
  -GOLD-   2272017493D 1   1.00000     0.00000
 Structure written by MMmdl.
 37 37  0  0  0  0  0  0  0  0  2 V2000
  146.5801  141.5473  154.0946 C   0  0  0  0  0  0  0  0  0  0  0  0
  147.8408  140.8450  153.5655 C   0  0  0  0  0  0  0  0  0  0  0  0
  147.7704  139.3019  153.5709 C   0  0  2  0  0  0  0  0  0  0  0  0
  149.1190  138.7556  153.2843 N   0  3  0  0  0  0  0  0  0  0  0  0
  150.1585  138.9698  154.3197 C   0  0  2  0  0  0  0  0  0  0  0  0
  151.0409  137.7132  154.4093 C   0  0  0  0  0  0  0  0  0  0  0  0
  149.5374  139.3618  155.6808 C   0  0  0  0  0  0  0  0  0  0  0  0
  150.3560  140.2993  156.4283 N   0  0  0  0  0  0  0  0  0  0  0  0
  150.2418  141.6718  156.4929 C   0  0  0  0  0  0  0  0  0  0  0  0
  151.2283  142.1281  157.3205 C   0  0  0  0  0  0  0  0  0  0  0  0
  151.5370  143.5419  157.7219 C   0  0  0  0  0  0  0  0  0  0  0  0
  151.9028  140.9384  157.7183 C   0  0  0  0  0  0  0  0  0  0  0  0
  151.3779  139.8471  157.1853 N   0  0  0  0  0  0  0  0  0  0  0  0
  146.7491  138.7853  152.5451 C   0  0  0  0  0  0  0  0  0  0  0  0
  145.5930  138.3116  153.0175 N   0  0  0  0  0  0  0  0  0  0  0  0
  146.9998  138.8153  151.3417 O   0  0  0  0  0  0  0  0  0  0  0  0
  146.7305  142.6262  154.1388 H   0  0  0  0  0  0  0  0  0  0  0  0
  146.3319  141.2072  155.1002 H   0  0  0  0  0  0  0  0  0  0  0  0
  145.7167  141.3668  153.4544 H   0  0  0  0  0  0  0  0  0  0  0  0
  148.0600  141.2073  152.5598 H   0  0  0  0  0  0  0  0  0  0  0  0
  148.6823  141.1596  154.1844 H   0  0  0  0  0  0  0  0  0  0  0  0
  147.4664  138.9836  154.5698 H   0  0  0  0  0  0  0  0  0  0  0  0
  149.0373  137.7691  153.0808 H   0  0  0  0  0  0  0  0  0  0  0  0
  150.8011  139.7844  153.9822 H   0  0  0  0  0  0  0  0  0  0  0  0
  151.8922  137.8649  155.0732 H   0  0  0  0  0  0  0  0  0  0  0  0
  151.4424  137.4452  153.4317 H   0  0  0  0  0  0  0  0  0  0  0  0
  150.4756  136.8585  154.7827 H   0  0  0  0  0  0  0  0  0  0  0  0
  148.5617  139.8262  155.5393 H   0  0  0  0  0  0  0  0  0  0  0  0
  149.3730  138.4720  156.2915 H   0  0  0  0  0  0  0  0  0  0  0  0
  149.4758  142.2053  155.9493 H   0  0  0  0  0  0  0  0  0  0  0  0
  152.1842  143.5821  158.5982 H   0  0  0  0  0  0  0  0  0  0  0  0
  150.6322  144.0984  157.9670 H   0  0  0  0  0  0  0  0  0  0  0  0
  152.0431  144.0850  156.9236 H   0  0  0  0  0  0  0  0  0  0  0  0
  152.7532  140.8368  158.3764 H   0  0  0  0  0  0  0  0  0  0  0  0
  144.8930  137.9529  152.3840 H   0  0  0  0  0  0  0  0  0  0  0  0
  145.4248  138.3056  154.0135 H   0  0  0  0  0  0  0  0  0  0  0  0
  149.4468  139.2221  152.4509 H   0  0  0  0  0  0  0  0  0  0  0  0
  1  2  1  0  0  0  0
  1 17  1  0  0  0  0
  1 18  1  0  0  0  0
  1 19  1  0  0  0  0
  2  3  1  0  0  0  0
  2 20  1  0  0  0  0
  2 21  1  0  0  0  0
  3  4  1  0  0  0  0
  3 14  1  0  0  0  0
  3 22  1  0  0  0  0
  4  5  1  0  0  0  0
  4 23  1  0  0  0  0
  4 37  1  0  0  0  0
  5  6  1  0  0  0  0
  5  7  1  0  0  0  0
  5 24  1  0  0  0  0
  6 25  1  0  0  0  0
  6 26  1  0  0  0  0
  6 27  1  0  0  0  0
  7  8  1  0  0  0  0
  7 28  1  0  0  0  0
  7 29  1  0  0  0  0
  8 13  1  0  0  0  0
  8  9  1  0  0  0  0
  9 10  2  0  0  0  0
  9 30  1  0  0  0  0
 10 11  1  0  0  0  0
 10 12  1  0  0  0  0
 11 31  1  0  0  0  0
 11 32  1  0  0  0  0
 11 33  1  0  0  0  0
 12 13  2  0  0  0  0
 12 34  1  0  0  0  0
 14 15  1  0  0  0  0
 14 16  2  0  0  0  0
 15 35  1  0  0  0  0
 15 36  1  0  0  0  0
M  CHG  1   4   1
M  END
> <s_m_source_file>
AV-unprocessed.smi

> <i_m_source_file_index>
3162

> <i_lp_mmshare_version>
43012

> <i_f3d_flags>
0

> <s_epik_input>
W0NIM11bQ0gyXVtDQEBIXShDKD1PKVtOSDJdKVtOSF1bQ0BIXShbQ0gzXSlbQ0gyXW4xW2NIXWMoW0NIM10pW2NIXW4x

> <s_epik_cmdline>
J2VwaWtfcHl0aG9uJywgJy1waCcsICc3LjAnLCAnLXRuJywgJzgnLCAnLW1hJywgJzIwMCcsICctbWV0YWxfYmluZGluZycsICctaW1hZScsICc8aW5maWxlLm1hZT4nLCAnLW9tYWUnLCAnPG91dGZpbGUubWFlPic=

> <r_lp_tautomer_probability>
1

> <r_epik_Ionization_Penalty>
0.112112

> <r_epik_Ionization_Penalty_Charging>
0.112102

> <r_epik_Ionization_Penalty_Neutral>
9.73799e-06

> <r_epik_State_Penalty>
0.101811

> <r_epik_Charging_Adjusted_Penalty>
0.213914

> <i_epik_Tot_Q>
1

> <i_epik_Tot_abs_Q>
1

> <r_epik_Metal_State_Penalty>
0.101821

> <b_epik_Metal_Only>
0

> <s_lp_Force_Field>
OPLS_2005

> <r_lp_Energy>
5.61804

> <b_lp_Chiralities_Consistent>
1

> <s_lp_Variant>
AV-unprocessed.smi:3162-1

> <Gold.Version>
5.8.1

> <Gold.Id.Protein>
6NUR|6NUR_protein|mol2

> <Gold.PLP.Fitness>
42.5603

> <Gold.PLP.PLP>
-30.8911

> <Gold.PLP.part.hbond>
-3.9666

> <Gold.PLP.part.metal>
0.0000

> <Gold.PLP.part.buried>
-3.7883

> <Gold.PLP.part.nonpolar>
-26.5209

> <Gold.PLP.part.repulsive>
2.3809

> <Gold.PLP.ligand.clash>
0.0000

> <Gold.PLP.ligand.torsion>
1.7294

> <Gold.PLP.Chemscore.Hbond>
3.9675

> <Gold.PLP.Chemscore.CHOScore>
0.9974

> <Gold.PLP.Chemscore.Metal>
0.0000

> <Gold.Chemscore.Hbonds>
donor molecule, donor type, donor heavy atom, donor atom, acceptor molecule, acceptor atom, score
      L1  H     4    23       P1  7948  2.00
      L1  H     4    37       P1  7957  0.99
      P1  H  7954  7966       L1    16  0.86
      L1  C     9    30       P1  8028  0.83

> <Gold.PLP.Chemscore.Internal.Correction>
0.2333

> <Gold.Rescore>
     Score         DG    S(hbond)    S(metal)    S(lipo)     H(rot)  DE(clash)    DE(int)     intcor
     14.70     -16.65       2.71        0.00      73.00       2.51       0.16       1.79       ----

> <Gold.Chemscore.Fitness>
14.6978

> <Gold.Chemscore.DG>
-16.6531

> <Gold.Chemscore.ZeroCoef>
-5.4800

> <Gold.Chemscore.Hbond>
2.7088

> <Gold.Chemscore.Metal>
0.0000

> <Gold.Chemscore.Lipo>
73.0042

> <Gold.Chemscore.Internal_Hbond>
0.0000

> <Gold.Chemscore.DEClash>
0.1619

> <Gold.Chemscore.DEInternal>
1.7934

> <Gold.Chemscore.Rot>
2.5062

> <Gold.Chemscore.Internal.Correction>
   9.000000E+99

> <Gold.Chemscore.Hbonds>
donor molecule, donor type, donor heavy atom, donor atom, acceptor molecule, acceptor atom, score
      L1  H     4    23       P1  7948  0.95
      L1  H     4    37       P1  7957  0.91
      P1  H  7954  7966       L1    16  0.80

> <Gold.Chemscore.Hbond.Weighted>
-9.0475

> <Gold.Chemscore.Metal.Weighted>
-0.0000

> <Gold.Chemscore.Lipo.Weighted>
-8.5415

> <Gold.Chemscore.Internal_Hbond.Weighted>
0.0000

> <Gold.Chemscore.DEClash.Weighted>
0.1619

> <Gold.Chemscore.DEInternal.Weighted>
1.7934

> <Gold.Chemscore.Rot.Weighted>
6.4159

> <Gold.Chemscore.Internal.Correction.Weighted>
   9.000000E+99

> <Gold.Protein.RotatedTorsions>
[ 6907 6896 6895 6894 ] final   88.69 input  -60.11 | X-H torsion
[ 7974 7965 7964 7962 ] final -140.49 input  175.53 | X-H torsion
[ 8008 7997 7996 7995 ] final -115.37 input   59.86 | X-H torsion
[ 10167 10162 10161 10158 ] final  -94.49 input  -65.29 | X-H torsion
[ 10718 10713 10712 10709 ] final  -22.98 input   66.30 | X-H torsion
[ 10763 10752 10751 10750 ] final   87.33 input  -60.55 | X-H torsion
[ 11005 11000 10999 10996 ] final  -66.57 input  -57.11 | X-H torsion

> <Gold.Protein.ActiveResidues>
 VAL166  LYS551  ARG553  GLY616  TRP617  ASP618  TYR619  PRO620  LYS621  CYS622 
 ASP623  PHE694  ASN695  SER759  ASP760  ASP761  ALA762  ILE779  LEU786  VAL792 
 PHE793  MET794  SER795  GLU796  ALA797  LYS798  CYS799  TRP800  GLU811  SER814 

> <Gold.Protein.RotatedAtoms>
  152.5428  134.2083  159.8739 H   0  0  0  0  0  0  0  0  0  0  0  0  # atno 6907 bound_to 6896
  151.2067  133.4572  159.2605 H   0  0  0  0  0  0  0  0  0  0  0  0  # atno 6908 bound_to 6896
  151.0936  134.9943  159.8470 H   0  0  0  0  0  0  0  0  0  0  0  0  # atno 6909 bound_to 6896
  144.8593  140.6194  143.5338 H   0  0  0  0  0  0  0  0  0  0  0  0  # atno 7974 bound_to 7965
  155.0509  140.0393  157.2543 H   0  0  0  0  0  0  0  0  0  0  0  0  # atno 8008 bound_to 7997
  154.7138  140.2698  155.6580 H   0  0  0  0  0  0  0  0  0  0  0  0  # atno 8009 bound_to 7997
  156.2797  140.2716  156.1788 H   0  0  0  0  0  0  0  0  0  0  0  0  # atno 8010 bound_to 7997
  140.3139  143.3089  152.0119 H   0  0  0  0  0  0  0  0  0  0  0  0  # atno 10167 bound_to 10162
  156.4973  130.4580  149.6721 H   0  0  0  0  0  0  0  0  0  0  0  0  # atno 10718 bound_to 10713
  153.1658  135.4547  154.9834 H   0  0  0  0  0  0  0  0  0  0  0  0  # atno 10763 bound_to 10752
  154.7930  135.3227  154.7734 H   0  0  0  0  0  0  0  0  0  0  0  0  # atno 10764 bound_to 10752
  153.8218  135.6946  153.4881 H   0  0  0  0  0  0  0  0  0  0  0  0  # atno 10765 bound_to 10752
  141.1486  133.6702  156.6160 H   0  0  0  0  0  0  0  0  0  0  0  0  # atno 11005 bound_to 11000
  145.4343  139.1544  143.4005 LP  0  0  0  0  0  0  0  0  0  0  0  0  # atno 17320 bound_to 7965
  146.2848  140.4461  142.8762 LP  0  0  0  0  0  0  0  0  0  0  0  0  # atno 17321 bound_to 7965
  139.4888  144.6364  151.6967 LP  0  0  0  0  0  0  0  0  0  0  0  0  # atno 17342 bound_to 10162
  140.5544  144.0372  150.6141 LP  0  0  0  0  0  0  0  0  0  0  0  0  # atno 17343 bound_to 10162
  156.3368  130.7360  151.2299 LP  0  0  0  0  0  0  0  0  0  0  0  0  # atno 17370 bound_to 10713
  157.7467  131.0415  150.4648 LP  0  0  0  0  0  0  0  0  0  0  0  0  # atno 17371 bound_to 10713
  140.3577  134.7714  157.4512 LP  0  0  0  0  0  0  0  0  0  0  0  0  # atno 17394 bound_to 11000
  140.0810  134.5732  155.8541 LP  0  0  0  0  0  0  0  0  0  0  0  0  # atno 17395 bound_to 11000

$$$$
