AV-unprocessed.smi:3354|AV-procd|sdf|12956|dock1
  -GOLD-   2272019393D 1   1.00000     0.00000
 Structure written by MMmdl.
 38 40  0  0  0  0  0  0  0  0  1 V2000
  150.3990  129.6453  154.6964 C   0  0  0  0  0  0  0  0  0  0  0  0
  151.1840  129.8940  155.9696 C   0  0  1  0  0  0  0  0  0  0  0  0
  152.3898  130.8048  155.9664 C   0  0  0  0  0  0  0  0  0  0  0  0
  151.1333  131.2179  156.7075 C   0  0  1  0  0  0  0  0  0  0  0  0
  150.3083  132.2796  156.2097 N   0  0  0  0  0  0  0  0  0  0  0  0
  150.4084  132.7614  154.8387 C   0  0  0  0  0  0  0  0  0  0  0  0
  149.6990  134.1272  154.8305 C   0  0  1  0  0  0  0  0  0  0  0  0
  148.8076  134.2520  153.6787 N   0  0  0  0  0  0  0  0  0  0  0  0
  147.7305  133.4910  153.4372 C   0  0  0  0  0  0  0  0  0  0  0  0
  147.3573  132.5817  154.1779 O   0  0  0  0  0  0  0  0  0  0  0  0
  147.1162  133.8693  152.3028 N   0  0  0  0  0  0  0  0  0  0  0  0
  145.9658  133.3051  151.6875 C   0  0  0  0  0  0  0  0  0  0  0  0
  145.6010  131.9398  151.7785 C   0  0  0  0  0  0  0  0  0  0  0  0
  144.4460  131.4983  151.1045 C   0  0  0  0  0  0  0  0  0  0  0  0
  143.7027  132.4341  150.3594 C   0  0  0  0  0  0  0  0  0  0  0  0
  144.0457  133.7351  150.2527 N   0  0  0  0  0  0  0  0  0  0  0  0
  145.1546  134.1508  150.9010 C   0  0  0  0  0  0  0  0  0  0  0  0
  148.9293  134.1947  156.1564 C   0  0  0  0  0  0  0  0  0  0  0  0
  149.5251  133.0562  156.9665 C   0  0  0  0  0  0  0  0  0  0  0  0
  149.3052  132.9094  158.1679 O   0  0  0  0  0  0  0  0  0  0  0  0
  150.4223  130.5160  154.0408 H   0  0  0  0  0  0  0  0  0  0  0  0
  149.3601  129.4190  154.9373 H   0  0  0  0  0  0  0  0  0  0  0  0
  150.8232  128.7987  154.1567 H   0  0  0  0  0  0  0  0  0  0  0  0
  151.2532  129.0135  156.6057 H   0  0  0  0  0  0  0  0  0  0  0  0
  153.2455  130.4996  156.5652 H   0  0  0  0  0  0  0  0  0  0  0  0
  152.6385  131.2973  155.0288 H   0  0  0  0  0  0  0  0  0  0  0  0
  151.1974  131.1556  157.7928 H   0  0  0  0  0  0  0  0  0  0  0  0
  151.4491  132.8539  154.5246 H   0  0  0  0  0  0  0  0  0  0  0  0
  149.9176  132.0479  154.1750 H   0  0  0  0  0  0  0  0  0  0  0  0
  150.4561  134.9137  154.8348 H   0  0  0  0  0  0  0  0  0  0  0  0
  149.0293  134.9787  153.0138 H   0  0  0  0  0  0  0  0  0  0  0  0
  147.4894  134.6903  151.8490 H   0  0  0  0  0  0  0  0  0  0  0  0
  146.1864  131.2235  152.3337 H   0  0  0  0  0  0  0  0  0  0  0  0
  144.1399  130.4637  151.1535 H   0  0  0  0  0  0  0  0  0  0  0  0
  142.8126  132.1281  149.8297 H   0  0  0  0  0  0  0  0  0  0  0  0
  145.4002  135.1970  150.7902 H   0  0  0  0  0  0  0  0  0  0  0  0
  149.0623  135.1529  156.6597 H   0  0  0  0  0  0  0  0  0  0  0  0
  147.8611  134.0154  156.0261 H   0  0  0  0  0  0  0  0  0  0  0  0
  1  2  1  0  0  0  0
  1 21  1  0  0  0  0
  1 22  1  0  0  0  0
  1 23  1  0  0  0  0
  2  4  1  0  0  0  0
  2  3  1  0  0  0  0
  2 24  1  0  0  0  0
  3  4  1  0  0  0  0
  3 25  1  0  0  0  0
  3 26  1  0  0  0  0
  4  5  1  0  0  0  0
  4 27  1  0  0  0  0
  5 19  1  0  0  0  0
  5  6  1  0  0  0  0
  6  7  1  0  0  0  0
  6 28  1  0  0  0  0
  6 29  1  0  0  0  0
  7  8  1  0  0  0  0
  7 18  1  0  0  0  0
  7 30  1  0  0  0  0
  8  9  1  0  0  0  0
  8 31  1  0  0  0  0
  9 10  2  0  0  0  0
  9 11  1  0  0  0  0
 11 12  1  0  0  0  0
 11 32  1  0  0  0  0
 12 17  1  0  0  0  0
 12 13  2  0  0  0  0
 13 14  1  0  0  0  0
 13 33  1  0  0  0  0
 14 15  2  0  0  0  0
 14 34  1  0  0  0  0
 15 16  1  0  0  0  0
 15 35  1  0  0  0  0
 16 17  2  0  0  0  0
 17 36  1  0  0  0  0
 18 19  1  0  0  0  0
 18 37  1  0  0  0  0
 18 38  1  0  0  0  0
 19 20  2  0  0  0  0
M  END
> <s_m_source_file>
AV-unprocessed.smi

> <i_m_source_file_index>
3354

> <i_lp_mmshare_version>
43012

> <i_f3d_flags>
0

> <s_epik_input>
W0NIM11bQ0BASF0xW0NIMl1bQ0BIXTFOMltDSDJdW0NASF0oW0NIMl1DMj1PKVtOSF1DKD1PKVtOSF1jM1tjSF1bY0hdW2NIXW5bY0hdMw==

> <s_epik_cmdline>
J2VwaWtfcHl0aG9uJywgJy1waCcsICc3LjAnLCAnLXRuJywgJzgnLCAnLW1hJywgJzIwMCcsICctbWV0YWxfYmluZGluZycsICctaW1hZScsICc8aW5maWxlLm1hZT4nLCAnLW9tYWUnLCAnPG91dGZpbGUubWFlPic=

> <r_epik_Ionization_Penalty>
0.00456191

> <r_epik_Ionization_Penalty_Charging>
0

> <r_epik_Ionization_Penalty_Neutral>
0.00456191

> <r_epik_State_Penalty>
0.00327094

> <r_epik_Charging_Adjusted_Penalty>
0.00327094

> <i_epik_Tot_Q>
0

> <i_epik_Tot_abs_Q>
0

> <r_epik_Metal_State_Penalty>
-0

> <b_epik_Metal_Only>
0

> <s_lp_Force_Field>
OPLS_2005

> <r_lp_Energy>
43.9825

> <b_lp_Chiralities_Consistent>
1

> <s_lp_Variant>
AV-unprocessed.smi:3354-2

> <Gold.Version>
5.8.1

> <Gold.Id.Protein>
6NUR|6NUR_protein|mol2

> <Gold.PLP.Fitness>
40.2356

> <Gold.PLP.PLP>
-30.9821

> <Gold.PLP.part.hbond>
-3.0000

> <Gold.PLP.part.metal>
0.0000

> <Gold.PLP.part.buried>
-4.8139

> <Gold.PLP.part.nonpolar>
-22.9482

> <Gold.PLP.part.repulsive>
0.2469

> <Gold.PLP.ligand.clash>
0.0000

> <Gold.PLP.ligand.torsion>
0.6231

> <Gold.PLP.Chemscore.Hbond>
2.8008

> <Gold.PLP.Chemscore.CHOScore>
0.6302

> <Gold.PLP.Chemscore.Metal>
0.0000

> <Gold.Chemscore.Hbonds>
donor molecule, donor type, donor heavy atom, donor atom, acceptor molecule, acceptor atom, score
      L1  H     8    31       P1  7948  0.75
      L1  H    11    32       P1  7948  0.86
      P1  H  6896  6909       L1    20  0.98
      L1  C    15    35       P1 10186  0.01
      L1  C    15    35       P1 10952  0.62

> <Gold.PLP.Chemscore.Internal.Correction>
0.2067

> <Gold.Rescore>
     Score         DG    S(hbond)    S(metal)    S(lipo)     H(rot)  DE(clash)    DE(int)     intcor
     15.09     -17.43       2.12        0.00      68.64       1.24       0.08       2.27       ----

> <Gold.Chemscore.Fitness>
15.0851

> <Gold.Chemscore.DG>
-17.4324

> <Gold.Chemscore.ZeroCoef>
-5.4800

> <Gold.Chemscore.Hbond>
2.1214

> <Gold.Chemscore.Metal>
0.0000

> <Gold.Chemscore.Lipo>
68.6440

> <Gold.Chemscore.Internal_Hbond>
0.0000

> <Gold.Chemscore.DEClash>
0.0786

> <Gold.Chemscore.DEInternal>
2.2686

> <Gold.Chemscore.Rot>
1.2361

> <Gold.Chemscore.Internal.Correction>
   9.000000E+99

> <Gold.Chemscore.Hbonds>
donor molecule, donor type, donor heavy atom, donor atom, acceptor molecule, acceptor atom, score
      L1  H     8    31       P1  7948  0.09
      L1  H    11    32       P1  7948  0.48
      P1  H  6896  6909       L1    20  0.72

> <Gold.Chemscore.Hbond.Weighted>
-7.0853

> <Gold.Chemscore.Metal.Weighted>
-0.0000

> <Gold.Chemscore.Lipo.Weighted>
-8.0314

> <Gold.Chemscore.Internal_Hbond.Weighted>
0.0000

> <Gold.Chemscore.DEClash.Weighted>
0.0786

> <Gold.Chemscore.DEInternal.Weighted>
2.2686

> <Gold.Chemscore.Rot.Weighted>
3.1643

> <Gold.Chemscore.Internal.Correction.Weighted>
   9.000000E+99

> <Gold.Protein.RotatedTorsions>
[ 6907 6896 6895 6894 ] final    2.70 input  -60.11 | X-H torsion
[ 7974 7965 7964 7962 ] final   26.82 input  175.53 | X-H torsion
[ 8008 7997 7996 7995 ] final -157.16 input   59.86 | X-H torsion
[ 10167 10162 10161 10158 ] final   74.58 input  -65.29 | X-H torsion
[ 10718 10713 10712 10709 ] final   13.46 input   66.30 | X-H torsion
[ 10763 10752 10751 10750 ] final -115.37 input  -60.55 | X-H torsion
[ 11005 11000 10999 10996 ] final   -7.22 input  -57.11 | X-H torsion

> <Gold.Protein.ActiveResidues>
 VAL166  LYS551  ARG553  GLY616  TRP617  ASP618  TYR619  PRO620  LYS621  CYS622 
 ASP623  PHE694  ASN695  SER759  ASP760  ASP761  ALA762  ILE779  LEU786  VAL792 
 PHE793  MET794  SER795  GLU796  ALA797  LYS798  CYS799  TRP800  GLU811  SER814 

> <Gold.Protein.RotatedAtoms>
  151.6132  135.1038  160.0085 H   0  0  0  0  0  0  0  0  0  0  0  0  # atno 6907 bound_to 6896
  152.4197  133.7092  159.6480 H   0  0  0  0  0  0  0  0  0  0  0  0  # atno 6908 bound_to 6896
  150.8085  133.8392  159.3215 H   0  0  0  0  0  0  0  0  0  0  0  0  # atno 6909 bound_to 6896
  146.1817  139.7276  142.8895 H   0  0  0  0  0  0  0  0  0  0  0  0  # atno 7974 bound_to 7965
  155.7282  140.0798  157.2301 H   0  0  0  0  0  0  0  0  0  0  0  0  # atno 8008 bound_to 7997
  154.4036  140.1600  156.2533 H   0  0  0  0  0  0  0  0  0  0  0  0  # atno 8009 bound_to 7997
  155.9134  140.3402  155.6119 H   0  0  0  0  0  0  0  0  0  0  0  0  # atno 8010 bound_to 7997
  140.0122  144.5605  150.7649 H   0  0  0  0  0  0  0  0  0  0  0  0  # atno 10167 bound_to 10162
  157.0250  130.6170  149.5726 H   0  0  0  0  0  0  0  0  0  0  0  0  # atno 10718 bound_to 10713
  154.8478  135.4384  154.1652 H   0  0  0  0  0  0  0  0  0  0  0  0  # atno 10763 bound_to 10752
  153.2779  135.6951  153.7421 H   0  0  0  0  0  0  0  0  0  0  0  0  # atno 10764 bound_to 10752
  153.6636  135.3431  155.3109 H   0  0  0  0  0  0  0  0  0  0  0  0  # atno 10765 bound_to 10752
  140.7104  133.8913  155.8747 H   0  0  0  0  0  0  0  0  0  0  0  0  # atno 11005 bound_to 11000
  145.4056  141.0390  143.3046 LP  0  0  0  0  0  0  0  0  0  0  0  0  # atno 17320 bound_to 7965
  144.8327  139.5601  143.6936 LP  0  0  0  0  0  0  0  0  0  0  0  0  # atno 17321 bound_to 7965
  140.7377  143.2768  151.3716 LP  0  0  0  0  0  0  0  0  0  0  0  0  # atno 17342 bound_to 10162
  139.6197  144.0931  152.2380 LP  0  0  0  0  0  0  0  0  0  0  0  0  # atno 17343 bound_to 10162
  156.0089  130.5179  150.7923 LP  0  0  0  0  0  0  0  0  0  0  0  0  # atno 17370 bound_to 10713
  157.5221  131.0932  151.0065 LP  0  0  0  0  0  0  0  0  0  0  0  0  # atno 17371 bound_to 10713
  141.0089  134.1048  157.4242 LP  0  0  0  0  0  0  0  0  0  0  0  0  # atno 17394 bound_to 11000
  139.8873  135.0089  156.6552 LP  0  0  0  0  0  0  0  0  0  0  0  0  # atno 17395 bound_to 11000

$$$$
