AV-unprocessed.smi:243|AV-procd|sdf|1855|dock7
  -GOLD-   2262020483D 1   1.00000     0.00000
 Structure written by MMmdl.
 58 61  0  0  0  0  0  0  0  0  2 V2000
  146.4990  134.3252  153.3559 C   0  0  0  0  0  0  0  0  0  0  0  0
  145.8786  135.5546  152.6760 C   0  0  0  0  0  0  0  0  0  0  0  0
  146.4551  136.8315  153.1681 N   0  3  1  0  0  0  0  0  0  0  0  0
  146.0027  138.0144  152.3935 C   0  0  0  0  0  0  0  0  0  0  0  0
  146.7491  139.2754  152.8454 C   0  0  0  0  0  0  0  0  0  0  0  0
  146.5641  139.5346  154.3569 C   0  0  2  0  0  0  0  0  0  0  0  0
  147.2334  140.7688  154.7982 N   0  0  0  0  0  0  0  0  0  0  0  0
  146.9507  141.9799  154.0364 C   0  0  0  0  0  0  0  0  0  0  0  0
  148.5189  140.6690  155.2204 C   0  0  0  0  0  0  0  0  0  0  0  0
  149.3844  139.9722  154.4424 N   0  0  0  0  0  0  0  0  0  0  0  0
  150.6632  139.8417  154.8065 C   0  0  0  0  0  0  0  0  0  0  0  0
  151.2743  140.3201  155.8917 N   0  0  0  0  0  0  0  0  0  0  0  0
  150.4074  141.0128  156.6841 C   0  0  0  0  0  0  0  0  0  0  0  0
  149.0242  141.2331  156.4283 C   0  0  0  0  0  0  0  0  0  0  0  0
  148.4714  141.9929  157.4530 N   0  0  0  0  0  0  0  0  0  0  0  0
  149.4679  142.2050  158.2682 C   0  0  0  0  0  0  0  0  0  0  0  0
  150.6672  141.6485  157.8857 N   0  0  0  0  0  0  0  0  0  0  0  0
  151.9330  141.7307  158.5978 C   0  0  0  0  0  0  0  0  0  0  0  0
  152.3197  143.1719  159.0047 C   0  0  2  0  0  0  0  0  0  0  0  0
  153.7169  143.2309  159.2327 O   0  0  0  0  0  0  0  0  0  0  0  0
  151.6043  143.6817  160.2533 C   0  0  0  0  0  0  0  0  0  0  0  0
  151.4526  145.1707  159.9755 C   0  0  0  0  0  0  0  0  0  0  0  0
  151.1453  145.1938  158.5926 O   0  0  0  0  0  0  0  0  0  0  0  0
  151.9545  144.2229  157.9374 C   0  0  0  0  0  0  0  0  0  0  0  0
  146.9613  138.2706  155.1646 C   0  0  1  0  0  0  0  0  0  0  0  0
  146.6611  138.4262  156.6667 C   0  0  0  0  0  0  0  0  0  0  0  0
  146.2249  137.0267  154.6218 C   0  0  0  0  0  0  0  0  0  0  0  0
  145.9889  133.4152  153.0390 H   0  0  0  0  0  0  0  0  0  0  0  0
  146.4127  134.3896  154.4410 H   0  0  0  0  0  0  0  0  0  0  0  0
  147.5528  134.2047  153.1072 H   0  0  0  0  0  0  0  0  0  0  0  0
  145.9827  135.4894  151.5920 H   0  0  0  0  0  0  0  0  0  0  0  0
  144.8080  135.5402  152.8841 H   0  0  0  0  0  0  0  0  0  0  0  0
  146.1822  137.8655  151.3294 H   0  0  0  0  0  0  0  0  0  0  0  0
  144.9266  138.1471  152.5169 H   0  0  0  0  0  0  0  0  0  0  0  0
  147.8066  139.1561  152.6072 H   0  0  0  0  0  0  0  0  0  0  0  0
  146.3955  140.1286  152.2664 H   0  0  0  0  0  0  0  0  0  0  0  0
  145.4979  139.6945  154.5246 H   0  0  0  0  0  0  0  0  0  0  0  0
  147.4806  142.8388  154.4510 H   0  0  0  0  0  0  0  0  0  0  0  0
  145.8841  142.2022  154.0730 H   0  0  0  0  0  0  0  0  0  0  0  0
  147.2353  141.8717  152.9900 H   0  0  0  0  0  0  0  0  0  0  0  0
  151.2859  139.2725  154.1324 H   0  0  0  0  0  0  0  0  0  0  0  0
  149.3541  142.7772  159.1774 H   0  0  0  0  0  0  0  0  0  0  0  0
  151.8764  141.0908  159.4793 H   0  0  0  0  0  0  0  0  0  0  0  0
  152.7070  141.3018  157.9598 H   0  0  0  0  0  0  0  0  0  0  0  0
  154.0503  144.0274  158.8488 H   0  0  0  0  0  0  0  0  0  0  0  0
  150.6106  143.2381  160.3269 H   0  0  0  0  0  0  0  0  0  0  0  0
  152.1326  143.4684  161.1836 H   0  0  0  0  0  0  0  0  0  0  0  0
  150.6667  145.6353  160.5713 H   0  0  0  0  0  0  0  0  0  0  0  0
  152.3877  145.7033  160.1560 H   0  0  0  0  0  0  0  0  0  0  0  0
  152.8381  144.7088  157.5199 H   0  0  0  0  0  0  0  0  0  0  0  0
  151.3956  143.7946  157.1049 H   0  0  0  0  0  0  0  0  0  0  0  0
  148.0300  138.0899  155.0451 H   0  0  0  0  0  0  0  0  0  0  0  0
  145.5979  138.5934  156.8414 H   0  0  0  0  0  0  0  0  0  0  0  0
  147.2007  139.2642  157.1068 H   0  0  0  0  0  0  0  0  0  0  0  0
  146.9509  137.5320  157.2189 H   0  0  0  0  0  0  0  0  0  0  0  0
  145.1525  137.1086  154.8074 H   0  0  0  0  0  0  0  0  0  0  0  0
  146.5713  136.1454  155.1634 H   0  0  0  0  0  0  0  0  0  0  0  0
  147.4556  136.7604  153.0468 H   0  0  0  0  0  0  0  0  0  0  0  0
  1  2  1  0  0  0  0
  1 28  1  0  0  0  0
  1 29  1  0  0  0  0
  1 30  1  0  0  0  0
  2  3  1  0  0  0  0
  2 31  1  0  0  0  0
  2 32  1  0  0  0  0
  3 27  1  0  0  0  0
  3  4  1  0  0  0  0
  3 58  1  0  0  0  0
  4  5  1  0  0  0  0
  4 33  1  0  0  0  0
  4 34  1  0  0  0  0
  5  6  1  0  0  0  0
  5 35  1  0  0  0  0
  5 36  1  0  0  0  0
  6  7  1  0  0  0  0
  6 25  1  0  0  0  0
  6 37  1  0  0  0  0
  7  8  1  0  0  0  0
  7  9  1  0  0  0  0
  8 38  1  0  0  0  0
  8 39  1  0  0  0  0
  8 40  1  0  0  0  0
  9 14  1  0  0  0  0
  9 10  2  0  0  0  0
 10 11  1  0  0  0  0
 11 12  2  0  0  0  0
 11 41  1  0  0  0  0
 12 13  1  0  0  0  0
 13 17  1  0  0  0  0
 13 14  2  0  0  0  0
 14 15  1  0  0  0  0
 15 16  2  0  0  0  0
 16 17  1  0  0  0  0
 16 42  1  0  0  0  0
 17 18  1  0  0  0  0
 18 19  1  0  0  0  0
 18 43  1  0  0  0  0
 18 44  1  0  0  0  0
 19 24  1  0  0  0  0
 19 20  1  0  0  0  0
 19 21  1  0  0  0  0
 20 45  1  0  0  0  0
 21 22  1  0  0  0  0
 21 46  1  0  0  0  0
 21 47  1  0  0  0  0
 22 23  1  0  0  0  0
 22 48  1  0  0  0  0
 22 49  1  0  0  0  0
 23 24  1  0  0  0  0
 24 50  1  0  0  0  0
 24 51  1  0  0  0  0
 25 26  1  0  0  0  0
 25 27  1  0  0  0  0
 25 52  1  0  0  0  0
 26 53  1  0  0  0  0
 26 54  1  0  0  0  0
 26 55  1  0  0  0  0
 27 56  1  0  0  0  0
 27 57  1  0  0  0  0
M  CHG  1   3   1
M  END
> <s_m_source_file>
AV-unprocessed.smi

> <i_m_source_file_index>
243

> <i_lp_mmshare_version>
43012

> <i_f3d_flags>
0

> <s_epik_input>
W0NIM11bQ0gyXU4xW0NIMl1bQ0gyXVtDQEhdKFtDQEBIXShbQ0gzXSlbQ0gyXTEpTihbQ0gzXSljKG5bY0hdbjIpYyhjMjMpbltjSF1uM1tDSDJdW0NAQF00KFtPSF0pW0NIMl1bQ0gyXU9bQ0gyXTQ=

> <s_epik_cmdline>
J2VwaWtfcHl0aG9uJywgJy1waCcsICc3LjAnLCAnLXRuJywgJzgnLCAnLW1hJywgJzIwMCcsICctbWV0YWxfYmluZGluZycsICctaW1hZScsICc8aW5maWxlLm1hZT4nLCAnLW9tYWUnLCAnPG91dGZpbGUubWFlPic=

> <r_lp_tautomer_probability>
1

> <r_epik_Ionization_Penalty>
0.00253099

> <r_epik_Ionization_Penalty_Charging>
0.00137877

> <r_epik_Ionization_Penalty_Neutral>
0.00115221

> <r_epik_State_Penalty>
-0

> <r_epik_Charging_Adjusted_Penalty>
0.00137877

> <i_epik_Tot_Q>
1

> <i_epik_Tot_abs_Q>
1

> <r_epik_Metal_State_Penalty>
-0

> <b_epik_Metal_Only>
0

> <s_lp_Force_Field>
OPLS_2005

> <r_lp_Energy>
45.753

> <b_lp_Chiralities_Consistent>
1

> <s_lp_Variant>
AV-unprocessed.smi:243-8

> <Gold.Version>
5.8.1

> <Gold.Id.Protein>
6NUR|6NUR_protein|mol2

> <Gold.PLP.Fitness>
45.0652

> <Gold.PLP.PLP>
-41.1341

> <Gold.PLP.part.hbond>
-1.0473

> <Gold.PLP.part.metal>
0.0000

> <Gold.PLP.part.buried>
-3.6074

> <Gold.PLP.part.nonpolar>
-37.1489

> <Gold.PLP.part.repulsive>
0.5320

> <Gold.PLP.ligand.clash>
0.0000

> <Gold.PLP.ligand.torsion>
1.2303

> <Gold.PLP.Chemscore.Hbond>
1.8880

> <Gold.PLP.Chemscore.CHOScore>
0.0000

> <Gold.PLP.Chemscore.Metal>
0.0000

> <Gold.Chemscore.Hbonds>
donor molecule, donor type, donor heavy atom, donor atom, acceptor molecule, acceptor atom, score
      L1  H     3    58       P1  7948  1.86

> <Gold.PLP.Chemscore.Internal.Correction>
0.7277

> <Gold.Rescore>
     Score         DG    S(hbond)    S(metal)    S(lipo)     H(rot)  DE(clash)    DE(int)     intcor
     11.96     -13.18       0.95        0.00      93.93       2.53       0.17       1.04       ----

> <Gold.Chemscore.Fitness>
11.9645

> <Gold.Chemscore.DG>
-13.1774

> <Gold.Chemscore.ZeroCoef>
-5.4800

> <Gold.Chemscore.Hbond>
0.9537

> <Gold.Chemscore.Metal>
0.0000

> <Gold.Chemscore.Lipo>
93.9312

> <Gold.Chemscore.Internal_Hbond>
0.0000

> <Gold.Chemscore.DEClash>
0.1749

> <Gold.Chemscore.DEInternal>
1.0380

> <Gold.Chemscore.Rot>
2.5305

> <Gold.Chemscore.Internal.Correction>
   9.000000E+99

> <Gold.Chemscore.Hbonds>
donor molecule, donor type, donor heavy atom, donor atom, acceptor molecule, acceptor atom, score
      L1  H     3    58       P1  7948  0.89

> <Gold.Chemscore.Hbond.Weighted>
-3.1854

> <Gold.Chemscore.Metal.Weighted>
-0.0000

> <Gold.Chemscore.Lipo.Weighted>
-10.9899

> <Gold.Chemscore.Internal_Hbond.Weighted>
0.0000

> <Gold.Chemscore.DEClash.Weighted>
0.1749

> <Gold.Chemscore.DEInternal.Weighted>
1.0380

> <Gold.Chemscore.Rot.Weighted>
6.4780

> <Gold.Chemscore.Internal.Correction.Weighted>
   9.000000E+99

> <Gold.Protein.RotatedTorsions>
[ 6907 6896 6895 6894 ] final   -5.60 input  -60.11 | X-H torsion
[ 7974 7965 7964 7962 ] final  152.78 input  175.53 | X-H torsion
[ 8008 7997 7996 7995 ] final   32.45 input   59.86 | X-H torsion
[ 10167 10162 10161 10158 ] final -164.98 input  -65.29 | X-H torsion
[ 10718 10713 10712 10709 ] final  163.86 input   66.30 | X-H torsion
[ 10763 10752 10751 10750 ] final -166.20 input  -60.55 | X-H torsion
[ 11005 11000 10999 10996 ] final -141.92 input  -57.11 | X-H torsion

> <Gold.Protein.ActiveResidues>
 VAL166  LYS551  ARG553  GLY616  TRP617  ASP618  TYR619  PRO620  LYS621  CYS622 
 ASP623  PHE694  ASN695  SER759  ASP760  ASP761  ALA762  ILE779  LEU786  VAL792 
 PHE793  MET794  SER795  GLU796  ALA797  LYS798  CYS799  TRP800  GLU811  SER814 

> <Gold.Protein.RotatedAtoms>
  151.4790  135.1051  159.9772 H   0  0  0  0  0  0  0  0  0  0  0  0  # atno 6907 bound_to 6896
  152.4787  133.8196  159.7057 H   0  0  0  0  0  0  0  0  0  0  0  0  # atno 6908 bound_to 6896
  150.8842  133.7269  159.2949 H   0  0  0  0  0  0  0  0  0  0  0  0  # atno 6909 bound_to 6896
  144.8199  139.6714  143.6105 H   0  0  0  0  0  0  0  0  0  0  0  0  # atno 7974 bound_to 7965
  155.1226  140.3249  155.4493 H   0  0  0  0  0  0  0  0  0  0  0  0  # atno 8008 bound_to 7997
  156.2658  140.2024  156.6296 H   0  0  0  0  0  0  0  0  0  0  0  0  # atno 8009 bound_to 7997
  154.6672  140.0540  157.0113 H   0  0  0  0  0  0  0  0  0  0  0  0  # atno 8010 bound_to 7997
  139.6213  144.0619  152.1935 H   0  0  0  0  0  0  0  0  0  0  0  0  # atno 10167 bound_to 10162
  157.1025  131.0446  151.2492 H   0  0  0  0  0  0  0  0  0  0  0  0  # atno 10718 bound_to 10713
  154.6856  135.2962  154.9551 H   0  0  0  0  0  0  0  0  0  0  0  0  # atno 10763 bound_to 10752
  154.0532  135.6641  153.4807 H   0  0  0  0  0  0  0  0  0  0  0  0  # atno 10764 bound_to 10752
  153.0577  135.5134  154.7922 H   0  0  0  0  0  0  0  0  0  0  0  0  # atno 10765 bound_to 10752
  140.8277  134.2555  157.4871 H   0  0  0  0  0  0  0  0  0  0  0  0  # atno 11005 bound_to 11000
  146.2504  139.6187  142.9431 LP  0  0  0  0  0  0  0  0  0  0  0  0  # atno 17320 bound_to 7965
  145.5129  141.0435  143.2478 LP  0  0  0  0  0  0  0  0  0  0  0  0  # atno 17321 bound_to 7965
  140.0261  144.6116  150.7526 LP  0  0  0  0  0  0  0  0  0  0  0  0  # atno 17342 bound_to 10162
  140.7384  143.2777  151.3691 LP  0  0  0  0  0  0  0  0  0  0  0  0  # atno 17343 bound_to 10162
  157.4628  130.7663  149.7252 LP  0  0  0  0  0  0  0  0  0  0  0  0  # atno 17370 bound_to 10713
  155.9870  130.3970  150.3186 LP  0  0  0  0  0  0  0  0  0  0  0  0  # atno 17371 bound_to 10713
  139.8706  134.9569  156.4253 LP  0  0  0  0  0  0  0  0  0  0  0  0  # atno 17394 bound_to 11000
  140.9032  133.7765  155.9704 LP  0  0  0  0  0  0  0  0  0  0  0  0  # atno 17395 bound_to 11000

$$$$
