AV-unprocessed.smi:2844|AV-procd|sdf|10942|dock6
  -GOLD-   2272015393D 1   1.00000     0.00000
 Structure written by MMmdl.
 39 41  0  0  0  0  0  0  0  0  2 V2000
  151.9760  144.8217  160.4347 C   0  0  0  0  0  0  0  0  0  0  0  0
  151.8554  143.6822  159.4368 C   0  0  0  0  0  0  0  0  0  0  0  0
  151.0499  143.8715  158.2908 C   0  0  0  0  0  0  0  0  0  0  0  0
  150.9564  142.8096  157.3989 C   0  0  0  0  0  0  0  0  0  0  0  0
  150.2524  142.6797  156.1997 N   0  3  0  0  0  0  0  0  0  0  0  0
  150.4697  141.4411  155.6766 C   0  0  0  0  0  0  0  0  0  0  0  0
  151.3024  140.7787  156.5246 N   0  0  0  0  0  0  0  0  0  0  0  0
  151.8480  139.4174  156.4458 C   0  0  0  0  0  0  0  0  0  0  0  0
  152.2096  139.0061  155.0058 C   0  0  1  0  0  0  0  0  0  0  0  0
  153.2202  138.0150  155.0383 O   0  0  0  0  0  0  0  0  0  0  0  0
  150.9866  138.4841  154.2278 C   0  0  0  0  0  0  0  0  0  0  0  0
  150.4967  137.2176  154.7422 N   0  0  0  0  0  0  0  0  0  0  0  0
  149.2595  136.9378  155.2905 C   0  0  0  0  0  0  0  0  0  0  0  0
  149.2980  135.6162  155.6150 C   0  0  0  0  0  0  0  0  0  0  0  0
  148.0345  134.6939  156.3412 Cl  0  0  0  0  0  0  0  0  0  0  0  0
  150.5820  135.1478  155.2371 C   0  0  0  0  0  0  0  0  0  0  0  0
  151.3020  136.1250  154.7052 N   0  0  0  0  0  0  0  0  0  0  0  0
  151.6317  141.5927  157.6134 C   0  0  0  0  0  0  0  0  0  0  0  0
  152.4305  141.3894  158.7359 C   0  0  0  0  0  0  0  0  0  0  0  0
  152.5366  142.4568  159.6563 C   0  0  0  0  0  0  0  0  0  0  0  0
  153.3990  142.2643  160.8921 C   0  0  0  0  0  0  0  0  0  0  0  0
  151.4094  145.6959  160.1126 H   0  0  0  0  0  0  0  0  0  0  0  0
  153.0173  145.1241  160.5483 H   0  0  0  0  0  0  0  0  0  0  0  0
  151.5945  144.5182  161.4099 H   0  0  0  0  0  0  0  0  0  0  0  0
  150.5284  144.8013  158.1170 H   0  0  0  0  0  0  0  0  0  0  0  0
  150.0525  141.0532  154.7585 H   0  0  0  0  0  0  0  0  0  0  0  0
  152.7299  139.3776  157.0870 H   0  0  0  0  0  0  0  0  0  0  0  0
  151.1195  138.7302  156.8781 H   0  0  0  0  0  0  0  0  0  0  0  0
  152.6167  139.8714  154.4814 H   0  0  0  0  0  0  0  0  0  0  0  0
  153.5949  137.9955  155.9056 H   0  0  0  0  0  0  0  0  0  0  0  0
  150.1740  139.2112  154.2610 H   0  0  0  0  0  0  0  0  0  0  0  0
  151.2399  138.3487  153.1753 H   0  0  0  0  0  0  0  0  0  0  0  0
  148.4849  137.6821  155.4001 H   0  0  0  0  0  0  0  0  0  0  0  0
  151.0047  134.1581  155.3273 H   0  0  0  0  0  0  0  0  0  0  0  0
  152.9470  140.4557  158.9032 H   0  0  0  0  0  0  0  0  0  0  0  0
  153.8541  141.2737  160.9113 H   0  0  0  0  0  0  0  0  0  0  0  0
  152.8011  142.3735  161.7972 H   0  0  0  0  0  0  0  0  0  0  0  0
  154.2032  143.0001  160.9160 H   0  0  0  0  0  0  0  0  0  0  0  0
  149.6637  143.3815  155.7694 H   0  0  0  0  0  0  0  0  0  0  0  0
  1  2  1  0  0  0  0
  1 22  1  0  0  0  0
  1 23  1  0  0  0  0
  1 24  1  0  0  0  0
  2 20  1  0  0  0  0
  2  3  2  0  0  0  0
  3  4  1  0  0  0  0
  3 25  1  0  0  0  0
  4 18  2  0  0  0  0
  4  5  1  0  0  0  0
  5  6  2  0  0  0  0
  5 39  1  0  0  0  0
  6  7  1  0  0  0  0
  6 26  1  0  0  0  0
  7  8  1  0  0  0  0
  7 18  1  0  0  0  0
  8  9  1  0  0  0  0
  8 27  1  0  0  0  0
  8 28  1  0  0  0  0
  9 10  1  0  0  0  0
  9 11  1  0  0  0  0
  9 29  1  0  0  0  0
 10 30  1  0  0  0  0
 11 12  1  0  0  0  0
 11 31  1  0  0  0  0
 11 32  1  0  0  0  0
 12 17  1  0  0  0  0
 12 13  1  0  0  0  0
 13 14  2  0  0  0  0
 13 33  1  0  0  0  0
 14 15  1  0  0  0  0
 14 16  1  0  0  0  0
 16 17  2  0  0  0  0
 16 34  1  0  0  0  0
 18 19  1  0  0  0  0
 19 20  2  0  0  0  0
 19 35  1  0  0  0  0
 20 21  1  0  0  0  0
 21 36  1  0  0  0  0
 21 37  1  0  0  0  0
 21 38  1  0  0  0  0
M  CHG  1   5   1
M  END
> <s_m_source_file>
AV-unprocessed.smi

> <i_m_source_file_index>
2844

> <i_lp_mmshare_version>
43012

> <i_f3d_flags>
0

> <s_epik_input>
W0NIM11jKFtjSF0xKWMoW0NIM10pW2NIXWMoYzEyKW4oW2NIXW4yKVtDSDJdW0NASF0oW09IXSlbQ0gyXW4zW2NIXWMoQ2wpW2NIXW4z

> <s_epik_cmdline>
J2VwaWtfcHl0aG9uJywgJy1waCcsICc3LjAnLCAnLXRuJywgJzgnLCAnLW1hJywgJzIwMCcsICctbWV0YWxfYmluZGluZycsICctaW1hZScsICc8aW5maWxlLm1hZT4nLCAnLW9tYWUnLCAnPG91dGZpbGUubWFlPic=

> <r_lp_tautomer_probability>
1

> <r_epik_Ionization_Penalty>
1.09214

> <r_epik_Ionization_Penalty_Charging>
1.09214

> <r_epik_Ionization_Penalty_Neutral>
2.93683e-06

> <r_epik_State_Penalty>
1.14852

> <r_epik_Charging_Adjusted_Penalty>
2.24066

> <i_epik_Tot_Q>
1

> <i_epik_Tot_abs_Q>
1

> <r_epik_Metal_State_Penalty>
1.23687

> <b_epik_Metal_Only>
0

> <s_lp_Force_Field>
OPLS_2005

> <r_lp_Energy>
15.1146

> <b_lp_Chiralities_Consistent>
1

> <s_lp_Variant>
AV-unprocessed.smi:2844-4

> <Gold.Version>
5.8.1

> <Gold.Id.Protein>
6NUR|6NUR_protein|mol2

> <Gold.PLP.Fitness>
55.0912

> <Gold.PLP.PLP>
-47.3103

> <Gold.PLP.part.hbond>
-2.9410

> <Gold.PLP.part.metal>
0.0000

> <Gold.PLP.part.buried>
-6.7800

> <Gold.PLP.part.nonpolar>
-38.1280

> <Gold.PLP.part.repulsive>
0.2810

> <Gold.PLP.ligand.clash>
0.0000

> <Gold.PLP.ligand.torsion>
0.6198

> <Gold.PLP.Chemscore.Hbond>
3.0000

> <Gold.PLP.Chemscore.CHOScore>
0.0000

> <Gold.PLP.Chemscore.Metal>
0.0000

> <Gold.Chemscore.Hbonds>
donor molecule, donor type, donor heavy atom, donor atom, acceptor molecule, acceptor atom, score
      L1  H     5    39       P1  8028  2.00
      P1  H 10752 10765       L1    17  1.00

> <Gold.PLP.Chemscore.Internal.Correction>
0.0204

> <Gold.Rescore>
     Score         DG    S(hbond)    S(metal)    S(lipo)     H(rot)  DE(clash)    DE(int)     intcor
     18.21     -20.25       1.97        0.00     118.51       2.21       0.15       1.90       ----

> <Gold.Chemscore.Fitness>
18.2060

> <Gold.Chemscore.DG>
-20.2532

> <Gold.Chemscore.ZeroCoef>
-5.4800

> <Gold.Chemscore.Hbond>
1.9677

> <Gold.Chemscore.Metal>
0.0000

> <Gold.Chemscore.Lipo>
118.5118

> <Gold.Chemscore.Internal_Hbond>
0.0000

> <Gold.Chemscore.DEClash>
0.1482

> <Gold.Chemscore.DEInternal>
1.8990

> <Gold.Chemscore.Rot>
2.2129

> <Gold.Chemscore.Internal.Correction>
   9.000000E+99

> <Gold.Chemscore.Hbonds>
donor molecule, donor type, donor heavy atom, donor atom, acceptor molecule, acceptor atom, score
      L1  H     5    39       P1  8028  0.94
      P1  H 10752 10765       L1    17  0.70

> <Gold.Chemscore.Hbond.Weighted>
-6.5722

> <Gold.Chemscore.Metal.Weighted>
-0.0000

> <Gold.Chemscore.Lipo.Weighted>
-13.8659

> <Gold.Chemscore.Internal_Hbond.Weighted>
0.0000

> <Gold.Chemscore.DEClash.Weighted>
0.1482

> <Gold.Chemscore.DEInternal.Weighted>
1.8990

> <Gold.Chemscore.Rot.Weighted>
5.6649

> <Gold.Chemscore.Internal.Correction.Weighted>
   9.000000E+99

> <Gold.Protein.RotatedTorsions>
[ 6907 6896 6895 6894 ] final   13.51 input  -60.11 | X-H torsion
[ 7974 7965 7964 7962 ] final   92.28 input  175.53 | X-H torsion
[ 8008 7997 7996 7995 ] final   57.55 input   59.86 | X-H torsion
[ 10167 10162 10161 10158 ] final   76.03 input  -65.29 | X-H torsion
[ 10718 10713 10712 10709 ] final   91.59 input   66.30 | X-H torsion
[ 10763 10752 10751 10750 ] final  176.92 input  -60.55 | X-H torsion
[ 11005 11000 10999 10996 ] final   75.77 input  -57.11 | X-H torsion

> <Gold.Protein.ActiveResidues>
 VAL166  LYS551  ARG553  GLY616  TRP617  ASP618  TYR619  PRO620  LYS621  CYS622 
 ASP623  PHE694  ASN695  SER759  ASP760  ASP761  ALA762  ILE779  LEU786  VAL792 
 PHE793  MET794  SER795  GLU796  ALA797  LYS798  CYS799  TRP800  GLU811  SER814 

> <Gold.Protein.RotatedAtoms>
  151.7875  135.0745  160.0382 H   0  0  0  0  0  0  0  0  0  0  0  0  # atno 6907 bound_to 6896
  152.3180  133.5819  159.5734 H   0  0  0  0  0  0  0  0  0  0  0  0  # atno 6908 bound_to 6896
  150.7354  133.9970  159.3667 H   0  0  0  0  0  0  0  0  0  0  0  0  # atno 6909 bound_to 6896
  145.4944  139.2276  143.2812 H   0  0  0  0  0  0  0  0  0  0  0  0  # atno 7974 bound_to 7965
  155.5356  140.3483  155.4435 H   0  0  0  0  0  0  0  0  0  0  0  0  # atno 8008 bound_to 7997
  156.0687  140.1358  156.9881 H   0  0  0  0  0  0  0  0  0  0  0  0  # atno 8009 bound_to 7997
  154.4517  140.0970  156.6611 H   0  0  0  0  0  0  0  0  0  0  0  0  # atno 8010 bound_to 7997
  139.9966  144.5717  150.7772 H   0  0  0  0  0  0  0  0  0  0  0  0  # atno 10167 bound_to 10162
  157.6960  131.0413  150.3752 H   0  0  0  0  0  0  0  0  0  0  0  0  # atno 10718 bound_to 10713
  154.4876  135.2777  155.1522 H   0  0  0  0  0  0  0  0  0  0  0  0  # atno 10763 bound_to 10752
  154.3207  135.6210  153.5510 H   0  0  0  0  0  0  0  0  0  0  0  0  # atno 10764 bound_to 10752
  152.9883  135.5742  154.5290 H   0  0  0  0  0  0  0  0  0  0  0  0  # atno 10765 bound_to 10752
  139.9328  134.7545  156.1312 H   0  0  0  0  0  0  0  0  0  0  0  0  # atno 11005 bound_to 11000
  146.2265  140.5740  142.8994 LP  0  0  0  0  0  0  0  0  0  0  0  0  # atno 17320 bound_to 7965
  144.7816  140.5851  143.6602 LP  0  0  0  0  0  0  0  0  0  0  0  0  # atno 17321 bound_to 7965
  140.7435  143.2847  151.3499 LP  0  0  0  0  0  0  0  0  0  0  0  0  # atno 17342 bound_to 10162
  139.6302  144.0736  152.2469 LP  0  0  0  0  0  0  0  0  0  0  0  0  # atno 17343 bound_to 10162
  156.4173  130.3946  149.6850 LP  0  0  0  0  0  0  0  0  0  0  0  0  # atno 17370 bound_to 10713
  156.4113  130.7723  151.2736 LP  0  0  0  0  0  0  0  0  0  0  0  0  # atno 17371 bound_to 10713
  141.0927  133.6708  156.2576 LP  0  0  0  0  0  0  0  0  0  0  0  0  # atno 17394 bound_to 11000
  140.6154  134.5415  157.5540 LP  0  0  0  0  0  0  0  0  0  0  0  0  # atno 17395 bound_to 11000

$$$$
