AV-unprocessed.smi:1654|AV-procd|sdf|6642|dock6
  -GOLD-   22720 7343D 1   1.00000     0.00000
 Structure written by MMmdl.
 40 41  0  0  0  0  0  0  0  0  1 V2000
  149.4516  139.8865  156.6094 O   0  0  0  0  0  0  0  0  0  0  0  0
  150.3791  140.8337  155.9717 S   0  0  0  0  0  0  0  0  0  0  0  0
  151.4380  140.3640  155.0651 O   0  0  0  0  0  0  0  0  0  0  0  0
  149.4361  142.0181  155.1490 N   0  0  0  0  0  0  0  0  0  0  0  0
  148.0430  141.7038  154.8457 C   0  0  0  0  0  0  0  0  0  0  0  0
  147.9404  141.0026  153.4856 C   0  0  0  0  0  0  0  0  0  0  0  0
  146.9814  139.8291  153.5219 C   0  0  0  0  0  0  0  0  0  0  0  0
  146.2583  139.5212  154.6927 C   0  0  0  0  0  0  0  0  0  0  0  0
  145.3844  138.4169  154.6791 C   0  0  0  0  0  0  0  0  0  0  0  0
  145.2711  137.6657  153.4922 C   0  0  0  0  0  0  0  0  0  0  0  0
  145.9587  137.9513  152.3654 N   0  0  0  0  0  0  0  0  0  0  0  0
  146.7948  139.0117  152.3868 C   0  0  0  0  0  0  0  0  0  0  0  0
  151.0959  141.8422  157.1873 N   0  0  0  0  0  0  0  0  0  0  0  0
  151.1167  141.3407  158.5752 C   0  0  0  0  0  0  0  0  0  0  0  0
  152.5021  141.5345  159.2097 C   0  0  0  0  0  0  0  0  0  0  0  0
  152.7055  142.8879  159.9128 C   0  0  0  0  0  0  0  0  0  0  0  0
  152.0605  144.1043  159.2266 C   0  0  0  0  0  0  0  0  0  0  0  0
  152.1252  144.0854  157.6919 C   0  0  0  0  0  0  0  0  0  0  0  0
  150.9717  143.3031  157.0343 C   0  0  0  0  0  0  0  0  0  0  0  0
  149.5487  142.9438  155.5615 H   0  0  0  0  0  0  0  0  0  0  0  0
  147.6414  141.0682  155.6358 H   0  0  0  0  0  0  0  0  0  0  0  0
  147.4624  142.6271  154.8436 H   0  0  0  0  0  0  0  0  0  0  0  0
  147.6076  141.7086  152.7234 H   0  0  0  0  0  0  0  0  0  0  0  0
  148.9232  140.6489  153.1706 H   0  0  0  0  0  0  0  0  0  0  0  0
  146.3721  140.1177  155.5860 H   0  0  0  0  0  0  0  0  0  0  0  0
  144.8152  138.1510  155.5577 H   0  0  0  0  0  0  0  0  0  0  0  0
  144.6113  136.8118  153.4469 H   0  0  0  0  0  0  0  0  0  0  0  0
  147.3318  139.2118  151.4712 H   0  0  0  0  0  0  0  0  0  0  0  0
  150.3265  141.8093  159.1632 H   0  0  0  0  0  0  0  0  0  0  0  0
  150.8880  140.2750  158.5713 H   0  0  0  0  0  0  0  0  0  0  0  0
  152.6719  140.7459  159.9436 H   0  0  0  0  0  0  0  0  0  0  0  0
  153.2723  141.3898  158.4505 H   0  0  0  0  0  0  0  0  0  0  0  0
  152.3178  142.8263  160.9304 H   0  0  0  0  0  0  0  0  0  0  0  0
  153.7773  143.0592  160.0172 H   0  0  0  0  0  0  0  0  0  0  0  0
  151.0207  144.1986  159.5420 H   0  0  0  0  0  0  0  0  0  0  0  0
  152.5561  145.0031  159.5953 H   0  0  0  0  0  0  0  0  0  0  0  0
  152.0569  145.1169  157.3447 H   0  0  0  0  0  0  0  0  0  0  0  0
  153.0937  143.7224  157.3452 H   0  0  0  0  0  0  0  0  0  0  0  0
  150.9674  143.5484  155.9726 H   0  0  0  0  0  0  0  0  0  0  0  0
  150.0055  143.6274  157.4228 H   0  0  0  0  0  0  0  0  0  0  0  0
  1  2  2  0  0  0  0
  2  3  2  0  0  0  0
  2  4  1  0  0  0  0
  2 13  1  0  0  0  0
  4  5  1  0  0  0  0
  4 20  1  0  0  0  0
  5  6  1  0  0  0  0
  5 21  1  0  0  0  0
  5 22  1  0  0  0  0
  6  7  1  0  0  0  0
  6 23  1  0  0  0  0
  6 24  1  0  0  0  0
  7 12  1  0  0  0  0
  7  8  2  0  0  0  0
  8  9  1  0  0  0  0
  8 25  1  0  0  0  0
  9 10  2  0  0  0  0
  9 26  1  0  0  0  0
 10 11  1  0  0  0  0
 10 27  1  0  0  0  0
 11 12  2  0  0  0  0
 12 28  1  0  0  0  0
 13 19  1  0  0  0  0
 13 14  1  0  0  0  0
 14 15  1  0  0  0  0
 14 29  1  0  0  0  0
 14 30  1  0  0  0  0
 15 16  1  0  0  0  0
 15 31  1  0  0  0  0
 15 32  1  0  0  0  0
 16 17  1  0  0  0  0
 16 33  1  0  0  0  0
 16 34  1  0  0  0  0
 17 18  1  0  0  0  0
 17 35  1  0  0  0  0
 17 36  1  0  0  0  0
 18 19  1  0  0  0  0
 18 37  1  0  0  0  0
 18 38  1  0  0  0  0
 19 39  1  0  0  0  0
 19 40  1  0  0  0  0
M  END
> <s_m_source_file>
AV-unprocessed.smi

> <i_m_source_file_index>
1654

> <i_lp_mmshare_version>
43012

> <i_f3d_flags>
0

> <s_epik_input>
W0NIMl0xW0NIMl1bQ0gyXVtDSDJdW0NIMl1bQ0gyXU4xUyg9TykoPU8pW05IXVtDSDJdW0NIMl1jMltjSF1bY0hdW2NIXW5bY0hdMg==

> <s_epik_cmdline>
J2VwaWtfcHl0aG9uJywgJy1waCcsICc3LjAnLCAnLXRuJywgJzgnLCAnLW1hJywgJzIwMCcsICctbWV0YWxfYmluZGluZycsICctaW1hZScsICc8aW5maWxlLm1hZT4nLCAnLW9tYWUnLCAnPG91dGZpbGUubWFlPic=

> <r_lp_tautomer_probability>
1

> <r_epik_Ionization_Penalty>
0.00688973

> <r_epik_Ionization_Penalty_Charging>
0

> <r_epik_Ionization_Penalty_Neutral>
0.00688973

> <r_epik_State_Penalty>
-0

> <r_epik_Charging_Adjusted_Penalty>
0

> <i_epik_Tot_Q>
0

> <i_epik_Tot_abs_Q>
0

> <r_epik_Metal_State_Penalty>
0.361675

> <b_epik_Metal_Only>
0

> <s_lp_Force_Field>
OPLS_2005

> <r_lp_Energy>
15.461

> <b_lp_Chiralities_Consistent>
1

> <s_lp_Variant>
AV-unprocessed.smi:1654-1

> <Gold.Version>
5.8.1

> <Gold.Id.Protein>
6NUR|6NUR_protein|mol2

> <Gold.PLP.Fitness>
43.8308

> <Gold.PLP.PLP>
-36.8284

> <Gold.PLP.part.hbond>
-2.0000

> <Gold.PLP.part.metal>
0.0000

> <Gold.PLP.part.buried>
-0.1912

> <Gold.PLP.part.nonpolar>
-34.6500

> <Gold.PLP.part.repulsive>
0.3348

> <Gold.PLP.ligand.clash>
0.0000

> <Gold.PLP.ligand.torsion>
1.9061

> <Gold.PLP.Chemscore.Hbond>
1.9040

> <Gold.PLP.Chemscore.CHOScore>
1.0000

> <Gold.PLP.Chemscore.Metal>
0.0000

> <Gold.Chemscore.Hbonds>
donor molecule, donor type, donor heavy atom, donor atom, acceptor molecule, acceptor atom, score
      L1  H     4    20       P1  8028  0.91
      P1  H  7989  7998       L1     3  0.98
      L1  C    12    28       P1  7957  1.00

> <Gold.PLP.Chemscore.Internal.Correction>
2.1026

> <Gold.Rescore>
     Score         DG    S(hbond)    S(metal)    S(lipo)     H(rot)  DE(clash)    DE(int)     intcor
     16.75     -18.82       1.76        0.00      95.88       1.47       0.16       1.91       ----

> <Gold.Chemscore.Fitness>
16.7469

> <Gold.Chemscore.DG>
-18.8192

> <Gold.Chemscore.ZeroCoef>
-5.4800

> <Gold.Chemscore.Hbond>
1.7638

> <Gold.Chemscore.Metal>
0.0000

> <Gold.Chemscore.Lipo>
95.8793

> <Gold.Chemscore.Internal_Hbond>
0.0000

> <Gold.Chemscore.DEClash>
0.1574

> <Gold.Chemscore.DEInternal>
1.9148

> <Gold.Chemscore.Rot>
1.4725

> <Gold.Chemscore.Internal.Correction>
   9.000000E+99

> <Gold.Chemscore.Hbonds>
donor molecule, donor type, donor heavy atom, donor atom, acceptor molecule, acceptor atom, score
      L1  H     4    20       P1  8028  0.89
      P1  H  7989  7998       L1     3  0.93

> <Gold.Chemscore.Hbond.Weighted>
-5.8910

> <Gold.Chemscore.Metal.Weighted>
-0.0000

> <Gold.Chemscore.Lipo.Weighted>
-11.2179

> <Gold.Chemscore.Internal_Hbond.Weighted>
0.0000

> <Gold.Chemscore.DEClash.Weighted>
0.1574

> <Gold.Chemscore.DEInternal.Weighted>
1.9148

> <Gold.Chemscore.Rot.Weighted>
3.7697

> <Gold.Chemscore.Internal.Correction.Weighted>
   9.000000E+99

> <Gold.Protein.RotatedTorsions>
[ 6907 6896 6895 6894 ] final  -12.77 input  -60.11 | X-H torsion
[ 7974 7965 7964 7962 ] final  -22.21 input  175.53 | X-H torsion
[ 8008 7997 7996 7995 ] final -123.79 input   59.86 | X-H torsion
[ 10167 10162 10161 10158 ] final  -98.94 input  -65.29 | X-H torsion
[ 10718 10713 10712 10709 ] final  124.05 input   66.30 | X-H torsion
[ 10763 10752 10751 10750 ] final   70.50 input  -60.55 | X-H torsion
[ 11005 11000 10999 10996 ] final -148.67 input  -57.11 | X-H torsion

> <Gold.Protein.ActiveResidues>
 VAL166  LYS551  ARG553  GLY616  TRP617  ASP618  TYR619  PRO620  LYS621  CYS622 
 ASP623  PHE694  ASN695  SER759  ASP760  ASP761  ALA762  ILE779  LEU786  VAL792 
 PHE793  MET794  SER795  GLU796  ALA797  LYS798  CYS799  TRP800  GLU811  SER814 

> <Gold.Protein.RotatedAtoms>
  151.3653  135.0912  159.9447 H   0  0  0  0  0  0  0  0  0  0  0  0  # atno 6907 bound_to 6896
  152.5151  133.9218  159.7548 H   0  0  0  0  0  0  0  0  0  0  0  0  # atno 6908 bound_to 6896
  150.9621  133.6380  159.2782 H   0  0  0  0  0  0  0  0  0  0  0  0  # atno 6909 bound_to 6896
  146.1689  140.4448  142.8541 H   0  0  0  0  0  0  0  0  0  0  0  0  # atno 7974 bound_to 7965
  155.1862  140.0412  157.2892 H   0  0  0  0  0  0  0  0  0  0  0  0  # atno 8008 bound_to 7997
  154.6169  140.2491  155.7569 H   0  0  0  0  0  0  0  0  0  0  0  0  # atno 8009 bound_to 7997
  156.2412  140.2903  156.0459 H   0  0  0  0  0  0  0  0  0  0  0  0  # atno 8010 bound_to 7997
  140.2677  143.3365  152.0565 H   0  0  0  0  0  0  0  0  0  0  0  0  # atno 10167 bound_to 10162
  157.5616  131.1089  150.8528 H   0  0  0  0  0  0  0  0  0  0  0  0  # atno 10718 bound_to 10713
  153.0345  135.5171  154.7450 H   0  0  0  0  0  0  0  0  0  0  0  0  # atno 10763 bound_to 10752
  154.6438  135.2916  155.0073 H   0  0  0  0  0  0  0  0  0  0  0  0  # atno 10764 bound_to 10752
  154.0982  135.6640  153.4916 H   0  0  0  0  0  0  0  0  0  0  0  0  # atno 10765 bound_to 10752
  140.7588  134.3322  157.5107 H   0  0  0  0  0  0  0  0  0  0  0  0  # atno 11005 bound_to 11000
  144.8133  140.6423  143.6401 LP  0  0  0  0  0  0  0  0  0  0  0  0  # atno 17320 bound_to 7965
  145.4394  139.1538  143.3978 LP  0  0  0  0  0  0  0  0  0  0  0  0  # atno 17321 bound_to 7965
  139.4998  144.6677  151.6317 LP  0  0  0  0  0  0  0  0  0  0  0  0  # atno 17342 bound_to 10162
  140.5915  143.9771  150.6327 LP  0  0  0  0  0  0  0  0  0  0  0  0  # atno 17343 bound_to 10162
  156.9025  130.5251  149.5282 LP  0  0  0  0  0  0  0  0  0  0  0  0  # atno 17370 bound_to 10713
  156.0668  130.5709  150.9304 LP  0  0  0  0  0  0  0  0  0  0  0  0  # atno 17371 bound_to 10713
  139.8774  134.9189  156.3213 LP  0  0  0  0  0  0  0  0  0  0  0  0  # atno 17394 bound_to 11000
  140.9683  133.7344  156.0498 LP  0  0  0  0  0  0  0  0  0  0  0  0  # atno 17395 bound_to 11000

$$$$
