AV-unprocessed.smi:2607|AV-procd|sdf|10198|dock8
  -GOLD-   2272014213D 1   1.00000     0.00000
 Structure written by MMmdl.
 22 23  0  0  0  0  0  0  0  0  1 V2000
  145.1519  134.5532  154.3057 C   0  0  0  0  0  0  0  0  0  0  0  0
  144.1098  134.5398  153.1706 C   0  0  1  0  0  0  0  0  0  0  0  0
  144.5733  133.6906  151.9758 C   0  0  0  0  0  0  0  0  0  0  0  0
  143.7464  133.4451  150.8499 C   0  0  0  0  0  0  0  0  0  0  0  0
  144.1600  132.6955  149.8040 N   0  0  0  0  0  0  0  0  0  0  0  0
  145.4074  132.1835  149.8807 C   0  0  0  0  0  0  0  0  0  0  0  0
  146.2361  132.4170  150.9971 C   0  0  0  0  0  0  0  0  0  0  0  0
  145.8225  133.1655  152.0427 N   0  0  0  0  0  0  0  0  0  0  0  0
  142.8133  134.1305  153.6971 N   0  0  0  0  0  0  0  0  0  0  0  0
  141.8601  135.0568  153.5326 C   0  0  0  0  0  0  0  0  0  0  0  0
  140.6809  134.9459  153.8587 O   0  0  0  0  0  0  0  0  0  0  0  0
  142.4225  136.1251  152.9623 N   0  0  0  0  0  0  0  0  0  0  0  0
  143.7233  135.9537  152.7341 C   0  0  0  0  0  0  0  0  0  0  0  0
  144.4967  136.7881  152.2661 O   0  0  0  0  0  0  0  0  0  0  0  0
  146.1160  134.9284  153.9606 H   0  0  0  0  0  0  0  0  0  0  0  0
  145.3128  133.5493  154.7001 H   0  0  0  0  0  0  0  0  0  0  0  0
  144.8345  135.1853  155.1365 H   0  0  0  0  0  0  0  0  0  0  0  0
  142.7462  133.8444  150.7739 H   0  0  0  0  0  0  0  0  0  0  0  0
  145.7460  131.5838  149.0489 H   0  0  0  0  0  0  0  0  0  0  0  0
  147.2318  132.0028  151.0519 H   0  0  0  0  0  0  0  0  0  0  0  0
  142.6555  133.2230  154.1106 H   0  0  0  0  0  0  0  0  0  0  0  0
  141.9223  136.9753  152.7475 H   0  0  0  0  0  0  0  0  0  0  0  0
  1  2  1  0  0  0  0
  1 15  1  0  0  0  0
  1 16  1  0  0  0  0
  1 17  1  0  0  0  0
  2 13  1  0  0  0  0
  2  3  1  0  0  0  0
  2  9  1  0  0  0  0
  3  8  1  0  0  0  0
  3  4  2  0  0  0  0
  4  5  1  0  0  0  0
  4 18  1  0  0  0  0
  5  6  2  0  0  0  0
  6  7  1  0  0  0  0
  6 19  1  0  0  0  0
  7  8  2  0  0  0  0
  7 20  1  0  0  0  0
  9 10  1  0  0  0  0
  9 21  1  0  0  0  0
 10 11  2  0  0  0  0
 10 12  1  0  0  0  0
 12 13  1  0  0  0  0
 12 22  1  0  0  0  0
 13 14  2  0  0  0  0
M  END
> <s_m_source_file>
AV-unprocessed.smi

> <i_m_source_file_index>
2607

> <i_lp_mmshare_version>
43012

> <i_f3d_flags>
0

> <s_epik_input>
Tz1DMVtOSF1DKD1PKVtOSF1bQ0BAXTEoW0NIM10pYzJbY0hdbltjSF1bY0hdbjI=

> <s_epik_cmdline>
J2VwaWtfcHl0aG9uJywgJy1waCcsICc3LjAnLCAnLXRuJywgJzgnLCAnLW1hJywgJzIwMCcsICctbWV0YWxfYmluZGluZycsICctaW1hZScsICc8aW5maWxlLm1hZT4nLCAnLW9tYWUnLCAnPG91dGZpbGUubWFlPic=

> <r_lp_tautomer_probability>
1

> <r_epik_Ionization_Penalty>
0.0333762

> <r_epik_Ionization_Penalty_Charging>
0

> <r_epik_Ionization_Penalty_Neutral>
0.0333762

> <r_epik_State_Penalty>
0.027503

> <r_epik_Charging_Adjusted_Penalty>
0.027503

> <i_epik_Tot_Q>
0

> <i_epik_Tot_abs_Q>
0

> <r_epik_Metal_State_Penalty>
0.445281

> <b_epik_Metal_Only>
0

> <s_lp_Force_Field>
OPLS_2005

> <r_lp_Energy>
24.1998

> <b_lp_Chiralities_Consistent>
1

> <s_lp_Variant>
AV-unprocessed.smi:2607-1

> <Gold.Version>
5.8.1

> <Gold.Id.Protein>
6NUR|6NUR_protein|mol2

> <Gold.PLP.Fitness>
32.6767

> <Gold.PLP.PLP>
-20.7651

> <Gold.PLP.part.hbond>
-2.8580

> <Gold.PLP.part.metal>
0.0000

> <Gold.PLP.part.buried>
-4.7818

> <Gold.PLP.part.nonpolar>
-13.9256

> <Gold.PLP.part.repulsive>
1.1767

> <Gold.PLP.ligand.clash>
0.0000

> <Gold.PLP.ligand.torsion>
0.1031

> <Gold.PLP.Chemscore.Hbond>
2.0000

> <Gold.PLP.Chemscore.CHOScore>
2.0000

> <Gold.PLP.Chemscore.Metal>
0.0000

> <Gold.Chemscore.Hbonds>
donor molecule, donor type, donor heavy atom, donor atom, acceptor molecule, acceptor atom, score
      L1  H     9    21       P1 10957  1.00
      P1  H 11000 11005       L1    11  1.00
      L1  C     4    18       P1 10186  1.00
      L1  C     7    20       P1 10747  1.00

> <Gold.PLP.Chemscore.Internal.Correction>
0.1176

> <Gold.Rescore>
     Score         DG    S(hbond)    S(metal)    S(lipo)     H(rot)  DE(clash)    DE(int)     intcor
     13.56     -13.76       1.97        0.00      36.27       1.00       0.07       0.14       ----

> <Gold.Chemscore.Fitness>
13.5552

> <Gold.Chemscore.DG>
-13.7591

> <Gold.Chemscore.ZeroCoef>
-5.4800

> <Gold.Chemscore.Hbond>
1.9746

> <Gold.Chemscore.Metal>
0.0000

> <Gold.Chemscore.Lipo>
36.2718

> <Gold.Chemscore.Internal_Hbond>
0.0000

> <Gold.Chemscore.DEClash>
0.0686

> <Gold.Chemscore.DEInternal>
0.1353

> <Gold.Chemscore.Rot>
1.0000

> <Gold.Chemscore.Internal.Correction>
   9.000000E+99

> <Gold.Chemscore.Hbonds>
donor molecule, donor type, donor heavy atom, donor atom, acceptor molecule, acceptor atom, score
      L1  H     9    21       P1 10957  0.99
      P1  H 11000 11005       L1    11  0.91

> <Gold.Chemscore.Hbond.Weighted>
-6.5953

> <Gold.Chemscore.Metal.Weighted>
-0.0000

> <Gold.Chemscore.Lipo.Weighted>
-4.2438

> <Gold.Chemscore.Internal_Hbond.Weighted>
0.0000

> <Gold.Chemscore.DEClash.Weighted>
0.0686

> <Gold.Chemscore.DEInternal.Weighted>
0.1353

> <Gold.Chemscore.Rot.Weighted>
2.5600

> <Gold.Chemscore.Internal.Correction.Weighted>
   9.000000E+99

> <Gold.Protein.RotatedTorsions>
[ 6907 6896 6895 6894 ] final  148.14 input  -60.11 | X-H torsion
[ 7974 7965 7964 7962 ] final -113.73 input  175.53 | X-H torsion
[ 8008 7997 7996 7995 ] final   13.97 input   59.86 | X-H torsion
[ 10167 10162 10161 10158 ] final  178.47 input  -65.29 | X-H torsion
[ 10718 10713 10712 10709 ] final   59.95 input   66.30 | X-H torsion
[ 10763 10752 10751 10750 ] final  -60.45 input  -60.55 | X-H torsion
[ 11005 11000 10999 10996 ] final   30.15 input  -57.11 | X-H torsion

> <Gold.Protein.ActiveResidues>
 VAL166  LYS551  ARG553  GLY616  TRP617  ASP618  TYR619  PRO620  LYS621  CYS622 
 ASP623  PHE694  ASN695  SER759  ASP760  ASP761  ALA762  ILE779  LEU786  VAL792 
 PHE793  MET794  SER795  GLU796  ALA797  LYS798  CYS799  TRP800  GLU811  SER814 

> <Gold.Protein.RotatedAtoms>
  152.1454  133.4489  159.4787 H   0  0  0  0  0  0  0  0  0  0  0  0  # atno 6907 bound_to 6896
  150.6890  134.2254  159.4422 H   0  0  0  0  0  0  0  0  0  0  0  0  # atno 6908 bound_to 6896
  152.0147  134.9856  160.0619 H   0  0  0  0  0  0  0  0  0  0  0  0  # atno 6909 bound_to 6896
  145.1286  140.8711  143.3771 H   0  0  0  0  0  0  0  0  0  0  0  0  # atno 7974 bound_to 7965
  154.8419  140.2916  155.5654 H   0  0  0  0  0  0  0  0  0  0  0  0  # atno 8008 bound_to 7997
  156.3012  140.2512  156.3294 H   0  0  0  0  0  0  0  0  0  0  0  0  # atno 8009 bound_to 7997
  154.9116  140.0388  157.1939 H   0  0  0  0  0  0  0  0  0  0  0  0  # atno 8010 bound_to 7997
  139.5295  144.2676  152.0655 H   0  0  0  0  0  0  0  0  0  0  0  0  # atno 10167 bound_to 10162
  157.5715  130.8911  149.9275 H   0  0  0  0  0  0  0  0  0  0  0  0  # atno 10718 bound_to 10713
  154.2694  135.6293  153.5304 H   0  0  0  0  0  0  0  0  0  0  0  0  # atno 10763 bound_to 10752
  152.9882  135.5606  154.5617 H   0  0  0  0  0  0  0  0  0  0  0  0  # atno 10764 bound_to 10752
  154.5184  135.2881  155.1259 H   0  0  0  0  0  0  0  0  0  0  0  0  # atno 10765 bound_to 10752
  140.2974  134.2795  155.7761 H   0  0  0  0  0  0  0  0  0  0  0  0  # atno 11005 bound_to 11000
  145.0661  139.3068  143.5856 LP  0  0  0  0  0  0  0  0  0  0  0  0  # atno 17320 bound_to 7965
  146.3516  140.0119  142.8666 LP  0  0  0  0  0  0  0  0  0  0  0  0  # atno 17321 bound_to 7965
  140.2137  144.4537  150.6374 LP  0  0  0  0  0  0  0  0  0  0  0  0  # atno 17342 bound_to 10162
  140.6464  143.2214  151.6177 LP  0  0  0  0  0  0  0  0  0  0  0  0  # atno 17343 bound_to 10162
  156.0761  130.3679  150.0676 LP  0  0  0  0  0  0  0  0  0  0  0  0  # atno 17370 bound_to 10713
  156.8828  130.9562  151.3597 LP  0  0  0  0  0  0  0  0  0  0  0  0  # atno 17371 bound_to 10713
  141.2135  133.7624  156.9716 LP  0  0  0  0  0  0  0  0  0  0  0  0  # atno 17394 bound_to 11000
  140.1140  134.9459  157.2107 LP  0  0  0  0  0  0  0  0  0  0  0  0  # atno 17395 bound_to 11000

$$$$
