AV-unprocessed.smi:2357|AV-procd|sdf|9401|dock10
  -GOLD-   2272013 33D 1   1.00000     0.00000
 Structure written by MMmdl.
 37 38  0  0  0  0  0  0  0  0  1 V2000
  152.1992  143.8943  161.2703 C   0  0  0  0  0  0  0  0  0  0  0  0
  152.0307  143.0749  160.0043 C   0  0  0  0  0  0  0  0  0  0  0  0
  151.1233  143.5199  158.9669 C   0  0  0  0  0  0  0  0  0  0  0  0
  150.9926  142.7882  157.8501 C   0  0  0  0  0  0  0  0  0  0  0  0
  151.7097  141.5947  157.6553 N   0  0  0  0  0  0  0  0  0  0  0  0
  151.5044  140.8835  156.3830 C   0  0  0  0  0  0  0  0  0  0  0  0
  150.0262  140.5506  156.1468 C   0  0  0  0  0  0  0  0  0  0  0  0
  149.3583  140.0291  157.0400 O   0  0  0  0  0  0  0  0  0  0  0  0
  149.5339  140.8573  154.9377 N   0  0  0  0  0  0  0  0  0  0  0  0
  148.1366  140.7240  154.5384 C   0  0  0  0  0  0  0  0  0  0  0  0
  147.2611  141.9003  155.0210 C   0  0  2  0  0  0  0  0  0  0  0  0
  145.8629  141.5328  155.5329 C   0  0  0  0  0  0  0  0  0  0  0  0
  145.0978  142.8118  155.2791 C   0  0  0  0  0  0  0  0  0  0  0  0
  145.6925  143.2652  153.9503 C   0  0  0  0  0  0  0  0  0  0  0  0
  147.0574  142.8602  153.9854 O   0  0  0  0  0  0  0  0  0  0  0  0
  152.5780  141.1102  158.5943 C   0  0  0  0  0  0  0  0  0  0  0  0
  153.1994  140.0596  158.4207 O   0  0  0  0  0  0  0  0  0  0  0  0
  152.7188  141.9240  159.8119 C   0  0  0  0  0  0  0  0  0  0  0  0
  153.6361  141.4242  160.7850 C   0  0  0  0  0  0  0  0  0  0  0  0
  154.3912  141.0359  161.5718 N   0  0  0  0  0  0  0  0  0  0  0  0
  151.5845  144.7943  161.2425 H   0  0  0  0  0  0  0  0  0  0  0  0
  153.2389  144.1993  161.3918 H   0  0  0  0  0  0  0  0  0  0  0  0
  151.9059  143.3109  162.1435 H   0  0  0  0  0  0  0  0  0  0  0  0
  150.5597  144.4341  159.0835 H   0  0  0  0  0  0  0  0  0  0  0  0
  150.3401  143.0728  157.0375 H   0  0  0  0  0  0  0  0  0  0  0  0
  151.8974  141.4763  155.5547 H   0  0  0  0  0  0  0  0  0  0  0  0
  152.0699  139.9511  156.3621 H   0  0  0  0  0  0  0  0  0  0  0  0
  150.1609  141.2708  154.2627 H   0  0  0  0  0  0  0  0  0  0  0  0
  148.1110  140.6806  153.4493 H   0  0  0  0  0  0  0  0  0  0  0  0
  147.7274  139.7758  154.8910 H   0  0  0  0  0  0  0  0  0  0  0  0
  147.7906  142.4243  155.8180 H   0  0  0  0  0  0  0  0  0  0  0  0
  145.4152  140.7270  154.9508 H   0  0  0  0  0  0  0  0  0  0  0  0
  145.8603  141.2346  156.5817 H   0  0  0  0  0  0  0  0  0  0  0  0
  144.0181  142.6656  155.2352 H   0  0  0  0  0  0  0  0  0  0  0  0
  145.3158  143.5425  156.0593 H   0  0  0  0  0  0  0  0  0  0  0  0
  145.2013  142.7568  153.1200 H   0  0  0  0  0  0  0  0  0  0  0  0
  145.5976  144.3396  153.7930 H   0  0  0  0  0  0  0  0  0  0  0  0
  1  2  1  0  0  0  0
  1 21  1  0  0  0  0
  1 22  1  0  0  0  0
  1 23  1  0  0  0  0
  2 18  2  0  0  0  0
  2  3  1  0  0  0  0
  3  4  2  0  0  0  0
  3 24  1  0  0  0  0
  4  5  1  0  0  0  0
  4 25  1  0  0  0  0
  5  6  1  0  0  0  0
  5 16  1  0  0  0  0
  6  7  1  0  0  0  0
  6 26  1  0  0  0  0
  6 27  1  0  0  0  0
  7  8  2  0  0  0  0
  7  9  1  0  0  0  0
  9 10  1  0  0  0  0
  9 28  1  0  0  0  0
 10 11  1  0  0  0  0
 10 29  1  0  0  0  0
 10 30  1  0  0  0  0
 11 15  1  0  0  0  0
 11 12  1  0  0  0  0
 11 31  1  0  0  0  0
 12 13  1  0  0  0  0
 12 32  1  0  0  0  0
 12 33  1  0  0  0  0
 13 14  1  0  0  0  0
 13 34  1  0  0  0  0
 13 35  1  0  0  0  0
 14 15  1  0  0  0  0
 14 36  1  0  0  0  0
 14 37  1  0  0  0  0
 16 17  2  0  0  0  0
 16 18  1  0  0  0  0
 18 19  1  0  0  0  0
 19 20  3  0  0  0  0
M  END
> <s_m_source_file>
AV-unprocessed.smi

> <i_m_source_file_index>
2357

> <i_lp_mmshare_version>
43012

> <i_f3d_flags>
0

> <s_epik_input>
W0NIM11jMVtjSF1bY0hdbihjKD1PKWMxQyNOKVtDSDJdQyg9TylbTkhdW0NIMl1bQ0BASF0yW0NIMl1bQ0gyXVtDSDJdTzI=

> <s_epik_cmdline>
J2VwaWtfcHl0aG9uJywgJy1waCcsICc3LjAnLCAnLXRuJywgJzgnLCAnLW1hJywgJzIwMCcsICctbWV0YWxfYmluZGluZycsICctaW1hZScsICc8aW5maWxlLm1hZT4nLCAnLW9tYWUnLCAnPG91dGZpbGUubWFlPic=

> <r_lp_tautomer_probability>
1

> <r_epik_Ionization_Penalty>
2.71597e-08

> <r_epik_Ionization_Penalty_Charging>
3.00645e-10

> <r_epik_Ionization_Penalty_Neutral>
2.6859e-08

> <r_epik_State_Penalty>
-0

> <r_epik_Charging_Adjusted_Penalty>
3.00645e-10

> <i_epik_Tot_Q>
0

> <i_epik_Tot_abs_Q>
0

> <r_epik_Metal_State_Penalty>
-0

> <b_epik_Metal_Only>
0

> <s_lp_Force_Field>
OPLS_2005

> <r_lp_Energy>
27.3681

> <b_lp_Chiralities_Consistent>
1

> <s_lp_Variant>
AV-unprocessed.smi:2357-1

> <Gold.Version>
5.8.1

> <Gold.Id.Protein>
6NUR|6NUR_protein|mol2

> <Gold.PLP.Fitness>
44.6092

> <Gold.PLP.PLP>
-39.8480

> <Gold.PLP.part.hbond>
-2.2718

> <Gold.PLP.part.metal>
0.0000

> <Gold.PLP.part.buried>
-4.0048

> <Gold.PLP.part.nonpolar>
-33.7915

> <Gold.PLP.part.repulsive>
0.9304

> <Gold.PLP.ligand.clash>
0.0000

> <Gold.PLP.ligand.torsion>
0.8420

> <Gold.PLP.Chemscore.Hbond>
1.1475

> <Gold.PLP.Chemscore.CHOScore>
1.0000

> <Gold.PLP.Chemscore.Metal>
0.0000

> <Gold.Chemscore.Hbonds>
donor molecule, donor type, donor heavy atom, donor atom, acceptor molecule, acceptor atom, score
      P1  H  7997  8009       L1    17  1.00
      L1  C     4    25       P1  8028  0.86

> <Gold.PLP.Chemscore.Internal.Correction>
0.0027

> <Gold.Rescore>
     Score         DG    S(hbond)    S(metal)    S(lipo)     H(rot)  DE(clash)    DE(int)     intcor
     12.80     -13.94       0.99        0.00      82.56       1.76       0.14       1.00       ----

> <Gold.Chemscore.Fitness>
12.8018

> <Gold.Chemscore.DG>
-13.9351

> <Gold.Chemscore.ZeroCoef>
-5.4800

> <Gold.Chemscore.Hbond>
0.9865

> <Gold.Chemscore.Metal>
0.0000

> <Gold.Chemscore.Lipo>
82.5640

> <Gold.Chemscore.Internal_Hbond>
0.0000

> <Gold.Chemscore.DEClash>
0.1373

> <Gold.Chemscore.DEInternal>
0.9961

> <Gold.Chemscore.Rot>
1.7577

> <Gold.Chemscore.Internal.Correction>
   9.000000E+99

> <Gold.Chemscore.Hbonds>
donor molecule, donor type, donor heavy atom, donor atom, acceptor molecule, acceptor atom, score
      P1  H  7997  8009       L1    17  0.88
      P1  H  8022  8030       L1    15  0.02

> <Gold.Chemscore.Hbond.Weighted>
-3.2950

> <Gold.Chemscore.Metal.Weighted>
-0.0000

> <Gold.Chemscore.Lipo.Weighted>
-9.6600

> <Gold.Chemscore.Internal_Hbond.Weighted>
0.0000

> <Gold.Chemscore.DEClash.Weighted>
0.1373

> <Gold.Chemscore.DEInternal.Weighted>
0.9961

> <Gold.Chemscore.Rot.Weighted>
4.4998

> <Gold.Chemscore.Internal.Correction.Weighted>
   9.000000E+99

> <Gold.Protein.RotatedTorsions>
[ 6907 6896 6895 6894 ] final  100.26 input  -60.11 | X-H torsion
[ 7974 7965 7964 7962 ] final  -51.95 input  175.53 | X-H torsion
[ 8008 7997 7996 7995 ] final  158.02 input   59.86 | X-H torsion
[ 10167 10162 10161 10158 ] final   92.90 input  -65.29 | X-H torsion
[ 10718 10713 10712 10709 ] final    9.91 input   66.30 | X-H torsion
[ 10763 10752 10751 10750 ] final  120.75 input  -60.55 | X-H torsion
[ 11005 11000 10999 10996 ] final  132.21 input  -57.11 | X-H torsion

> <Gold.Protein.ActiveResidues>
 VAL166  LYS551  ARG553  GLY616  TRP617  ASP618  TYR619  PRO620  LYS621  CYS622 
 ASP623  PHE694  ASN695  SER759  ASP760  ASP761  ALA762  ILE779  LEU786  VAL792 
 PHE793  MET794  SER795  GLU796  ALA797  LYS798  CYS799  TRP800  GLU811  SER814 

> <Gold.Protein.RotatedAtoms>
  152.5376  134.0304  159.8021 H   0  0  0  0  0  0  0  0  0  0  0  0  # atno 6907 bound_to 6896
  151.0475  133.5645  159.2652 H   0  0  0  0  0  0  0  0  0  0  0  0  # atno 6908 bound_to 6896
  151.2591  135.0655  159.9145 H   0  0  0  0  0  0  0  0  0  0  0  0  # atno 6909 bound_to 6896
  145.9134  140.7896  142.9684 H   0  0  0  0  0  0  0  0  0  0  0  0  # atno 7974 bound_to 7965
  156.2328  140.1869  156.7197 H   0  0  0  0  0  0  0  0  0  0  0  0  # atno 8008 bound_to 7997
  154.6053  140.0630  156.9450 H   0  0  0  0  0  0  0  0  0  0  0  0  # atno 8009 bound_to 7997
  155.2105  140.3299  155.4332 H   0  0  0  0  0  0  0  0  0  0  0  0  # atno 8010 bound_to 7997
  139.8232  144.6722  150.9493 H   0  0  0  0  0  0  0  0  0  0  0  0  # atno 10167 bound_to 10162
  156.9732  130.5977  149.5670 H   0  0  0  0  0  0  0  0  0  0  0  0  # atno 10718 bound_to 10713
  153.6034  135.3444  155.2953 H   0  0  0  0  0  0  0  0  0  0  0  0  # atno 10763 bound_to 10752
  154.8632  135.4233  154.2387 H   0  0  0  0  0  0  0  0  0  0  0  0  # atno 10764 bound_to 10752
  153.3221  135.7039  153.7093 H   0  0  0  0  0  0  0  0  0  0  0  0  # atno 10765 bound_to 10752
  139.9776  134.9558  156.9549 H   0  0  0  0  0  0  0  0  0  0  0  0  # atno 11005 bound_to 11000
  144.6745  140.1861  143.7401 LP  0  0  0  0  0  0  0  0  0  0  0  0  # atno 17320 bound_to 7965
  145.8643  139.2239  143.1698 LP  0  0  0  0  0  0  0  0  0  0  0  0  # atno 17321 bound_to 7965
  140.7812  143.4072  151.1052 LP  0  0  0  0  0  0  0  0  0  0  0  0  # atno 17342 bound_to 10162
  139.7731  143.8465  152.3124 LP  0  0  0  0  0  0  0  0  0  0  0  0  # atno 17343 bound_to 10162
  156.0274  130.5367  150.8443 LP  0  0  0  0  0  0  0  0  0  0  0  0  # atno 17370 bound_to 10713
  157.5578  131.0945  150.9604 LP  0  0  0  0  0  0  0  0  0  0  0  0  # atno 17371 bound_to 10713
  140.5162  134.0953  155.7281 LP  0  0  0  0  0  0  0  0  0  0  0  0  # atno 17394 bound_to 11000
  141.1452  133.9068  157.2232 LP  0  0  0  0  0  0  0  0  0  0  0  0  # atno 17395 bound_to 11000

$$$$
