AV-unprocessed.smi:2946|AV-procd|sdf|11281|dock5
  -GOLD-   2272016173D 1   1.00000     0.00000
 Structure written by MMmdl.
 35 36  0  0  0  0  0  0  0  0  1 V2000
  150.4070  144.8470  158.9283 C   0  0  0  0  0  0  0  0  0  0  0  0
  151.2343  143.6751  159.1335 N   0  0  0  0  0  0  0  0  0  0  0  0
  151.4269  142.6639  158.1878 C   0  0  0  0  0  0  0  0  0  0  0  0
  150.7675  142.7845  156.9692 N   0  0  0  0  0  0  0  0  0  0  0  0
  150.8306  141.8500  155.8549 C   0  0  0  0  0  0  0  0  0  0  0  0
  149.4608  141.2220  155.5549 C   0  0  1  0  0  0  0  0  0  0  0  0
  148.6722  141.8756  154.4170 C   0  0  0  0  0  0  0  0  0  0  0  0
  147.7989  140.7295  153.9593 C   0  0  0  0  0  0  0  0  0  0  0  0
  148.7460  139.5415  154.1002 C   0  0  0  0  0  0  0  0  0  0  0  0
  149.5877  139.8445  155.2095 O   0  0  0  0  0  0  0  0  0  0  0  0
  152.2398  141.6035  158.4543 C   0  0  0  0  0  0  0  0  0  0  0  0
  152.5220  140.5723  157.5057 C   0  0  0  0  0  0  0  0  0  0  0  0
  152.7683  139.7451  156.7335 N   0  0  0  0  0  0  0  0  0  0  0  0
  152.9268  141.4565  159.7355 C   0  0  0  0  0  0  0  0  0  0  0  0
  153.6806  140.5188  160.0067 O   0  0  0  0  0  0  0  0  0  0  0  0
  152.6695  142.4847  160.6648 N   0  0  0  0  0  0  0  0  0  0  0  0
  153.3342  142.3756  161.9488 C   0  0  0  0  0  0  0  0  0  0  0  0
  151.8458  143.6011  160.4091 C   0  0  0  0  0  0  0  0  0  0  0  0
  151.6649  144.4818  161.2554 O   0  0  0  0  0  0  0  0  0  0  0  0
  150.0571  144.8943  157.8997 H   0  0  0  0  0  0  0  0  0  0  0  0
  151.0169  145.7283  159.1361 H   0  0  0  0  0  0  0  0  0  0  0  0
  149.5600  144.7687  159.6122 H   0  0  0  0  0  0  0  0  0  0  0  0
  149.8693  143.2435  157.0246 H   0  0  0  0  0  0  0  0  0  0  0  0
  151.1982  142.3825  154.9774 H   0  0  0  0  0  0  0  0  0  0  0  0
  151.5424  141.0526  156.0666 H   0  0  0  0  0  0  0  0  0  0  0  0
  148.8508  141.2634  156.4584 H   0  0  0  0  0  0  0  0  0  0  0  0
  148.1012  142.7459  154.7412 H   0  0  0  0  0  0  0  0  0  0  0  0
  149.3271  142.1850  153.6024 H   0  0  0  0  0  0  0  0  0  0  0  0
  146.9479  140.6147  154.6322 H   0  0  0  0  0  0  0  0  0  0  0  0
  147.4202  140.8557  152.9446 H   0  0  0  0  0  0  0  0  0  0  0  0
  148.2165  138.5998  154.2462 H   0  0  0  0  0  0  0  0  0  0  0  0
  149.3678  139.4450  153.2095 H   0  0  0  0  0  0  0  0  0  0  0  0
  152.9470  143.1041  162.6605 H   0  0  0  0  0  0  0  0  0  0  0  0
  154.3981  142.5410  161.7717 H   0  0  0  0  0  0  0  0  0  0  0  0
  153.1459  141.3729  162.3377 H   0  0  0  0  0  0  0  0  0  0  0  0
  1  2  1  0  0  0  0
  1 20  1  0  0  0  0
  1 21  1  0  0  0  0
  1 22  1  0  0  0  0
  2 18  1  0  0  0  0
  2  3  1  0  0  0  0
  3  4  1  0  0  0  0
  3 11  2  0  0  0  0
  4  5  1  0  0  0  0
  4 23  1  0  0  0  0
  5  6  1  0  0  0  0
  5 24  1  0  0  0  0
  5 25  1  0  0  0  0
  6 10  1  0  0  0  0
  6  7  1  0  0  0  0
  6 26  1  0  0  0  0
  7  8  1  0  0  0  0
  7 27  1  0  0  0  0
  7 28  1  0  0  0  0
  8  9  1  0  0  0  0
  8 29  1  0  0  0  0
  8 30  1  0  0  0  0
  9 10  1  0  0  0  0
  9 31  1  0  0  0  0
  9 32  1  0  0  0  0
 11 12  1  0  0  0  0
 11 14  1  0  0  0  0
 12 13  3  0  0  0  0
 14 15  2  0  0  0  0
 14 16  1  0  0  0  0
 16 17  1  0  0  0  0
 16 18  1  0  0  0  0
 17 33  1  0  0  0  0
 17 34  1  0  0  0  0
 17 35  1  0  0  0  0
 18 19  2  0  0  0  0
M  END
> <s_m_source_file>
AV-unprocessed.smi

> <i_m_source_file_index>
2946

> <i_lp_mmshare_version>
43012

> <i_f3d_flags>
0

> <s_epik_input>
Tz1jMW4oW0NIM10pYyg9TyljKEMjTiljKG4xW0NIM10pW05IXVtDSDJdW0NAQEhdMltDSDJdW0NIMl1bQ0gyXU8y

> <s_epik_cmdline>
J2VwaWtfcHl0aG9uJywgJy1waCcsICc3LjAnLCAnLXRuJywgJzgnLCAnLW1hJywgJzIwMCcsICctbWV0YWxfYmluZGluZycsICctaW1hZScsICc8aW5maWxlLm1hZT4nLCAnLW9tYWUnLCAnPG91dGZpbGUubWFlPic=

> <r_epik_Ionization_Penalty>
0.000541801

> <r_epik_Ionization_Penalty_Charging>
8.97317e-10

> <r_epik_Ionization_Penalty_Neutral>
0.000541801

> <r_epik_State_Penalty>
0.000338907

> <r_epik_Charging_Adjusted_Penalty>
0.000338908

> <i_epik_Tot_Q>
0

> <i_epik_Tot_abs_Q>
0

> <r_epik_Metal_State_Penalty>
-0

> <b_epik_Metal_Only>
0

> <s_lp_Force_Field>
OPLS_2005

> <r_lp_Energy>
39.9681

> <b_lp_Chiralities_Consistent>
1

> <s_lp_Variant>
AV-unprocessed.smi:2946-2

> <Gold.Version>
5.8.1

> <Gold.Id.Protein>
6NUR|6NUR_protein|mol2

> <Gold.PLP.Fitness>
41.0411

> <Gold.PLP.PLP>
-38.5229

> <Gold.PLP.part.hbond>
-1.4857

> <Gold.PLP.part.metal>
0.0000

> <Gold.PLP.part.buried>
-4.0281

> <Gold.PLP.part.nonpolar>
-33.0836

> <Gold.PLP.part.repulsive>
0.8650

> <Gold.PLP.ligand.clash>
9.8971

> <Gold.PLP.ligand.torsion>
0.5357

> <Gold.PLP.Chemscore.Hbond>
1.1964

> <Gold.PLP.Chemscore.CHOScore>
0.0000

> <Gold.PLP.Chemscore.Metal>
0.0000

> <Gold.Chemscore.Hbonds>
donor molecule, donor type, donor heavy atom, donor atom, acceptor molecule, acceptor atom, score
      L1  H     4    23       P1  8028  0.31
      P1  H  7997  8008       L1    13  1.00

> <Gold.PLP.Chemscore.Internal.Correction>
9.8975

> <Gold.Rescore>
     Score         DG    S(hbond)    S(metal)    S(lipo)     H(rot)  DE(clash)    DE(int)     intcor
      8.81     -12.15       0.74        0.00      64.33       1.29       0.47       2.86       ----

> <Gold.Chemscore.Fitness>
8.8137

> <Gold.Chemscore.DG>
-12.1474

> <Gold.Chemscore.ZeroCoef>
-5.4800

> <Gold.Chemscore.Hbond>
0.7352

> <Gold.Chemscore.Metal>
0.0000

> <Gold.Chemscore.Lipo>
64.3255

> <Gold.Chemscore.Internal_Hbond>
0.0000

> <Gold.Chemscore.DEClash>
0.4720

> <Gold.Chemscore.DEInternal>
2.8618

> <Gold.Chemscore.Rot>
1.2946

> <Gold.Chemscore.Internal.Correction>
   9.000000E+99

> <Gold.Chemscore.Hbonds>
donor molecule, donor type, donor heavy atom, donor atom, acceptor molecule, acceptor atom, score
      L1  H     4    23       P1  8028  0.31
      P1  H  7997  8008       L1    13  0.30

> <Gold.Chemscore.Hbond.Weighted>
-2.4554

> <Gold.Chemscore.Metal.Weighted>
-0.0000

> <Gold.Chemscore.Lipo.Weighted>
-7.5261

> <Gold.Chemscore.Internal_Hbond.Weighted>
0.0000

> <Gold.Chemscore.DEClash.Weighted>
0.4720

> <Gold.Chemscore.DEInternal.Weighted>
2.8618

> <Gold.Chemscore.Rot.Weighted>
3.3141

> <Gold.Chemscore.Internal.Correction.Weighted>
   9.000000E+99

> <Gold.Protein.RotatedTorsions>
[ 6907 6896 6895 6894 ] final   29.46 input  -60.11 | X-H torsion
[ 7974 7965 7964 7962 ] final    3.43 input  175.53 | X-H torsion
[ 8008 7997 7996 7995 ] final  -42.55 input   59.86 | X-H torsion
[ 10167 10162 10161 10158 ] final -137.68 input  -65.29 | X-H torsion
[ 10718 10713 10712 10709 ] final  115.36 input   66.30 | X-H torsion
[ 10763 10752 10751 10750 ] final  -42.06 input  -60.55 | X-H torsion
[ 11005 11000 10999 10996 ] final   97.31 input  -57.11 | X-H torsion

> <Gold.Protein.ActiveResidues>
 VAL166  LYS551  ARG553  GLY616  TRP617  ASP618  TYR619  PRO620  LYS621  CYS622 
 ASP623  PHE694  ASN695  SER759  ASP760  ASP761  ALA762  ILE779  LEU786  VAL792 
 PHE793  MET794  SER795  GLU796  ALA797  LYS798  CYS799  TRP800  GLU811  SER814 

> <Gold.Protein.RotatedAtoms>
  152.0318  134.9763  160.0572 H   0  0  0  0  0  0  0  0  0  0  0  0  # atno 6907 bound_to 6896
  152.1237  133.4363  159.4696 H   0  0  0  0  0  0  0  0  0  0  0  0  # atno 6908 bound_to 6896
  150.6851  134.2423  159.4521 H   0  0  0  0  0  0  0  0  0  0  0  0  # atno 6909 bound_to 6896
  146.2445  140.0687  142.8364 H   0  0  0  0  0  0  0  0  0  0  0  0  # atno 7974 bound_to 7965
  154.3998  140.1470  156.3374 H   0  0  0  0  0  0  0  0  0  0  0  0  # atno 8008 bound_to 7997
  155.8388  140.3463  155.5597 H   0  0  0  0  0  0  0  0  0  0  0  0  # atno 8009 bound_to 7997
  155.8110  140.0884  157.1894 H   0  0  0  0  0  0  0  0  0  0  0  0  # atno 8010 bound_to 7997
  139.8553  143.7146  152.2654 H   0  0  0  0  0  0  0  0  0  0  0  0  # atno 10167 bound_to 10162
  157.6227  131.1011  150.7318 H   0  0  0  0  0  0  0  0  0  0  0  0  # atno 10718 bound_to 10713
  153.9728  135.6726  153.4747 H   0  0  0  0  0  0  0  0  0  0  0  0  # atno 10763 bound_to 10752
  153.0785  135.4936  154.8450 H   0  0  0  0  0  0  0  0  0  0  0  0  # atno 10764 bound_to 10752
  154.7209  135.3117  154.9010 H   0  0  0  0  0  0  0  0  0  0  0  0  # atno 10765 bound_to 10752
  139.8776  134.8994  156.4288 H   0  0  0  0  0  0  0  0  0  0  0  0  # atno 11005 bound_to 11000
  145.0835  140.9237  143.4811 LP  0  0  0  0  0  0  0  0  0  0  0  0  # atno 17320 bound_to 7965
  145.0845  139.2935  143.5766 LP  0  0  0  0  0  0  0  0  0  0  0  0  # atno 17321 bound_to 7965
  139.7425  144.7556  151.0630 LP  0  0  0  0  0  0  0  0  0  0  0  0  # atno 17342 bound_to 10162
  140.7782  143.4955  150.9838 LP  0  0  0  0  0  0  0  0  0  0  0  0  # atno 17343 bound_to 10162
  156.7672  130.4817  149.5425 LP  0  0  0  0  0  0  0  0  0  0  0  0  # atno 17370 bound_to 10713
  156.1381  130.6225  151.0428 LP  0  0  0  0  0  0  0  0  0  0  0  0  # atno 17371 bound_to 10713
  140.9082  133.7731  155.9760 LP  0  0  0  0  0  0  0  0  0  0  0  0  # atno 17394 bound_to 11000
  140.8576  134.2879  157.5248 LP  0  0  0  0  0  0  0  0  0  0  0  0  # atno 17395 bound_to 11000

$$$$
