AV-unprocessed.smi:3017|AV-procd|sdf|11477|dock6
  -GOLD-   2272016413D 1   1.00000     0.00000
 Structure written by MMmdl.
 37 38  0  0  0  0  0  0  0  0  1 V2000
  154.3990  140.6670  160.7737 C   0  0  0  0  0  0  0  0  0  0  0  0
  153.8011  142.0804  160.7276 C   0  0  2  0  0  0  0  0  0  0  0  0
  153.1736  142.4700  162.0799 C   0  0  0  0  0  0  0  0  0  0  0  0
  152.5696  143.8822  162.0341 C   0  0  0  0  0  0  0  0  0  0  0  0
  151.5433  144.0088  160.8985 C   0  0  0  0  0  0  0  0  0  0  0  0
  152.1622  143.6377  159.5407 C   0  0  2  0  0  0  0  0  0  0  0  0
  151.1248  143.7111  158.5722 O   0  0  0  0  0  0  0  0  0  0  0  0
  151.5645  143.5943  157.2246 C   0  0  0  0  0  0  0  0  0  0  0  0
  151.0275  142.2916  156.6317 C   0  0  0  0  0  0  0  0  0  0  0  0
  151.5137  141.2198  156.9924 O   0  0  0  0  0  0  0  0  0  0  0  0
  150.0466  142.4177  155.7181 N   0  0  0  0  0  0  0  0  0  0  0  0
  149.3564  141.3912  155.0224 C   0  0  0  0  0  0  0  0  0  0  0  0
  147.9698  141.6016  154.8352 C   0  0  0  0  0  0  0  0  0  0  0  0
  147.1770  140.7135  154.1951 N   0  0  0  0  0  0  0  0  0  0  0  0
  147.7745  139.5949  153.7325 C   0  0  0  0  0  0  0  0  0  0  0  0
  149.1542  139.3686  153.9090 C   0  0  0  0  0  0  0  0  0  0  0  0
  149.9410  140.2606  154.5496 N   0  0  0  0  0  0  0  0  0  0  0  0
  152.7682  142.2192  159.5914 C   0  0  0  0  0  0  0  0  0  0  0  0
  153.6313  139.9177  160.9688 H   0  0  0  0  0  0  0  0  0  0  0  0
  155.1515  140.5848  161.5584 H   0  0  0  0  0  0  0  0  0  0  0  0
  154.8801  140.4131  159.8288 H   0  0  0  0  0  0  0  0  0  0  0  0
  154.6179  142.7748  160.5250 H   0  0  0  0  0  0  0  0  0  0  0  0
  152.3975  141.7515  162.3473 H   0  0  0  0  0  0  0  0  0  0  0  0
  153.9247  142.4199  162.8690 H   0  0  0  0  0  0  0  0  0  0  0  0
  152.0978  144.1158  162.9889 H   0  0  0  0  0  0  0  0  0  0  0  0
  153.3640  144.6163  161.8934 H   0  0  0  0  0  0  0  0  0  0  0  0
  150.6915  143.3590  161.1043 H   0  0  0  0  0  0  0  0  0  0  0  0
  151.1539  145.0269  160.8636 H   0  0  0  0  0  0  0  0  0  0  0  0
  152.9417  144.3659  159.3083 H   0  0  0  0  0  0  0  0  0  0  0  0
  151.1959  144.4308  156.6290 H   0  0  0  0  0  0  0  0  0  0  0  0
  152.6532  143.5958  157.1666 H   0  0  0  0  0  0  0  0  0  0  0  0
  149.7498  143.3608  155.5128 H   0  0  0  0  0  0  0  0  0  0  0  0
  147.4867  142.4948  155.2045 H   0  0  0  0  0  0  0  0  0  0  0  0
  147.1503  138.8778  153.2201 H   0  0  0  0  0  0  0  0  0  0  0  0
  149.6268  138.4721  153.5364 H   0  0  0  0  0  0  0  0  0  0  0  0
  153.2442  141.9777  158.6413 H   0  0  0  0  0  0  0  0  0  0  0  0
  151.9699  141.4887  159.7302 H   0  0  0  0  0  0  0  0  0  0  0  0
  1  2  1  0  0  0  0
  1 19  1  0  0  0  0
  1 20  1  0  0  0  0
  1 21  1  0  0  0  0
  2 18  1  0  0  0  0
  2  3  1  0  0  0  0
  2 22  1  0  0  0  0
  3  4  1  0  0  0  0
  3 23  1  0  0  0  0
  3 24  1  0  0  0  0
  4  5  1  0  0  0  0
  4 25  1  0  0  0  0
  4 26  1  0  0  0  0
  5  6  1  0  0  0  0
  5 27  1  0  0  0  0
  5 28  1  0  0  0  0
  6  7  1  0  0  0  0
  6 18  1  0  0  0  0
  6 29  1  0  0  0  0
  7  8  1  0  0  0  0
  8  9  1  0  0  0  0
  8 30  1  0  0  0  0
  8 31  1  0  0  0  0
  9 10  2  0  0  0  0
  9 11  1  0  0  0  0
 11 12  1  0  0  0  0
 11 32  1  0  0  0  0
 12 17  1  0  0  0  0
 12 13  2  0  0  0  0
 13 14  1  0  0  0  0
 13 33  1  0  0  0  0
 14 15  2  0  0  0  0
 15 16  1  0  0  0  0
 15 34  1  0  0  0  0
 16 17  2  0  0  0  0
 16 35  1  0  0  0  0
 18 36  1  0  0  0  0
 18 37  1  0  0  0  0
M  END
> <s_m_source_file>
AV-unprocessed.smi

> <i_m_source_file_index>
3017

> <i_lp_mmshare_version>
43012

> <i_f3d_flags>
0

> <s_epik_input>
W0NIM11bQ0BASF0xW0NIMl1bQ0gyXVtDSDJdW0NASF0oW0NIMl0xKU9bQ0gyXUMoPU8pW05IXWMyW2NIXW5bY0hdW2NIXW4y

> <s_epik_cmdline>
J2VwaWtfcHl0aG9uJywgJy1waCcsICc3LjAnLCAnLXRuJywgJzgnLCAnLW1hJywgJzIwMCcsICctbWV0YWxfYmluZGluZycsICctaW1hZScsICc8aW5maWxlLm1hZT4nLCAnLW9tYWUnLCAnPG91dGZpbGUubWFlPic=

> <r_lp_tautomer_probability>
1

> <r_epik_Ionization_Penalty>
2.89243e-06

> <r_epik_Ionization_Penalty_Charging>
0

> <r_epik_Ionization_Penalty_Neutral>
2.89243e-06

> <r_epik_State_Penalty>
-0

> <r_epik_Charging_Adjusted_Penalty>
0

> <i_epik_Tot_Q>
0

> <i_epik_Tot_abs_Q>
0

> <r_epik_Metal_State_Penalty>
-0

> <b_epik_Metal_Only>
0

> <s_lp_Force_Field>
OPLS_2005

> <r_lp_Energy>
19.9912

> <b_lp_Chiralities_Consistent>
1

> <s_lp_Variant>
AV-unprocessed.smi:3017-3

> <Gold.Version>
5.8.1

> <Gold.Id.Protein>
6NUR|6NUR_protein|mol2

> <Gold.PLP.Fitness>
48.5238

> <Gold.PLP.PLP>
-40.5798

> <Gold.PLP.part.hbond>
-2.0000

> <Gold.PLP.part.metal>
0.0000

> <Gold.PLP.part.buried>
-1.0589

> <Gold.PLP.part.nonpolar>
-35.9184

> <Gold.PLP.part.repulsive>
0.5413

> <Gold.PLP.ligand.clash>
0.0000

> <Gold.PLP.ligand.torsion>
0.8342

> <Gold.PLP.Chemscore.Hbond>
1.9760

> <Gold.PLP.Chemscore.CHOScore>
1.2263

> <Gold.PLP.Chemscore.Metal>
0.0000

> <Gold.Chemscore.Hbonds>
donor molecule, donor type, donor heavy atom, donor atom, acceptor molecule, acceptor atom, score
      L1  H    11    32       P1  8028  1.00
      P1  H  7989  7998       L1    17  0.86
      L1  C    13    33       P1  8028  0.61
      L1  C    16    35       P1  7948  0.22

> <Gold.PLP.Chemscore.Internal.Correction>
0.0054

> <Gold.Rescore>
     Score         DG    S(hbond)    S(metal)    S(lipo)     H(rot)  DE(clash)    DE(int)     intcor
     17.16     -18.98       1.38        0.00     109.14       1.51       0.16       1.67       ----

> <Gold.Chemscore.Fitness>
17.1575

> <Gold.Chemscore.DG>
-18.9840

> <Gold.Chemscore.ZeroCoef>
-5.4800

> <Gold.Chemscore.Hbond>
1.3789

> <Gold.Chemscore.Metal>
0.0000

> <Gold.Chemscore.Lipo>
109.1375

> <Gold.Chemscore.Internal_Hbond>
0.0000

> <Gold.Chemscore.DEClash>
0.1551

> <Gold.Chemscore.DEInternal>
1.6714

> <Gold.Chemscore.Rot>
1.5119

> <Gold.Chemscore.Internal.Correction>
   9.000000E+99

> <Gold.Chemscore.Hbonds>
donor molecule, donor type, donor heavy atom, donor atom, acceptor molecule, acceptor atom, score
      L1  H    11    32       P1  8028  0.98
      P1  H  7989  7998       L1    17  0.39

> <Gold.Chemscore.Hbond.Weighted>
-4.6055

> <Gold.Chemscore.Metal.Weighted>
-0.0000

> <Gold.Chemscore.Lipo.Weighted>
-12.7691

> <Gold.Chemscore.Internal_Hbond.Weighted>
0.0000

> <Gold.Chemscore.DEClash.Weighted>
0.1551

> <Gold.Chemscore.DEInternal.Weighted>
1.6714

> <Gold.Chemscore.Rot.Weighted>
3.8706

> <Gold.Chemscore.Internal.Correction.Weighted>
   9.000000E+99

> <Gold.Protein.RotatedTorsions>
[ 6907 6896 6895 6894 ] final  104.54 input  -60.11 | X-H torsion
[ 7974 7965 7964 7962 ] final   83.17 input  175.53 | X-H torsion
[ 8008 7997 7996 7995 ] final  -70.02 input   59.86 | X-H torsion
[ 10167 10162 10161 10158 ] final   50.94 input  -65.29 | X-H torsion
[ 10718 10713 10712 10709 ] final   13.39 input   66.30 | X-H torsion
[ 10763 10752 10751 10750 ] final  174.03 input  -60.55 | X-H torsion
[ 11005 11000 10999 10996 ] final  165.93 input  -57.11 | X-H torsion

> <Gold.Protein.ActiveResidues>
 VAL166  LYS551  ARG553  GLY616  TRP617  ASP618  TYR619  PRO620  LYS621  CYS622 
 ASP623  PHE694  ASN695  SER759  ASP760  ASP761  ALA762  ILE779  LEU786  VAL792 
 PHE793  MET794  SER795  GLU796  ALA797  LYS798  CYS799  TRP800  GLU811  SER814 

> <Gold.Protein.RotatedAtoms>
  152.5261  133.9661  159.7739 H   0  0  0  0  0  0  0  0  0  0  0  0  # atno 6907 bound_to 6896
  150.9942  133.6111  159.2711 H   0  0  0  0  0  0  0  0  0  0  0  0  # atno 6908 bound_to 6896
  151.3244  135.0832  159.9370 H   0  0  0  0  0  0  0  0  0  0  0  0  # atno 6909 bound_to 6896
  145.6154  139.2376  143.2168 H   0  0  0  0  0  0  0  0  0  0  0  0  # atno 7974 bound_to 7965
  154.4981  140.0842  156.7740 H   0  0  0  0  0  0  0  0  0  0  0  0  # atno 8008 bound_to 7997
  155.4068  140.3439  155.4242 H   0  0  0  0  0  0  0  0  0  0  0  0  # atno 8009 bound_to 7997
  156.1421  140.1532  156.8892 H   0  0  0  0  0  0  0  0  0  0  0  0  # atno 8010 bound_to 7997
  140.2672  144.3307  150.6300 H   0  0  0  0  0  0  0  0  0  0  0  0  # atno 10167 bound_to 10162
  157.0240  130.6166  149.5725 H   0  0  0  0  0  0  0  0  0  0  0  0  # atno 10718 bound_to 10713
  154.4483  135.2764  155.1799 H   0  0  0  0  0  0  0  0  0  0  0  0  # atno 10763 bound_to 10752
  154.3637  135.6124  153.5707 H   0  0  0  0  0  0  0  0  0  0  0  0  # atno 10764 bound_to 10752
  152.9845  135.5840  154.4823 H   0  0  0  0  0  0  0  0  0  0  0  0  # atno 10765 bound_to 10752
  140.2612  134.7900  157.3591 H   0  0  0  0  0  0  0  0  0  0  0  0  # atno 11005 bound_to 11000
  146.1472  140.6976  142.9339 LP  0  0  0  0  0  0  0  0  0  0  0  0  # atno 17320 bound_to 7965
  144.7252  140.4503  143.6978 LP  0  0  0  0  0  0  0  0  0  0  0  0  # atno 17321 bound_to 7965
  140.5919  143.2168  151.7237 LP  0  0  0  0  0  0  0  0  0  0  0  0  # atno 17342 bound_to 10162
  139.4999  144.3926  152.0264 LP  0  0  0  0  0  0  0  0  0  0  0  0  # atno 17343 bound_to 10162
  156.0092  130.5182  150.7933 LP  0  0  0  0  0  0  0  0  0  0  0  0  # atno 17370 bound_to 10713
  157.5228  131.0932  151.0057 LP  0  0  0  0  0  0  0  0  0  0  0  0  # atno 17371 bound_to 10713
  140.1463  134.4907  155.7994 LP  0  0  0  0  0  0  0  0  0  0  0  0  # atno 17394 bound_to 11000
  141.2190  133.6845  156.7299 LP  0  0  0  0  0  0  0  0  0  0  0  0  # atno 17395 bound_to 11000

$$$$
