AV-unprocessed.smi:1648|AV-procd|sdf|6633|dock5
  -GOLD-   22720 7333D 1   1.00000     0.00000
 Structure written by MMmdl.
 41 41  0  0  0  0  0  0  0  0  1 V2000
  147.8733  137.0517  158.8982 C   0  0  0  0  0  0  0  0  0  0  0  0
  149.2576  136.9326  158.2578 C   0  0  0  0  0  0  0  0  0  0  0  0
  149.8654  135.8670  158.3277 O   0  0  0  0  0  0  0  0  0  0  0  0
  149.7880  137.9983  157.6324 N   0  0  0  0  0  0  0  0  0  0  0  0
  151.0893  138.0833  156.9631 C   0  0  2  0  0  0  0  0  0  0  0  0
  151.8744  139.2667  157.5605 C   0  0  0  0  0  0  0  0  0  0  0  0
  152.9715  139.5877  157.1007 O   0  0  0  0  0  0  0  0  0  0  0  0
  151.2969  139.8977  158.5946 N   0  0  0  0  0  0  0  0  0  0  0  0
  151.8551  141.0408  159.3100 C   0  0  1  0  0  0  0  0  0  0  0  0
  153.1103  140.6132  160.0940 C   0  0  0  0  0  0  0  0  0  0  0  0
  152.1238  142.1772  158.3033 C   0  0  0  0  0  0  0  0  0  0  0  0
  151.8623  143.4935  158.8544 N   0  0  0  0  0  0  0  0  0  0  0  0
  152.3331  144.0098  160.0548 C   0  0  0  0  0  0  0  0  0  0  0  0
  151.8314  145.2877  160.1565 C   0  0  0  0  0  0  0  0  0  0  0  0
  151.0587  145.5786  159.0346 N   0  0  0  0  0  0  0  0  0  0  0  0
  151.1258  144.4707  158.3079 C   0  0  0  0  0  0  0  0  0  0  0  0
  150.8565  138.3171  155.4408 C   0  0  0  0  0  0  0  0  0  0  0  0
  152.1816  138.3406  154.6531 C   0  0  0  0  0  0  0  0  0  0  0  0
  150.0723  139.6123  155.1420 C   0  0  0  0  0  0  0  0  0  0  0  0
  147.8765  137.8044  159.6869 H   0  0  0  0  0  0  0  0  0  0  0  0
  147.5743  136.1025  159.3443 H   0  0  0  0  0  0  0  0  0  0  0  0
  147.1222  137.3225  158.1561 H   0  0  0  0  0  0  0  0  0  0  0  0
  149.2392  138.8459  157.6343 H   0  0  0  0  0  0  0  0  0  0  0  0
  151.6463  137.1546  157.0991 H   0  0  0  0  0  0  0  0  0  0  0  0
  150.3975  139.5622  158.9079 H   0  0  0  0  0  0  0  0  0  0  0  0
  151.1126  141.3998  160.0253 H   0  0  0  0  0  0  0  0  0  0  0  0
  153.5039  141.4320  160.6966 H   0  0  0  0  0  0  0  0  0  0  0  0
  153.9027  140.2825  159.4219 H   0  0  0  0  0  0  0  0  0  0  0  0
  152.8903  139.7919  160.7770 H   0  0  0  0  0  0  0  0  0  0  0  0
  153.1606  142.1463  157.9645 H   0  0  0  0  0  0  0  0  0  0  0  0
  151.5014  142.0509  157.4161 H   0  0  0  0  0  0  0  0  0  0  0  0
  152.9656  143.4409  160.7203 H   0  0  0  0  0  0  0  0  0  0  0  0
  151.9672  146.0145  160.9436 H   0  0  0  0  0  0  0  0  0  0  0  0
  150.6250  144.3664  157.3564 H   0  0  0  0  0  0  0  0  0  0  0  0
  150.2679  137.4856  155.0484 H   0  0  0  0  0  0  0  0  0  0  0  0
  152.8430  139.1273  155.0173 H   0  0  0  0  0  0  0  0  0  0  0  0
  152.0047  138.5218  153.5925 H   0  0  0  0  0  0  0  0  0  0  0  0
  152.7181  137.3944  154.7260 H   0  0  0  0  0  0  0  0  0  0  0  0
  150.5824  140.4853  155.5502 H   0  0  0  0  0  0  0  0  0  0  0  0
  149.0646  139.5900  155.5570 H   0  0  0  0  0  0  0  0  0  0  0  0
  149.9650  139.7660  154.0677 H   0  0  0  0  0  0  0  0  0  0  0  0
  1  2  1  0  0  0  0
  1 20  1  0  0  0  0
  1 21  1  0  0  0  0
  1 22  1  0  0  0  0
  2  3  2  0  0  0  0
  2  4  1  0  0  0  0
  4  5  1  0  0  0  0
  4 23  1  0  0  0  0
  5  6  1  0  0  0  0
  5 17  1  0  0  0  0
  5 24  1  0  0  0  0
  6  7  2  0  0  0  0
  6  8  1  0  0  0  0
  8  9  1  0  0  0  0
  8 25  1  0  0  0  0
  9 10  1  0  0  0  0
  9 11  1  0  0  0  0
  9 26  1  0  0  0  0
 10 27  1  0  0  0  0
 10 28  1  0  0  0  0
 10 29  1  0  0  0  0
 11 12  1  0  0  0  0
 11 30  1  0  0  0  0
 11 31  1  0  0  0  0
 12 16  1  0  0  0  0
 12 13  1  0  0  0  0
 13 14  2  0  0  0  0
 13 32  1  0  0  0  0
 14 15  1  0  0  0  0
 14 33  1  0  0  0  0
 15 16  2  0  0  0  0
 16 34  1  0  0  0  0
 17 18  1  0  0  0  0
 17 19  1  0  0  0  0
 17 35  1  0  0  0  0
 18 36  1  0  0  0  0
 18 37  1  0  0  0  0
 18 38  1  0  0  0  0
 19 39  1  0  0  0  0
 19 40  1  0  0  0  0
 19 41  1  0  0  0  0
M  END
> <s_m_source_file>
AV-unprocessed.smi

> <i_m_source_file_index>
1648

> <i_lp_mmshare_version>
43012

> <i_f3d_flags>
0

> <s_epik_input>
W0NIM11DKD1PKVtOSF1bQ0BASF0oW0NIXShbQ0gzXSlbQ0gzXSlDKD1PKVtOSF1bQ0BIXShbQ0gzXSlbQ0gyXW4xW2NIXVtjSF1uW2NIXTE=

> <s_epik_cmdline>
J2VwaWtfcHl0aG9uJywgJy1waCcsICc3LjAnLCAnLXRuJywgJzgnLCAnLW1hJywgJzIwMCcsICctbWV0YWxfYmluZGluZycsICctaW1hZScsICc8aW5maWxlLm1hZT4nLCAnLW9tYWUnLCAnPG91dGZpbGUubWFlPic=

> <r_lp_tautomer_probability>
1

> <r_epik_Ionization_Penalty>
0.628885

> <r_epik_Ionization_Penalty_Charging>
0.628884

> <r_epik_Ionization_Penalty_Neutral>
4.35155e-07

> <r_epik_State_Penalty>
0.64556

> <r_epik_Charging_Adjusted_Penalty>
1.27444

> <i_epik_Tot_Q>
0

> <i_epik_Tot_abs_Q>
0

> <r_epik_Metal_State_Penalty>
0.30874

> <b_epik_Metal_Only>
0

> <s_lp_Force_Field>
OPLS_2005

> <r_lp_Energy>
9.63914

> <b_lp_Chiralities_Consistent>
1

> <s_lp_Variant>
AV-unprocessed.smi:1648-7

> <Gold.Version>
5.8.1

> <Gold.Id.Protein>
6NUR|6NUR_protein|mol2

> <Gold.PLP.Fitness>
43.0420

> <Gold.PLP.PLP>
-35.2994

> <Gold.PLP.part.hbond>
-2.9718

> <Gold.PLP.part.metal>
0.0000

> <Gold.PLP.part.buried>
-5.1257

> <Gold.PLP.part.nonpolar>
-27.3986

> <Gold.PLP.part.repulsive>
0.3778

> <Gold.PLP.ligand.clash>
0.0000

> <Gold.PLP.ligand.torsion>
0.6649

> <Gold.PLP.Chemscore.Hbond>
1.9913

> <Gold.PLP.Chemscore.CHOScore>
1.0000

> <Gold.PLP.Chemscore.Metal>
0.0000

> <Gold.Chemscore.Hbonds>
donor molecule, donor type, donor heavy atom, donor atom, acceptor molecule, acceptor atom, score
      P1  H  6896  6909       L1     3  1.00
      P1  H  7997  8010       L1     7  1.00
      L1  C    16    34       P1  8028  1.00

> <Gold.PLP.Chemscore.Internal.Correction>
0.0986

> <Gold.Rescore>
     Score         DG    S(hbond)    S(metal)    S(lipo)     H(rot)  DE(clash)    DE(int)     intcor
     11.95     -14.39       1.97        0.00      75.12       2.52       0.00       2.44       ----

> <Gold.Chemscore.Fitness>
11.9531

> <Gold.Chemscore.DG>
-14.3915

> <Gold.Chemscore.ZeroCoef>
-5.4800

> <Gold.Chemscore.Hbond>
1.9693

> <Gold.Chemscore.Metal>
0.0000

> <Gold.Chemscore.Lipo>
75.1237

> <Gold.Chemscore.Internal_Hbond>
0.0000

> <Gold.Chemscore.DEClash>
0.0000

> <Gold.Chemscore.DEInternal>
2.4385

> <Gold.Chemscore.Rot>
2.5216

> <Gold.Chemscore.Internal.Correction>
   9.000000E+99

> <Gold.Chemscore.Hbonds>
donor molecule, donor type, donor heavy atom, donor atom, acceptor molecule, acceptor atom, score
      P1  H  6896  6909       L1     3  0.96
      P1  H  7997  8010       L1     7  0.97

> <Gold.Chemscore.Hbond.Weighted>
-6.5773

> <Gold.Chemscore.Metal.Weighted>
-0.0000

> <Gold.Chemscore.Lipo.Weighted>
-8.7895

> <Gold.Chemscore.Internal_Hbond.Weighted>
0.0000

> <Gold.Chemscore.DEClash.Weighted>
0.0000

> <Gold.Chemscore.DEInternal.Weighted>
2.4385

> <Gold.Chemscore.Rot.Weighted>
6.4553

> <Gold.Chemscore.Internal.Correction.Weighted>
   9.000000E+99

> <Gold.Protein.RotatedTorsions>
[ 6907 6896 6895 6894 ] final   62.10 input  -60.11 | X-H torsion
[ 7974 7965 7964 7962 ] final  139.21 input  175.53 | X-H torsion
[ 8008 7997 7996 7995 ] final   51.16 input   59.86 | X-H torsion
[ 10167 10162 10161 10158 ] final  120.48 input  -65.29 | X-H torsion
[ 10718 10713 10712 10709 ] final  -20.81 input   66.30 | X-H torsion
[ 10763 10752 10751 10750 ] final -128.98 input  -60.55 | X-H torsion
[ 11005 11000 10999 10996 ] final  150.50 input  -57.11 | X-H torsion

> <Gold.Protein.ActiveResidues>
 VAL166  LYS551  ARG553  GLY616  TRP617  ASP618  TYR619  PRO620  LYS621  CYS622 
 ASP623  PHE694  ASN695  SER759  ASP760  ASP761  ALA762  ILE779  LEU786  VAL792 
 PHE793  MET794  SER795  GLU796  ALA797  LYS798  CYS799  TRP800  GLU811  SER814 

> <Gold.Protein.RotatedAtoms>
  152.4144  134.6068  160.0014 H   0  0  0  0  0  0  0  0  0  0  0  0  # atno 6907 bound_to 6896
  151.6236  133.3331  159.3101 H   0  0  0  0  0  0  0  0  0  0  0  0  # atno 6908 bound_to 6896
  150.8033  134.7181  159.6687 H   0  0  0  0  0  0  0  0  0  0  0  0  # atno 6909 bound_to 6896
  144.9300  139.5059  143.5622 H   0  0  0  0  0  0  0  0  0  0  0  0  # atno 7974 bound_to 7965
  155.4307  140.3450  155.4280 H   0  0  0  0  0  0  0  0  0  0  0  0  # atno 8008 bound_to 7997
  156.1338  140.1522  156.9056 H   0  0  0  0  0  0  0  0  0  0  0  0  # atno 8009 bound_to 7997
  154.4915  140.0839  156.7586 H   0  0  0  0  0  0  0  0  0  0  0  0  # atno 8010 bound_to 7997
  139.5979  144.7047  151.3132 H   0  0  0  0  0  0  0  0  0  0  0  0  # atno 10167 bound_to 10162
  156.5268  130.4645  149.6568 H   0  0  0  0  0  0  0  0  0  0  0  0  # atno 10718 bound_to 10713
  154.8757  135.3910  154.3846 H   0  0  0  0  0  0  0  0  0  0  0  0  # atno 10763 bound_to 10752
  153.4589  135.7029  153.6068 H   0  0  0  0  0  0  0  0  0  0  0  0  # atno 10764 bound_to 10752
  153.4575  135.3819  155.2288 H   0  0  0  0  0  0  0  0  0  0  0  0  # atno 10765 bound_to 10752
  140.1136  134.8908  157.1972 H   0  0  0  0  0  0  0  0  0  0  0  0  # atno 11005 bound_to 11000
  146.3243  139.8244  142.8920 LP  0  0  0  0  0  0  0  0  0  0  0  0  # atno 17320 bound_to 7965
  145.3157  141.0231  143.3529 LP  0  0  0  0  0  0  0  0  0  0  0  0  # atno 17321 bound_to 7965
  140.7227  143.7092  150.7783 LP  0  0  0  0  0  0  0  0  0  0  0  0  # atno 17342 bound_to 10162
  140.0662  143.5106  152.2603 LP  0  0  0  0  0  0  0  0  0  0  0  0  # atno 17343 bound_to 10162
  156.3097  130.7222  151.2112 LP  0  0  0  0  0  0  0  0  0  0  0  0  # atno 17370 bound_to 10713
  157.7428  131.0484  150.4995 LP  0  0  0  0  0  0  0  0  0  0  0  0  # atno 17371 bound_to 10713
  140.3057  134.3080  155.7278 LP  0  0  0  0  0  0  0  0  0  0  0  0  # atno 17394 bound_to 11000
  141.2136  133.7619  156.9705 LP  0  0  0  0  0  0  0  0  0  0  0  0  # atno 17395 bound_to 11000

$$$$
