AV-unprocessed.smi:1072|AV-procd|sdf|4688|dock4
  -GOLD-   22720 3203D 1   1.00000     0.00000
 Structure written by MMmdl.
 45 46  0  0  0  0  0  0  0  0  2 V2000
  147.0189  136.1715  162.5169 C   0  0  0  0  0  0  0  0  0  0  0  0
  147.5494  136.4403  161.1249 C   0  0  0  0  0  0  0  0  0  0  0  0
  146.7311  136.4916  160.1439 N   0  0  0  0  0  0  0  0  0  0  0  0
  147.2182  136.7409  158.8496 C   0  0  0  0  0  0  0  0  0  0  0  0
  146.1762  136.7822  157.7453 C   0  0  0  0  0  0  0  0  0  0  0  0
  148.5493  136.9313  158.6207 C   0  0  0  0  0  0  0  0  0  0  0  0
  149.1263  137.2011  157.2310 C   0  0  0  0  0  0  0  0  0  0  0  0
  150.2359  138.2530  157.1592 C   0  0  0  0  0  0  0  0  0  0  0  0
  151.3643  137.9370  156.7825 O   0  0  0  0  0  0  0  0  0  0  0  0
  149.8864  139.4970  157.5347 N   0  0  0  0  0  0  0  0  0  0  0  0
  150.7056  140.7150  157.6101 C   0  0  1  0  0  0  0  0  0  0  0  0
  151.2892  140.9022  156.1931 C   0  0  0  0  0  0  0  0  0  0  0  0
  149.8234  141.9361  157.9914 C   0  0  0  0  0  0  0  0  0  0  0  0
  150.6387  143.2160  158.2490 C   0  0  0  0  0  0  0  0  0  0  0  0
  151.7324  142.9908  159.3084 C   0  0  2  0  0  0  0  0  0  0  0  0
  152.5335  144.2743  159.5686 C   0  0  0  0  0  0  0  0  0  0  0  0
  152.6508  141.8274  158.8932 C   0  0  0  0  0  0  0  0  0  0  0  0
  151.8530  140.5351  158.6424 C   0  0  0  0  0  0  0  0  0  0  0  0
  149.4587  136.8681  159.7791 C   0  0  0  0  0  0  0  0  0  0  0  0
  150.6675  137.0444  159.6309 O   0  0  0  0  0  0  0  0  0  0  0  0
  148.9098  136.6130  161.0011 N   0  5  0  0  0  0  0  0  0  0  0  0
  145.9357  136.2950  162.5545 H   0  0  0  0  0  0  0  0  0  0  0  0
  147.4638  136.8607  163.2356 H   0  0  0  0  0  0  0  0  0  0  0  0
  147.2593  135.1521  162.8196 H   0  0  0  0  0  0  0  0  0  0  0  0
  146.3524  135.9846  157.0236 H   0  0  0  0  0  0  0  0  0  0  0  0
  146.2070  137.7382  157.2226 H   0  0  0  0  0  0  0  0  0  0  0  0
  145.1703  136.6543  158.1469 H   0  0  0  0  0  0  0  0  0  0  0  0
  149.5001  136.2818  156.7797 H   0  0  0  0  0  0  0  0  0  0  0  0
  148.3072  137.5123  156.5817 H   0  0  0  0  0  0  0  0  0  0  0  0
  148.9243  139.6143  157.8174 H   0  0  0  0  0  0  0  0  0  0  0  0
  151.9257  141.7824  156.1152 H   0  0  0  0  0  0  0  0  0  0  0  0
  150.4972  141.0131  155.4512 H   0  0  0  0  0  0  0  0  0  0  0  0
  151.8927  140.0429  155.8980 H   0  0  0  0  0  0  0  0  0  0  0  0
  149.0825  142.1227  157.2130 H   0  0  0  0  0  0  0  0  0  0  0  0
  149.2538  141.7283  158.8967 H   0  0  0  0  0  0  0  0  0  0  0  0
  151.0862  143.5691  157.3198 H   0  0  0  0  0  0  0  0  0  0  0  0
  149.9659  144.0088  158.5779 H   0  0  0  0  0  0  0  0  0  0  0  0
  151.2427  142.7139  160.2432 H   0  0  0  0  0  0  0  0  0  0  0  0
  153.0508  144.6086  158.6687 H   0  0  0  0  0  0  0  0  0  0  0  0
  153.2826  144.1190  160.3454 H   0  0  0  0  0  0  0  0  0  0  0  0
  151.8811  145.0834  159.8981 H   0  0  0  0  0  0  0  0  0  0  0  0
  153.2171  142.0983  158.0019 H   0  0  0  0  0  0  0  0  0  0  0  0
  153.3903  141.6457  159.6740 H   0  0  0  0  0  0  0  0  0  0  0  0
  151.4547  140.2110  159.6033 H   0  0  0  0  0  0  0  0  0  0  0  0
  152.5289  139.7420  158.3201 H   0  0  0  0  0  0  0  0  0  0  0  0
  1  2  1  0  0  0  0
  1 22  1  0  0  0  0
  1 23  1  0  0  0  0
  1 24  1  0  0  0  0
  2 21  1  0  0  0  0
  2  3  2  0  0  0  0
  3  4  1  0  0  0  0
  4  5  1  0  0  0  0
  4  6  2  0  0  0  0
  5 25  1  0  0  0  0
  5 26  1  0  0  0  0
  5 27  1  0  0  0  0
  6  7  1  0  0  0  0
  6 19  1  0  0  0  0
  7  8  1  0  0  0  0
  7 28  1  0  0  0  0
  7 29  1  0  0  0  0
  8  9  2  0  0  0  0
  8 10  1  0  0  0  0
 10 11  1  0  0  0  0
 10 30  1  0  0  0  0
 11 18  1  0  0  0  0
 11 12  1  0  0  0  0
 11 13  1  0  0  0  0
 12 31  1  0  0  0  0
 12 32  1  0  0  0  0
 12 33  1  0  0  0  0
 13 14  1  0  0  0  0
 13 34  1  0  0  0  0
 13 35  1  0  0  0  0
 14 15  1  0  0  0  0
 14 36  1  0  0  0  0
 14 37  1  0  0  0  0
 15 16  1  0  0  0  0
 15 17  1  0  0  0  0
 15 38  1  0  0  0  0
 16 39  1  0  0  0  0
 16 40  1  0  0  0  0
 16 41  1  0  0  0  0
 17 18  1  0  0  0  0
 17 42  1  0  0  0  0
 17 43  1  0  0  0  0
 18 44  1  0  0  0  0
 18 45  1  0  0  0  0
 19 20  2  0  0  0  0
 19 21  1  0  0  0  0
M  CHG  1  21  -1
M  END
> <s_m_source_file>
AV-unprocessed.smi

> <i_m_source_file_index>
1072

> <i_lp_mmshare_version>
43012

> <i_f3d_flags>
0

> <s_epik_input>
W0NIM11jMW5jKFtDSDNdKWMoYyg9TylbbkhdMSlbQ0gyXUMoPU8pW05IXVtDQEBdMihbQ0gzXSlbQ0gyXVtDSDJdW0NAQEhdKFtDSDNdKVtDSDJdW0NIMl0y

> <s_epik_cmdline>
J2VwaWtfcHl0aG9uJywgJy1waCcsICc3LjAnLCAnLXRuJywgJzgnLCAnLW1hJywgJzIwMCcsICctbWV0YWxfYmluZGluZycsICctaW1hZScsICc8aW5maWxlLm1hZT4nLCAnLW9tYWUnLCAnPG91dGZpbGUubWFlPic=

> <r_lp_tautomer_probability>
0.839158

> <r_epik_Ionization_Penalty>
6.73882

> <r_epik_Ionization_Penalty_Charging>
8.02239e-08

> <r_epik_Ionization_Penalty_Neutral>
6.73882

> <r_epik_State_Penalty>
4.55873

> <r_epik_Charging_Adjusted_Penalty>
4.55873

> <i_epik_Tot_Q>
-1

> <i_epik_Tot_abs_Q>
1

> <r_epik_Metal_State_Penalty>
0.872514

> <b_epik_Metal_Only>
1

> <s_lp_Force_Field>
OPLS_2005

> <r_lp_Energy>
18.4266

> <b_lp_Chiralities_Consistent>
1

> <s_lp_Variant>
AV-unprocessed.smi:1072-6

> <Gold.Version>
5.8.1

> <Gold.Id.Protein>
6NUR|6NUR_protein|mol2

> <Gold.PLP.Fitness>
38.4602

> <Gold.PLP.PLP>
-30.1209

> <Gold.PLP.part.hbond>
-1.9478

> <Gold.PLP.part.metal>
0.0000

> <Gold.PLP.part.buried>
-3.4742

> <Gold.PLP.part.nonpolar>
-25.3031

> <Gold.PLP.part.repulsive>
0.0776

> <Gold.PLP.ligand.clash>
0.0000

> <Gold.PLP.ligand.torsion>
0.2964

> <Gold.PLP.Chemscore.Hbond>
2.9750

> <Gold.PLP.Chemscore.CHOScore>
0.0000

> <Gold.PLP.Chemscore.Metal>
0.0000

> <Gold.Chemscore.Hbonds>
donor molecule, donor type, donor heavy atom, donor atom, acceptor molecule, acceptor atom, score
      P1  H  6896  6907       L1    20  0.95
      P1  H  6931  6943       L1    21  1.90

> <Gold.PLP.Chemscore.Internal.Correction>
0.0072

> <Gold.Rescore>
     Score         DG    S(hbond)    S(metal)    S(lipo)     H(rot)  DE(clash)    DE(int)     intcor
     12.98     -14.53       1.10        0.00      77.34       1.43       0.17       1.38       ----

> <Gold.Chemscore.Fitness>
12.9760

> <Gold.Chemscore.DG>
-14.5314

> <Gold.Chemscore.ZeroCoef>
-5.4800

> <Gold.Chemscore.Hbond>
1.0998

> <Gold.Chemscore.Metal>
0.0000

> <Gold.Chemscore.Lipo>
77.3392

> <Gold.Chemscore.Internal_Hbond>
0.0000

> <Gold.Chemscore.DEClash>
0.1734

> <Gold.Chemscore.DEInternal>
1.3820

> <Gold.Chemscore.Rot>
1.4339

> <Gold.Chemscore.Internal.Correction>
   9.000000E+99

> <Gold.Chemscore.Hbonds>
donor molecule, donor type, donor heavy atom, donor atom, acceptor molecule, acceptor atom, score
      P1  H  6896  6907       L1    20  0.20
      P1  H  6931  6943       L1    21  0.08

> <Gold.Chemscore.Hbond.Weighted>
-3.6735

> <Gold.Chemscore.Metal.Weighted>
-0.0000

> <Gold.Chemscore.Lipo.Weighted>
-9.0487

> <Gold.Chemscore.Internal_Hbond.Weighted>
0.0000

> <Gold.Chemscore.DEClash.Weighted>
0.1734

> <Gold.Chemscore.DEInternal.Weighted>
1.3820

> <Gold.Chemscore.Rot.Weighted>
3.6708

> <Gold.Chemscore.Internal.Correction.Weighted>
   9.000000E+99

> <Gold.Protein.RotatedTorsions>
[ 6907 6896 6895 6894 ] final  -14.92 input  -60.11 | X-H torsion
[ 7974 7965 7964 7962 ] final   12.58 input  175.53 | X-H torsion
[ 8008 7997 7996 7995 ] final  -77.54 input   59.86 | X-H torsion
[ 10167 10162 10161 10158 ] final  107.59 input  -65.29 | X-H torsion
[ 10718 10713 10712 10709 ] final  162.08 input   66.30 | X-H torsion
[ 10763 10752 10751 10750 ] final  -63.67 input  -60.55 | X-H torsion
[ 11005 11000 10999 10996 ] final  -69.85 input  -57.11 | X-H torsion

> <Gold.Protein.ActiveResidues>
 VAL166  LYS551  ARG553  GLY616  TRP617  ASP618  TYR619  PRO620  LYS621  CYS622 
 ASP623  PHE694  ASN695  SER759  ASP760  ASP761  ALA762  ILE779  LEU786  VAL792 
 PHE793  MET794  SER795  GLU796  ALA797  LYS798  CYS799  TRP800  GLU811  SER814 

> <Gold.Protein.RotatedAtoms>
  151.3319  135.0843  159.9341 H   0  0  0  0  0  0  0  0  0  0  0  0  # atno 6907 bound_to 6896
  152.5232  133.9534  159.7693 H   0  0  0  0  0  0  0  0  0  0  0  0  # atno 6908 bound_to 6896
  150.9874  133.6131  159.2743 H   0  0  0  0  0  0  0  0  0  0  0  0  # atno 6909 bound_to 6896
  146.2348  139.9315  142.8495 H   0  0  0  0  0  0  0  0  0  0  0  0  # atno 7974 bound_to 7965
  154.5605  140.0709  156.8812 H   0  0  0  0  0  0  0  0  0  0  0  0  # atno 8008 bound_to 7997
  155.2820  140.3372  155.4239 H   0  0  0  0  0  0  0  0  0  0  0  0  # atno 8009 bound_to 7997
  156.2038  140.1732  156.7828 H   0  0  0  0  0  0  0  0  0  0  0  0  # atno 8010 bound_to 7997
  139.6914  144.7107  151.1341 H   0  0  0  0  0  0  0  0  0  0  0  0  # atno 10167 bound_to 10162
  157.1276  131.0508  151.2386 H   0  0  0  0  0  0  0  0  0  0  0  0  # atno 10718 bound_to 10713
  154.3186  135.6201  153.5497 H   0  0  0  0  0  0  0  0  0  0  0  0  # atno 10763 bound_to 10752
  152.9822  135.5718  154.5095 H   0  0  0  0  0  0  0  0  0  0  0  0  # atno 10764 bound_to 10752
  154.4759  135.2861  155.1584 H   0  0  0  0  0  0  0  0  0  0  0  0  # atno 10765 bound_to 10752
  141.1562  133.6774  156.6662 H   0  0  0  0  0  0  0  0  0  0  0  0  # atno 11005 bound_to 11000
  145.2040  140.9867  143.4139 LP  0  0  0  0  0  0  0  0  0  0  0  0  # atno 17320 bound_to 7965
  144.9749  139.3842  143.6291 LP  0  0  0  0  0  0  0  0  0  0  0  0  # atno 17321 bound_to 7965
  140.7684  143.5553  150.9158 LP  0  0  0  0  0  0  0  0  0  0  0  0  # atno 17342 bound_to 10162
  139.9231  143.6582  152.3092 LP  0  0  0  0  0  0  0  0  0  0  0  0  # atno 17343 bound_to 10162
  157.4421  130.7550  149.7078 LP  0  0  0  0  0  0  0  0  0  0  0  0  # atno 17370 bound_to 10713
  155.9815  130.4019  150.3469 LP  0  0  0  0  0  0  0  0  0  0  0  0  # atno 17371 bound_to 10713
  140.3210  134.8008  157.4252 LP  0  0  0  0  0  0  0  0  0  0  0  0  # atno 17394 bound_to 11000
  140.1097  134.5362  155.8277 LP  0  0  0  0  0  0  0  0  0  0  0  0  # atno 17395 bound_to 11000

$$$$
