AV-unprocessed.smi:169|AV-procd|sdf|1398|dock6
  -GOLD-   2262019143D 1   1.00000     0.00000
 Structure written by MMmdl.
 56 60  0  0  0  0  0  0  0  0  2 V2000
  144.7177  132.3850  149.7707 C   0  0  0  0  0  0  0  0  0  0  0  0
  146.2196  132.3676  150.1058 C   0  0  0  0  0  0  0  0  0  0  0  0
  146.5225  131.9194  151.4904 N   0  3  2  0  0  0  0  0  0  0  0  0
  145.6796  130.7807  151.9366 C   0  0  0  0  0  0  0  0  0  0  0  0
  146.4562  129.7700  152.8034 C   0  0  0  0  0  0  0  0  0  0  0  0
  147.3313  130.3738  153.9234 C   0  0  1  0  0  0  0  0  0  0  0  0
  148.7362  130.8008  153.4445 C   0  0  0  0  0  0  0  0  0  0  0  0
  148.7706  132.3268  153.5778 C   0  0  0  0  0  0  0  0  0  0  0  0
  147.3054  132.7168  153.7926 C   0  0  1  0  0  0  0  0  0  0  0  0
  146.5709  133.0424  152.4693 C   0  0  0  0  0  0  0  0  0  0  0  0
  146.7247  131.5733  154.4953 N   0  0  0  0  0  0  0  0  0  0  0  0
  146.5968  131.5772  155.8486 C   0  0  0  0  0  0  0  0  0  0  0  0
  145.9471  130.5670  156.4858 N   0  0  0  0  0  0  0  0  0  0  0  0
  145.8118  130.5822  157.8152 C   0  0  0  0  0  0  0  0  0  0  0  0
  146.2447  131.4945  158.6873 N   0  0  0  0  0  0  0  0  0  0  0  0
  146.9043  132.5076  158.0563 C   0  0  0  0  0  0  0  0  0  0  0  0
  147.1236  132.6251  156.6550 C   0  0  0  0  0  0  0  0  0  0  0  0
  147.8383  133.7856  156.3837 N   0  0  0  0  0  0  0  0  0  0  0  0
  148.0237  134.3273  157.5565 C   0  0  0  0  0  0  0  0  0  0  0  0
  147.5028  133.6223  158.6184 N   0  0  0  0  0  0  0  0  0  0  0  0
  147.5613  133.9932  160.0243 C   0  0  0  0  0  0  0  0  0  0  0  0
  146.9913  135.3923  160.3247 C   0  0  0  0  0  0  0  0  0  0  0  0
  145.5748  135.4858  159.7214 C   0  0  0  0  0  0  0  0  0  0  0  0
  144.9847  136.7557  159.9174 O   0  0  0  0  0  0  0  0  0  0  0  0
  147.1432  135.8910  161.7693 C   0  0  0  0  0  0  0  0  0  0  0  0
  147.8154  137.0977  161.3460 O   0  0  0  0  0  0  0  0  0  0  0  0
  147.9420  136.5569  160.0121 C   0  0  0  0  0  0  0  0  0  0  0  0
  144.5629  132.6934  148.7366 H   0  0  0  0  0  0  0  0  0  0  0  0
  144.1695  133.0851  150.4009 H   0  0  0  0  0  0  0  0  0  0  0  0
  144.2644  131.4006  149.8867 H   0  0  0  0  0  0  0  0  0  0  0  0
  146.7429  131.7176  149.4035 H   0  0  0  0  0  0  0  0  0  0  0  0
  146.6389  133.3631  149.9560 H   0  0  0  0  0  0  0  0  0  0  0  0
  144.8051  131.1541  152.4721 H   0  0  0  0  0  0  0  0  0  0  0  0
  145.2879  130.2398  151.0741 H   0  0  0  0  0  0  0  0  0  0  0  0
  145.7246  129.1017  153.2586 H   0  0  0  0  0  0  0  0  0  0  0  0
  147.0687  129.1294  152.1679 H   0  0  0  0  0  0  0  0  0  0  0  0
  147.4722  129.6054  154.6854 H   0  0  0  0  0  0  0  0  0  0  0  0
  149.5152  130.3481  154.0590 H   0  0  0  0  0  0  0  0  0  0  0  0
  148.9239  130.4964  152.4143 H   0  0  0  0  0  0  0  0  0  0  0  0
  149.3529  132.5997  154.4591 H   0  0  0  0  0  0  0  0  0  0  0  0
  149.2266  132.8197  152.7186 H   0  0  0  0  0  0  0  0  0  0  0  0
  147.2623  133.6230  154.3972 H   0  0  0  0  0  0  0  0  0  0  0  0
  147.0719  133.8939  152.0066 H   0  0  0  0  0  0  0  0  0  0  0  0
  145.5570  133.3764  152.6927 H   0  0  0  0  0  0  0  0  0  0  0  0
  145.2802  129.7438  158.2410 H   0  0  0  0  0  0  0  0  0  0  0  0
  148.5496  135.2628  157.6781 H   0  0  0  0  0  0  0  0  0  0  0  0
  147.0196  133.2315  160.5867 H   0  0  0  0  0  0  0  0  0  0  0  0
  148.5972  133.9219  160.3582 H   0  0  0  0  0  0  0  0  0  0  0  0
  145.5957  135.2854  158.6496 H   0  0  0  0  0  0  0  0  0  0  0  0
  144.9066  134.7498  160.1683 H   0  0  0  0  0  0  0  0  0  0  0  0
  144.4468  136.7209  160.6937 H   0  0  0  0  0  0  0  0  0  0  0  0
  146.1983  136.0922  162.2754 H   0  0  0  0  0  0  0  0  0  0  0  0
  147.7909  135.2719  162.3909 H   0  0  0  0  0  0  0  0  0  0  0  0
  148.9667  136.2487  159.7985 H   0  0  0  0  0  0  0  0  0  0  0  0
  147.5803  137.2423  159.2448 H   0  0  0  0  0  0  0  0  0  0  0  0
  147.4641  131.5576  151.4385 H   0  0  0  0  0  0  0  0  0  0  0  0
  1  2  1  0  0  0  0
  1 28  1  0  0  0  0
  1 29  1  0  0  0  0
  1 30  1  0  0  0  0
  2  3  1  0  0  0  0
  2 31  1  0  0  0  0
  2 32  1  0  0  0  0
  3 10  1  0  0  0  0
  3  4  1  0  0  0  0
  3 56  1  0  0  0  0
  4  5  1  0  0  0  0
  4 33  1  0  0  0  0
  4 34  1  0  0  0  0
  5  6  1  0  0  0  0
  5 35  1  0  0  0  0
  5 36  1  0  0  0  0
  6 11  1  0  0  0  0
  6  7  1  0  0  0  0
  6 37  1  0  0  0  0
  7  8  1  0  0  0  0
  7 38  1  0  0  0  0
  7 39  1  0  0  0  0
  8  9  1  0  0  0  0
  8 40  1  0  0  0  0
  8 41  1  0  0  0  0
  9 10  1  0  0  0  0
  9 11  1  0  0  0  0
  9 42  1  0  0  0  0
 10 43  1  0  0  0  0
 10 44  1  0  0  0  0
 11 12  1  0  0  0  0
 12 17  1  0  0  0  0
 12 13  2  0  0  0  0
 13 14  1  0  0  0  0
 14 15  2  0  0  0  0
 14 45  1  0  0  0  0
 15 16  1  0  0  0  0
 16 20  1  0  0  0  0
 16 17  2  0  0  0  0
 17 18  1  0  0  0  0
 18 19  2  0  0  0  0
 19 20  1  0  0  0  0
 19 46  1  0  0  0  0
 20 21  1  0  0  0  0
 21 22  1  0  0  0  0
 21 47  1  0  0  0  0
 21 48  1  0  0  0  0
 22 27  1  0  0  0  0
 22 23  1  0  0  0  0
 22 25  1  0  0  0  0
 23 24  1  0  0  0  0
 23 49  1  0  0  0  0
 23 50  1  0  0  0  0
 24 51  1  0  0  0  0
 25 26  1  0  0  0  0
 25 52  1  0  0  0  0
 25 53  1  0  0  0  0
 26 27  1  0  0  0  0
 27 54  1  0  0  0  0
 27 55  1  0  0  0  0
M  CHG  1   3   1
M  END
> <s_m_source_file>
AV-unprocessed.smi

> <i_m_source_file_index>
169

> <i_lp_mmshare_version>
43012

> <i_f3d_flags>
0

> <s_epik_input>
W0NASF0xMltDSDJdW0NIMl1OKFtDSDJdW0NIM10pW0NIMl1bQ0BIXShbQ0gyXVtDSDJdMSlOMmMobltjSF1uMyljKGMzNCluW2NIXW40W0NIMl1DNShbQ0gyXVtPSF0pW0NIMl1PW0NIMl01

> <s_epik_cmdline>
J2VwaWtfcHl0aG9uJywgJy1waCcsICc3LjAnLCAnLXRuJywgJzgnLCAnLW1hJywgJzIwMCcsICctbWV0YWxfYmluZGluZycsICctaW1hZScsICc8aW5maWxlLm1hZT4nLCAnLW9tYWUnLCAnPG91dGZpbGUubWFlPic=

> <r_lp_tautomer_probability>
1

> <r_epik_Ionization_Penalty>
0.00274162

> <r_epik_Ionization_Penalty_Charging>
0.00243722

> <r_epik_Ionization_Penalty_Neutral>
0.000304399

> <r_epik_State_Penalty>
-0

> <r_epik_Charging_Adjusted_Penalty>
0.00243722

> <i_epik_Tot_Q>
1

> <i_epik_Tot_abs_Q>
1

> <r_epik_Metal_State_Penalty>
-0

> <b_epik_Metal_Only>
0

> <s_lp_Force_Field>
OPLS_2005

> <r_lp_Energy>
78.5453

> <b_lp_Chiralities_Consistent>
1

> <s_lp_Variant>
AV-unprocessed.smi:169-1

> <Gold.Version>
5.8.1

> <Gold.Id.Protein>
6NUR|6NUR_protein|mol2

> <Gold.PLP.Fitness>
38.9961

> <Gold.PLP.PLP>
-31.1799

> <Gold.PLP.part.hbond>
-3.0000

> <Gold.PLP.part.metal>
0.0000

> <Gold.PLP.part.buried>
-3.4502

> <Gold.PLP.part.nonpolar>
-24.9428

> <Gold.PLP.part.repulsive>
0.2581

> <Gold.PLP.ligand.clash>
0.0000

> <Gold.PLP.ligand.torsion>
0.5534

> <Gold.PLP.Chemscore.Hbond>
2.8080

> <Gold.PLP.Chemscore.CHOScore>
0.0000

> <Gold.PLP.Chemscore.Metal>
0.0000

> <Gold.Chemscore.Hbonds>
donor molecule, donor type, donor heavy atom, donor atom, acceptor molecule, acceptor atom, score
      L1  H     3    56       P1 10747  0.95
      P1  H  6931  6943       L1    26  1.00
      P1  H  6934  6947       L1    26  0.73

> <Gold.PLP.Chemscore.Internal.Correction>
0.4990

> <Gold.Rescore>
     Score         DG    S(hbond)    S(metal)    S(lipo)     H(rot)  DE(clash)    DE(int)     intcor
     15.01     -17.02       2.55        0.00      83.24       2.62       0.16       1.86       ----

> <Gold.Chemscore.Fitness>
15.0063

> <Gold.Chemscore.DG>
-17.0236

> <Gold.Chemscore.ZeroCoef>
-5.4800

> <Gold.Chemscore.Hbond>
2.5492

> <Gold.Chemscore.Metal>
0.0000

> <Gold.Chemscore.Lipo>
83.2425

> <Gold.Chemscore.Internal_Hbond>
0.0000

> <Gold.Chemscore.DEClash>
0.1574

> <Gold.Chemscore.DEInternal>
1.8599

> <Gold.Chemscore.Rot>
2.6212

> <Gold.Chemscore.Internal.Correction>
   9.000000E+99

> <Gold.Chemscore.Hbonds>
donor molecule, donor type, donor heavy atom, donor atom, acceptor molecule, acceptor atom, score
      L1  H     3    56       P1 10747  0.85
      P1  H  6931  6943       L1    26  0.94
      P1  H  6934  6947       L1    26  0.21

> <Gold.Chemscore.Hbond.Weighted>
-8.5145

> <Gold.Chemscore.Metal.Weighted>
-0.0000

> <Gold.Chemscore.Lipo.Weighted>
-9.7394

> <Gold.Chemscore.Internal_Hbond.Weighted>
0.0000

> <Gold.Chemscore.DEClash.Weighted>
0.1574

> <Gold.Chemscore.DEInternal.Weighted>
1.8599

> <Gold.Chemscore.Rot.Weighted>
6.7102

> <Gold.Chemscore.Internal.Correction.Weighted>
   9.000000E+99

> <Gold.Protein.RotatedTorsions>
[ 6907 6896 6895 6894 ] final  -42.43 input  -60.11 | X-H torsion
[ 7974 7965 7964 7962 ] final  -25.99 input  175.53 | X-H torsion
[ 8008 7997 7996 7995 ] final  -88.55 input   59.86 | X-H torsion
[ 10167 10162 10161 10158 ] final  112.72 input  -65.29 | X-H torsion
[ 10718 10713 10712 10709 ] final -144.19 input   66.30 | X-H torsion
[ 10763 10752 10751 10750 ] final  122.77 input  -60.55 | X-H torsion
[ 11005 11000 10999 10996 ] final -169.71 input  -57.11 | X-H torsion

> <Gold.Protein.ActiveResidues>
 VAL166  LYS551  ARG553  GLY616  TRP617  ASP618  TYR619  PRO620  LYS621  CYS622 
 ASP623  PHE694  ASN695  SER759  ASP760  ASP761  ALA762  ILE779  LEU786  VAL792 
 PHE793  MET794  SER795  GLU796  ALA797  LYS798  CYS799  TRP800  GLU811  SER814 

> <Gold.Protein.RotatedAtoms>
  150.9553  134.8948  159.7696 H   0  0  0  0  0  0  0  0  0  0  0  0  # atno 6907 bound_to 6896
  152.5135  134.3749  159.9341 H   0  0  0  0  0  0  0  0  0  0  0  0  # atno 6908 bound_to 6896
  151.3763  133.3796  159.2740 H   0  0  0  0  0  0  0  0  0  0  0  0  # atno 6909 bound_to 6896
  146.1455  140.4960  142.8634 H   0  0  0  0  0  0  0  0  0  0  0  0  # atno 7974 bound_to 7965
  154.6761  140.0552  157.0217 H   0  0  0  0  0  0  0  0  0  0  0  0  # atno 8008 bound_to 7997
  155.1019  140.3229  155.4526 H   0  0  0  0  0  0  0  0  0  0  0  0  # atno 8009 bound_to 7997
  156.2676  140.2029  156.6145 H   0  0  0  0  0  0  0  0  0  0  0  0  # atno 8010 bound_to 7997
  139.6515  144.7128  151.2039 H   0  0  0  0  0  0  0  0  0  0  0  0  # atno 10167 bound_to 10162
  156.3672  130.7769  151.1944 H   0  0  0  0  0  0  0  0  0  0  0  0  # atno 10718 bound_to 10713
  153.6350  135.3389  155.3054 H   0  0  0  0  0  0  0  0  0  0  0  0  # atno 10763 bound_to 10752
  154.8572  135.4305  154.2065 H   0  0  0  0  0  0  0  0  0  0  0  0  # atno 10764 bound_to 10752
  153.2970  135.7021  153.7313 H   0  0  0  0  0  0  0  0  0  0  0  0  # atno 10765 bound_to 10752
  140.5277  134.5647  157.5066 H   0  0  0  0  0  0  0  0  0  0  0  0  # atno 11005 bound_to 11000
  144.7841  140.5901  143.6585 LP  0  0  0  0  0  0  0  0  0  0  0  0  # atno 17320 bound_to 7965
  145.4948  139.1486  143.3690 LP  0  0  0  0  0  0  0  0  0  0  0  0  # atno 17321 bound_to 7965
  140.7540  143.6143  150.8575 LP  0  0  0  0  0  0  0  0  0  0  0  0  # atno 17342 bound_to 10162
  139.9791  143.5971  152.2949 LP  0  0  0  0  0  0  0  0  0  0  0  0  # atno 17343 bound_to 10162
  157.7480  131.0383  150.4496 LP  0  0  0  0  0  0  0  0  0  0  0  0  # atno 17370 bound_to 10713
  156.4717  130.4054  149.6514 LP  0  0  0  0  0  0  0  0  0  0  0  0  # atno 17371 bound_to 10713
  139.9571  134.7516  156.0317 LP  0  0  0  0  0  0  0  0  0  0  0  0  # atno 17394 bound_to 11000
  141.1299  133.6589  156.3436 LP  0  0  0  0  0  0  0  0  0  0  0  0  # atno 17395 bound_to 11000

$$$$
