AV-unprocessed.smi:286|AV-procd|sdf|2176|dock4
  -GOLD-   2262021543D 1   1.00000     0.00000
 Structure written by MMmdl.
 46 48  0  0  0  0  0  0  0  0  1 V2000
  150.5380  138.0110  159.3191 O   0  0  0  0  0  0  0  0  0  0  0  0
  150.2434  138.5345  158.2434 C   0  0  0  0  0  0  0  0  0  0  0  0
  148.8693  138.6793  157.7744 C   0  0  0  0  0  0  0  0  0  0  0  0
  147.8587  138.2027  158.5210 F   0  0  0  0  0  0  0  0  0  0  0  0
  148.5930  139.2814  156.5975 C   0  0  0  0  0  0  0  0  0  0  0  0
  149.5713  139.8029  155.7678 N   0  0  0  0  0  0  0  0  0  0  0  0
  149.2139  140.4702  154.4590 C   0  0  1  0  0  0  0  0  0  0  0  0
  148.1964  139.6188  153.6902 C   0  0  0  0  0  0  0  0  0  0  0  0
  146.8861  140.2744  154.0701 C   0  0  0  0  0  0  0  0  0  0  0  0
  147.2990  141.7365  154.1878 C   0  0  0  0  0  0  0  0  0  0  0  0
  148.6174  141.7072  154.7264 O   0  0  0  0  0  0  0  0  0  0  0  0
  150.9309  139.6907  156.1316 C   0  0  0  0  0  0  0  0  0  0  0  0
  151.8208  140.1374  155.4034 O   0  0  0  0  0  0  0  0  0  0  0  0
  151.2232  139.0508  157.3596 N   0  0  0  0  0  0  0  0  0  0  0  0
  152.6189  138.9549  157.7551 C   0  0  0  0  0  0  0  0  0  0  0  0
  152.9220  139.6430  159.1066 C   0  0  1  0  0  0  0  0  0  0  0  0
  154.3236  139.7650  159.2563 O   0  0  0  0  0  0  0  0  0  0  0  0
  152.2709  141.0433  159.2212 C   0  0  0  0  0  0  0  0  0  0  0  0
  152.1771  141.8011  157.8755 C   0  0  0  0  0  0  0  0  0  0  0  0
  151.4751  143.1591  158.0398 C   0  0  0  0  0  0  0  0  0  0  0  0
  152.1678  144.0220  159.1056 C   0  0  0  0  0  0  0  0  0  0  0  0
  152.2583  143.2786  160.4471 C   0  0  0  0  0  0  0  0  0  0  0  0
  152.9635  141.9218  160.2863 C   0  0  0  0  0  0  0  0  0  0  0  0
  147.5569  139.3515  156.3015 H   0  0  0  0  0  0  0  0  0  0  0  0
  150.1520  140.6273  153.9248 H   0  0  0  0  0  0  0  0  0  0  0  0
  148.3847  139.7326  152.6220 H   0  0  0  0  0  0  0  0  0  0  0  0
  148.2567  138.5609  153.9492 H   0  0  0  0  0  0  0  0  0  0  0  0
  146.0967  140.1113  153.3361 H   0  0  0  0  0  0  0  0  0  0  0  0
  146.5401  139.8992  155.0342 H   0  0  0  0  0  0  0  0  0  0  0  0
  147.3332  142.2019  153.2018 H   0  0  0  0  0  0  0  0  0  0  0  0
  146.6222  142.3167  154.8155 H   0  0  0  0  0  0  0  0  0  0  0  0
  152.9214  137.9064  157.7408 H   0  0  0  0  0  0  0  0  0  0  0  0
  153.1938  139.4068  156.9448 H   0  0  0  0  0  0  0  0  0  0  0  0
  152.5472  139.0259  159.9243 H   0  0  0  0  0  0  0  0  0  0  0  0
  154.6595  138.9546  159.6073 H   0  0  0  0  0  0  0  0  0  0  0  0
  151.2496  140.8822  159.5707 H   0  0  0  0  0  0  0  0  0  0  0  0
  153.1746  141.9620  157.4647 H   0  0  0  0  0  0  0  0  0  0  0  0
  151.6342  141.2071  157.1402 H   0  0  0  0  0  0  0  0  0  0  0  0
  151.4617  143.6871  157.0860 H   0  0  0  0  0  0  0  0  0  0  0  0
  150.4328  142.9999  158.3192 H   0  0  0  0  0  0  0  0  0  0  0  0
  153.1699  144.2878  158.7665 H   0  0  0  0  0  0  0  0  0  0  0  0
  151.6257  144.9593  159.2351 H   0  0  0  0  0  0  0  0  0  0  0  0
  152.7915  143.8903  161.1754 H   0  0  0  0  0  0  0  0  0  0  0  0
  151.2556  143.1245  160.8484 H   0  0  0  0  0  0  0  0  0  0  0  0
  152.9770  141.4049  161.2465 H   0  0  0  0  0  0  0  0  0  0  0  0
  154.0058  142.0901  160.0128 H   0  0  0  0  0  0  0  0  0  0  0  0
  1  2  2  0  0  0  0
  2 14  1  0  0  0  0
  2  3  1  0  0  0  0
  3  4  1  0  0  0  0
  3  5  2  0  0  0  0
  5  6  1  0  0  0  0
  5 24  1  0  0  0  0
  6  7  1  0  0  0  0
  6 12  1  0  0  0  0
  7 11  1  0  0  0  0
  7  8  1  0  0  0  0
  7 25  1  0  0  0  0
  8  9  1  0  0  0  0
  8 26  1  0  0  0  0
  8 27  1  0  0  0  0
  9 10  1  0  0  0  0
  9 28  1  0  0  0  0
  9 29  1  0  0  0  0
 10 11  1  0  0  0  0
 10 30  1  0  0  0  0
 10 31  1  0  0  0  0
 12 13  2  0  0  0  0
 12 14  1  0  0  0  0
 14 15  1  0  0  0  0
 15 16  1  0  0  0  0
 15 32  1  0  0  0  0
 15 33  1  0  0  0  0
 16 17  1  0  0  0  0
 16 18  1  0  0  0  0
 16 34  1  0  0  0  0
 17 35  1  0  0  0  0
 18 23  1  0  0  0  0
 18 19  1  0  0  0  0
 18 36  1  0  0  0  0
 19 20  1  0  0  0  0
 19 37  1  0  0  0  0
 19 38  1  0  0  0  0
 20 21  1  0  0  0  0
 20 39  1  0  0  0  0
 20 40  1  0  0  0  0
 21 22  1  0  0  0  0
 21 41  1  0  0  0  0
 21 42  1  0  0  0  0
 22 23  1  0  0  0  0
 22 43  1  0  0  0  0
 22 44  1  0  0  0  0
 23 45  1  0  0  0  0
 23 46  1  0  0  0  0
M  END
> <s_m_source_file>
AV-unprocessed.smi

> <i_m_source_file_index>
286

> <i_lp_mmshare_version>
43012

> <i_f3d_flags>
0

> <s_epik_input>
TzFbQ0gyXVtDSDJdW0NIMl1bQ0BIXTFuKFtjSF1jKEYpYzI9TyljKD1PKW4yW0NIMl1bQ0BIXShbT0hdKVtDSF0zW0NIMl1bQ0gyXVtDSDJdW0NIMl1bQ0gyXTM=

> <s_epik_cmdline>
J2VwaWtfcHl0aG9uJywgJy1waCcsICc3LjAnLCAnLXRuJywgJzgnLCAnLW1hJywgJzIwMCcsICctbWV0YWxfYmluZGluZycsICctaW1hZScsICc8aW5maWxlLm1hZT4nLCAnLW9tYWUnLCAnPG91dGZpbGUubWFlPic=

> <r_lp_tautomer_probability>
1

> <r_epik_Ionization_Penalty>
3.15564e-07

> <r_epik_Ionization_Penalty_Charging>
2.06416e-08

> <r_epik_Ionization_Penalty_Neutral>
2.94923e-07

> <r_epik_State_Penalty>
-0

> <r_epik_Charging_Adjusted_Penalty>
2.06416e-08

> <i_epik_Tot_Q>
0

> <i_epik_Tot_abs_Q>
0

> <r_epik_Metal_State_Penalty>
-0

> <b_epik_Metal_Only>
0

> <s_epik_Chemistry_Notes>
This compound contains an acetal/aminal-like group ( X-CH(R)-Y where X, Y are N, S, or O) that may be acid/base labile, releasing an aldehyde.

> <s_lp_Force_Field>
OPLS_2005

> <r_lp_Energy>
42.0749

> <b_lp_Chiralities_Consistent>
1

> <s_lp_Variant>
AV-unprocessed.smi:286-4

> <Gold.Version>
5.8.1

> <Gold.Id.Protein>
6NUR|6NUR_protein|mol2

> <Gold.PLP.Fitness>
40.0328

> <Gold.PLP.PLP>
-36.0147

> <Gold.PLP.part.hbond>
-2.5417

> <Gold.PLP.part.metal>
0.0000

> <Gold.PLP.part.buried>
-4.3508

> <Gold.PLP.part.nonpolar>
-30.4259

> <Gold.PLP.part.repulsive>
0.1645

> <Gold.PLP.ligand.clash>
0.0022

> <Gold.PLP.ligand.torsion>
0.9133

> <Gold.PLP.Chemscore.Hbond>
1.9280

> <Gold.PLP.Chemscore.CHOScore>
0.0000

> <Gold.PLP.Chemscore.Metal>
0.0000

> <Gold.Chemscore.Hbonds>
donor molecule, donor type, donor heavy atom, donor atom, acceptor molecule, acceptor atom, score
      P1  H  7989  7998       L1    13  0.84
      P1  H  7997  8010       L1    17  0.62

> <Gold.PLP.Chemscore.Internal.Correction>
0.0628

> <Gold.Rescore>
     Score         DG    S(hbond)    S(metal)    S(lipo)     H(rot)  DE(clash)    DE(int)     intcor
     13.16     -15.09       1.87        0.00      78.51       2.28       0.02       1.91       ----

> <Gold.Chemscore.Fitness>
13.1608

> <Gold.Chemscore.DG>
-15.0869

> <Gold.Chemscore.ZeroCoef>
-5.4800

> <Gold.Chemscore.Hbond>
1.8703

> <Gold.Chemscore.Metal>
0.0000

> <Gold.Chemscore.Lipo>
78.5091

> <Gold.Chemscore.Internal_Hbond>
0.0000

> <Gold.Chemscore.DEClash>
0.0197

> <Gold.Chemscore.DEInternal>
1.9065

> <Gold.Chemscore.Rot>
2.2756

> <Gold.Chemscore.Internal.Correction>
   9.000000E+99

> <Gold.Chemscore.Hbonds>
donor molecule, donor type, donor heavy atom, donor atom, acceptor molecule, acceptor atom, score
      P1  H  7989  7998       L1    13  0.78
      P1  H  7997  8010       L1    17  0.09

> <Gold.Chemscore.Hbond.Weighted>
-6.2468

> <Gold.Chemscore.Metal.Weighted>
-0.0000

> <Gold.Chemscore.Lipo.Weighted>
-9.1856

> <Gold.Chemscore.Internal_Hbond.Weighted>
0.0000

> <Gold.Chemscore.DEClash.Weighted>
0.0197

> <Gold.Chemscore.DEInternal.Weighted>
1.9065

> <Gold.Chemscore.Rot.Weighted>
5.8254

> <Gold.Chemscore.Internal.Correction.Weighted>
   9.000000E+99

> <Gold.Protein.RotatedTorsions>
[ 6907 6896 6895 6894 ] final   88.88 input  -60.11 | X-H torsion
[ 7974 7965 7964 7962 ] final -128.76 input  175.53 | X-H torsion
[ 8008 7997 7996 7995 ] final   21.62 input   59.86 | X-H torsion
[ 10167 10162 10161 10158 ] final -138.21 input  -65.29 | X-H torsion
[ 10718 10713 10712 10709 ] final    8.68 input   66.30 | X-H torsion
[ 10763 10752 10751 10750 ] final  112.63 input  -60.55 | X-H torsion
[ 11005 11000 10999 10996 ] final   -2.78 input  -57.11 | X-H torsion

> <Gold.Protein.ActiveResidues>
 VAL166  LYS551  ARG553  GLY616  TRP617  ASP618  TYR619  PRO620  LYS621  CYS622 
 ASP623  PHE694  ASN695  SER759  ASP760  ASP761  ALA762  ILE779  LEU786  VAL792 
 PHE793  MET794  SER795  GLU796  ALA797  LYS798  CYS799  TRP800  GLU811  SER814 

> <Gold.Protein.RotatedAtoms>
  152.5430  134.2053  159.8728 H   0  0  0  0  0  0  0  0  0  0  0  0  # atno 6907 bound_to 6896
  151.2039  133.4588  159.2604 H   0  0  0  0  0  0  0  0  0  0  0  0  # atno 6908 bound_to 6896
  151.0962  134.9958  159.8482 H   0  0  0  0  0  0  0  0  0  0  0  0  # atno 6909 bound_to 6896
  144.9639  140.7475  143.4712 H   0  0  0  0  0  0  0  0  0  0  0  0  # atno 7974 bound_to 7965
  154.9534  140.3068  155.5064 H   0  0  0  0  0  0  0  0  0  0  0  0  # atno 8008 bound_to 7997
  156.2985  140.2314  156.4551 H   0  0  0  0  0  0  0  0  0  0  0  0  # atno 8009 bound_to 7997
  154.8033  140.0433  157.1277 H   0  0  0  0  0  0  0  0  0  0  0  0  # atno 8010 bound_to 7997
  139.8501  143.7210  152.2658 H   0  0  0  0  0  0  0  0  0  0  0  0  # atno 10167 bound_to 10162
  156.9552  130.5912  149.5659 H   0  0  0  0  0  0  0  0  0  0  0  0  # atno 10718 bound_to 10713
  153.4806  135.3680  155.2440 H   0  0  0  0  0  0  0  0  0  0  0  0  # atno 10763 bound_to 10752
  154.8755  135.3953  154.3704 H   0  0  0  0  0  0  0  0  0  0  0  0  # atno 10764 bound_to 10752
  153.4307  135.7082  153.6297 H   0  0  0  0  0  0  0  0  0  0  0  0  # atno 10765 bound_to 10752
  140.6621  133.9311  155.8442 H   0  0  0  0  0  0  0  0  0  0  0  0  # atno 11005 bound_to 11000
  145.2659  139.1974  143.4867 LP  0  0  0  0  0  0  0  0  0  0  0  0  # atno 17320 bound_to 7965
  146.3361  140.2597  142.8601 LP  0  0  0  0  0  0  0  0  0  0  0  0  # atno 17321 bound_to 7965
  139.7474  144.7543  151.0559 LP  0  0  0  0  0  0  0  0  0  0  0  0  # atno 17342 bound_to 10162
  140.7788  143.4900  150.9905 LP  0  0  0  0  0  0  0  0  0  0  0  0  # atno 17343 bound_to 10162
  156.0345  130.5434  150.8620 LP  0  0  0  0  0  0  0  0  0  0  0  0  # atno 17370 bound_to 10713
  157.5695  131.0946  150.9439 LP  0  0  0  0  0  0  0  0  0  0  0  0  # atno 17371 bound_to 10713
  141.0457  134.0557  157.3847 LP  0  0  0  0  0  0  0  0  0  0  0  0  # atno 17394 bound_to 11000
  139.9009  135.0164  156.7265 LP  0  0  0  0  0  0  0  0  0  0  0  0  # atno 17395 bound_to 11000

$$$$
