AV-unprocessed.smi:34|AV-procd|sdf|221|dock7
  -GOLD-   2262015543D 1   1.00000     0.00000
 Structure written by MMmdl.
 55 59  0  0  0  0  0  0  0  0  1 V2000
  152.3281  140.1698  156.9056 O   0  0  0  0  0  0  0  0  0  0  0  0
  151.5135  141.0816  157.0514 C   0  0  0  0  0  0  0  0  0  0  0  0
  150.3093  141.1784  156.2452 N   0  0  0  0  0  0  0  0  0  0  0  0
  149.8446  140.2983  155.3271 C   0  0  0  0  0  0  0  0  0  0  0  0
  150.6179  139.3075  154.8099 N   0  0  0  0  0  0  0  0  0  0  0  0
  150.1114  138.4580  153.9114 C   0  0  0  0  0  0  0  0  0  0  0  0
  148.8786  138.4205  153.4026 N   0  0  0  0  0  0  0  0  0  0  0  0
  148.0955  139.4124  153.9162 C   0  0  0  0  0  0  0  0  0  0  0  0
  148.5021  140.3828  154.8740 C   0  0  0  0  0  0  0  0  0  0  0  0
  147.4407  141.2305  155.1637 N   0  0  0  0  0  0  0  0  0  0  0  0
  146.4652  140.7820  154.4196 C   0  0  0  0  0  0  0  0  0  0  0  0
  146.7737  139.6922  153.6362 N   0  0  0  0  0  0  0  0  0  0  0  0
  145.8745  138.9580  152.6971 C   0  0  2  0  0  0  0  0  0  0  0  0
  144.7764  138.5061  153.4239 O   0  0  0  0  0  0  0  0  0  0  0  0
  144.3486  137.2747  152.8651 C   0  0  2  0  0  0  0  0  0  0  0  0
  143.4659  136.5022  153.8528 C   0  0  0  0  0  0  0  0  0  0  0  0
  142.1774  137.0933  153.8861 O   0  0  0  0  0  0  0  0  0  0  0  0
  141.0792  136.3141  153.9305 C   0  0  0  0  0  0  0  0  0  0  0  0
  141.1170  135.0820  153.9479 O   0  0  0  0  0  0  0  0  0  0  0  0
  139.8112  137.0993  153.9551 C   0  0  0  0  0  0  0  0  0  0  0  0
  139.6893  138.2451  153.1345 C   0  0  0  0  0  0  0  0  0  0  0  0
  138.5036  139.0053  153.1354 C   0  0  0  0  0  0  0  0  0  0  0  0
  137.4247  138.6282  153.9561 C   0  0  0  0  0  0  0  0  0  0  0  0
  137.5330  137.4903  154.7764 C   0  0  0  0  0  0  0  0  0  0  0  0
  138.7182  136.7292  154.7774 C   0  0  0  0  0  0  0  0  0  0  0  0
  145.6648  136.5775  152.5135 C   0  0  2  0  0  0  0  0  0  0  0  0
  146.1803  135.9642  153.5801 F   0  0  0  0  0  0  0  0  0  0  0  0
  146.5774  137.7262  152.0976 C   0  0  1  0  0  0  0  0  0  0  0  0
  146.6467  137.7929  150.6874 O   0  0  0  0  0  0  0  0  0  0  0  0
  151.7542  142.2075  158.0152 C   0  0  0  0  0  0  0  0  0  0  0  0
  151.2744  143.5039  157.7216 C   0  0  0  0  0  0  0  0  0  0  0  0
  151.5102  144.5702  158.6113 C   0  0  0  0  0  0  0  0  0  0  0  0
  152.2334  144.3510  159.7990 C   0  0  0  0  0  0  0  0  0  0  0  0
  152.7258  143.0656  160.0935 C   0  0  0  0  0  0  0  0  0  0  0  0
  152.4913  141.9986  159.2044 C   0  0  0  0  0  0  0  0  0  0  0  0
  149.7340  141.9919  156.4073 H   0  0  0  0  0  0  0  0  0  0  0  0
  150.7904  137.7005  153.5490 H   0  0  0  0  0  0  0  0  0  0  0  0
  145.4856  141.2378  154.4222 H   0  0  0  0  0  0  0  0  0  0  0  0
  145.5687  139.6958  151.9535 H   0  0  0  0  0  0  0  0  0  0  0  0
  143.7980  137.4794  151.9449 H   0  0  0  0  0  0  0  0  0  0  0  0
  143.3713  135.4639  153.5321 H   0  0  0  0  0  0  0  0  0  0  0  0
  143.9138  136.5021  154.8476 H   0  0  0  0  0  0  0  0  0  0  0  0
  140.5043  138.5542  152.4958 H   0  0  0  0  0  0  0  0  0  0  0  0
  138.4225  139.8788  152.5051 H   0  0  0  0  0  0  0  0  0  0  0  0
  136.5153  139.2110  153.9566 H   0  0  0  0  0  0  0  0  0  0  0  0
  136.7054  137.1994  155.4064 H   0  0  0  0  0  0  0  0  0  0  0  0
  138.7673  135.8606  155.4177 H   0  0  0  0  0  0  0  0  0  0  0  0
  145.5424  135.8120  151.7461 H   0  0  0  0  0  0  0  0  0  0  0  0
  147.5849  137.6094  152.5001 H   0  0  0  0  0  0  0  0  0  0  0  0
  145.8110  138.0889  150.3603 H   0  0  0  0  0  0  0  0  0  0  0  0
  150.7186  143.6894  156.8135 H   0  0  0  0  0  0  0  0  0  0  0  0
  151.1366  145.5571  158.3814 H   0  0  0  0  0  0  0  0  0  0  0  0
  152.4140  145.1686  160.4811 H   0  0  0  0  0  0  0  0  0  0  0  0
  153.2868  142.8984  161.0014 H   0  0  0  0  0  0  0  0  0  0  0  0
  152.8874  141.0228  159.4459 H   0  0  0  0  0  0  0  0  0  0  0  0
  1  2  2  0  0  0  0
  2  3  1  0  0  0  0
  2 30  1  0  0  0  0
  3  4  1  0  0  0  0
  3 36  1  0  0  0  0
  4  9  1  0  0  0  0
  4  5  2  0  0  0  0
  5  6  1  0  0  0  0
  6  7  2  0  0  0  0
  6 37  1  0  0  0  0
  7  8  1  0  0  0  0
  8 12  1  0  0  0  0
  8  9  2  0  0  0  0
  9 10  1  0  0  0  0
 10 11  2  0  0  0  0
 11 12  1  0  0  0  0
 11 38  1  0  0  0  0
 12 13  1  0  0  0  0
 13 28  1  0  0  0  0
 13 14  1  0  0  0  0
 13 39  1  0  0  0  0
 14 15  1  0  0  0  0
 15 16  1  0  0  0  0
 15 26  1  0  0  0  0
 15 40  1  0  0  0  0
 16 17  1  0  0  0  0
 16 41  1  0  0  0  0
 16 42  1  0  0  0  0
 17 18  1  0  0  0  0
 18 19  2  0  0  0  0
 18 20  1  0  0  0  0
 20 25  1  0  0  0  0
 20 21  2  0  0  0  0
 21 22  1  0  0  0  0
 21 43  1  0  0  0  0
 22 23  2  0  0  0  0
 22 44  1  0  0  0  0
 23 24  1  0  0  0  0
 23 45  1  0  0  0  0
 24 25  2  0  0  0  0
 24 46  1  0  0  0  0
 25 47  1  0  0  0  0
 26 27  1  0  0  0  0
 26 28  1  0  0  0  0
 26 48  1  0  0  0  0
 28 29  1  0  0  0  0
 28 49  1  0  0  0  0
 29 50  1  0  0  0  0
 30 35  1  0  0  0  0
 30 31  2  0  0  0  0
 31 32  1  0  0  0  0
 31 51  1  0  0  0  0
 32 33  2  0  0  0  0
 32 52  1  0  0  0  0
 33 34  1  0  0  0  0
 33 53  1  0  0  0  0
 34 35  2  0  0  0  0
 34 54  1  0  0  0  0
 35 55  1  0  0  0  0
M  END
> <s_m_source_file>
AV-unprocessed.smi

> <i_m_source_file_index>
34

> <i_lp_mmshare_version>
43012

> <i_f3d_flags>
0

> <s_epik_input>
W2NIXTFbY0hdW2NIXVtjSF1bY0hdYzFDKD1PKVtOSF1jKG5bY0hdbjIpYyhjMjMpbltjSF1uM1tDQEBIXTRPW0NASF0oW0NAQEhdKEYpW0NASF00W09IXSlbQ0gyXU9DKD1PKWM1W2NIXVtjSF1bY0hdW2NIXVtjSF01

> <s_epik_cmdline>
J2VwaWtfcHl0aG9uJywgJy1waCcsICc3LjAnLCAnLXRuJywgJzgnLCAnLW1hJywgJzIwMCcsICctbWV0YWxfYmluZGluZycsICctaW1hZScsICc8aW5maWxlLm1hZT4nLCAnLW9tYWUnLCAnPG91dGZpbGUubWFlPic=

> <r_lp_tautomer_probability>
1

> <r_epik_Ionization_Penalty>
0.00257489

> <r_epik_Ionization_Penalty_Charging>
0

> <r_epik_Ionization_Penalty_Neutral>
0.00257489

> <r_epik_State_Penalty>
0.00519398

> <r_epik_Charging_Adjusted_Penalty>
0.00519398

> <i_epik_Tot_Q>
0

> <i_epik_Tot_abs_Q>
0

> <r_epik_Metal_State_Penalty>
0.335891

> <b_epik_Metal_Only>
0

> <s_epik_Chemistry_Notes>
This compound has an ester and may undergo hydrolysis at high or low pH. This compound contains an acetal/aminal-like group ( X-CH(R)-Y where X, Y are N, S, or O) that may be acid/base labile, releasing an aldehyde.

> <s_lp_Force_Field>
OPLS_2005

> <r_lp_Energy>
45.7986

> <b_lp_Chiralities_Consistent>
1

> <s_lp_Variant>
AV-unprocessed.smi:34-7

> <Gold.Version>
5.8.1

> <Gold.Id.Protein>
6NUR|6NUR_protein|mol2

> <Gold.PLP.Fitness>
61.5172

> <Gold.PLP.PLP>
-49.6275

> <Gold.PLP.part.hbond>
-5.2289

> <Gold.PLP.part.metal>
0.0000

> <Gold.PLP.part.buried>
-3.0002

> <Gold.PLP.part.nonpolar>
-52.7603

> <Gold.PLP.part.repulsive>
9.8491

> <Gold.PLP.ligand.clash>
0.5402

> <Gold.PLP.ligand.torsion>
1.4881

> <Gold.PLP.Chemscore.Hbond>
4.1887

> <Gold.PLP.Chemscore.CHOScore>
0.8733

> <Gold.PLP.Chemscore.Metal>
0.0000

> <Gold.Chemscore.Hbonds>
donor molecule, donor type, donor heavy atom, donor atom, acceptor molecule, acceptor atom, score
      L1  H    29    50       P1 10171  0.93
      P1  H  7954  7966       L1    29  1.00
      P1  H  7989  7998       L1     5  0.18
      P1  H  7997  8008       L1     1  0.91
      P1  H 11000 11005       L1    19  0.83
      L1  C     6    37       P1  7948  0.05
      L1  C     6    37       P1  7949  0.50
      L1  C    11    38       P1 10175  0.36

> <Gold.PLP.Chemscore.Internal.Correction>
0.2202

> <Gold.Rescore>
     Score         DG    S(hbond)    S(metal)    S(lipo)     H(rot)  DE(clash)    DE(int)     intcor
     16.57     -26.75       3.78        0.00     133.37       2.72       5.70       4.48       ----

> <Gold.Chemscore.Fitness>
16.5676

> <Gold.Chemscore.DG>
-26.7489

> <Gold.Chemscore.ZeroCoef>
-5.4800

> <Gold.Chemscore.Hbond>
3.7819

> <Gold.Chemscore.Metal>
0.0000

> <Gold.Chemscore.Lipo>
133.3699

> <Gold.Chemscore.Internal_Hbond>
0.0000

> <Gold.Chemscore.DEClash>
5.6988

> <Gold.Chemscore.DEInternal>
4.4824

> <Gold.Chemscore.Rot>
2.7215

> <Gold.Chemscore.Internal.Correction>
   9.000000E+99

> <Gold.Chemscore.Hbonds>
donor molecule, donor type, donor heavy atom, donor atom, acceptor molecule, acceptor atom, score
      L1  H    29    50       P1 10171  0.89
      P1  H  7954  7966       L1    29  0.96
      P1  H  7997  8008       L1     1  0.84
      P1  H 11000 11005       L1    19  0.75

> <Gold.Chemscore.Hbond.Weighted>
-12.6316

> <Gold.Chemscore.Metal.Weighted>
-0.0000

> <Gold.Chemscore.Lipo.Weighted>
-15.6043

> <Gold.Chemscore.Internal_Hbond.Weighted>
0.0000

> <Gold.Chemscore.DEClash.Weighted>
5.6988

> <Gold.Chemscore.DEInternal.Weighted>
4.4824

> <Gold.Chemscore.Rot.Weighted>
6.9670

> <Gold.Chemscore.Internal.Correction.Weighted>
   9.000000E+99

> <Gold.Protein.RotatedTorsions>
[ 6907 6896 6895 6894 ] final  -18.18 input  -60.11 | X-H torsion
[ 7974 7965 7964 7962 ] final  -93.93 input  175.53 | X-H torsion
[ 8008 7997 7996 7995 ] final  -62.21 input   59.86 | X-H torsion
[ 10167 10162 10161 10158 ] final   -6.13 input  -65.29 | X-H torsion
[ 10718 10713 10712 10709 ] final  117.95 input   66.30 | X-H torsion
[ 10763 10752 10751 10750 ] final -133.86 input  -60.55 | X-H torsion
[ 11005 11000 10999 10996 ] final   14.72 input  -57.11 | X-H torsion

> <Gold.Protein.ActiveResidues>
 VAL166  LYS551  ARG553  GLY616  TRP617  ASP618  TYR619  PRO620  LYS621  CYS622 
 ASP623  PHE694  ASN695  SER759  ASP760  ASP761  ALA762  ILE779  LEU786  VAL792 
 PHE793  MET794  SER795  GLU796  ALA797  LYS798  CYS799  TRP800  GLU811  SER814 

> <Gold.Protein.RotatedAtoms>
  151.2821  135.0717  159.9172 H   0  0  0  0  0  0  0  0  0  0  0  0  # atno 6907 bound_to 6896
  152.5332  134.0020  159.7909 H   0  0  0  0  0  0  0  0  0  0  0  0  # atno 6908 bound_to 6896
  151.0275  133.5769  159.2695 H   0  0  0  0  0  0  0  0  0  0  0  0  # atno 6909 bound_to 6896
  145.3800  140.9516  143.2399 H   0  0  0  0  0  0  0  0  0  0  0  0  # atno 7974 bound_to 7965
  154.4488  140.1001  156.6551 H   0  0  0  0  0  0  0  0  0  0  0  0  # atno 8008 bound_to 7997
  155.5354  140.3482  155.4417 H   0  0  0  0  0  0  0  0  0  0  0  0  # atno 8009 bound_to 7997
  156.0634  140.1332  156.9903 H   0  0  0  0  0  0  0  0  0  0  0  0  # atno 8010 bound_to 7997
  140.6987  143.6229  150.8596 H   0  0  0  0  0  0  0  0  0  0  0  0  # atno 10167 bound_to 10162
  157.6062  131.1043  150.7688 H   0  0  0  0  0  0  0  0  0  0  0  0  # atno 10718 bound_to 10713
  154.8727  135.3752  154.4642 H   0  0  0  0  0  0  0  0  0  0  0  0  # atno 10763 bound_to 10752
  153.5308  135.7028  153.5689 H   0  0  0  0  0  0  0  0  0  0  0  0  # atno 10764 bound_to 10752
  153.3895  135.3976  155.1878 H   0  0  0  0  0  0  0  0  0  0  0  0  # atno 10765 bound_to 10752
  140.4663  134.1076  155.7725 H   0  0  0  0  0  0  0  0  0  0  0  0  # atno 11005 bound_to 11000
  144.8514  139.5315  143.6854 LP  0  0  0  0  0  0  0  0  0  0  0  0  # atno 17320 bound_to 7965
  146.2846  139.6970  142.9204 LP  0  0  0  0  0  0  0  0  0  0  0  0  # atno 17321 bound_to 7965
  139.9949  143.5807  152.2897 LP  0  0  0  0  0  0  0  0  0  0  0  0  # atno 17342 bound_to 10162
  139.6475  144.7659  151.2214 LP  0  0  0  0  0  0  0  0  0  0  0  0  # atno 17343 bound_to 10162
  156.8075  130.4941  149.5360 LP  0  0  0  0  0  0  0  0  0  0  0  0  # atno 17370 bound_to 10713
  156.1150  130.6068  151.0106 LP  0  0  0  0  0  0  0  0  0  0  0  0  # atno 17371 bound_to 10713
  141.1598  133.8815  157.1880 LP  0  0  0  0  0  0  0  0  0  0  0  0  # atno 17394 bound_to 11000
  139.9913  135.0063  156.9981 LP  0  0  0  0  0  0  0  0  0  0  0  0  # atno 17395 bound_to 11000

$$$$
