AV-unprocessed.smi:21|AV-procd|sdf|164|dock9
  -GOLD-   2262015403D 1   1.00000     0.00000
 Structure written by MMmdl.
 61 64  0  0  0  0  0  0  0  0  1 V2000
  149.1368  144.7469  160.0292 C   0  0  0  0  0  0  0  0  0  0  0  0
  150.4290  144.6484  160.6071 O   0  0  0  0  0  0  0  0  0  0  0  0
  151.4656  144.4745  159.6502 C   0  0  2  0  0  0  0  0  0  0  0  0
  151.0800  143.4434  158.5749 C   0  0  0  0  0  0  0  0  0  0  0  0
  152.2178  142.4113  158.6006 C   0  0  2  0  0  0  0  0  0  0  0  0
  151.7945  141.0108  158.0989 C   0  0  0  0  0  0  0  0  0  0  0  0
  151.6242  140.9382  156.6468 N   0  0  0  0  0  0  0  0  0  0  0  0
  150.6922  141.8836  156.0370 C   0  0  0  0  0  0  0  0  0  0  0  0
  151.8360  139.7486  156.0178 C   0  0  0  0  0  0  0  0  0  0  0  0
  152.8360  139.6603  155.0989 N   0  0  0  0  0  0  0  0  0  0  0  0
  153.0539  138.5236  154.4329 C   0  0  0  0  0  0  0  0  0  0  0  0
  152.4020  137.3647  154.5278 N   0  0  0  0  0  0  0  0  0  0  0  0
  151.4073  137.4343  155.4573 C   0  0  0  0  0  0  0  0  0  0  0  0
  151.0622  138.5710  156.2449 C   0  0  0  0  0  0  0  0  0  0  0  0
  150.0078  138.2442  157.0912 N   0  0  0  0  0  0  0  0  0  0  0  0
  149.7339  137.0011  156.8075 C   0  0  0  0  0  0  0  0  0  0  0  0
  150.5300  136.4348  155.8399 N   0  0  0  0  0  0  0  0  0  0  0  0
  150.4402  135.0759  155.3334 C   0  0  0  0  0  0  0  0  0  0  0  0
  149.3133  134.2459  155.9979 C   0  0  2  0  0  0  0  0  0  0  0  0
  149.5909  134.0395  157.5090 C   0  0  0  0  0  0  0  0  0  0  0  0
  150.8971  133.5563  157.7405 O   0  0  0  0  0  0  0  0  0  0  0  0
  149.1217  132.9014  155.2431 C   0  0  1  0  0  0  0  0  0  0  0  0
  148.7692  133.0141  153.7696 C   0  0  0  0  0  0  0  0  0  0  0  0
  149.1091  131.6239  153.2463 C   0  0  0  0  0  0  0  0  0  0  0  0
  150.2232  131.1911  154.0161 O   0  0  0  0  0  0  0  0  0  0  0  0
  150.3836  132.0329  155.1533 C   0  0  0  0  0  0  0  0  0  0  0  0
  152.6834  142.4380  159.9781 N   0  0  0  0  0  0  0  0  0  0  0  0
  153.9891  141.8220  160.1754 C   0  0  0  0  0  0  0  0  0  0  0  0
  152.6878  143.8463  160.3286 C   0  0  0  0  0  0  0  0  0  0  0  0
  151.7475  145.4325  159.2100 H   0  0  0  0  0  0  0  0  0  0  0  0
  153.0213  142.7847  157.9631 H   0  0  0  0  0  0  0  0  0  0  0  0
  148.3957  144.8855  160.8162 H   0  0  0  0  0  0  0  0  0  0  0  0
  148.8715  143.8455  159.4757 H   0  0  0  0  0  0  0  0  0  0  0  0
  149.0720  145.6012  159.3544 H   0  0  0  0  0  0  0  0  0  0  0  0
  150.1365  142.9640  158.8388 H   0  0  0  0  0  0  0  0  0  0  0  0
  150.9579  143.9011  157.5929 H   0  0  0  0  0  0  0  0  0  0  0  0
  152.5650  140.2854  158.3576 H   0  0  0  0  0  0  0  0  0  0  0  0
  150.9092  140.6738  158.6324 H   0  0  0  0  0  0  0  0  0  0  0  0
  150.9299  142.0389  154.9839 H   0  0  0  0  0  0  0  0  0  0  0  0
  150.7467  142.8529  156.5332 H   0  0  0  0  0  0  0  0  0  0  0  0
  149.6659  141.5223  156.1132 H   0  0  0  0  0  0  0  0  0  0  0  0
  153.8641  138.5484  153.7191 H   0  0  0  0  0  0  0  0  0  0  0  0
  148.9413  136.4585  157.3020 H   0  0  0  0  0  0  0  0  0  0  0  0
  150.2860  135.1497  154.2573 H   0  0  0  0  0  0  0  0  0  0  0  0
  151.4030  134.5825  155.4719 H   0  0  0  0  0  0  0  0  0  0  0  0
  148.3922  134.8231  155.9026 H   0  0  0  0  0  0  0  0  0  0  0  0
  149.4396  134.9675  158.0610 H   0  0  0  0  0  0  0  0  0  0  0  0
  148.9167  133.3038  157.9448 H   0  0  0  0  0  0  0  0  0  0  0  0
  151.4466  133.8174  157.0173 H   0  0  0  0  0  0  0  0  0  0  0  0
  148.3397  132.3216  155.7365 H   0  0  0  0  0  0  0  0  0  0  0  0
  147.7254  133.2748  153.5939 H   0  0  0  0  0  0  0  0  0  0  0  0
  149.3978  133.7610  153.2822 H   0  0  0  0  0  0  0  0  0  0  0  0
  148.2789  130.9385  153.4206 H   0  0  0  0  0  0  0  0  0  0  0  0
  149.3341  131.6216  152.1798 H   0  0  0  0  0  0  0  0  0  0  0  0
  151.2686  132.6508  154.9956 H   0  0  0  0  0  0  0  0  0  0  0  0
  150.5445  131.4381  156.0526 H   0  0  0  0  0  0  0  0  0  0  0  0
  154.3076  141.9270  161.2128 H   0  0  0  0  0  0  0  0  0  0  0  0
  154.7457  142.2850  159.5405 H   0  0  0  0  0  0  0  0  0  0  0  0
  153.9598  140.7566  159.9492 H   0  0  0  0  0  0  0  0  0  0  0  0
  153.5885  144.3213  159.9354 H   0  0  0  0  0  0  0  0  0  0  0  0
  152.6895  143.9903  161.4097 H   0  0  0  0  0  0  0  0  0  0  0  0
  1  2  1  0  0  0  0
  1 32  1  0  0  0  0
  1 33  1  0  0  0  0
  1 34  1  0  0  0  0
  2  3  1  0  0  0  0
  3 30  1  0  0  0  0
  3 29  1  0  0  0  0
  3  4  1  0  0  0  0
  4  5  1  0  0  0  0
  4 35  1  0  0  0  0
  4 36  1  0  0  0  0
  5 31  1  0  0  0  0
  5  6  1  0  0  0  0
  5 27  1  0  0  0  0
  6  7  1  0  0  0  0
  6 37  1  0  0  0  0
  6 38  1  0  0  0  0
  7  8  1  0  0  0  0
  7  9  1  0  0  0  0
  8 39  1  0  0  0  0
  8 40  1  0  0  0  0
  8 41  1  0  0  0  0
  9 14  1  0  0  0  0
  9 10  2  0  0  0  0
 10 11  1  0  0  0  0
 11 12  2  0  0  0  0
 11 42  1  0  0  0  0
 12 13  1  0  0  0  0
 13 17  1  0  0  0  0
 13 14  2  0  0  0  0
 14 15  1  0  0  0  0
 15 16  2  0  0  0  0
 16 17  1  0  0  0  0
 16 43  1  0  0  0  0
 17 18  1  0  0  0  0
 18 19  1  0  0  0  0
 18 44  1  0  0  0  0
 18 45  1  0  0  0  0
 19 20  1  0  0  0  0
 19 22  1  0  0  0  0
 19 46  1  0  0  0  0
 20 21  1  0  0  0  0
 20 47  1  0  0  0  0
 20 48  1  0  0  0  0
 21 49  1  0  0  0  0
 22 26  1  0  0  0  0
 22 23  1  0  0  0  0
 22 50  1  0  0  0  0
 23 24  1  0  0  0  0
 23 51  1  0  0  0  0
 23 52  1  0  0  0  0
 24 25  1  0  0  0  0
 24 53  1  0  0  0  0
 24 54  1  0  0  0  0
 25 26  1  0  0  0  0
 26 55  1  0  0  0  0
 26 56  1  0  0  0  0
 27 28  1  0  0  0  0
 27 29  1  0  0  0  0
 28 57  1  0  0  0  0
 28 58  1  0  0  0  0
 28 59  1  0  0  0  0
 29 60  1  0  0  0  0
 29 61  1  0  0  0  0
M  END
> <s_m_source_file>
AV-unprocessed.smi

> <i_m_source_file_index>
21

> <i_lp_mmshare_version>
43012

> <i_f3d_flags>
0

> <s_epik_input>
W0NIM11PW0NASF0xW0NIMl1bQ0BIXShOKFtDSDNdKVtDSDJdMSlbQ0gyXU4oW0NIM10pYyhuW2NIXW4yKWMoYzIzKW5bY0hdbjNbQ0gyXVtDQEhdKFtDSDJdW09IXSlbQ0BASF00W0NIMl1bQ0gyXU9bQ0gyXTQ=

> <s_epik_cmdline>
J2VwaWtfcHl0aG9uJywgJy1waCcsICc3LjAnLCAnLXRuJywgJzgnLCAnLW1hJywgJzIwMCcsICctbWV0YWxfYmluZGluZycsICctaW1hZScsICc8aW5maWxlLm1hZT4nLCAnLW9tYWUnLCAnPG91dGZpbGUubWFlPic=

> <r_lp_tautomer_probability>
1

> <r_epik_Ionization_Penalty>
2.17574

> <r_epik_Ionization_Penalty_Charging>
0

> <r_epik_Ionization_Penalty_Neutral>
2.17574

> <r_epik_State_Penalty>
2.31336

> <r_epik_Charging_Adjusted_Penalty>
2.31336

> <i_epik_Tot_Q>
0

> <i_epik_Tot_abs_Q>
0

> <r_epik_Metal_State_Penalty>
2.31025

> <b_epik_Metal_Only>
0

> <s_lp_Force_Field>
OPLS_2005

> <r_lp_Energy>
70.4108

> <b_lp_Chiralities_Consistent>
1

> <s_lp_Variant>
AV-unprocessed.smi:21-44

> <Gold.Version>
5.8.1

> <Gold.Id.Protein>
6NUR|6NUR_protein|mol2

> <Gold.PLP.Fitness>
54.5485

> <Gold.PLP.PLP>
-48.3595

> <Gold.PLP.part.hbond>
-3.9838

> <Gold.PLP.part.metal>
0.0000

> <Gold.PLP.part.buried>
-7.4700

> <Gold.PLP.part.nonpolar>
-36.8835

> <Gold.PLP.part.repulsive>
0.4134

> <Gold.PLP.ligand.clash>
0.0000

> <Gold.PLP.ligand.torsion>
1.9217

> <Gold.PLP.Chemscore.Hbond>
3.0753

> <Gold.PLP.Chemscore.CHOScore>
0.0000

> <Gold.PLP.Chemscore.Metal>
0.0000

> <Gold.Chemscore.Hbonds>
donor molecule, donor type, donor heavy atom, donor atom, acceptor molecule, acceptor atom, score
      P1  H  6896  6909       L1    21  0.50
      P1  H  7989  7998       L1    10  0.11
      P1  H  7997  8008       L1    10  1.00
      P1  H 10752 10765       L1    12  0.69

> <Gold.PLP.Chemscore.Internal.Correction>
0.8064

> <Gold.Rescore>
     Score         DG    S(hbond)    S(metal)    S(lipo)     H(rot)  DE(clash)    DE(int)     intcor
     15.73     -18.79       2.38        0.00     111.42       3.00       0.03       3.03       ----

> <Gold.Chemscore.Fitness>
15.7295

> <Gold.Chemscore.DG>
-18.7891

> <Gold.Chemscore.ZeroCoef>
-5.4800

> <Gold.Chemscore.Hbond>
2.3835

> <Gold.Chemscore.Metal>
0.0000

> <Gold.Chemscore.Lipo>
111.4207

> <Gold.Chemscore.Internal_Hbond>
0.0000

> <Gold.Chemscore.DEClash>
0.0333

> <Gold.Chemscore.DEInternal>
3.0263

> <Gold.Chemscore.Rot>
3.0031

> <Gold.Chemscore.Internal.Correction>
   9.000000E+99

> <Gold.Chemscore.Hbonds>
donor molecule, donor type, donor heavy atom, donor atom, acceptor molecule, acceptor atom, score
      P1  H  6896  6909       L1    21  0.07
      P1  H  7997  8008       L1    10  0.49
      P1  H 10752 10765       L1    12  0.55

> <Gold.Chemscore.Hbond.Weighted>
-7.9608

> <Gold.Chemscore.Metal.Weighted>
-0.0000

> <Gold.Chemscore.Lipo.Weighted>
-13.0362

> <Gold.Chemscore.Internal_Hbond.Weighted>
0.0000

> <Gold.Chemscore.DEClash.Weighted>
0.0333

> <Gold.Chemscore.DEInternal.Weighted>
3.0263

> <Gold.Chemscore.Rot.Weighted>
7.6880

> <Gold.Chemscore.Internal.Correction.Weighted>
   9.000000E+99

> <Gold.Protein.RotatedTorsions>
[ 6907 6896 6895 6894 ] final   -4.75 input  -60.11 | X-H torsion
[ 7974 7965 7964 7962 ] final  -32.95 input  175.53 | X-H torsion
[ 8008 7997 7996 7995 ] final  -16.96 input   59.86 | X-H torsion
[ 10167 10162 10161 10158 ] final  -21.98 input  -65.29 | X-H torsion
[ 10718 10713 10712 10709 ] final  143.80 input   66.30 | X-H torsion
[ 10763 10752 10751 10750 ] final  163.60 input  -60.55 | X-H torsion
[ 11005 11000 10999 10996 ] final  -36.91 input  -57.11 | X-H torsion

> <Gold.Protein.ActiveResidues>
 VAL166  LYS551  ARG553  GLY616  TRP617  ASP618  TYR619  PRO620  LYS621  CYS622 
 ASP623  PHE694  ASN695  SER759  ASP760  ASP761  ALA762  ILE779  LEU786  VAL792 
 PHE793  MET794  SER795  GLU796  ALA797  LYS798  CYS799  TRP800  GLU811  SER814 

> <Gold.Protein.RotatedAtoms>
  151.4927  135.1058  159.9807 H   0  0  0  0  0  0  0  0  0  0  0  0  # atno 6907 bound_to 6896
  152.4734  133.8079  159.6998 H   0  0  0  0  0  0  0  0  0  0  0  0  # atno 6908 bound_to 6896
  150.8757  133.7379  159.2973 H   0  0  0  0  0  0  0  0  0  0  0  0  # atno 6909 bound_to 6896
  146.0949  140.5856  142.8847 H   0  0  0  0  0  0  0  0  0  0  0  0  # atno 7974 bound_to 7965
  154.5014  140.2155  155.9339 H   0  0  0  0  0  0  0  0  0  0  0  0  # atno 8008 bound_to 7997
  156.1438  140.3174  155.8505 H   0  0  0  0  0  0  0  0  0  0  0  0  # atno 8009 bound_to 7997
  155.4069  140.0488  157.3024 H   0  0  0  0  0  0  0  0  0  0  0  0  # atno 8010 bound_to 7997
  140.7284  143.4577  151.0424 H   0  0  0  0  0  0  0  0  0  0  0  0  # atno 10167 bound_to 10162
  157.3647  131.0970  151.0883 H   0  0  0  0  0  0  0  0  0  0  0  0  # atno 10718 bound_to 10713
  154.2961  135.2760  155.2632 H   0  0  0  0  0  0  0  0  0  0  0  0  # atno 10763 bound_to 10752
  154.5090  135.5787  153.6593 H   0  0  0  0  0  0  0  0  0  0  0  0  # atno 10764 bound_to 10752
  152.9907  135.6176  154.3129 H   0  0  0  0  0  0  0  0  0  0  0  0  # atno 10765 bound_to 10752
  140.9911  133.7004  156.1852 H   0  0  0  0  0  0  0  0  0  0  0  0  # atno 11005 bound_to 11000
  144.7388  140.4883  143.6884 LP  0  0  0  0  0  0  0  0  0  0  0  0  # atno 17320 bound_to 7965
  145.5967  139.1500  143.3152 LP  0  0  0  0  0  0  0  0  0  0  0  0  # atno 17321 bound_to 7965
  139.8259  143.7757  152.3178 LP  0  0  0  0  0  0  0  0  0  0  0  0  # atno 17342 bound_to 10162
  139.7855  144.7429  151.0027 LP  0  0  0  0  0  0  0  0  0  0  0  0  # atno 17343 bound_to 10162
  157.2009  130.6394  149.5738 LP  0  0  0  0  0  0  0  0  0  0  0  0  # atno 17370 bound_to 10713
  155.9744  130.4691  150.6383 LP  0  0  0  0  0  0  0  0  0  0  0  0  # atno 17371 bound_to 10713
  140.7038  134.4535  157.5585 LP  0  0  0  0  0  0  0  0  0  0  0  0  # atno 17394 bound_to 11000
  139.8993  134.8595  156.1967 LP  0  0  0  0  0  0  0  0  0  0  0  0  # atno 17395 bound_to 11000

$$$$
