AV-unprocessed.smi:971|AV-procd|sdf|4295|dock9
  -GOLD-   22720 2203D 1   1.00000     0.00000
 Structure written by MMmdl.
 34 35  0  0  0  0  0  0  0  0  1 V2000
  151.6028  145.3577  159.0794 C   0  0  0  0  0  0  0  0  0  0  0  0
  152.3410  144.3674  159.9866 C   0  0  0  0  0  0  0  0  0  0  0  0
  152.1449  142.9445  159.5526 C   0  0  0  0  0  0  0  0  0  0  0  0
  151.3360  142.6719  158.4452 N   0  0  0  0  0  0  0  0  0  0  0  0
  151.2654  141.3691  158.1656 C   0  0  0  0  0  0  0  0  0  0  0  0
  150.4438  140.8092  157.0537 C   0  0  0  0  0  0  0  0  0  0  0  0
  150.5529  141.6412  155.7659 C   0  0  0  0  0  0  0  0  0  0  0  0
  149.2489  141.8461  155.1455 N   0  0  0  0  0  0  0  0  0  0  0  0
  148.5540  140.9094  154.4820 C   0  0  0  0  0  0  0  0  0  0  0  0
  148.9607  139.7570  154.3261 O   0  0  0  0  0  0  0  0  0  0  0  0
  147.2417  141.3885  153.9536 C   0  0  0  0  0  0  0  0  0  0  0  0
  146.9451  142.8713  154.0509 C   0  0  0  0  0  0  0  0  0  0  0  0
  146.2249  141.9014  154.9534 C   0  0  0  0  0  0  0  0  0  0  0  0
  152.1863  140.3724  159.2829 S   0  0  0  0  0  0  0  0  0  0  0  0
  152.6888  141.8172  160.1233 C   0  0  0  0  0  0  0  0  0  0  0  0
  153.5963  141.7365  161.3058 C   0  0  0  0  0  0  0  0  0  0  0  0
  151.7608  146.3832  159.4135 H   0  0  0  0  0  0  0  0  0  0  0  0
  150.5288  145.1691  159.0808 H   0  0  0  0  0  0  0  0  0  0  0  0
  151.9551  145.2839  158.0501 H   0  0  0  0  0  0  0  0  0  0  0  0
  153.4021  144.6173  160.0013 H   0  0  0  0  0  0  0  0  0  0  0  0
  151.9940  144.4949  161.0126 H   0  0  0  0  0  0  0  0  0  0  0  0
  150.7612  139.7814  156.8721 H   0  0  0  0  0  0  0  0  0  0  0  0
  149.4047  140.7610  157.3815 H   0  0  0  0  0  0  0  0  0  0  0  0
  150.9765  142.6199  155.9921 H   0  0  0  0  0  0  0  0  0  0  0  0
  151.2330  141.1642  155.0580 H   0  0  0  0  0  0  0  0  0  0  0  0
  148.8441  142.7675  155.2276 H   0  0  0  0  0  0  0  0  0  0  0  0
  146.8498  140.8694  153.0799 H   0  0  0  0  0  0  0  0  0  0  0  0
  147.6887  143.5222  154.5079 H   0  0  0  0  0  0  0  0  0  0  0  0
  146.3865  143.3176  153.2308 H   0  0  0  0  0  0  0  0  0  0  0  0
  145.1780  141.6909  154.7450 H   0  0  0  0  0  0  0  0  0  0  0  0
  146.4902  141.9099  156.0094 H   0  0  0  0  0  0  0  0  0  0  0  0
  154.4368  142.4224  161.1966 H   0  0  0  0  0  0  0  0  0  0  0  0
  153.9989  140.7308  161.4279 H   0  0  0  0  0  0  0  0  0  0  0  0
  153.0631  141.9987  162.2196 H   0  0  0  0  0  0  0  0  0  0  0  0
  1  2  1  0  0  0  0
  1 17  1  0  0  0  0
  1 18  1  0  0  0  0
  1 19  1  0  0  0  0
  2  3  1  0  0  0  0
  2 20  1  0  0  0  0
  2 21  1  0  0  0  0
  3 15  2  0  0  0  0
  3  4  1  0  0  0  0
  4  5  2  0  0  0  0
  5  6  1  0  0  0  0
  5 14  1  0  0  0  0
  6  7  1  0  0  0  0
  6 22  1  0  0  0  0
  6 23  1  0  0  0  0
  7  8  1  0  0  0  0
  7 24  1  0  0  0  0
  7 25  1  0  0  0  0
  8  9  1  0  0  0  0
  8 26  1  0  0  0  0
  9 10  2  0  0  0  0
  9 11  1  0  0  0  0
 11 13  1  0  0  0  0
 11 12  1  0  0  0  0
 11 27  1  0  0  0  0
 12 13  1  0  0  0  0
 12 28  1  0  0  0  0
 12 29  1  0  0  0  0
 13 30  1  0  0  0  0
 13 31  1  0  0  0  0
 14 15  1  0  0  0  0
 15 16  1  0  0  0  0
 16 32  1  0  0  0  0
 16 33  1  0  0  0  0
 16 34  1  0  0  0  0
M  END
> <s_m_source_file>
AV-unprocessed.smi

> <i_m_source_file_index>
971

> <i_lp_mmshare_version>
43012

> <i_f3d_flags>
0

> <s_epik_input>
W0NIM11bQ0gyXWMxbmMoc2MxW0NIM10pW0NIMl1bQ0gyXVtOSF1DKD1PKVtDSF0yW0NIMl1bQ0gyXTI=

> <s_epik_cmdline>
J2VwaWtfcHl0aG9uJywgJy1waCcsICc3LjAnLCAnLXRuJywgJzgnLCAnLW1hJywgJzIwMCcsICctbWV0YWxfYmluZGluZycsICctaW1hZScsICc8aW5maWxlLm1hZT4nLCAnLW9tYWUnLCAnPG91dGZpbGUubWFlPic=

> <r_epik_Ionization_Penalty>
0.00242093

> <r_epik_Ionization_Penalty_Charging>
0

> <r_epik_Ionization_Penalty_Neutral>
0.00242093

> <r_epik_State_Penalty>
0.00167523

> <r_epik_Charging_Adjusted_Penalty>
0.00167523

> <i_epik_Tot_Q>
0

> <i_epik_Tot_abs_Q>
0

> <r_epik_Metal_State_Penalty>
-0

> <b_epik_Metal_Only>
0

> <s_lp_Force_Field>
OPLS_2005

> <r_lp_Energy>
-4.35298

> <b_lp_Chiralities_Consistent>
1

> <s_lp_Variant>
AV-unprocessed.smi:971-1

> <Gold.Version>
5.8.1

> <Gold.Id.Protein>
6NUR|6NUR_protein|mol2

> <Gold.PLP.Fitness>
40.8077

> <Gold.PLP.PLP>
-39.1717

> <Gold.PLP.part.hbond>
-1.0000

> <Gold.PLP.part.metal>
0.0000

> <Gold.PLP.part.buried>
-5.4826

> <Gold.PLP.part.nonpolar>
-33.5018

> <Gold.PLP.part.repulsive>
0.6870

> <Gold.PLP.ligand.clash>
0.0389

> <Gold.PLP.ligand.torsion>
0.7188

> <Gold.PLP.Chemscore.Hbond>
1.0000

> <Gold.PLP.Chemscore.CHOScore>
0.0000

> <Gold.PLP.Chemscore.Metal>
0.0000

> <Gold.Chemscore.Hbonds>
donor molecule, donor type, donor heavy atom, donor atom, acceptor molecule, acceptor atom, score
      L1  H     8    26       P1  8028  1.00

> <Gold.PLP.Chemscore.Internal.Correction>
0.1125

> <Gold.Rescore>
     Score         DG    S(hbond)    S(metal)    S(lipo)     H(rot)  DE(clash)    DE(int)     intcor
     15.71     -16.59       0.97        0.00     101.01       1.54       0.11       0.78       ----

> <Gold.Chemscore.Fitness>
15.7103

> <Gold.Chemscore.DG>
-16.5934

> <Gold.Chemscore.ZeroCoef>
-5.4800

> <Gold.Chemscore.Hbond>
0.9726

> <Gold.Chemscore.Metal>
0.0000

> <Gold.Chemscore.Lipo>
101.0067

> <Gold.Chemscore.Internal_Hbond>
0.0000

> <Gold.Chemscore.DEClash>
0.1077

> <Gold.Chemscore.DEInternal>
0.7754

> <Gold.Chemscore.Rot>
1.5441

> <Gold.Chemscore.Internal.Correction>
   9.000000E+99

> <Gold.Chemscore.Hbonds>
donor molecule, donor type, donor heavy atom, donor atom, acceptor molecule, acceptor atom, score
      L1  H     8    26       P1  8028  0.95

> <Gold.Chemscore.Hbond.Weighted>
-3.2485

> <Gold.Chemscore.Metal.Weighted>
-0.0000

> <Gold.Chemscore.Lipo.Weighted>
-11.8178

> <Gold.Chemscore.Internal_Hbond.Weighted>
0.0000

> <Gold.Chemscore.DEClash.Weighted>
0.1077

> <Gold.Chemscore.DEInternal.Weighted>
0.7754

> <Gold.Chemscore.Rot.Weighted>
3.9529

> <Gold.Chemscore.Internal.Correction.Weighted>
   9.000000E+99

> <Gold.Protein.RotatedTorsions>
[ 6907 6896 6895 6894 ] final   77.85 input  -60.11 | X-H torsion
[ 7974 7965 7964 7962 ] final  -84.94 input  175.53 | X-H torsion
[ 8008 7997 7996 7995 ] final  102.85 input   59.86 | X-H torsion
[ 10167 10162 10161 10158 ] final -131.38 input  -65.29 | X-H torsion
[ 10718 10713 10712 10709 ] final   34.60 input   66.30 | X-H torsion
[ 10763 10752 10751 10750 ] final   32.08 input  -60.55 | X-H torsion
[ 11005 11000 10999 10996 ] final  -33.50 input  -57.11 | X-H torsion

> <Gold.Protein.ActiveResidues>
 VAL166  LYS551  ARG553  GLY616  TRP617  ASP618  TYR619  PRO620  LYS621  CYS622 
 ASP623  PHE694  ASN695  SER759  ASP760  ASP761  ALA762  ILE779  LEU786  VAL792 
 PHE793  MET794  SER795  GLU796  ALA797  LYS798  CYS799  TRP800  GLU811  SER814 

> <Gold.Protein.RotatedAtoms>
  152.5135  134.3754  159.9332 H   0  0  0  0  0  0  0  0  0  0  0  0  # atno 6907 bound_to 6896
  151.3710  133.3849  159.2707 H   0  0  0  0  0  0  0  0  0  0  0  0  # atno 6908 bound_to 6896
  150.9578  134.8990  159.7770 H   0  0  0  0  0  0  0  0  0  0  0  0  # atno 6909 bound_to 6896
  145.4999  140.9548  143.1765 H   0  0  0  0  0  0  0  0  0  0  0  0  # atno 7974 bound_to 7965
  156.1431  140.3174  155.8526 H   0  0  0  0  0  0  0  0  0  0  0  0  # atno 8008 bound_to 7997
  155.4117  140.0506  157.3048 H   0  0  0  0  0  0  0  0  0  0  0  0  # atno 8009 bound_to 7997
  154.4993  140.2123  155.9393 H   0  0  0  0  0  0  0  0  0  0  0  0  # atno 8010 bound_to 7997
  139.9196  143.6398  152.2557 H   0  0  0  0  0  0  0  0  0  0  0  0  # atno 10167 bound_to 10162
  157.3124  130.7406  149.6733 H   0  0  0  0  0  0  0  0  0  0  0  0  # atno 10718 bound_to 10713
  153.0281  135.6422  154.1299 H   0  0  0  0  0  0  0  0  0  0  0  0  # atno 10763 bound_to 10752
  154.1025  135.2858  155.3250 H   0  0  0  0  0  0  0  0  0  0  0  0  # atno 10764 bound_to 10752
  154.6389  135.5467  153.7829 H   0  0  0  0  0  0  0  0  0  0  0  0  # atno 10765 bound_to 10752
  140.9640  133.7148  156.1415 H   0  0  0  0  0  0  0  0  0  0  0  0  # atno 11005 bound_to 11000
  144.7786  139.6575  143.7164 LP  0  0  0  0  0  0  0  0  0  0  0  0  # atno 17320 bound_to 7965
  146.2232  139.5675  142.9604 LP  0  0  0  0  0  0  0  0  0  0  0  0  # atno 17321 bound_to 7965
  139.6873  144.7650  151.1501 LP  0  0  0  0  0  0  0  0  0  0  0  0  # atno 17342 bound_to 10162
  140.7665  143.5639  150.9069 LP  0  0  0  0  0  0  0  0  0  0  0  0  # atno 17343 bound_to 10162
  155.9679  130.4247  150.4622 LP  0  0  0  0  0  0  0  0  0  0  0  0  # atno 17370 bound_to 10713
  157.2623  131.0569  151.2313 LP  0  0  0  0  0  0  0  0  0  0  0  0  # atno 17371 bound_to 10713
  140.7426  134.4133  157.5552 LP  0  0  0  0  0  0  0  0  0  0  0  0  # atno 17394 bound_to 11000
  139.8888  134.8847  156.2455 LP  0  0  0  0  0  0  0  0  0  0  0  0  # atno 17395 bound_to 11000

$$$$
