AV-unprocessed.smi:1209|AV-procd|sdf|5073|dock10
  -GOLD-   22720 4123D 1   1.00000     0.00000
 Structure written by MMmdl.
 49 51  0  0  0  0  0  0  0  0  2 V2000
  149.0760  132.1508  156.1461 C   0  0  0  0  0  0  0  0  0  0  0  0
  149.4806  133.5852  156.1549 C   0  0  0  0  0  0  0  0  0  0  0  0
  149.5995  134.5255  155.1713 C   0  0  0  0  0  0  0  0  0  0  0  0
  150.0306  135.6876  155.8682 C   0  0  0  0  0  0  0  0  0  0  0  0
  150.3369  137.0492  155.3060 C   0  0  0  0  0  0  0  0  0  0  0  0
  149.1920  137.6038  154.5378 N   0  3  1  0  0  0  0  0  0  0  0  0
  147.8852  137.3454  155.1936 C   0  0  0  0  0  0  0  0  0  0  0  0
  149.3863  139.0367  154.1898 C   0  0  0  0  0  0  0  0  0  0  0  0
  149.1012  139.9775  155.3778 C   0  0  2  0  0  0  0  0  0  0  0  0
  147.8252  140.5628  155.1966 O   0  0  0  0  0  0  0  0  0  0  0  0
  150.1640  141.0876  155.4981 C   0  0  0  0  0  0  0  0  0  0  0  0
  151.0620  140.8776  156.6200 N   0  0  0  0  0  0  0  0  0  0  0  0
  151.8520  139.8079  156.8342 C   0  0  0  0  0  0  0  0  0  0  0  0
  152.5968  139.8115  157.9355 N   0  0  0  0  0  0  0  0  0  0  0  0
  152.2514  141.0265  158.5021 C   0  0  0  0  0  0  0  0  0  0  0  0
  152.6893  141.6378  159.6972 C   0  0  0  0  0  0  0  0  0  0  0  0
  152.1936  142.9018  160.0887 C   0  0  0  0  0  0  0  0  0  0  0  0
  152.6891  143.5197  161.3844 C   0  0  0  0  0  0  0  0  0  0  0  0
  151.2462  143.5759  159.2769 C   0  0  0  0  0  0  0  0  0  0  0  0
  150.7012  144.9354  159.6771 C   0  0  0  0  0  0  0  0  0  0  0  0
  150.7977  142.9794  158.0799 C   0  0  0  0  0  0  0  0  0  0  0  0
  151.2961  141.7196  157.7024 C   0  0  0  0  0  0  0  0  0  0  0  0
  150.1639  135.4612  157.1649 N   0  0  0  0  0  0  0  0  0  0  0  0
  149.8099  134.1215  157.3582 O   0  0  0  0  0  0  0  0  0  0  0  0
  149.0242  131.7667  155.1271 H   0  0  0  0  0  0  0  0  0  0  0  0
  148.0959  132.0229  156.6062 H   0  0  0  0  0  0  0  0  0  0  0  0
  149.7922  131.5427  156.6991 H   0  0  0  0  0  0  0  0  0  0  0  0
  149.4094  134.3991  154.1156 H   0  0  0  0  0  0  0  0  0  0  0  0
  150.6220  137.7476  156.0950 H   0  0  0  0  0  0  0  0  0  0  0  0
  151.2057  136.9576  154.6530 H   0  0  0  0  0  0  0  0  0  0  0  0
  147.8456  137.8102  156.1796 H   0  0  0  0  0  0  0  0  0  0  0  0
  147.7086  136.2770  155.3160 H   0  0  0  0  0  0  0  0  0  0  0  0
  147.0549  137.7338  154.6056 H   0  0  0  0  0  0  0  0  0  0  0  0
  150.4029  139.1808  153.8205 H   0  0  0  0  0  0  0  0  0  0  0  0
  148.7255  139.3199  153.3691 H   0  0  0  0  0  0  0  0  0  0  0  0
  149.0842  139.4156  156.3111 H   0  0  0  0  0  0  0  0  0  0  0  0
  147.2868  140.3577  155.9461 H   0  0  0  0  0  0  0  0  0  0  0  0
  150.7637  141.1333  154.5880 H   0  0  0  0  0  0  0  0  0  0  0  0
  149.6912  142.0645  155.6066 H   0  0  0  0  0  0  0  0  0  0  0  0
  151.8797  138.9778  156.1435 H   0  0  0  0  0  0  0  0  0  0  0  0
  153.4116  141.1243  160.3147 H   0  0  0  0  0  0  0  0  0  0  0  0
  153.2092  144.4570  161.1861 H   0  0  0  0  0  0  0  0  0  0  0  0
  153.3811  142.8558  161.9029 H   0  0  0  0  0  0  0  0  0  0  0  0
  151.8546  143.7215  162.0560 H   0  0  0  0  0  0  0  0  0  0  0  0
  150.0194  145.3289  158.9228 H   0  0  0  0  0  0  0  0  0  0  0  0
  151.5134  145.6525  159.7991 H   0  0  0  0  0  0  0  0  0  0  0  0
  150.1557  144.8654  160.6184 H   0  0  0  0  0  0  0  0  0  0  0  0
  150.0746  143.4819  157.4550 H   0  0  0  0  0  0  0  0  0  0  0  0
  149.1844  137.1066  153.6581 H   0  0  0  0  0  0  0  0  0  0  0  0
  1  2  1  0  0  0  0
  1 25  1  0  0  0  0
  1 26  1  0  0  0  0
  1 27  1  0  0  0  0
  2 24  1  0  0  0  0
  2  3  2  0  0  0  0
  3  4  1  0  0  0  0
  3 28  1  0  0  0  0
  4  5  1  0  0  0  0
  4 23  2  0  0  0  0
  5  6  1  0  0  0  0
  5 29  1  0  0  0  0
  5 30  1  0  0  0  0
  6  7  1  0  0  0  0
  6  8  1  0  0  0  0
  6 49  1  0  0  0  0
  7 31  1  0  0  0  0
  7 32  1  0  0  0  0
  7 33  1  0  0  0  0
  8  9  1  0  0  0  0
  8 34  1  0  0  0  0
  8 35  1  0  0  0  0
  9 10  1  0  0  0  0
  9 11  1  0  0  0  0
  9 36  1  0  0  0  0
 10 37  1  0  0  0  0
 11 12  1  0  0  0  0
 11 38  1  0  0  0  0
 11 39  1  0  0  0  0
 12 22  1  0  0  0  0
 12 13  1  0  0  0  0
 13 14  2  0  0  0  0
 13 40  1  0  0  0  0
 14 15  1  0  0  0  0
 15 22  2  0  0  0  0
 15 16  1  0  0  0  0
 16 17  2  0  0  0  0
 16 41  1  0  0  0  0
 17 18  1  0  0  0  0
 17 19  1  0  0  0  0
 18 42  1  0  0  0  0
 18 43  1  0  0  0  0
 18 44  1  0  0  0  0
 19 20  1  0  0  0  0
 19 21  2  0  0  0  0
 20 45  1  0  0  0  0
 20 46  1  0  0  0  0
 20 47  1  0  0  0  0
 21 22  1  0  0  0  0
 21 48  1  0  0  0  0
 23 24  1  0  0  0  0
M  CHG  1   6   1
M  END
> <s_m_source_file>
AV-unprocessed.smi

> <i_m_source_file_index>
1209

> <i_lp_mmshare_version>
43012

> <i_f3d_flags>
0

> <s_epik_input>
W0NIM11jMVtjSF1jKG5vMSlbQ0gyXU4oW0NIM10pW0NIMl1bQ0BIXShbT0hdKVtDSDJdbihbY0hdbjIpYyhjMjMpW2NIXWMoW0NIM10pYyhbY0hdMylbQ0gzXQ==

> <s_epik_cmdline>
J2VwaWtfcHl0aG9uJywgJy1waCcsICc3LjAnLCAnLXRuJywgJzgnLCAnLW1hJywgJzIwMCcsICctbWV0YWxfYmluZGluZycsICctaW1hZScsICc8aW5maWxlLm1hZT4nLCAnLW9tYWUnLCAnPG91dGZpbGUubWFlPic=

> <r_epik_Ionization_Penalty>
2.05249

> <r_epik_Ionization_Penalty_Charging>
1.96618

> <r_epik_Ionization_Penalty_Neutral>
0.0863156

> <r_epik_State_Penalty>
2.19215

> <r_epik_Charging_Adjusted_Penalty>
4.15833

> <i_epik_Tot_Q>
1

> <i_epik_Tot_abs_Q>
1

> <r_epik_Metal_State_Penalty>
2.17654

> <b_epik_Metal_Only>
0

> <s_lp_Force_Field>
OPLS_2005

> <r_lp_Energy>
10.2768

> <b_lp_Chiralities_Consistent>
1

> <s_lp_Variant>
AV-unprocessed.smi:1209-5

> <Gold.Version>
5.8.1

> <Gold.Id.Protein>
6NUR|6NUR_protein|mol2

> <Gold.PLP.Fitness>
52.4503

> <Gold.PLP.PLP>
-44.3986

> <Gold.PLP.part.hbond>
-3.5774

> <Gold.PLP.part.metal>
0.0000

> <Gold.PLP.part.buried>
-5.2903

> <Gold.PLP.part.nonpolar>
-35.2534

> <Gold.PLP.part.repulsive>
0.0106

> <Gold.PLP.ligand.clash>
0.0000

> <Gold.PLP.ligand.torsion>
1.5189

> <Gold.PLP.Chemscore.Hbond>
3.6100

> <Gold.PLP.Chemscore.CHOScore>
0.0000

> <Gold.PLP.Chemscore.Metal>
0.0000

> <Gold.Chemscore.Hbonds>
donor molecule, donor type, donor heavy atom, donor atom, acceptor molecule, acceptor atom, score
      L1  H     6    49       P1  7948  2.00
      P1  H  6896  6907       L1    24  0.39
      P1  H  7997  8008       L1    14  0.34

> <Gold.PLP.Chemscore.Internal.Correction>
0.2597

> <Gold.Rescore>
     Score         DG    S(hbond)    S(metal)    S(lipo)     H(rot)  DE(clash)    DE(int)     intcor
     15.85     -17.27       1.21        0.00     121.76       2.53       0.03       1.39       ----

> <Gold.Chemscore.Fitness>
15.8490

> <Gold.Chemscore.DG>
-17.2658

> <Gold.Chemscore.ZeroCoef>
-5.4800

> <Gold.Chemscore.Hbond>
1.2052

> <Gold.Chemscore.Metal>
0.0000

> <Gold.Chemscore.Lipo>
121.7567

> <Gold.Chemscore.Internal_Hbond>
0.0000

> <Gold.Chemscore.DEClash>
0.0308

> <Gold.Chemscore.DEInternal>
1.3859

> <Gold.Chemscore.Rot>
2.5332

> <Gold.Chemscore.Internal.Correction>
   9.000000E+99

> <Gold.Chemscore.Hbonds>
donor molecule, donor type, donor heavy atom, donor atom, acceptor molecule, acceptor atom, score
      L1  H     6    49       P1  7948  0.96
      P1  H  6896  6907       L1    24  0.12
      P1  H  7997  8008       L1    14  0.08

> <Gold.Chemscore.Hbond.Weighted>
-4.0254

> <Gold.Chemscore.Metal.Weighted>
-0.0000

> <Gold.Chemscore.Lipo.Weighted>
-14.2455

> <Gold.Chemscore.Internal_Hbond.Weighted>
0.0000

> <Gold.Chemscore.DEClash.Weighted>
0.0308

> <Gold.Chemscore.DEInternal.Weighted>
1.3859

> <Gold.Chemscore.Rot.Weighted>
6.4851

> <Gold.Chemscore.Internal.Correction.Weighted>
   9.000000E+99

> <Gold.Protein.RotatedTorsions>
[ 6907 6896 6895 6894 ] final -133.69 input  -60.11 | X-H torsion
[ 7974 7965 7964 7962 ] final   72.14 input  175.53 | X-H torsion
[ 8008 7997 7996 7995 ] final  -96.88 input   59.86 | X-H torsion
[ 10167 10162 10161 10158 ] final   47.43 input  -65.29 | X-H torsion
[ 10718 10713 10712 10709 ] final  -50.93 input   66.30 | X-H torsion
[ 10763 10752 10751 10750 ] final  166.34 input  -60.55 | X-H torsion
[ 11005 11000 10999 10996 ] final -140.49 input  -57.11 | X-H torsion

> <Gold.Protein.ActiveResidues>
 VAL166  LYS551  ARG553  GLY616  TRP617  ASP618  TYR619  PRO620  LYS621  CYS622 
 ASP623  PHE694  ASN695  SER759  ASP760  ASP761  ALA762  ILE779  LEU786  VAL792 
 PHE793  MET794  SER795  GLU796  ALA797  LYS798  CYS799  TRP800  GLU811  SER814 

> <Gold.Protein.RotatedAtoms>
  150.9771  133.6284  159.2728 H   0  0  0  0  0  0  0  0  0  0  0  0  # atno 6907 bound_to 6896
  151.3552  135.0892  159.9426 H   0  0  0  0  0  0  0  0  0  0  0  0  # atno 6908 bound_to 6896
  152.5203  133.9355  159.7656 H   0  0  0  0  0  0  0  0  0  0  0  0  # atno 6909 bound_to 6896
  145.7571  139.2784  143.1398 H   0  0  0  0  0  0  0  0  0  0  0  0  # atno 7974 bound_to 7965
  154.7803  140.0467  157.1121 H   0  0  0  0  0  0  0  0  0  0  0  0  # atno 8008 bound_to 7997
  154.9713  140.3090  155.4967 H   0  0  0  0  0  0  0  0  0  0  0  0  # atno 8009 bound_to 7997
  156.2935  140.2253  156.4806 H   0  0  0  0  0  0  0  0  0  0  0  0  # atno 8010 bound_to 7997
  140.3037  144.2904  150.6214 H   0  0  0  0  0  0  0  0  0  0  0  0  # atno 10167 bound_to 10162
  156.1756  130.4150  149.9582 H   0  0  0  0  0  0  0  0  0  0  0  0  # atno 10718 bound_to 10713
  154.3375  135.2754  155.2440 H   0  0  0  0  0  0  0  0  0  0  0  0  # atno 10763 bound_to 10752
  154.4725  135.5879  153.6335 H   0  0  0  0  0  0  0  0  0  0  0  0  # atno 10764 bound_to 10752
  152.9860  135.6091  154.3573 H   0  0  0  0  0  0  0  0  0  0  0  0  # atno 10765 bound_to 10752
  140.8417  134.2393  157.4806 H   0  0  0  0  0  0  0  0  0  0  0  0  # atno 11005 bound_to 11000
  146.0300  140.8266  142.9880 LP  0  0  0  0  0  0  0  0  0  0  0  0  # atno 17320 bound_to 7965
  144.6838  140.2755  143.7300 LP  0  0  0  0  0  0  0  0  0  0  0  0  # atno 17321 bound_to 7965
  140.5629  143.2190  151.7734 LP  0  0  0  0  0  0  0  0  0  0  0  0  # atno 17342 bound_to 10162
  139.4909  144.4324  151.9858 LP  0  0  0  0  0  0  0  0  0  0  0  0  # atno 17343 bound_to 10162
  156.7369  130.9064  151.3629 LP  0  0  0  0  0  0  0  0  0  0  0  0  # atno 17370 bound_to 10713
  157.6833  130.9161  150.0322 LP  0  0  0  0  0  0  0  0  0  0  0  0  # atno 17371 bound_to 10713
  139.8703  134.9639  156.4476 LP  0  0  0  0  0  0  0  0  0  0  0  0  # atno 17394 bound_to 11000
  140.8888  133.7864  155.9548 LP  0  0  0  0  0  0  0  0  0  0  0  0  # atno 17395 bound_to 11000

$$$$
