AV-unprocessed.smi:370|AV-procd|sdf|2439|dock6
  -GOLD-   2262022383D 1   1.00000     0.00000
 Structure written by MMmdl.
 42 43  0  0  0  0  0  0  0  0  3 V2000
  146.9369  135.6313  162.8635 C   0  0  0  0  0  0  0  0  0  0  0  0
  147.6252  135.7270  161.5450 C   0  0  0  0  0  0  0  0  0  0  0  0
  147.9495  134.7963  160.5993 C   0  0  0  0  0  0  0  0  0  0  0  0
  148.5887  135.5674  159.5905 C   0  0  0  0  0  0  0  0  0  0  0  0
  149.1044  135.0941  158.4457 N   0  5  0  0  0  0  0  0  0  0  0  0
  148.6876  135.5856  157.2571 C   0  0  0  0  0  0  0  0  0  0  0  0
  148.2969  136.7342  157.0364 O   0  0  0  0  0  0  0  0  0  0  0  0
  148.7157  134.6838  156.2651 N   0  0  0  0  0  0  0  0  0  0  0  0
  148.3123  134.9035  154.8764 C   0  0  0  0  0  0  0  0  0  0  0  0
  148.0212  133.5928  154.0820 C   0  0  0  0  0  0  0  0  0  0  0  0
  149.3836  132.9122  153.7828 C   0  0  0  0  0  0  0  0  0  0  0  0
  147.1779  132.6065  154.9273 C   0  0  0  0  0  0  0  0  0  0  0  0
  147.3048  133.9618  152.8054 N   0  3  0  0  0  0  0  0  0  0  0  0
  146.9787  132.8393  151.8791 C   0  0  0  0  0  0  0  0  0  0  0  0
  146.3953  133.3710  150.5578 C   0  0  0  0  0  0  0  0  0  0  0  0
  145.2528  134.1747  150.8133 O   0  0  0  0  0  0  0  0  0  0  0  0
  145.5763  135.3025  151.6132 C   0  0  0  0  0  0  0  0  0  0  0  0
  146.0991  134.8236  152.9760 C   0  0  0  0  0  0  0  0  0  0  0  0
  148.6608  136.8502  159.9036 N   0  0  0  0  0  0  0  0  0  0  0  0
  148.0389  136.9621  161.1530 O   0  0  0  0  0  0  0  0  0  0  0  0
  147.4885  134.9774  163.5390 H   0  0  0  0  0  0  0  0  0  0  0  0
  145.9322  135.2255  162.7447 H   0  0  0  0  0  0  0  0  0  0  0  0
  146.8521  136.6103  163.3358 H   0  0  0  0  0  0  0  0  0  0  0  0
  147.7575  133.7340  160.6229 H   0  0  0  0  0  0  0  0  0  0  0  0
  149.0458  133.7589  156.4996 H   0  0  0  0  0  0  0  0  0  0  0  0
  147.4635  135.5851  154.8658 H   0  0  0  0  0  0  0  0  0  0  0  0
  149.1242  135.4467  154.3918 H   0  0  0  0  0  0  0  0  0  0  0  0
  149.9589  132.7306  154.6909 H   0  0  0  0  0  0  0  0  0  0  0  0
  150.0023  133.5258  153.1270 H   0  0  0  0  0  0  0  0  0  0  0  0
  149.2629  131.9328  153.3194 H   0  0  0  0  0  0  0  0  0  0  0  0
  147.7408  132.2330  155.7831 H   0  0  0  0  0  0  0  0  0  0  0  0
  146.8737  131.7348  154.3482 H   0  0  0  0  0  0  0  0  0  0  0  0
  146.2776  133.0746  155.3257 H   0  0  0  0  0  0  0  0  0  0  0  0
  147.8637  132.2612  151.6194 H   0  0  0  0  0  0  0  0  0  0  0  0
  146.2712  132.1578  152.3529 H   0  0  0  0  0  0  0  0  0  0  0  0
  147.1422  133.9469  150.0088 H   0  0  0  0  0  0  0  0  0  0  0  0
  146.1035  132.5397  149.9159 H   0  0  0  0  0  0  0  0  0  0  0  0
  146.3123  135.9308  151.1090 H   0  0  0  0  0  0  0  0  0  0  0  0
  144.6789  135.9067  151.7469 H   0  0  0  0  0  0  0  0  0  0  0  0
  145.3076  134.2680  153.4802 H   0  0  0  0  0  0  0  0  0  0  0  0
  146.3094  135.6986  153.5868 H   0  0  0  0  0  0  0  0  0  0  0  0
  147.9713  134.5264  152.2982 H   0  0  0  0  0  0  0  0  0  0  0  0
  1  2  1  0  0  0  0
  1 21  1  0  0  0  0
  1 22  1  0  0  0  0
  1 23  1  0  0  0  0
  2 20  1  0  0  0  0
  2  3  2  0  0  0  0
  3  4  1  0  0  0  0
  3 24  1  0  0  0  0
  4  5  1  0  0  0  0
  4 19  2  0  0  0  0
  5  6  1  0  0  0  0
  6  7  2  0  0  0  0
  6  8  1  0  0  0  0
  8  9  1  0  0  0  0
  8 25  1  0  0  0  0
  9 10  1  0  0  0  0
  9 26  1  0  0  0  0
  9 27  1  0  0  0  0
 10 11  1  0  0  0  0
 10 12  1  0  0  0  0
 10 13  1  0  0  0  0
 11 28  1  0  0  0  0
 11 29  1  0  0  0  0
 11 30  1  0  0  0  0
 12 31  1  0  0  0  0
 12 32  1  0  0  0  0
 12 33  1  0  0  0  0
 13 18  1  0  0  0  0
 13 14  1  0  0  0  0
 13 42  1  0  0  0  0
 14 15  1  0  0  0  0
 14 34  1  0  0  0  0
 14 35  1  0  0  0  0
 15 16  1  0  0  0  0
 15 36  1  0  0  0  0
 15 37  1  0  0  0  0
 16 17  1  0  0  0  0
 17 18  1  0  0  0  0
 17 38  1  0  0  0  0
 17 39  1  0  0  0  0
 18 40  1  0  0  0  0
 18 41  1  0  0  0  0
 19 20  1  0  0  0  0
M  CHG  1   5  -1
M  CHG  1  13   1
M  END
> <s_m_source_file>
AV-unprocessed.smi

> <i_m_source_file_index>
370

> <i_lp_mmshare_version>
43012

> <i_f3d_flags>
0

> <s_epik_input>
W0NIM11jMVtjSF1jKG5vMSlbTkhdQyg9TylbTkhdW0NIMl1DKFtDSDNdKShbQ0gzXSlOMltDSDJdW0NIMl1PW0NIMl1bQ0gyXTI=

> <s_epik_cmdline>
J2VwaWtfcHl0aG9uJywgJy1waCcsICc3LjAnLCAnLXRuJywgJzgnLCAnLW1hJywgJzIwMCcsICctbWV0YWxfYmluZGluZycsICctaW1hZScsICc8aW5maWxlLm1hZT4nLCAnLW9tYWUnLCAnPG91dGZpbGUubWFlPic=

> <r_epik_Ionization_Penalty>
6.73014

> <r_epik_Ionization_Penalty_Charging>
6.73004

> <r_epik_Ionization_Penalty_Neutral>
9.76201e-05

> <r_epik_State_Penalty>
6.93052

> <r_epik_Charging_Adjusted_Penalty>
13.6606

> <i_epik_Tot_Q>
0

> <i_epik_Tot_abs_Q>
2

> <r_epik_Metal_State_Penalty>
2.86736

> <b_epik_Metal_Only>
1

> <s_lp_Force_Field>
OPLS_2005

> <r_lp_Energy>
13.9603

> <b_lp_Chiralities_Consistent>
1

> <s_lp_Variant>
AV-unprocessed.smi:370-4

> <Gold.Version>
5.8.1

> <Gold.Id.Protein>
6NUR|6NUR_protein|mol2

> <Gold.PLP.Fitness>
41.5789

> <Gold.PLP.PLP>
-29.0468

> <Gold.PLP.part.hbond>
-5.2512

> <Gold.PLP.part.metal>
0.0000

> <Gold.PLP.part.buried>
-3.3117

> <Gold.PLP.part.nonpolar>
-20.9984

> <Gold.PLP.part.repulsive>
0.1720

> <Gold.PLP.ligand.clash>
0.0000

> <Gold.PLP.ligand.torsion>
1.0742

> <Gold.PLP.Chemscore.Hbond>
4.8608

> <Gold.PLP.Chemscore.CHOScore>
0.0000

> <Gold.PLP.Chemscore.Metal>
0.0000

> <Gold.Chemscore.Hbonds>
donor molecule, donor type, donor heavy atom, donor atom, acceptor molecule, acceptor atom, score
      L1  H    13    42       P1  7948  2.00
      P1  H  6896  6907       L1     5  0.70
      P1  H  6931  6943       L1    20  1.00
      P1  H  6934  6947       L1    20  0.34

> <Gold.PLP.Chemscore.Internal.Correction>
0.0981

> <Gold.Rescore>
     Score         DG    S(hbond)    S(metal)    S(lipo)     H(rot)  DE(clash)    DE(int)     intcor
     12.31     -14.77       1.86        0.00      60.67       1.57       0.14       2.32       ----

> <Gold.Chemscore.Fitness>
12.3057

> <Gold.Chemscore.DG>
-14.7660

> <Gold.Chemscore.ZeroCoef>
-5.4800

> <Gold.Chemscore.Hbond>
1.8582

> <Gold.Chemscore.Metal>
0.0000

> <Gold.Chemscore.Lipo>
60.6738

> <Gold.Chemscore.Internal_Hbond>
0.0000

> <Gold.Chemscore.DEClash>
0.1394

> <Gold.Chemscore.DEInternal>
2.3209

> <Gold.Chemscore.Rot>
1.5701

> <Gold.Chemscore.Internal.Correction>
   9.000000E+99

> <Gold.Chemscore.Hbonds>
donor molecule, donor type, donor heavy atom, donor atom, acceptor molecule, acceptor atom, score
      L1  H    13    42       P1  7948  0.34
      P1  H  6896  6907       L1     5  0.01
      P1  H  6931  6943       L1    20  0.25
      P1  H  6934  6947       L1    20  0.08

> <Gold.Chemscore.Hbond.Weighted>
-6.2065

> <Gold.Chemscore.Metal.Weighted>
-0.0000

> <Gold.Chemscore.Lipo.Weighted>
-7.0988

> <Gold.Chemscore.Internal_Hbond.Weighted>
0.0000

> <Gold.Chemscore.DEClash.Weighted>
0.1394

> <Gold.Chemscore.DEInternal.Weighted>
2.3209

> <Gold.Chemscore.Rot.Weighted>
4.0194

> <Gold.Chemscore.Internal.Correction.Weighted>
   9.000000E+99

> <Gold.Protein.RotatedTorsions>
[ 6907 6896 6895 6894 ] final  -76.45 input  -60.11 | X-H torsion
[ 7974 7965 7964 7962 ] final  -97.36 input  175.53 | X-H torsion
[ 8008 7997 7996 7995 ] final  157.40 input   59.86 | X-H torsion
[ 10167 10162 10161 10158 ] final   41.27 input  -65.29 | X-H torsion
[ 10718 10713 10712 10709 ] final  120.27 input   66.30 | X-H torsion
[ 10763 10752 10751 10750 ] final  -35.61 input  -60.55 | X-H torsion
[ 11005 11000 10999 10996 ] final  112.21 input  -57.11 | X-H torsion

> <Gold.Protein.ActiveResidues>
 VAL166  LYS551  ARG553  GLY616  TRP617  ASP618  TYR619  PRO620  LYS621  CYS622 
 ASP623  PHE694  ASN695  SER759  ASP760  ASP761  ALA762  ILE779  LEU786  VAL792 
 PHE793  MET794  SER795  GLU796  ALA797  LYS798  CYS799  TRP800  GLU811  SER814 

> <Gold.Protein.RotatedAtoms>
  150.7027  134.4570  159.5362 H   0  0  0  0  0  0  0  0  0  0  0  0  # atno 6907 bound_to 6896
  152.2252  134.8372  160.0490 H   0  0  0  0  0  0  0  0  0  0  0  0  # atno 6908 bound_to 6896
  151.9208  133.3550  159.3933 H   0  0  0  0  0  0  0  0  0  0  0  0  # atno 6909 bound_to 6896
  145.3347  140.9448  143.2642 H   0  0  0  0  0  0  0  0  0  0  0  0  # atno 7974 bound_to 7965
  156.2366  140.1886  156.7102 H   0  0  0  0  0  0  0  0  0  0  0  0  # atno 8008 bound_to 7997
  154.6118  140.0621  156.9530 H   0  0  0  0  0  0  0  0  0  0  0  0  # atno 8009 bound_to 7997
  155.2004  140.3292  155.4347 H   0  0  0  0  0  0  0  0  0  0  0  0  # atno 8010 bound_to 7997
  140.3660  144.2167  150.6135 H   0  0  0  0  0  0  0  0  0  0  0  0  # atno 10167 bound_to 10162
  157.5902  131.1065  150.8012 H   0  0  0  0  0  0  0  0  0  0  0  0  # atno 10718 bound_to 10713
  153.8660  135.6835  153.4778 H   0  0  0  0  0  0  0  0  0  0  0  0  # atno 10763 bound_to 10752
  153.1314  135.4696  154.9353 H   0  0  0  0  0  0  0  0  0  0  0  0  # atno 10764 bound_to 10752
  154.7736  135.3246  154.8088 H   0  0  0  0  0  0  0  0  0  0  0  0  # atno 10765 bound_to 10752
  139.8922  134.9525  156.6550 H   0  0  0  0  0  0  0  0  0  0  0  0  # atno 11005 bound_to 11000
  144.8837  139.4869  143.6711 LP  0  0  0  0  0  0  0  0  0  0  0  0  # atno 17320 bound_to 7965
  146.3031  139.7492  142.9076 LP  0  0  0  0  0  0  0  0  0  0  0  0  # atno 17321 bound_to 7965
  140.5080  143.2298  151.8578 LP  0  0  0  0  0  0  0  0  0  0  0  0  # atno 17342 bound_to 10162
  139.4809  144.4982  151.9095 LP  0  0  0  0  0  0  0  0  0  0  0  0  # atno 17343 bound_to 10162
  156.8436  130.5056  149.5318 LP  0  0  0  0  0  0  0  0  0  0  0  0  # atno 17370 bound_to 10713
  156.0956  130.5930  150.9808 LP  0  0  0  0  0  0  0  0  0  0  0  0  # atno 17371 bound_to 10713
  140.7491  133.8913  155.8333 LP  0  0  0  0  0  0  0  0  0  0  0  0  # atno 17394 bound_to 11000
  141.0015  134.1143  157.4312 LP  0  0  0  0  0  0  0  0  0  0  0  0  # atno 17395 bound_to 11000

$$$$
