AV-unprocessed.smi:1328|AV-procd|sdf|5480|dock7
  -GOLD-   22720 5 53D 1   1.00000     0.00000
 Structure written by MMmdl.
 38 39  0  0  0  0  0  0  0  0  1 V2000
  148.9923  139.3286  154.1033 C   0  0  0  0  0  0  0  0  0  0  0  0
  150.2912  138.7187  154.5466 C   0  0  0  0  0  0  0  0  0  0  0  0
  150.5991  137.4914  154.1625 N   0  0  0  0  0  0  0  0  0  0  0  0
  151.8492  137.2164  154.7247 O   0  0  0  0  0  0  0  0  0  0  0  0
  152.2496  138.3014  155.4350 C   0  0  0  0  0  0  0  0  0  0  0  0
  153.5751  138.2029  156.1125 C   0  0  0  0  0  0  0  0  0  0  0  0
  151.3052  139.2897  155.3685 C   0  0  0  0  0  0  0  0  0  0  0  0
  151.3236  140.6588  155.9989 C   0  0  0  0  0  0  0  0  0  0  0  0
  151.3538  140.5170  157.5201 C   0  0  0  0  0  0  0  0  0  0  0  0
  150.3739  140.0754  158.1199 O   0  0  0  0  0  0  0  0  0  0  0  0
  152.4816  140.9139  158.1280 N   0  0  0  0  0  0  0  0  0  0  0  0
  152.6975  140.9771  159.5692 C   0  0  1  0  0  0  0  0  0  0  0  0
  153.9691  140.1954  159.9398 C   0  0  0  0  0  0  0  0  0  0  0  0
  152.7737  142.4572  159.9886 C   0  0  2  0  0  0  0  0  0  0  0  0
  152.6364  142.7100  161.4894 C   0  0  0  0  0  0  0  0  0  0  0  0
  152.1431  144.1463  161.5591 C   0  0  0  0  0  0  0  0  0  0  0  0
  151.6006  144.4240  160.1538 C   0  0  0  0  0  0  0  0  0  0  0  0
  151.6662  143.1796  159.4712 O   0  0  0  0  0  0  0  0  0  0  0  0
  149.0999  140.3991  153.9288 H   0  0  0  0  0  0  0  0  0  0  0  0
  148.2195  139.1913  154.8598 H   0  0  0  0  0  0  0  0  0  0  0  0
  148.6346  138.8806  153.1757 H   0  0  0  0  0  0  0  0  0  0  0  0
  154.1104  139.1509  156.0635 H   0  0  0  0  0  0  0  0  0  0  0  0
  154.1994  137.4430  155.6424 H   0  0  0  0  0  0  0  0  0  0  0  0
  153.4519  137.9383  157.1627 H   0  0  0  0  0  0  0  0  0  0  0  0
  152.1927  141.2335  155.6766 H   0  0  0  0  0  0  0  0  0  0  0  0
  150.4498  141.2438  155.7093 H   0  0  0  0  0  0  0  0  0  0  0  0
  153.2303  141.2600  157.5457 H   0  0  0  0  0  0  0  0  0  0  0  0
  151.8455  140.5210  160.0771 H   0  0  0  0  0  0  0  0  0  0  0  0
  154.1330  140.1930  161.0174 H   0  0  0  0  0  0  0  0  0  0  0  0
  154.8523  140.6285  159.4693 H   0  0  0  0  0  0  0  0  0  0  0  0
  153.8991  139.1547  159.6219 H   0  0  0  0  0  0  0  0  0  0  0  0
  153.6939  142.9136  159.6180 H   0  0  0  0  0  0  0  0  0  0  0  0
  151.8844  142.0448  161.9165 H   0  0  0  0  0  0  0  0  0  0  0  0
  153.5696  142.5569  162.0320 H   0  0  0  0  0  0  0  0  0  0  0  0
  151.3755  144.2635  162.3249 H   0  0  0  0  0  0  0  0  0  0  0  0
  152.9588  144.8314  161.7930 H   0  0  0  0  0  0  0  0  0  0  0  0
  150.5789  144.8044  160.1675 H   0  0  0  0  0  0  0  0  0  0  0  0
  152.2276  145.1516  159.6367 H   0  0  0  0  0  0  0  0  0  0  0  0
  1  2  1  0  0  0  0
  1 19  1  0  0  0  0
  1 20  1  0  0  0  0
  1 21  1  0  0  0  0
  2  7  1  0  0  0  0
  2  3  2  0  0  0  0
  3  4  1  0  0  0  0
  4  5  1  0  0  0  0
  5  6  1  0  0  0  0
  5  7  2  0  0  0  0
  6 22  1  0  0  0  0
  6 23  1  0  0  0  0
  6 24  1  0  0  0  0
  7  8  1  0  0  0  0
  8  9  1  0  0  0  0
  8 25  1  0  0  0  0
  8 26  1  0  0  0  0
  9 10  2  0  0  0  0
  9 11  1  0  0  0  0
 11 12  1  0  0  0  0
 11 27  1  0  0  0  0
 12 13  1  0  0  0  0
 12 14  1  0  0  0  0
 12 28  1  0  0  0  0
 13 29  1  0  0  0  0
 13 30  1  0  0  0  0
 13 31  1  0  0  0  0
 14 18  1  0  0  0  0
 14 15  1  0  0  0  0
 14 32  1  0  0  0  0
 15 16  1  0  0  0  0
 15 33  1  0  0  0  0
 15 34  1  0  0  0  0
 16 17  1  0  0  0  0
 16 35  1  0  0  0  0
 16 36  1  0  0  0  0
 17 18  1  0  0  0  0
 17 37  1  0  0  0  0
 17 38  1  0  0  0  0
M  END
> <s_m_source_file>
AV-unprocessed.smi

> <i_m_source_file_index>
1328

> <i_lp_mmshare_version>
43012

> <i_f3d_flags>
0

> <s_epik_input>
W0NIM11jMW5vYyhbQ0gzXSljMVtDSDJdQyg9TylbTkhdW0NASF0oW0NIM10pW0NAQEhdMltDSDJdW0NIMl1bQ0gyXU8y

> <s_epik_cmdline>
J2VwaWtfcHl0aG9uJywgJy1waCcsICc3LjAnLCAnLXRuJywgJzgnLCAnLW1hJywgJzIwMCcsICctbWV0YWxfYmluZGluZycsICctaW1hZScsICc8aW5maWxlLm1hZT4nLCAnLW9tYWUnLCAnPG91dGZpbGUubWFlPic=

> <r_lp_tautomer_probability>
1

> <r_epik_Ionization_Penalty>
2.66156e-08

> <r_epik_Ionization_Penalty_Charging>
0

> <r_epik_Ionization_Penalty_Neutral>
2.66156e-08

> <r_epik_State_Penalty>
-0

> <r_epik_Charging_Adjusted_Penalty>
0

> <i_epik_Tot_Q>
0

> <i_epik_Tot_abs_Q>
0

> <r_epik_Metal_State_Penalty>
-0

> <b_epik_Metal_Only>
0

> <s_lp_Force_Field>
OPLS_2005

> <r_lp_Energy>
11.7374

> <b_lp_Chiralities_Consistent>
1

> <s_lp_Variant>
AV-unprocessed.smi:1328-2

> <Gold.Version>
5.8.1

> <Gold.Id.Protein>
6NUR|6NUR_protein|mol2

> <Gold.PLP.Fitness>
38.9495

> <Gold.PLP.PLP>
-36.4614

> <Gold.PLP.part.hbond>
-1.0000

> <Gold.PLP.part.metal>
0.0000

> <Gold.PLP.part.buried>
-2.6375

> <Gold.PLP.part.nonpolar>
-33.9951

> <Gold.PLP.part.repulsive>
1.1186

> <Gold.PLP.ligand.clash>
0.0000

> <Gold.PLP.ligand.torsion>
0.2747

> <Gold.PLP.Chemscore.Hbond>
1.0000

> <Gold.PLP.Chemscore.CHOScore>
0.0000

> <Gold.PLP.Chemscore.Metal>
0.0000

> <Gold.Chemscore.Hbonds>
donor molecule, donor type, donor heavy atom, donor atom, acceptor molecule, acceptor atom, score
      P1  H 10752 10764       L1     4  0.98

> <Gold.PLP.Chemscore.Internal.Correction>
0.0375

> <Gold.Rescore>
     Score         DG    S(hbond)    S(metal)    S(lipo)     H(rot)  DE(clash)    DE(int)     intcor
     16.43     -16.88       0.96        0.00     103.25       1.52       0.20       0.25       ----

> <Gold.Chemscore.Fitness>
16.4295

> <Gold.Chemscore.DG>
-16.8750

> <Gold.Chemscore.ZeroCoef>
-5.4800

> <Gold.Chemscore.Hbond>
0.9567

> <Gold.Chemscore.Metal>
0.0000

> <Gold.Chemscore.Lipo>
103.2504

> <Gold.Chemscore.Internal_Hbond>
0.0000

> <Gold.Chemscore.DEClash>
0.1980

> <Gold.Chemscore.DEInternal>
0.2475

> <Gold.Chemscore.Rot>
1.5159

> <Gold.Chemscore.Internal.Correction>
   9.000000E+99

> <Gold.Chemscore.Hbonds>
donor molecule, donor type, donor heavy atom, donor atom, acceptor molecule, acceptor atom, score
      P1  H 10752 10764       L1     4  0.92

> <Gold.Chemscore.Hbond.Weighted>
-3.1955

> <Gold.Chemscore.Metal.Weighted>
-0.0000

> <Gold.Chemscore.Lipo.Weighted>
-12.0803

> <Gold.Chemscore.Internal_Hbond.Weighted>
0.0000

> <Gold.Chemscore.DEClash.Weighted>
0.1980

> <Gold.Chemscore.DEInternal.Weighted>
0.2475

> <Gold.Chemscore.Rot.Weighted>
3.8807

> <Gold.Chemscore.Internal.Correction.Weighted>
   9.000000E+99

> <Gold.Protein.RotatedTorsions>
[ 6907 6896 6895 6894 ] final  123.54 input  -60.11 | X-H torsion
[ 7974 7965 7964 7962 ] final -105.24 input  175.53 | X-H torsion
[ 8008 7997 7996 7995 ] final  107.86 input   59.86 | X-H torsion
[ 10167 10162 10161 10158 ] final  104.46 input  -65.29 | X-H torsion
[ 10718 10713 10712 10709 ] final   98.82 input   66.30 | X-H torsion
[ 10763 10752 10751 10750 ] final  -75.35 input  -60.55 | X-H torsion
[ 11005 11000 10999 10996 ] final  131.79 input  -57.11 | X-H torsion

> <Gold.Protein.ActiveResidues>
 VAL166  LYS551  ARG553  GLY616  TRP617  ASP618  TYR619  PRO620  LYS621  CYS622 
 ASP623  PHE694  ASN695  SER759  ASP760  ASP761  ALA762  ILE779  LEU786  VAL792 
 PHE793  MET794  SER795  GLU796  ALA797  LYS798  CYS799  TRP800  GLU811  SER814 

> <Gold.Protein.RotatedAtoms>
  152.4153  133.7028  159.6433 H   0  0  0  0  0  0  0  0  0  0  0  0  # atno 6907 bound_to 6896
  150.8031  133.8551  159.3225 H   0  0  0  0  0  0  0  0  0  0  0  0  # atno 6908 bound_to 6896
  151.6282  135.1027  160.0167 H   0  0  0  0  0  0  0  0  0  0  0  0  # atno 6909 bound_to 6896
  145.2329  140.9177  143.3194 H   0  0  0  0  0  0  0  0  0  0  0  0  # atno 7974 bound_to 7965
  156.1857  140.3087  155.9234 H   0  0  0  0  0  0  0  0  0  0  0  0  # atno 8008 bound_to 7997
  155.3285  140.0459  157.3059 H   0  0  0  0  0  0  0  0  0  0  0  0  # atno 8009 bound_to 7997
  154.5393  140.2256  155.8677 H   0  0  0  0  0  0  0  0  0  0  0  0  # atno 8010 bound_to 7997
  139.7176  144.7065  151.0925 H   0  0  0  0  0  0  0  0  0  0  0  0  # atno 10167 bound_to 10162
  157.6888  131.0651  150.4854 H   0  0  0  0  0  0  0  0  0  0  0  0  # atno 10718 bound_to 10713
  154.4854  135.5834  153.6420 H   0  0  0  0  0  0  0  0  0  0  0  0  # atno 10763 bound_to 10752
  152.9854  135.6100  154.3193 H   0  0  0  0  0  0  0  0  0  0  0  0  # atno 10764 bound_to 10752
  154.3088  135.2845  155.2555 H   0  0  0  0  0  0  0  0  0  0  0  0  # atno 10765 bound_to 10752
  139.9751  134.9566  156.9489 H   0  0  0  0  0  0  0  0  0  0  0  0  # atno 11005 bound_to 11000
  144.9659  139.3930  143.6332 LP  0  0  0  0  0  0  0  0  0  0  0  0  # atno 17320 bound_to 7965
  146.3348  139.8735  142.8836 LP  0  0  0  0  0  0  0  0  0  0  0  0  # atno 17321 bound_to 7965
  140.7747  143.5209  150.9537 LP  0  0  0  0  0  0  0  0  0  0  0  0  # atno 17342 bound_to 10162
  139.8896  143.6970  152.3147 LP  0  0  0  0  0  0  0  0  0  0  0  0  # atno 17343 bound_to 10162
  156.5184  130.4156  149.6264 LP  0  0  0  0  0  0  0  0  0  0  0  0  # atno 17370 bound_to 10713
  156.3177  130.7263  151.2169 LP  0  0  0  0  0  0  0  0  0  0  0  0  # atno 17371 bound_to 10713
  140.5211  134.0906  155.7292 LP  0  0  0  0  0  0  0  0  0  0  0  0  # atno 17394 bound_to 11000
  141.1429  133.9107  157.2284 LP  0  0  0  0  0  0  0  0  0  0  0  0  # atno 17395 bound_to 11000

$$$$
