AV-unprocessed.smi:2876|AV-procd|sdf|11042|dock3
  -GOLD-   2272015503D 1   1.00000     0.00000
 Structure written by MMmdl.
 25 26  0  0  0  0  0  0  0  0  2 V2000
  152.1153  137.2616  155.5258 O   0  0  0  0  0  0  0  0  0  0  0  0
  152.5200  138.2246  156.2125 C   0  0  0  0  0  0  0  0  0  0  0  0
  153.5795  138.1484  156.8760 O   0  5  0  0  0  0  0  0  0  0  0  0
  151.7338  139.5154  156.2591 C   0  0  0  0  0  0  0  0  0  0  0  0
  152.1483  140.4313  157.1702 N   0  0  0  0  0  0  0  0  0  0  0  0
  151.4861  141.5876  157.2526 C   0  0  0  0  0  0  0  0  0  0  0  0
  151.9202  142.5070  158.1890 N   0  0  0  0  0  0  0  0  0  0  0  0
  151.3869  143.8576  158.0670 C   0  0  0  0  0  0  0  0  0  0  0  0
  152.1726  144.8253  158.9689 C   0  0  0  0  0  0  0  0  0  0  0  0
  152.1469  144.3552  160.3132 O   0  0  0  0  0  0  0  0  0  0  0  0
  152.7410  143.0666  160.4379 C   0  0  0  0  0  0  0  0  0  0  0  0
  151.9682  142.0551  159.5737 C   0  0  0  0  0  0  0  0  0  0  0  0
  150.4348  141.9510  156.5191 N   0  0  0  0  0  0  0  0  0  0  0  0
  150.0018  141.0598  155.6042 C   0  0  0  0  0  0  0  0  0  0  0  0
  150.6162  139.8040  155.4207 C   0  0  0  0  0  0  0  0  0  0  0  0
  149.9719  138.7407  154.2155 Cl  0  0  0  0  0  0  0  0  0  0  0  0
  151.4432  144.1844  157.0279 H   0  0  0  0  0  0  0  0  0  0  0  0
  150.3324  143.8563  158.3469 H   0  0  0  0  0  0  0  0  0  0  0  0
  153.2040  144.9247  158.6268 H   0  0  0  0  0  0  0  0  0  0  0  0
  151.7273  145.8195  158.9319 H   0  0  0  0  0  0  0  0  0  0  0  0
  153.7907  143.1083  160.1428 H   0  0  0  0  0  0  0  0  0  0  0  0
  152.7159  142.7638  161.4848 H   0  0  0  0  0  0  0  0  0  0  0  0
  150.9517  141.9378  159.9518 H   0  0  0  0  0  0  0  0  0  0  0  0
  152.4457  141.0758  159.6257 H   0  0  0  0  0  0  0  0  0  0  0  0
  149.1501  141.3540  155.0088 H   0  0  0  0  0  0  0  0  0  0  0  0
  1  2  2  0  0  0  0
  2  3  1  0  0  0  0
  2  4  1  0  0  0  0
  4 15  1  0  0  0  0
  4  5  2  0  0  0  0
  5  6  1  0  0  0  0
  6  7  1  0  0  0  0
  6 13  2  0  0  0  0
  7 12  1  0  0  0  0
  7  8  1  0  0  0  0
  8  9  1  0  0  0  0
  8 17  1  0  0  0  0
  8 18  1  0  0  0  0
  9 10  1  0  0  0  0
  9 19  1  0  0  0  0
  9 20  1  0  0  0  0
 10 11  1  0  0  0  0
 11 12  1  0  0  0  0
 11 21  1  0  0  0  0
 11 22  1  0  0  0  0
 12 23  1  0  0  0  0
 12 24  1  0  0  0  0
 13 14  1  0  0  0  0
 14 15  2  0  0  0  0
 14 25  1  0  0  0  0
 15 16  1  0  0  0  0
M  CHG  1   3  -1
M  END
> <s_m_source_file>
AV-unprocessed.smi

> <i_m_source_file_index>
2876

> <i_lp_mmshare_version>
43012

> <i_f3d_flags>
0

> <s_epik_input>
Tz1DKFtPSF0pYzFuYyhuW2NIXWMxQ2wpTjJbQ0gyXVtDSDJdT1tDSDJdW0NIMl0y

> <s_epik_cmdline>
J2VwaWtfcHl0aG9uJywgJy1waCcsICc3LjAnLCAnLXRuJywgJzgnLCAnLW1hJywgJzIwMCcsICctbWV0YWxfYmluZGluZycsICctaW1hZScsICc8aW5maWxlLm1hZT4nLCAnLW9tYWUnLCAnPG91dGZpbGUubWFlPic=

> <r_lp_tautomer_probability>
1

> <r_epik_Ionization_Penalty>
2.42258e-06

> <r_epik_Ionization_Penalty_Charging>
2.2596e-06

> <r_epik_Ionization_Penalty_Neutral>
1.62982e-07

> <r_epik_State_Penalty>
-0

> <r_epik_Charging_Adjusted_Penalty>
2.2596e-06

> <i_epik_Tot_Q>
-1

> <i_epik_Tot_abs_Q>
1

> <r_epik_Metal_State_Penalty>
-0

> <b_epik_Metal_Only>
0

> <s_lp_Force_Field>
OPLS_2005

> <r_lp_Energy>
19.4651

> <b_lp_Chiralities_Consistent>
1

> <s_lp_Variant>
AV-unprocessed.smi:2876-1

> <Gold.Version>
5.8.1

> <Gold.Id.Protein>
6NUR|6NUR_protein|mol2

> <Gold.PLP.Fitness>
41.1126

> <Gold.PLP.PLP>
-31.9828

> <Gold.PLP.part.hbond>
-2.5732

> <Gold.PLP.part.metal>
0.0000

> <Gold.PLP.part.buried>
-3.6691

> <Gold.PLP.part.nonpolar>
-26.3766

> <Gold.PLP.part.repulsive>
0.2482

> <Gold.PLP.ligand.clash>
0.0000

> <Gold.PLP.ligand.torsion>
0.1971

> <Gold.PLP.Chemscore.Hbond>
3.0897

> <Gold.PLP.Chemscore.CHOScore>
0.0000

> <Gold.PLP.Chemscore.Metal>
0.0000

> <Gold.Chemscore.Hbonds>
donor molecule, donor type, donor heavy atom, donor atom, acceptor molecule, acceptor atom, score
      P1  H  7997  8009       L1     3  1.27
      P1  H 10752 10765       L1     1  1.63

> <Gold.PLP.Chemscore.Internal.Correction>
0.2549

> <Gold.Rescore>
     Score         DG    S(hbond)    S(metal)    S(lipo)     H(rot)  DE(clash)    DE(int)     intcor
     14.89     -16.37       1.48        0.00      72.60       1.00       0.03       1.45       ----

> <Gold.Chemscore.Fitness>
14.8897

> <Gold.Chemscore.DG>
-16.3679

> <Gold.Chemscore.ZeroCoef>
-5.4800

> <Gold.Chemscore.Hbond>
1.4830

> <Gold.Chemscore.Metal>
0.0000

> <Gold.Chemscore.Lipo>
72.6035

> <Gold.Chemscore.Internal_Hbond>
0.0000

> <Gold.Chemscore.DEClash>
0.0274

> <Gold.Chemscore.DEInternal>
1.4508

> <Gold.Chemscore.Rot>
1.0000

> <Gold.Chemscore.Internal.Correction>
   9.000000E+99

> <Gold.Chemscore.Hbonds>
donor molecule, donor type, donor heavy atom, donor atom, acceptor molecule, acceptor atom, score
      P1  H  7997  8009       L1     3  0.19
      P1  H 10752 10765       L1     1  0.76

> <Gold.Chemscore.Hbond.Weighted>
-4.9533

> <Gold.Chemscore.Metal.Weighted>
-0.0000

> <Gold.Chemscore.Lipo.Weighted>
-8.4946

> <Gold.Chemscore.Internal_Hbond.Weighted>
0.0000

> <Gold.Chemscore.DEClash.Weighted>
0.0274

> <Gold.Chemscore.DEInternal.Weighted>
1.4508

> <Gold.Chemscore.Rot.Weighted>
2.5600

> <Gold.Chemscore.Internal.Correction.Weighted>
   9.000000E+99

> <Gold.Protein.RotatedTorsions>
[ 6907 6896 6895 6894 ] final  -51.77 input  -60.11 | X-H torsion
[ 7974 7965 7964 7962 ] final  -57.83 input  175.53 | X-H torsion
[ 8008 7997 7996 7995 ] final -174.75 input   59.86 | X-H torsion
[ 10167 10162 10161 10158 ] final -171.12 input  -65.29 | X-H torsion
[ 10718 10713 10712 10709 ] final   54.83 input   66.30 | X-H torsion
[ 10763 10752 10751 10750 ] final -175.01 input  -60.55 | X-H torsion
[ 11005 11000 10999 10996 ] final -143.24 input  -57.11 | X-H torsion

> <Gold.Protein.ActiveResidues>
 VAL166  LYS551  ARG553  GLY616  TRP617  ASP618  TYR619  PRO620  LYS621  CYS622 
 ASP623  PHE694  ASN695  SER759  ASP760  ASP761  ALA762  ILE779  LEU786  VAL792 
 PHE793  MET794  SER795  GLU796  ALA797  LYS798  CYS799  TRP800  GLU811  SER814 

> <Gold.Protein.RotatedAtoms>
  150.8580  134.7924  159.7060 H   0  0  0  0  0  0  0  0  0  0  0  0  # atno 6907 bound_to 6896
  152.4626  134.5146  159.9774 H   0  0  0  0  0  0  0  0  0  0  0  0  # atno 6908 bound_to 6896
  151.5255  133.3420  159.2944 H   0  0  0  0  0  0  0  0  0  0  0  0  # atno 6909 bound_to 6896
  145.8465  140.8381  143.0007 H   0  0  0  0  0  0  0  0  0  0  0  0  # atno 7974 bound_to 7965
  155.9740  140.1168  157.0787 H   0  0  0  0  0  0  0  0  0  0  0  0  # atno 8008 bound_to 7997
  154.4164  140.1157  156.5412 H   0  0  0  0  0  0  0  0  0  0  0  0  # atno 8009 bound_to 7997
  155.6559  140.3473  155.4767 H   0  0  0  0  0  0  0  0  0  0  0  0  # atno 8010 bound_to 7997
  139.5821  144.1400  152.1528 H   0  0  0  0  0  0  0  0  0  0  0  0  # atno 10167 bound_to 10162
  157.5292  130.8618  149.8663 H   0  0  0  0  0  0  0  0  0  0  0  0  # atno 10718 bound_to 10713
  154.5895  135.2843  155.0650 H   0  0  0  0  0  0  0  0  0  0  0  0  # atno 10763 bound_to 10752
  154.1956  135.6433  153.5076 H   0  0  0  0  0  0  0  0  0  0  0  0  # atno 10764 bound_to 10752
  153.0116  135.5457  154.6576 H   0  0  0  0  0  0  0  0  0  0  0  0  # atno 10765 bound_to 10752
  140.8145  134.2705  157.4927 H   0  0  0  0  0  0  0  0  0  0  0  0  # atno 11005 bound_to 11000
  144.6731  140.0890  143.7466 LP  0  0  0  0  0  0  0  0  0  0  0  0  # atno 17320 bound_to 7965
  145.9406  139.2666  143.1271 LP  0  0  0  0  0  0  0  0  0  0  0  0  # atno 17321 bound_to 7965
  140.0955  144.5584  150.7025 LP  0  0  0  0  0  0  0  0  0  0  0  0  # atno 17342 bound_to 10162
  140.7098  143.2496  151.4616 LP  0  0  0  0  0  0  0  0  0  0  0  0  # atno 17343 bound_to 10162
  156.0409  130.3739  150.1437 LP  0  0  0  0  0  0  0  0  0  0  0  0  # atno 17370 bound_to 10713
  156.9623  130.9808  151.3476 LP  0  0  0  0  0  0  0  0  0  0  0  0  # atno 17371 bound_to 10713
  139.8712  134.9501  156.4046 LP  0  0  0  0  0  0  0  0  0  0  0  0  # atno 17394 bound_to 11000
  140.9163  133.7676  155.9852 LP  0  0  0  0  0  0  0  0  0  0  0  0  # atno 17395 bound_to 11000

$$$$
