AV-unprocessed.smi:276|AV-procd|sdf|2084|dock8
  -GOLD-   2262021353D 1   1.00000     0.00000
 Structure written by MMmdl.
 57 61  0  0  0  0  0  0  0  0  1 V2000
  141.8306  136.4558  153.4458 C   0  0  0  0  0  0  0  0  0  0  0  0
  142.7837  137.4956  153.5795 O   0  0  0  0  0  0  0  0  0  0  0  0
  143.9420  137.0859  154.2889 C   0  0  2  0  0  0  0  0  0  0  0  0
  144.9456  138.2105  154.5692 C   0  0  0  0  0  0  0  0  0  0  0  0
  146.0493  137.1792  154.2980 C   0  0  2  0  0  0  0  0  0  0  0  0
  147.2195  137.7492  153.6258 N   0  0  0  0  0  0  0  0  0  0  0  0
  146.9585  138.8496  152.7064 C   0  0  0  0  0  0  0  0  0  0  0  0
  148.2742  138.0476  154.4182 C   0  0  0  0  0  0  0  0  0  0  0  0
  148.8846  137.0100  155.0438 N   0  0  0  0  0  0  0  0  0  0  0  0
  149.9262  137.2325  155.8507 C   0  0  0  0  0  0  0  0  0  0  0  0
  150.5120  138.3917  156.1581 N   0  0  0  0  0  0  0  0  0  0  0  0
  149.9151  139.4341  155.5120 C   0  0  0  0  0  0  0  0  0  0  0  0
  148.8040  139.3542  154.6257 C   0  0  0  0  0  0  0  0  0  0  0  0
  148.4908  140.6223  154.1490 N   0  0  0  0  0  0  0  0  0  0  0  0
  149.3559  141.4069  154.7314 C   0  0  0  0  0  0  0  0  0  0  0  0
  150.2471  140.7752  155.5677 N   0  0  0  0  0  0  0  0  0  0  0  0
  151.3100  141.3962  156.3372 C   0  0  0  0  0  0  0  0  0  0  0  0
  150.8599  142.7072  157.0094 C   0  0  1  0  0  0  0  0  0  0  0  0
  149.5328  142.5908  157.4881 O   0  0  0  0  0  0  0  0  0  0  0  0
  151.8156  143.1545  158.1345 C   0  0  1  0  0  0  0  0  0  0  0  0
  151.6100  144.5643  158.6971 C   0  0  0  0  0  0  0  0  0  0  0  0
  152.1542  144.4640  160.1166 C   0  0  0  0  0  0  0  0  0  0  0  0
  152.4372  142.9718  160.3183 C   0  0  0  0  0  0  0  0  0  0  0  0
  151.7297  142.3168  159.2761 O   0  0  0  0  0  0  0  0  0  0  0  0
  145.0219  136.4389  153.4000 C   0  0  0  0  0  0  0  0  0  0  0  0
  145.0617  134.9175  153.2061 C   0  0  0  0  0  0  0  0  0  0  0  0
  145.4358  135.1375  151.7365 C   0  0  0  0  0  0  0  0  0  0  0  0
  144.9773  136.5938  151.8659 C   0  0  0  0  0  0  0  0  0  0  0  0
  140.9693  136.8190  152.8851 H   0  0  0  0  0  0  0  0  0  0  0  0
  141.4773  136.1129  154.4191 H   0  0  0  0  0  0  0  0  0  0  0  0
  142.2493  135.6054  152.9060 H   0  0  0  0  0  0  0  0  0  0  0  0
  143.7230  136.4796  155.1710 H   0  0  0  0  0  0  0  0  0  0  0  0
  144.9031  139.0109  153.8277 H   0  0  0  0  0  0  0  0  0  0  0  0
  144.9220  138.5991  155.5875 H   0  0  0  0  0  0  0  0  0  0  0  0
  146.2815  136.6204  155.2057 H   0  0  0  0  0  0  0  0  0  0  0  0
  146.5778  139.7194  153.2434 H   0  0  0  0  0  0  0  0  0  0  0  0
  146.2196  138.5621  151.9584 H   0  0  0  0  0  0  0  0  0  0  0  0
  147.8655  139.1431  152.1757 H   0  0  0  0  0  0  0  0  0  0  0  0
  150.3499  136.3559  156.3183 H   0  0  0  0  0  0  0  0  0  0  0  0
  149.3716  142.4738  154.5619 H   0  0  0  0  0  0  0  0  0  0  0  0
  151.6612  140.6825  157.0837 H   0  0  0  0  0  0  0  0  0  0  0  0
  152.1495  141.5851  155.6671 H   0  0  0  0  0  0  0  0  0  0  0  0
  150.8475  143.4946  156.2546 H   0  0  0  0  0  0  0  0  0  0  0  0
  148.9810  143.1700  156.9853 H   0  0  0  0  0  0  0  0  0  0  0  0
  152.8394  143.0799  157.7621 H   0  0  0  0  0  0  0  0  0  0  0  0
  152.1216  145.3214  158.1023 H   0  0  0  0  0  0  0  0  0  0  0  0
  150.5541  144.8322  158.7378 H   0  0  0  0  0  0  0  0  0  0  0  0
  153.0601  145.0561  160.2505 H   0  0  0  0  0  0  0  0  0  0  0  0
  151.4133  144.8217  160.8325 H   0  0  0  0  0  0  0  0  0  0  0  0
  153.5032  142.7664  160.2090 H   0  0  0  0  0  0  0  0  0  0  0  0
  152.1217  142.6132  161.2982 H   0  0  0  0  0  0  0  0  0  0  0  0
  145.8211  134.4005  153.7923 H   0  0  0  0  0  0  0  0  0  0  0  0
  144.0808  134.4547  153.3228 H   0  0  0  0  0  0  0  0  0  0  0  0
  146.5053  135.0398  151.5511 H   0  0  0  0  0  0  0  0  0  0  0  0
  144.8538  134.5445  151.0308 H   0  0  0  0  0  0  0  0  0  0  0  0
  143.9695  136.7360  151.4747 H   0  0  0  0  0  0  0  0  0  0  0  0
  145.6657  137.3259  151.4448 H   0  0  0  0  0  0  0  0  0  0  0  0
  1  2  1  0  0  0  0
  1 29  1  0  0  0  0
  1 30  1  0  0  0  0
  1 31  1  0  0  0  0
  2  3  1  0  0  0  0
  3 25  1  0  0  0  0
  3  4  1  0  0  0  0
  3 32  1  0  0  0  0
  4  5  1  0  0  0  0
  4 33  1  0  0  0  0
  4 34  1  0  0  0  0
  5  6  1  0  0  0  0
  5 25  1  0  0  0  0
  5 35  1  0  0  0  0
  6  7  1  0  0  0  0
  6  8  1  0  0  0  0
  7 36  1  0  0  0  0
  7 37  1  0  0  0  0
  7 38  1  0  0  0  0
  8 13  1  0  0  0  0
  8  9  2  0  0  0  0
  9 10  1  0  0  0  0
 10 11  2  0  0  0  0
 10 39  1  0  0  0  0
 11 12  1  0  0  0  0
 12 16  1  0  0  0  0
 12 13  2  0  0  0  0
 13 14  1  0  0  0  0
 14 15  2  0  0  0  0
 15 16  1  0  0  0  0
 15 40  1  0  0  0  0
 16 17  1  0  0  0  0
 17 18  1  0  0  0  0
 17 41  1  0  0  0  0
 17 42  1  0  0  0  0
 18 19  1  0  0  0  0
 18 20  1  0  0  0  0
 18 43  1  0  0  0  0
 19 44  1  0  0  0  0
 20 24  1  0  0  0  0
 20 21  1  0  0  0  0
 20 45  1  0  0  0  0
 21 22  1  0  0  0  0
 21 46  1  0  0  0  0
 21 47  1  0  0  0  0
 22 23  1  0  0  0  0
 22 48  1  0  0  0  0
 22 49  1  0  0  0  0
 23 24  1  0  0  0  0
 23 50  1  0  0  0  0
 23 51  1  0  0  0  0
 25 28  1  0  0  0  0
 25 26  1  0  0  0  0
 26 27  1  0  0  0  0
 26 52  1  0  0  0  0
 26 53  1  0  0  0  0
 27 28  1  0  0  0  0
 27 54  1  0  0  0  0
 27 55  1  0  0  0  0
 28 56  1  0  0  0  0
 28 57  1  0  0  0  0
M  END
> <s_m_source_file>
AV-unprocessed.smi

> <i_m_source_file_index>
276

> <i_lp_mmshare_version>
43012

> <i_f3d_flags>
0

> <s_epik_input>
W0NIMl0xW0NIMl1bQ0gyXUMxMltDQEhdKE9bQ0gzXSlbQ0gyXVtDQEhdMk4oW0NIM10pYyhuW2NIXW4zKWMoYzM0KW5bY0hdbjRbQ0gyXVtDQEhdKFtPSF0pW0NAQEhdNVtDSDJdW0NIMl1bQ0gyXU81

> <s_epik_cmdline>
J2VwaWtfcHl0aG9uJywgJy1waCcsICc3LjAnLCAnLXRuJywgJzgnLCAnLW1hJywgJzIwMCcsICctbWV0YWxfYmluZGluZycsICctaW1hZScsICc8aW5maWxlLm1hZT4nLCAnLW9tYWUnLCAnPG91dGZpbGUubWFlPic=

> <r_lp_tautomer_probability>
1

> <r_epik_Ionization_Penalty>
0.00204117

> <r_epik_Ionization_Penalty_Charging>
0

> <r_epik_Ionization_Penalty_Neutral>
0.00204117

> <r_epik_State_Penalty>
0.00127401

> <r_epik_Charging_Adjusted_Penalty>
0.00127401

> <i_epik_Tot_Q>
0

> <i_epik_Tot_abs_Q>
0

> <r_epik_Metal_State_Penalty>
-0

> <b_epik_Metal_Only>
0

> <s_lp_Force_Field>
OPLS_2005

> <r_lp_Energy>
58.0628

> <b_lp_Chiralities_Consistent>
1

> <s_lp_Variant>
AV-unprocessed.smi:276-15

> <Gold.Version>
5.8.1

> <Gold.Id.Protein>
6NUR|6NUR_protein|mol2

> <Gold.PLP.Fitness>
40.9446

> <Gold.PLP.PLP>
-38.6093

> <Gold.PLP.part.hbond>
-1.0000

> <Gold.PLP.part.metal>
0.0000

> <Gold.PLP.part.buried>
-4.7854

> <Gold.PLP.part.nonpolar>
-33.9715

> <Gold.PLP.part.repulsive>
0.9881

> <Gold.PLP.ligand.clash>
1.4429

> <Gold.PLP.ligand.torsion>
1.4460

> <Gold.PLP.Chemscore.Hbond>
0.9920

> <Gold.PLP.Chemscore.CHOScore>
0.9974

> <Gold.PLP.Chemscore.Metal>
0.0000

> <Gold.Chemscore.Hbonds>
donor molecule, donor type, donor heavy atom, donor atom, acceptor molecule, acceptor atom, score
      L1  H    19    44       P1  8028  0.94
      L1  C    15    40       P1  8028  1.00

> <Gold.PLP.Chemscore.Internal.Correction>
0.7021

> <Gold.Rescore>
     Score         DG    S(hbond)    S(metal)    S(lipo)     H(rot)  DE(clash)    DE(int)     intcor
      7.79     -11.40       0.41        0.00      98.31       2.72       0.90       2.71       ----

> <Gold.Chemscore.Fitness>
7.7856

> <Gold.Chemscore.DG>
-11.4022

> <Gold.Chemscore.ZeroCoef>
-5.4800

> <Gold.Chemscore.Hbond>
0.4119

> <Gold.Chemscore.Metal>
0.0000

> <Gold.Chemscore.Lipo>
98.3126

> <Gold.Chemscore.Internal_Hbond>
0.0000

> <Gold.Chemscore.DEClash>
0.9040

> <Gold.Chemscore.DEInternal>
2.7126

> <Gold.Chemscore.Rot>
2.7172

> <Gold.Chemscore.Internal.Correction>
   9.000000E+99

> <Gold.Chemscore.Hbonds>
donor molecule, donor type, donor heavy atom, donor atom, acceptor molecule, acceptor atom, score
      L1  H    19    44       P1  8028  0.69

> <Gold.Chemscore.Hbond.Weighted>
-1.3756

> <Gold.Chemscore.Metal.Weighted>
-0.0000

> <Gold.Chemscore.Lipo.Weighted>
-11.5026

> <Gold.Chemscore.Internal_Hbond.Weighted>
0.0000

> <Gold.Chemscore.DEClash.Weighted>
0.9040

> <Gold.Chemscore.DEInternal.Weighted>
2.7126

> <Gold.Chemscore.Rot.Weighted>
6.9560

> <Gold.Chemscore.Internal.Correction.Weighted>
   9.000000E+99

> <Gold.Protein.RotatedTorsions>
[ 6907 6896 6895 6894 ] final  -71.53 input  -60.11 | X-H torsion
[ 7974 7965 7964 7962 ] final  154.73 input  175.53 | X-H torsion
[ 8008 7997 7996 7995 ] final  -96.49 input   59.86 | X-H torsion
[ 10167 10162 10161 10158 ] final   54.73 input  -65.29 | X-H torsion
[ 10718 10713 10712 10709 ] final  -40.35 input   66.30 | X-H torsion
[ 10763 10752 10751 10750 ] final -106.72 input  -60.55 | X-H torsion
[ 11005 11000 10999 10996 ] final  150.19 input  -57.11 | X-H torsion

> <Gold.Protein.ActiveResidues>
 VAL166  LYS551  ARG553  GLY616  TRP617  ASP618  TYR619  PRO620  LYS621  CYS622 
 ASP623  PHE694  ASN695  SER759  ASP760  ASP761  ALA762  ILE779  LEU786  VAL792 
 PHE793  MET794  SER795  GLU796  ALA797  LYS798  CYS799  TRP800  GLU811  SER814 

> <Gold.Protein.RotatedAtoms>
  150.7208  134.5295  159.5693 H   0  0  0  0  0  0  0  0  0  0  0  0  # atno 6907 bound_to 6896
  152.2832  134.7802  160.0401 H   0  0  0  0  0  0  0  0  0  0  0  0  # atno 6908 bound_to 6896
  151.8442  133.3393  159.3689 H   0  0  0  0  0  0  0  0  0  0  0  0  # atno 6909 bound_to 6896
  144.8070  139.6973  143.6158 H   0  0  0  0  0  0  0  0  0  0  0  0  # atno 7974 bound_to 7965
  154.7752  140.0471  157.1083 H   0  0  0  0  0  0  0  0  0  0  0  0  # atno 8008 bound_to 7997
  154.9772  140.3097  155.4942 H   0  0  0  0  0  0  0  0  0  0  0  0  # atno 8009 bound_to 7997
  156.2927  140.2242  156.4868 H   0  0  0  0  0  0  0  0  0  0  0  0  # atno 8010 bound_to 7997
  140.2270  144.3727  150.6428 H   0  0  0  0  0  0  0  0  0  0  0  0  # atno 10167 bound_to 10162
  156.2823  130.4218  149.8324 H   0  0  0  0  0  0  0  0  0  0  0  0  # atno 10718 bound_to 10713
  154.8030  135.4701  154.0323 H   0  0  0  0  0  0  0  0  0  0  0  0  # atno 10763 bound_to 10752
  153.1813  135.6841  153.8481 H   0  0  0  0  0  0  0  0  0  0  0  0  # atno 10764 bound_to 10752
  153.8030  135.3227  155.3370 H   0  0  0  0  0  0  0  0  0  0  0  0  # atno 10765 bound_to 10752
  140.1110  134.8924  157.1936 H   0  0  0  0  0  0  0  0  0  0  0  0  # atno 11005 bound_to 11000
  146.2363  139.5911  142.9522 LP  0  0  0  0  0  0  0  0  0  0  0  0  # atno 17320 bound_to 7965
  145.5415  141.0420  143.2328 LP  0  0  0  0  0  0  0  0  0  0  0  0  # atno 17321 bound_to 7965
  140.6213  143.2176  151.6688 LP  0  0  0  0  0  0  0  0  0  0  0  0  # atno 17342 bound_to 10162
  139.5123  144.3479  152.0679 LP  0  0  0  0  0  0  0  0  0  0  0  0  # atno 17343 bound_to 10162
  156.5766  130.8448  151.3371 LP  0  0  0  0  0  0  0  0  0  0  0  0  # atno 17370 bound_to 10713
  157.7318  130.9706  150.1898 LP  0  0  0  0  0  0  0  0  0  0  0  0  # atno 17371 bound_to 10713
  140.3091  134.3044  155.7271 LP  0  0  0  0  0  0  0  0  0  0  0  0  # atno 17394 bound_to 11000
  141.2130  133.7639  156.9751 LP  0  0  0  0  0  0  0  0  0  0  0  0  # atno 17395 bound_to 11000

$$$$
