AV-unprocessed.smi:2801|AV-procd|sdf|10799|dock6
  -GOLD-   2272015233D 1   1.00000     0.00000
 Structure written by MMmdl.
 32 32  0  0  0  0  0  0  0  0  1 V2000
  152.0604  145.3033  159.2013 C   0  0  0  0  0  0  0  0  0  0  0  0
  152.6066  144.1390  158.3721 C   0  0  0  0  0  0  0  0  0  0  0  0
  153.3339  143.2699  159.2317 O   0  0  0  0  0  0  0  0  0  0  0  0
  152.6289  142.1093  159.6673 C   0  0  2  0  0  0  0  0  0  0  0  0
  153.4250  141.4793  160.8260 C   0  0  0  0  0  0  0  0  0  0  0  0
  153.4098  142.3407  162.0950 C   0  0  0  0  0  0  0  0  0  0  0  0
  152.4689  141.1199  158.5010 C   0  0  0  0  0  0  0  0  0  0  0  0
  153.2083  140.1385  158.4335 O   0  0  0  0  0  0  0  0  0  0  0  0
  151.5216  141.4336  157.5976 N   0  0  0  0  0  0  0  0  0  0  0  0
  151.1253  140.7354  156.4219 C   0  0  0  0  0  0  0  0  0  0  0  0
  151.8229  139.6250  155.8866 C   0  0  0  0  0  0  0  0  0  0  0  0
  151.3207  139.0048  154.7254 C   0  0  0  0  0  0  0  0  0  0  0  0
  150.1993  139.4069  154.0921 N   0  0  0  0  0  0  0  0  0  0  0  0
  149.5283  140.4562  154.6101 C   0  0  0  0  0  0  0  0  0  0  0  0
  149.9421  141.1491  155.7665 C   0  0  0  0  0  0  0  0  0  0  0  0
  149.2014  142.2001  156.2303 O   0  0  0  0  0  0  0  0  0  0  0  0
  151.4910  145.9923  158.5775 H   0  0  0  0  0  0  0  0  0  0  0  0
  152.8700  145.8656  159.6671 H   0  0  0  0  0  0  0  0  0  0  0  0
  151.4019  144.9448  159.9928 H   0  0  0  0  0  0  0  0  0  0  0  0
  151.7818  143.5989  157.9052 H   0  0  0  0  0  0  0  0  0  0  0  0
  153.2407  144.5271  157.5742 H   0  0  0  0  0  0  0  0  0  0  0  0
  151.6438  142.3982  160.0396 H   0  0  0  0  0  0  0  0  0  0  0  0
  153.0102  140.4996  161.0678 H   0  0  0  0  0  0  0  0  0  0  0  0
  154.4579  141.3073  160.5201 H   0  0  0  0  0  0  0  0  0  0  0  0
  153.9710  141.8608  162.8967 H   0  0  0  0  0  0  0  0  0  0  0  0
  152.3918  142.4999  162.4513 H   0  0  0  0  0  0  0  0  0  0  0  0
  153.8587  143.3178  161.9148 H   0  0  0  0  0  0  0  0  0  0  0  0
  151.0500  142.3140  157.7464 H   0  0  0  0  0  0  0  0  0  0  0  0
  152.7166  139.2284  156.3413 H   0  0  0  0  0  0  0  0  0  0  0  0
  151.8327  138.1564  154.2964 H   0  0  0  0  0  0  0  0  0  0  0  0
  148.6306  140.7508  154.0868 H   0  0  0  0  0  0  0  0  0  0  0  0
  149.4634  143.0285  155.8578 H   0  0  0  0  0  0  0  0  0  0  0  0
  1  2  1  0  0  0  0
  1 17  1  0  0  0  0
  1 18  1  0  0  0  0
  1 19  1  0  0  0  0
  2  3  1  0  0  0  0
  2 20  1  0  0  0  0
  2 21  1  0  0  0  0
  3  4  1  0  0  0  0
  4  5  1  0  0  0  0
  4  7  1  0  0  0  0
  4 22  1  0  0  0  0
  5  6  1  0  0  0  0
  5 23  1  0  0  0  0
  5 24  1  0  0  0  0
  6 25  1  0  0  0  0
  6 26  1  0  0  0  0
  6 27  1  0  0  0  0
  7  8  2  0  0  0  0
  7  9  1  0  0  0  0
  9 10  1  0  0  0  0
  9 28  1  0  0  0  0
 10 15  1  0  0  0  0
 10 11  2  0  0  0  0
 11 12  1  0  0  0  0
 11 29  1  0  0  0  0
 12 13  2  0  0  0  0
 12 30  1  0  0  0  0
 13 14  1  0  0  0  0
 14 15  2  0  0  0  0
 14 31  1  0  0  0  0
 15 16  1  0  0  0  0
 16 32  1  0  0  0  0
M  END
> <s_m_source_file>
AV-unprocessed.smi

> <i_m_source_file_index>
2801

> <i_lp_mmshare_version>
43012

> <i_f3d_flags>
0

> <s_epik_input>
W0NIM11bQ0gyXU9bQ0BIXShbQ0gyXVtDSDNdKUMoPU8pW05IXWMxW2NIXVtjSF1uW2NIXWMxW09IXQ==

> <s_epik_cmdline>
J2VwaWtfcHl0aG9uJywgJy1waCcsICc3LjAnLCAnLXRuJywgJzgnLCAnLW1hJywgJzIwMCcsICctbWV0YWxfYmluZGluZycsICctaW1hZScsICc8aW5maWxlLm1hZT4nLCAnLW9tYWUnLCAnPG91dGZpbGUubWFlPic=

> <r_lp_tautomer_probability>
0.43658

> <r_epik_Ionization_Penalty>
0.0250035

> <r_epik_Ionization_Penalty_Charging>
0

> <r_epik_Ionization_Penalty_Neutral>
0.0250035

> <r_epik_State_Penalty>
0.520524

> <r_epik_Charging_Adjusted_Penalty>
0.520524

> <i_epik_Tot_Q>
0

> <i_epik_Tot_abs_Q>
0

> <r_epik_Metal_State_Penalty>
0.772586

> <b_epik_Metal_Only>
0

> <s_lp_Force_Field>
OPLS_2005

> <r_lp_Energy>
11.8743

> <b_lp_Chiralities_Consistent>
1

> <s_lp_Variant>
AV-unprocessed.smi:2801-3

> <Gold.Version>
5.8.1

> <Gold.Id.Protein>
6NUR|6NUR_protein|mol2

> <Gold.PLP.Fitness>
44.5028

> <Gold.PLP.PLP>
-40.5355

> <Gold.PLP.part.hbond>
-2.8547

> <Gold.PLP.part.metal>
0.0000

> <Gold.PLP.part.buried>
-4.7633

> <Gold.PLP.part.nonpolar>
-34.0240

> <Gold.PLP.part.repulsive>
0.8493

> <Gold.PLP.ligand.clash>
0.0000

> <Gold.PLP.ligand.torsion>
0.8785

> <Gold.PLP.Chemscore.Hbond>
1.9040

> <Gold.PLP.Chemscore.CHOScore>
0.0000

> <Gold.PLP.Chemscore.Metal>
0.0000

> <Gold.Chemscore.Hbonds>
donor molecule, donor type, donor heavy atom, donor atom, acceptor molecule, acceptor atom, score
      L1  H    16    32       P1  8028  0.83
      P1  H  7997  8008       L1     8  0.99

> <Gold.PLP.Chemscore.Internal.Correction>
0.0123

> <Gold.Rescore>
     Score         DG    S(hbond)    S(metal)    S(lipo)     H(rot)  DE(clash)    DE(int)     intcor
     15.12     -17.37       1.86        0.00      94.65       2.11       0.06       2.20       ----

> <Gold.Chemscore.Fitness>
15.1189

> <Gold.Chemscore.DG>
-17.3706

> <Gold.Chemscore.ZeroCoef>
-5.4800

> <Gold.Chemscore.Hbond>
1.8638

> <Gold.Chemscore.Metal>
0.0000

> <Gold.Chemscore.Lipo>
94.6534

> <Gold.Chemscore.Internal_Hbond>
0.0000

> <Gold.Chemscore.DEClash>
0.0563

> <Gold.Chemscore.DEInternal>
2.1955

> <Gold.Chemscore.Rot>
2.1129

> <Gold.Chemscore.Internal.Correction>
   9.000000E+99

> <Gold.Chemscore.Hbonds>
donor molecule, donor type, donor heavy atom, donor atom, acceptor molecule, acceptor atom, score
      L1  H    16    32       P1  8028  0.81
      P1  H  7997  8008       L1     8  0.91

> <Gold.Chemscore.Hbond.Weighted>
-6.2251

> <Gold.Chemscore.Metal.Weighted>
-0.0000

> <Gold.Chemscore.Lipo.Weighted>
-11.0744

> <Gold.Chemscore.Internal_Hbond.Weighted>
0.0000

> <Gold.Chemscore.DEClash.Weighted>
0.0563

> <Gold.Chemscore.DEInternal.Weighted>
2.1955

> <Gold.Chemscore.Rot.Weighted>
5.4089

> <Gold.Chemscore.Internal.Correction.Weighted>
   9.000000E+99

> <Gold.Protein.RotatedTorsions>
[ 6907 6896 6895 6894 ] final -147.30 input  -60.11 | X-H torsion
[ 7974 7965 7964 7962 ] final  -89.43 input  175.53 | X-H torsion
[ 8008 7997 7996 7995 ] final  -89.26 input   59.86 | X-H torsion
[ 10167 10162 10161 10158 ] final -137.14 input  -65.29 | X-H torsion
[ 10718 10713 10712 10709 ] final  166.70 input   66.30 | X-H torsion
[ 10763 10752 10751 10750 ] final -160.06 input  -60.55 | X-H torsion
[ 11005 11000 10999 10996 ] final   48.54 input  -57.11 | X-H torsion

> <Gold.Protein.ActiveResidues>
 VAL166  LYS551  ARG553  GLY616  TRP617  ASP618  TYR619  PRO620  LYS621  CYS622 
 ASP623  PHE694  ASN695  SER759  ASP760  ASP761  ALA762  ILE779  LEU786  VAL792 
 PHE793  MET794  SER795  GLU796  ALA797  LYS798  CYS799  TRP800  GLU811  SER814 

> <Gold.Protein.RotatedAtoms>
  151.1537  133.4890  159.2594 H   0  0  0  0  0  0  0  0  0  0  0  0  # atno 6907 bound_to 6896
  151.1526  135.0234  159.8685 H   0  0  0  0  0  0  0  0  0  0  0  0  # atno 6908 bound_to 6896
  152.5463  134.1420  159.8536 H   0  0  0  0  0  0  0  0  0  0  0  0  # atno 6909 bound_to 6896
  145.4399  140.9558  143.2081 H   0  0  0  0  0  0  0  0  0  0  0  0  # atno 7974 bound_to 7965
  154.6845  140.0544  157.0300 H   0  0  0  0  0  0  0  0  0  0  0  0  # atno 8008 bound_to 7997
  155.0904  140.3219  155.4556 H   0  0  0  0  0  0  0  0  0  0  0  0  # atno 8009 bound_to 7997
  156.2706  140.2049  156.6032 H   0  0  0  0  0  0  0  0  0  0  0  0  # atno 8010 bound_to 7997
  139.8607  143.7081  152.2650 H   0  0  0  0  0  0  0  0  0  0  0  0  # atno 10167 bound_to 10162
  157.0621  131.0343  151.2643 H   0  0  0  0  0  0  0  0  0  0  0  0  # atno 10718 bound_to 10713
  154.7423  135.3071  154.8707 H   0  0  0  0  0  0  0  0  0  0  0  0  # atno 10763 bound_to 10752
  153.9518  135.6763  153.4748 H   0  0  0  0  0  0  0  0  0  0  0  0  # atno 10764 bound_to 10752
  153.1021  135.4907  154.8810 H   0  0  0  0  0  0  0  0  0  0  0  0  # atno 10765 bound_to 10752
  140.1182  134.4865  155.8620 H   0  0  0  0  0  0  0  0  0  0  0  0  # atno 11005 bound_to 11000
  144.8128  139.5930  143.7022 LP  0  0  0  0  0  0  0  0  0  0  0  0  # atno 17320 bound_to 7965
  146.2562  139.6307  142.9393 LP  0  0  0  0  0  0  0  0  0  0  0  0  # atno 17321 bound_to 7965
  139.7376  144.7567  151.0702 LP  0  0  0  0  0  0  0  0  0  0  0  0  # atno 17342 bound_to 10162
  140.7775  143.5011  150.9770 LP  0  0  0  0  0  0  0  0  0  0  0  0  # atno 17343 bound_to 10162
  157.4946  130.7843  149.7542 LP  0  0  0  0  0  0  0  0  0  0  0  0  # atno 17370 bound_to 10713
  155.9975  130.3899  150.2737 LP  0  0  0  0  0  0  0  0  0  0  0  0  # atno 17371 bound_to 10713
  141.2146  133.6751  156.6837 LP  0  0  0  0  0  0  0  0  0  0  0  0  # atno 17394 bound_to 11000
  140.3000  134.8171  157.4090 LP  0  0  0  0  0  0  0  0  0  0  0  0  # atno 17395 bound_to 11000

$$$$
