AV-unprocessed.smi:392|AV-procd|sdf|2481|dock5
  -GOLD-   2262022423D 1   1.00000     0.00000
 Structure written by MMmdl.
 32 34  0  0  0  0  0  0  0  0  1 V2000
  151.7480  140.0258  155.2724 O   0  0  0  0  0  0  0  0  0  0  0  0
  150.5609  140.5637  155.8193 C   0  0  1  0  0  0  0  0  0  0  0  0
  150.8639  141.9915  156.3159 C   0  0  0  0  0  0  0  0  0  0  0  0
  151.2866  142.0137  157.7050 N   0  0  0  0  0  0  0  0  0  0  0  0
  151.5884  140.9508  158.4751 C   0  0  0  0  0  0  0  0  0  0  0  0
  151.9462  141.1908  159.7333 N   0  0  0  0  0  0  0  0  0  0  0  0
  151.8655  142.5716  159.7879 C   0  0  0  0  0  0  0  0  0  0  0  0
  152.1136  143.4628  160.8564 C   0  0  0  0  0  0  0  0  0  0  0  0
  151.9576  144.8532  160.6780 C   0  0  0  0  0  0  0  0  0  0  0  0
  151.5543  145.3733  159.4311 C   0  0  0  0  0  0  0  0  0  0  0  0
  151.3050  144.5056  158.3509 C   0  0  0  0  0  0  0  0  0  0  0  0
  151.4587  143.1183  158.5334 C   0  0  0  0  0  0  0  0  0  0  0  0
  149.4022  140.5308  154.8287 C   0  0  0  0  0  0  0  0  0  0  0  0
  148.6691  141.7067  154.5515 C   0  0  0  0  0  0  0  0  0  0  0  0
  147.5776  141.6729  153.6628 C   0  0  0  0  0  0  0  0  0  0  0  0
  147.2104  140.4632  153.0443 C   0  0  0  0  0  0  0  0  0  0  0  0
  147.9360  139.2877  153.3149 C   0  0  0  0  0  0  0  0  0  0  0  0
  149.0276  139.3186  154.2044 C   0  0  0  0  0  0  0  0  0  0  0  0
  149.7040  138.1740  154.4647 F   0  0  0  0  0  0  0  0  0  0  0  0
  152.0360  139.3148  155.8245 H   0  0  0  0  0  0  0  0  0  0  0  0
  150.3158  139.9364  156.6771 H   0  0  0  0  0  0  0  0  0  0  0  0
  151.6628  142.4339  155.7187 H   0  0  0  0  0  0  0  0  0  0  0  0
  149.9938  142.6389  156.1983 H   0  0  0  0  0  0  0  0  0  0  0  0
  151.5391  139.9426  158.0903 H   0  0  0  0  0  0  0  0  0  0  0  0
  152.4220  143.0756  161.8163 H   0  0  0  0  0  0  0  0  0  0  0  0
  152.1482  145.5243  161.5027 H   0  0  0  0  0  0  0  0  0  0  0  0
  151.4355  146.4394  159.3039 H   0  0  0  0  0  0  0  0  0  0  0  0
  150.9929  144.9012  157.3960 H   0  0  0  0  0  0  0  0  0  0  0  0
  148.9346  142.6385  155.0290 H   0  0  0  0  0  0  0  0  0  0  0  0
  147.0194  142.5749  153.4590 H   0  0  0  0  0  0  0  0  0  0  0  0
  146.3712  140.4361  152.3649 H   0  0  0  0  0  0  0  0  0  0  0  0
  147.6516  138.3586  152.8437 H   0  0  0  0  0  0  0  0  0  0  0  0
  1  2  1  0  0  0  0
  1 20  1  0  0  0  0
  2  3  1  0  0  0  0
  2 13  1  0  0  0  0
  2 21  1  0  0  0  0
  3  4  1  0  0  0  0
  3 22  1  0  0  0  0
  3 23  1  0  0  0  0
  4 12  1  0  0  0  0
  4  5  1  0  0  0  0
  5  6  2  0  0  0  0
  5 24  1  0  0  0  0
  6  7  1  0  0  0  0
  7 12  2  0  0  0  0
  7  8  1  0  0  0  0
  8  9  2  0  0  0  0
  8 25  1  0  0  0  0
  9 10  1  0  0  0  0
  9 26  1  0  0  0  0
 10 11  2  0  0  0  0
 10 27  1  0  0  0  0
 11 12  1  0  0  0  0
 11 28  1  0  0  0  0
 13 18  1  0  0  0  0
 13 14  2  0  0  0  0
 14 15  1  0  0  0  0
 14 29  1  0  0  0  0
 15 16  2  0  0  0  0
 15 30  1  0  0  0  0
 16 17  1  0  0  0  0
 16 31  1  0  0  0  0
 17 18  2  0  0  0  0
 17 32  1  0  0  0  0
 18 19  1  0  0  0  0
M  END
> <s_m_source_file>
AV-unprocessed.smi

> <i_m_source_file_index>
392

> <i_lp_mmshare_version>
43012

> <i_f3d_flags>
0

> <s_epik_input>
RmMxW2NIXVtjSF1bY0hdW2NIXWMxW0NASF0oW09IXSlbQ0gyXW4oW2NIXW4yKWMoYzIzKVtjSF1bY0hdW2NIXVtjSF0z

> <s_epik_cmdline>
J2VwaWtfcHl0aG9uJywgJy1waCcsICc3LjAnLCAnLXRuJywgJzgnLCAnLW1hJywgJzIwMCcsICctbWV0YWxfYmluZGluZycsICctaW1hZScsICc8aW5maWxlLm1hZT4nLCAnLW9tYWUnLCAnPG91dGZpbGUubWFlPic=

> <r_epik_Ionization_Penalty>
0.0696512

> <r_epik_Ionization_Penalty_Charging>
0

> <r_epik_Ionization_Penalty_Neutral>
0.0696512

> <r_epik_State_Penalty>
0.0610247

> <r_epik_Charging_Adjusted_Penalty>
0.0610247

> <i_epik_Tot_Q>
0

> <i_epik_Tot_abs_Q>
0

> <r_epik_Metal_State_Penalty>
6.42746e-05

> <b_epik_Metal_Only>
0

> <s_lp_Force_Field>
OPLS_2005

> <r_lp_Energy>
12.4864

> <b_lp_Chiralities_Consistent>
1

> <s_lp_Variant>
AV-unprocessed.smi:392-2

> <Gold.Version>
5.8.1

> <Gold.Id.Protein>
6NUR|6NUR_protein|mol2

> <Gold.PLP.Fitness>
49.5520

> <Gold.PLP.PLP>
-47.8246

> <Gold.PLP.part.hbond>
-1.0000

> <Gold.PLP.part.metal>
0.0000

> <Gold.PLP.part.buried>
-4.6713

> <Gold.PLP.part.nonpolar>
-42.8065

> <Gold.PLP.part.repulsive>
0.0000

> <Gold.PLP.ligand.clash>
0.0000

> <Gold.PLP.ligand.torsion>
0.5837

> <Gold.PLP.Chemscore.Hbond>
0.9600

> <Gold.PLP.Chemscore.CHOScore>
0.0000

> <Gold.PLP.Chemscore.Metal>
0.0000

> <Gold.Chemscore.Hbonds>
donor molecule, donor type, donor heavy atom, donor atom, acceptor molecule, acceptor atom, score
      P1  H  7989  7998       L1     1  0.90

> <Gold.PLP.Chemscore.Internal.Correction>
0.0148

> <Gold.Rescore>
     Score         DG    S(hbond)    S(metal)    S(lipo)     H(rot)  DE(clash)    DE(int)     intcor
     15.68     -17.23       0.92        0.00     115.89       1.91       0.80       0.75       ----

> <Gold.Chemscore.Fitness>
15.6782

> <Gold.Chemscore.DG>
-17.2347

> <Gold.Chemscore.ZeroCoef>
-5.4800

> <Gold.Chemscore.Hbond>
0.9248

> <Gold.Chemscore.Metal>
0.0000

> <Gold.Chemscore.Lipo>
115.8945

> <Gold.Chemscore.Internal_Hbond>
0.0000

> <Gold.Chemscore.DEClash>
0.8029

> <Gold.Chemscore.DEInternal>
0.7536

> <Gold.Chemscore.Rot>
1.9116

> <Gold.Chemscore.Internal.Correction>
   9.000000E+99

> <Gold.Chemscore.Hbonds>
donor molecule, donor type, donor heavy atom, donor atom, acceptor molecule, acceptor atom, score
      P1  H  7989  7998       L1     1  0.19

> <Gold.Chemscore.Hbond.Weighted>
-3.0888

> <Gold.Chemscore.Metal.Weighted>
-0.0000

> <Gold.Chemscore.Lipo.Weighted>
-13.5597

> <Gold.Chemscore.Internal_Hbond.Weighted>
0.0000

> <Gold.Chemscore.DEClash.Weighted>
0.8029

> <Gold.Chemscore.DEInternal.Weighted>
0.7536

> <Gold.Chemscore.Rot.Weighted>
4.8937

> <Gold.Chemscore.Internal.Correction.Weighted>
   9.000000E+99

> <Gold.Protein.RotatedTorsions>
[ 6907 6896 6895 6894 ] final  -24.71 input  -60.11 | X-H torsion
[ 7974 7965 7964 7962 ] final   59.70 input  175.53 | X-H torsion
[ 8008 7997 7996 7995 ] final  -12.89 input   59.86 | X-H torsion
[ 10167 10162 10161 10158 ] final   45.19 input  -65.29 | X-H torsion
[ 10718 10713 10712 10709 ] final  172.84 input   66.30 | X-H torsion
[ 10763 10752 10751 10750 ] final -142.25 input  -60.55 | X-H torsion
[ 11005 11000 10999 10996 ] final  123.27 input  -57.11 | X-H torsion

> <Gold.Protein.ActiveResidues>
 VAL166  LYS551  ARG553  GLY616  TRP617  ASP618  TYR619  PRO620  LYS621  CYS622 
 ASP623  PHE694  ASN695  SER759  ASP760  ASP761  ALA762  ILE779  LEU786  VAL792 
 PHE793  MET794  SER795  GLU796  ALA797  LYS798  CYS799  TRP800  GLU811  SER814 

> <Gold.Protein.RotatedAtoms>
  151.1856  135.0380  159.8810 H   0  0  0  0  0  0  0  0  0  0  0  0  # atno 6907 bound_to 6896
  152.5442  134.1014  159.8329 H   0  0  0  0  0  0  0  0  0  0  0  0  # atno 6908 bound_to 6896
  151.1136  133.5108  159.2637 H   0  0  0  0  0  0  0  0  0  0  0  0  # atno 6909 bound_to 6896
  145.9043  139.3605  143.0574 H   0  0  0  0  0  0  0  0  0  0  0  0  # atno 7974 bound_to 7965
  154.5338  140.2264  155.8758 H   0  0  0  0  0  0  0  0  0  0  0  0  # atno 8008 bound_to 7997
  156.1791  140.3104  155.9078 H   0  0  0  0  0  0  0  0  0  0  0  0  # atno 8009 bound_to 7997
  155.3396  140.0449  157.3035 H   0  0  0  0  0  0  0  0  0  0  0  0  # atno 8010 bound_to 7997
  140.3267  144.2639  150.6174 H   0  0  0  0  0  0  0  0  0  0  0  0  # atno 10167 bound_to 10162
  156.9730  131.0096  151.2900 H   0  0  0  0  0  0  0  0  0  0  0  0  # atno 10718 bound_to 10713
  154.8516  135.3501  154.5997 H   0  0  0  0  0  0  0  0  0  0  0  0  # atno 10763 bound_to 10752
  153.6606  135.6990  153.5183 H   0  0  0  0  0  0  0  0  0  0  0  0  # atno 10764 bound_to 10752
  153.2821  135.4260  155.1045 H   0  0  0  0  0  0  0  0  0  0  0  0  # atno 10765 bound_to 10752
  139.9305  134.9641  156.8235 H   0  0  0  0  0  0  0  0  0  0  0  0  # atno 11005 bound_to 11000
  145.8752  140.9396  143.0630 LP  0  0  0  0  0  0  0  0  0  0  0  0  # atno 17320 bound_to 7965
  144.6738  140.0707  143.7473 LP  0  0  0  0  0  0  0  0  0  0  0  0  # atno 17321 bound_to 7965
  140.5434  143.2219  151.8046 LP  0  0  0  0  0  0  0  0  0  0  0  0  # atno 17342 bound_to 10162
  139.4864  144.4570  151.9586 LP  0  0  0  0  0  0  0  0  0  0  0  0  # atno 17343 bound_to 10162
  157.5579  130.8226  149.8228 LP  0  0  0  0  0  0  0  0  0  0  0  0  # atno 17370 bound_to 10713
  156.0275  130.3775  150.1782 LP  0  0  0  0  0  0  0  0  0  0  0  0  # atno 17371 bound_to 10713
  140.6215  133.9989  155.7620 LP  0  0  0  0  0  0  0  0  0  0  0  0  # atno 17394 bound_to 11000
  141.0891  133.9945  157.3266 LP  0  0  0  0  0  0  0  0  0  0  0  0  # atno 17395 bound_to 11000

$$$$
