AV-unprocessed.smi:3137|AV-procd|sdf|11953|dock6
  -GOLD-   2272017353D 1   1.00000     0.00000
 Structure written by MMmdl.
 40 40  0  0  0  0  0  0  0  0  2 V2000
  146.6174  138.8455  151.0956 C   0  0  0  0  0  0  0  0  0  0  0  0
  146.7572  138.5959  152.6003 C   0  0  0  0  0  0  0  0  0  0  0  0
  147.8317  139.4055  153.1576 N   0  0  0  0  0  0  0  0  0  0  0  0
  148.1055  139.5022  154.4666 C   0  0  0  0  0  0  0  0  0  0  0  0
  147.4632  138.9097  155.3340 O   0  0  0  0  0  0  0  0  0  0  0  0
  149.2782  140.4107  154.8492 C   0  0  0  0  0  0  0  0  0  0  0  0
  148.8566  141.5919  155.7395 C   0  0  0  0  0  0  0  0  0  0  0  0
  150.0274  142.4117  156.1175 N   0  3  0  0  0  0  0  0  0  0  0  0
  150.7376  141.9911  157.3483 C   0  0  1  0  0  0  0  0  0  0  0  0
  151.6155  140.7744  157.0244 C   0  0  0  0  0  0  0  0  0  0  0  0
  151.6001  143.1324  157.9365 C   0  0  0  0  0  0  0  0  0  0  0  0
  152.1839  142.8197  159.2283 N   0  0  0  0  0  0  0  0  0  0  0  0
  152.0105  143.4743  160.4297 C   0  0  0  0  0  0  0  0  0  0  0  0
  152.7658  142.8245  161.3644 C   0  0  0  0  0  0  0  0  0  0  0  0
  152.9186  143.1326  162.8260 C   0  0  0  0  0  0  0  0  0  0  0  0
  153.3860  141.7801  160.6217 C   0  0  0  0  0  0  0  0  0  0  0  0
  153.0402  141.7828  159.3446 N   0  0  0  0  0  0  0  0  0  0  0  0
  145.8131  138.2409  150.6764 H   0  0  0  0  0  0  0  0  0  0  0  0
  147.5352  138.5895  150.5655 H   0  0  0  0  0  0  0  0  0  0  0  0
  146.3890  139.8915  150.8879 H   0  0  0  0  0  0  0  0  0  0  0  0
  145.8199  138.8358  153.1044 H   0  0  0  0  0  0  0  0  0  0  0  0
  146.9626  137.5406  152.7843 H   0  0  0  0  0  0  0  0  0  0  0  0
  148.4012  139.9250  152.5053 H   0  0  0  0  0  0  0  0  0  0  0  0
  150.0385  139.8191  155.3615 H   0  0  0  0  0  0  0  0  0  0  0  0
  149.7341  140.7809  153.9306 H   0  0  0  0  0  0  0  0  0  0  0  0
  148.1304  142.2085  155.2129 H   0  0  0  0  0  0  0  0  0  0  0  0
  148.3704  141.2225  156.6436 H   0  0  0  0  0  0  0  0  0  0  0  0
  150.6867  142.3425  155.3555 H   0  0  0  0  0  0  0  0  0  0  0  0
  150.0055  141.6622  158.0875 H   0  0  0  0  0  0  0  0  0  0  0  0
  152.1246  140.4088  157.9167 H   0  0  0  0  0  0  0  0  0  0  0  0
  152.3778  141.0180  156.2835 H   0  0  0  0  0  0  0  0  0  0  0  0
  151.0176  139.9518  156.6307 H   0  0  0  0  0  0  0  0  0  0  0  0
  152.4229  143.3635  157.2584 H   0  0  0  0  0  0  0  0  0  0  0  0
  151.0120  144.0468  158.0279 H   0  0  0  0  0  0  0  0  0  0  0  0
  151.3662  144.3363  160.5224 H   0  0  0  0  0  0  0  0  0  0  0  0
  153.3427  142.2914  163.3751 H   0  0  0  0  0  0  0  0  0  0  0  0
  151.9612  143.3685  163.2909 H   0  0  0  0  0  0  0  0  0  0  0  0
  153.5756  143.9869  162.9896 H   0  0  0  0  0  0  0  0  0  0  0  0
  154.0746  141.0247  160.9710 H   0  0  0  0  0  0  0  0  0  0  0  0
  149.7501  143.3783  156.2106 H   0  0  0  0  0  0  0  0  0  0  0  0
  1  2  1  0  0  0  0
  1 18  1  0  0  0  0
  1 19  1  0  0  0  0
  1 20  1  0  0  0  0
  2  3  1  0  0  0  0
  2 21  1  0  0  0  0
  2 22  1  0  0  0  0
  3  4  1  0  0  0  0
  3 23  1  0  0  0  0
  4  5  2  0  0  0  0
  4  6  1  0  0  0  0
  6  7  1  0  0  0  0
  6 24  1  0  0  0  0
  6 25  1  0  0  0  0
  7  8  1  0  0  0  0
  7 26  1  0  0  0  0
  7 27  1  0  0  0  0
  8  9  1  0  0  0  0
  8 28  1  0  0  0  0
  8 40  1  0  0  0  0
  9 10  1  0  0  0  0
  9 11  1  0  0  0  0
  9 29  1  0  0  0  0
 10 30  1  0  0  0  0
 10 31  1  0  0  0  0
 10 32  1  0  0  0  0
 11 12  1  0  0  0  0
 11 33  1  0  0  0  0
 11 34  1  0  0  0  0
 12 17  1  0  0  0  0
 12 13  1  0  0  0  0
 13 14  2  0  0  0  0
 13 35  1  0  0  0  0
 14 15  1  0  0  0  0
 14 16  1  0  0  0  0
 15 36  1  0  0  0  0
 15 37  1  0  0  0  0
 15 38  1  0  0  0  0
 16 17  2  0  0  0  0
 16 39  1  0  0  0  0
M  CHG  1   8   1
M  END
> <s_m_source_file>
AV-unprocessed.smi

> <i_m_source_file_index>
3137

> <i_lp_mmshare_version>
43012

> <i_f3d_flags>
0

> <s_epik_input>
W0NIM11bQ0gyXVtOSF1DKD1PKVtDSDJdW0NIMl1bTkhdW0NASF0oW0NIM10pW0NIMl1uMVtjSF1jKFtDSDNdKVtjSF1uMQ==

> <s_epik_cmdline>
J2VwaWtfcHl0aG9uJywgJy1waCcsICc3LjAnLCAnLXRuJywgJzgnLCAnLW1hJywgJzIwMCcsICctbWV0YWxfYmluZGluZycsICctaW1hZScsICc8aW5maWxlLm1hZT4nLCAnLW9tYWUnLCAnPG91dGZpbGUubWFlPic=

> <r_lp_tautomer_probability>
1

> <r_epik_Ionization_Penalty>
0.00598586

> <r_epik_Ionization_Penalty_Charging>
0.00597743

> <r_epik_Ionization_Penalty_Neutral>
8.43172e-06

> <r_epik_State_Penalty>
0.00439883

> <r_epik_Charging_Adjusted_Penalty>
0.0103763

> <i_epik_Tot_Q>
1

> <i_epik_Tot_abs_Q>
1

> <r_epik_Metal_State_Penalty>
-0

> <b_epik_Metal_Only>
0

> <s_lp_Force_Field>
OPLS_2005

> <r_lp_Energy>
6.05872

> <b_lp_Chiralities_Consistent>
1

> <s_lp_Variant>
AV-unprocessed.smi:3137-2

> <Gold.Version>
5.8.1

> <Gold.Id.Protein>
6NUR|6NUR_protein|mol2

> <Gold.PLP.Fitness>
47.1182

> <Gold.PLP.PLP>
-38.9544

> <Gold.PLP.part.hbond>
-2.0000

> <Gold.PLP.part.metal>
0.0000

> <Gold.PLP.part.buried>
-1.0732

> <Gold.PLP.part.nonpolar>
-35.3115

> <Gold.PLP.part.repulsive>
0.2024

> <Gold.PLP.ligand.clash>
0.0000

> <Gold.PLP.ligand.torsion>
0.3877

> <Gold.PLP.Chemscore.Hbond>
2.9600

> <Gold.PLP.Chemscore.CHOScore>
0.0000

> <Gold.PLP.Chemscore.Metal>
0.0000

> <Gold.Chemscore.Hbonds>
donor molecule, donor type, donor heavy atom, donor atom, acceptor molecule, acceptor atom, score
      L1  H     3    23       P1  7957  1.00
      L1  H     8    40       P1  8028  2.00

> <Gold.PLP.Chemscore.Internal.Correction>
0.0592

> <Gold.Rescore>
     Score         DG    S(hbond)    S(metal)    S(lipo)     H(rot)  DE(clash)    DE(int)     intcor
     15.96     -18.16       1.97        0.00     102.30       2.30       0.56       1.63       ----

> <Gold.Chemscore.Fitness>
15.9645

> <Gold.Chemscore.DG>
-18.1624

> <Gold.Chemscore.ZeroCoef>
-5.4800

> <Gold.Chemscore.Hbond>
1.9738

> <Gold.Chemscore.Metal>
0.0000

> <Gold.Chemscore.Lipo>
102.2955

> <Gold.Chemscore.Internal_Hbond>
0.0000

> <Gold.Chemscore.DEClash>
0.5641

> <Gold.Chemscore.DEInternal>
1.6338

> <Gold.Chemscore.Rot>
2.2963

> <Gold.Chemscore.Internal.Correction>
   9.000000E+99

> <Gold.Chemscore.Hbonds>
donor molecule, donor type, donor heavy atom, donor atom, acceptor molecule, acceptor atom, score
      L1  H     3    23       P1  7957  0.97
      L1  H     8    40       P1  8028  0.95

> <Gold.Chemscore.Hbond.Weighted>
-6.5925

> <Gold.Chemscore.Metal.Weighted>
-0.0000

> <Gold.Chemscore.Lipo.Weighted>
-11.9686

> <Gold.Chemscore.Internal_Hbond.Weighted>
0.0000

> <Gold.Chemscore.DEClash.Weighted>
0.5641

> <Gold.Chemscore.DEInternal.Weighted>
1.6338

> <Gold.Chemscore.Rot.Weighted>
5.8786

> <Gold.Chemscore.Internal.Correction.Weighted>
   9.000000E+99

> <Gold.Protein.RotatedTorsions>
[ 6907 6896 6895 6894 ] final -132.21 input  -60.11 | X-H torsion
[ 7974 7965 7964 7962 ] final   40.32 input  175.53 | X-H torsion
[ 8008 7997 7996 7995 ] final  -36.17 input   59.86 | X-H torsion
[ 10167 10162 10161 10158 ] final   50.97 input  -65.29 | X-H torsion
[ 10718 10713 10712 10709 ] final  -44.85 input   66.30 | X-H torsion
[ 10763 10752 10751 10750 ] final -107.92 input  -60.55 | X-H torsion
[ 11005 11000 10999 10996 ] final   67.35 input  -57.11 | X-H torsion

> <Gold.Protein.ActiveResidues>
 VAL166  LYS551  ARG553  GLY616  TRP617  ASP618  TYR619  PRO620  LYS621  CYS622 
 ASP623  PHE694  ASN695  SER759  ASP760  ASP761  ALA762  ILE779  LEU786  VAL792 
 PHE793  MET794  SER795  GLU796  ALA797  LYS798  CYS799  TRP800  GLU811  SER814 

> <Gold.Protein.RotatedAtoms>
  150.9598  133.6457  159.2756 H   0  0  0  0  0  0  0  0  0  0  0  0  # atno 6907 bound_to 6896
  151.3784  135.0934  159.9498 H   0  0  0  0  0  0  0  0  0  0  0  0  # atno 6908 bound_to 6896
  152.5143  133.9138  159.7555 H   0  0  0  0  0  0  0  0  0  0  0  0  # atno 6909 bound_to 6896
  146.0914  139.5546  142.9473 H   0  0  0  0  0  0  0  0  0  0  0  0  # atno 7974 bound_to 7965
  154.4079  140.1637  156.2331 H   0  0  0  0  0  0  0  0  0  0  0  0  # atno 8008 bound_to 7997
  155.9265  140.3417  155.6192 H   0  0  0  0  0  0  0  0  0  0  0  0  # atno 8009 bound_to 7997
  155.7158  140.0762  157.2342 H   0  0  0  0  0  0  0  0  0  0  0  0  # atno 8010 bound_to 7997
  140.2669  144.3310  150.6301 H   0  0  0  0  0  0  0  0  0  0  0  0  # atno 10167 bound_to 10162
  156.2343  130.4175  149.8836 H   0  0  0  0  0  0  0  0  0  0  0  0  # atno 10718 bound_to 10713
  154.8104  135.4657  154.0502 H   0  0  0  0  0  0  0  0  0  0  0  0  # atno 10763 bound_to 10752
  153.1937  135.6859  153.8326 H   0  0  0  0  0  0  0  0  0  0  0  0  # atno 10764 bound_to 10752
  153.7835  135.3253  155.3346 H   0  0  0  0  0  0  0  0  0  0  0  0  # atno 10765 bound_to 10752
  139.9776  134.6796  156.0324 H   0  0  0  0  0  0  0  0  0  0  0  0  # atno 11005 bound_to 11000
  145.6032  141.0352  143.2007 LP  0  0  0  0  0  0  0  0  0  0  0  0  # atno 17320 bound_to 7965
  144.7363  139.7577  143.7328 LP  0  0  0  0  0  0  0  0  0  0  0  0  # atno 17321 bound_to 7965
  140.5921  143.2168  151.7233 LP  0  0  0  0  0  0  0  0  0  0  0  0  # atno 17342 bound_to 10162
  139.5000  144.3923  152.0267 LP  0  0  0  0  0  0  0  0  0  0  0  0  # atno 17343 bound_to 10162
  156.6440  130.8716  151.3519 LP  0  0  0  0  0  0  0  0  0  0  0  0  # atno 17370 bound_to 10713
  157.7147  130.9483  150.1214 LP  0  0  0  0  0  0  0  0  0  0  0  0  # atno 17371 bound_to 10713
  141.1452  133.6557  156.3845 LP  0  0  0  0  0  0  0  0  0  0  0  0  # atno 17394 bound_to 11000
  140.5162  134.6348  157.5302 LP  0  0  0  0  0  0  0  0  0  0  0  0  # atno 17395 bound_to 11000

$$$$
