AV-unprocessed.smi:20|AV-procd|sdf|113|dock2
  -GOLD-   2262015273D 1   1.00000     0.00000
 Structure written by MMmdl.
 57 61  0  0  0  0  0  0  0  0  1 V2000
  142.8852  134.6148  162.5017 O   0  0  0  0  0  0  0  0  0  0  0  0
  144.0416  134.2895  162.2441 C   0  0  0  0  0  0  0  0  0  0  0  0
  144.9655  135.0960  161.3477 C   0  0  0  0  0  0  0  0  0  0  0  0
  146.3630  134.4982  161.6406 C   0  0  2  0  0  0  0  0  0  0  0  0
  147.1142  135.3059  162.7329 C   0  0  0  0  0  0  0  0  0  0  0  0
  147.6194  136.6614  162.2086 C   0  0  0  0  0  0  0  0  0  0  0  0
  148.4489  136.4838  160.9294 C   0  0  0  0  0  0  0  0  0  0  0  0
  147.7008  135.7226  159.9312 N   0  0  0  0  0  0  0  0  0  0  0  0
  148.1643  135.8392  158.6607 C   0  0  0  0  0  0  0  0  0  0  0  0
  149.3866  135.3387  158.3349 N   0  0  0  0  0  0  0  0  0  0  0  0
  149.8541  135.4549  157.0885 C   0  0  0  0  0  0  0  0  0  0  0  0
  149.2753  136.0244  156.0300 N   0  0  0  0  0  0  0  0  0  0  0  0
  148.0472  136.5248  156.3478 C   0  0  0  0  0  0  0  0  0  0  0  0
  147.4211  136.4740  157.6254 C   0  0  0  0  0  0  0  0  0  0  0  0
  146.1675  137.0708  157.5606 N   0  0  0  0  0  0  0  0  0  0  0  0
  146.0641  137.4625  156.3202 C   0  0  0  0  0  0  0  0  0  0  0  0
  147.1561  137.1939  155.5260 N   0  0  0  0  0  0  0  0  0  0  0  0
  147.3005  137.5053  154.1130 C   0  0  0  0  0  0  0  0  0  0  0  0
  147.1799  139.0172  153.7785 C   0  0  2  0  0  0  0  0  0  0  0  0
  146.7436  139.1884  152.3041 C   0  0  0  0  0  0  0  0  0  0  0  0
  147.5805  138.4524  151.4353 O   0  0  0  0  0  0  0  0  0  0  0  0
  148.4890  139.8104  154.0589 C   0  0  2  0  0  0  0  0  0  0  0  0
  148.9827  139.8103  155.4967 C   0  0  0  0  0  0  0  0  0  0  0  0
  149.9213  141.0088  155.5224 C   0  0  0  0  0  0  0  0  0  0  0  0
  149.3313  141.9620  154.6508 O   0  0  0  0  0  0  0  0  0  0  0  0
  148.3774  141.3221  153.8092 C   0  0  0  0  0  0  0  0  0  0  0  0
  147.2455  134.4034  160.3749 C   0  0  0  0  0  0  0  0  0  0  0  0
  146.0192  133.0895  162.1811 C   0  0  0  0  0  0  0  0  0  0  0  0
  144.6674  133.2041  162.6924 N   0  0  0  0  0  0  0  0  0  0  0  0
  144.6664  134.9354  160.3112 H   0  0  0  0  0  0  0  0  0  0  0  0
  144.8901  136.1620  161.5592 H   0  0  0  0  0  0  0  0  0  0  0  0
  146.4804  135.4587  163.6075 H   0  0  0  0  0  0  0  0  0  0  0  0
  147.9751  134.7325  163.0794 H   0  0  0  0  0  0  0  0  0  0  0  0
  146.7800  137.3272  162.0081 H   0  0  0  0  0  0  0  0  0  0  0  0
  148.2202  137.1544  162.9732 H   0  0  0  0  0  0  0  0  0  0  0  0
  148.7455  137.4622  160.5531 H   0  0  0  0  0  0  0  0  0  0  0  0
  149.3704  135.9464  161.1581 H   0  0  0  0  0  0  0  0  0  0  0  0
  150.8335  135.0342  156.9151 H   0  0  0  0  0  0  0  0  0  0  0  0
  145.1824  137.9643  155.9484 H   0  0  0  0  0  0  0  0  0  0  0  0
  148.2543  137.1173  153.7539 H   0  0  0  0  0  0  0  0  0  0  0  0
  146.5305  136.9338  153.5945 H   0  0  0  0  0  0  0  0  0  0  0  0
  146.3915  139.4506  154.3954 H   0  0  0  0  0  0  0  0  0  0  0  0
  145.7296  138.8250  152.1426 H   0  0  0  0  0  0  0  0  0  0  0  0
  146.7550  140.2399  152.0155 H   0  0  0  0  0  0  0  0  0  0  0  0
  147.9824  137.7516  151.9262 H   0  0  0  0  0  0  0  0  0  0  0  0
  149.2875  139.4168  153.4276 H   0  0  0  0  0  0  0  0  0  0  0  0
  148.1548  139.9644  156.1900 H   0  0  0  0  0  0  0  0  0  0  0  0
  149.5038  138.8959  155.7750 H   0  0  0  0  0  0  0  0  0  0  0  0
  150.0595  141.4127  156.5255 H   0  0  0  0  0  0  0  0  0  0  0  0
  150.9002  140.7332  155.1279 H   0  0  0  0  0  0  0  0  0  0  0  0
  148.5543  141.5821  152.7654 H   0  0  0  0  0  0  0  0  0  0  0  0
  147.3878  141.6898  154.0840 H   0  0  0  0  0  0  0  0  0  0  0  0
  148.1196  133.7832  160.5795 H   0  0  0  0  0  0  0  0  0  0  0  0
  146.6881  133.9103  159.5767 H   0  0  0  0  0  0  0  0  0  0  0  0
  146.0196  132.3441  161.3843 H   0  0  0  0  0  0  0  0  0  0  0  0
  146.7070  132.7474  162.9551 H   0  0  0  0  0  0  0  0  0  0  0  0
  144.2518  132.5174  163.3050 H   0  0  0  0  0  0  0  0  0  0  0  0
  1  2  2  0  0  0  0
  2 29  1  0  0  0  0
  2  3  1  0  0  0  0
  3  4  1  0  0  0  0
  3 30  1  0  0  0  0
  3 31  1  0  0  0  0
  4 27  1  0  0  0  0
  4  5  1  0  0  0  0
  4 28  1  0  0  0  0
  5  6  1  0  0  0  0
  5 32  1  0  0  0  0
  5 33  1  0  0  0  0
  6  7  1  0  0  0  0
  6 34  1  0  0  0  0
  6 35  1  0  0  0  0
  7  8  1  0  0  0  0
  7 36  1  0  0  0  0
  7 37  1  0  0  0  0
  8  9  1  0  0  0  0
  8 27  1  0  0  0  0
  9 14  1  0  0  0  0
  9 10  2  0  0  0  0
 10 11  1  0  0  0  0
 11 12  2  0  0  0  0
 11 38  1  0  0  0  0
 12 13  1  0  0  0  0
 13 17  1  0  0  0  0
 13 14  2  0  0  0  0
 14 15  1  0  0  0  0
 15 16  2  0  0  0  0
 16 17  1  0  0  0  0
 16 39  1  0  0  0  0
 17 18  1  0  0  0  0
 18 19  1  0  0  0  0
 18 40  1  0  0  0  0
 18 41  1  0  0  0  0
 19 20  1  0  0  0  0
 19 22  1  0  0  0  0
 19 42  1  0  0  0  0
 20 21  1  0  0  0  0
 20 43  1  0  0  0  0
 20 44  1  0  0  0  0
 21 45  1  0  0  0  0
 22 26  1  0  0  0  0
 22 23  1  0  0  0  0
 22 46  1  0  0  0  0
 23 24  1  0  0  0  0
 23 47  1  0  0  0  0
 23 48  1  0  0  0  0
 24 25  1  0  0  0  0
 24 49  1  0  0  0  0
 24 50  1  0  0  0  0
 25 26  1  0  0  0  0
 26 51  1  0  0  0  0
 26 52  1  0  0  0  0
 27 53  1  0  0  0  0
 27 54  1  0  0  0  0
 28 29  1  0  0  0  0
 28 55  1  0  0  0  0
 28 56  1  0  0  0  0
 29 57  1  0  0  0  0
M  END
> <s_m_source_file>
AV-unprocessed.smi

> <i_m_source_file_index>
20

> <i_lp_mmshare_version>
43012

> <i_f3d_flags>
0

> <s_epik_input>
W0NIMl0xW05IXUMoPU8pW0NIMl1bQ0BAXTEyW0NIMl1bQ0gyXVtDSDJdTihbQ0gyXTIpYyhuW2NIXW4zKWMoYzM0KW5bY0hdbjRbQ0gyXVtDQEhdKFtDSDJdW09IXSlbQ0BASF01W0NIMl1bQ0gyXU9bQ0gyXTU=

> <s_epik_cmdline>
J2VwaWtfcHl0aG9uJywgJy1waCcsICc3LjAnLCAnLXRuJywgJzgnLCAnLW1hJywgJzIwMCcsICctbWV0YWxfYmluZGluZycsICctaW1hZScsICc8aW5maWxlLm1hZT4nLCAnLW9tYWUnLCAnPG91dGZpbGUubWFlPic=

> <r_lp_tautomer_probability>
1

> <r_epik_Ionization_Penalty>
0.0019697

> <r_epik_Ionization_Penalty_Charging>
0

> <r_epik_Ionization_Penalty_Neutral>
0.0019697

> <r_epik_State_Penalty>
0.00113613

> <r_epik_Charging_Adjusted_Penalty>
0.00113613

> <i_epik_Tot_Q>
0

> <i_epik_Tot_abs_Q>
0

> <r_epik_Metal_State_Penalty>
-0

> <b_epik_Metal_Only>
0

> <s_lp_Force_Field>
OPLS_2005

> <r_lp_Energy>
60.2496

> <b_lp_Chiralities_Consistent>
1

> <s_lp_Variant>
AV-unprocessed.smi:20-1

> <Gold.Version>
5.8.1

> <Gold.Id.Protein>
6NUR|6NUR_protein|mol2

> <Gold.PLP.Fitness>
46.1199

> <Gold.PLP.PLP>
-38.6241

> <Gold.PLP.part.hbond>
-6.6393

> <Gold.PLP.part.metal>
0.0000

> <Gold.PLP.part.buried>
-0.5090

> <Gold.PLP.part.nonpolar>
-30.9471

> <Gold.PLP.part.repulsive>
0.3958

> <Gold.PLP.ligand.clash>
0.0000

> <Gold.PLP.ligand.torsion>
0.5042

> <Gold.PLP.Chemscore.Hbond>
2.6480

> <Gold.PLP.Chemscore.CHOScore>
0.0000

> <Gold.PLP.Chemscore.Metal>
0.0000

> <Gold.Chemscore.Hbonds>
donor molecule, donor type, donor heavy atom, donor atom, acceptor molecule, acceptor atom, score
      L1  H    21    45       P1  7948  0.90
      P1  H  6896  6909       L1    10  0.91
      P1  H  7954  7966       L1    21  0.70

> <Gold.PLP.Chemscore.Internal.Correction>
0.5602

> <Gold.Rescore>
     Score         DG    S(hbond)    S(metal)    S(lipo)     H(rot)  DE(clash)    DE(int)     intcor
     14.38     -15.62       1.88        0.00      92.98       2.74       0.78       0.46       ----

> <Gold.Chemscore.Fitness>
14.3820

> <Gold.Chemscore.DG>
-15.6209

> <Gold.Chemscore.ZeroCoef>
-5.4800

> <Gold.Chemscore.Hbond>
1.8803

> <Gold.Chemscore.Metal>
0.0000

> <Gold.Chemscore.Lipo>
92.9826

> <Gold.Chemscore.Internal_Hbond>
0.0000

> <Gold.Chemscore.DEClash>
0.7825

> <Gold.Chemscore.DEInternal>
0.4564

> <Gold.Chemscore.Rot>
2.7415

> <Gold.Chemscore.Internal.Correction>
   9.000000E+99

> <Gold.Chemscore.Hbonds>
donor molecule, donor type, donor heavy atom, donor atom, acceptor molecule, acceptor atom, score
      L1  H    21    45       P1  7948  0.88
      P1  H  6896  6909       L1    10  0.55
      P1  H  7954  7966       L1    21  0.07

> <Gold.Chemscore.Hbond.Weighted>
-6.2801

> <Gold.Chemscore.Metal.Weighted>
-0.0000

> <Gold.Chemscore.Lipo.Weighted>
-10.8790

> <Gold.Chemscore.Internal_Hbond.Weighted>
0.0000

> <Gold.Chemscore.DEClash.Weighted>
0.7825

> <Gold.Chemscore.DEInternal.Weighted>
0.4564

> <Gold.Chemscore.Rot.Weighted>
7.0182

> <Gold.Chemscore.Internal.Correction.Weighted>
   9.000000E+99

> <Gold.Protein.RotatedTorsions>
[ 6907 6896 6895 6894 ] final   21.98 input  -60.11 | X-H torsion
[ 7974 7965 7964 7962 ] final  179.23 input  175.53 | X-H torsion
[ 8008 7997 7996 7995 ] final   44.97 input   59.86 | X-H torsion
[ 10167 10162 10161 10158 ] final   53.52 input  -65.29 | X-H torsion
[ 10718 10713 10712 10709 ] final  -64.10 input   66.30 | X-H torsion
[ 10763 10752 10751 10750 ] final    8.50 input  -60.55 | X-H torsion
[ 11005 11000 10999 10996 ] final  -65.10 input  -57.11 | X-H torsion

> <Gold.Protein.ActiveResidues>
 VAL166  LYS551  ARG553  GLY616  TRP617  ASP618  TYR619  PRO620  LYS621  CYS622 
 ASP623  PHE694  ASN695  SER759  ASP760  ASP761  ALA762  ILE779  LEU786  VAL792 
 PHE793  MET794  SER795  GLU796  ALA797  LYS798  CYS799  TRP800  GLU811  SER814 

> <Gold.Protein.RotatedAtoms>
  151.9201  135.0302  160.0521 H   0  0  0  0  0  0  0  0  0  0  0  0  # atno 6907 bound_to 6896
  152.2206  133.4976  159.5169 H   0  0  0  0  0  0  0  0  0  0  0  0  # atno 6908 bound_to 6896
  150.6999  134.1264  159.4096 H   0  0  0  0  0  0  0  0  0  0  0  0  # atno 6909 bound_to 6896
  144.7148  140.0516  143.6435 H   0  0  0  0  0  0  0  0  0  0  0  0  # atno 7974 bound_to 7965
  155.3281  140.3401  155.4240 H   0  0  0  0  0  0  0  0  0  0  0  0  # atno 8008 bound_to 7997
  156.1875  140.1686  156.8193 H   0  0  0  0  0  0  0  0  0  0  0  0  # atno 8009 bound_to 7997
  154.5403  140.0726  156.8482 H   0  0  0  0  0  0  0  0  0  0  0  0  # atno 8010 bound_to 7997
  140.2398  144.3595  150.6384 H   0  0  0  0  0  0  0  0  0  0  0  0  # atno 10167 bound_to 10162
  156.0750  130.4229  150.1372 H   0  0  0  0  0  0  0  0  0  0  0  0  # atno 10718 bound_to 10713
  153.2244  135.6885  153.7963 H   0  0  0  0  0  0  0  0  0  0  0  0  # atno 10763 bound_to 10752
  153.7150  135.3276  155.3255 H   0  0  0  0  0  0  0  0  0  0  0  0  # atno 10764 bound_to 10752
  154.8284  135.4599  154.1104 H   0  0  0  0  0  0  0  0  0  0  0  0  # atno 10765 bound_to 10752
  141.1444  133.6676  156.5935 H   0  0  0  0  0  0  0  0  0  0  0  0  # atno 11005 bound_to 11000
  145.9939  139.3037  143.0968 LP  0  0  0  0  0  0  0  0  0  0  0  0  # atno 17320 bound_to 7965
  145.8871  140.9327  143.0571 LP  0  0  0  0  0  0  0  0  0  0  0  0  # atno 17321 bound_to 7965
  140.6122  143.2170  151.6864 LP  0  0  0  0  0  0  0  0  0  0  0  0  # atno 17342 bound_to 10162
  139.5081  144.3623  152.0550 LP  0  0  0  0  0  0  0  0  0  0  0  0  # atno 17343 bound_to 10162
  156.9415  130.9746  151.3515 LP  0  0  0  0  0  0  0  0  0  0  0  0  # atno 17370 bound_to 10713
  157.5840  130.8396  149.8563 LP  0  0  0  0  0  0  0  0  0  0  0  0  # atno 17371 bound_to 10713
  140.3744  134.7577  157.4620 LP  0  0  0  0  0  0  0  0  0  0  0  0  # atno 17394 bound_to 11000
  140.0685  134.5895  155.8668 LP  0  0  0  0  0  0  0  0  0  0  0  0  # atno 17395 bound_to 11000

$$$$
