AV-unprocessed.smi:3284|AV-procd|sdf|12572|dock7
  -GOLD-   2272018493D 1   1.00000     0.00000
 Structure written by MMmdl.
 44 45  0  0  0  0  0  0  0  0  2 V2000
  152.3422  140.2898  154.6384 C   0  0  0  0  0  0  0  0  0  0  0  0
  150.9097  139.8160  154.4534 C   0  0  0  0  0  0  0  0  0  0  0  0
  150.6405  138.5243  154.1780 C   0  0  0  0  0  0  0  0  0  0  0  0
  149.2535  137.9648  153.9137 C   0  0  0  0  0  0  0  0  0  0  0  0
  148.1307  138.9861  154.1607 C   0  0  0  0  0  0  0  0  0  0  0  0
  148.5536  140.4043  153.7385 C   0  0  1  0  0  0  0  0  0  0  0  0
  147.3735  141.3911  153.7643 C   0  0  0  0  0  0  0  0  0  0  0  0
  149.8020  140.8748  154.5376 C   0  0  1  0  0  0  0  0  0  0  0  0
  149.4679  141.2650  156.0019 C   0  0  0  0  0  0  0  0  0  0  0  0
  150.4312  142.2223  156.5799 N   0  3  0  0  0  0  0  0  0  0  0  0
  151.0066  141.7932  157.8690 C   0  0  0  0  0  0  0  0  0  0  0  0
  152.2627  142.6047  158.2108 C   0  0  0  0  0  0  0  0  0  0  0  0
  152.8103  142.2614  159.5610 C   0  0  0  0  0  0  0  0  0  0  0  0
  153.4437  141.1235  159.8277 N   0  0  0  0  0  0  0  0  0  0  0  0
  153.8001  141.2214  161.1685 C   0  0  0  0  0  0  0  0  0  0  0  0
  153.3722  142.4282  161.6666 C   0  0  0  0  0  0  0  0  0  0  0  0
  152.7430  143.0906  160.6207 N   0  0  0  0  0  0  0  0  0  0  0  0
  152.1449  144.4099  160.6862 C   0  0  0  0  0  0  0  0  0  0  0  0
  152.5336  141.1758  154.0326 H   0  0  0  0  0  0  0  0  0  0  0  0
  153.0514  139.5208  154.3304 H   0  0  0  0  0  0  0  0  0  0  0  0
  152.5559  140.5256  155.6794 H   0  0  0  0  0  0  0  0  0  0  0  0
  151.4517  137.8148  154.1008 H   0  0  0  0  0  0  0  0  0  0  0  0
  149.2283  137.6383  152.8736 H   0  0  0  0  0  0  0  0  0  0  0  0
  149.0958  137.0765  154.5261 H   0  0  0  0  0  0  0  0  0  0  0  0
  147.2367  138.6759  153.6183 H   0  0  0  0  0  0  0  0  0  0  0  0
  147.8571  138.9816  155.2161 H   0  0  0  0  0  0  0  0  0  0  0  0
  148.8601  140.3423  152.6926 H   0  0  0  0  0  0  0  0  0  0  0  0
  146.8850  141.4187  154.7383 H   0  0  0  0  0  0  0  0  0  0  0  0
  146.6158  141.1050  153.0342 H   0  0  0  0  0  0  0  0  0  0  0  0
  147.6988  142.4022  153.5180 H   0  0  0  0  0  0  0  0  0  0  0  0
  150.1744  141.7674  154.0327 H   0  0  0  0  0  0  0  0  0  0  0  0
  148.4859  141.7328  156.0604 H   0  0  0  0  0  0  0  0  0  0  0  0
  149.4349  140.3753  156.6315 H   0  0  0  0  0  0  0  0  0  0  0  0
  151.1843  142.3517  155.9193 H   0  0  0  0  0  0  0  0  0  0  0  0
  150.2578  141.9153  158.6529 H   0  0  0  0  0  0  0  0  0  0  0  0
  151.2522  140.7315  157.8191 H   0  0  0  0  0  0  0  0  0  0  0  0
  153.0319  142.4517  157.4532 H   0  0  0  0  0  0  0  0  0  0  0  0
  152.0303  143.6704  158.1964 H   0  0  0  0  0  0  0  0  0  0  0  0
  154.3332  140.4246  161.6662 H   0  0  0  0  0  0  0  0  0  0  0  0
  153.4644  142.8596  162.6527 H   0  0  0  0  0  0  0  0  0  0  0  0
  152.3559  144.8711  161.6517 H   0  0  0  0  0  0  0  0  0  0  0  0
  151.0644  144.3318  160.5620 H   0  0  0  0  0  0  0  0  0  0  0  0
  152.5534  145.0434  159.8985 H   0  0  0  0  0  0  0  0  0  0  0  0
  149.9631  143.1073  156.7145 H   0  0  0  0  0  0  0  0  0  0  0  0
  1  2  1  0  0  0  0
  1 19  1  0  0  0  0
  1 20  1  0  0  0  0
  1 21  1  0  0  0  0
  2  8  1  0  0  0  0
  2  3  2  0  0  0  0
  3  4  1  0  0  0  0
  3 22  1  0  0  0  0
  4  5  1  0  0  0  0
  4 23  1  0  0  0  0
  4 24  1  0  0  0  0
  5  6  1  0  0  0  0
  5 25  1  0  0  0  0
  5 26  1  0  0  0  0
  6  7  1  0  0  0  0
  6  8  1  0  0  0  0
  6 27  1  0  0  0  0
  7 28  1  0  0  0  0
  7 29  1  0  0  0  0
  7 30  1  0  0  0  0
  8  9  1  0  0  0  0
  8 31  1  0  0  0  0
  9 10  1  0  0  0  0
  9 32  1  0  0  0  0
  9 33  1  0  0  0  0
 10 11  1  0  0  0  0
 10 34  1  0  0  0  0
 10 44  1  0  0  0  0
 11 12  1  0  0  0  0
 11 35  1  0  0  0  0
 11 36  1  0  0  0  0
 12 13  1  0  0  0  0
 12 37  1  0  0  0  0
 12 38  1  0  0  0  0
 13 17  1  0  0  0  0
 13 14  2  0  0  0  0
 14 15  1  0  0  0  0
 15 16  2  0  0  0  0
 15 39  1  0  0  0  0
 16 17  1  0  0  0  0
 16 40  1  0  0  0  0
 17 18  1  0  0  0  0
 18 41  1  0  0  0  0
 18 42  1  0  0  0  0
 18 43  1  0  0  0  0
M  CHG  1  10   1
M  END
> <s_m_source_file>
AV-unprocessed.smi

> <i_m_source_file_index>
3284

> <i_lp_mmshare_version>
43012

> <i_f3d_flags>
0

> <s_epik_input>
W0NIM11DMT1bQ0hdW0NIMl1bQ0gyXVtDQEBIXShbQ0gzXSlbQ0BIXTFbQ0gyXVtOSF1bQ0gyXVtDSDJdYzJuW2NIXVtjSF1uMltDSDNd

> <s_epik_cmdline>
J2VwaWtfcHl0aG9uJywgJy1waCcsICc3LjAnLCAnLXRuJywgJzgnLCAnLW1hJywgJzIwMCcsICctbWV0YWxfYmluZGluZycsICctaW1hZScsICc8aW5maWxlLm1hZT4nLCAnLW9tYWUnLCAnPG91dGZpbGUubWFlPic=

> <r_lp_tautomer_probability>
1

> <r_epik_Ionization_Penalty>
0.150779

> <r_epik_Ionization_Penalty_Charging>
0.150779

> <r_epik_Ionization_Penalty_Neutral>
1.39452e-13

> <r_epik_State_Penalty>
0.349447

> <r_epik_Charging_Adjusted_Penalty>
0.500226

> <i_epik_Tot_Q>
1

> <i_epik_Tot_abs_Q>
1

> <r_epik_Metal_State_Penalty>
0.000470967

> <b_epik_Metal_Only>
0

> <s_lp_Force_Field>
OPLS_2005

> <r_lp_Energy>
13.2562

> <b_lp_Chiralities_Consistent>
1

> <s_lp_Variant>
AV-unprocessed.smi:3284-1

> <Gold.Version>
5.8.1

> <Gold.Id.Protein>
6NUR|6NUR_protein|mol2

> <Gold.PLP.Fitness>
47.9416

> <Gold.PLP.PLP>
-43.4693

> <Gold.PLP.part.hbond>
-1.0000

> <Gold.PLP.part.metal>
0.0000

> <Gold.PLP.part.buried>
-3.3251

> <Gold.PLP.part.nonpolar>
-38.1766

> <Gold.PLP.part.repulsive>
0.0689

> <Gold.PLP.ligand.clash>
0.0000

> <Gold.PLP.ligand.torsion>
0.7882

> <Gold.PLP.Chemscore.Hbond>
2.0000

> <Gold.PLP.Chemscore.CHOScore>
0.0000

> <Gold.PLP.Chemscore.Metal>
0.0000

> <Gold.Chemscore.Hbonds>
donor molecule, donor type, donor heavy atom, donor atom, acceptor molecule, acceptor atom, score
      L1  H    10    44       P1  8028  1.00

> <Gold.PLP.Chemscore.Internal.Correction>
0.0485

> <Gold.Rescore>
     Score         DG    S(hbond)    S(metal)    S(lipo)     H(rot)  DE(clash)    DE(int)     intcor
     15.35     -16.38       1.00        0.00      99.99       1.61       0.01       1.03       ----

> <Gold.Chemscore.Fitness>
15.3471

> <Gold.Chemscore.DG>
-16.3849

> <Gold.Chemscore.ZeroCoef>
-5.4800

> <Gold.Chemscore.Hbond>
0.9966

> <Gold.Chemscore.Metal>
0.0000

> <Gold.Chemscore.Lipo>
99.9928

> <Gold.Chemscore.Internal_Hbond>
0.0000

> <Gold.Chemscore.DEClash>
0.0103

> <Gold.Chemscore.DEInternal>
1.0274

> <Gold.Chemscore.Rot>
1.6105

> <Gold.Chemscore.Internal.Correction>
   9.000000E+99

> <Gold.Chemscore.Hbonds>
donor molecule, donor type, donor heavy atom, donor atom, acceptor molecule, acceptor atom, score
      L1  H    10    44       P1  8028  0.49

> <Gold.Chemscore.Hbond.Weighted>
-3.3287

> <Gold.Chemscore.Metal.Weighted>
-0.0000

> <Gold.Chemscore.Lipo.Weighted>
-11.6992

> <Gold.Chemscore.Internal_Hbond.Weighted>
0.0000

> <Gold.Chemscore.DEClash.Weighted>
0.0103

> <Gold.Chemscore.DEInternal.Weighted>
1.0274

> <Gold.Chemscore.Rot.Weighted>
4.1230

> <Gold.Chemscore.Internal.Correction.Weighted>
   9.000000E+99

> <Gold.Protein.RotatedTorsions>
[ 6907 6896 6895 6894 ] final  -50.72 input  -60.11 | X-H torsion
[ 7974 7965 7964 7962 ] final  -72.09 input  175.53 | X-H torsion
[ 8008 7997 7996 7995 ] final   12.69 input   59.86 | X-H torsion
[ 10167 10162 10161 10158 ] final    7.28 input  -65.29 | X-H torsion
[ 10718 10713 10712 10709 ] final    5.06 input   66.30 | X-H torsion
[ 10763 10752 10751 10750 ] final  128.31 input  -60.55 | X-H torsion
[ 11005 11000 10999 10996 ] final -155.92 input  -57.11 | X-H torsion

> <Gold.Protein.ActiveResidues>
 VAL166  LYS551  ARG553  GLY616  TRP617  ASP618  TYR619  PRO620  LYS621  CYS622 
 ASP623  PHE694  ASN695  SER759  ASP760  ASP761  ALA762  ILE779  LEU786  VAL792 
 PHE793  MET794  SER795  GLU796  ALA797  LYS798  CYS799  TRP800  GLU811  SER814 

> <Gold.Protein.RotatedAtoms>
  150.8680  134.8048  159.7133 H   0  0  0  0  0  0  0  0  0  0  0  0  # atno 6907 bound_to 6896
  152.4695  134.4992  159.9729 H   0  0  0  0  0  0  0  0  0  0  0  0  # atno 6908 bound_to 6896
  151.5085  133.3451  159.2916 H   0  0  0  0  0  0  0  0  0  0  0  0  # atno 6909 bound_to 6896
  145.6697  140.9225  143.0890 H   0  0  0  0  0  0  0  0  0  0  0  0  # atno 7974 bound_to 7965
  154.8241  140.2889  155.5766 H   0  0  0  0  0  0  0  0  0  0  0  0  # atno 8008 bound_to 7997
  156.3000  140.2544  156.3085 H   0  0  0  0  0  0  0  0  0  0  0  0  # atno 8009 bound_to 7997
  154.9305  140.0383  157.2035 H   0  0  0  0  0  0  0  0  0  0  0  0  # atno 8010 bound_to 7997
  140.6381  143.7839  150.7388 H   0  0  0  0  0  0  0  0  0  0  0  0  # atno 10167 bound_to 10162
  156.9018  130.5724  149.5648 H   0  0  0  0  0  0  0  0  0  0  0  0  # atno 10718 bound_to 10713
  153.7235  135.3249  155.3271 H   0  0  0  0  0  0  0  0  0  0  0  0  # atno 10763 bound_to 10752
  154.8348  135.4505  154.1193 H   0  0  0  0  0  0  0  0  0  0  0  0  # atno 10764 bound_to 10752
  153.2321  135.6961  153.7959 H   0  0  0  0  0  0  0  0  0  0  0  0  # atno 10765 bound_to 10752
  140.6812  134.4142  157.5226 H   0  0  0  0  0  0  0  0  0  0  0  0  # atno 11005 bound_to 11000
  144.7061  139.8556  143.7429 LP  0  0  0  0  0  0  0  0  0  0  0  0  # atno 17320 bound_to 7965
  146.1056  139.4055  143.0320 LP  0  0  0  0  0  0  0  0  0  0  0  0  # atno 17321 bound_to 7965
  140.1465  143.4395  152.2159 LP  0  0  0  0  0  0  0  0  0  0  0  0  # atno 17342 bound_to 10162
  139.5590  144.7393  151.4209 LP  0  0  0  0  0  0  0  0  0  0  0  0  # atno 17343 bound_to 10162
  156.0578  130.5636  150.9129 LP  0  0  0  0  0  0  0  0  0  0  0  0  # atno 17370 bound_to 10713
  157.6021  131.0940  150.8941 LP  0  0  0  0  0  0  0  0  0  0  0  0  # atno 17371 bound_to 10713
  139.8951  134.8691  156.2146 LP  0  0  0  0  0  0  0  0  0  0  0  0  # atno 17394 bound_to 11000
  141.0316  133.6986  156.1440 LP  0  0  0  0  0  0  0  0  0  0  0  0  # atno 17395 bound_to 11000

$$$$
