AV-unprocessed.smi:2809|AV-procd|sdf|10825|dock10
  -GOLD-   2272015263D 1   1.00000     0.00000
 Structure written by MMmdl.
 44 45  0  0  0  0  0  0  0  0  1 V2000
  151.8185  145.7778  160.0688 C   0  0  0  0  0  0  0  0  0  0  0  0
  152.2168  145.0864  158.7602 C   0  0  0  0  0  0  0  0  0  0  0  0
  152.1205  143.5757  158.8562 C   0  0  0  0  0  0  0  0  0  0  0  0
  151.2322  142.8648  158.0248 C   0  0  0  0  0  0  0  0  0  0  0  0
  151.1494  141.4621  158.1153 C   0  0  0  0  0  0  0  0  0  0  0  0
  151.9496  140.7484  159.0306 C   0  0  0  0  0  0  0  0  0  0  0  0
  151.8064  139.3779  159.0495 O   0  0  0  0  0  0  0  0  0  0  0  0
  150.7037  138.8052  158.3589 C   0  0  0  0  0  0  0  0  0  0  0  0
  150.2691  137.5289  159.0954 C   0  0  2  0  0  0  0  0  0  0  0  0
  150.9970  136.4551  158.5338 O   0  0  0  0  0  0  0  0  0  0  0  0
  148.7582  137.2481  158.9295 C   0  0  0  0  0  0  0  0  0  0  0  0
  148.3391  136.0237  159.6310 N   0  0  0  0  0  0  0  0  0  0  0  0
  148.4725  134.8212  158.9183 C   0  0  0  0  0  0  0  0  0  0  0  0
  148.1312  133.6854  159.4332 N   0  0  0  0  0  0  0  0  0  0  0  0
  147.6165  133.6348  160.7318 C   0  0  0  0  0  0  0  0  0  0  0  0
  147.2449  132.2520  161.2368 C   0  0  0  0  0  0  0  0  0  0  0  0
  147.4680  134.7635  161.4779 C   0  0  0  0  0  0  0  0  0  0  0  0
  146.9182  134.7689  162.8990 C   0  0  0  0  0  0  0  0  0  0  0  0
  147.8546  136.0636  160.9062 C   0  0  0  0  0  0  0  0  0  0  0  0
  147.7553  137.1236  161.5274 O   0  0  0  0  0  0  0  0  0  0  0  0
  152.8407  141.4692  159.8651 C   0  0  0  0  0  0  0  0  0  0  0  0
  152.9233  142.8723  159.7763 C   0  0  0  0  0  0  0  0  0  0  0  0
  151.8948  146.8611  159.9742 H   0  0  0  0  0  0  0  0  0  0  0  0
  152.4651  145.4686  160.8905 H   0  0  0  0  0  0  0  0  0  0  0  0
  150.7903  145.5400  160.3433 H   0  0  0  0  0  0  0  0  0  0  0  0
  151.5762  145.4332  157.9484 H   0  0  0  0  0  0  0  0  0  0  0  0
  153.2350  145.3681  158.4889 H   0  0  0  0  0  0  0  0  0  0  0  0
  150.6125  143.3920  157.3143 H   0  0  0  0  0  0  0  0  0  0  0  0
  150.4650  140.9270  157.4729 H   0  0  0  0  0  0  0  0  0  0  0  0
  149.8710  139.5088  158.3051 H   0  0  0  0  0  0  0  0  0  0  0  0
  151.0069  138.5583  157.3398 H   0  0  0  0  0  0  0  0  0  0  0  0
  150.5423  137.6205  160.1474 H   0  0  0  0  0  0  0  0  0  0  0  0
  151.8190  136.7872  158.2071 H   0  0  0  0  0  0  0  0  0  0  0  0
  148.1843  138.0819  159.3380 H   0  0  0  0  0  0  0  0  0  0  0  0
  148.4852  137.2355  157.8720 H   0  0  0  0  0  0  0  0  0  0  0  0
  148.8833  134.9141  157.9115 H   0  0  0  0  0  0  0  0  0  0  0  0
  146.1798  132.2029  161.4645 H   0  0  0  0  0  0  0  0  0  0  0  0
  147.8062  132.0105  162.1395 H   0  0  0  0  0  0  0  0  0  0  0  0
  147.4635  131.4849  160.4928 H   0  0  0  0  0  0  0  0  0  0  0  0
  147.6695  135.1521  163.5901 H   0  0  0  0  0  0  0  0  0  0  0  0
  146.6227  133.7813  163.2492 H   0  0  0  0  0  0  0  0  0  0  0  0
  146.0408  135.4132  162.9613 H   0  0  0  0  0  0  0  0  0  0  0  0
  153.4723  140.9690  160.5831 H   0  0  0  0  0  0  0  0  0  0  0  0
  153.6083  143.4082  160.4169 H   0  0  0  0  0  0  0  0  0  0  0  0
  1  2  1  0  0  0  0
  1 23  1  0  0  0  0
  1 24  1  0  0  0  0
  1 25  1  0  0  0  0
  2  3  1  0  0  0  0
  2 26  1  0  0  0  0
  2 27  1  0  0  0  0
  3 22  1  0  0  0  0
  3  4  2  0  0  0  0
  4  5  1  0  0  0  0
  4 28  1  0  0  0  0
  5  6  2  0  0  0  0
  5 29  1  0  0  0  0
  6  7  1  0  0  0  0
  6 21  1  0  0  0  0
  7  8  1  0  0  0  0
  8  9  1  0  0  0  0
  8 30  1  0  0  0  0
  8 31  1  0  0  0  0
  9 10  1  0  0  0  0
  9 11  1  0  0  0  0
  9 32  1  0  0  0  0
 10 33  1  0  0  0  0
 11 12  1  0  0  0  0
 11 34  1  0  0  0  0
 11 35  1  0  0  0  0
 12 19  1  0  0  0  0
 12 13  1  0  0  0  0
 13 14  2  0  0  0  0
 13 36  1  0  0  0  0
 14 15  1  0  0  0  0
 15 16  1  0  0  0  0
 15 17  2  0  0  0  0
 16 37  1  0  0  0  0
 16 38  1  0  0  0  0
 16 39  1  0  0  0  0
 17 18  1  0  0  0  0
 17 19  1  0  0  0  0
 18 40  1  0  0  0  0
 18 41  1  0  0  0  0
 18 42  1  0  0  0  0
 19 20  2  0  0  0  0
 21 22  2  0  0  0  0
 21 43  1  0  0  0  0
 22 44  1  0  0  0  0
M  END
> <s_m_source_file>
AV-unprocessed.smi

> <i_m_source_file_index>
2809

> <i_lp_mmshare_version>
43012

> <i_f3d_flags>
0

> <s_epik_input>
W0NIM11bQ0gyXWMxW2NIXVtjSF1jKFtjSF1bY0hdMSlPW0NIMl1bQ0BIXShbT0hdKVtDSDJdbjJbY0hdbmMoW0NIM10pYyhbQ0gzXSljMj1P

> <s_epik_cmdline>
J2VwaWtfcHl0aG9uJywgJy1waCcsICc3LjAnLCAnLXRuJywgJzgnLCAnLW1hJywgJzIwMCcsICctbWV0YWxfYmluZGluZycsICctaW1hZScsICc8aW5maWxlLm1hZT4nLCAnLW9tYWUnLCAnPG91dGZpbGUubWFlPic=

> <r_lp_tautomer_probability>
1

> <r_epik_Ionization_Penalty>
3.74127e-05

> <r_epik_Ionization_Penalty_Charging>
8.43242e-08

> <r_epik_Ionization_Penalty_Neutral>
3.73284e-05

> <r_epik_State_Penalty>
-0

> <r_epik_Charging_Adjusted_Penalty>
8.43242e-08

> <i_epik_Tot_Q>
0

> <i_epik_Tot_abs_Q>
0

> <r_epik_Metal_State_Penalty>
-0

> <b_epik_Metal_Only>
0

> <s_lp_Force_Field>
OPLS_2005

> <r_lp_Energy>
22.1893

> <b_lp_Chiralities_Consistent>
1

> <s_lp_Variant>
AV-unprocessed.smi:2809-1

> <Gold.Version>
5.8.1

> <Gold.Id.Protein>
6NUR|6NUR_protein|mol2

> <Gold.PLP.Fitness>
53.5558

> <Gold.PLP.PLP>
-49.4941

> <Gold.PLP.part.hbond>
-3.0000

> <Gold.PLP.part.metal>
0.0000

> <Gold.PLP.part.buried>
-4.4173

> <Gold.PLP.part.nonpolar>
-41.5202

> <Gold.PLP.part.repulsive>
0.0000

> <Gold.PLP.ligand.clash>
1.6195

> <Gold.PLP.ligand.torsion>
1.0775

> <Gold.PLP.Chemscore.Hbond>
2.5920

> <Gold.PLP.Chemscore.CHOScore>
0.0000

> <Gold.PLP.Chemscore.Metal>
0.0000

> <Gold.Chemscore.Hbonds>
donor molecule, donor type, donor heavy atom, donor atom, acceptor molecule, acceptor atom, score
      P1  H  6896  6908       L1    10  0.78
      P1  H  6931  6943       L1    20  1.00
      P1  H  6934  6947       L1    20  0.68

> <Gold.PLP.Chemscore.Internal.Correction>
0.0601

> <Gold.Rescore>
     Score         DG    S(hbond)    S(metal)    S(lipo)     H(rot)  DE(clash)    DE(int)     intcor
     20.89     -21.90       2.39        0.00     126.00       2.47       0.01       1.00       ----

> <Gold.Chemscore.Fitness>
20.8947

> <Gold.Chemscore.DG>
-21.9009

> <Gold.Chemscore.ZeroCoef>
-5.4800

> <Gold.Chemscore.Hbond>
2.3925

> <Gold.Chemscore.Metal>
0.0000

> <Gold.Chemscore.Lipo>
126.0009

> <Gold.Chemscore.Internal_Hbond>
0.0000

> <Gold.Chemscore.DEClash>
0.0107

> <Gold.Chemscore.DEInternal>
0.9955

> <Gold.Chemscore.Rot>
2.4657

> <Gold.Chemscore.Internal.Correction>
   9.000000E+99

> <Gold.Chemscore.Hbonds>
donor molecule, donor type, donor heavy atom, donor atom, acceptor molecule, acceptor atom, score
      P1  H  6896  6908       L1    10  0.52
      P1  H  6931  6943       L1    20  0.97
      P1  H  6934  6947       L1    20  0.67

> <Gold.Chemscore.Hbond.Weighted>
-7.9909

> <Gold.Chemscore.Metal.Weighted>
-0.0000

> <Gold.Chemscore.Lipo.Weighted>
-14.7421

> <Gold.Chemscore.Internal_Hbond.Weighted>
0.0000

> <Gold.Chemscore.DEClash.Weighted>
0.0107

> <Gold.Chemscore.DEInternal.Weighted>
0.9955

> <Gold.Chemscore.Rot.Weighted>
6.3121

> <Gold.Chemscore.Internal.Correction.Weighted>
   9.000000E+99

> <Gold.Protein.RotatedTorsions>
[ 6907 6896 6895 6894 ] final -153.35 input  -60.11 | X-H torsion
[ 7974 7965 7964 7962 ] final  -27.13 input  175.53 | X-H torsion
[ 8008 7997 7996 7995 ] final  127.18 input   59.86 | X-H torsion
[ 10167 10162 10161 10158 ] final -162.84 input  -65.29 | X-H torsion
[ 10718 10713 10712 10709 ] final   39.89 input   66.30 | X-H torsion
[ 10763 10752 10751 10750 ] final   93.00 input  -60.55 | X-H torsion
[ 11005 11000 10999 10996 ] final   78.75 input  -57.11 | X-H torsion

> <Gold.Protein.ActiveResidues>
 VAL166  LYS551  ARG553  GLY616  TRP617  ASP618  TYR619  PRO620  LYS621  CYS622 
 ASP623  PHE694  ASN695  SER759  ASP760  ASP761  ALA762  ILE779  LEU786  VAL792 
 PHE793  MET794  SER795  GLU796  ALA797  LYS798  CYS799  TRP800  GLU811  SER814 

> <Gold.Protein.RotatedAtoms>
  151.2413  133.4398  159.2607 H   0  0  0  0  0  0  0  0  0  0  0  0  # atno 6907 bound_to 6896
  151.0702  134.9794  159.8315 H   0  0  0  0  0  0  0  0  0  0  0  0  # atno 6908 bound_to 6896
  152.5411  134.2359  159.8896 H   0  0  0  0  0  0  0  0  0  0  0  0  # atno 6909 bound_to 6896
  146.1379  140.5111  142.8665 H   0  0  0  0  0  0  0  0  0  0  0  0  # atno 7974 bound_to 7965
  156.2884  140.2675  156.2232 H   0  0  0  0  0  0  0  0  0  0  0  0  # atno 8008 bound_to 7997
  155.0147  140.0387  157.2431 H   0  0  0  0  0  0  0  0  0  0  0  0  # atno 8009 bound_to 7997
  154.7487  140.2739  155.6316 H   0  0  0  0  0  0  0  0  0  0  0  0  # atno 8010 bound_to 7997
  139.6363  144.0344  152.2057 H   0  0  0  0  0  0  0  0  0  0  0  0  # atno 10167 bound_to 10162
  157.3759  130.7726  149.7155 H   0  0  0  0  0  0  0  0  0  0  0  0  # atno 10718 bound_to 10713
  153.2254  135.4341  155.0536 H   0  0  0  0  0  0  0  0  0  0  0  0  # atno 10763 bound_to 10752
  154.8271  135.3366  154.6865 H   0  0  0  0  0  0  0  0  0  0  0  0  # atno 10764 bound_to 10752
  153.7295  135.7012  153.5049 H   0  0  0  0  0  0  0  0  0  0  0  0  # atno 10765 bound_to 10752
  139.9200  134.7788  156.1690 H   0  0  0  0  0  0  0  0  0  0  0  0  # atno 11005 bound_to 11000
  144.7760  140.5740  143.6638 LP  0  0  0  0  0  0  0  0  0  0  0  0  # atno 17320 bound_to 7965
  145.5114  139.1479  143.3603 LP  0  0  0  0  0  0  0  0  0  0  0  0  # atno 17321 bound_to 7965
  140.0022  144.6285  150.7720 LP  0  0  0  0  0  0  0  0  0  0  0  0  # atno 17342 bound_to 10162
  140.7467  143.2895  151.3371 LP  0  0  0  0  0  0  0  0  0  0  0  0  # atno 17343 bound_to 10162
  155.9765  130.4075  150.3774 LP  0  0  0  0  0  0  0  0  0  0  0  0  # atno 17370 bound_to 10713
  157.1872  131.0406  151.2719 LP  0  0  0  0  0  0  0  0  0  0  0  0  # atno 17371 bound_to 10713
  141.0712  133.6796  156.2144 LP  0  0  0  0  0  0  0  0  0  0  0  0  # atno 17394 bound_to 11000
  140.6504  134.5073  157.5577 LP  0  0  0  0  0  0  0  0  0  0  0  0  # atno 17395 bound_to 11000

$$$$
