AV-unprocessed.smi:2432|AV-procd|sdf|9587|dock2
  -GOLD-   2272013223D 1   1.00000     0.00000
 Structure written by MMmdl.
 33 34  0  0  0  0  0  0  0  0  1 V2000
  146.3464  141.8552  154.6008 C   0  0  0  0  0  0  0  0  0  0  0  0
  147.4624  141.1164  155.1709 N   0  0  0  0  0  0  0  0  0  0  0  0
  148.7316  141.2145  154.7476 C   0  0  0  0  0  0  0  0  0  0  0  0
  149.0715  141.9584  153.8266 O   0  0  0  0  0  0  0  0  0  0  0  0
  149.7710  140.3604  155.4892 C   0  0  2  0  0  0  0  0  0  0  0  0
  150.8006  141.2171  156.2611 C   0  0  0  0  0  0  0  0  0  0  0  0
  151.8440  140.3798  156.8599 N   0  0  0  0  0  0  0  0  0  0  0  0
  152.4804  140.7296  158.0588 C   0  0  0  0  0  0  0  0  0  0  0  0
  153.4782  139.9427  158.4858 N   0  0  0  0  0  0  0  0  0  0  0  0
  154.0942  140.2740  159.6409 C   0  0  0  0  0  0  0  0  0  0  0  0
  153.7129  141.4061  160.3856 C   0  0  0  0  0  0  0  0  0  0  0  0
  152.6532  142.1666  159.8535 C   0  0  0  0  0  0  0  0  0  0  0  0
  152.1460  143.4111  160.5503 C   0  0  0  0  0  0  0  0  0  0  0  0
  152.0457  141.8257  158.6964 N   0  0  0  0  0  0  0  0  0  0  0  0
  152.4510  139.4532  155.9022 C   0  0  0  0  0  0  0  0  0  0  0  0
  151.3695  138.6527  155.1612 C   0  0  0  0  0  0  0  0  0  0  0  0
  150.4556  139.5460  154.5391 O   0  0  0  0  0  0  0  0  0  0  0  0
  145.4236  141.5927  155.1181 H   0  0  0  0  0  0  0  0  0  0  0  0
  146.2240  141.6188  153.5431 H   0  0  0  0  0  0  0  0  0  0  0  0
  146.5008  142.9303  154.7022 H   0  0  0  0  0  0  0  0  0  0  0  0
  147.2608  140.4849  155.9329 H   0  0  0  0  0  0  0  0  0  0  0  0
  149.2287  139.7191  156.1866 H   0  0  0  0  0  0  0  0  0  0  0  0
  151.2768  141.9351  155.5921 H   0  0  0  0  0  0  0  0  0  0  0  0
  150.2682  141.7948  157.0165 H   0  0  0  0  0  0  0  0  0  0  0  0
  154.8966  139.6315  159.9721 H   0  0  0  0  0  0  0  0  0  0  0  0
  154.2064  141.6726  161.3087 H   0  0  0  0  0  0  0  0  0  0  0  0
  152.3615  143.3733  161.6185 H   0  0  0  0  0  0  0  0  0  0  0  0
  151.0675  143.5138  160.4259 H   0  0  0  0  0  0  0  0  0  0  0  0
  152.6261  144.2966  160.1337 H   0  0  0  0  0  0  0  0  0  0  0  0
  153.0455  140.0276  155.1910 H   0  0  0  0  0  0  0  0  0  0  0  0
  153.1282  138.7472  156.3818 H   0  0  0  0  0  0  0  0  0  0  0  0
  151.8265  138.0257  154.3956 H   0  0  0  0  0  0  0  0  0  0  0  0
  150.8401  137.9860  155.8442 H   0  0  0  0  0  0  0  0  0  0  0  0
  1  2  1  0  0  0  0
  1 18  1  0  0  0  0
  1 19  1  0  0  0  0
  1 20  1  0  0  0  0
  2  3  1  0  0  0  0
  2 21  1  0  0  0  0
  3  4  2  0  0  0  0
  3  5  1  0  0  0  0
  5 17  1  0  0  0  0
  5  6  1  0  0  0  0
  5 22  1  0  0  0  0
  6  7  1  0  0  0  0
  6 23  1  0  0  0  0
  6 24  1  0  0  0  0
  7  8  1  0  0  0  0
  7 15  1  0  0  0  0
  8 14  1  0  0  0  0
  8  9  2  0  0  0  0
  9 10  1  0  0  0  0
 10 11  2  0  0  0  0
 10 25  1  0  0  0  0
 11 12  1  0  0  0  0
 11 26  1  0  0  0  0
 12 13  1  0  0  0  0
 12 14  2  0  0  0  0
 13 27  1  0  0  0  0
 13 28  1  0  0  0  0
 13 29  1  0  0  0  0
 15 16  1  0  0  0  0
 15 30  1  0  0  0  0
 15 31  1  0  0  0  0
 16 17  1  0  0  0  0
 16 32  1  0  0  0  0
 16 33  1  0  0  0  0
M  END
> <s_m_source_file>
AV-unprocessed.smi

> <i_m_source_file_index>
2432

> <i_lp_mmshare_version>
43012

> <i_f3d_flags>
0

> <s_epik_input>
W0NIM11bTkhdQyg9TylbQ0BASF0xW0NIMl1OKFtDSDJdW0NIMl1PMSljMm5bY0hdW2NIXWMobjIpW0NIM10=

> <s_epik_cmdline>
J2VwaWtfcHl0aG9uJywgJy1waCcsICc3LjAnLCAnLXRuJywgJzgnLCAnLW1hJywgJzIwMCcsICctbWV0YWxfYmluZGluZycsICctaW1hZScsICc8aW5maWxlLm1hZT4nLCAnLW9tYWUnLCAnPG91dGZpbGUubWFlPic=

> <r_lp_tautomer_probability>
1

> <r_epik_Ionization_Penalty>
3.16085e-05

> <r_epik_Ionization_Penalty_Charging>
0

> <r_epik_Ionization_Penalty_Neutral>
3.16085e-05

> <r_epik_State_Penalty>
-0

> <r_epik_Charging_Adjusted_Penalty>
0

> <i_epik_Tot_Q>
0

> <i_epik_Tot_abs_Q>
0

> <r_epik_Metal_State_Penalty>
-0

> <b_epik_Metal_Only>
0

> <s_lp_Force_Field>
OPLS_2005

> <r_lp_Energy>
9.35754

> <b_lp_Chiralities_Consistent>
1

> <s_lp_Variant>
AV-unprocessed.smi:2432-1

> <Gold.Version>
5.8.1

> <Gold.Id.Protein>
6NUR|6NUR_protein|mol2

> <Gold.PLP.Fitness>
40.4402

> <Gold.PLP.PLP>
-33.1966

> <Gold.PLP.part.hbond>
-3.1992

> <Gold.PLP.part.metal>
0.0000

> <Gold.PLP.part.buried>
0.4731

> <Gold.PLP.part.nonpolar>
-28.9102

> <Gold.PLP.part.repulsive>
0.3863

> <Gold.PLP.ligand.clash>
0.0000

> <Gold.PLP.ligand.torsion>
0.1137

> <Gold.PLP.Chemscore.Hbond>
2.4550

> <Gold.PLP.Chemscore.CHOScore>
0.0000

> <Gold.PLP.Chemscore.Metal>
0.0000

> <Gold.Chemscore.Hbonds>
donor molecule, donor type, donor heavy atom, donor atom, acceptor molecule, acceptor atom, score
      P1  H  7989  7998       L1    17  0.94
      P1  H  7997  8010       L1     9  1.00
      P1  H  8011  8017       L1     4  0.48

> <Gold.PLP.Chemscore.Internal.Correction>
0.1059

> <Gold.Rescore>
     Score         DG    S(hbond)    S(metal)    S(lipo)     H(rot)  DE(clash)    DE(int)     intcor
     14.14     -15.21       1.08        0.00      74.33       1.00       1.00       0.07       ----

> <Gold.Chemscore.Fitness>
14.1437

> <Gold.Chemscore.DG>
-15.2127

> <Gold.Chemscore.ZeroCoef>
-5.4800

> <Gold.Chemscore.Hbond>
1.0768

> <Gold.Chemscore.Metal>
0.0000

> <Gold.Chemscore.Lipo>
74.3264

> <Gold.Chemscore.Internal_Hbond>
0.0000

> <Gold.Chemscore.DEClash>
1.0033

> <Gold.Chemscore.DEInternal>
0.0657

> <Gold.Chemscore.Rot>
1.0000

> <Gold.Chemscore.Internal.Correction>
   9.000000E+99

> <Gold.Chemscore.Hbonds>
donor molecule, donor type, donor heavy atom, donor atom, acceptor molecule, acceptor atom, score
      P1  H  7989  7998       L1    17  0.22
      P1  H  7997  8010       L1     9  0.25
      P1  H  8011  8017       L1     4  0.48

> <Gold.Chemscore.Hbond.Weighted>
-3.5965

> <Gold.Chemscore.Metal.Weighted>
-0.0000

> <Gold.Chemscore.Lipo.Weighted>
-8.6962

> <Gold.Chemscore.Internal_Hbond.Weighted>
0.0000

> <Gold.Chemscore.DEClash.Weighted>
1.0033

> <Gold.Chemscore.DEInternal.Weighted>
0.0657

> <Gold.Chemscore.Rot.Weighted>
2.5600

> <Gold.Chemscore.Internal.Correction.Weighted>
   9.000000E+99

> <Gold.Protein.RotatedTorsions>
[ 6907 6896 6895 6894 ] final -104.78 input  -60.11 | X-H torsion
[ 7974 7965 7964 7962 ] final  107.61 input  175.53 | X-H torsion
[ 8008 7997 7996 7995 ] final   26.01 input   59.86 | X-H torsion
[ 10167 10162 10161 10158 ] final -168.43 input  -65.29 | X-H torsion
[ 10718 10713 10712 10709 ] final   37.66 input   66.30 | X-H torsion
[ 10763 10752 10751 10750 ] final  -68.28 input  -60.55 | X-H torsion
[ 11005 11000 10999 10996 ] final    2.87 input  -57.11 | X-H torsion

> <Gold.Protein.ActiveResidues>
 VAL166  LYS551  ARG553  GLY616  TRP617  ASP618  TYR619  PRO620  LYS621  CYS622 
 ASP623  PHE694  ASN695  SER759  ASP760  ASP761  ALA762  ILE779  LEU786  VAL792 
 PHE793  MET794  SER795  GLU796  ALA797  LYS798  CYS799  TRP800  GLU811  SER814 

> <Gold.Protein.RotatedAtoms>
  150.7304  134.0226  159.3706 H   0  0  0  0  0  0  0  0  0  0  0  0  # atno 6907 bound_to 6896
  151.8192  135.0655  160.0432 H   0  0  0  0  0  0  0  0  0  0  0  0  # atno 6908 bound_to 6896
  152.3016  133.5625  159.5659 H   0  0  0  0  0  0  0  0  0  0  0  0  # atno 6909 bound_to 6896
  145.2914  139.2599  143.3863 H   0  0  0  0  0  0  0  0  0  0  0  0  # atno 7974 bound_to 7965
  155.0207  140.3147  155.4794 H   0  0  0  0  0  0  0  0  0  0  0  0  # atno 8008 bound_to 7997
  156.2892  140.2198  156.5267 H   0  0  0  0  0  0  0  0  0  0  0  0  # atno 8009 bound_to 7997
  154.7454  140.0470  157.0836 H   0  0  0  0  0  0  0  0  0  0  0  0  # atno 8010 bound_to 7997
  139.5986  144.1059  152.1717 H   0  0  0  0  0  0  0  0  0  0  0  0  # atno 10167 bound_to 10162
  157.3496  130.7591  149.6969 H   0  0  0  0  0  0  0  0  0  0  0  0  # atno 10718 bound_to 10713
  154.3867  135.6062  153.5820 H   0  0  0  0  0  0  0  0  0  0  0  0  # atno 10763 bound_to 10752
  152.9787  135.5874  154.4346 H   0  0  0  0  0  0  0  0  0  0  0  0  # atno 10764 bound_to 10752
  154.4124  135.2844  155.2006 H   0  0  0  0  0  0  0  0  0  0  0  0  # atno 10765 bound_to 10752
  140.5994  133.9850  155.8125 H   0  0  0  0  0  0  0  0  0  0  0  0  # atno 11005 bound_to 11000
  146.3183  140.3406  142.8647 LP  0  0  0  0  0  0  0  0  0  0  0  0  # atno 17320 bound_to 7965
  144.9169  140.7823  143.5772 LP  0  0  0  0  0  0  0  0  0  0  0  0  # atno 17321 bound_to 7965
  140.0650  144.5825  150.7234 LP  0  0  0  0  0  0  0  0  0  0  0  0  # atno 17342 bound_to 10162
  140.7231  143.2609  151.4210 LP  0  0  0  0  0  0  0  0  0  0  0  0  # atno 17343 bound_to 10162
  155.9719  130.4144  150.4131 LP  0  0  0  0  0  0  0  0  0  0  0  0  # atno 17370 bound_to 10713
  157.2192  131.0478  151.2556 LP  0  0  0  0  0  0  0  0  0  0  0  0  # atno 17371 bound_to 10713
  141.0882  133.9957  157.3279 LP  0  0  0  0  0  0  0  0  0  0  0  0  # atno 17394 bound_to 11000
  139.9239  135.0201  156.8164 LP  0  0  0  0  0  0  0  0  0  0  0  0  # atno 17395 bound_to 11000

$$$$
