AV-unprocessed.smi:492|AV-procd|sdf|2711|dock8
  -GOLD-   2262023153D 1   1.00000     0.00000
 Structure written by MMmdl.
 47 49  0  0  0  0  0  0  0  0  2 V2000
  152.9260  140.8148  159.2921 C   0  0  0  0  0  0  0  0  0  0  0  0
  152.8371  139.9710  158.1533 O   0  0  0  0  0  0  0  0  0  0  0  0
  151.8476  140.2307  157.2294 C   0  0  0  0  0  0  0  0  0  0  0  0
  151.8270  139.4294  156.0695 C   0  0  0  0  0  0  0  0  0  0  0  0
  150.8513  139.6257  155.0733 C   0  0  0  0  0  0  0  0  0  0  0  0
  149.8810  140.6366  155.2223 C   0  0  0  0  0  0  0  0  0  0  0  0
  148.8194  140.8407  154.1587 C   0  0  0  0  0  0  0  0  0  0  0  0
  148.2509  139.6109  153.7404 O   0  0  0  0  0  0  0  0  0  0  0  0
  146.9755  139.3673  154.3120 C   0  0  0  0  0  0  0  0  0  0  0  0
  146.4908  137.9558  153.9433 C   0  0  1  0  0  0  0  0  0  0  0  0
  147.4219  137.0028  154.4150 O   0  0  0  0  0  0  0  0  0  0  0  0
  145.0633  137.6411  154.4373 C   0  0  0  0  0  0  0  0  0  0  0  0
  144.6249  136.2826  154.0840 N   0  0  0  0  0  0  0  0  0  0  0  0
  144.0607  135.3086  154.8539 C   0  0  0  0  0  0  0  0  0  0  0  0
  143.7355  135.3970  156.3074 C   0  0  0  0  0  0  0  0  0  0  0  0
  143.8462  134.2306  154.0476 N   0  3  0  0  0  0  0  0  0  0  0  0
  144.2723  134.5192  152.7499 C   0  0  0  0  0  0  0  0  0  0  0  0
  144.2603  133.7470  151.5923 C   0  0  0  0  0  0  0  0  0  0  0  0
  144.7720  134.3498  150.4244 C   0  0  0  0  0  0  0  0  0  0  0  0
  145.2688  135.6696  150.4358 C   0  0  0  0  0  0  0  0  0  0  0  0
  145.2767  136.4427  151.6156 C   0  0  0  0  0  0  0  0  0  0  0  0
  144.7704  135.8383  152.7658 C   0  0  0  0  0  0  0  0  0  0  0  0
  149.8869  141.4372  156.3826 C   0  0  0  0  0  0  0  0  0  0  0  0
  150.8632  141.2401  157.3785 C   0  0  0  0  0  0  0  0  0  0  0  0
  153.7512  140.4829  159.9218 H   0  0  0  0  0  0  0  0  0  0  0  0
  152.0159  140.7717  159.8921 H   0  0  0  0  0  0  0  0  0  0  0  0
  153.1235  141.8494  159.0082 H   0  0  0  0  0  0  0  0  0  0  0  0
  152.5672  138.6532  155.9422 H   0  0  0  0  0  0  0  0  0  0  0  0
  150.8531  138.9973  154.1949 H   0  0  0  0  0  0  0  0  0  0  0  0
  148.0355  141.4945  154.5448 H   0  0  0  0  0  0  0  0  0  0  0  0
  149.2779  141.3478  153.3085 H   0  0  0  0  0  0  0  0  0  0  0  0
  147.0565  139.4447  155.3974 H   0  0  0  0  0  0  0  0  0  0  0  0
  146.2536  140.1196  153.9894 H   0  0  0  0  0  0  0  0  0  0  0  0
  146.5111  137.8769  152.8561 H   0  0  0  0  0  0  0  0  0  0  0  0
  147.9268  136.6891  153.6806 H   0  0  0  0  0  0  0  0  0  0  0  0
  145.0043  137.7307  155.5226 H   0  0  0  0  0  0  0  0  0  0  0  0
  144.3441  138.3541  154.0322 H   0  0  0  0  0  0  0  0  0  0  0  0
  143.4237  134.4252  156.6906 H   0  0  0  0  0  0  0  0  0  0  0  0
  142.9265  136.1099  156.4677 H   0  0  0  0  0  0  0  0  0  0  0  0
  144.6077  135.7281  156.8715 H   0  0  0  0  0  0  0  0  0  0  0  0
  143.8797  132.7360  151.5804 H   0  0  0  0  0  0  0  0  0  0  0  0
  144.7835  133.7888  149.5011 H   0  0  0  0  0  0  0  0  0  0  0  0
  145.6523  136.0979  149.5210 H   0  0  0  0  0  0  0  0  0  0  0  0
  145.6594  137.4527  151.6147 H   0  0  0  0  0  0  0  0  0  0  0  0
  149.1406  142.2071  156.5137 H   0  0  0  0  0  0  0  0  0  0  0  0
  150.8341  141.8768  158.2496 H   0  0  0  0  0  0  0  0  0  0  0  0
  143.4359  133.3616  154.3646 H   0  0  0  0  0  0  0  0  0  0  0  0
  1  2  1  0  0  0  0
  1 25  1  0  0  0  0
  1 26  1  0  0  0  0
  1 27  1  0  0  0  0
  2  3  1  0  0  0  0
  3 24  1  0  0  0  0
  3  4  2  0  0  0  0
  4  5  1  0  0  0  0
  4 28  1  0  0  0  0
  5  6  2  0  0  0  0
  5 29  1  0  0  0  0
  6  7  1  0  0  0  0
  6 23  1  0  0  0  0
  7  8  1  0  0  0  0
  7 30  1  0  0  0  0
  7 31  1  0  0  0  0
  8  9  1  0  0  0  0
  9 10  1  0  0  0  0
  9 32  1  0  0  0  0
  9 33  1  0  0  0  0
 10 11  1  0  0  0  0
 10 12  1  0  0  0  0
 10 34  1  0  0  0  0
 11 35  1  0  0  0  0
 12 13  1  0  0  0  0
 12 36  1  0  0  0  0
 12 37  1  0  0  0  0
 13 22  1  0  0  0  0
 13 14  1  0  0  0  0
 14 15  1  0  0  0  0
 14 16  2  0  0  0  0
 15 38  1  0  0  0  0
 15 39  1  0  0  0  0
 15 40  1  0  0  0  0
 16 17  1  0  0  0  0
 16 47  1  0  0  0  0
 17 22  2  0  0  0  0
 17 18  1  0  0  0  0
 18 19  2  0  0  0  0
 18 41  1  0  0  0  0
 19 20  1  0  0  0  0
 19 42  1  0  0  0  0
 20 21  2  0  0  0  0
 20 43  1  0  0  0  0
 21 22  1  0  0  0  0
 21 44  1  0  0  0  0
 23 24  2  0  0  0  0
 23 45  1  0  0  0  0
 24 46  1  0  0  0  0
M  CHG  1  16   1
M  END
> <s_m_source_file>
AV-unprocessed.smi

> <i_m_source_file_index>
492

> <i_lp_mmshare_version>
43012

> <i_f3d_flags>
0

> <s_epik_input>
W0NIM11PYzFbY0hdW2NIXWMoW2NIXVtjSF0xKVtDSDJdT1tDSDJdW0NASF0oW09IXSlbQ0gyXW4oYyhuMilbQ0gzXSljKGMyMylbY0hdW2NIXVtjSF1bY0hdMw==

> <s_epik_cmdline>
J2VwaWtfcHl0aG9uJywgJy1waCcsICc3LjAnLCAnLXRuJywgJzgnLCAnLW1hJywgJzIwMCcsICctbWV0YWxfYmluZGluZycsICctaW1hZScsICc8aW5maWxlLm1hZT4nLCAnLW9tYWUnLCAnPG91dGZpbGUubWFlPic=

> <r_lp_tautomer_probability>
1

> <r_epik_Ionization_Penalty>
0.952

> <r_epik_Ionization_Penalty_Charging>
0.951999

> <r_epik_Ionization_Penalty_Neutral>
9.7482e-07

> <r_epik_State_Penalty>
0.996343

> <r_epik_Charging_Adjusted_Penalty>
1.94834

> <i_epik_Tot_Q>
1

> <i_epik_Tot_abs_Q>
1

> <r_epik_Metal_State_Penalty>
4.96724

> <b_epik_Metal_Only>
0

> <s_lp_Force_Field>
OPLS_2005

> <r_lp_Energy>
22.9053

> <b_lp_Chiralities_Consistent>
1

> <s_lp_Variant>
AV-unprocessed.smi:492-4

> <Gold.Version>
5.8.1

> <Gold.Id.Protein>
6NUR|6NUR_protein|mol2

> <Gold.PLP.Fitness>
44.5484

> <Gold.PLP.PLP>
-34.3542

> <Gold.PLP.part.hbond>
-2.8380

> <Gold.PLP.part.metal>
0.0000

> <Gold.PLP.part.buried>
-1.2138

> <Gold.PLP.part.nonpolar>
-30.4524

> <Gold.PLP.part.repulsive>
1.4417

> <Gold.PLP.ligand.clash>
0.0000

> <Gold.PLP.ligand.torsion>
0.6032

> <Gold.PLP.Chemscore.Hbond>
3.7313

> <Gold.PLP.Chemscore.CHOScore>
0.0000

> <Gold.PLP.Chemscore.Metal>
0.0000

> <Gold.Chemscore.Hbonds>
donor molecule, donor type, donor heavy atom, donor atom, acceptor molecule, acceptor atom, score
      L1  H    11    35       P1  7948  0.73
      L1  H    16    47       P1 10957  2.00
      P1  H  7997  8009       L1     2  0.89

> <Gold.PLP.Chemscore.Internal.Correction>
0.2069

> <Gold.Rescore>
     Score         DG    S(hbond)    S(metal)    S(lipo)     H(rot)  DE(clash)    DE(int)     intcor
     16.40     -17.49       2.29        0.00      92.06       2.50       0.67       0.42       ----

> <Gold.Chemscore.Fitness>
16.4017

> <Gold.Chemscore.DG>
-17.4932

> <Gold.Chemscore.ZeroCoef>
-5.4800

> <Gold.Chemscore.Hbond>
2.2909

> <Gold.Chemscore.Metal>
0.0000

> <Gold.Chemscore.Lipo>
92.0621

> <Gold.Chemscore.Internal_Hbond>
0.0000

> <Gold.Chemscore.DEClash>
0.6736

> <Gold.Chemscore.DEInternal>
0.4179

> <Gold.Chemscore.Rot>
2.5038

> <Gold.Chemscore.Internal.Correction>
   9.000000E+99

> <Gold.Chemscore.Hbonds>
donor molecule, donor type, donor heavy atom, donor atom, acceptor molecule, acceptor atom, score
      L1  H    11    35       P1  7948  0.73
      L1  H    16    47       P1 10957  1.00
      P1  H  7997  8009       L1     2  0.21

> <Gold.Chemscore.Hbond.Weighted>
-7.6517

> <Gold.Chemscore.Metal.Weighted>
-0.0000

> <Gold.Chemscore.Lipo.Weighted>
-10.7713

> <Gold.Chemscore.Internal_Hbond.Weighted>
0.0000

> <Gold.Chemscore.DEClash.Weighted>
0.6736

> <Gold.Chemscore.DEInternal.Weighted>
0.4179

> <Gold.Chemscore.Rot.Weighted>
6.4098

> <Gold.Chemscore.Internal.Correction.Weighted>
   9.000000E+99

> <Gold.Protein.RotatedTorsions>
[ 6907 6896 6895 6894 ] final   57.35 input  -60.11 | X-H torsion
[ 7974 7965 7964 7962 ] final   75.39 input  175.53 | X-H torsion
[ 8008 7997 7996 7995 ] final  159.06 input   59.86 | X-H torsion
[ 10167 10162 10161 10158 ] final  146.43 input  -65.29 | X-H torsion
[ 10718 10713 10712 10709 ] final -120.23 input   66.30 | X-H torsion
[ 10763 10752 10751 10750 ] final -172.92 input  -60.55 | X-H torsion
[ 11005 11000 10999 10996 ] final  131.88 input  -57.11 | X-H torsion

> <Gold.Protein.ActiveResidues>
 VAL166  LYS551  ARG553  GLY616  TRP617  ASP618  TYR619  PRO620  LYS621  CYS622 
 ASP623  PHE694  ASN695  SER759  ASP760  ASP761  ALA762  ILE779  LEU786  VAL792 
 PHE793  MET794  SER795  GLU796  ALA797  LYS798  CYS799  TRP800  GLU811  SER814 

> <Gold.Protein.RotatedAtoms>
  152.3723  134.6715  160.0171 H   0  0  0  0  0  0  0  0  0  0  0  0  # atno 6907 bound_to 6896
  151.7004  133.3305  159.3273 H   0  0  0  0  0  0  0  0  0  0  0  0  # atno 6908 bound_to 6896
  150.7683  134.6556  159.6356 H   0  0  0  0  0  0  0  0  0  0  0  0  # atno 6909 bound_to 6896
  145.7162  139.2632  143.1622 H   0  0  0  0  0  0  0  0  0  0  0  0  # atno 7974 bound_to 7965
  156.2263  140.1841  156.7355 H   0  0  0  0  0  0  0  0  0  0  0  0  # atno 8008 bound_to 7997
  154.5946  140.0645  156.9314 H   0  0  0  0  0  0  0  0  0  0  0  0  # atno 8009 bound_to 7997
  155.2277  140.3312  155.4310 H   0  0  0  0  0  0  0  0  0  0  0  0  # atno 8010 bound_to 7997
  139.4907  144.5830  151.6834 H   0  0  0  0  0  0  0  0  0  0  0  0  # atno 10167 bound_to 10162
  156.1242  130.6346  150.9515 H   0  0  0  0  0  0  0  0  0  0  0  0  # atno 10718 bound_to 10713
  154.6138  135.2867  155.0403 H   0  0  0  0  0  0  0  0  0  0  0  0  # atno 10763 bound_to 10752
  154.1623  135.6486  153.4992 H   0  0  0  0  0  0  0  0  0  0  0  0  # atno 10764 bound_to 10752
  153.0206  135.5381  154.6901 H   0  0  0  0  0  0  0  0  0  0  0  0  # atno 10765 bound_to 10752
  139.9756  134.9564  156.9501 H   0  0  0  0  0  0  0  0  0  0  0  0  # atno 11005 bound_to 11000
  146.0667  140.7913  142.9708 LP  0  0  0  0  0  0  0  0  0  0  0  0  # atno 17320 bound_to 7965
  144.6928  140.3279  143.7221 LP  0  0  0  0  0  0  0  0  0  0  0  0  # atno 17321 bound_to 7965
  140.5440  144.0533  150.6099 LP  0  0  0  0  0  0  0  0  0  0  0  0  # atno 17342 bound_to 10162
  140.3565  143.2932  152.0430 LP  0  0  0  0  0  0  0  0  0  0  0  0  # atno 17343 bound_to 10162
  157.6424  131.0908  150.8223 LP  0  0  0  0  0  0  0  0  0  0  0  0  # atno 17370 bound_to 10713
  156.8315  130.5017  149.5331 LP  0  0  0  0  0  0  0  0  0  0  0  0  # atno 17371 bound_to 10713
  140.5201  134.0916  155.7290 LP  0  0  0  0  0  0  0  0  0  0  0  0  # atno 17394 bound_to 11000
  141.1433  133.9099  157.2274 LP  0  0  0  0  0  0  0  0  0  0  0  0  # atno 17395 bound_to 11000

$$$$
