AV-unprocessed.smi:215|AV-procd|sdf|1654|dock8
  -GOLD-   2262020 43D 1   1.00000     0.00000
 Structure written by MMmdl.
 59 62  0  0  0  0  0  0  0  0  2 V2000
  141.7474  140.8885  155.3678 C   0  0  0  0  0  0  0  0  0  0  0  0
  142.7006  139.9829  156.1736 C   0  0  2  0  0  0  0  0  0  0  0  0
  143.5868  140.6958  157.2131 C   0  0  2  0  0  0  0  0  0  0  0  0
  143.9752  142.0996  156.8632 N   0  3  1  0  0  0  0  0  0  0  0  0
  144.4325  142.8538  158.0566 C   0  0  0  0  0  0  0  0  0  0  0  0
  144.8961  142.2413  155.6985 C   0  0  0  0  0  0  0  0  0  0  0  0
  144.8394  143.6334  155.0440 C   0  0  0  0  0  0  0  0  0  0  0  0
  143.5917  143.8301  154.4134 O   0  0  0  0  0  0  0  0  0  0  0  0
  144.7668  139.7281  157.3941 C   0  0  0  0  0  0  0  0  0  0  0  0
  144.8496  138.9320  156.0851 C   0  0  0  0  0  0  0  0  0  0  0  0
  143.6129  139.1866  155.3543 N   0  0  0  0  0  0  0  0  0  0  0  0
  143.1670  138.1838  154.5529 C   0  0  0  0  0  0  0  0  0  0  0  0
  141.8784  137.7614  154.6466 N   0  0  0  0  0  0  0  0  0  0  0  0
  141.4316  136.7706  153.8699 C   0  0  0  0  0  0  0  0  0  0  0  0
  142.0919  136.0768  152.9419 N   0  0  0  0  0  0  0  0  0  0  0  0
  143.3843  136.4984  152.8358 C   0  0  0  0  0  0  0  0  0  0  0  0
  144.0002  137.5294  153.6009 C   0  0  0  0  0  0  0  0  0  0  0  0
  145.3297  137.6686  153.2194 N   0  0  0  0  0  0  0  0  0  0  0  0
  145.4917  136.7667  152.2896 C   0  0  0  0  0  0  0  0  0  0  0  0
  144.3657  136.0400  151.9746 N   0  0  0  0  0  0  0  0  0  0  0  0
  144.2658  134.9750  151.0202 C   0  0  0  0  0  0  0  0  0  0  0  0
  143.9173  133.5481  151.4510 C   0  0  0  0  0  0  0  0  0  0  0  0
  144.8078  132.9946  150.3164 C   0  0  0  0  0  0  0  0  0  0  0  0
  145.6707  131.7797  150.6952 C   0  0  0  0  0  0  0  0  0  0  0  0
  146.6410  131.5104  149.7038 O   0  0  0  0  0  0  0  0  0  0  0  0
  144.0771  132.7037  148.9898 C   0  0  0  0  0  0  0  0  0  0  0  0
  142.8125  132.1136  149.2144 O   0  0  0  0  0  0  0  0  0  0  0  0
  145.5191  134.3645  150.3891 C   0  0  0  0  0  0  0  0  0  0  0  0
  142.0845  139.2764  156.7324 H   0  0  0  0  0  0  0  0  0  0  0  0
  143.0145  140.7457  158.1408 H   0  0  0  0  0  0  0  0  0  0  0  0
  141.1479  141.5105  156.0329 H   0  0  0  0  0  0  0  0  0  0  0  0
  141.0541  140.3062  154.7621 H   0  0  0  0  0  0  0  0  0  0  0  0
  142.2890  141.5471  154.6902 H   0  0  0  0  0  0  0  0  0  0  0  0
  145.3889  142.4754  158.4183 H   0  0  0  0  0  0  0  0  0  0  0  0
  143.7089  142.7762  158.8687 H   0  0  0  0  0  0  0  0  0  0  0  0
  144.5455  143.9156  157.8443 H   0  0  0  0  0  0  0  0  0  0  0  0
  145.9182  142.0248  156.0108 H   0  0  0  0  0  0  0  0  0  0  0  0
  144.6505  141.5119  154.9287 H   0  0  0  0  0  0  0  0  0  0  0  0
  145.0261  144.4368  155.7553 H   0  0  0  0  0  0  0  0  0  0  0  0
  145.6172  143.7084  154.2835 H   0  0  0  0  0  0  0  0  0  0  0  0
  143.6480  143.5089  153.5257 H   0  0  0  0  0  0  0  0  0  0  0  0
  145.7070  140.2137  157.6561 H   0  0  0  0  0  0  0  0  0  0  0  0
  144.5327  139.0375  158.2050 H   0  0  0  0  0  0  0  0  0  0  0  0
  145.6913  139.2791  155.4853 H   0  0  0  0  0  0  0  0  0  0  0  0
  144.9964  137.8688  156.2819 H   0  0  0  0  0  0  0  0  0  0  0  0
  140.3965  136.4959  154.0106 H   0  0  0  0  0  0  0  0  0  0  0  0
  146.4423  136.6139  151.7991 H   0  0  0  0  0  0  0  0  0  0  0  0
  143.5776  135.3251  150.2493 H   0  0  0  0  0  0  0  0  0  0  0  0
  144.2995  133.3050  152.4445 H   0  0  0  0  0  0  0  0  0  0  0  0
  142.8595  133.2967  151.3679 H   0  0  0  0  0  0  0  0  0  0  0  0
  146.1715  131.9243  151.6527 H   0  0  0  0  0  0  0  0  0  0  0  0
  145.0544  130.8873  150.8060 H   0  0  0  0  0  0  0  0  0  0  0  0
  147.2867  130.9240  150.0679 H   0  0  0  0  0  0  0  0  0  0  0  0
  143.9407  133.6113  148.4015 H   0  0  0  0  0  0  0  0  0  0  0  0
  144.6536  132.0231  148.3631 H   0  0  0  0  0  0  0  0  0  0  0  0
  142.1616  132.7985  149.2355 H   0  0  0  0  0  0  0  0  0  0  0  0
  145.7926  134.7971  149.4264 H   0  0  0  0  0  0  0  0  0  0  0  0
  146.3710  134.3685  151.0717 H   0  0  0  0  0  0  0  0  0  0  0  0
  143.1131  142.5427  156.5781 H   0  0  0  0  0  0  0  0  0  0  0  0
  1  2  1  0  0  0  0
  1 31  1  0  0  0  0
  1 32  1  0  0  0  0
  1 33  1  0  0  0  0
  2 29  1  0  0  0  0
  2 11  1  0  0  0  0
  2  3  1  0  0  0  0
  3 30  1  0  0  0  0
  3  4  1  0  0  0  0
  3  9  1  0  0  0  0
  4  5  1  0  0  0  0
  4  6  1  0  0  0  0
  4 59  1  0  0  0  0
  5 34  1  0  0  0  0
  5 35  1  0  0  0  0
  5 36  1  0  0  0  0
  6  7  1  0  0  0  0
  6 37  1  0  0  0  0
  6 38  1  0  0  0  0
  7  8  1  0  0  0  0
  7 39  1  0  0  0  0
  7 40  1  0  0  0  0
  8 41  1  0  0  0  0
  9 10  1  0  0  0  0
  9 42  1  0  0  0  0
  9 43  1  0  0  0  0
 10 11  1  0  0  0  0
 10 44  1  0  0  0  0
 10 45  1  0  0  0  0
 11 12  1  0  0  0  0
 12 17  1  0  0  0  0
 12 13  2  0  0  0  0
 13 14  1  0  0  0  0
 14 15  2  0  0  0  0
 14 46  1  0  0  0  0
 15 16  1  0  0  0  0
 16 20  1  0  0  0  0
 16 17  2  0  0  0  0
 17 18  1  0  0  0  0
 18 19  2  0  0  0  0
 19 20  1  0  0  0  0
 19 47  1  0  0  0  0
 20 21  1  0  0  0  0
 21 28  1  0  0  0  0
 21 22  1  0  0  0  0
 21 48  1  0  0  0  0
 22 23  1  0  0  0  0
 22 49  1  0  0  0  0
 22 50  1  0  0  0  0
 23 24  1  0  0  0  0
 23 26  1  0  0  0  0
 23 28  1  0  0  0  0
 24 25  1  0  0  0  0
 24 51  1  0  0  0  0
 24 52  1  0  0  0  0
 25 53  1  0  0  0  0
 26 27  1  0  0  0  0
 26 54  1  0  0  0  0
 26 55  1  0  0  0  0
 27 56  1  0  0  0  0
 28 57  1  0  0  0  0
 28 58  1  0  0  0  0
M  CHG  1   4   1
M  END
> <s_m_source_file>
AV-unprocessed.smi

> <i_m_source_file_index>
215

> <i_lp_mmshare_version>
43012

> <i_f3d_flags>
0

> <s_epik_input>
W09IXVtDSDJdW0NIMl1OKFtDSDNdKVtDQEBIXShbQ0BIXTFbQ0gzXSlbQ0gyXVtDSDJdTjFjKG5bY0hdbjIpYyhjMjMpbltjSF1uM1tDSF0oW0NIMl00KVtDSDJdQzQoW0NIMl1bT0hdKVtDSDJdW09IXQ==

> <s_epik_cmdline>
J2VwaWtfcHl0aG9uJywgJy1waCcsICc3LjAnLCAnLXRuJywgJzgnLCAnLW1hJywgJzIwMCcsICctbWV0YWxfYmluZGluZycsICctaW1hZScsICc8aW5maWxlLm1hZT4nLCAnLW9tYWUnLCAnPG91dGZpbGUubWFlPic=

> <r_lp_tautomer_probability>
1

> <r_epik_Ionization_Penalty>
0.0036237

> <r_epik_Ionization_Penalty_Charging>
0.0032725

> <r_epik_Ionization_Penalty_Neutral>
0.000351196

> <r_epik_State_Penalty>
-0

> <r_epik_Charging_Adjusted_Penalty>
0.0032725

> <i_epik_Tot_Q>
1

> <i_epik_Tot_abs_Q>
1

> <r_epik_Metal_State_Penalty>
-0

> <b_epik_Metal_Only>
0

> <s_lp_Force_Field>
OPLS_2005

> <r_lp_Energy>
70.2974

> <b_lp_Chiralities_Consistent>
1

> <s_lp_Variant>
AV-unprocessed.smi:215-5

> <Gold.Version>
5.8.1

> <Gold.Id.Protein>
6NUR|6NUR_protein|mol2

> <Gold.PLP.Fitness>
48.1649

> <Gold.PLP.PLP>
-35.0968

> <Gold.PLP.part.hbond>
-4.8023

> <Gold.PLP.part.metal>
0.0000

> <Gold.PLP.part.buried>
-4.9492

> <Gold.PLP.part.nonpolar>
-24.8970

> <Gold.PLP.part.repulsive>
0.5179

> <Gold.PLP.ligand.clash>
0.0000

> <Gold.PLP.ligand.torsion>
1.3448

> <Gold.PLP.Chemscore.Hbond>
3.9260

> <Gold.PLP.Chemscore.CHOScore>
1.0000

> <Gold.PLP.Chemscore.Metal>
0.0000

> <Gold.Chemscore.Hbonds>
donor molecule, donor type, donor heavy atom, donor atom, acceptor molecule, acceptor atom, score
      L1  H     8    41       P1 10174  0.88
      L1  H    25    53       P1 10747  0.77
      L1  H    27    56       P1 10186  1.00
      P1  H 10785 10796       L1    27  0.93
      L1  C    19    47       P1  7948  1.00

> <Gold.PLP.Chemscore.Internal.Correction>
0.9797

> <Gold.Rescore>
     Score         DG    S(hbond)    S(metal)    S(lipo)     H(rot)  DE(clash)    DE(int)     intcor
      8.59     -11.49       3.36        0.00      60.54       4.81       1.62       1.27       ----

> <Gold.Chemscore.Fitness>
8.5897

> <Gold.Chemscore.DG>
-11.4852

> <Gold.Chemscore.ZeroCoef>
-5.4800

> <Gold.Chemscore.Hbond>
3.3639

> <Gold.Chemscore.Metal>
0.0000

> <Gold.Chemscore.Lipo>
60.5373

> <Gold.Chemscore.Internal_Hbond>
0.0000

> <Gold.Chemscore.DEClash>
1.6247

> <Gold.Chemscore.DEInternal>
1.2708

> <Gold.Chemscore.Rot>
4.8098

> <Gold.Chemscore.Internal.Correction>
   9.000000E+99

> <Gold.Chemscore.Hbonds>
donor molecule, donor type, donor heavy atom, donor atom, acceptor molecule, acceptor atom, score
      L1  H     8    41       P1 10174  0.63
      L1  H    25    53       P1 10747  0.78
      L1  H    27    56       P1 10186  0.96
      P1  H 10785 10796       L1    27  0.31

> <Gold.Chemscore.Hbond.Weighted>
-11.2354

> <Gold.Chemscore.Metal.Weighted>
-0.0000

> <Gold.Chemscore.Lipo.Weighted>
-7.0829

> <Gold.Chemscore.Internal_Hbond.Weighted>
0.0000

> <Gold.Chemscore.DEClash.Weighted>
1.6247

> <Gold.Chemscore.DEInternal.Weighted>
1.2708

> <Gold.Chemscore.Rot.Weighted>
12.3130

> <Gold.Chemscore.Internal.Correction.Weighted>
   9.000000E+99

> <Gold.Protein.RotatedTorsions>
[ 6907 6896 6895 6894 ] final  -25.80 input  -60.11 | X-H torsion
[ 7974 7965 7964 7962 ] final   39.06 input  175.53 | X-H torsion
[ 8008 7997 7996 7995 ] final   62.13 input   59.86 | X-H torsion
[ 10167 10162 10161 10158 ] final  138.72 input  -65.29 | X-H torsion
[ 10718 10713 10712 10709 ] final   39.84 input   66.30 | X-H torsion
[ 10763 10752 10751 10750 ] final   79.24 input  -60.55 | X-H torsion
[ 11005 11000 10999 10996 ] final -121.08 input  -57.11 | X-H torsion

> <Gold.Protein.ActiveResidues>
 VAL166  LYS551  ARG553  GLY616  TRP617  ASP618  TYR619  PRO620  LYS621  CYS622 
 ASP623  PHE694  ASN695  SER759  ASP760  ASP761  ALA762  ILE779  LEU786  VAL792 
 PHE793  MET794  SER795  GLU796  ALA797  LYS798  CYS799  TRP800  GLU811  SER814 

> <Gold.Protein.RotatedAtoms>
  151.1700  135.0313  159.8747 H   0  0  0  0  0  0  0  0  0  0  0  0  # atno 6907 bound_to 6896
  152.5449  134.1182  159.8397 H   0  0  0  0  0  0  0  0  0  0  0  0  # atno 6908 bound_to 6896
  151.1286  133.5006  159.2632 H   0  0  0  0  0  0  0  0  0  0  0  0  # atno 6909 bound_to 6896
  146.1013  139.5697  142.9412 H   0  0  0  0  0  0  0  0  0  0  0  0  # atno 7974 bound_to 7965
  155.6094  140.3495  155.4618 H   0  0  0  0  0  0  0  0  0  0  0  0  # atno 8008 bound_to 7997
  156.0166  140.1244  157.0424 H   0  0  0  0  0  0  0  0  0  0  0  0  # atno 8009 bound_to 7997
  154.4300  140.1071  156.5891 H   0  0  0  0  0  0  0  0  0  0  0  0  # atno 8010 bound_to 7997
  139.5102  144.6337  151.5752 H   0  0  0  0  0  0  0  0  0  0  0  0  # atno 10167 bound_to 10162
  157.3753  130.7723  149.7150 H   0  0  0  0  0  0  0  0  0  0  0  0  # atno 10718 bound_to 10713
  153.0937  135.4847  154.8738 H   0  0  0  0  0  0  0  0  0  0  0  0  # atno 10763 bound_to 10752
  154.7299  135.3058  154.8910 H   0  0  0  0  0  0  0  0  0  0  0  0  # atno 10764 bound_to 10752
  153.9549  135.6819  153.4797 H   0  0  0  0  0  0  0  0  0  0  0  0  # atno 10765 bound_to 10752
  141.0096  134.0283  157.3431 H   0  0  0  0  0  0  0  0  0  0  0  0  # atno 11005 bound_to 11000
  145.5848  141.0378  143.2102 LP  0  0  0  0  0  0  0  0  0  0  0  0  # atno 17320 bound_to 7965
  144.7435  139.7383  143.7301 LP  0  0  0  0  0  0  0  0  0  0  0  0  # atno 17321 bound_to 7965
  140.6079  143.9491  150.6431 LP  0  0  0  0  0  0  0  0  0  0  0  0  # atno 17342 bound_to 10162
  140.2724  143.3447  152.1226 LP  0  0  0  0  0  0  0  0  0  0  0  0  # atno 17343 bound_to 10162
  155.9764  130.4076  150.3783 LP  0  0  0  0  0  0  0  0  0  0  0  0  # atno 17370 bound_to 10713
  157.1879  131.0408  151.2715 LP  0  0  0  0  0  0  0  0  0  0  0  0  # atno 17371 bound_to 10713
  139.9083  135.0184  156.7581 LP  0  0  0  0  0  0  0  0  0  0  0  0  # atno 17394 bound_to 11000
  140.6755  133.9521  155.7880 LP  0  0  0  0  0  0  0  0  0  0  0  0  # atno 17395 bound_to 11000

$$$$
