AV-unprocessed.smi:1047|AV-procd|sdf|4599|dock1
  -GOLD-   22720 3 83D 1   1.00000     0.00000
 Structure written by MMmdl.
 57 59  0  0  0  0  0  0  0  0  3 V2000
  145.4007  130.9188  151.0008 C   0  0  0  0  0  0  0  0  0  0  0  0
  146.4506  130.3632  151.9734 C   0  0  0  0  0  0  0  0  0  0  0  0
  147.4212  131.3941  152.4194 N   0  3  2  0  0  0  0  0  0  0  0  0
  148.3680  130.9129  153.4553 C   0  0  0  0  0  0  0  0  0  0  0  0
  149.3488  132.0308  153.8458 C   0  0  0  0  0  0  0  0  0  0  0  0
  148.6230  133.1722  154.2845 O   0  0  0  0  0  0  0  0  0  0  0  0
  147.7884  133.7072  153.2621 C   0  0  2  0  0  0  0  0  0  0  0  0
  147.1125  134.9739  153.8077 C   0  0  0  0  0  0  0  0  0  0  0  0
  148.0892  136.0251  154.0741 N   0  0  0  0  0  0  0  0  0  0  0  0
  147.4938  137.2256  154.6542 C   0  0  0  0  0  0  0  0  0  0  0  0
  148.0374  138.5058  153.9979 C   0  0  2  0  0  0  0  0  0  0  0  0
  147.9442  138.3397  152.5978 O   0  0  0  0  0  0  0  0  0  0  0  0
  149.5026  138.7964  154.3858 C   0  0  0  0  0  0  0  0  0  0  0  0
  149.7032  140.1606  154.8976 N   0  0  0  0  0  0  0  0  0  0  0  0
  149.2300  141.3441  154.4210 C   0  0  0  0  0  0  0  0  0  0  0  0
  149.6794  142.3292  155.2470 N   0  3  0  0  0  0  0  0  0  0  0  0
  150.4509  141.7674  156.2663 C   0  0  0  0  0  0  0  0  0  0  0  0
  151.1139  142.3576  157.3359 C   0  0  0  0  0  0  0  0  0  0  0  0
  151.8252  141.5012  158.2062 C   0  0  0  0  0  0  0  0  0  0  0  0
  152.5598  142.1140  159.3866 C   0  0  0  0  0  0  0  0  0  0  0  0
  151.8562  140.0998  157.9862 C   0  0  0  0  0  0  0  0  0  0  0  0
  152.6285  139.1885  158.9253 C   0  0  0  0  0  0  0  0  0  0  0  0
  151.1737  139.5187  156.8935 C   0  0  0  0  0  0  0  0  0  0  0  0
  150.4741  140.3761  156.0470 C   0  0  0  0  0  0  0  0  0  0  0  0
  146.7506  132.6365  152.8717 C   0  0  0  0  0  0  0  0  0  0  0  0
  144.6505  130.1603  150.7752 H   0  0  0  0  0  0  0  0  0  0  0  0
  145.8429  131.2244  150.0529 H   0  0  0  0  0  0  0  0  0  0  0  0
  144.8826  131.7787  151.4261 H   0  0  0  0  0  0  0  0  0  0  0  0
  145.9239  129.9722  152.8450 H   0  0  0  0  0  0  0  0  0  0  0  0
  146.9790  129.5198  151.5270 H   0  0  0  0  0  0  0  0  0  0  0  0
  147.8134  130.5809  154.3345 H   0  0  0  0  0  0  0  0  0  0  0  0
  148.9319  130.0554  153.0898 H   0  0  0  0  0  0  0  0  0  0  0  0
  149.9990  131.6942  154.6534 H   0  0  0  0  0  0  0  0  0  0  0  0
  149.9945  132.2944  153.0065 H   0  0  0  0  0  0  0  0  0  0  0  0
  148.3888  133.9636  152.3866 H   0  0  0  0  0  0  0  0  0  0  0  0
  146.3889  135.3378  153.0769 H   0  0  0  0  0  0  0  0  0  0  0  0
  146.5487  134.7355  154.7105 H   0  0  0  0  0  0  0  0  0  0  0  0
  148.8098  135.6698  154.6949 H   0  0  0  0  0  0  0  0  0  0  0  0
  146.4076  137.1931  154.5575 H   0  0  0  0  0  0  0  0  0  0  0  0
  147.7088  137.2518  155.7237 H   0  0  0  0  0  0  0  0  0  0  0  0
  147.4084  139.3546  154.2703 H   0  0  0  0  0  0  0  0  0  0  0  0
  148.1374  137.4384  152.3899 H   0  0  0  0  0  0  0  0  0  0  0  0
  149.8225  138.1124  155.1729 H   0  0  0  0  0  0  0  0  0  0  0  0
  150.1747  138.6229  153.5455 H   0  0  0  0  0  0  0  0  0  0  0  0
  148.6077  141.4777  153.5479 H   0  0  0  0  0  0  0  0  0  0  0  0
  151.0874  143.4257  157.4961 H   0  0  0  0  0  0  0  0  0  0  0  0
  152.1726  141.7182  160.3257 H   0  0  0  0  0  0  0  0  0  0  0  0
  152.4444  143.1980  159.4095 H   0  0  0  0  0  0  0  0  0  0  0  0
  153.6262  141.8943  159.3310 H   0  0  0  0  0  0  0  0  0  0  0  0
  152.5522  138.1440  158.6213 H   0  0  0  0  0  0  0  0  0  0  0  0
  152.2404  139.2684  159.9408 H   0  0  0  0  0  0  0  0  0  0  0  0
  153.6852  139.4554  158.9355 H   0  0  0  0  0  0  0  0  0  0  0  0
  151.2028  138.4522  156.7262 H   0  0  0  0  0  0  0  0  0  0  0  0
  146.1135  133.0191  152.0731 H   0  0  0  0  0  0  0  0  0  0  0  0
  146.1013  132.4120  153.7198 H   0  0  0  0  0  0  0  0  0  0  0  0
  147.9699  131.6465  151.6098 H   0  0  0  0  0  0  0  0  0  0  0  0
  149.4716  143.3119  155.1227 H   0  0  0  0  0  0  0  0  0  0  0  0
  1  2  1  0  0  0  0
  1 26  1  0  0  0  0
  1 27  1  0  0  0  0
  1 28  1  0  0  0  0
  2  3  1  0  0  0  0
  2 29  1  0  0  0  0
  2 30  1  0  0  0  0
  3 25  1  0  0  0  0
  3  4  1  0  0  0  0
  3 56  1  0  0  0  0
  4  5  1  0  0  0  0
  4 31  1  0  0  0  0
  4 32  1  0  0  0  0
  5  6  1  0  0  0  0
  5 33  1  0  0  0  0
  5 34  1  0  0  0  0
  6  7  1  0  0  0  0
  7  8  1  0  0  0  0
  7 25  1  0  0  0  0
  7 35  1  0  0  0  0
  8  9  1  0  0  0  0
  8 36  1  0  0  0  0
  8 37  1  0  0  0  0
  9 10  1  0  0  0  0
  9 38  1  0  0  0  0
 10 11  1  0  0  0  0
 10 39  1  0  0  0  0
 10 40  1  0  0  0  0
 11 12  1  0  0  0  0
 11 13  1  0  0  0  0
 11 41  1  0  0  0  0
 12 42  1  0  0  0  0
 13 14  1  0  0  0  0
 13 43  1  0  0  0  0
 13 44  1  0  0  0  0
 14 24  1  0  0  0  0
 14 15  1  0  0  0  0
 15 16  2  0  0  0  0
 15 45  1  0  0  0  0
 16 17  1  0  0  0  0
 16 57  1  0  0  0  0
 17 24  2  0  0  0  0
 17 18  1  0  0  0  0
 18 19  2  0  0  0  0
 18 46  1  0  0  0  0
 19 20  1  0  0  0  0
 19 21  1  0  0  0  0
 20 47  1  0  0  0  0
 20 48  1  0  0  0  0
 20 49  1  0  0  0  0
 21 22  1  0  0  0  0
 21 23  2  0  0  0  0
 22 50  1  0  0  0  0
 22 51  1  0  0  0  0
 22 52  1  0  0  0  0
 23 24  1  0  0  0  0
 23 53  1  0  0  0  0
 25 54  1  0  0  0  0
 25 55  1  0  0  0  0
M  CHG  1   3   1
M  CHG  1  16   1
M  END
> <s_m_source_file>
AV-unprocessed.smi

> <i_m_source_file_index>
1047

> <i_lp_mmshare_version>
43012

> <i_f3d_flags>
0

> <s_epik_input>
W0NIM11bQ0gyXU4xW0NIMl1bQ0gyXU9bQ0BIXShbQ0gyXTEpW0NIMl1bTkhdW0NIMl1bQ0BIXShbT0hdKVtDSDJdbihbY0hdbjIpYyhjMjMpW2NIXWMoW0NIM10pYyhbY0hdMylbQ0gzXQ==

> <s_epik_cmdline>
J2VwaWtfcHl0aG9uJywgJy1waCcsICc3LjAnLCAnLXRuJywgJzgnLCAnLW1hJywgJzIwMCcsICctbWV0YWxfYmluZGluZycsICctaW1hZScsICc8aW5maWxlLm1hZT4nLCAnLW9tYWUnLCAnPG91dGZpbGUubWFlPic=

> <r_epik_Ionization_Penalty>
2.03028

> <r_epik_Ionization_Penalty_Charging>
1.21256

> <r_epik_Ionization_Penalty_Neutral>
0.817715

> <r_epik_State_Penalty>
2.54959

> <r_epik_Charging_Adjusted_Penalty>
3.76215

> <i_epik_Tot_Q>
2

> <i_epik_Tot_abs_Q>
2

> <r_epik_Metal_State_Penalty>
6.52811

> <b_epik_Metal_Only>
0

> <s_lp_Force_Field>
OPLS_2005

> <r_lp_Energy>
31.8247

> <b_lp_Chiralities_Consistent>
1

> <s_lp_Variant>
AV-unprocessed.smi:1047-40

> <Gold.Version>
5.8.1

> <Gold.Id.Protein>
6NUR|6NUR_protein|mol2

> <Gold.PLP.Fitness>
53.7639

> <Gold.PLP.PLP>
-44.4909

> <Gold.PLP.part.hbond>
-4.5780

> <Gold.PLP.part.metal>
0.0000

> <Gold.PLP.part.buried>
-3.8966

> <Gold.PLP.part.nonpolar>
-36.2006

> <Gold.PLP.part.repulsive>
0.2888

> <Gold.PLP.ligand.clash>
0.0000

> <Gold.PLP.ligand.torsion>
1.3360

> <Gold.PLP.Chemscore.Hbond>
3.9440

> <Gold.PLP.Chemscore.CHOScore>
0.0000

> <Gold.PLP.Chemscore.Metal>
0.0000

> <Gold.Chemscore.Hbonds>
donor molecule, donor type, donor heavy atom, donor atom, acceptor molecule, acceptor atom, score
      L1  H     3    56       P1 10747  0.80
      L1  H    12    42       P1  7948  1.00
      L1  H    16    57       P1  8028  2.00

> <Gold.PLP.Chemscore.Internal.Correction>
0.1130

> <Gold.Rescore>
     Score         DG    S(hbond)    S(metal)    S(lipo)     H(rot)  DE(clash)    DE(int)     intcor
     18.96     -20.24       2.77        0.00     106.21       2.71       0.02       1.27       ----

> <Gold.Chemscore.Fitness>
18.9554

> <Gold.Chemscore.DG>
-20.2395

> <Gold.Chemscore.ZeroCoef>
-5.4800

> <Gold.Chemscore.Hbond>
2.7747

> <Gold.Chemscore.Metal>
0.0000

> <Gold.Chemscore.Lipo>
106.2119

> <Gold.Chemscore.Internal_Hbond>
0.0000

> <Gold.Chemscore.DEClash>
0.0164

> <Gold.Chemscore.DEInternal>
1.2677

> <Gold.Chemscore.Rot>
2.7088

> <Gold.Chemscore.Internal.Correction>
   9.000000E+99

> <Gold.Chemscore.Hbonds>
donor molecule, donor type, donor heavy atom, donor atom, acceptor molecule, acceptor atom, score
      L1  H     3    56       P1 10747  0.80
      L1  H    12    42       P1  7948  0.92
      L1  H    16    57       P1  8028  0.96

> <Gold.Chemscore.Hbond.Weighted>
-9.2674

> <Gold.Chemscore.Metal.Weighted>
-0.0000

> <Gold.Chemscore.Lipo.Weighted>
-12.4268

> <Gold.Chemscore.Internal_Hbond.Weighted>
0.0000

> <Gold.Chemscore.DEClash.Weighted>
0.0164

> <Gold.Chemscore.DEInternal.Weighted>
1.2677

> <Gold.Chemscore.Rot.Weighted>
6.9346

> <Gold.Chemscore.Internal.Correction.Weighted>
   9.000000E+99

> <Gold.Protein.RotatedTorsions>
[ 6907 6896 6895 6894 ] final  146.37 input  -60.11 | X-H torsion
[ 7974 7965 7964 7962 ] final  -51.04 input  175.53 | X-H torsion
[ 8008 7997 7996 7995 ] final  174.89 input   59.86 | X-H torsion
[ 10167 10162 10161 10158 ] final   49.36 input  -65.29 | X-H torsion
[ 10718 10713 10712 10709 ] final   79.64 input   66.30 | X-H torsion
[ 10763 10752 10751 10750 ] final  131.32 input  -60.55 | X-H torsion
[ 11005 11000 10999 10996 ] final  117.68 input  -57.11 | X-H torsion

> <Gold.Protein.ActiveResidues>
 VAL166  LYS551  ARG553  GLY616  TRP617  ASP618  TYR619  PRO620  LYS621  CYS622 
 ASP623  PHE694  ASN695  SER759  ASP760  ASP761  ALA762  ILE779  LEU786  VAL792 
 PHE793  MET794  SER795  GLU796  ALA797  LYS798  CYS799  TRP800  GLU811  SER814 

> <Gold.Protein.RotatedAtoms>
  152.1688  133.4629  159.4898 H   0  0  0  0  0  0  0  0  0  0  0  0  # atno 6907 bound_to 6896
  150.6917  134.1979  159.4320 H   0  0  0  0  0  0  0  0  0  0  0  0  # atno 6908 bound_to 6896
  151.9885  134.9991  160.0611 H   0  0  0  0  0  0  0  0  0  0  0  0  # atno 6909 bound_to 6896
  145.9233  140.7815  142.9636 H   0  0  0  0  0  0  0  0  0  0  0  0  # atno 7974 bound_to 7965
  156.0928  140.1423  156.9570 H   0  0  0  0  0  0  0  0  0  0  0  0  # atno 8008 bound_to 7997
  154.4652  140.0929  156.7048 H   0  0  0  0  0  0  0  0  0  0  0  0  # atno 8009 bound_to 7997
  155.4891  140.3447  155.4354 H   0  0  0  0  0  0  0  0  0  0  0  0  # atno 8010 bound_to 7997
  140.2837  144.3127  150.6258 H   0  0  0  0  0  0  0  0  0  0  0  0  # atno 10167 bound_to 10162
  157.6783  130.9923  150.1962 H   0  0  0  0  0  0  0  0  0  0  0  0  # atno 10718 bound_to 10713
  153.7725  135.3180  155.3354 H   0  0  0  0  0  0  0  0  0  0  0  0  # atno 10763 bound_to 10752
  154.8191  135.4616  154.0730 H   0  0  0  0  0  0  0  0  0  0  0  0  # atno 10764 bound_to 10752
  153.1994  135.6920  153.8335 H   0  0  0  0  0  0  0  0  0  0  0  0  # atno 10765 bound_to 10752
  139.9083  134.9613  156.7388 H   0  0  0  0  0  0  0  0  0  0  0  0  # atno 11005 bound_to 11000
  144.6755  140.2010  143.7387 LP  0  0  0  0  0  0  0  0  0  0  0  0  # atno 17320 bound_to 7965
  145.8522  139.2181  143.1765 LP  0  0  0  0  0  0  0  0  0  0  0  0  # atno 17321 bound_to 7965
  140.5790  143.2174  151.7462 LP  0  0  0  0  0  0  0  0  0  0  0  0  # atno 17342 bound_to 10162
  139.4956  144.4107  152.0083 LP  0  0  0  0  0  0  0  0  0  0  0  0  # atno 17343 bound_to 10162
  156.2662  130.3716  149.8078 LP  0  0  0  0  0  0  0  0  0  0  0  0  # atno 17370 bound_to 10713
  156.5809  130.8465  151.3382 LP  0  0  0  0  0  0  0  0  0  0  0  0  # atno 17371 bound_to 10713
  140.6866  133.9427  155.7941 LP  0  0  0  0  0  0  0  0  0  0  0  0  # atno 17394 bound_to 11000
  141.0472  134.0537  157.3829 LP  0  0  0  0  0  0  0  0  0  0  0  0  # atno 17395 bound_to 11000

$$$$
