AV-unprocessed.smi:1048|AV-procd|sdf|4605|dock7
  -GOLD-   22720 3103D 1   1.00000     0.00000
 Structure written by MMmdl.
 46 47  0  0  0  0  0  0  0  0  2 V2000
  145.4555  133.0965  152.6031 C   0  0  0  0  0  0  0  0  0  0  0  0
  146.5635  133.4319  153.6115 C   0  0  2  0  0  0  0  0  0  0  0  0
  146.4542  134.8805  154.1169 C   0  0  0  0  0  0  0  0  0  0  0  0
  147.5897  135.2189  155.0973 C   0  0  0  0  0  0  0  0  0  0  0  0
  148.9182  134.9884  154.4749 N   0  3  1  0  0  0  0  0  0  0  0  0
  150.0379  135.4492  155.3363 C   0  0  0  0  0  0  0  0  0  0  0  0
  150.6620  136.7662  154.8316 C   0  0  1  0  0  0  0  0  0  0  0  0
  149.5977  137.6586  154.5621 O   0  0  0  0  0  0  0  0  0  0  0  0
  151.5845  137.4018  155.8912 C   0  0  0  0  0  0  0  0  0  0  0  0
  151.2016  138.7780  156.1893 N   0  0  0  0  0  0  0  0  0  0  0  0
  151.9131  139.6278  156.9431 C   0  0  0  0  0  0  0  0  0  0  0  0
  152.9865  139.3317  157.4672 O   0  0  0  0  0  0  0  0  0  0  0  0
  151.2897  140.8131  157.0571 N   0  0  0  0  0  0  0  0  0  0  0  0
  151.7060  141.9692  157.7715 C   0  0  0  0  0  0  0  0  0  0  0  0
  152.5336  141.7859  158.8984 C   0  0  0  0  0  0  0  0  0  0  0  0
  152.9490  142.9103  159.6363 C   0  0  0  0  0  0  0  0  0  0  0  0
  152.5107  144.1823  159.2211 C   0  0  0  0  0  0  0  0  0  0  0  0
  151.7069  144.3760  158.1546 N   0  0  0  0  0  0  0  0  0  0  0  0
  151.3136  143.2928  157.4502 C   0  0  0  0  0  0  0  0  0  0  0  0
  149.0672  133.5818  154.0163 C   0  0  0  0  0  0  0  0  0  0  0  0
  147.9629  133.2066  153.0138 C   0  0  0  0  0  0  0  0  0  0  0  0
  145.5145  133.7349  151.7210 H   0  0  0  0  0  0  0  0  0  0  0  0
  144.4677  133.2315  153.0448 H   0  0  0  0  0  0  0  0  0  0  0  0
  145.5285  132.0609  152.2692 H   0  0  0  0  0  0  0  0  0  0  0  0
  146.4473  132.7639  154.4664 H   0  0  0  0  0  0  0  0  0  0  0  0
  146.4863  135.5710  153.2728 H   0  0  0  0  0  0  0  0  0  0  0  0
  145.4910  135.0347  154.6046 H   0  0  0  0  0  0  0  0  0  0  0  0
  147.4992  136.2633  155.3982 H   0  0  0  0  0  0  0  0  0  0  0  0
  147.5009  134.6175  156.0035 H   0  0  0  0  0  0  0  0  0  0  0  0
  149.6843  135.6025  156.3574 H   0  0  0  0  0  0  0  0  0  0  0  0
  150.7907  134.6615  155.3948 H   0  0  0  0  0  0  0  0  0  0  0  0
  151.2258  136.5926  153.9152 H   0  0  0  0  0  0  0  0  0  0  0  0
  149.0775  137.3080  153.8546 H   0  0  0  0  0  0  0  0  0  0  0  0
  151.6376  136.7927  156.7956 H   0  0  0  0  0  0  0  0  0  0  0  0
  152.6022  137.4509  155.5024 H   0  0  0  0  0  0  0  0  0  0  0  0
  150.3302  139.1051  155.7982 H   0  0  0  0  0  0  0  0  0  0  0  0
  150.3793  140.8778  156.6262 H   0  0  0  0  0  0  0  0  0  0  0  0
  152.8518  140.7965  159.1937 H   0  0  0  0  0  0  0  0  0  0  0  0
  153.5876  142.8003  160.5002 H   0  0  0  0  0  0  0  0  0  0  0  0
  152.8085  145.0674  159.7636 H   0  0  0  0  0  0  0  0  0  0  0  0
  150.6525  143.5107  156.6266 H   0  0  0  0  0  0  0  0  0  0  0  0
  150.0374  133.4361  153.5430 H   0  0  0  0  0  0  0  0  0  0  0  0
  149.0343  132.9116  154.8770 H   0  0  0  0  0  0  0  0  0  0  0  0
  148.0774  132.1634  152.7170 H   0  0  0  0  0  0  0  0  0  0  0  0
  148.0792  133.8003  152.1059 H   0  0  0  0  0  0  0  0  0  0  0  0
  148.9437  135.5721  153.6503 H   0  0  0  0  0  0  0  0  0  0  0  0
  1  2  1  0  0  0  0
  1 22  1  0  0  0  0
  1 23  1  0  0  0  0
  1 24  1  0  0  0  0
  2 21  1  0  0  0  0
  2  3  1  0  0  0  0
  2 25  1  0  0  0  0
  3  4  1  0  0  0  0
  3 26  1  0  0  0  0
  3 27  1  0  0  0  0
  4  5  1  0  0  0  0
  4 28  1  0  0  0  0
  4 29  1  0  0  0  0
  5  6  1  0  0  0  0
  5 20  1  0  0  0  0
  5 46  1  0  0  0  0
  6  7  1  0  0  0  0
  6 30  1  0  0  0  0
  6 31  1  0  0  0  0
  7  8  1  0  0  0  0
  7  9  1  0  0  0  0
  7 32  1  0  0  0  0
  8 33  1  0  0  0  0
  9 10  1  0  0  0  0
  9 34  1  0  0  0  0
  9 35  1  0  0  0  0
 10 11  1  0  0  0  0
 10 36  1  0  0  0  0
 11 12  2  0  0  0  0
 11 13  1  0  0  0  0
 13 14  1  0  0  0  0
 13 37  1  0  0  0  0
 14 19  1  0  0  0  0
 14 15  2  0  0  0  0
 15 16  1  0  0  0  0
 15 38  1  0  0  0  0
 16 17  2  0  0  0  0
 16 39  1  0  0  0  0
 17 18  1  0  0  0  0
 17 40  1  0  0  0  0
 18 19  2  0  0  0  0
 19 41  1  0  0  0  0
 20 21  1  0  0  0  0
 20 42  1  0  0  0  0
 20 43  1  0  0  0  0
 21 44  1  0  0  0  0
 21 45  1  0  0  0  0
M  CHG  1   5   1
M  END
> <s_m_source_file>
AV-unprocessed.smi

> <i_m_source_file_index>
1048

> <i_lp_mmshare_version>
43012

> <i_f3d_flags>
0

> <s_epik_input>
W0NIM11bQ0hdMVtDSDJdW0NIMl1OKFtDSDJdW0NIMl0xKVtDSDJdW0NASF0oW09IXSlbQ0gyXVtOSF1DKD1PKVtOSF1jMltjSF1bY0hdW2NIXW5bY0hdMg==

> <s_epik_cmdline>
J2VwaWtfcHl0aG9uJywgJy1waCcsICc3LjAnLCAnLXRuJywgJzgnLCAnLW1hJywgJzIwMCcsICctbWV0YWxfYmluZGluZycsICctaW1hZScsICc8aW5maWxlLm1hZT4nLCAnLW9tYWUnLCAnPG91dGZpbGUubWFlPic=

> <r_lp_tautomer_probability>
1

> <r_epik_Ionization_Penalty>
0.00581049

> <r_epik_Ionization_Penalty_Charging>
0.00147689

> <r_epik_Ionization_Penalty_Neutral>
0.0043336

> <r_epik_State_Penalty>
-0

> <r_epik_Charging_Adjusted_Penalty>
0.00147689

> <i_epik_Tot_Q>
1

> <i_epik_Tot_abs_Q>
1

> <r_epik_Metal_State_Penalty>
-0

> <b_epik_Metal_Only>
0

> <s_lp_Force_Field>
OPLS_2005

> <r_lp_Energy>
22.9407

> <b_lp_Chiralities_Consistent>
1

> <s_lp_Variant>
AV-unprocessed.smi:1048-2

> <Gold.Version>
5.8.1

> <Gold.Id.Protein>
6NUR|6NUR_protein|mol2

> <Gold.PLP.Fitness>
47.5300

> <Gold.PLP.PLP>
-35.8526

> <Gold.PLP.part.hbond>
-3.0000

> <Gold.PLP.part.metal>
0.0000

> <Gold.PLP.part.buried>
-4.8732

> <Gold.PLP.part.nonpolar>
-28.6521

> <Gold.PLP.part.repulsive>
0.3025

> <Gold.PLP.ligand.clash>
0.0000

> <Gold.PLP.ligand.torsion>
1.6805

> <Gold.PLP.Chemscore.Hbond>
4.0000

> <Gold.PLP.Chemscore.CHOScore>
1.0000

> <Gold.PLP.Chemscore.Metal>
0.0000

> <Gold.Chemscore.Hbonds>
donor molecule, donor type, donor heavy atom, donor atom, acceptor molecule, acceptor atom, score
      L1  H     5    46       P1  7948  2.00
      L1  H     8    33       P1  7948  0.44
      P1  H  7997  8009       L1    12  1.00
      L1  C    19    41       P1  8028  1.00

> <Gold.PLP.Chemscore.Internal.Correction>
0.0383

> <Gold.Rescore>
     Score         DG    S(hbond)    S(metal)    S(lipo)     H(rot)  DE(clash)    DE(int)     intcor
     16.92     -20.15       2.85        0.00      94.02       2.29       0.06       3.18       ----

> <Gold.Chemscore.Fitness>
16.9154

> <Gold.Chemscore.DG>
-20.1550

> <Gold.Chemscore.ZeroCoef>
-5.4800

> <Gold.Chemscore.Hbond>
2.8527

> <Gold.Chemscore.Metal>
0.0000

> <Gold.Chemscore.Lipo>
94.0203

> <Gold.Chemscore.Internal_Hbond>
0.0000

> <Gold.Chemscore.DEClash>
0.0618

> <Gold.Chemscore.DEInternal>
3.1779

> <Gold.Chemscore.Rot>
2.2865

> <Gold.Chemscore.Internal.Correction>
   9.000000E+99

> <Gold.Chemscore.Hbonds>
donor molecule, donor type, donor heavy atom, donor atom, acceptor molecule, acceptor atom, score
      L1  H     5    46       P1  7948  0.85
      L1  H     8    33       P1  7948  0.43
      P1  H  7997  8009       L1    12  0.96

> <Gold.Chemscore.Hbond.Weighted>
-9.5282

> <Gold.Chemscore.Metal.Weighted>
-0.0000

> <Gold.Chemscore.Lipo.Weighted>
-11.0004

> <Gold.Chemscore.Internal_Hbond.Weighted>
0.0000

> <Gold.Chemscore.DEClash.Weighted>
0.0618

> <Gold.Chemscore.DEInternal.Weighted>
3.1779

> <Gold.Chemscore.Rot.Weighted>
5.8536

> <Gold.Chemscore.Internal.Correction.Weighted>
   9.000000E+99

> <Gold.Protein.RotatedTorsions>
[ 6907 6896 6895 6894 ] final   -5.02 input  -60.11 | X-H torsion
[ 7974 7965 7964 7962 ] final   76.84 input  175.53 | X-H torsion
[ 8008 7997 7996 7995 ] final  169.64 input   59.86 | X-H torsion
[ 10167 10162 10161 10158 ] final  159.65 input  -65.29 | X-H torsion
[ 10718 10713 10712 10709 ] final   44.85 input   66.30 | X-H torsion
[ 10763 10752 10751 10750 ] final  140.63 input  -60.55 | X-H torsion
[ 11005 11000 10999 10996 ] final  -41.13 input  -57.11 | X-H torsion

> <Gold.Protein.ActiveResidues>
 VAL166  LYS551  ARG553  GLY616  TRP617  ASP618  TYR619  PRO620  LYS621  CYS622 
 ASP623  PHE694  ASN695  SER759  ASP760  ASP761  ALA762  ILE779  LEU786  VAL792 
 PHE793  MET794  SER795  GLU796  ALA797  LYS798  CYS799  TRP800  GLU811  SER814 

> <Gold.Protein.RotatedAtoms>
  151.4883  135.1056  159.9796 H   0  0  0  0  0  0  0  0  0  0  0  0  # atno 6907 bound_to 6896
  152.4751  133.8116  159.7017 H   0  0  0  0  0  0  0  0  0  0  0  0  # atno 6908 bound_to 6896
  150.8784  133.7344  159.2965 H   0  0  0  0  0  0  0  0  0  0  0  0  # atno 6909 bound_to 6896
  145.6977  139.2572  143.1723 H   0  0  0  0  0  0  0  0  0  0  0  0  # atno 7974 bound_to 7965
  156.1439  140.1559  156.8877 H   0  0  0  0  0  0  0  0  0  0  0  0  # atno 8008 bound_to 7997
  154.5011  140.0825  156.7838 H   0  0  0  0  0  0  0  0  0  0  0  0  # atno 8009 bound_to 7997
  155.4026  140.3415  155.4260 H   0  0  0  0  0  0  0  0  0  0  0  0  # atno 8010 bound_to 7997
  139.4834  144.4709  151.8577 H   0  0  0  0  0  0  0  0  0  0  0  0  # atno 10167 bound_to 10162
  157.4312  130.8026  149.7605 H   0  0  0  0  0  0  0  0  0  0  0  0  # atno 10718 bound_to 10713
  153.9259  135.2995  155.3447 H   0  0  0  0  0  0  0  0  0  0  0  0  # atno 10763 bound_to 10752
  154.7552  135.4961  153.9364 H   0  0  0  0  0  0  0  0  0  0  0  0  # atno 10764 bound_to 10752
  153.1117  135.6761  153.9592 H   0  0  0  0  0  0  0  0  0  0  0  0  # atno 10765 bound_to 10752
  141.0224  133.6856  156.2416 H   0  0  0  0  0  0  0  0  0  0  0  0  # atno 11005 bound_to 11000
  146.0825  140.7747  142.9634 LP  0  0  0  0  0  0  0  0  0  0  0  0  # atno 17320 bound_to 7965
  144.6977  140.3512  143.7181 LP  0  0  0  0  0  0  0  0  0  0  0  0  # atno 17321 bound_to 7965
  140.4178  144.2284  150.5887 LP  0  0  0  0  0  0  0  0  0  0  0  0  # atno 17342 bound_to 10162
  140.4904  143.2349  151.8827 LP  0  0  0  0  0  0  0  0  0  0  0  0  # atno 17343 bound_to 10162
  155.9914  130.3938  150.2987 LP  0  0  0  0  0  0  0  0  0  0  0  0  # atno 17370 bound_to 10713
  157.1144  131.0230  151.3035 LP  0  0  0  0  0  0  0  0  0  0  0  0  # atno 17371 bound_to 10713
  140.6549  134.5028  157.5580 LP  0  0  0  0  0  0  0  0  0  0  0  0  # atno 17394 bound_to 11000
  139.9154  134.8256  156.1383 LP  0  0  0  0  0  0  0  0  0  0  0  0  # atno 17395 bound_to 11000

$$$$
