AV-unprocessed.smi:500|AV-procd|sdf|2738|dock9
  -GOLD-   2262023193D 1   1.00000     0.00000
 Structure written by MMmdl.
 44 46  0  0  0  0  0  0  0  0  2 V2000
  148.6467  140.3242  154.0987 C   0  0  0  0  0  0  0  0  0  0  0  0
  149.7017  140.7673  155.1148 C   0  0  0  0  0  0  0  0  0  0  0  0
  150.7889  139.8545  155.0717 O   0  0  0  0  0  0  0  0  0  0  0  0
  151.7576  140.0677  156.0882 C   0  0  0  0  0  0  0  0  0  0  0  0
  151.2384  139.6123  157.4632 C   0  0  0  0  0  0  0  0  0  0  0  0
  151.9983  140.2210  158.5564 N   0  0  0  0  0  0  0  0  0  0  0  0
  152.8541  139.6572  159.4652 C   0  0  0  0  0  0  0  0  0  0  0  0
  153.2033  138.1773  159.5115 C   0  0  2  0  0  0  0  0  0  0  0  0
  151.9536  137.3242  159.7698 C   0  0  0  0  0  0  0  0  0  0  0  0
  154.2135  137.8622  160.5254 N   0  5  0  0  0  0  0  0  0  0  0  0
  154.3183  136.6586  161.1568 C   0  0  0  0  0  0  0  0  0  0  0  0
  154.3906  135.5216  160.6784 O   0  0  0  0  0  0  0  0  0  0  0  0
  154.3495  136.7965  162.6320 C   0  0  0  0  0  0  0  0  0  0  0  0
  154.2539  137.9181  163.4128 C   0  0  0  0  0  0  0  0  0  0  0  0
  154.3399  137.4872  164.7656 C   0  0  0  0  0  0  0  0  0  0  0  0
  154.4837  136.1307  164.7186 C   0  0  0  0  0  0  0  0  0  0  0  0
  154.4916  135.6938  163.4305 O   0  0  0  0  0  0  0  0  0  0  0  0
  153.3745  140.5113  160.3538 N   0  0  0  0  0  0  0  0  0  0  0  0
  152.8379  141.7255  159.9823 C   0  0  0  0  0  0  0  0  0  0  0  0
  153.0184  143.0144  160.5329 C   0  0  0  0  0  0  0  0  0  0  0  0
  152.3557  144.1275  159.9764 C   0  0  0  0  0  0  0  0  0  0  0  0
  151.5047  143.9667  158.8640 C   0  0  0  0  0  0  0  0  0  0  0  0
  151.3109  142.6900  158.3021 C   0  0  0  0  0  0  0  0  0  0  0  0
  151.9749  141.5808  158.8618 C   0  0  0  0  0  0  0  0  0  0  0  0
  147.7917  141.0006  154.1043 H   0  0  0  0  0  0  0  0  0  0  0  0
  148.2825  139.3219  154.3250 H   0  0  0  0  0  0  0  0  0  0  0  0
  149.0578  140.3121  153.0889 H   0  0  0  0  0  0  0  0  0  0  0  0
  150.0314  141.7798  154.8823 H   0  0  0  0  0  0  0  0  0  0  0  0
  149.2669  140.7857  156.1152 H   0  0  0  0  0  0  0  0  0  0  0  0
  152.6987  139.5807  155.8323 H   0  0  0  0  0  0  0  0  0  0  0  0
  151.9667  141.1371  156.1250 H   0  0  0  0  0  0  0  0  0  0  0  0
  150.1909  139.8953  157.5678 H   0  0  0  0  0  0  0  0  0  0  0  0
  151.2527  138.5282  157.5666 H   0  0  0  0  0  0  0  0  0  0  0  0
  153.5717  137.8930  158.5254 H   0  0  0  0  0  0  0  0  0  0  0  0
  151.1985  137.5002  159.0032 H   0  0  0  0  0  0  0  0  0  0  0  0
  151.5045  137.5564  160.7364 H   0  0  0  0  0  0  0  0  0  0  0  0
  152.1909  136.2599  159.7587 H   0  0  0  0  0  0  0  0  0  0  0  0
  154.1348  138.9287  163.0511 H   0  0  0  0  0  0  0  0  0  0  0  0
  154.3012  138.0928  165.6589 H   0  0  0  0  0  0  0  0  0  0  0  0
  154.5889  135.3596  165.4672 H   0  0  0  0  0  0  0  0  0  0  0  0
  153.6698  143.1449  161.3841 H   0  0  0  0  0  0  0  0  0  0  0  0
  152.5022  145.1083  160.4041 H   0  0  0  0  0  0  0  0  0  0  0  0
  151.0012  144.8240  158.4418 H   0  0  0  0  0  0  0  0  0  0  0  0
  150.6601  142.5660  157.4495 H   0  0  0  0  0  0  0  0  0  0  0  0
  1  2  1  0  0  0  0
  1 25  1  0  0  0  0
  1 26  1  0  0  0  0
  1 27  1  0  0  0  0
  2  3  1  0  0  0  0
  2 28  1  0  0  0  0
  2 29  1  0  0  0  0
  3  4  1  0  0  0  0
  4  5  1  0  0  0  0
  4 30  1  0  0  0  0
  4 31  1  0  0  0  0
  5  6  1  0  0  0  0
  5 32  1  0  0  0  0
  5 33  1  0  0  0  0
  6 24  1  0  0  0  0
  6  7  1  0  0  0  0
  7  8  1  0  0  0  0
  7 18  2  0  0  0  0
  8  9  1  0  0  0  0
  8 10  1  0  0  0  0
  8 34  1  0  0  0  0
  9 35  1  0  0  0  0
  9 36  1  0  0  0  0
  9 37  1  0  0  0  0
 10 11  1  0  0  0  0
 11 12  2  0  0  0  0
 11 13  1  0  0  0  0
 13 17  1  0  0  0  0
 13 14  2  0  0  0  0
 14 15  1  0  0  0  0
 14 38  1  0  0  0  0
 15 16  2  0  0  0  0
 15 39  1  0  0  0  0
 16 17  1  0  0  0  0
 16 40  1  0  0  0  0
 18 19  1  0  0  0  0
 19 24  2  0  0  0  0
 19 20  1  0  0  0  0
 20 21  2  0  0  0  0
 20 41  1  0  0  0  0
 21 22  1  0  0  0  0
 21 42  1  0  0  0  0
 22 23  2  0  0  0  0
 22 43  1  0  0  0  0
 23 24  1  0  0  0  0
 23 44  1  0  0  0  0
M  CHG  1  10  -1
M  END
> <s_m_source_file>
AV-unprocessed.smi

> <i_m_source_file_index>
500

> <i_lp_mmshare_version>
43012

> <i_f3d_flags>
0

> <s_epik_input>
W0NIM11bQ0gyXU9bQ0gyXVtDSDJdbihjKGMxMilbY0hdW2NIXVtjSF1bY0hdMiljKG4xKVtDQEhdKFtDSDNdKVtOSF1DKD1PKWMzW2NIXVtjSF1bY0hdbzM=

> <s_epik_cmdline>
J2VwaWtfcHl0aG9uJywgJy1waCcsICc3LjAnLCAnLXRuJywgJzgnLCAnLW1hJywgJzIwMCcsICctbWV0YWxfYmluZGluZycsICctaW1hZScsICc8aW5maWxlLm1hZT4nLCAnLW9tYWUnLCAnPG91dGZpbGUubWFlPic=

> <r_epik_Ionization_Penalty>
7.31223

> <r_epik_Ionization_Penalty_Charging>
6.43826

> <r_epik_Ionization_Penalty_Neutral>
0.873973

> <r_epik_State_Penalty>
6.5378

> <r_epik_Charging_Adjusted_Penalty>
12.9761

> <i_epik_Tot_Q>
-1

> <i_epik_Tot_abs_Q>
1

> <r_epik_Metal_State_Penalty>
2.55818

> <b_epik_Metal_Only>
1

> <s_lp_Force_Field>
OPLS_2005

> <r_lp_Energy>
15.486

> <b_lp_Chiralities_Consistent>
1

> <s_lp_Variant>
AV-unprocessed.smi:500-5

> <Gold.Version>
5.8.1

> <Gold.Id.Protein>
6NUR|6NUR_protein|mol2

> <Gold.PLP.Fitness>
56.0861

> <Gold.PLP.PLP>
-51.9612

> <Gold.PLP.part.hbond>
-2.0000

> <Gold.PLP.part.metal>
0.0000

> <Gold.PLP.part.buried>
-7.1633

> <Gold.PLP.part.nonpolar>
-42.3191

> <Gold.PLP.part.repulsive>
0.0728

> <Gold.PLP.ligand.clash>
0.0000

> <Gold.PLP.ligand.torsion>
1.0715

> <Gold.PLP.Chemscore.Hbond>
2.0000

> <Gold.PLP.Chemscore.CHOScore>
0.0000

> <Gold.PLP.Chemscore.Metal>
0.0000

> <Gold.Chemscore.Hbonds>
donor molecule, donor type, donor heavy atom, donor atom, acceptor molecule, acceptor atom, score
      P1  H  6896  6907       L1    12  0.55
      P1  H  7989  7998       L1     3  0.52

> <Gold.PLP.Chemscore.Internal.Correction>
0.2680

> <Gold.Rescore>
     Score         DG    S(hbond)    S(metal)    S(lipo)     H(rot)  DE(clash)    DE(int)     intcor
     21.17     -22.17       1.78        0.00     131.94       1.84       0.08       0.92       ----

> <Gold.Chemscore.Fitness>
21.1667

> <Gold.Chemscore.DG>
-22.1686

> <Gold.Chemscore.ZeroCoef>
-5.4800

> <Gold.Chemscore.Hbond>
1.7836

> <Gold.Chemscore.Metal>
0.0000

> <Gold.Chemscore.Lipo>
131.9422

> <Gold.Chemscore.Internal_Hbond>
0.0000

> <Gold.Chemscore.DEClash>
0.0804

> <Gold.Chemscore.DEInternal>
0.9215

> <Gold.Chemscore.Rot>
1.8382

> <Gold.Chemscore.Internal.Correction>
   9.000000E+99

> <Gold.Chemscore.Hbonds>
donor molecule, donor type, donor heavy atom, donor atom, acceptor molecule, acceptor atom, score
      P1  H  6896  6907       L1    12  0.49
      P1  H  7989  7998       L1     3  0.01

> <Gold.Chemscore.Hbond.Weighted>
-5.9573

> <Gold.Chemscore.Metal.Weighted>
-0.0000

> <Gold.Chemscore.Lipo.Weighted>
-15.4372

> <Gold.Chemscore.Internal_Hbond.Weighted>
0.0000

> <Gold.Chemscore.DEClash.Weighted>
0.0804

> <Gold.Chemscore.DEInternal.Weighted>
0.9215

> <Gold.Chemscore.Rot.Weighted>
4.7059

> <Gold.Chemscore.Internal.Correction.Weighted>
   9.000000E+99

> <Gold.Protein.RotatedTorsions>
[ 6907 6896 6895 6894 ] final   60.79 input  -60.11 | X-H torsion
[ 7974 7965 7964 7962 ] final  145.48 input  175.53 | X-H torsion
[ 8008 7997 7996 7995 ] final -128.87 input   59.86 | X-H torsion
[ 10167 10162 10161 10158 ] final  -12.75 input  -65.29 | X-H torsion
[ 10718 10713 10712 10709 ] final  -51.10 input   66.30 | X-H torsion
[ 10763 10752 10751 10750 ] final    8.01 input  -60.55 | X-H torsion
[ 11005 11000 10999 10996 ] final  100.35 input  -57.11 | X-H torsion

> <Gold.Protein.ActiveResidues>
 VAL166  LYS551  ARG553  GLY616  TRP617  ASP618  TYR619  PRO620  LYS621  CYS622 
 ASP623  PHE694  ASN695  SER759  ASP760  ASP761  ALA762  ILE779  LEU786  VAL792 
 PHE793  MET794  SER795  GLU796  ALA797  LYS798  CYS799  TRP800  GLU811  SER814 

> <Gold.Protein.RotatedAtoms>
  152.4033  134.6249  160.0060 H   0  0  0  0  0  0  0  0  0  0  0  0  # atno 6907 bound_to 6896
  151.6448  133.3318  159.3146 H   0  0  0  0  0  0  0  0  0  0  0  0  # atno 6908 bound_to 6896
  150.7931  134.7012  159.6595 H   0  0  0  0  0  0  0  0  0  0  0  0  # atno 6909 bound_to 6896
  144.8749  139.5788  143.5869 H   0  0  0  0  0  0  0  0  0  0  0  0  # atno 7974 bound_to 7965
  155.2699  140.0439  157.3006 H   0  0  0  0  0  0  0  0  0  0  0  0  # atno 8008 bound_to 7997
  154.5660  140.2360  155.8232 H   0  0  0  0  0  0  0  0  0  0  0  0  # atno 8009 bound_to 7997
  156.2085  140.3005  155.9688 H   0  0  0  0  0  0  0  0  0  0  0  0  # atno 8010 bound_to 7997
  140.7168  143.5499  150.9313 H   0  0  0  0  0  0  0  0  0  0  0  0  # atno 10167 bound_to 10162
  156.1741  130.4149  149.9604 H   0  0  0  0  0  0  0  0  0  0  0  0  # atno 10718 bound_to 10713
  153.2298  135.6891  153.7902 H   0  0  0  0  0  0  0  0  0  0  0  0  # atno 10763 bound_to 10752
  153.7071  135.3288  155.3239 H   0  0  0  0  0  0  0  0  0  0  0  0  # atno 10764 bound_to 10752
  154.8309  135.4581  154.1180 H   0  0  0  0  0  0  0  0  0  0  0  0  # atno 10765 bound_to 10752
  139.8771  134.9136  156.4743 H   0  0  0  0  0  0  0  0  0  0  0  0  # atno 11005 bound_to 11000
  146.2956  139.7267  142.9129 LP  0  0  0  0  0  0  0  0  0  0  0  0  # atno 17320 bound_to 7965
  145.4061  141.0391  143.3043 LP  0  0  0  0  0  0  0  0  0  0  0  0  # atno 17321 bound_to 7965
  139.9223  143.6592  152.3094 LP  0  0  0  0  0  0  0  0  0  0  0  0  # atno 17342 bound_to 10162
  139.7013  144.7634  151.1269 LP  0  0  0  0  0  0  0  0  0  0  0  0  # atno 17343 bound_to 10162
  156.7395  130.9074  151.3631 LP  0  0  0  0  0  0  0  0  0  0  0  0  # atno 17370 bound_to 10713
  157.6823  130.9152  150.0298 LP  0  0  0  0  0  0  0  0  0  0  0  0  # atno 17371 bound_to 10713
  140.8773  133.7943  155.9429 LP  0  0  0  0  0  0  0  0  0  0  0  0  # atno 17394 bound_to 11000
  140.8890  134.2518  157.5104 LP  0  0  0  0  0  0  0  0  0  0  0  0  # atno 17395 bound_to 11000

$$$$
