AV-unprocessed.smi:337|AV-procd|sdf|2372|dock2
  -GOLD-   2262022293D 1   1.00000     0.00000
 Structure written by MMmdl.
 43 44  0  0  0  0  0  0  0  0  1 V2000
  147.4822  135.3213  155.3490 C   0  0  0  0  0  0  0  0  0  0  0  0
  147.4515  136.8032  154.9391 C   0  0  2  0  0  0  0  0  0  0  0  0
  147.1813  136.8721  153.5037 N   0  0  0  0  0  0  0  0  0  0  0  0
  146.1634  137.5418  152.9435 C   0  0  0  0  0  0  0  0  0  0  0  0
  146.1713  137.4571  151.6130 N   0  0  0  0  0  0  0  0  0  0  0  0
  145.3123  138.1694  153.5708 O   0  0  0  0  0  0  0  0  0  0  0  0
  148.8241  137.4138  155.2635 C   0  0  0  0  0  0  0  0  0  0  0  0
  149.1602  137.6205  156.4309 O   0  0  0  0  0  0  0  0  0  0  0  0
  149.5984  137.7202  154.2116 N   0  0  0  0  0  0  0  0  0  0  0  0
  150.9227  138.3266  154.2990 C   0  0  0  0  0  0  0  0  0  0  0  0
  151.0177  139.4869  155.2799 C   0  0  0  0  0  0  0  0  0  0  0  0
  150.2768  140.6752  155.1097 C   0  0  0  0  0  0  0  0  0  0  0  0
  150.4154  141.7087  156.0553 C   0  0  0  0  0  0  0  0  0  0  0  0
  151.2983  141.5329  157.1475 C   0  0  0  0  0  0  0  0  0  0  0  0
  151.4527  142.5555  158.1089 N   0  0  0  0  0  0  0  0  0  0  0  0
  151.5950  143.9091  157.5784 C   0  0  0  0  0  0  0  0  0  0  0  0
  151.4424  144.9454  158.7054 C   0  0  0  0  0  0  0  0  0  0  0  0
  152.3650  144.6611  159.7516 O   0  0  0  0  0  0  0  0  0  0  0  0
  152.1323  143.3808  160.3285 C   0  0  0  0  0  0  0  0  0  0  0  0
  152.3145  142.2905  159.2596 C   0  0  0  0  0  0  0  0  0  0  0  0
  152.0095  140.3891  157.3057 N   0  0  0  0  0  0  0  0  0  0  0  0
  151.8728  139.4014  156.3965 C   0  0  0  0  0  0  0  0  0  0  0  0
  147.6783  135.2091  156.4163 H   0  0  0  0  0  0  0  0  0  0  0  0
  148.2512  134.7657  154.8098 H   0  0  0  0  0  0  0  0  0  0  0  0
  146.5248  134.8412  155.1442 H   0  0  0  0  0  0  0  0  0  0  0  0
  146.6654  137.3214  155.4924 H   0  0  0  0  0  0  0  0  0  0  0  0
  147.8306  136.3943  152.8966 H   0  0  0  0  0  0  0  0  0  0  0  0
  145.4549  137.9152  151.0693 H   0  0  0  0  0  0  0  0  0  0  0  0
  146.8979  136.9278  151.1531 H   0  0  0  0  0  0  0  0  0  0  0  0
  149.2469  137.5181  153.2869 H   0  0  0  0  0  0  0  0  0  0  0  0
  151.6576  137.5619  154.5572 H   0  0  0  0  0  0  0  0  0  0  0  0
  151.1948  138.6935  153.3093 H   0  0  0  0  0  0  0  0  0  0  0  0
  149.6067  140.7996  154.2717 H   0  0  0  0  0  0  0  0  0  0  0  0
  149.8350  142.6116  155.9398 H   0  0  0  0  0  0  0  0  0  0  0  0
  152.5784  144.0038  157.1161 H   0  0  0  0  0  0  0  0  0  0  0  0
  150.8594  144.1198  156.8037 H   0  0  0  0  0  0  0  0  0  0  0  0
  151.6393  145.9468  158.3222 H   0  0  0  0  0  0  0  0  0  0  0  0
  150.4232  144.9485  159.0952 H   0  0  0  0  0  0  0  0  0  0  0  0
  152.8367  143.2263  161.1456 H   0  0  0  0  0  0  0  0  0  0  0  0
  151.1308  143.3398  160.7597 H   0  0  0  0  0  0  0  0  0  0  0  0
  152.0790  141.3179  159.6932 H   0  0  0  0  0  0  0  0  0  0  0  0
  153.3545  142.2595  158.9319 H   0  0  0  0  0  0  0  0  0  0  0  0
  152.4643  138.5143  156.5693 H   0  0  0  0  0  0  0  0  0  0  0  0
  1  2  1  0  0  0  0
  1 23  1  0  0  0  0
  1 24  1  0  0  0  0
  1 25  1  0  0  0  0
  2  3  1  0  0  0  0
  2  7  1  0  0  0  0
  2 26  1  0  0  0  0
  3  4  1  0  0  0  0
  3 27  1  0  0  0  0
  4  5  1  0  0  0  0
  4  6  2  0  0  0  0
  5 28  1  0  0  0  0
  5 29  1  0  0  0  0
  7  8  2  0  0  0  0
  7  9  1  0  0  0  0
  9 10  1  0  0  0  0
  9 30  1  0  0  0  0
 10 11  1  0  0  0  0
 10 31  1  0  0  0  0
 10 32  1  0  0  0  0
 11 22  1  0  0  0  0
 11 12  2  0  0  0  0
 12 13  1  0  0  0  0
 12 33  1  0  0  0  0
 13 14  2  0  0  0  0
 13 34  1  0  0  0  0
 14 15  1  0  0  0  0
 14 21  1  0  0  0  0
 15 20  1  0  0  0  0
 15 16  1  0  0  0  0
 16 17  1  0  0  0  0
 16 35  1  0  0  0  0
 16 36  1  0  0  0  0
 17 18  1  0  0  0  0
 17 37  1  0  0  0  0
 17 38  1  0  0  0  0
 18 19  1  0  0  0  0
 19 20  1  0  0  0  0
 19 39  1  0  0  0  0
 19 40  1  0  0  0  0
 20 41  1  0  0  0  0
 20 42  1  0  0  0  0
 21 22  2  0  0  0  0
 22 43  1  0  0  0  0
M  END
> <s_m_source_file>
AV-unprocessed.smi

> <i_m_source_file_index>
337

> <i_lp_mmshare_version>
43012

> <i_f3d_flags>
0

> <s_epik_input>
W05IMl1DKD1PKVtOSF1bQ0BASF0oW0NIM10pQyg9TylbTkhdW0NIMl1jMVtjSF1bY0hdYyhuW2NIXTEpTjJbQ0gyXVtDSDJdT1tDSDJdW0NIMl0y

> <s_epik_cmdline>
J2VwaWtfcHl0aG9uJywgJy1waCcsICc3LjAnLCAnLXRuJywgJzgnLCAnLW1hJywgJzIwMCcsICctbWV0YWxfYmluZGluZycsICctaW1hZScsICc8aW5maWxlLm1hZT4nLCAnLW9tYWUnLCAnPG91dGZpbGUubWFlPic=

> <r_lp_tautomer_probability>
1

> <r_epik_Ionization_Penalty>
0.0048357

> <r_epik_Ionization_Penalty_Charging>
0

> <r_epik_Ionization_Penalty_Neutral>
0.0048357

> <r_epik_State_Penalty>
0.0034696

> <r_epik_Charging_Adjusted_Penalty>
0.0034696

> <i_epik_Tot_Q>
0

> <i_epik_Tot_abs_Q>
0

> <r_epik_Metal_State_Penalty>
-0

> <b_epik_Metal_Only>
0

> <s_lp_Force_Field>
OPLS_2005

> <r_lp_Energy>
8.56102

> <b_lp_Chiralities_Consistent>
1

> <s_lp_Variant>
AV-unprocessed.smi:337-1

> <Gold.Version>
5.8.1

> <Gold.Id.Protein>
6NUR|6NUR_protein|mol2

> <Gold.PLP.Fitness>
45.0728

> <Gold.PLP.PLP>
-36.5150

> <Gold.PLP.part.hbond>
-3.5332

> <Gold.PLP.part.metal>
0.0000

> <Gold.PLP.part.buried>
-4.7977

> <Gold.PLP.part.nonpolar>
-29.8679

> <Gold.PLP.part.repulsive>
1.0473

> <Gold.PLP.ligand.clash>
0.0000

> <Gold.PLP.ligand.torsion>
0.5208

> <Gold.PLP.Chemscore.Hbond>
3.0780

> <Gold.PLP.Chemscore.CHOScore>
0.0000

> <Gold.PLP.Chemscore.Metal>
0.0000

> <Gold.Chemscore.Hbonds>
donor molecule, donor type, donor heavy atom, donor atom, acceptor molecule, acceptor atom, score
      L1  H     3    27       P1  7948  1.00
      L1  H     5    28       P1 10171  0.76
      L1  H     5    29       P1  7948  0.32
      L1  H     9    30       P1  7948  0.98

> <Gold.PLP.Chemscore.Internal.Correction>
0.3653

> <Gold.Rescore>
     Score         DG    S(hbond)    S(metal)    S(lipo)     H(rot)  DE(clash)    DE(int)     intcor
     16.37     -18.40       2.96        0.00      84.16       2.66       0.21       1.82       ----

> <Gold.Chemscore.Fitness>
16.3691

> <Gold.Chemscore.DG>
-18.4001

> <Gold.Chemscore.ZeroCoef>
-5.4800

> <Gold.Chemscore.Hbond>
2.9569

> <Gold.Chemscore.Metal>
0.0000

> <Gold.Chemscore.Lipo>
84.1596

> <Gold.Chemscore.Internal_Hbond>
0.0000

> <Gold.Chemscore.DEClash>
0.2130

> <Gold.Chemscore.DEInternal>
1.8180

> <Gold.Chemscore.Rot>
2.6573

> <Gold.Chemscore.Internal.Correction>
   9.000000E+99

> <Gold.Chemscore.Hbonds>
donor molecule, donor type, donor heavy atom, donor atom, acceptor molecule, acceptor atom, score
      L1  H     3    27       P1  7948  0.93
      L1  H     5    28       P1 10171  0.75
      L1  H     5    29       P1  7948  0.32
      L1  H     9    30       P1  7948  0.92

> <Gold.Chemscore.Hbond.Weighted>
-9.8762

> <Gold.Chemscore.Metal.Weighted>
-0.0000

> <Gold.Chemscore.Lipo.Weighted>
-9.8467

> <Gold.Chemscore.Internal_Hbond.Weighted>
0.0000

> <Gold.Chemscore.DEClash.Weighted>
0.2130

> <Gold.Chemscore.DEInternal.Weighted>
1.8180

> <Gold.Chemscore.Rot.Weighted>
6.8027

> <Gold.Chemscore.Internal.Correction.Weighted>
   9.000000E+99

> <Gold.Protein.RotatedTorsions>
[ 6907 6896 6895 6894 ] final  -96.07 input  -60.11 | X-H torsion
[ 7974 7965 7964 7962 ] final -130.69 input  175.53 | X-H torsion
[ 8008 7997 7996 7995 ] final   -9.27 input   59.86 | X-H torsion
[ 10167 10162 10161 10158 ] final   -2.03 input  -65.29 | X-H torsion
[ 10718 10713 10712 10709 ] final -137.60 input   66.30 | X-H torsion
[ 10763 10752 10751 10750 ] final -112.84 input  -60.55 | X-H torsion
[ 11005 11000 10999 10996 ] final  -19.96 input  -57.11 | X-H torsion

> <Gold.Protein.ActiveResidues>
 VAL166  LYS551  ARG553  GLY616  TRP617  ASP618  TYR619  PRO620  LYS621  CYS622 
 ASP623  PHE694  ASN695  SER759  ASP760  ASP761  ALA762  ILE779  LEU786  VAL792 
 PHE793  MET794  SER795  GLU796  ALA797  LYS798  CYS799  TRP800  GLU811  SER814 

> <Gold.Protein.RotatedAtoms>
  150.6979  134.1560  159.4157 H   0  0  0  0  0  0  0  0  0  0  0  0  # atno 6907 bound_to 6896
  151.9541  135.0152  160.0553 H   0  0  0  0  0  0  0  0  0  0  0  0  # atno 6908 bound_to 6896
  152.1984  133.4788  159.5082 H   0  0  0  0  0  0  0  0  0  0  0  0  # atno 6909 bound_to 6896
  144.9450  140.7281  143.4823 H   0  0  0  0  0  0  0  0  0  0  0  0  # atno 7974 bound_to 7965
  154.5662  140.2359  155.8260 H   0  0  0  0  0  0  0  0  0  0  0  0  # atno 8008 bound_to 7997
  156.2070  140.3037  155.9607 H   0  0  0  0  0  0  0  0  0  0  0  0  # atno 8009 bound_to 7997
  155.2797  140.0422  157.3005 H   0  0  0  0  0  0  0  0  0  0  0  0  # atno 8010 bound_to 7997
  140.6834  143.6705  150.8189 H   0  0  0  0  0  0  0  0  0  0  0  0  # atno 10167 bound_to 10162
  156.2899  130.7369  151.1392 H   0  0  0  0  0  0  0  0  0  0  0  0  # atno 10718 bound_to 10713
  154.8368  135.4476  154.1255 H   0  0  0  0  0  0  0  0  0  0  0  0  # atno 10763 bound_to 10752
  153.2480  135.6923  153.7717 H   0  0  0  0  0  0  0  0  0  0  0  0  # atno 10764 bound_to 10752
  153.7040  135.3367  155.3207 H   0  0  0  0  0  0  0  0  0  0  0  0  # atno 10765 bound_to 10752
  140.8418  133.7921  155.9869 H   0  0  0  0  0  0  0  0  0  0  0  0  # atno 11005 bound_to 11000
  145.2932  139.1876  143.4729 LP  0  0  0  0  0  0  0  0  0  0  0  0  # atno 17320 bound_to 7965
  146.3300  140.2912  142.8615 LP  0  0  0  0  0  0  0  0  0  0  0  0  # atno 17321 bound_to 7965
  140.0408  143.5347  152.2718 LP  0  0  0  0  0  0  0  0  0  0  0  0  # atno 17342 bound_to 10162
  139.6174  144.7622  151.2815 LP  0  0  0  0  0  0  0  0  0  0  0  0  # atno 17343 bound_to 10162
  157.7339  131.0586  150.5551 LP  0  0  0  0  0  0  0  0  0  0  0  0  # atno 17370 bound_to 10713
  156.5666  130.4269  149.6038 LP  0  0  0  0  0  0  0  0  0  0  0  0  # atno 17371 bound_to 10713
  140.8887  134.2522  157.5106 LP  0  0  0  0  0  0  0  0  0  0  0  0  # atno 17394 bound_to 11000
  139.8703  134.9651  156.4517 LP  0  0  0  0  0  0  0  0  0  0  0  0  # atno 17395 bound_to 11000

$$$$
