AV-unprocessed.smi:333|AV-procd|sdf|2361|dock1
  -GOLD-   2262022273D 1   1.00000     0.00000
 Structure written by MMmdl.
 26 26  0  0  0  0  0  0  0  0  1 V2000
  152.9010  136.8528  157.1720 N   0  0  0  0  0  0  0  0  0  0  0  0
  152.2897  137.5392  156.1985 C   0  0  0  0  0  0  0  0  0  0  0  0
  152.0704  136.9820  155.1231 O   0  0  0  0  0  0  0  0  0  0  0  0
  151.9488  138.9317  156.5604 C   0  0  0  0  0  0  0  0  0  0  0  0
  150.9254  139.6210  155.9943 C   0  0  0  0  0  0  0  0  0  0  0  0
  150.6131  140.9884  156.3713 C   0  0  0  0  0  0  0  0  0  0  0  0
  149.4527  141.7053  155.6928 C   0  0  0  0  0  0  0  0  0  0  0  0
  148.8013  140.8735  154.5754 C   0  0  0  0  0  0  0  0  0  0  0  0
  149.4920  141.0421  153.3556 O   0  0  0  0  0  0  0  0  0  0  0  0
  151.4025  141.5676  157.3055 C   0  0  0  0  0  0  0  0  0  0  0  0
  151.2652  142.9918  157.8405 C   0  0  0  0  0  0  0  0  0  0  0  0
  152.2133  143.2415  158.7435 F   0  0  0  0  0  0  0  0  0  0  0  0
  151.3773  143.8803  156.8539 F   0  0  0  0  0  0  0  0  0  0  0  0
  150.0835  143.1889  158.4295 F   0  0  0  0  0  0  0  0  0  0  0  0
  152.4555  140.8463  157.8862 N   0  0  0  0  0  0  0  0  0  0  0  0
  152.7950  139.5712  157.5945 C   0  0  0  0  0  0  0  0  0  0  0  0
  153.7445  139.0589  158.1877 O   0  0  0  0  0  0  0  0  0  0  0  0
  152.9993  141.3344  158.5835 H   0  0  0  0  0  0  0  0  0  0  0  0
  153.1733  135.8939  157.0108 H   0  0  0  0  0  0  0  0  0  0  0  0
  153.0908  137.2935  158.0599 H   0  0  0  0  0  0  0  0  0  0  0  0
  150.3029  139.1712  155.2350 H   0  0  0  0  0  0  0  0  0  0  0  0
  148.6953  142.0103  156.4130 H   0  0  0  0  0  0  0  0  0  0  0  0
  149.8405  142.6313  155.2671 H   0  0  0  0  0  0  0  0  0  0  0  0
  148.8179  139.8159  154.8394 H   0  0  0  0  0  0  0  0  0  0  0  0
  147.7561  141.1518  154.4379 H   0  0  0  0  0  0  0  0  0  0  0  0
  149.1337  140.4405  152.7207 H   0  0  0  0  0  0  0  0  0  0  0  0
  1  2  1  0  0  0  0
  1 19  1  0  0  0  0
  1 20  1  0  0  0  0
  2  3  2  0  0  0  0
  2  4  1  0  0  0  0
  4 16  1  0  0  0  0
  4  5  2  0  0  0  0
  5  6  1  0  0  0  0
  5 21  1  0  0  0  0
  6  7  1  0  0  0  0
  6 10  2  0  0  0  0
  7  8  1  0  0  0  0
  7 22  1  0  0  0  0
  7 23  1  0  0  0  0
  8  9  1  0  0  0  0
  8 24  1  0  0  0  0
  8 25  1  0  0  0  0
  9 26  1  0  0  0  0
 10 11  1  0  0  0  0
 10 15  1  0  0  0  0
 11 12  1  0  0  0  0
 11 13  1  0  0  0  0
 11 14  1  0  0  0  0
 15 18  1  0  0  0  0
 15 16  1  0  0  0  0
 16 17  2  0  0  0  0
M  END
> <s_m_source_file>
AV-unprocessed.smi

> <i_m_source_file_index>
333

> <i_lp_mmshare_version>
43012

> <i_f3d_flags>
0

> <s_epik_input>
W05IMl1DKD1PKWMxW2NIXWMoW0NIMl1bQ0gyXVtPSF0pYyhDKEYpKEYpRilbbkhdYzE9Tw==

> <s_epik_cmdline>
J2VwaWtfcHl0aG9uJywgJy1waCcsICc3LjAnLCAnLXRuJywgJzgnLCAnLW1hJywgJzIwMCcsICctbWV0YWxfYmluZGluZycsICctaW1hZScsICc8aW5maWxlLm1hZT4nLCAnLW9tYWUnLCAnPG91dGZpbGUubWFlPic=

> <r_lp_tautomer_probability>
0.999

> <r_epik_Ionization_Penalty>
1.33848

> <r_epik_Ionization_Penalty_Charging>
1.33848

> <r_epik_Ionization_Penalty_Neutral>
1.5599e-06

> <r_epik_State_Penalty>
1.41551

> <r_epik_Charging_Adjusted_Penalty>
2.75399

> <i_epik_Tot_Q>
0

> <i_epik_Tot_abs_Q>
0

> <r_epik_Metal_State_Penalty>
1.47649

> <b_epik_Metal_Only>
0

> <s_lp_Force_Field>
OPLS_2005

> <r_lp_Energy>
21.6261

> <b_lp_Chiralities_Consistent>
1

> <s_lp_Variant>
AV-unprocessed.smi:333-2

> <Gold.Version>
5.8.1

> <Gold.Id.Protein>
6NUR|6NUR_protein|mol2

> <Gold.PLP.Fitness>
34.8090

> <Gold.PLP.PLP>
-25.1617

> <Gold.PLP.part.hbond>
-4.4963

> <Gold.PLP.part.metal>
0.0000

> <Gold.PLP.part.buried>
2.4676

> <Gold.PLP.part.nonpolar>
-23.0233

> <Gold.PLP.part.repulsive>
0.3427

> <Gold.PLP.ligand.clash>
0.0000

> <Gold.PLP.ligand.torsion>
0.4699

> <Gold.PLP.Chemscore.Hbond>
3.5224

> <Gold.PLP.Chemscore.CHOScore>
0.0000

> <Gold.PLP.Chemscore.Metal>
0.0000

> <Gold.Chemscore.Hbonds>
donor molecule, donor type, donor heavy atom, donor atom, acceptor molecule, acceptor atom, score
      L1  H     9    26       P1  7957  0.64
      P1  H  7989  7998       L1     9  0.15
      P1  H  7997  8010       L1    17  0.70
      P1  H  8011  8017       L1     9  1.00
      P1  H 10752 10765       L1     3  0.96

> <Gold.PLP.Chemscore.Internal.Correction>
0.0198

> <Gold.Rescore>
     Score         DG    S(hbond)    S(metal)    S(lipo)     H(rot)  DE(clash)    DE(int)     intcor
     10.91     -13.89       2.48        0.00      47.67       2.13       0.89       2.09       ----

> <Gold.Chemscore.Fitness>
10.9073

> <Gold.Chemscore.DG>
-13.8887

> <Gold.Chemscore.ZeroCoef>
-5.4800

> <Gold.Chemscore.Hbond>
2.4799

> <Gold.Chemscore.Metal>
0.0000

> <Gold.Chemscore.Lipo>
47.6664

> <Gold.Chemscore.Internal_Hbond>
0.0000

> <Gold.Chemscore.DEClash>
0.8924

> <Gold.Chemscore.DEInternal>
2.0890

> <Gold.Chemscore.Rot>
2.1294

> <Gold.Chemscore.Internal.Correction>
   9.000000E+99

> <Gold.Chemscore.Hbonds>
donor molecule, donor type, donor heavy atom, donor atom, acceptor molecule, acceptor atom, score
      L1  H     9    26       P1  7957  0.64
      P1  H  7989  7998       L1     9  0.12
      P1  H  7997  8010       L1    17  0.07
      P1  H  8011  8017       L1     9  0.25
      P1  H 10752 10765       L1     3  0.89

> <Gold.Chemscore.Hbond.Weighted>
-8.2829

> <Gold.Chemscore.Metal.Weighted>
-0.0000

> <Gold.Chemscore.Lipo.Weighted>
-5.5770

> <Gold.Chemscore.Internal_Hbond.Weighted>
0.0000

> <Gold.Chemscore.DEClash.Weighted>
0.8924

> <Gold.Chemscore.DEInternal.Weighted>
2.0890

> <Gold.Chemscore.Rot.Weighted>
5.4512

> <Gold.Chemscore.Internal.Correction.Weighted>
   9.000000E+99

> <Gold.Protein.RotatedTorsions>
[ 6907 6896 6895 6894 ] final  127.88 input  -60.11 | X-H torsion
[ 7974 7965 7964 7962 ] final -117.44 input  175.53 | X-H torsion
[ 8008 7997 7996 7995 ] final    5.82 input   59.86 | X-H torsion
[ 10167 10162 10161 10158 ] final  173.45 input  -65.29 | X-H torsion
[ 10718 10713 10712 10709 ] final   -0.97 input   66.30 | X-H torsion
[ 10763 10752 10751 10750 ] final -173.57 input  -60.55 | X-H torsion
[ 11005 11000 10999 10996 ] final   56.63 input  -57.11 | X-H torsion

> <Gold.Protein.ActiveResidues>
 VAL166  LYS551  ARG553  GLY616  TRP617  ASP618  TYR619  PRO620  LYS621  CYS622 
 ASP623  PHE694  ASN695  SER759  ASP760  ASP761  ALA762  ILE779  LEU786  VAL792 
 PHE793  MET794  SER795  GLU796  ALA797  LYS798  CYS799  TRP800  GLU811  SER814 

> <Gold.Protein.RotatedAtoms>
  152.3772  133.6497  159.6132 H   0  0  0  0  0  0  0  0  0  0  0  0  # atno 6907 bound_to 6896
  150.7713  133.9174  159.3396 H   0  0  0  0  0  0  0  0  0  0  0  0  # atno 6908 bound_to 6896
  151.6986  135.0935  160.0298 H   0  0  0  0  0  0  0  0  0  0  0  0  # atno 6909 bound_to 6896
  145.0853  140.8453  143.4015 H   0  0  0  0  0  0  0  0  0  0  0  0  # atno 7974 bound_to 7965
  154.7332  140.2734  155.6438 H   0  0  0  0  0  0  0  0  0  0  0  0  # atno 8008 bound_to 7997
  156.2855  140.2711  156.1964 H   0  0  0  0  0  0  0  0  0  0  0  0  # atno 8009 bound_to 7997
  155.0354  140.0371  157.2479 H   0  0  0  0  0  0  0  0  0  0  0  0  # atno 8010 bound_to 7997
  139.5109  144.3259  152.0158 H   0  0  0  0  0  0  0  0  0  0  0  0  # atno 10167 bound_to 10162
  156.8126  130.5429  149.5707 H   0  0  0  0  0  0  0  0  0  0  0  0  # atno 10718 bound_to 10713
  154.6063  135.2860  155.0480 H   0  0  0  0  0  0  0  0  0  0  0  0  # atno 10763 bound_to 10752
  154.1727  135.6470  153.5017 H   0  0  0  0  0  0  0  0  0  0  0  0  # atno 10764 bound_to 10752
  153.0177  135.5404  154.6801 H   0  0  0  0  0  0  0  0  0  0  0  0  # atno 10765 bound_to 10752
  140.0514  134.5732  155.9259 H   0  0  0  0  0  0  0  0  0  0  0  0  # atno 11005 bound_to 11000
  145.1130  139.2744  143.5627 LP  0  0  0  0  0  0  0  0  0  0  0  0  # atno 17320 bound_to 7965
  146.3531  140.0732  142.8622 LP  0  0  0  0  0  0  0  0  0  0  0  0  # atno 17321 bound_to 7965
  140.2699  144.3975  150.6155 LP  0  0  0  0  0  0  0  0  0  0  0  0  # atno 17342 bound_to 10162
  140.6096  143.2169  151.6913 LP  0  0  0  0  0  0  0  0  0  0  0  0  # atno 17343 bound_to 10162
  156.1036  130.5987  150.9934 LP  0  0  0  0  0  0  0  0  0  0  0  0  # atno 17370 bound_to 10713
  157.6498  131.0898  150.8075 LP  0  0  0  0  0  0  0  0  0  0  0  0  # atno 17371 bound_to 10713
  141.1932  133.6578  156.5536 LP  0  0  0  0  0  0  0  0  0  0  0  0  # atno 17394 bound_to 11000
  140.3912  134.7439  157.4722 LP  0  0  0  0  0  0  0  0  0  0  0  0  # atno 17395 bound_to 11000

$$$$
