AV-unprocessed.smi:3249|AV-procd|sdf|12424|dock7
  -GOLD-   2272018313D 1   1.00000     0.00000
 Structure written by MMmdl.
 44 45  0  0  0  0  0  0  0  0  2 V2000
  152.3627  137.7037  156.3264 C   0  0  0  0  0  0  0  0  0  0  0  0
  151.2077  138.4182  155.6859 C   0  0  0  0  0  0  0  0  0  0  0  0
  150.3132  137.9228  154.6954 C   0  0  0  0  0  0  0  0  0  0  0  0
  149.3989  138.8102  154.3394 N   0  0  0  0  0  0  0  0  0  0  0  0
  149.6731  139.9011  155.0891 N   0  0  0  0  0  0  0  0  0  0  0  0
  148.8595  141.1035  154.9603 C   0  0  1  0  0  0  0  0  0  0  0  0
  147.9750  141.0063  153.7024 C   0  0  0  0  0  0  0  0  0  0  0  0
  148.0468  141.4004  156.2497 C   0  0  1  0  0  0  0  0  0  0  0  0
  147.8568  140.1609  157.1427 C   0  0  0  0  0  0  0  0  0  0  0  0
  148.7058  142.4625  157.0426 N   0  3  0  0  0  0  0  0  0  0  0  0
  149.9813  142.0664  157.6743 C   0  0  0  0  0  0  0  0  0  0  0  0
  150.7593  143.2951  158.1652 C   0  0  1  0  0  0  0  0  0  0  0  0
  149.9460  144.1207  159.1809 C   0  0  0  0  0  0  0  0  0  0  0  0
  150.7815  145.2874  159.7200 C   0  0  0  0  0  0  0  0  0  0  0  0
  152.1137  144.7603  160.2638 C   0  0  0  0  0  0  0  0  0  0  0  0
  152.8180  143.8962  159.2059 C   0  0  0  0  0  0  0  0  0  0  0  0
  151.9575  142.8392  158.7906 O   0  0  0  0  0  0  0  0  0  0  0  0
  150.7626  139.6904  155.9088 C   0  0  0  0  0  0  0  0  0  0  0  0
  152.6317  136.7981  155.7820 H   0  0  0  0  0  0  0  0  0  0  0  0
  152.1334  137.4073  157.3498 H   0  0  0  0  0  0  0  0  0  0  0  0
  153.2537  138.3308  156.3643 H   0  0  0  0  0  0  0  0  0  0  0  0
  150.3018  136.9499  154.2266 H   0  0  0  0  0  0  0  0  0  0  0  0
  149.5539  141.9311  154.8070 H   0  0  0  0  0  0  0  0  0  0  0  0
  147.4657  141.9477  153.4965 H   0  0  0  0  0  0  0  0  0  0  0  0
  147.2136  140.2326  153.8070 H   0  0  0  0  0  0  0  0  0  0  0  0
  148.5727  140.7660  152.8224 H   0  0  0  0  0  0  0  0  0  0  0  0
  147.0503  141.7396  155.9606 H   0  0  0  0  0  0  0  0  0  0  0  0
  147.2815  139.3829  156.6405 H   0  0  0  0  0  0  0  0  0  0  0  0
  147.3167  140.4160  158.0551 H   0  0  0  0  0  0  0  0  0  0  0  0
  148.8158  139.7307  157.4334 H   0  0  0  0  0  0  0  0  0  0  0  0
  148.8936  143.2442  156.4308 H   0  0  0  0  0  0  0  0  0  0  0  0
  149.7670  141.4074  158.5165 H   0  0  0  0  0  0  0  0  0  0  0  0
  150.5810  141.4960  156.9636 H   0  0  0  0  0  0  0  0  0  0  0  0
  151.0113  143.9230  157.3085 H   0  0  0  0  0  0  0  0  0  0  0  0
  149.0339  144.5000  158.7188 H   0  0  0  0  0  0  0  0  0  0  0  0
  149.6345  143.4829  160.0095 H   0  0  0  0  0  0  0  0  0  0  0  0
  150.9690  146.0055  158.9207 H   0  0  0  0  0  0  0  0  0  0  0  0
  150.2356  145.8194  160.4995 H   0  0  0  0  0  0  0  0  0  0  0  0
  152.7546  145.5901  160.5630 H   0  0  0  0  0  0  0  0  0  0  0  0
  151.9339  144.1647  161.1599 H   0  0  0  0  0  0  0  0  0  0  0  0
  153.1142  144.4979  158.3452 H   0  0  0  0  0  0  0  0  0  0  0  0
  153.7294  143.4656  159.6209 H   0  0  0  0  0  0  0  0  0  0  0  0
  151.1286  140.4556  156.5775 H   0  0  0  0  0  0  0  0  0  0  0  0
  148.0664  142.7671  157.7624 H   0  0  0  0  0  0  0  0  0  0  0  0
  1  2  1  0  0  0  0
  1 19  1  0  0  0  0
  1 20  1  0  0  0  0
  1 21  1  0  0  0  0
  2 18  2  0  0  0  0
  2  3  1  0  0  0  0
  3  4  2  0  0  0  0
  3 22  1  0  0  0  0
  4  5  1  0  0  0  0
  5  6  1  0  0  0  0
  5 18  1  0  0  0  0
  6  7  1  0  0  0  0
  6  8  1  0  0  0  0
  6 23  1  0  0  0  0
  7 24  1  0  0  0  0
  7 25  1  0  0  0  0
  7 26  1  0  0  0  0
  8  9  1  0  0  0  0
  8 10  1  0  0  0  0
  8 27  1  0  0  0  0
  9 28  1  0  0  0  0
  9 29  1  0  0  0  0
  9 30  1  0  0  0  0
 10 11  1  0  0  0  0
 10 31  1  0  0  0  0
 10 44  1  0  0  0  0
 11 12  1  0  0  0  0
 11 32  1  0  0  0  0
 11 33  1  0  0  0  0
 12 17  1  0  0  0  0
 12 13  1  0  0  0  0
 12 34  1  0  0  0  0
 13 14  1  0  0  0  0
 13 35  1  0  0  0  0
 13 36  1  0  0  0  0
 14 15  1  0  0  0  0
 14 37  1  0  0  0  0
 14 38  1  0  0  0  0
 15 16  1  0  0  0  0
 15 39  1  0  0  0  0
 15 40  1  0  0  0  0
 16 17  1  0  0  0  0
 16 41  1  0  0  0  0
 16 42  1  0  0  0  0
 18 43  1  0  0  0  0
M  CHG  1  10   1
M  END
> <s_m_source_file>
AV-unprocessed.smi

> <i_m_source_file_index>
3249

> <i_lp_mmshare_version>
43012

> <i_f3d_flags>
0

> <s_epik_input>
W0NIM11jMVtjSF1ubihbY0hdMSlbQ0BIXShbQ0gzXSlbQ0BIXShbQ0gzXSlbTkhdW0NIMl1bQ0BASF0yW0NIMl1bQ0gyXVtDSDJdW0NIMl1PMg==

> <s_epik_cmdline>
J2VwaWtfcHl0aG9uJywgJy1waCcsICc3LjAnLCAnLXRuJywgJzgnLCAnLW1hJywgJzIwMCcsICctbWV0YWxfYmluZGluZycsICctaW1hZScsICc8aW5maWxlLm1hZT4nLCAnLW9tYWUnLCAnPG91dGZpbGUubWFlPic=

> <r_lp_tautomer_probability>
1

> <r_epik_Ionization_Penalty>
0.00659207

> <r_epik_Ionization_Penalty_Charging>
0.00656881

> <r_epik_Ionization_Penalty_Neutral>
2.32662e-05

> <r_epik_State_Penalty>
0.0048654

> <r_epik_Charging_Adjusted_Penalty>
0.0114342

> <i_epik_Tot_Q>
1

> <i_epik_Tot_abs_Q>
1

> <r_epik_Metal_State_Penalty>
-0

> <b_epik_Metal_Only>
0

> <s_lp_Force_Field>
OPLS_2005

> <r_lp_Energy>
18.7987

> <b_lp_Chiralities_Consistent>
1

> <s_lp_Variant>
AV-unprocessed.smi:3249-8

> <Gold.Version>
5.8.1

> <Gold.Id.Protein>
6NUR|6NUR_protein|mol2

> <Gold.PLP.Fitness>
45.7064

> <Gold.PLP.PLP>
-39.2057

> <Gold.PLP.part.hbond>
-1.0000

> <Gold.PLP.part.metal>
0.0000

> <Gold.PLP.part.buried>
-4.7064

> <Gold.PLP.part.nonpolar>
-34.6034

> <Gold.PLP.part.repulsive>
1.6751

> <Gold.PLP.ligand.clash>
0.0000

> <Gold.PLP.ligand.torsion>
1.4743

> <Gold.PLP.Chemscore.Hbond>
2.0000

> <Gold.PLP.Chemscore.CHOScore>
1.1200

> <Gold.PLP.Chemscore.Metal>
0.0000

> <Gold.Chemscore.Hbonds>
donor molecule, donor type, donor heavy atom, donor atom, acceptor molecule, acceptor atom, score
      L1  H    10    31       P1  8028  2.00
      L1  C     3    22       P1  7948  0.37

> <Gold.PLP.Chemscore.Internal.Correction>
0.0893

> <Gold.Rescore>
     Score         DG    S(hbond)    S(metal)    S(lipo)     H(rot)  DE(clash)    DE(int)     intcor
     15.91     -17.56       0.97        0.00     109.22       1.53       0.06       1.60       ----

> <Gold.Chemscore.Fitness>
15.9088

> <Gold.Chemscore.DG>
-17.5631

> <Gold.Chemscore.ZeroCoef>
-5.4800

> <Gold.Chemscore.Hbond>
0.9670

> <Gold.Chemscore.Metal>
0.0000

> <Gold.Chemscore.Lipo>
109.2181

> <Gold.Chemscore.Internal_Hbond>
0.0000

> <Gold.Chemscore.DEClash>
0.0580

> <Gold.Chemscore.DEInternal>
1.5963

> <Gold.Chemscore.Rot>
1.5333

> <Gold.Chemscore.Internal.Correction>
   9.000000E+99

> <Gold.Chemscore.Hbonds>
donor molecule, donor type, donor heavy atom, donor atom, acceptor molecule, acceptor atom, score
      L1  H    10    31       P1  8028  0.97

> <Gold.Chemscore.Hbond.Weighted>
-3.2298

> <Gold.Chemscore.Metal.Weighted>
-0.0000

> <Gold.Chemscore.Lipo.Weighted>
-12.7785

> <Gold.Chemscore.Internal_Hbond.Weighted>
0.0000

> <Gold.Chemscore.DEClash.Weighted>
0.0580

> <Gold.Chemscore.DEInternal.Weighted>
1.5963

> <Gold.Chemscore.Rot.Weighted>
3.9252

> <Gold.Chemscore.Internal.Correction.Weighted>
   9.000000E+99

> <Gold.Protein.RotatedTorsions>
[ 6907 6896 6895 6894 ] final  128.08 input  -60.11 | X-H torsion
[ 7974 7965 7964 7962 ] final    8.23 input  175.53 | X-H torsion
[ 8008 7997 7996 7995 ] final  -15.86 input   59.86 | X-H torsion
[ 10167 10162 10161 10158 ] final   -4.50 input  -65.29 | X-H torsion
[ 10718 10713 10712 10709 ] final  156.98 input   66.30 | X-H torsion
[ 10763 10752 10751 10750 ] final  127.06 input  -60.55 | X-H torsion
[ 11005 11000 10999 10996 ] final   61.09 input  -57.11 | X-H torsion

> <Gold.Protein.ActiveResidues>
 VAL166  LYS551  ARG553  GLY616  TRP617  ASP618  TYR619  PRO620  LYS621  CYS622 
 ASP623  PHE694  ASN695  SER759  ASP760  ASP761  ALA762  ILE779  LEU786  VAL792 
 PHE793  MET794  SER795  GLU796  ALA797  LYS798  CYS799  TRP800  GLU811  SER814 

> <Gold.Protein.RotatedAtoms>
  152.3753  133.6473  159.6118 H   0  0  0  0  0  0  0  0  0  0  0  0  # atno 6907 bound_to 6896
  150.7699  133.9204  159.3405 H   0  0  0  0  0  0  0  0  0  0  0  0  # atno 6908 bound_to 6896
  151.7019  135.0929  160.0303 H   0  0  0  0  0  0  0  0  0  0  0  0  # atno 6909 bound_to 6896
  146.2418  139.9964  142.8420 H   0  0  0  0  0  0  0  0  0  0  0  0  # atno 7974 bound_to 7965
  154.5097  140.2185  155.9180 H   0  0  0  0  0  0  0  0  0  0  0  0  # atno 8008 bound_to 7997
  156.1537  140.3156  155.8657 H   0  0  0  0  0  0  0  0  0  0  0  0  # atno 8009 bound_to 7997
  155.3888  140.0477  157.3032 H   0  0  0  0  0  0  0  0  0  0  0  0  # atno 8010 bound_to 7997
  140.6930  143.6416  150.8430 H   0  0  0  0  0  0  0  0  0  0  0  0  # atno 10167 bound_to 10162
  157.1977  131.0669  151.2043 H   0  0  0  0  0  0  0  0  0  0  0  0  # atno 10718 bound_to 10713
  153.7034  135.3280  155.3230 H   0  0  0  0  0  0  0  0  0  0  0  0  # atno 10763 bound_to 10752
  154.8406  135.4459  154.1388 H   0  0  0  0  0  0  0  0  0  0  0  0  # atno 10764 bound_to 10752
  153.2461  135.6976  153.7808 H   0  0  0  0  0  0  0  0  0  0  0  0  # atno 10765 bound_to 10752
  140.0186  134.6187  155.9673 H   0  0  0  0  0  0  0  0  0  0  0  0  # atno 11005 bound_to 11000
  145.1456  140.9595  143.4463 LP  0  0  0  0  0  0  0  0  0  0  0  0  # atno 17320 bound_to 7965
  145.0254  139.3387  143.6051 LP  0  0  0  0  0  0  0  0  0  0  0  0  # atno 17321 bound_to 7965
  140.0131  143.5621  152.2831 LP  0  0  0  0  0  0  0  0  0  0  0  0  # atno 17342 bound_to 10162
  139.6352  144.7649  151.2452 LP  0  0  0  0  0  0  0  0  0  0  0  0  # atno 17343 bound_to 10162
  157.3798  130.7225  149.6622 LP  0  0  0  0  0  0  0  0  0  0  0  0  # atno 17370 bound_to 10713
  155.9704  130.4175  150.4284 LP  0  0  0  0  0  0  0  0  0  0  0  0  # atno 17371 bound_to 10713
  141.1759  133.6540  156.4827 LP  0  0  0  0  0  0  0  0  0  0  0  0  # atno 17394 bound_to 11000
  140.4427  134.7000  157.5000 LP  0  0  0  0  0  0  0  0  0  0  0  0  # atno 17395 bound_to 11000

$$$$
