AV-unprocessed.smi:702|AV-procd|sdf|3416|dock2
  -GOLD-   22720 0403D 1   1.00000     0.00000
 Structure written by MMmdl.
 50 52  0  0  0  0  0  0  0  0  2 V2000
  147.5287  139.6490  151.7217 C   0  0  0  0  0  0  0  0  0  0  0  0
  147.0625  139.3086  153.1555 C   0  0  2  0  0  0  0  0  0  0  0  0
  145.6170  139.0635  153.1216 N   0  0  0  0  0  0  0  0  0  0  0  0
  145.0004  137.8776  153.2347 C   0  0  0  0  0  0  0  0  0  0  0  0
  145.5994  136.8162  153.3971 O   0  0  0  0  0  0  0  0  0  0  0  0
  143.6660  138.0208  153.1522 N   0  0  0  0  0  0  0  0  0  0  0  0
  142.6386  137.0404  153.2467 C   0  0  0  0  0  0  0  0  0  0  0  0
  141.3577  137.4852  153.6354 C   0  0  0  0  0  0  0  0  0  0  0  0
  140.3141  136.5453  153.7486 C   0  0  0  0  0  0  0  0  0  0  0  0
  140.4743  135.2279  153.5064 N   0  0  0  0  0  0  0  0  0  0  0  0
  141.7005  134.8011  153.1389 C   0  0  0  0  0  0  0  0  0  0  0  0
  142.8118  135.6565  152.9971 C   0  0  0  0  0  0  0  0  0  0  0  0
  147.4318  140.3530  154.2776 C   0  0  0  0  0  0  0  0  0  0  0  0
  148.9131  140.2759  154.5846 N   0  3  0  0  0  0  0  0  0  0  0  0
  149.3431  140.9550  155.8436 C   0  0  0  0  0  0  0  0  0  0  0  0
  150.8768  141.0144  155.9244 C   0  0  0  0  0  0  0  0  0  0  0  0
  151.4021  139.6955  155.8889 O   0  0  0  0  0  0  0  0  0  0  0  0
  151.0687  139.0303  154.6794 C   0  0  0  0  0  0  0  0  0  0  0  0
  149.5399  138.9202  154.5455 C   0  0  0  0  0  0  0  0  0  0  0  0
  147.0287  141.8042  153.8802 C   0  0  0  0  0  0  0  0  0  0  0  0
  145.7801  142.1546  154.6917 C   0  0  0  0  0  0  0  0  0  0  0  0
  145.9692  141.3895  155.9958 C   0  0  0  0  0  0  0  0  0  0  0  0
  146.5642  140.0555  155.5442 C   0  0  0  0  0  0  0  0  0  0  0  0
  148.6085  139.7775  151.6613 H   0  0  0  0  0  0  0  0  0  0  0  0
  147.0662  140.5480  151.3178 H   0  0  0  0  0  0  0  0  0  0  0  0
  147.2769  138.8357  151.0402 H   0  0  0  0  0  0  0  0  0  0  0  0
  147.5708  138.3683  153.3563 H   0  0  0  0  0  0  0  0  0  0  0  0
  145.0340  139.8769  152.9857 H   0  0  0  0  0  0  0  0  0  0  0  0
  143.3378  138.9606  152.9846 H   0  0  0  0  0  0  0  0  0  0  0  0
  141.1708  138.5288  153.8434 H   0  0  0  0  0  0  0  0  0  0  0  0
  139.3242  136.8610  154.0429 H   0  0  0  0  0  0  0  0  0  0  0  0
  141.8012  133.7418  152.9543 H   0  0  0  0  0  0  0  0  0  0  0  0
  143.7570  135.2277  152.7068 H   0  0  0  0  0  0  0  0  0  0  0  0
  148.9710  141.9719  155.9214 H   0  0  0  0  0  0  0  0  0  0  0  0
  148.9604  140.4229  156.7147 H   0  0  0  0  0  0  0  0  0  0  0  0
  151.2896  141.6108  155.1091 H   0  0  0  0  0  0  0  0  0  0  0  0
  151.1857  141.4905  156.8552 H   0  0  0  0  0  0  0  0  0  0  0  0
  151.4970  139.5610  153.8273 H   0  0  0  0  0  0  0  0  0  0  0  0
  151.5161  138.0363  154.6915 H   0  0  0  0  0  0  0  0  0  0  0  0
  149.1493  138.2981  155.3508 H   0  0  0  0  0  0  0  0  0  0  0  0
  149.3417  138.3862  153.6203 H   0  0  0  0  0  0  0  0  0  0  0  0
  147.7969  142.5248  154.1558 H   0  0  0  0  0  0  0  0  0  0  0  0
  146.8767  141.9318  152.8085 H   0  0  0  0  0  0  0  0  0  0  0  0
  145.6701  143.2282  154.8479 H   0  0  0  0  0  0  0  0  0  0  0  0
  144.8850  141.7998  154.1794 H   0  0  0  0  0  0  0  0  0  0  0  0
  146.6729  141.9189  156.6392 H   0  0  0  0  0  0  0  0  0  0  0  0
  145.0377  141.2676  156.5491 H   0  0  0  0  0  0  0  0  0  0  0  0
  145.7246  139.4059  155.3080 H   0  0  0  0  0  0  0  0  0  0  0  0
  147.0805  139.5192  156.3384 H   0  0  0  0  0  0  0  0  0  0  0  0
  149.3531  140.7913  153.8355 H   0  0  0  0  0  0  0  0  0  0  0  0
  1  2  1  0  0  0  0
  1 24  1  0  0  0  0
  1 25  1  0  0  0  0
  1 26  1  0  0  0  0
  2  3  1  0  0  0  0
  2 13  1  0  0  0  0
  2 27  1  0  0  0  0
  3  4  1  0  0  0  0
  3 28  1  0  0  0  0
  4  5  2  0  0  0  0
  4  6  1  0  0  0  0
  6  7  1  0  0  0  0
  6 29  1  0  0  0  0
  7 12  1  0  0  0  0
  7  8  2  0  0  0  0
  8  9  1  0  0  0  0
  8 30  1  0  0  0  0
  9 10  2  0  0  0  0
  9 31  1  0  0  0  0
 10 11  1  0  0  0  0
 11 12  2  0  0  0  0
 11 32  1  0  0  0  0
 12 33  1  0  0  0  0
 13 23  1  0  0  0  0
 13 14  1  0  0  0  0
 13 20  1  0  0  0  0
 14 19  1  0  0  0  0
 14 15  1  0  0  0  0
 14 50  1  0  0  0  0
 15 16  1  0  0  0  0
 15 34  1  0  0  0  0
 15 35  1  0  0  0  0
 16 17  1  0  0  0  0
 16 36  1  0  0  0  0
 16 37  1  0  0  0  0
 17 18  1  0  0  0  0
 18 19  1  0  0  0  0
 18 38  1  0  0  0  0
 18 39  1  0  0  0  0
 19 40  1  0  0  0  0
 19 41  1  0  0  0  0
 20 21  1  0  0  0  0
 20 42  1  0  0  0  0
 20 43  1  0  0  0  0
 21 22  1  0  0  0  0
 21 44  1  0  0  0  0
 21 45  1  0  0  0  0
 22 23  1  0  0  0  0
 22 46  1  0  0  0  0
 22 47  1  0  0  0  0
 23 48  1  0  0  0  0
 23 49  1  0  0  0  0
M  CHG  1  14   1
M  END
> <s_m_source_file>
AV-unprocessed.smi

> <i_m_source_file_index>
702

> <i_lp_mmshare_version>
43012

> <i_f3d_flags>
0

> <s_epik_input>
W0NIMl0xW0NIMl1PW0NIMl1bQ0gyXU4xQzIoW0NIMl1bQ0gyXVtDSDJdW0NIMl0yKVtDQEhdKFtDSDNdKVtOSF1DKD1PKVtOSF1jM1tjSF1bY0hdbltjSF1bY0hdMw==

> <s_epik_cmdline>
J2VwaWtfcHl0aG9uJywgJy1waCcsICc3LjAnLCAnLXRuJywgJzgnLCAnLW1hJywgJzIwMCcsICctbWV0YWxfYmluZGluZycsICctaW1hZScsICc8aW5maWxlLm1hZT4nLCAnLW9tYWUnLCAnPG91dGZpbGUubWFlPic=

> <r_epik_Ionization_Penalty>
0.42559

> <r_epik_Ionization_Penalty_Charging>
0.324387

> <r_epik_Ionization_Penalty_Neutral>
0.101203

> <r_epik_State_Penalty>
0.407162

> <r_epik_Charging_Adjusted_Penalty>
0.731549

> <i_epik_Tot_Q>
1

> <i_epik_Tot_abs_Q>
1

> <r_epik_Metal_State_Penalty>
0.398289

> <b_epik_Metal_Only>
0

> <s_lp_Force_Field>
OPLS_2005

> <r_lp_Energy>
61.5271

> <b_lp_Chiralities_Consistent>
1

> <s_lp_Variant>
AV-unprocessed.smi:702-1

> <Gold.Version>
5.8.1

> <Gold.Id.Protein>
6NUR|6NUR_protein|mol2

> <Gold.PLP.Fitness>
45.2784

> <Gold.PLP.PLP>
-35.2186

> <Gold.PLP.part.hbond>
-3.8130

> <Gold.PLP.part.metal>
0.0000

> <Gold.PLP.part.buried>
-0.7133

> <Gold.PLP.part.nonpolar>
-31.0336

> <Gold.PLP.part.repulsive>
0.4158

> <Gold.PLP.ligand.clash>
0.0000

> <Gold.PLP.ligand.torsion>
1.0059

> <Gold.PLP.Chemscore.Hbond>
2.9673

> <Gold.PLP.Chemscore.CHOScore>
1.0000

> <Gold.PLP.Chemscore.Metal>
0.0000

> <Gold.Chemscore.Hbonds>
donor molecule, donor type, donor heavy atom, donor atom, acceptor molecule, acceptor atom, score
      L1  H     3    28       P1 10175  0.96
      L1  H     6    29       P1 10175  0.99
      P1  H 11000 11005       L1    10  0.08
      L1  C    11    32       P1 10957  0.30

> <Gold.PLP.Chemscore.Internal.Correction>
0.1698

> <Gold.Rescore>
     Score         DG    S(hbond)    S(metal)    S(lipo)     H(rot)  DE(clash)    DE(int)     intcor
     15.48     -19.57       2.16        0.00      90.42       1.45       2.05       2.03       ----

> <Gold.Chemscore.Fitness>
15.4831

> <Gold.Chemscore.DG>
-19.5677

> <Gold.Chemscore.ZeroCoef>
-5.4800

> <Gold.Chemscore.Hbond>
2.1622

> <Gold.Chemscore.Metal>
0.0000

> <Gold.Chemscore.Lipo>
90.4184

> <Gold.Chemscore.Internal_Hbond>
0.0000

> <Gold.Chemscore.DEClash>
2.0520

> <Gold.Chemscore.DEInternal>
2.0326

> <Gold.Chemscore.Rot>
1.4504

> <Gold.Chemscore.Internal.Correction>
   9.000000E+99

> <Gold.Chemscore.Hbonds>
donor molecule, donor type, donor heavy atom, donor atom, acceptor molecule, acceptor atom, score
      L1  H     3    28       P1 10175  0.89
      L1  H     6    29       P1 10175  0.92
      P1  H 11000 11005       L1    10  0.01

> <Gold.Chemscore.Hbond.Weighted>
-7.2217

> <Gold.Chemscore.Metal.Weighted>
-0.0000

> <Gold.Chemscore.Lipo.Weighted>
-10.5790

> <Gold.Chemscore.Internal_Hbond.Weighted>
0.0000

> <Gold.Chemscore.DEClash.Weighted>
2.0520

> <Gold.Chemscore.DEInternal.Weighted>
2.0326

> <Gold.Chemscore.Rot.Weighted>
3.7129

> <Gold.Chemscore.Internal.Correction.Weighted>
   9.000000E+99

> <Gold.Protein.RotatedTorsions>
[ 6907 6896 6895 6894 ] final -159.98 input  -60.11 | X-H torsion
[ 7974 7965 7964 7962 ] final -173.69 input  175.53 | X-H torsion
[ 8008 7997 7996 7995 ] final  -98.92 input   59.86 | X-H torsion
[ 10167 10162 10161 10158 ] final  -97.57 input  -65.29 | X-H torsion
[ 10718 10713 10712 10709 ] final -172.42 input   66.30 | X-H torsion
[ 10763 10752 10751 10750 ] final   74.61 input  -60.55 | X-H torsion
[ 11005 11000 10999 10996 ] final   39.05 input  -57.11 | X-H torsion

> <Gold.Protein.ActiveResidues>
 VAL166  LYS551  ARG553  GLY616  TRP617  ASP618  TYR619  PRO620  LYS621  CYS622 
 ASP623  PHE694  ASN695  SER759  ASP760  ASP761  ALA762  ILE779  LEU786  VAL792 
 PHE793  MET794  SER795  GLU796  ALA797  LYS798  CYS799  TRP800  GLU811  SER814 

> <Gold.Protein.RotatedAtoms>
  151.3420  133.3958  159.2671 H   0  0  0  0  0  0  0  0  0  0  0  0  # atno 6907 bound_to 6896
  150.9870  134.9214  159.7888 H   0  0  0  0  0  0  0  0  0  0  0  0  # atno 6908 bound_to 6896
  152.5235  134.3385  159.9261 H   0  0  0  0  0  0  0  0  0  0  0  0  # atno 6909 bound_to 6896
  144.7136  140.1584  143.6378 H   0  0  0  0  0  0  0  0  0  0  0  0  # atno 7974 bound_to 7965
  154.8078  140.0451  157.1320 H   0  0  0  0  0  0  0  0  0  0  0  0  # atno 8008 bound_to 7997
  154.9404  140.3052  155.5104 H   0  0  0  0  0  0  0  0  0  0  0  0  # atno 8009 bound_to 7997
  156.2968  140.2306  156.4472 H   0  0  0  0  0  0  0  0  0  0  0  0  # atno 8010 bound_to 7997
  140.2820  143.3276  152.0431 H   0  0  0  0  0  0  0  0  0  0  0  0  # atno 10167 bound_to 10162
  156.7553  130.9393  151.3116 H   0  0  0  0  0  0  0  0  0  0  0  0  # atno 10718 bound_to 10713
  153.0598  135.5019  154.8068 H   0  0  0  0  0  0  0  0  0  0  0  0  # atno 10763 bound_to 10752
  154.6865  135.2977  154.9542 H   0  0  0  0  0  0  0  0  0  0  0  0  # atno 10764 bound_to 10752
  154.0310  135.6729  153.4833 H   0  0  0  0  0  0  0  0  0  0  0  0  # atno 10765 bound_to 10752
  140.2066  134.3805  155.8069 H   0  0  0  0  0  0  0  0  0  0  0  0  # atno 11005 bound_to 11000
  145.9052  139.2454  143.1470 LP  0  0  0  0  0  0  0  0  0  0  0  0  # atno 17320 bound_to 7965
  145.9771  140.8713  143.0133 LP  0  0  0  0  0  0  0  0  0  0  0  0  # atno 17321 bound_to 7965
  139.4960  144.6585  151.6518 LP  0  0  0  0  0  0  0  0  0  0  0  0  # atno 17342 bound_to 10162
  140.5804  143.9956  150.6265 LP  0  0  0  0  0  0  0  0  0  0  0  0  # atno 17343 bound_to 10162
  157.6759  130.9094  150.0149 LP  0  0  0  0  0  0  0  0  0  0  0  0  # atno 17370 bound_to 10713
  156.1375  130.3642  149.9635 LP  0  0  0  0  0  0  0  0  0  0  0  0  # atno 17371 bound_to 10713
  141.2227  133.7121  156.8348 LP  0  0  0  0  0  0  0  0  0  0  0  0  # atno 17394 bound_to 11000
  140.1996  134.8907  157.3153 LP  0  0  0  0  0  0  0  0  0  0  0  0  # atno 17395 bound_to 11000

$$$$
