AV-unprocessed.smi:240|AV-procd|sdf|1827|dock3
  -GOLD-   2262020423D 1   1.00000     0.00000
 Structure written by MMmdl.
 55 59  0  0  0  0  0  0  0  0  1 V2000
  149.7041  143.6698  158.2070 O   0  0  0  0  0  0  0  0  0  0  0  0
  150.9315  143.0537  157.8720 C   0  0  1  0  0  0  0  0  0  0  0  0
  152.0133  143.4420  158.8960 C   0  0  0  0  0  0  0  0  0  0  0  0
  152.3264  142.1687  159.6830 C   0  0  0  0  0  0  0  0  0  0  0  0
  152.0595  141.0434  158.6878 C   0  0  0  0  0  0  0  0  0  0  0  0
  150.8066  141.5111  157.9328 C   0  0  2  0  0  0  0  0  0  0  0  0
  150.5342  140.7778  156.5814 C   0  0  2  0  0  0  0  0  0  0  0  0
  150.1754  141.7445  155.4211 C   0  0  0  0  0  0  0  0  0  0  0  0
  149.9164  141.0208  154.2247 O   0  0  0  0  0  0  0  0  0  0  0  0
  148.8069  140.1467  154.3694 C   0  0  0  0  0  0  0  0  0  0  0  0
  149.1459  139.0997  155.4360 C   0  0  0  0  0  0  0  0  0  0  0  0
  149.4923  139.7448  156.6982 N   0  0  0  0  0  0  0  0  0  0  0  0
  149.6496  138.8035  157.6588 C   0  0  0  0  0  0  0  0  0  0  0  0
  150.8632  138.6080  158.2395 N   0  0  0  0  0  0  0  0  0  0  0  0
  151.0086  137.6711  159.1817 C   0  0  0  0  0  0  0  0  0  0  0  0
  150.0936  136.8328  159.6743 N   0  0  0  0  0  0  0  0  0  0  0  0
  148.8794  137.0178  159.0805 C   0  0  0  0  0  0  0  0  0  0  0  0
  148.5754  137.9724  158.0710 C   0  0  0  0  0  0  0  0  0  0  0  0
  147.2377  137.8794  157.7106 N   0  0  0  0  0  0  0  0  0  0  0  0
  146.7740  136.9231  158.4684 C   0  0  0  0  0  0  0  0  0  0  0  0
  147.6937  136.3424  159.3140 N   0  0  0  0  0  0  0  0  0  0  0  0
  147.4525  135.2621  160.2586 C   0  0  0  0  0  0  0  0  0  0  0  0
  146.8095  135.7291  161.5861 C   0  0  1  0  0  0  0  0  0  0  0  0
  146.4037  134.5931  162.3299 O   0  0  0  0  0  0  0  0  0  0  0  0
  147.7602  136.5519  162.4459 C   0  0  0  0  0  0  0  0  0  0  0  0
  146.8126  137.4481  163.2312 C   0  0  0  0  0  0  0  0  0  0  0  0
  145.8289  137.7897  162.2693 O   0  0  0  0  0  0  0  0  0  0  0  0
  145.5948  136.6664  161.4246 C   0  0  0  0  0  0  0  0  0  0  0  0
  149.8458  144.6015  158.2815 H   0  0  0  0  0  0  0  0  0  0  0  0
  151.2237  143.4079  156.8849 H   0  0  0  0  0  0  0  0  0  0  0  0
  152.9098  143.7614  158.3633 H   0  0  0  0  0  0  0  0  0  0  0  0
  151.7186  144.2654  159.5481 H   0  0  0  0  0  0  0  0  0  0  0  0
  153.3451  142.1551  160.0714 H   0  0  0  0  0  0  0  0  0  0  0  0
  151.6442  142.0810  160.5298 H   0  0  0  0  0  0  0  0  0  0  0  0
  152.9209  140.9538  158.0281 H   0  0  0  0  0  0  0  0  0  0  0  0
  151.9153  140.0800  159.1776 H   0  0  0  0  0  0  0  0  0  0  0  0
  149.9895  141.2795  158.6175 H   0  0  0  0  0  0  0  0  0  0  0  0
  151.4565  140.2711  156.2931 H   0  0  0  0  0  0  0  0  0  0  0  0
  149.3098  142.3637  155.6553 H   0  0  0  0  0  0  0  0  0  0  0  0
  150.9993  142.4233  155.2085 H   0  0  0  0  0  0  0  0  0  0  0  0
  147.9092  140.7064  154.6371 H   0  0  0  0  0  0  0  0  0  0  0  0
  148.6099  139.6603  153.4141 H   0  0  0  0  0  0  0  0  0  0  0  0
  148.2937  138.4324  155.5751 H   0  0  0  0  0  0  0  0  0  0  0  0
  149.9826  138.4861  155.0984 H   0  0  0  0  0  0  0  0  0  0  0  0
  151.9997  137.5795  159.6005 H   0  0  0  0  0  0  0  0  0  0  0  0
  145.7399  136.6134  158.4289 H   0  0  0  0  0  0  0  0  0  0  0  0
  146.8175  134.5187  159.7747 H   0  0  0  0  0  0  0  0  0  0  0  0
  148.4042  134.7672  160.4562 H   0  0  0  0  0  0  0  0  0  0  0  0
  146.1629  133.9083  161.7248 H   0  0  0  0  0  0  0  0  0  0  0  0
  148.4107  135.9507  163.0824 H   0  0  0  0  0  0  0  0  0  0  0  0
  148.3966  137.1750  161.8159 H   0  0  0  0  0  0  0  0  0  0  0  0
  146.3480  136.9023  164.0536 H   0  0  0  0  0  0  0  0  0  0  0  0
  147.3038  138.3326  163.6368 H   0  0  0  0  0  0  0  0  0  0  0  0
  145.4909  137.0346  160.4044 H   0  0  0  0  0  0  0  0  0  0  0  0
  144.6561  136.1792  161.6929 H   0  0  0  0  0  0  0  0  0  0  0  0
  1  2  1  0  0  0  0
  1 29  1  0  0  0  0
  2  6  1  0  0  0  0
  2  3  1  0  0  0  0
  2 30  1  0  0  0  0
  3  4  1  0  0  0  0
  3 31  1  0  0  0  0
  3 32  1  0  0  0  0
  4  5  1  0  0  0  0
  4 33  1  0  0  0  0
  4 34  1  0  0  0  0
  5  6  1  0  0  0  0
  5 35  1  0  0  0  0
  5 36  1  0  0  0  0
  6  7  1  0  0  0  0
  6 37  1  0  0  0  0
  7 12  1  0  0  0  0
  7  8  1  0  0  0  0
  7 38  1  0  0  0  0
  8  9  1  0  0  0  0
  8 39  1  0  0  0  0
  8 40  1  0  0  0  0
  9 10  1  0  0  0  0
 10 11  1  0  0  0  0
 10 41  1  0  0  0  0
 10 42  1  0  0  0  0
 11 12  1  0  0  0  0
 11 43  1  0  0  0  0
 11 44  1  0  0  0  0
 12 13  1  0  0  0  0
 13 18  1  0  0  0  0
 13 14  2  0  0  0  0
 14 15  1  0  0  0  0
 15 16  2  0  0  0  0
 15 45  1  0  0  0  0
 16 17  1  0  0  0  0
 17 21  1  0  0  0  0
 17 18  2  0  0  0  0
 18 19  1  0  0  0  0
 19 20  2  0  0  0  0
 20 21  1  0  0  0  0
 20 46  1  0  0  0  0
 21 22  1  0  0  0  0
 22 23  1  0  0  0  0
 22 47  1  0  0  0  0
 22 48  1  0  0  0  0
 23 28  1  0  0  0  0
 23 24  1  0  0  0  0
 23 25  1  0  0  0  0
 24 49  1  0  0  0  0
 25 26  1  0  0  0  0
 25 50  1  0  0  0  0
 25 51  1  0  0  0  0
 26 27  1  0  0  0  0
 26 52  1  0  0  0  0
 26 53  1  0  0  0  0
 27 28  1  0  0  0  0
 28 54  1  0  0  0  0
 28 55  1  0  0  0  0
M  END
> <s_m_source_file>
AV-unprocessed.smi

> <i_m_source_file_index>
240

> <i_lp_mmshare_version>
43012

> <i_f3d_flags>
0

> <s_epik_input>
W09IXVtDQEBIXTFbQ0gyXVtDSDJdW0NIMl1bQ0BIXTFbQ0BASF0yW0NIMl1PW0NIMl1bQ0gyXU4yYyhuW2NIXW4zKWMoYzM0KW5bY0hdbjRbQ0gyXVtDQEBdNShbT0hdKVtDSDJdW0NIMl1PW0NIMl01

> <s_epik_cmdline>
J2VwaWtfcHl0aG9uJywgJy1waCcsICc3LjAnLCAnLXRuJywgJzgnLCAnLW1hJywgJzIwMCcsICctbWV0YWxfYmluZGluZycsICctaW1hZScsICc8aW5maWxlLm1hZT4nLCAnLW9tYWUnLCAnPG91dGZpbGUubWFlPic=

> <r_lp_tautomer_probability>
1

> <r_epik_Ionization_Penalty>
0.000130618

> <r_epik_Ionization_Penalty_Charging>
0

> <r_epik_Ionization_Penalty_Neutral>
0.000130618

> <r_epik_State_Penalty>
-0

> <r_epik_Charging_Adjusted_Penalty>
0

> <i_epik_Tot_Q>
0

> <i_epik_Tot_abs_Q>
0

> <r_epik_Metal_State_Penalty>
-0

> <b_epik_Metal_Only>
0

> <s_lp_Force_Field>
OPLS_2005

> <r_lp_Energy>
61.8297

> <b_lp_Chiralities_Consistent>
1

> <s_lp_Variant>
AV-unprocessed.smi:240-4

> <Gold.Version>
5.8.1

> <Gold.Id.Protein>
6NUR|6NUR_protein|mol2

> <Gold.PLP.Fitness>
46.8231

> <Gold.PLP.PLP>
-44.5844

> <Gold.PLP.part.hbond>
-5.4797

> <Gold.PLP.part.metal>
0.0000

> <Gold.PLP.part.buried>
-3.5184

> <Gold.PLP.part.nonpolar>
-34.8232

> <Gold.PLP.part.repulsive>
0.1640

> <Gold.PLP.ligand.clash>
0.0000

> <Gold.PLP.ligand.torsion>
1.8965

> <Gold.PLP.Chemscore.Hbond>
1.9227

> <Gold.PLP.Chemscore.CHOScore>
0.0000

> <Gold.PLP.Chemscore.Metal>
0.0000

> <Gold.Chemscore.Hbonds>
donor molecule, donor type, donor heavy atom, donor atom, acceptor molecule, acceptor atom, score
      P1  H  6896  6908       L1    16  0.99
      P1  H  6934  6947       L1    27  0.25
      P1  H  7989  7998       L1     9  0.53
      P1  H  8011  8017       L1     9  0.16

> <Gold.PLP.Chemscore.Internal.Correction>
0.2638

> <Gold.Rescore>
     Score         DG    S(hbond)    S(metal)    S(lipo)     H(rot)  DE(clash)    DE(int)     intcor
      9.43     -15.14       1.25        0.00     112.68       3.00       1.07       4.64       ----

> <Gold.Chemscore.Fitness>
9.4324

> <Gold.Chemscore.DG>
-15.1424

> <Gold.Chemscore.ZeroCoef>
-5.4800

> <Gold.Chemscore.Hbond>
1.2480

> <Gold.Chemscore.Metal>
0.0000

> <Gold.Chemscore.Lipo>
112.6835

> <Gold.Chemscore.Internal_Hbond>
0.0000

> <Gold.Chemscore.DEClash>
1.0737

> <Gold.Chemscore.DEInternal>
4.6364

> <Gold.Chemscore.Rot>
3.0039

> <Gold.Chemscore.Internal.Correction>
   9.000000E+99

> <Gold.Chemscore.Hbonds>
donor molecule, donor type, donor heavy atom, donor atom, acceptor molecule, acceptor atom, score
      P1  H  6896  6908       L1    16  0.51
      P1  H  6934  6947       L1    27  0.01
      P1  H  7989  7998       L1     9  0.18
      P1  H  8011  8017       L1     9  0.12

> <Gold.Chemscore.Hbond.Weighted>
-4.1683

> <Gold.Chemscore.Metal.Weighted>
-0.0000

> <Gold.Chemscore.Lipo.Weighted>
-13.1840

> <Gold.Chemscore.Internal_Hbond.Weighted>
0.0000

> <Gold.Chemscore.DEClash.Weighted>
1.0737

> <Gold.Chemscore.DEInternal.Weighted>
4.6364

> <Gold.Chemscore.Rot.Weighted>
7.6899

> <Gold.Chemscore.Internal.Correction.Weighted>
   9.000000E+99

> <Gold.Protein.RotatedTorsions>
[ 6907 6896 6895 6894 ] final -154.46 input  -60.11 | X-H torsion
[ 7974 7965 7964 7962 ] final   93.17 input  175.53 | X-H torsion
[ 8008 7997 7996 7995 ] final   74.53 input   59.86 | X-H torsion
[ 10167 10162 10161 10158 ] final  -78.89 input  -65.29 | X-H torsion
[ 10718 10713 10712 10709 ] final   88.84 input   66.30 | X-H torsion
[ 10763 10752 10751 10750 ] final  164.92 input  -60.55 | X-H torsion
[ 11005 11000 10999 10996 ] final  130.33 input  -57.11 | X-H torsion

> <Gold.Protein.ActiveResidues>
 VAL166  LYS551  ARG553  GLY616  TRP617  ASP618  TYR619  PRO620  LYS621  CYS622 
 ASP623  PHE694  ASN695  SER759  ASP760  ASP761  ALA762  ILE779  LEU786  VAL792 
 PHE793  MET794  SER795  GLU796  ALA797  LYS798  CYS799  TRP800  GLU811  SER814 

> <Gold.Protein.RotatedAtoms>
  151.2578  133.4317  159.2614 H   0  0  0  0  0  0  0  0  0  0  0  0  # atno 6907 bound_to 6896
  151.0559  134.9704  159.8245 H   0  0  0  0  0  0  0  0  0  0  0  0  # atno 6908 bound_to 6896
  152.5390  134.2530  159.8959 H   0  0  0  0  0  0  0  0  0  0  0  0  # atno 6909 bound_to 6896
  145.4826  139.2278  143.2874 H   0  0  0  0  0  0  0  0  0  0  0  0  # atno 7974 bound_to 7965
  155.7997  140.3476  155.5395 H   0  0  0  0  0  0  0  0  0  0  0  0  # atno 8008 bound_to 7997
  155.8551  140.0962  157.1670 H   0  0  0  0  0  0  0  0  0  0  0  0  # atno 8009 bound_to 7997
  154.4009  140.1369  156.3879 H   0  0  0  0  0  0  0  0  0  0  0  0  # atno 8010 bound_to 7997
  140.4642  143.2445  151.8303 H   0  0  0  0  0  0  0  0  0  0  0  0  # atno 10167 bound_to 10162
  157.6952  131.0310  150.3335 H   0  0  0  0  0  0  0  0  0  0  0  0  # atno 10718 bound_to 10713
  154.3162  135.2756  155.2542 H   0  0  0  0  0  0  0  0  0  0  0  0  # atno 10763 bound_to 10752
  154.4915  135.5832  153.6466 H   0  0  0  0  0  0  0  0  0  0  0  0  # atno 10764 bound_to 10752
  152.9882  135.6136  154.3343 H   0  0  0  0  0  0  0  0  0  0  0  0  # atno 10765 bound_to 10752
  139.9666  134.9589  156.9278 H   0  0  0  0  0  0  0  0  0  0  0  0  # atno 11005 bound_to 11000
  146.2332  140.5613  142.8966 LP  0  0  0  0  0  0  0  0  0  0  0  0  # atno 17320 bound_to 7965
  144.7880  140.5975  143.6560 LP  0  0  0  0  0  0  0  0  0  0  0  0  # atno 17321 bound_to 7965
  139.4810  144.4971  151.9110 LP  0  0  0  0  0  0  0  0  0  0  0  0  # atno 17342 bound_to 10162
  140.4056  144.2436  150.5891 LP  0  0  0  0  0  0  0  0  0  0  0  0  # atno 17343 bound_to 10162
  156.3805  130.3879  149.7105 LP  0  0  0  0  0  0  0  0  0  0  0  0  # atno 17370 bound_to 10713
  156.4489  130.7897  151.2918 LP  0  0  0  0  0  0  0  0  0  0  0  0  # atno 17371 bound_to 10713
  140.5384  134.0745  155.7334 LP  0  0  0  0  0  0  0  0  0  0  0  0  # atno 17394 bound_to 11000
  141.1345  133.9244  157.2463 LP  0  0  0  0  0  0  0  0  0  0  0  0  # atno 17395 bound_to 11000

$$$$
