AV-unprocessed.smi:2224|AV-procd|sdf|8998|dock3
  -GOLD-   2272012203D 1   1.00000     0.00000
 Structure written by MMmdl.
 44 46  0  0  0  0  0  0  0  0  1 V2000
  152.0066  145.8318  160.4529 C   0  0  0  0  0  0  0  0  0  0  0  0
  152.0675  144.5164  159.7054 C   0  0  0  0  0  0  0  0  0  0  0  0
  152.9136  143.4765  160.1362 C   0  0  0  0  0  0  0  0  0  0  0  0
  152.9218  142.2771  159.3970 C   0  0  0  0  0  0  0  0  0  0  0  0
  153.8097  141.1186  159.8007 C   0  0  0  0  0  0  0  0  0  0  0  0
  152.1578  142.0816  158.3009 N   0  0  0  0  0  0  0  0  0  0  0  0
  151.3383  143.0759  157.8782 C   0  0  0  0  0  0  0  0  0  0  0  0
  150.4956  142.9727  156.7400 N   0  0  0  0  0  0  0  0  0  0  0  0
  150.3025  141.9082  155.9417 C   0  0  0  0  0  0  0  0  0  0  0  0
  150.8404  140.8084  156.0747 O   0  0  0  0  0  0  0  0  0  0  0  0
  149.4291  142.1896  154.9654 N   0  0  0  0  0  0  0  0  0  0  0  0
  148.9897  141.2407  153.9492 C   0  0  1  0  0  0  0  0  0  0  0  0
  148.7798  139.8366  154.5169 C   0  0  2  0  0  0  0  0  0  0  0  0
  149.4489  138.5219  154.3298 C   0  0  0  0  0  0  0  0  0  0  0  0
  148.1723  137.6574  154.1488 C   0  0  0  0  0  0  0  0  0  0  0  0
  147.0767  138.5931  153.9964 O   0  0  0  0  0  0  0  0  0  0  0  0
  147.6928  139.7478  153.4638 C   0  0  1  0  0  0  0  0  0  0  0  0
  147.4341  141.2499  153.6985 C   0  0  0  0  0  0  0  0  0  0  0  0
  146.4779  141.6449  154.8424 C   0  0  0  0  0  0  0  0  0  0  0  0
  146.9756  142.0306  152.4663 C   0  0  0  0  0  0  0  0  0  0  0  0
  151.2726  144.3118  158.5599 C   0  0  0  0  0  0  0  0  0  0  0  0
  152.6374  145.8133  161.3422 H   0  0  0  0  0  0  0  0  0  0  0  0
  150.9834  146.0418  160.7657 H   0  0  0  0  0  0  0  0  0  0  0  0
  152.3441  146.6461  159.8114 H   0  0  0  0  0  0  0  0  0  0  0  0
  153.5390  143.5949  161.0092 H   0  0  0  0  0  0  0  0  0  0  0  0
  154.3266  141.3237  160.7386 H   0  0  0  0  0  0  0  0  0  0  0  0
  154.5596  140.9326  159.0316 H   0  0  0  0  0  0  0  0  0  0  0  0
  153.2172  140.2124  159.9304 H   0  0  0  0  0  0  0  0  0  0  0  0
  149.9671  143.8023  156.5158 H   0  0  0  0  0  0  0  0  0  0  0  0
  149.0352  143.1181  154.9258 H   0  0  0  0  0  0  0  0  0  0  0  0
  149.5933  141.2493  153.0369 H   0  0  0  0  0  0  0  0  0  0  0  0
  148.3862  139.8943  155.5344 H   0  0  0  0  0  0  0  0  0  0  0  0
  150.0820  138.5082  153.4414 H   0  0  0  0  0  0  0  0  0  0  0  0
  150.0402  138.2194  155.1945 H   0  0  0  0  0  0  0  0  0  0  0  0
  148.2560  137.0211  153.2669 H   0  0  0  0  0  0  0  0  0  0  0  0
  147.9877  137.0174  155.0119 H   0  0  0  0  0  0  0  0  0  0  0  0
  148.0708  139.5515  152.4539 H   0  0  0  0  0  0  0  0  0  0  0  0
  145.4471  141.3874  154.5979 H   0  0  0  0  0  0  0  0  0  0  0  0
  146.5058  142.7190  155.0283 H   0  0  0  0  0  0  0  0  0  0  0  0
  146.7021  141.1589  155.7901 H   0  0  0  0  0  0  0  0  0  0  0  0
  145.9582  141.7636  152.1793 H   0  0  0  0  0  0  0  0  0  0  0  0
  147.6157  141.8329  151.6061 H   0  0  0  0  0  0  0  0  0  0  0  0
  146.9983  143.1067  152.6409 H   0  0  0  0  0  0  0  0  0  0  0  0
  150.6165  145.0968  158.2124 H   0  0  0  0  0  0  0  0  0  0  0  0
  1  2  1  0  0  0  0
  1 22  1  0  0  0  0
  1 23  1  0  0  0  0
  1 24  1  0  0  0  0
  2 21  1  0  0  0  0
  2  3  2  0  0  0  0
  3  4  1  0  0  0  0
  3 25  1  0  0  0  0
  4  5  1  0  0  0  0
  4  6  2  0  0  0  0
  5 26  1  0  0  0  0
  5 27  1  0  0  0  0
  5 28  1  0  0  0  0
  6  7  1  0  0  0  0
  7  8  1  0  0  0  0
  7 21  2  0  0  0  0
  8  9  1  0  0  0  0
  8 29  1  0  0  0  0
  9 10  2  0  0  0  0
  9 11  1  0  0  0  0
 11 12  1  0  0  0  0
 11 30  1  0  0  0  0
 12 18  1  0  0  0  0
 12 13  1  0  0  0  0
 12 31  1  0  0  0  0
 13 17  1  0  0  0  0
 13 14  1  0  0  0  0
 13 32  1  0  0  0  0
 14 15  1  0  0  0  0
 14 33  1  0  0  0  0
 14 34  1  0  0  0  0
 15 16  1  0  0  0  0
 15 35  1  0  0  0  0
 15 36  1  0  0  0  0
 16 17  1  0  0  0  0
 17 18  1  0  0  0  0
 17 37  1  0  0  0  0
 18 19  1  0  0  0  0
 18 20  1  0  0  0  0
 19 38  1  0  0  0  0
 19 39  1  0  0  0  0
 19 40  1  0  0  0  0
 20 41  1  0  0  0  0
 20 42  1  0  0  0  0
 20 43  1  0  0  0  0
 21 44  1  0  0  0  0
M  END
> <s_m_source_file>
AV-unprocessed.smi

> <i_m_source_file_index>
2224

> <i_lp_mmshare_version>
43012

> <i_f3d_flags>
0

> <s_epik_input>
W0NIM11jMVtjSF1jKFtDSDNdKW5jKFtjSF0xKVtOSF1DKD1PKVtOSF1bQ0BIXTJDKFtDSDNdKShbQ0gzXSlbQ0BIXShbQ0BASF0yMylPW0NIMl1bQ0gyXTM=

> <s_epik_cmdline>
J2VwaWtfcHl0aG9uJywgJy1waCcsICc3LjAnLCAnLXRuJywgJzgnLCAnLW1hJywgJzIwMCcsICctbWV0YWxfYmluZGluZycsICctaW1hZScsICc8aW5maWxlLm1hZT4nLCAnLW9tYWUnLCAnPG91dGZpbGUubWFlPic=

> <r_lp_tautomer_probability>
1

> <r_epik_Ionization_Penalty>
0.000276544

> <r_epik_Ionization_Penalty_Charging>
0

> <r_epik_Ionization_Penalty_Neutral>
0.000276544

> <r_epik_State_Penalty>
-0

> <r_epik_Charging_Adjusted_Penalty>
0

> <i_epik_Tot_Q>
0

> <i_epik_Tot_abs_Q>
0

> <r_epik_Metal_State_Penalty>
-0

> <b_epik_Metal_Only>
0

> <s_lp_Force_Field>
OPLS_2005

> <r_lp_Energy>
62.2425

> <b_lp_Chiralities_Consistent>
1

> <s_lp_Variant>
AV-unprocessed.smi:2224-8

> <Gold.Version>
5.8.1

> <Gold.Id.Protein>
6NUR|6NUR_protein|mol2

> <Gold.PLP.Fitness>
44.9261

> <Gold.PLP.PLP>
-39.1676

> <Gold.PLP.part.hbond>
-2.0000

> <Gold.PLP.part.metal>
0.0000

> <Gold.PLP.part.buried>
-5.4338

> <Gold.PLP.part.nonpolar>
-32.2341

> <Gold.PLP.part.repulsive>
0.4135

> <Gold.PLP.ligand.clash>
0.0000

> <Gold.PLP.ligand.torsion>
0.2420

> <Gold.PLP.Chemscore.Hbond>
1.9920

> <Gold.PLP.Chemscore.CHOScore>
0.0000

> <Gold.PLP.Chemscore.Metal>
0.0000

> <Gold.Chemscore.Hbonds>
donor molecule, donor type, donor heavy atom, donor atom, acceptor molecule, acceptor atom, score
      L1  H     8    29       P1  8028  1.00
      L1  H    11    30       P1  8028  0.99

> <Gold.PLP.Chemscore.Internal.Correction>
0.2665

> <Gold.Rescore>
     Score         DG    S(hbond)    S(metal)    S(lipo)     H(rot)  DE(clash)    DE(int)     intcor
     18.20     -21.69       1.92        0.00     105.47       1.00       0.48       3.00       ----

> <Gold.Chemscore.Fitness>
18.1997

> <Gold.Chemscore.DG>
-21.6858

> <Gold.Chemscore.ZeroCoef>
-5.4800

> <Gold.Chemscore.Hbond>
1.9239

> <Gold.Chemscore.Metal>
0.0000

> <Gold.Chemscore.Lipo>
105.4710

> <Gold.Chemscore.Internal_Hbond>
0.0000

> <Gold.Chemscore.DEClash>
0.4836

> <Gold.Chemscore.DEInternal>
3.0025

> <Gold.Chemscore.Rot>
1.0000

> <Gold.Chemscore.Internal.Correction>
   9.000000E+99

> <Gold.Chemscore.Hbonds>
donor molecule, donor type, donor heavy atom, donor atom, acceptor molecule, acceptor atom, score
      L1  H     8    29       P1  8028  0.99
      L1  H    11    30       P1  8028  0.94

> <Gold.Chemscore.Hbond.Weighted>
-6.4257

> <Gold.Chemscore.Metal.Weighted>
-0.0000

> <Gold.Chemscore.Lipo.Weighted>
-12.3401

> <Gold.Chemscore.Internal_Hbond.Weighted>
0.0000

> <Gold.Chemscore.DEClash.Weighted>
0.4836

> <Gold.Chemscore.DEInternal.Weighted>
3.0025

> <Gold.Chemscore.Rot.Weighted>
2.5600

> <Gold.Chemscore.Internal.Correction.Weighted>
   9.000000E+99

> <Gold.Protein.RotatedTorsions>
[ 6907 6896 6895 6894 ] final  179.51 input  -60.11 | X-H torsion
[ 7974 7965 7964 7962 ] final  103.07 input  175.53 | X-H torsion
[ 8008 7997 7996 7995 ] final  147.07 input   59.86 | X-H torsion
[ 10167 10162 10161 10158 ] final   36.07 input  -65.29 | X-H torsion
[ 10718 10713 10712 10709 ] final  -66.72 input   66.30 | X-H torsion
[ 10763 10752 10751 10750 ] final  178.51 input  -60.55 | X-H torsion
[ 11005 11000 10999 10996 ] final  148.45 input  -57.11 | X-H torsion

> <Gold.Protein.ActiveResidues>
 VAL166  LYS551  ARG553  GLY616  TRP617  ASP618  TYR619  PRO620  LYS621  CYS622 
 ASP623  PHE694  ASN695  SER759  ASP760  ASP761  ALA762  ILE779  LEU786  VAL792 
 PHE793  MET794  SER795  GLU796  ALA797  LYS798  CYS799  TRP800  GLU811  SER814 

> <Gold.Protein.RotatedAtoms>
  151.6704  133.3314  159.3194 H   0  0  0  0  0  0  0  0  0  0  0  0  # atno 6907 bound_to 6896
  150.7870  134.6867  159.6483 H   0  0  0  0  0  0  0  0  0  0  0  0  # atno 6908 bound_to 6896
  152.3942  134.6396  160.0148 H   0  0  0  0  0  0  0  0  0  0  0  0  # atno 6909 bound_to 6896
  145.3507  139.2440  143.3559 H   0  0  0  0  0  0  0  0  0  0  0  0  # atno 7974 bound_to 7965
  156.2836  140.2165  156.5479 H   0  0  0  0  0  0  0  0  0  0  0  0  # atno 8008 bound_to 7997
  154.7316  140.0495  157.0753 H   0  0  0  0  0  0  0  0  0  0  0  0  # atno 8009 bound_to 7997
  155.0347  140.3139  155.4749 H   0  0  0  0  0  0  0  0  0  0  0  0  # atno 8010 bound_to 7997
  140.4162  144.1524  150.6143 H   0  0  0  0  0  0  0  0  0  0  0  0  # atno 10167 bound_to 10162
  156.0597  130.4266  150.1749 H   0  0  0  0  0  0  0  0  0  0  0  0  # atno 10718 bound_to 10713
  154.5086  135.2787  155.1361 H   0  0  0  0  0  0  0  0  0  0  0  0  # atno 10763 bound_to 10752
  154.2965  135.6256  153.5410 H   0  0  0  0  0  0  0  0  0  0  0  0  # atno 10764 bound_to 10752
  152.9915  135.5686  154.5546 H   0  0  0  0  0  0  0  0  0  0  0  0  # atno 10765 bound_to 10752
  140.0961  134.9012  157.1725 H   0  0  0  0  0  0  0  0  0  0  0  0  # atno 11005 bound_to 11000
  146.2969  140.4123  142.8718 LP  0  0  0  0  0  0  0  0  0  0  0  0  # atno 17320 bound_to 7965
  144.8719  140.7285  143.6041 LP  0  0  0  0  0  0  0  0  0  0  0  0  # atno 17321 bound_to 7965
  140.4584  143.2458  151.9253 LP  0  0  0  0  0  0  0  0  0  0  0  0  # atno 17342 bound_to 10162
  139.4782  144.5492  151.8411 LP  0  0  0  0  0  0  0  0  0  0  0  0  # atno 17343 bound_to 10162
  156.9819  130.9867  151.3435 LP  0  0  0  0  0  0  0  0  0  0  0  0  # atno 17370 bound_to 10713
  157.5596  130.8236  149.8248 LP  0  0  0  0  0  0  0  0  0  0  0  0  # atno 17371 bound_to 10713
  140.3284  134.2837  155.7232 LP  0  0  0  0  0  0  0  0  0  0  0  0  # atno 17394 bound_to 11000
  141.2092  133.7755  157.0009 LP  0  0  0  0  0  0  0  0  0  0  0  0  # atno 17395 bound_to 11000

$$$$
