AV-unprocessed.smi:978|AV-procd|sdf|4309|dock10
  -GOLD-   22720 2213D 1   1.00000     0.00000
 Structure written by MMmdl.
 39 40  0  0  0  0  0  0  0  0  2 V2000
  151.6688  138.9143  156.8012 C   0  0  0  0  0  0  0  0  0  0  0  0
  152.0475  140.1954  157.4909 C   0  0  0  0  0  0  0  0  0  0  0  0
  153.1000  140.2056  158.2956 N   0  0  0  0  0  0  0  0  0  0  0  0
  153.1748  141.4943  158.8461 O   0  0  0  0  0  0  0  0  0  0  0  0
  152.1532  142.2426  158.3541 C   0  0  0  0  0  0  0  0  0  0  0  0
  152.0508  143.6502  158.8360 C   0  0  0  0  0  0  0  0  0  0  0  0
  151.4341  141.4828  157.4792 C   0  0  0  0  0  0  0  0  0  0  0  0
  150.2765  141.9243  156.7909 N   0  0  0  0  0  0  0  0  0  0  0  0
  149.7837  141.4265  155.6467 C   0  0  0  0  0  0  0  0  0  0  0  0
  150.2899  140.5089  155.0018 O   0  0  0  0  0  0  0  0  0  0  0  0
  148.6701  142.0716  155.2707 N   0  0  0  0  0  0  0  0  0  0  0  0
  147.9070  141.7980  154.0533 C   0  0  2  0  0  0  0  0  0  0  0  0
  146.6759  142.7182  153.9714 C   0  0  0  0  0  0  0  0  0  0  0  0
  145.5929  142.3286  154.9944 C   0  0  0  0  0  0  0  0  0  0  0  0
  145.2033  140.9043  154.8454 N   0  3  2  0  0  0  0  0  0  0  0  0
  144.0783  140.5326  155.7301 C   0  0  0  0  0  0  0  0  0  0  0  0
  146.3636  139.9914  154.9942 C   0  0  0  0  0  0  0  0  0  0  0  0
  147.4627  140.3230  153.9692 C   0  0  0  0  0  0  0  0  0  0  0  0
  150.5867  138.8221  156.7075 H   0  0  0  0  0  0  0  0  0  0  0  0
  152.0214  138.0434  157.3546 H   0  0  0  0  0  0  0  0  0  0  0  0
  152.0997  138.8656  155.8011 H   0  0  0  0  0  0  0  0  0  0  0  0
  151.1241  144.1149  158.4993 H   0  0  0  0  0  0  0  0  0  0  0  0
  152.8828  144.2463  158.4609 H   0  0  0  0  0  0  0  0  0  0  0  0
  152.0708  143.6883  159.9253 H   0  0  0  0  0  0  0  0  0  0  0  0
  149.8390  142.7595  157.1516 H   0  0  0  0  0  0  0  0  0  0  0  0
  148.3368  142.8200  155.8605 H   0  0  0  0  0  0  0  0  0  0  0  0
  148.5507  142.0198  153.1999 H   0  0  0  0  0  0  0  0  0  0  0  0
  146.9700  143.7589  154.1131 H   0  0  0  0  0  0  0  0  0  0  0  0
  146.2529  142.6585  152.9676 H   0  0  0  0  0  0  0  0  0  0  0  0
  145.9489  142.5064  156.0105 H   0  0  0  0  0  0  0  0  0  0  0  0
  144.7167  142.9627  154.8522 H   0  0  0  0  0  0  0  0  0  0  0  0
  144.3627  140.6141  156.7801 H   0  0  0  0  0  0  0  0  0  0  0  0
  143.7613  139.5068  155.5393 H   0  0  0  0  0  0  0  0  0  0  0  0
  143.2202  141.1827  155.5564 H   0  0  0  0  0  0  0  0  0  0  0  0
  146.7586  140.0609  156.0089 H   0  0  0  0  0  0  0  0  0  0  0  0
  146.0370  138.9605  154.8528 H   0  0  0  0  0  0  0  0  0  0  0  0
  147.0827  140.1240  152.9663 H   0  0  0  0  0  0  0  0  0  0  0  0
  148.3136  139.6543  154.1036 H   0  0  0  0  0  0  0  0  0  0  0  0
  144.8700  140.7944  153.8981 H   0  0  0  0  0  0  0  0  0  0  0  0
  1  2  1  0  0  0  0
  1 19  1  0  0  0  0
  1 20  1  0  0  0  0
  1 21  1  0  0  0  0
  2  7  1  0  0  0  0
  2  3  2  0  0  0  0
  3  4  1  0  0  0  0
  4  5  1  0  0  0  0
  5  6  1  0  0  0  0
  5  7  2  0  0  0  0
  6 22  1  0  0  0  0
  6 23  1  0  0  0  0
  6 24  1  0  0  0  0
  7  8  1  0  0  0  0
  8  9  1  0  0  0  0
  8 25  1  0  0  0  0
  9 10  2  0  0  0  0
  9 11  1  0  0  0  0
 11 12  1  0  0  0  0
 11 26  1  0  0  0  0
 12 18  1  0  0  0  0
 12 13  1  0  0  0  0
 12 27  1  0  0  0  0
 13 14  1  0  0  0  0
 13 28  1  0  0  0  0
 13 29  1  0  0  0  0
 14 15  1  0  0  0  0
 14 30  1  0  0  0  0
 14 31  1  0  0  0  0
 15 16  1  0  0  0  0
 15 17  1  0  0  0  0
 15 39  1  0  0  0  0
 16 32  1  0  0  0  0
 16 33  1  0  0  0  0
 16 34  1  0  0  0  0
 17 18  1  0  0  0  0
 17 35  1  0  0  0  0
 17 36  1  0  0  0  0
 18 37  1  0  0  0  0
 18 38  1  0  0  0  0
M  CHG  1  15   1
M  END
> <s_m_source_file>
AV-unprocessed.smi

> <i_m_source_file_index>
978

> <i_lp_mmshare_version>
43012

> <i_f3d_flags>
0

> <s_epik_input>
W0NIM11jMW5vYyhbQ0gzXSljMVtOSF1DKD1PKVtOSF1bQ0hdMltDSDJdW0NIMl1OKFtDSDNdKVtDSDJdW0NIMl0y

> <s_epik_cmdline>
J2VwaWtfcHl0aG9uJywgJy1waCcsICc3LjAnLCAnLXRuJywgJzgnLCAnLW1hJywgJzIwMCcsICctbWV0YWxfYmluZGluZycsICctaW1hZScsICc8aW5maWxlLm1hZT4nLCAnLW9tYWUnLCAnPG91dGZpbGUubWFlPic=

> <r_epik_Ionization_Penalty>
0.00369783

> <r_epik_Ionization_Penalty_Charging>
0.00366825

> <r_epik_Ionization_Penalty_Neutral>
2.95799e-05

> <r_epik_State_Penalty>
0.00261101

> <r_epik_Charging_Adjusted_Penalty>
0.00627926

> <i_epik_Tot_Q>
1

> <i_epik_Tot_abs_Q>
1

> <r_epik_Metal_State_Penalty>
-0

> <b_epik_Metal_Only>
0

> <s_lp_Force_Field>
OPLS_2005

> <r_lp_Energy>
17.545

> <b_lp_Chiralities_Consistent>
1

> <s_lp_Variant>
AV-unprocessed.smi:978-2

> <Gold.Version>
5.8.1

> <Gold.Id.Protein>
6NUR|6NUR_protein|mol2

> <Gold.PLP.Fitness>
41.5162

> <Gold.PLP.PLP>
-28.2361

> <Gold.PLP.part.hbond>
-4.0832

> <Gold.PLP.part.metal>
0.0000

> <Gold.PLP.part.buried>
-2.8802

> <Gold.PLP.part.nonpolar>
-20.2220

> <Gold.PLP.part.repulsive>
0.2713

> <Gold.PLP.ligand.clash>
0.0000

> <Gold.PLP.ligand.torsion>
0.1407

> <Gold.PLP.Chemscore.Hbond>
4.4392

> <Gold.PLP.Chemscore.CHOScore>
0.0000

> <Gold.PLP.Chemscore.Metal>
0.0000

> <Gold.Chemscore.Hbonds>
donor molecule, donor type, donor heavy atom, donor atom, acceptor molecule, acceptor atom, score
      L1  H    11    26       P1  8028  0.48
      L1  H    15    39       P1 10175  2.00
      P1  H  7989  7998       L1    10  0.95
      P1  H  7997  8009       L1     3  0.96

> <Gold.PLP.Chemscore.Internal.Correction>
0.2439

> <Gold.Rescore>
     Score         DG    S(hbond)    S(metal)    S(lipo)     H(rot)  DE(clash)    DE(int)     intcor
     18.06     -21.16       2.86        0.00      74.35       1.00       1.61       1.49       ----

> <Gold.Chemscore.Fitness>
18.0618

> <Gold.Chemscore.DG>
-21.1560

> <Gold.Chemscore.ZeroCoef>
-5.4800

> <Gold.Chemscore.Hbond>
2.8555

> <Gold.Chemscore.Metal>
0.0000

> <Gold.Chemscore.Lipo>
74.3472

> <Gold.Chemscore.Internal_Hbond>
0.0000

> <Gold.Chemscore.DEClash>
1.6068

> <Gold.Chemscore.DEInternal>
1.4874

> <Gold.Chemscore.Rot>
1.0000

> <Gold.Chemscore.Internal.Correction>
   9.000000E+99

> <Gold.Chemscore.Hbonds>
donor molecule, donor type, donor heavy atom, donor atom, acceptor molecule, acceptor atom, score
      L1  H    11    26       P1  8028  0.45
      L1  H    15    39       P1 10175  0.95
      P1  H  7989  7998       L1    10  0.84
      P1  H  7997  8009       L1     3  0.14

> <Gold.Chemscore.Hbond.Weighted>
-9.5374

> <Gold.Chemscore.Metal.Weighted>
-0.0000

> <Gold.Chemscore.Lipo.Weighted>
-8.6986

> <Gold.Chemscore.Internal_Hbond.Weighted>
0.0000

> <Gold.Chemscore.DEClash.Weighted>
1.6068

> <Gold.Chemscore.DEInternal.Weighted>
1.4874

> <Gold.Chemscore.Rot.Weighted>
2.5600

> <Gold.Chemscore.Internal.Correction.Weighted>
   9.000000E+99

> <Gold.Protein.RotatedTorsions>
[ 6907 6896 6895 6894 ] final   96.37 input  -60.11 | X-H torsion
[ 7974 7965 7964 7962 ] final   37.11 input  175.53 | X-H torsion
[ 8008 7997 7996 7995 ] final  159.17 input   59.86 | X-H torsion
[ 10167 10162 10161 10158 ] final   -0.95 input  -65.29 | X-H torsion
[ 10718 10713 10712 10709 ] final  157.63 input   66.30 | X-H torsion
[ 10763 10752 10751 10750 ] final   76.57 input  -60.55 | X-H torsion
[ 11005 11000 10999 10996 ] final -171.96 input  -57.11 | X-H torsion

> <Gold.Protein.ActiveResidues>
 VAL166  LYS551  ARG553  GLY616  TRP617  ASP618  TYR619  PRO620  LYS621  CYS622 
 ASP623  PHE694  ASN695  SER759  ASP760  ASP761  ALA762  ILE779  LEU786  VAL792 
 PHE793  MET794  SER795  GLU796  ALA797  LYS798  CYS799  TRP800  GLU811  SER814 

> <Gold.Protein.RotatedAtoms>
  152.5435  134.0897  159.8271 H   0  0  0  0  0  0  0  0  0  0  0  0  # atno 6907 bound_to 6896
  151.0988  133.5252  159.2618 H   0  0  0  0  0  0  0  0  0  0  0  0  # atno 6908 bound_to 6896
  151.2015  135.0453  159.8928 H   0  0  0  0  0  0  0  0  0  0  0  0  # atno 6909 bound_to 6896
  146.1162  139.5935  142.9320 H   0  0  0  0  0  0  0  0  0  0  0  0  # atno 7974 bound_to 7965
  156.2256  140.1838  156.7371 H   0  0  0  0  0  0  0  0  0  0  0  0  # atno 8008 bound_to 7997
  154.5935  140.0647  156.9300 H   0  0  0  0  0  0  0  0  0  0  0  0  # atno 8009 bound_to 7997
  155.2295  140.3313  155.4308 H   0  0  0  0  0  0  0  0  0  0  0  0  # atno 8010 bound_to 7997
  140.6789  143.6833  150.8087 H   0  0  0  0  0  0  0  0  0  0  0  0  # atno 10167 bound_to 10162
  157.1889  131.0650  151.2090 H   0  0  0  0  0  0  0  0  0  0  0  0  # atno 10718 bound_to 10713
  153.0735  135.4946  154.8355 H   0  0  0  0  0  0  0  0  0  0  0  0  # atno 10763 bound_to 10752
  154.7055  135.3010  154.9279 H   0  0  0  0  0  0  0  0  0  0  0  0  # atno 10764 bound_to 10752
  153.9989  135.6769  153.4811 H   0  0  0  0  0  0  0  0  0  0  0  0  # atno 10765 bound_to 10752
  140.5024  134.5880  157.4992 H   0  0  0  0  0  0  0  0  0  0  0  0  # atno 11005 bound_to 11000
  145.5562  141.0409  143.2251 LP  0  0  0  0  0  0  0  0  0  0  0  0  # atno 17320 bound_to 7965
  144.7555  139.7085  143.7256 LP  0  0  0  0  0  0  0  0  0  0  0  0  # atno 17321 bound_to 7965
  140.0531  143.5230  152.2664 LP  0  0  0  0  0  0  0  0  0  0  0  0  # atno 17342 bound_to 10162
  139.6099  144.7606  151.2976 LP  0  0  0  0  0  0  0  0  0  0  0  0  # atno 17343 bound_to 10162
  157.3880  130.7266  149.6677 LP  0  0  0  0  0  0  0  0  0  0  0  0  # atno 17370 bound_to 10713
  155.9714  130.4154  150.4181 LP  0  0  0  0  0  0  0  0  0  0  0  0  # atno 17371 bound_to 10713
  139.9705  134.7300  156.0050 LP  0  0  0  0  0  0  0  0  0  0  0  0  # atno 17394 bound_to 11000
  141.1428  133.6561  156.3780 LP  0  0  0  0  0  0  0  0  0  0  0  0  # atno 17395 bound_to 11000

$$$$
