AV-unprocessed.smi:644|AV-procd|sdf|3156|dock7
  -GOLD-   22720 0 83D 1   1.00000     0.00000
 Structure written by MMmdl.
 37 39  0  0  0  0  0  0  0  0  1 V2000
  153.5699  143.2924  163.6163 C   0  0  0  0  0  0  0  0  0  0  0  0
  153.0797  143.0279  162.2036 C   0  0  0  0  0  0  0  0  0  0  0  0
  152.2011  143.9537  161.5964 C   0  0  0  0  0  0  0  0  0  0  0  0
  151.7238  143.7455  160.2839 C   0  0  0  0  0  0  0  0  0  0  0  0
  150.8701  144.5084  159.5055 N   0  0  0  0  0  0  0  0  0  0  0  0
  150.8144  143.7914  158.3867 C   0  0  0  0  0  0  0  0  0  0  0  0
  151.5291  142.6503  158.3501 N   0  0  0  0  0  0  0  0  0  0  0  0
  151.6292  141.7117  157.2470 C   0  0  0  0  0  0  0  0  0  0  0  0
  150.2536  141.3336  156.6662 C   0  0  1  0  0  0  0  0  0  0  0  0
  150.3826  141.0645  155.2830 O   0  0  0  0  0  0  0  0  0  0  0  0
  149.6533  140.1065  157.3708 C   0  0  0  0  0  0  0  0  0  0  0  0
  150.9349  138.9422  157.9305 S   0  0  0  0  0  0  0  0  0  0  0  0
  151.6894  138.5444  156.3861 C   0  0  0  0  0  0  0  0  0  0  0  0
  152.9811  138.7393  156.0828 N   0  0  0  0  0  0  0  0  0  0  0  0
  153.2893  138.3277  154.7931 N   0  0  0  0  0  0  0  0  0  0  0  0
  152.2170  137.8361  154.1682 C   0  0  0  0  0  0  0  0  0  0  0  0
  150.7291  137.8288  155.0966 S   0  0  0  0  0  0  0  0  0  0  0  0
  152.1537  142.5769  159.5899 C   0  0  0  0  0  0  0  0  0  0  0  0
  153.0271  141.6484  160.1830 C   0  0  0  0  0  0  0  0  0  0  0  0
  153.4933  141.8709  161.4956 C   0  0  0  0  0  0  0  0  0  0  0  0
  154.4346  140.8613  162.1282 C   0  0  0  0  0  0  0  0  0  0  0  0
  153.1552  144.2186  164.0152 H   0  0  0  0  0  0  0  0  0  0  0  0
  154.6565  143.3781  163.6328 H   0  0  0  0  0  0  0  0  0  0  0  0
  153.2759  142.4810  164.2823 H   0  0  0  0  0  0  0  0  0  0  0  0
  151.8860  144.8350  162.1353 H   0  0  0  0  0  0  0  0  0  0  0  0
  150.2173  144.1127  157.5454 H   0  0  0  0  0  0  0  0  0  0  0  0
  152.2644  142.1459  156.4734 H   0  0  0  0  0  0  0  0  0  0  0  0
  152.1439  140.8204  157.6083 H   0  0  0  0  0  0  0  0  0  0  0  0
  149.5720  142.1771  156.7835 H   0  0  0  0  0  0  0  0  0  0  0  0
  149.5243  141.1027  154.8890 H   0  0  0  0  0  0  0  0  0  0  0  0
  149.0477  140.4186  158.2227 H   0  0  0  0  0  0  0  0  0  0  0  0
  148.9931  139.5790  156.6813 H   0  0  0  0  0  0  0  0  0  0  0  0
  152.3030  137.4736  153.1544 H   0  0  0  0  0  0  0  0  0  0  0  0
  153.3344  140.7718  159.6322 H   0  0  0  0  0  0  0  0  0  0  0  0
  154.6351  140.0273  161.4548 H   0  0  0  0  0  0  0  0  0  0  0  0
  154.0006  140.4551  163.0420 H   0  0  0  0  0  0  0  0  0  0  0  0
  155.3877  141.3296  162.3746 H   0  0  0  0  0  0  0  0  0  0  0  0
  1  2  1  0  0  0  0
  1 22  1  0  0  0  0
  1 23  1  0  0  0  0
  1 24  1  0  0  0  0
  2 20  1  0  0  0  0
  2  3  2  0  0  0  0
  3  4  1  0  0  0  0
  3 25  1  0  0  0  0
  4 18  2  0  0  0  0
  4  5  1  0  0  0  0
  5  6  2  0  0  0  0
  6  7  1  0  0  0  0
  6 26  1  0  0  0  0
  7  8  1  0  0  0  0
  7 18  1  0  0  0  0
  8  9  1  0  0  0  0
  8 27  1  0  0  0  0
  8 28  1  0  0  0  0
  9 10  1  0  0  0  0
  9 11  1  0  0  0  0
  9 29  1  0  0  0  0
 10 30  1  0  0  0  0
 11 12  1  0  0  0  0
 11 31  1  0  0  0  0
 11 32  1  0  0  0  0
 12 13  1  0  0  0  0
 13 17  1  0  0  0  0
 13 14  2  0  0  0  0
 14 15  1  0  0  0  0
 15 16  2  0  0  0  0
 16 17  1  0  0  0  0
 16 33  1  0  0  0  0
 18 19  1  0  0  0  0
 19 20  2  0  0  0  0
 19 34  1  0  0  0  0
 20 21  1  0  0  0  0
 21 35  1  0  0  0  0
 21 36  1  0  0  0  0
 21 37  1  0  0  0  0
M  END
> <s_m_source_file>
AV-unprocessed.smi

> <i_m_source_file_index>
644

> <i_lp_mmshare_version>
43012

> <i_f3d_flags>
0

> <s_epik_input>
W0NIM11jKFtjSF0xKWMoW0NIM10pW2NIXWMoYzEyKW4oW2NIXW4yKVtDSDJdW0NASF0oW09IXSlbQ0gyXVNjM25uW2NIXXMz

> <s_epik_cmdline>
J2VwaWtfcHl0aG9uJywgJy1waCcsICc3LjAnLCAnLXRuJywgJzgnLCAnLW1hJywgJzIwMCcsICctbWV0YWxfYmluZGluZycsICctaW1hZScsICc8aW5maWxlLm1hZT4nLCAnLW9tYWUnLCAnPG91dGZpbGUubWFlPic=

> <r_lp_tautomer_probability>
1

> <r_epik_Ionization_Penalty>
0.105397

> <r_epik_Ionization_Penalty_Charging>
0

> <r_epik_Ionization_Penalty_Neutral>
0.105397

> <r_epik_State_Penalty>
0.0952713

> <r_epik_Charging_Adjusted_Penalty>
0.0952713

> <i_epik_Tot_Q>
0

> <i_epik_Tot_abs_Q>
0

> <r_epik_Metal_State_Penalty>
0.0807681

> <b_epik_Metal_Only>
0

> <s_lp_Force_Field>
OPLS_2005

> <r_lp_Energy>
7.47595

> <b_lp_Chiralities_Consistent>
1

> <s_lp_Variant>
AV-unprocessed.smi:644-2

> <Gold.Version>
5.8.1

> <Gold.Id.Protein>
6NUR|6NUR_protein|mol2

> <Gold.PLP.Fitness>
54.9522

> <Gold.PLP.PLP>
-46.1806

> <Gold.PLP.part.hbond>
-2.3039

> <Gold.PLP.part.metal>
0.0000

> <Gold.PLP.part.buried>
-6.3160

> <Gold.PLP.part.nonpolar>
-36.6603

> <Gold.PLP.part.repulsive>
0.1446

> <Gold.PLP.ligand.clash>
0.0000

> <Gold.PLP.ligand.torsion>
0.8600

> <Gold.PLP.Chemscore.Hbond>
1.4888

> <Gold.PLP.Chemscore.CHOScore>
2.0000

> <Gold.PLP.Chemscore.Metal>
0.0000

> <Gold.Chemscore.Hbonds>
donor molecule, donor type, donor heavy atom, donor atom, acceptor molecule, acceptor atom, score
      P1  H  7989  7998       L1    10  0.44
      P1  H  7997  8008       L1    14  1.00
      L1  C     6    26       P1  8028  1.00
      L1  C    16    33       P1  7949  1.00

> <Gold.PLP.Chemscore.Internal.Correction>
0.0251

> <Gold.Rescore>
     Score         DG    S(hbond)    S(metal)    S(lipo)     H(rot)  DE(clash)    DE(int)     intcor
     15.89     -18.21       1.23        0.00     127.51       2.46       1.54       0.79       ----

> <Gold.Chemscore.Fitness>
15.8858

> <Gold.Chemscore.DG>
-18.2094

> <Gold.Chemscore.ZeroCoef>
-5.4800

> <Gold.Chemscore.Hbond>
1.2292

> <Gold.Chemscore.Metal>
0.0000

> <Gold.Chemscore.Lipo>
127.5073

> <Gold.Chemscore.Internal_Hbond>
0.0000

> <Gold.Chemscore.DEClash>
1.5376

> <Gold.Chemscore.DEInternal>
0.7861

> <Gold.Chemscore.Rot>
2.4588

> <Gold.Chemscore.Internal.Correction>
   9.000000E+99

> <Gold.Chemscore.Hbonds>
donor molecule, donor type, donor heavy atom, donor atom, acceptor molecule, acceptor atom, score
      P1  H  7989  7998       L1    10  0.12
      P1  H  7997  8008       L1    14  0.25

> <Gold.Chemscore.Hbond.Weighted>
-4.1057

> <Gold.Chemscore.Metal.Weighted>
-0.0000

> <Gold.Chemscore.Lipo.Weighted>
-14.9184

> <Gold.Chemscore.Internal_Hbond.Weighted>
0.0000

> <Gold.Chemscore.DEClash.Weighted>
1.5376

> <Gold.Chemscore.DEInternal.Weighted>
0.7861

> <Gold.Chemscore.Rot.Weighted>
6.2946

> <Gold.Chemscore.Internal.Correction.Weighted>
   9.000000E+99

> <Gold.Protein.RotatedTorsions>
[ 6907 6896 6895 6894 ] final  168.41 input  -60.11 | X-H torsion
[ 7974 7965 7964 7962 ] final  -63.78 input  175.53 | X-H torsion
[ 8008 7997 7996 7995 ] final  -42.86 input   59.86 | X-H torsion
[ 10167 10162 10161 10158 ] final  -39.27 input  -65.29 | X-H torsion
[ 10718 10713 10712 10709 ] final  160.13 input   66.30 | X-H torsion
[ 10763 10752 10751 10750 ] final  114.88 input  -60.55 | X-H torsion
[ 11005 11000 10999 10996 ] final  122.11 input  -57.11 | X-H torsion

> <Gold.Protein.ActiveResidues>
 VAL166  LYS551  ARG553  GLY616  TRP617  ASP618  TYR619  PRO620  LYS621  CYS622 
 ASP623  PHE694  ASN695  SER759  ASP760  ASP761  ALA762  ILE779  LEU786  VAL792 
 PHE793  MET794  SER795  GLU796  ALA797  LYS798  CYS799  TRP800  GLU811  SER814 

> <Gold.Protein.RotatedAtoms>
  151.8481  133.3435  159.3664 H   0  0  0  0  0  0  0  0  0  0  0  0  # atno 6907 bound_to 6896
  150.7214  134.5326  159.5717 H   0  0  0  0  0  0  0  0  0  0  0  0  # atno 6908 bound_to 6896
  152.2814  134.7825  160.0447 H   0  0  0  0  0  0  0  0  0  0  0  0  # atno 6909 bound_to 6896
  145.7749  140.8793  143.0361 H   0  0  0  0  0  0  0  0  0  0  0  0  # atno 7974 bound_to 7965
  154.3998  140.1462  156.3425 H   0  0  0  0  0  0  0  0  0  0  0  0  # atno 8008 bound_to 7997
  155.8344  140.3464  155.5571 H   0  0  0  0  0  0  0  0  0  0  0  0  # atno 8009 bound_to 7997
  155.8154  140.0890  157.1870 H   0  0  0  0  0  0  0  0  0  0  0  0  # atno 8010 bound_to 7997
  140.7069  143.3224  151.2759 H   0  0  0  0  0  0  0  0  0  0  0  0  # atno 10167 bound_to 10162
  157.1546  131.0572  151.2263 H   0  0  0  0  0  0  0  0  0  0  0  0  # atno 10718 bound_to 10713
  153.5138  135.3612  155.2599 H   0  0  0  0  0  0  0  0  0  0  0  0  # atno 10763 bound_to 10752
  154.8740  135.4029  154.3338 H   0  0  0  0  0  0  0  0  0  0  0  0  # atno 10764 bound_to 10752
  153.3996  135.7074  153.6502 H   0  0  0  0  0  0  0  0  0  0  0  0  # atno 10765 bound_to 10752
  139.9254  134.9640  156.8060 H   0  0  0  0  0  0  0  0  0  0  0  0  # atno 11005 bound_to 11000
  144.6806  139.9907  143.7484 LP  0  0  0  0  0  0  0  0  0  0  0  0  # atno 17320 bound_to 7965
  146.0133  139.3188  143.0857 LP  0  0  0  0  0  0  0  0  0  0  0  0  # atno 17321 bound_to 7965
  139.6683  144.0066  152.2737 LP  0  0  0  0  0  0  0  0  0  0  0  0  # atno 17342 bound_to 10162
  139.9656  144.6528  150.8037 LP  0  0  0  0  0  0  0  0  0  0  0  0  # atno 17343 bound_to 10162
  157.4189  130.7426  149.6897 LP  0  0  0  0  0  0  0  0  0  0  0  0  # atno 17370 bound_to 10713
  155.9764  130.4076  150.3779 LP  0  0  0  0  0  0  0  0  0  0  0  0  # atno 17371 bound_to 10713
  140.6351  133.9870  155.7680 LP  0  0  0  0  0  0  0  0  0  0  0  0  # atno 17394 bound_to 11000
  141.0808  134.0065  157.3389 LP  0  0  0  0  0  0  0  0  0  0  0  0  # atno 17395 bound_to 11000

$$$$
