AV-unprocessed.smi:20|AV-procd|sdf|119|dock10
  -GOLD-   2262015293D 1   1.00000     0.00000
 Structure written by MMmdl.
 57 61  0  0  0  0  0  0  0  0  1 V2000
  139.7510  136.2089  154.8014 O   0  0  0  0  0  0  0  0  0  0  0  0
  140.7671  136.3613  154.1278 C   0  0  0  0  0  0  0  0  0  0  0  0
  141.8129  135.2782  153.9195 C   0  0  0  0  0  0  0  0  0  0  0  0
  143.0245  136.0556  153.3614 C   0  0  2  0  0  0  0  0  0  0  0  0
  143.8083  135.2320  152.3135 C   0  0  0  0  0  0  0  0  0  0  0  0
  145.0772  135.9661  151.8500 C   0  0  0  0  0  0  0  0  0  0  0  0
  145.9589  136.3480  153.0473 C   0  0  0  0  0  0  0  0  0  0  0  0
  145.1888  137.1067  154.0296 N   0  0  0  0  0  0  0  0  0  0  0  0
  145.9298  137.8168  154.9165 C   0  0  0  0  0  0  0  0  0  0  0  0
  145.7852  137.5976  156.2507 N   0  0  0  0  0  0  0  0  0  0  0  0
  146.5173  138.2873  157.1303 C   0  0  0  0  0  0  0  0  0  0  0  0
  147.4305  139.2313  156.8970 N   0  0  0  0  0  0  0  0  0  0  0  0
  147.5707  139.4663  155.5613 C   0  0  0  0  0  0  0  0  0  0  0  0
  146.8711  138.8048  154.5127 C   0  0  0  0  0  0  0  0  0  0  0  0
  147.2780  139.3064  153.2821 N   0  0  0  0  0  0  0  0  0  0  0  0
  148.1730  140.2064  153.5848 C   0  0  0  0  0  0  0  0  0  0  0  0
  148.3923  140.3869  154.9324 N   0  0  0  0  0  0  0  0  0  0  0  0
  149.3313  141.3168  155.5371 C   0  0  0  0  0  0  0  0  0  0  0  0
  150.2352  140.7166  156.6511 C   0  0  1  0  0  0  0  0  0  0  0  0
  151.0225  139.5170  156.0698 C   0  0  0  0  0  0  0  0  0  0  0  0
  151.7646  139.8917  154.9274 O   0  0  0  0  0  0  0  0  0  0  0  0
  151.2010  141.7524  157.3011 C   0  0  1  0  0  0  0  0  0  0  0  0
  150.5600  143.0132  157.8633 C   0  0  0  0  0  0  0  0  0  0  0  0
  151.6266  143.5388  158.8156 C   0  0  0  0  0  0  0  0  0  0  0  0
  152.2846  142.3876  159.3248 O   0  0  0  0  0  0  0  0  0  0  0  0
  151.9166  141.2443  158.5619 C   0  0  0  0  0  0  0  0  0  0  0  0
  143.9773  136.4476  154.5215 C   0  0  0  0  0  0  0  0  0  0  0  0
  142.3651  137.3202  152.7555 C   0  0  0  0  0  0  0  0  0  0  0  0
  141.1178  137.4697  153.4796 N   0  0  0  0  0  0  0  0  0  0  0  0
  142.0349  134.7467  154.8457 H   0  0  0  0  0  0  0  0  0  0  0  0
  141.4260  134.5582  153.1971 H   0  0  0  0  0  0  0  0  0  0  0  0
  144.0914  134.2715  152.7461 H   0  0  0  0  0  0  0  0  0  0  0  0
  143.1764  135.0041  151.4542 H   0  0  0  0  0  0  0  0  0  0  0  0
  145.6408  135.3385  151.1591 H   0  0  0  0  0  0  0  0  0  0  0  0
  144.8039  136.8652  151.2966 H   0  0  0  0  0  0  0  0  0  0  0  0
  146.3449  135.4475  153.5270 H   0  0  0  0  0  0  0  0  0  0  0  0
  146.8244  136.9090  152.6961 H   0  0  0  0  0  0  0  0  0  0  0  0
  146.3456  138.0497  158.1699 H   0  0  0  0  0  0  0  0  0  0  0  0
  148.6886  140.7791  152.8278 H   0  0  0  0  0  0  0  0  0  0  0  0
  149.9398  141.7119  154.7233 H   0  0  0  0  0  0  0  0  0  0  0  0
  148.7728  142.1651  155.9348 H   0  0  0  0  0  0  0  0  0  0  0  0
  149.5986  140.3219  157.4435 H   0  0  0  0  0  0  0  0  0  0  0  0
  151.6969  139.0978  156.8171 H   0  0  0  0  0  0  0  0  0  0  0  0
  150.3576  138.7143  155.7543 H   0  0  0  0  0  0  0  0  0  0  0  0
  152.6808  139.9133  155.1579 H   0  0  0  0  0  0  0  0  0  0  0  0
  151.9578  142.0456  156.5717 H   0  0  0  0  0  0  0  0  0  0  0  0
  150.3138  143.7557  157.1066 H   0  0  0  0  0  0  0  0  0  0  0  0
  149.6515  142.7683  158.4161 H   0  0  0  0  0  0  0  0  0  0  0  0
  152.3551  144.1432  158.2739 H   0  0  0  0  0  0  0  0  0  0  0  0
  151.2075  144.1483  159.6167 H   0  0  0  0  0  0  0  0  0  0  0  0
  151.2440  140.6368  159.1692 H   0  0  0  0  0  0  0  0  0  0  0  0
  152.7957  140.6429  158.3293 H   0  0  0  0  0  0  0  0  0  0  0  0
  143.4569  137.1008  155.2240 H   0  0  0  0  0  0  0  0  0  0  0  0
  144.2717  135.5562  155.0771 H   0  0  0  0  0  0  0  0  0  0  0  0
  142.9835  138.2136  152.8473 H   0  0  0  0  0  0  0  0  0  0  0  0
  142.1324  137.1842  151.6985 H   0  0  0  0  0  0  0  0  0  0  0  0
  140.5776  138.3228  153.4721 H   0  0  0  0  0  0  0  0  0  0  0  0
  1  2  2  0  0  0  0
  2 29  1  0  0  0  0
  2  3  1  0  0  0  0
  3  4  1  0  0  0  0
  3 30  1  0  0  0  0
  3 31  1  0  0  0  0
  4 27  1  0  0  0  0
  4  5  1  0  0  0  0
  4 28  1  0  0  0  0
  5  6  1  0  0  0  0
  5 32  1  0  0  0  0
  5 33  1  0  0  0  0
  6  7  1  0  0  0  0
  6 34  1  0  0  0  0
  6 35  1  0  0  0  0
  7  8  1  0  0  0  0
  7 36  1  0  0  0  0
  7 37  1  0  0  0  0
  8  9  1  0  0  0  0
  8 27  1  0  0  0  0
  9 14  1  0  0  0  0
  9 10  2  0  0  0  0
 10 11  1  0  0  0  0
 11 12  2  0  0  0  0
 11 38  1  0  0  0  0
 12 13  1  0  0  0  0
 13 17  1  0  0  0  0
 13 14  2  0  0  0  0
 14 15  1  0  0  0  0
 15 16  2  0  0  0  0
 16 17  1  0  0  0  0
 16 39  1  0  0  0  0
 17 18  1  0  0  0  0
 18 19  1  0  0  0  0
 18 40  1  0  0  0  0
 18 41  1  0  0  0  0
 19 20  1  0  0  0  0
 19 22  1  0  0  0  0
 19 42  1  0  0  0  0
 20 21  1  0  0  0  0
 20 43  1  0  0  0  0
 20 44  1  0  0  0  0
 21 45  1  0  0  0  0
 22 26  1  0  0  0  0
 22 23  1  0  0  0  0
 22 46  1  0  0  0  0
 23 24  1  0  0  0  0
 23 47  1  0  0  0  0
 23 48  1  0  0  0  0
 24 25  1  0  0  0  0
 24 49  1  0  0  0  0
 24 50  1  0  0  0  0
 25 26  1  0  0  0  0
 26 51  1  0  0  0  0
 26 52  1  0  0  0  0
 27 53  1  0  0  0  0
 27 54  1  0  0  0  0
 28 29  1  0  0  0  0
 28 55  1  0  0  0  0
 28 56  1  0  0  0  0
 29 57  1  0  0  0  0
M  END
> <s_m_source_file>
AV-unprocessed.smi

> <i_m_source_file_index>
20

> <i_lp_mmshare_version>
43012

> <i_f3d_flags>
0

> <s_epik_input>
W0NIMl0xW05IXUMoPU8pW0NIMl1bQ0BAXTEyW0NIMl1bQ0gyXVtDSDJdTihbQ0gyXTIpYyhuW2NIXW4zKWMoYzM0KW5bY0hdbjRbQ0gyXVtDQEhdKFtDSDJdW09IXSlbQ0BASF01W0NIMl1bQ0gyXU9bQ0gyXTU=

> <s_epik_cmdline>
J2VwaWtfcHl0aG9uJywgJy1waCcsICc3LjAnLCAnLXRuJywgJzgnLCAnLW1hJywgJzIwMCcsICctbWV0YWxfYmluZGluZycsICctaW1hZScsICc8aW5maWxlLm1hZT4nLCAnLW9tYWUnLCAnPG91dGZpbGUubWFlPic=

> <r_lp_tautomer_probability>
1

> <r_epik_Ionization_Penalty>
0.0019697

> <r_epik_Ionization_Penalty_Charging>
0

> <r_epik_Ionization_Penalty_Neutral>
0.0019697

> <r_epik_State_Penalty>
0.00113613

> <r_epik_Charging_Adjusted_Penalty>
0.00113613

> <i_epik_Tot_Q>
0

> <i_epik_Tot_abs_Q>
0

> <r_epik_Metal_State_Penalty>
-0

> <b_epik_Metal_Only>
0

> <s_lp_Force_Field>
OPLS_2005

> <r_lp_Energy>
59.3743

> <b_lp_Chiralities_Consistent>
1

> <s_lp_Variant>
AV-unprocessed.smi:20-7

> <Gold.Version>
5.8.1

> <Gold.Id.Protein>
6NUR|6NUR_protein|mol2

> <Gold.PLP.Fitness>
42.6904

> <Gold.PLP.PLP>
-34.7429

> <Gold.PLP.part.hbond>
-1.8224

> <Gold.PLP.part.metal>
0.0000

> <Gold.PLP.part.buried>
-4.5824

> <Gold.PLP.part.nonpolar>
-28.9004

> <Gold.PLP.part.repulsive>
0.4252

> <Gold.PLP.ligand.clash>
0.0000

> <Gold.PLP.ligand.torsion>
0.5186

> <Gold.PLP.Chemscore.Hbond>
2.0000

> <Gold.PLP.Chemscore.CHOScore>
0.8341

> <Gold.PLP.Chemscore.Metal>
0.0000

> <Gold.Chemscore.Hbonds>
donor molecule, donor type, donor heavy atom, donor atom, acceptor molecule, acceptor atom, score
      P1  H  7989  7998       L1    21  1.00
      P1  H 11000 11005       L1     1  1.00
      L1  C    16    39       P1  7957  0.94

> <Gold.PLP.Chemscore.Internal.Correction>
0.4824

> <Gold.Rescore>
     Score         DG    S(hbond)    S(metal)    S(lipo)     H(rot)  DE(clash)    DE(int)     intcor
     12.01     -13.37       1.72        0.00      78.18       2.74       0.78       0.58       ----

> <Gold.Chemscore.Fitness>
12.0112

> <Gold.Chemscore.DG>
-13.3689

> <Gold.Chemscore.ZeroCoef>
-5.4800

> <Gold.Chemscore.Hbond>
1.7246

> <Gold.Chemscore.Metal>
0.0000

> <Gold.Chemscore.Lipo>
78.1784

> <Gold.Chemscore.Internal_Hbond>
0.0000

> <Gold.Chemscore.DEClash>
0.7774

> <Gold.Chemscore.DEInternal>
0.5803

> <Gold.Chemscore.Rot>
2.7415

> <Gold.Chemscore.Internal.Correction>
   9.000000E+99

> <Gold.Chemscore.Hbonds>
donor molecule, donor type, donor heavy atom, donor atom, acceptor molecule, acceptor atom, score
      P1  H  7989  7998       L1    21  0.42
      P1  H 11000 11005       L1     1  0.78

> <Gold.Chemscore.Hbond.Weighted>
-5.7602

> <Gold.Chemscore.Metal.Weighted>
-0.0000

> <Gold.Chemscore.Lipo.Weighted>
-9.1469

> <Gold.Chemscore.Internal_Hbond.Weighted>
0.0000

> <Gold.Chemscore.DEClash.Weighted>
0.7774

> <Gold.Chemscore.DEInternal.Weighted>
0.5803

> <Gold.Chemscore.Rot.Weighted>
7.0182

> <Gold.Chemscore.Internal.Correction.Weighted>
   9.000000E+99

> <Gold.Protein.RotatedTorsions>
[ 6907 6896 6895 6894 ] final  -14.41 input  -60.11 | X-H torsion
[ 7974 7965 7964 7962 ] final   25.09 input  175.53 | X-H torsion
[ 8008 7997 7996 7995 ] final    6.76 input   59.86 | X-H torsion
[ 10167 10162 10161 10158 ] final  -93.26 input  -65.29 | X-H torsion
[ 10718 10713 10712 10709 ] final -150.96 input   66.30 | X-H torsion
[ 10763 10752 10751 10750 ] final  118.75 input  -60.55 | X-H torsion
[ 11005 11000 10999 10996 ] final   69.14 input  -57.11 | X-H torsion

> <Gold.Protein.ActiveResidues>
 VAL166  LYS551  ARG553  GLY616  TRP617  ASP618  TYR619  PRO620  LYS621  CYS622 
 ASP623  PHE694  ASN695  SER759  ASP760  ASP761  ALA762  ILE779  LEU786  VAL792 
 PHE793  MET794  SER795  GLU796  ALA797  LYS798  CYS799  TRP800  GLU811  SER814 

> <Gold.Protein.RotatedAtoms>
  151.3399  135.0861  159.9367 H   0  0  0  0  0  0  0  0  0  0  0  0  # atno 6907 bound_to 6896
  152.5214  133.9458  159.7658 H   0  0  0  0  0  0  0  0  0  0  0  0  # atno 6908 bound_to 6896
  150.9813  133.6189  159.2752 H   0  0  0  0  0  0  0  0  0  0  0  0  # atno 6909 bound_to 6896
  146.1906  139.7515  142.8835 H   0  0  0  0  0  0  0  0  0  0  0  0  # atno 7974 bound_to 7965
  154.7452  140.2756  155.6339 H   0  0  0  0  0  0  0  0  0  0  0  0  # atno 8008 bound_to 7997
  156.2883  140.2689  156.2116 H   0  0  0  0  0  0  0  0  0  0  0  0  # atno 8009 bound_to 7997
  155.0207  140.0371  157.2426 H   0  0  0  0  0  0  0  0  0  0  0  0  # atno 8010 bound_to 7997
  140.3265  143.3019  151.9989 H   0  0  0  0  0  0  0  0  0  0  0  0  # atno 10167 bound_to 10162
  156.4530  130.8177  151.2408 H   0  0  0  0  0  0  0  0  0  0  0  0  # atno 10718 bound_to 10713
  153.5724  135.3499  155.2843 H   0  0  0  0  0  0  0  0  0  0  0  0  # atno 10763 bound_to 10752
  154.8680  135.4162  154.2710 H   0  0  0  0  0  0  0  0  0  0  0  0  # atno 10764 bound_to 10752
  153.3479  135.7053  153.6882 H   0  0  0  0  0  0  0  0  0  0  0  0  # atno 10765 bound_to 10752
  139.9671  134.6963  156.0524 H   0  0  0  0  0  0  0  0  0  0  0  0  # atno 11005 bound_to 11000
  145.3805  141.0357  143.3180 LP  0  0  0  0  0  0  0  0  0  0  0  0  # atno 17320 bound_to 7965
  144.8479  139.5368  143.6870 LP  0  0  0  0  0  0  0  0  0  0  0  0  # atno 17321 bound_to 7965
  139.4864  144.6269  151.7146 LP  0  0  0  0  0  0  0  0  0  0  0  0  # atno 17342 bound_to 10162
  140.5436  144.0539  150.6098 LP  0  0  0  0  0  0  0  0  0  0  0  0  # atno 17343 bound_to 10162
  157.7502  131.0132  150.3414 LP  0  0  0  0  0  0  0  0  0  0  0  0  # atno 17370 bound_to 10713
  156.3796  130.3878  149.7112 LP  0  0  0  0  0  0  0  0  0  0  0  0  # atno 17371 bound_to 10713
  141.1350  133.6577  156.3570 LP  0  0  0  0  0  0  0  0  0  0  0  0  # atno 17394 bound_to 11000
  140.5374  134.6154  157.5369 LP  0  0  0  0  0  0  0  0  0  0  0  0  # atno 17395 bound_to 11000

$$$$
