AV-unprocessed.smi:3303|AV-procd|sdf|12691|dock6
  -GOLD-   2272019 23D 1   1.00000     0.00000
 Structure written by MMmdl.
 44 45  0  0  0  0  0  0  0  0  2 V2000
  150.6908  138.7369  154.2671 C   0  0  0  0  0  0  0  0  0  0  0  0
  149.4259  139.0580  155.0909 C   0  0  2  0  0  0  0  0  0  0  0  0
  148.1471  138.6765  154.3171 C   0  0  0  0  0  0  0  0  0  0  0  0
  147.8888  139.6114  153.1910 N   0  3  1  0  0  0  0  0  0  0  0  0
  146.8022  139.1487  152.2986 C   0  0  0  0  0  0  0  0  0  0  0  0
  147.7678  141.0366  153.6135 C   0  0  1  0  0  0  0  0  0  0  0  0
  146.4696  141.3440  154.3910 C   0  0  0  0  0  0  0  0  0  0  0  0
  149.0296  141.4695  154.3871 C   0  0  0  0  0  0  0  0  0  0  0  0
  149.3332  140.5310  155.5703 C   0  0  2  0  0  0  0  0  0  0  0  0
  150.5463  140.9951  156.2355 N   0  0  0  0  0  0  0  0  0  0  0  0
  150.7160  140.3951  157.5513 C   0  0  0  0  0  0  0  0  0  0  0  0
  152.0268  140.8900  158.1769 C   0  0  0  0  0  0  0  0  0  0  0  0
  151.9571  142.3570  158.5561 C   0  0  0  0  0  0  0  0  0  0  0  0
  152.4784  142.8078  159.7879 C   0  0  0  0  0  0  0  0  0  0  0  0
  152.3796  144.1780  160.0970 C   0  0  0  0  0  0  0  0  0  0  0  0
  151.7652  145.0402  159.1685 C   0  0  0  0  0  0  0  0  0  0  0  0
  151.2750  144.4912  157.9667 C   0  0  0  0  0  0  0  0  0  0  0  0
  151.3642  143.1787  157.6605 N   0  0  0  0  0  0  0  0  0  0  0  0
  150.7454  139.3271  153.3529 H   0  0  0  0  0  0  0  0  0  0  0  0
  150.7096  137.6858  153.9787 H   0  0  0  0  0  0  0  0  0  0  0  0
  151.6000  138.9258  154.8383 H   0  0  0  0  0  0  0  0  0  0  0  0
  149.4557  138.4143  155.9700 H   0  0  0  0  0  0  0  0  0  0  0  0
  148.2423  137.6602  153.9322 H   0  0  0  0  0  0  0  0  0  0  0  0
  147.2897  138.6648  154.9903 H   0  0  0  0  0  0  0  0  0  0  0  0
  145.8610  139.0377  152.8379 H   0  0  0  0  0  0  0  0  0  0  0  0
  147.0556  138.1808  151.8655 H   0  0  0  0  0  0  0  0  0  0  0  0
  146.6501  139.8489  151.4766 H   0  0  0  0  0  0  0  0  0  0  0  0
  147.7373  141.6345  152.7016 H   0  0  0  0  0  0  0  0  0  0  0  0
  146.4352  142.3950  154.6793 H   0  0  0  0  0  0  0  0  0  0  0  0
  146.3815  140.7568  155.3044 H   0  0  0  0  0  0  0  0  0  0  0  0
  145.5819  141.1557  153.7873 H   0  0  0  0  0  0  0  0  0  0  0  0
  149.8789  141.4888  153.7028 H   0  0  0  0  0  0  0  0  0  0  0  0
  148.9117  142.4947  154.7410 H   0  0  0  0  0  0  0  0  0  0  0  0
  148.5107  140.6176  156.2817 H   0  0  0  0  0  0  0  0  0  0  0  0
  150.5049  141.9991  156.3414 H   0  0  0  0  0  0  0  0  0  0  0  0
  149.8734  140.6630  158.1902 H   0  0  0  0  0  0  0  0  0  0  0  0
  150.7386  139.3084  157.4730 H   0  0  0  0  0  0  0  0  0  0  0  0
  152.2627  140.3026  159.0656 H   0  0  0  0  0  0  0  0  0  0  0  0
  152.8558  140.7435  157.4827 H   0  0  0  0  0  0  0  0  0  0  0  0
  152.9414  142.1214  160.4816 H   0  0  0  0  0  0  0  0  0  0  0  0
  152.7669  144.5602  161.0299 H   0  0  0  0  0  0  0  0  0  0  0  0
  151.6712  146.0965  159.3722 H   0  0  0  0  0  0  0  0  0  0  0  0
  150.7973  145.1227  157.2322 H   0  0  0  0  0  0  0  0  0  0  0  0
  148.7251  139.5786  152.6253 H   0  0  0  0  0  0  0  0  0  0  0  0
  1  2  1  0  0  0  0
  1 19  1  0  0  0  0
  1 20  1  0  0  0  0
  1 21  1  0  0  0  0
  2  9  1  0  0  0  0
  2  3  1  0  0  0  0
  2 22  1  0  0  0  0
  3  4  1  0  0  0  0
  3 23  1  0  0  0  0
  3 24  1  0  0  0  0
  4  5  1  0  0  0  0
  4  6  1  0  0  0  0
  4 44  1  0  0  0  0
  5 25  1  0  0  0  0
  5 26  1  0  0  0  0
  5 27  1  0  0  0  0
  6  7  1  0  0  0  0
  6  8  1  0  0  0  0
  6 28  1  0  0  0  0
  7 29  1  0  0  0  0
  7 30  1  0  0  0  0
  7 31  1  0  0  0  0
  8  9  1  0  0  0  0
  8 32  1  0  0  0  0
  8 33  1  0  0  0  0
  9 10  1  0  0  0  0
  9 34  1  0  0  0  0
 10 11  1  0  0  0  0
 10 35  1  0  0  0  0
 11 12  1  0  0  0  0
 11 36  1  0  0  0  0
 11 37  1  0  0  0  0
 12 13  1  0  0  0  0
 12 38  1  0  0  0  0
 12 39  1  0  0  0  0
 13 18  1  0  0  0  0
 13 14  2  0  0  0  0
 14 15  1  0  0  0  0
 14 40  1  0  0  0  0
 15 16  2  0  0  0  0
 15 41  1  0  0  0  0
 16 17  1  0  0  0  0
 16 42  1  0  0  0  0
 17 18  2  0  0  0  0
 17 43  1  0  0  0  0
M  CHG  1   4   1
M  END
> <s_m_source_file>
AV-unprocessed.smi

> <i_m_source_file_index>
3303

> <i_lp_mmshare_version>
43012

> <i_f3d_flags>
0

> <s_epik_input>
W0NIM11bQ0BASF0xW0NIMl1OKFtDSDNdKVtDQEBIXShbQ0gzXSlbQ0gyXVtDQEhdMVtOSF1bQ0gyXVtDSDJdYzJbY0hdW2NIXVtjSF1bY0hdbjI=

> <s_epik_cmdline>
J2VwaWtfcHl0aG9uJywgJy1waCcsICc3LjAnLCAnLXRuJywgJzgnLCAnLW1hJywgJzIwMCcsICctbWV0YWxfYmluZGluZycsICctaW1hZScsICc8aW5maWxlLm1hZT4nLCAnLW9tYWUnLCAnPG91dGZpbGUubWFlPic=

> <r_epik_Ionization_Penalty>
2.31085

> <r_epik_Ionization_Penalty_Charging>
0.000313057

> <r_epik_Ionization_Penalty_Neutral>
2.31054

> <r_epik_State_Penalty>
2.4087

> <r_epik_Charging_Adjusted_Penalty>
2.40902

> <i_epik_Tot_Q>
1

> <i_epik_Tot_abs_Q>
1

> <r_epik_Metal_State_Penalty>
2.30979

> <b_epik_Metal_Only>
0

> <s_lp_Force_Field>
OPLS_2005

> <r_lp_Energy>
26.3276

> <b_lp_Chiralities_Consistent>
1

> <s_lp_Variant>
AV-unprocessed.smi:3303-35

> <Gold.Version>
5.8.1

> <Gold.Id.Protein>
6NUR|6NUR_protein|mol2

> <Gold.PLP.Fitness>
46.7423

> <Gold.PLP.PLP>
-41.4584

> <Gold.PLP.part.hbond>
-1.0000

> <Gold.PLP.part.metal>
0.0000

> <Gold.PLP.part.buried>
-4.6806

> <Gold.PLP.part.nonpolar>
-36.7741

> <Gold.PLP.part.repulsive>
0.1670

> <Gold.PLP.ligand.clash>
0.0000

> <Gold.PLP.ligand.torsion>
0.3458

> <Gold.PLP.Chemscore.Hbond>
1.0000

> <Gold.PLP.Chemscore.CHOScore>
0.9877

> <Gold.PLP.Chemscore.Metal>
0.0000

> <Gold.Chemscore.Hbonds>
donor molecule, donor type, donor heavy atom, donor atom, acceptor molecule, acceptor atom, score
      L1  H     4    44       P1  7957  0.99
      L1  C    17    43       P1  8028  1.00

> <Gold.PLP.Chemscore.Internal.Correction>
0.0125

> <Gold.Rescore>
     Score         DG    S(hbond)    S(metal)    S(lipo)     H(rot)  DE(clash)    DE(int)     intcor
     18.07     -20.04       0.97        0.00     125.82       1.33       0.31       1.67       ----

> <Gold.Chemscore.Fitness>
18.0658

> <Gold.Chemscore.DG>
-20.0405

> <Gold.Chemscore.ZeroCoef>
-5.4800

> <Gold.Chemscore.Hbond>
0.9693

> <Gold.Chemscore.Metal>
0.0000

> <Gold.Chemscore.Lipo>
125.8185

> <Gold.Chemscore.Internal_Hbond>
0.0000

> <Gold.Chemscore.DEClash>
0.3070

> <Gold.Chemscore.DEInternal>
1.6676

> <Gold.Chemscore.Rot>
1.3272

> <Gold.Chemscore.Internal.Correction>
   9.000000E+99

> <Gold.Chemscore.Hbonds>
donor molecule, donor type, donor heavy atom, donor atom, acceptor molecule, acceptor atom, score
      L1  H     4    44       P1  7957  0.94

> <Gold.Chemscore.Hbond.Weighted>
-3.2373

> <Gold.Chemscore.Metal.Weighted>
-0.0000

> <Gold.Chemscore.Lipo.Weighted>
-14.7208

> <Gold.Chemscore.Internal_Hbond.Weighted>
0.0000

> <Gold.Chemscore.DEClash.Weighted>
0.3070

> <Gold.Chemscore.DEInternal.Weighted>
1.6676

> <Gold.Chemscore.Rot.Weighted>
3.3976

> <Gold.Chemscore.Internal.Correction.Weighted>
   9.000000E+99

> <Gold.Protein.RotatedTorsions>
[ 6907 6896 6895 6894 ] final  -87.45 input  -60.11 | X-H torsion
[ 7974 7965 7964 7962 ] final  -66.56 input  175.53 | X-H torsion
[ 8008 7997 7996 7995 ] final -152.91 input   59.86 | X-H torsion
[ 10167 10162 10161 10158 ] final   50.02 input  -65.29 | X-H torsion
[ 10718 10713 10712 10709 ] final  142.77 input   66.30 | X-H torsion
[ 10763 10752 10751 10750 ] final  -78.19 input  -60.55 | X-H torsion
[ 11005 11000 10999 10996 ] final  121.28 input  -57.11 | X-H torsion

> <Gold.Protein.ActiveResidues>
 VAL166  LYS551  ARG553  GLY616  TRP617  ASP618  TYR619  PRO620  LYS621  CYS622 
 ASP623  PHE694  ASN695  SER759  ASP760  ASP761  ALA762  ILE779  LEU786  VAL792 
 PHE793  MET794  SER795  GLU796  ALA797  LYS798  CYS799  TRP800  GLU811  SER814 

> <Gold.Protein.RotatedAtoms>
  150.6866  134.2893  159.4659 H   0  0  0  0  0  0  0  0  0  0  0  0  # atno 6907 bound_to 6896
  152.0800  134.9475  160.0583 H   0  0  0  0  0  0  0  0  0  0  0  0  # atno 6908 bound_to 6896
  152.0831  133.4128  159.4547 H   0  0  0  0  0  0  0  0  0  0  0  0  # atno 6909 bound_to 6896
  145.7402  140.8957  143.0534 H   0  0  0  0  0  0  0  0  0  0  0  0  # atno 7974 bound_to 7965
  155.6626  140.0724  157.2548 H   0  0  0  0  0  0  0  0  0  0  0  0  # atno 8008 bound_to 7997
  154.4139  140.1713  156.1844 H   0  0  0  0  0  0  0  0  0  0  0  0  # atno 8009 bound_to 7997
  155.9684  140.3364  155.6556 H   0  0  0  0  0  0  0  0  0  0  0  0  # atno 8010 bound_to 7997
  140.2768  144.3202  150.6275 H   0  0  0  0  0  0  0  0  0  0  0  0  # atno 10167 bound_to 10162
  157.3767  131.0986  151.0778 H   0  0  0  0  0  0  0  0  0  0  0  0  # atno 10718 bound_to 10713
  154.5227  135.5738  153.6694 H   0  0  0  0  0  0  0  0  0  0  0  0  # atno 10763 bound_to 10752
  152.9921  135.6185  154.2733 H   0  0  0  0  0  0  0  0  0  0  0  0  # atno 10764 bound_to 10752
  154.2654  135.2855  155.2740 H   0  0  0  0  0  0  0  0  0  0  0  0  # atno 10765 bound_to 10752
  139.9219  134.9638  156.7934 H   0  0  0  0  0  0  0  0  0  0  0  0  # atno 11005 bound_to 11000
  144.6872  139.9450  143.7476 LP  0  0  0  0  0  0  0  0  0  0  0  0  # atno 17320 bound_to 7965
  146.0455  139.3461  143.0671 LP  0  0  0  0  0  0  0  0  0  0  0  0  # atno 17321 bound_to 7965
  140.5845  143.2171  151.7368 LP  0  0  0  0  0  0  0  0  0  0  0  0  # atno 17342 bound_to 10162
  139.4973  144.4032  152.0159 LP  0  0  0  0  0  0  0  0  0  0  0  0  # atno 17343 bound_to 10162
  157.1862  130.6331  149.5688 LP  0  0  0  0  0  0  0  0  0  0  0  0  # atno 17370 bound_to 10713
  155.9767  130.4737  150.6543 LP  0  0  0  0  0  0  0  0  0  0  0  0  # atno 17371 bound_to 10713
  140.6449  133.9785  155.7725 LP  0  0  0  0  0  0  0  0  0  0  0  0  # atno 17394 bound_to 11000
  141.0747  134.0153  157.3475 LP  0  0  0  0  0  0  0  0  0  0  0  0  # atno 17395 bound_to 11000

$$$$
