AV-unprocessed.smi:3343|AV-procd|sdf|12892|dock10
  -GOLD-   2272019303D 1   1.00000     0.00000
 Structure written by MMmdl.
 42 43  0  0  0  0  0  0  0  0  2 V2000
  152.8758  144.5185  157.8758 C   0  0  0  0  0  0  0  0  0  0  0  0
  151.7840  143.7256  158.6175 C   0  0  1  0  0  0  0  0  0  0  0  0
  151.2720  142.5274  157.8056 C   0  0  0  0  0  0  0  0  0  0  0  0
  151.8847  141.4586  157.8102 O   0  0  0  0  0  0  0  0  0  0  0  0
  150.1244  142.7116  157.1345 N   0  0  0  0  0  0  0  0  0  0  0  0
  149.4236  141.6782  156.3839 C   0  0  0  0  0  0  0  0  0  0  0  0
  147.9003  141.8212  156.5597 C   0  0  0  0  0  0  0  0  0  0  0  0
  147.2260  142.1936  155.3140 N   0  0  0  0  0  0  0  0  0  0  0  0
  147.6203  141.4086  154.1382 C   0  0  0  0  0  0  0  0  0  0  0  0
  147.1322  139.9465  154.2197 C   0  0  0  0  0  0  0  0  0  0  0  0
  145.6606  139.9006  154.3840 N   0  3  0  0  0  0  0  0  0  0  0  0
  145.1318  138.5203  154.4136 C   0  0  0  0  0  0  0  0  0  0  0  0
  145.2398  140.6999  155.5580 C   0  0  0  0  0  0  0  0  0  0  0  0
  145.7668  142.1469  155.4432 C   0  0  0  0  0  0  0  0  0  0  0  0
  152.2531  143.2699  159.9187 N   0  0  0  0  0  0  0  0  0  0  0  0
  153.1896  142.3753  160.2479 C   0  0  0  0  0  0  0  0  0  0  0  0
  153.3202  142.1899  161.5539 N   0  0  0  0  0  0  0  0  0  0  0  0
  152.3675  143.0595  162.0036 C   0  0  0  0  0  0  0  0  0  0  0  0
  151.6948  143.7263  161.0655 N   0  0  0  0  0  0  0  0  0  0  0  0
  152.5212  144.8628  156.9037 H   0  0  0  0  0  0  0  0  0  0  0  0
  153.7729  143.9212  157.7096 H   0  0  0  0  0  0  0  0  0  0  0  0
  153.1690  145.3998  158.4471 H   0  0  0  0  0  0  0  0  0  0  0  0
  150.9430  144.4031  158.7797 H   0  0  0  0  0  0  0  0  0  0  0  0
  149.6862  143.6205  157.1822 H   0  0  0  0  0  0  0  0  0  0  0  0
  149.6906  141.7792  155.3314 H   0  0  0  0  0  0  0  0  0  0  0  0
  149.7797  140.6991  156.7054 H   0  0  0  0  0  0  0  0  0  0  0  0
  147.4794  140.9080  156.9785 H   0  0  0  0  0  0  0  0  0  0  0  0
  147.7192  142.6056  157.2962 H   0  0  0  0  0  0  0  0  0  0  0  0
  147.1927  141.8815  153.2530 H   0  0  0  0  0  0  0  0  0  0  0  0
  148.6997  141.4402  153.9970 H   0  0  0  0  0  0  0  0  0  0  0  0
  147.4049  139.4254  153.3015 H   0  0  0  0  0  0  0  0  0  0  0  0
  147.6215  139.4113  155.0344 H   0  0  0  0  0  0  0  0  0  0  0  0
  145.5196  137.9706  155.2723 H   0  0  0  0  0  0  0  0  0  0  0  0
  145.4114  137.9821  153.5074 H   0  0  0  0  0  0  0  0  0  0  0  0
  144.0430  138.5268  154.4748 H   0  0  0  0  0  0  0  0  0  0  0  0
  144.1506  140.7166  155.6076 H   0  0  0  0  0  0  0  0  0  0  0  0
  145.5847  140.2267  156.4785 H   0  0  0  0  0  0  0  0  0  0  0  0
  145.4541  142.7341  156.3075 H   0  0  0  0  0  0  0  0  0  0  0  0
  145.3233  142.6287  154.5709 H   0  0  0  0  0  0  0  0  0  0  0  0
  153.7820  141.8441  159.5171 H   0  0  0  0  0  0  0  0  0  0  0  0
  152.1598  143.2011  163.0541 H   0  0  0  0  0  0  0  0  0  0  0  0
  145.2639  140.3497  153.5710 H   0  0  0  0  0  0  0  0  0  0  0  0
  1  2  1  0  0  0  0
  1 20  1  0  0  0  0
  1 21  1  0  0  0  0
  1 22  1  0  0  0  0
  2  3  1  0  0  0  0
  2 15  1  0  0  0  0
  2 23  1  0  0  0  0
  3  4  2  0  0  0  0
  3  5  1  0  0  0  0
  5  6  1  0  0  0  0
  5 24  1  0  0  0  0
  6  7  1  0  0  0  0
  6 25  1  0  0  0  0
  6 26  1  0  0  0  0
  7  8  1  0  0  0  0
  7 27  1  0  0  0  0
  7 28  1  0  0  0  0
  8 14  1  0  0  0  0
  8  9  1  0  0  0  0
  9 10  1  0  0  0  0
  9 29  1  0  0  0  0
  9 30  1  0  0  0  0
 10 11  1  0  0  0  0
 10 31  1  0  0  0  0
 10 32  1  0  0  0  0
 11 12  1  0  0  0  0
 11 13  1  0  0  0  0
 11 42  1  0  0  0  0
 12 33  1  0  0  0  0
 12 34  1  0  0  0  0
 12 35  1  0  0  0  0
 13 14  1  0  0  0  0
 13 36  1  0  0  0  0
 13 37  1  0  0  0  0
 14 38  1  0  0  0  0
 14 39  1  0  0  0  0
 15 19  1  0  0  0  0
 15 16  1  0  0  0  0
 16 17  2  0  0  0  0
 16 40  1  0  0  0  0
 17 18  1  0  0  0  0
 18 19  2  0  0  0  0
 18 41  1  0  0  0  0
M  CHG  1  11   1
M  END
> <s_m_source_file>
AV-unprocessed.smi

> <i_m_source_file_index>
3343

> <i_lp_mmshare_version>
43012

> <i_f3d_flags>
0

> <s_epik_input>
bjFbY0hdbltjSF1uMVtDQEhdKFtDSDNdKUMoPU8pW05IXVtDSDJdW0NIMl1OMltDSDJdW0NIMl1OKFtDSDNdKVtDSDJdW0NIMl0y

> <s_epik_cmdline>
J2VwaWtfcHl0aG9uJywgJy1waCcsICc3LjAnLCAnLXRuJywgJzgnLCAnLW1hJywgJzIwMCcsICctbWV0YWxfYmluZGluZycsICctaW1hZScsICc8aW5maWxlLm1hZT4nLCAnLW9tYWUnLCAnPG91dGZpbGUubWFlPic=

> <r_lp_tautomer_probability>
1

> <r_epik_Ionization_Penalty>
0.0359277

> <r_epik_Ionization_Penalty_Charging>
0.0358005

> <r_epik_Ionization_Penalty_Neutral>
0.000127293

> <r_epik_State_Penalty>
0.0476325

> <r_epik_Charging_Adjusted_Penalty>
0.0834329

> <i_epik_Tot_Q>
1

> <i_epik_Tot_abs_Q>
1

> <r_epik_Metal_State_Penalty>
0.0476323

> <b_epik_Metal_Only>
0

> <s_lp_Force_Field>
OPLS_2005

> <r_lp_Energy>
19.669

> <b_lp_Chiralities_Consistent>
1

> <s_lp_Variant>
AV-unprocessed.smi:3343-2

> <Gold.Version>
5.8.1

> <Gold.Id.Protein>
6NUR|6NUR_protein|mol2

> <Gold.PLP.Fitness>
40.3992

> <Gold.PLP.PLP>
-35.5018

> <Gold.PLP.part.hbond>
-2.0000

> <Gold.PLP.part.metal>
0.0000

> <Gold.PLP.part.buried>
-4.2646

> <Gold.PLP.part.nonpolar>
-28.8575

> <Gold.PLP.part.repulsive>
0.6977

> <Gold.PLP.ligand.clash>
0.0000

> <Gold.PLP.ligand.torsion>
1.1649

> <Gold.PLP.Chemscore.Hbond>
2.3818

> <Gold.PLP.Chemscore.CHOScore>
0.0000

> <Gold.PLP.Chemscore.Metal>
0.0000

> <Gold.Chemscore.Hbonds>
donor molecule, donor type, donor heavy atom, donor atom, acceptor molecule, acceptor atom, score
      L1  H     5    24       P1  8028  0.59
      L1  H    11    42       P1 10175  1.76

> <Gold.PLP.Chemscore.Internal.Correction>
0.0818

> <Gold.Rescore>
     Score         DG    S(hbond)    S(metal)    S(lipo)     H(rot)  DE(clash)    DE(int)     intcor
      8.22     -11.00       1.68        0.00      56.76       2.63       0.80       1.98       ----

> <Gold.Chemscore.Fitness>
8.2228

> <Gold.Chemscore.DG>
-11.0030

> <Gold.Chemscore.ZeroCoef>
-5.4800

> <Gold.Chemscore.Hbond>
1.6795

> <Gold.Chemscore.Metal>
0.0000

> <Gold.Chemscore.Lipo>
56.7572

> <Gold.Chemscore.Internal_Hbond>
0.0000

> <Gold.Chemscore.DEClash>
0.7990

> <Gold.Chemscore.DEInternal>
1.9813

> <Gold.Chemscore.Rot>
2.6278

> <Gold.Chemscore.Internal.Correction>
   9.000000E+99

> <Gold.Chemscore.Hbonds>
donor molecule, donor type, donor heavy atom, donor atom, acceptor molecule, acceptor atom, score
      L1  H     5    24       P1  8028  0.48
      L1  H    11    42       P1 10175  0.86

> <Gold.Chemscore.Hbond.Weighted>
-5.6095

> <Gold.Chemscore.Metal.Weighted>
-0.0000

> <Gold.Chemscore.Lipo.Weighted>
-6.6406

> <Gold.Chemscore.Internal_Hbond.Weighted>
0.0000

> <Gold.Chemscore.DEClash.Weighted>
0.7990

> <Gold.Chemscore.DEInternal.Weighted>
1.9813

> <Gold.Chemscore.Rot.Weighted>
6.7271

> <Gold.Chemscore.Internal.Correction.Weighted>
   9.000000E+99

> <Gold.Protein.RotatedTorsions>
[ 6907 6896 6895 6894 ] final -150.14 input  -60.11 | X-H torsion
[ 7974 7965 7964 7962 ] final   44.83 input  175.53 | X-H torsion
[ 8008 7997 7996 7995 ] final   76.25 input   59.86 | X-H torsion
[ 10167 10162 10161 10158 ] final  161.94 input  -65.29 | X-H torsion
[ 10718 10713 10712 10709 ] final -151.02 input   66.30 | X-H torsion
[ 10763 10752 10751 10750 ] final  115.90 input  -60.55 | X-H torsion
[ 11005 11000 10999 10996 ] final  -82.02 input  -57.11 | X-H torsion

> <Gold.Protein.ActiveResidues>
 VAL166  LYS551  ARG553  GLY616  TRP617  ASP618  TYR619  PRO620  LYS621  CYS622 
 ASP623  PHE694  ASN695  SER759  ASP760  ASP761  ALA762  ILE779  LEU786  VAL792 
 PHE793  MET794  SER795  GLU796  ALA797  LYS798  CYS799  TRP800  GLU811  SER814 

> <Gold.Protein.RotatedAtoms>
  151.1943  133.4649  159.2595 H   0  0  0  0  0  0  0  0  0  0  0  0  # atno 6907 bound_to 6896
  151.1133  135.0038  159.8514 H   0  0  0  0  0  0  0  0  0  0  0  0  # atno 6908 bound_to 6896
  152.5452  134.1860  159.8708 H   0  0  0  0  0  0  0  0  0  0  0  0  # atno 6909 bound_to 6896
  146.0534  139.5031  142.9704 H   0  0  0  0  0  0  0  0  0  0  0  0  # atno 7974 bound_to 7965
  155.8246  140.3468  155.5535 H   0  0  0  0  0  0  0  0  0  0  0  0  # atno 8008 bound_to 7997
  155.8306  140.0926  157.1814 H   0  0  0  0  0  0  0  0  0  0  0  0  # atno 8009 bound_to 7997
  154.4004  140.1413  156.3597 H   0  0  0  0  0  0  0  0  0  0  0  0  # atno 8010 bound_to 7997
  139.4855  144.4487  151.8858 H   0  0  0  0  0  0  0  0  0  0  0  0  # atno 10167 bound_to 10162
  156.4537  130.8180  151.2411 H   0  0  0  0  0  0  0  0  0  0  0  0  # atno 10718 bound_to 10713
  153.5292  135.3582  155.2668 H   0  0  0  0  0  0  0  0  0  0  0  0  # atno 10763 bound_to 10752
  154.8728  135.4064  154.3171 H   0  0  0  0  0  0  0  0  0  0  0  0  # atno 10764 bound_to 10752
  153.3856  135.7070  153.6600 H   0  0  0  0  0  0  0  0  0  0  0  0  # atno 10765 bound_to 10752
  141.1664  133.7224  156.8509 H   0  0  0  0  0  0  0  0  0  0  0  0  # atno 11005 bound_to 11000
  145.6685  141.0222  143.1670 LP  0  0  0  0  0  0  0  0  0  0  0  0  # atno 17320 bound_to 7965
  144.7135  139.8283  143.7406 LP  0  0  0  0  0  0  0  0  0  0  0  0  # atno 17321 bound_to 7965
  140.3942  144.2576  150.5897 LP  0  0  0  0  0  0  0  0  0  0  0  0  # atno 17342 bound_to 10162
  140.5117  143.2289  151.8525 LP  0  0  0  0  0  0  0  0  0  0  0  0  # atno 17343 bound_to 10162
  157.7501  131.0129  150.3405 LP  0  0  0  0  0  0  0  0  0  0  0  0  # atno 17370 bound_to 10713
  156.3789  130.3877  149.7117 LP  0  0  0  0  0  0  0  0  0  0  0  0  # atno 17371 bound_to 10713
  140.1916  134.8961  157.3067 LP  0  0  0  0  0  0  0  0  0  0  0  0  # atno 17394 bound_to 11000
  140.2283  134.3939  155.7533 LP  0  0  0  0  0  0  0  0  0  0  0  0  # atno 17395 bound_to 11000

$$$$
