AV-unprocessed.smi:3287|AV-procd|sdf|12599|dock2
  -GOLD-   2272018523D 1   1.00000     0.00000
 Structure written by MMmdl.
 43 44  0  0  0  0  0  0  0  0  2 V2000
  144.7727  132.4059  149.6729 C   0  0  0  0  0  0  0  0  0  0  0  0
  145.2102  132.8836  151.0690 C   0  0  1  0  0  0  0  0  0  0  0  0
  146.6729  133.3688  151.0182 C   0  0  0  0  0  0  0  0  0  0  0  0
  147.1735  133.8509  152.3888 C   0  0  0  0  0  0  0  0  0  0  0  0
  146.2736  134.9491  152.9791 C   0  0  1  0  0  0  0  0  0  0  0  0
  146.4338  136.2142  152.2245 N   0  3  0  0  0  0  0  0  0  0  0  0
  145.8458  137.4131  152.8604 C   0  0  0  0  0  0  0  0  0  0  0  0
  146.5458  138.6994  152.3893 C   0  0  2  0  0  0  0  0  0  0  0  0
  147.6733  138.3482  151.6102 O   0  0  0  0  0  0  0  0  0  0  0  0
  146.9251  139.5780  153.5711 C   0  0  0  0  0  0  0  0  0  0  0  0
  146.7039  139.1324  154.8913 C   0  0  0  0  0  0  0  0  0  0  0  0
  147.0778  139.9735  155.9584 C   0  0  0  0  0  0  0  0  0  0  0  0
  147.6410  141.1881  155.7829 N   0  0  0  0  0  0  0  0  0  0  0  0
  147.8533  141.6093  154.5179 C   0  0  0  0  0  0  0  0  0  0  0  0
  147.5176  140.8458  153.3818 C   0  0  0  0  0  0  0  0  0  0  0  0
  144.8078  134.4694  153.0215 C   0  0  0  0  0  0  0  0  0  0  0  0
  144.2864  133.9871  151.6497 C   0  0  2  0  0  0  0  0  0  0  0  0
  142.8219  133.5320  151.7817 C   0  0  0  0  0  0  0  0  0  0  0  0
  144.7198  133.2356  148.9673 H   0  0  0  0  0  0  0  0  0  0  0  0
  143.7970  131.9215  149.6966 H   0  0  0  0  0  0  0  0  0  0  0  0
  145.4762  131.6754  149.2720 H   0  0  0  0  0  0  0  0  0  0  0  0
  145.1703  132.0220  151.7376 H   0  0  0  0  0  0  0  0  0  0  0  0
  147.3180  132.5629  150.6658 H   0  0  0  0  0  0  0  0  0  0  0  0
  146.7688  134.1739  150.2885 H   0  0  0  0  0  0  0  0  0  0  0  0
  147.1992  133.0026  153.0743 H   0  0  0  0  0  0  0  0  0  0  0  0
  148.2019  134.2056  152.3086 H   0  0  0  0  0  0  0  0  0  0  0  0
  146.6110  135.1356  153.9997 H   0  0  0  0  0  0  0  0  0  0  0  0
  147.4241  136.3901  152.1281 H   0  0  0  0  0  0  0  0  0  0  0  0
  144.7872  137.4690  152.6072 H   0  0  0  0  0  0  0  0  0  0  0  0
  145.9112  137.3238  153.9458 H   0  0  0  0  0  0  0  0  0  0  0  0
  145.8691  139.2632  151.7454 H   0  0  0  0  0  0  0  0  0  0  0  0
  148.3879  138.9229  151.8413 H   0  0  0  0  0  0  0  0  0  0  0  0
  146.2586  138.1681  155.0881 H   0  0  0  0  0  0  0  0  0  0  0  0
  146.9219  139.6610  156.9804 H   0  0  0  0  0  0  0  0  0  0  0  0
  148.3063  142.5835  154.4071 H   0  0  0  0  0  0  0  0  0  0  0  0
  147.7139  141.2294  152.3911 H   0  0  0  0  0  0  0  0  0  0  0  0
  144.7346  133.6454  153.7330 H   0  0  0  0  0  0  0  0  0  0  0  0
  144.1595  135.2510  153.4171 H   0  0  0  0  0  0  0  0  0  0  0  0
  144.3008  134.8377  150.9668 H   0  0  0  0  0  0  0  0  0  0  0  0
  142.7383  132.6364  152.3983 H   0  0  0  0  0  0  0  0  0  0  0  0
  142.3756  133.3146  150.8118 H   0  0  0  0  0  0  0  0  0  0  0  0
  142.2106  134.3083  152.2425 H   0  0  0  0  0  0  0  0  0  0  0  0
  146.0404  136.0974  151.3017 H   0  0  0  0  0  0  0  0  0  0  0  0
  1  2  1  0  0  0  0
  1 19  1  0  0  0  0
  1 20  1  0  0  0  0
  1 21  1  0  0  0  0
  2 17  1  0  0  0  0
  2  3  1  0  0  0  0
  2 22  1  0  0  0  0
  3  4  1  0  0  0  0
  3 23  1  0  0  0  0
  3 24  1  0  0  0  0
  4  5  1  0  0  0  0
  4 25  1  0  0  0  0
  4 26  1  0  0  0  0
  5  6  1  0  0  0  0
  5 16  1  0  0  0  0
  5 27  1  0  0  0  0
  6  7  1  0  0  0  0
  6 28  1  0  0  0  0
  6 43  1  0  0  0  0
  7  8  1  0  0  0  0
  7 29  1  0  0  0  0
  7 30  1  0  0  0  0
  8  9  1  0  0  0  0
  8 10  1  0  0  0  0
  8 31  1  0  0  0  0
  9 32  1  0  0  0  0
 10 15  1  0  0  0  0
 10 11  2  0  0  0  0
 11 12  1  0  0  0  0
 11 33  1  0  0  0  0
 12 13  2  0  0  0  0
 12 34  1  0  0  0  0
 13 14  1  0  0  0  0
 14 15  2  0  0  0  0
 14 35  1  0  0  0  0
 15 36  1  0  0  0  0
 16 17  1  0  0  0  0
 16 37  1  0  0  0  0
 16 38  1  0  0  0  0
 17 18  1  0  0  0  0
 17 39  1  0  0  0  0
 18 40  1  0  0  0  0
 18 41  1  0  0  0  0
 18 42  1  0  0  0  0
M  CHG  1   6   1
M  END
> <s_m_source_file>
AV-unprocessed.smi

> <i_m_source_file_index>
3287

> <i_lp_mmshare_version>
43012

> <i_f3d_flags>
0

> <s_epik_input>
W0NIM11bQ0BASF0xW0NIMl1bQ0gyXVtDQEhdKFtDSDJdW0NASF0xW0NIM10pW05IXVtDSDJdW0NASF0oW09IXSljMltjSF1bY0hdbltjSF1bY0hdMg==

> <s_epik_cmdline>
J2VwaWtfcHl0aG9uJywgJy1waCcsICc3LjAnLCAnLXRuJywgJzgnLCAnLW1hJywgJzIwMCcsICctbWV0YWxfYmluZGluZycsICctaW1hZScsICc8aW5maWxlLm1hZT4nLCAnLW9tYWUnLCAnPG91dGZpbGUubWFlPic=

> <r_lp_tautomer_probability>
1

> <r_epik_Ionization_Penalty>
0.00537262

> <r_epik_Ionization_Penalty_Charging>
0.00321624

> <r_epik_Ionization_Penalty_Neutral>
0.00215638

> <r_epik_State_Penalty>
-0

> <r_epik_Charging_Adjusted_Penalty>
0.00321624

> <i_epik_Tot_Q>
1

> <i_epik_Tot_abs_Q>
1

> <r_epik_Metal_State_Penalty>
-0

> <b_epik_Metal_Only>
0

> <s_lp_Force_Field>
OPLS_2005

> <r_lp_Energy>
19.0403

> <b_lp_Chiralities_Consistent>
1

> <s_lp_Variant>
AV-unprocessed.smi:3287-10

> <Gold.Version>
5.8.1

> <Gold.Id.Protein>
6NUR|6NUR_protein|mol2

> <Gold.PLP.Fitness>
43.0322

> <Gold.PLP.PLP>
-30.3059

> <Gold.PLP.part.hbond>
-3.8845

> <Gold.PLP.part.metal>
0.0000

> <Gold.PLP.part.buried>
0.4372

> <Gold.PLP.part.nonpolar>
-25.5236

> <Gold.PLP.part.repulsive>
0.1099

> <Gold.PLP.ligand.clash>
0.0000

> <Gold.PLP.ligand.torsion>
0.9171

> <Gold.PLP.Chemscore.Hbond>
3.8480

> <Gold.PLP.Chemscore.CHOScore>
0.9985

> <Gold.PLP.Chemscore.Metal>
0.0000

> <Gold.Chemscore.Hbonds>
donor molecule, donor type, donor heavy atom, donor atom, acceptor molecule, acceptor atom, score
      L1  H     6    28       P1  7948  2.00
      L1  H     9    32       P1  7957  0.83
      P1  H  7954  7966       L1     9  1.00
      L1  C    14    35       P1  8028  1.00

> <Gold.PLP.Chemscore.Internal.Correction>
0.0209

> <Gold.Rescore>
     Score         DG    S(hbond)    S(metal)    S(lipo)     H(rot)  DE(clash)    DE(int)     intcor
     16.54     -17.99       2.19        0.00      85.95       1.90       0.66       0.79       ----

> <Gold.Chemscore.Fitness>
16.5439

> <Gold.Chemscore.DG>
-17.9875

> <Gold.Chemscore.ZeroCoef>
-5.4800

> <Gold.Chemscore.Hbond>
2.1928

> <Gold.Chemscore.Metal>
0.0000

> <Gold.Chemscore.Lipo>
85.9540

> <Gold.Chemscore.Internal_Hbond>
0.0000

> <Gold.Chemscore.DEClash>
0.6559

> <Gold.Chemscore.DEInternal>
0.7877

> <Gold.Chemscore.Rot>
1.9035

> <Gold.Chemscore.Internal.Correction>
   9.000000E+99

> <Gold.Chemscore.Hbonds>
donor molecule, donor type, donor heavy atom, donor atom, acceptor molecule, acceptor atom, score
      L1  H     6    28       P1  7948  0.94
      L1  H     9    32       P1  7957  0.72
      P1  H  7954  7966       L1     9  0.25

> <Gold.Chemscore.Hbond.Weighted>
-7.3238

> <Gold.Chemscore.Metal.Weighted>
-0.0000

> <Gold.Chemscore.Lipo.Weighted>
-10.0566

> <Gold.Chemscore.Internal_Hbond.Weighted>
0.0000

> <Gold.Chemscore.DEClash.Weighted>
0.6559

> <Gold.Chemscore.DEInternal.Weighted>
0.7877

> <Gold.Chemscore.Rot.Weighted>
4.8729

> <Gold.Chemscore.Internal.Correction.Weighted>
   9.000000E+99

> <Gold.Protein.RotatedTorsions>
[ 6907 6896 6895 6894 ] final -110.42 input  -60.11 | X-H torsion
[ 7974 7965 7964 7962 ] final   52.83 input  175.53 | X-H torsion
[ 8008 7997 7996 7995 ] final   -9.52 input   59.86 | X-H torsion
[ 10167 10162 10161 10158 ] final    5.70 input  -65.29 | X-H torsion
[ 10718 10713 10712 10709 ] final -166.27 input   66.30 | X-H torsion
[ 10763 10752 10751 10750 ] final  -62.61 input  -60.55 | X-H torsion
[ 11005 11000 10999 10996 ] final   88.97 input  -57.11 | X-H torsion

> <Gold.Protein.ActiveResidues>
 VAL166  LYS551  ARG553  GLY616  TRP617  ASP618  TYR619  PRO620  LYS621  CYS622 
 ASP623  PHE694  ASN695  SER759  ASP760  ASP761  ALA762  ILE779  LEU786  VAL792 
 PHE793  MET794  SER795  GLU796  ALA797  LYS798  CYS799  TRP800  GLU811  SER814 

> <Gold.Protein.RotatedAtoms>
  150.7624  133.9384  159.3448 H   0  0  0  0  0  0  0  0  0  0  0  0  # atno 6907 bound_to 6896
  151.7289  135.0877  160.0306 H   0  0  0  0  0  0  0  0  0  0  0  0  # atno 6908 bound_to 6896
  152.3602  133.6250  159.6045 H   0  0  0  0  0  0  0  0  0  0  0  0  # atno 6909 bound_to 6896
  145.9773  139.4208  143.0153 H   0  0  0  0  0  0  0  0  0  0  0  0  # atno 7974 bound_to 7965
  154.5639  140.2353  155.8294 H   0  0  0  0  0  0  0  0  0  0  0  0  # atno 8008 bound_to 7997
  156.2052  140.3041  155.9570 H   0  0  0  0  0  0  0  0  0  0  0  0  # atno 8009 bound_to 7997
  155.2838  140.0423  157.3008 H   0  0  0  0  0  0  0  0  0  0  0  0  # atno 8010 bound_to 7997
  140.6468  143.7642  150.7511 H   0  0  0  0  0  0  0  0  0  0  0  0  # atno 10167 bound_to 10162
  156.6654  130.9062  151.3035 H   0  0  0  0  0  0  0  0  0  0  0  0  # atno 10718 bound_to 10713
  154.3025  135.6232  153.5431 H   0  0  0  0  0  0  0  0  0  0  0  0  # atno 10763 bound_to 10752
  152.9839  135.5682  154.5268 H   0  0  0  0  0  0  0  0  0  0  0  0  # atno 10764 bound_to 10752
  154.4901  135.2867  155.1479 H   0  0  0  0  0  0  0  0  0  0  0  0  # atno 10765 bound_to 10752
  139.8885  134.8522  156.3076 H   0  0  0  0  0  0  0  0  0  0  0  0  # atno 11005 bound_to 11000
  145.7820  140.9852  143.1094 LP  0  0  0  0  0  0  0  0  0  0  0  0  # atno 17320 bound_to 7965
  144.6852  139.9576  143.7479 LP  0  0  0  0  0  0  0  0  0  0  0  0  # atno 17321 bound_to 7965
  140.1285  143.4547  152.2269 LP  0  0  0  0  0  0  0  0  0  0  0  0  # atno 17342 bound_to 10162
  139.5679  144.7446  151.3971 LP  0  0  0  0  0  0  0  0  0  0  0  0  # atno 17343 bound_to 10162
  157.7095  130.9424  150.1043 LP  0  0  0  0  0  0  0  0  0  0  0  0  # atno 17370 bound_to 10713
  156.1979  130.3658  149.8825 LP  0  0  0  0  0  0  0  0  0  0  0  0  # atno 17371 bound_to 10713
  140.9871  133.7231  156.0759 LP  0  0  0  0  0  0  0  0  0  0  0  0  # atno 17394 bound_to 11000
  140.7673  134.3872  157.5514 LP  0  0  0  0  0  0  0  0  0  0  0  0  # atno 17395 bound_to 11000

$$$$
