AV-unprocessed.smi:2473|AV-procd|sdf|9743|dock4
  -GOLD-   2272013383D 1   1.00000     0.00000
 Structure written by MMmdl.
 48 49  0  0  0  0  0  0  0  0  2 V2000
  153.1192  142.3095  162.9255 C   0  0  0  0  0  0  0  0  0  0  0  0
  152.5115  142.6927  161.5684 C   0  0  2  0  0  0  0  0  0  0  0  0
  153.3560  142.1338  160.4047 C   0  0  0  0  0  0  0  0  0  0  0  0
  152.8032  142.5122  159.0114 C   0  0  1  0  0  0  0  0  0  0  0  0
  151.5920  141.6713  158.5627 C   0  0  0  0  0  0  0  0  0  0  0  0
  151.2881  140.6292  159.1438 O   0  0  0  0  0  0  0  0  0  0  0  0
  150.9139  142.1290  157.4998 N   0  0  0  0  0  0  0  0  0  0  0  0
  149.7192  141.5017  156.9538 C   0  0  0  0  0  0  0  0  0  0  0  0
  149.8834  141.2482  155.4499 C   0  0  0  0  0  0  0  0  0  0  0  0
  148.5999  141.4021  154.6948 C   0  0  0  0  0  0  0  0  0  0  0  0
  147.8851  142.5294  154.5976 N   0  3  0  0  0  0  0  0  0  0  0  0
  146.7771  142.3259  153.8205 C   0  0  0  0  0  0  0  0  0  0  0  0
  146.8206  141.0162  153.4194 C   0  0  0  0  0  0  0  0  0  0  0  0
  147.9536  140.4736  153.9699 N   0  0  0  0  0  0  0  0  0  0  0  0
  148.4245  139.0952  153.8163 C   0  0  0  0  0  0  0  0  0  0  0  0
  152.5668  144.0419  158.9173 C   0  0  0  0  0  0  0  0  0  0  0  0
  151.7634  144.6801  160.0839 C   0  0  0  0  0  0  0  0  0  0  0  0
  151.8993  146.2129  159.9805 C   0  0  0  0  0  0  0  0  0  0  0  0
  150.2553  144.3529  160.0034 C   0  0  0  0  0  0  0  0  0  0  0  0
  152.3602  144.2220  161.4375 C   0  0  0  0  0  0  0  0  0  0  0  0
  154.1195  142.7263  163.0456 H   0  0  0  0  0  0  0  0  0  0  0  0
  153.1948  141.2267  163.0295 H   0  0  0  0  0  0  0  0  0  0  0  0
  152.5047  142.6759  163.7485 H   0  0  0  0  0  0  0  0  0  0  0  0
  151.5205  142.2424  161.5339 H   0  0  0  0  0  0  0  0  0  0  0  0
  154.3741  142.5160  160.4892 H   0  0  0  0  0  0  0  0  0  0  0  0
  153.4438  141.0499  160.4944 H   0  0  0  0  0  0  0  0  0  0  0  0
  153.5844  142.2654  158.2909 H   0  0  0  0  0  0  0  0  0  0  0  0
  151.2313  142.9824  157.0631 H   0  0  0  0  0  0  0  0  0  0  0  0
  149.5334  140.5639  157.4792 H   0  0  0  0  0  0  0  0  0  0  0  0
  148.8564  142.1463  157.1295 H   0  0  0  0  0  0  0  0  0  0  0  0
  150.6081  141.9342  155.0102 H   0  0  0  0  0  0  0  0  0  0  0  0
  150.2439  140.2356  155.2645 H   0  0  0  0  0  0  0  0  0  0  0  0
  146.0609  143.1083  153.6147 H   0  0  0  0  0  0  0  0  0  0  0  0
  146.1464  140.4454  152.7973 H   0  0  0  0  0  0  0  0  0  0  0  0
  147.7340  138.5421  153.1792 H   0  0  0  0  0  0  0  0  0  0  0  0
  148.4715  138.6170  154.7950 H   0  0  0  0  0  0  0  0  0  0  0  0
  149.4130  139.0972  153.3569 H   0  0  0  0  0  0  0  0  0  0  0  0
  153.5516  144.5107  158.8821 H   0  0  0  0  0  0  0  0  0  0  0  0
  152.1027  144.3015  157.9648 H   0  0  0  0  0  0  0  0  0  0  0  0
  151.3647  146.7162  160.7871 H   0  0  0  0  0  0  0  0  0  0  0  0
  151.4959  146.5847  159.0378 H   0  0  0  0  0  0  0  0  0  0  0  0
  152.9415  146.5295  160.0363 H   0  0  0  0  0  0  0  0  0  0  0  0
  149.6946  144.8989  160.7628 H   0  0  0  0  0  0  0  0  0  0  0  0
  150.0396  143.2985  160.1592 H   0  0  0  0  0  0  0  0  0  0  0  0
  149.8420  144.6295  159.0328 H   0  0  0  0  0  0  0  0  0  0  0  0
  151.7483  144.6020  162.2570 H   0  0  0  0  0  0  0  0  0  0  0  0
  153.3439  144.6762  161.5669 H   0  0  0  0  0  0  0  0  0  0  0  0
  148.1315  143.4073  155.0373 H   0  0  0  0  0  0  0  0  0  0  0  0
  1  2  1  0  0  0  0
  1 21  1  0  0  0  0
  1 22  1  0  0  0  0
  1 23  1  0  0  0  0
  2 20  1  0  0  0  0
  2  3  1  0  0  0  0
  2 24  1  0  0  0  0
  3  4  1  0  0  0  0
  3 25  1  0  0  0  0
  3 26  1  0  0  0  0
  4  5  1  0  0  0  0
  4 16  1  0  0  0  0
  4 27  1  0  0  0  0
  5  6  2  0  0  0  0
  5  7  1  0  0  0  0
  7  8  1  0  0  0  0
  7 28  1  0  0  0  0
  8  9  1  0  0  0  0
  8 29  1  0  0  0  0
  8 30  1  0  0  0  0
  9 10  1  0  0  0  0
  9 31  1  0  0  0  0
  9 32  1  0  0  0  0
 10 14  1  0  0  0  0
 10 11  2  0  0  0  0
 11 12  1  0  0  0  0
 11 48  1  0  0  0  0
 12 13  2  0  0  0  0
 12 33  1  0  0  0  0
 13 14  1  0  0  0  0
 13 34  1  0  0  0  0
 14 15  1  0  0  0  0
 15 35  1  0  0  0  0
 15 36  1  0  0  0  0
 15 37  1  0  0  0  0
 16 17  1  0  0  0  0
 16 38  1  0  0  0  0
 16 39  1  0  0  0  0
 17 18  1  0  0  0  0
 17 19  1  0  0  0  0
 17 20  1  0  0  0  0
 18 40  1  0  0  0  0
 18 41  1  0  0  0  0
 18 42  1  0  0  0  0
 19 43  1  0  0  0  0
 19 44  1  0  0  0  0
 19 45  1  0  0  0  0
 20 46  1  0  0  0  0
 20 47  1  0  0  0  0
M  CHG  1  11   1
M  END
> <s_m_source_file>
AV-unprocessed.smi

> <i_m_source_file_index>
2473

> <i_lp_mmshare_version>
43012

> <i_f3d_flags>
0

> <s_epik_input>
W0NIM11bQ0BASF0oW0NIMl0xKVtDSDJdW0NASF0oW0NIMl1DMShbQ0gzXSlbQ0gzXSlDKD1PKVtOSF1bQ0gyXVtDSDJdYzJuW2NIXVtjSF1uMltDSDNd

> <s_epik_cmdline>
J2VwaWtfcHl0aG9uJywgJy1waCcsICc3LjAnLCAnLXRuJywgJzgnLCAnLW1hJywgJzIwMCcsICctbWV0YWxfYmluZGluZycsICctaW1hZScsICc8aW5maWxlLm1hZT4nLCAnLW9tYWUnLCAnPG91dGZpbGUubWFlPic=

> <r_lp_tautomer_probability>
1

> <r_epik_Ionization_Penalty>
0.0796112

> <r_epik_Ionization_Penalty_Charging>
0

> <r_epik_Ionization_Penalty_Neutral>
0.0796112

> <r_epik_State_Penalty>
0.0704541

> <r_epik_Charging_Adjusted_Penalty>
0.0704541

> <i_epik_Tot_Q>
1

> <i_epik_Tot_abs_Q>
1

> <r_epik_Metal_State_Penalty>
0.409899

> <b_epik_Metal_Only>
0

> <s_lp_Force_Field>
OPLS_2005

> <r_lp_Energy>
17.1237

> <b_lp_Chiralities_Consistent>
1

> <s_lp_Variant>
AV-unprocessed.smi:2473-1

> <Gold.Version>
5.8.1

> <Gold.Id.Protein>
6NUR|6NUR_protein|mol2

> <Gold.PLP.Fitness>
56.9606

> <Gold.PLP.PLP>
-49.3375

> <Gold.PLP.part.hbond>
-1.0000

> <Gold.PLP.part.metal>
0.0000

> <Gold.PLP.part.buried>
-3.8585

> <Gold.PLP.part.nonpolar>
-45.2886

> <Gold.PLP.part.repulsive>
0.2213

> <Gold.PLP.ligand.clash>
0.0000

> <Gold.PLP.ligand.torsion>
0.7237

> <Gold.PLP.Chemscore.Hbond>
2.0000

> <Gold.PLP.Chemscore.CHOScore>
1.0000

> <Gold.PLP.Chemscore.Metal>
0.0000

> <Gold.Chemscore.Hbonds>
donor molecule, donor type, donor heavy atom, donor atom, acceptor molecule, acceptor atom, score
      L1  H    11    48       P1  8028  2.00
      L1  C    13    34       P1 10175  1.00

> <Gold.PLP.Chemscore.Internal.Correction>
0.0704

> <Gold.Rescore>
     Score         DG    S(hbond)    S(metal)    S(lipo)     H(rot)  DE(clash)    DE(int)     intcor
     18.22     -20.41       1.00        0.00     133.78       1.58       1.49       0.69       ----

> <Gold.Chemscore.Fitness>
18.2247

> <Gold.Chemscore.DG>
-20.4075

> <Gold.Chemscore.ZeroCoef>
-5.4800

> <Gold.Chemscore.Hbond>
0.9954

> <Gold.Chemscore.Metal>
0.0000

> <Gold.Chemscore.Lipo>
133.7811

> <Gold.Chemscore.Internal_Hbond>
0.0000

> <Gold.Chemscore.DEClash>
1.4895

> <Gold.Chemscore.DEInternal>
0.6932

> <Gold.Chemscore.Rot>
1.5818

> <Gold.Chemscore.Internal.Correction>
   9.000000E+99

> <Gold.Chemscore.Hbonds>
donor molecule, donor type, donor heavy atom, donor atom, acceptor molecule, acceptor atom, score
      L1  H    11    48       P1  8028  0.87

> <Gold.Chemscore.Hbond.Weighted>
-3.3245

> <Gold.Chemscore.Metal.Weighted>
-0.0000

> <Gold.Chemscore.Lipo.Weighted>
-15.6524

> <Gold.Chemscore.Internal_Hbond.Weighted>
0.0000

> <Gold.Chemscore.DEClash.Weighted>
1.4895

> <Gold.Chemscore.DEInternal.Weighted>
0.6932

> <Gold.Chemscore.Rot.Weighted>
4.0495

> <Gold.Chemscore.Internal.Correction.Weighted>
   9.000000E+99

> <Gold.Protein.RotatedTorsions>
[ 6907 6896 6895 6894 ] final   14.21 input  -60.11 | X-H torsion
[ 7974 7965 7964 7962 ] final  145.47 input  175.53 | X-H torsion
[ 8008 7997 7996 7995 ] final  -49.78 input   59.86 | X-H torsion
[ 10167 10162 10161 10158 ] final   78.14 input  -65.29 | X-H torsion
[ 10718 10713 10712 10709 ] final  -13.14 input   66.30 | X-H torsion
[ 10763 10752 10751 10750 ] final    5.00 input  -60.55 | X-H torsion
[ 11005 11000 10999 10996 ] final   67.88 input  -57.11 | X-H torsion

> <Gold.Protein.ActiveResidues>
 VAL166  LYS551  ARG553  GLY616  TRP617  ASP618  TYR619  PRO620  LYS621  CYS622 
 ASP623  PHE694  ASN695  SER759  ASP760  ASP761  ALA762  ILE779  LEU786  VAL792 
 PHE793  MET794  SER795  GLU796  ALA797  LYS798  CYS799  TRP800  GLU811  SER814 

> <Gold.Protein.RotatedAtoms>
  151.7986  135.0715  160.0396 H   0  0  0  0  0  0  0  0  0  0  0  0  # atno 6907 bound_to 6896
  152.3105  133.5743  159.5686 H   0  0  0  0  0  0  0  0  0  0  0  0  # atno 6908 bound_to 6896
  150.7317  134.0075  159.3700 H   0  0  0  0  0  0  0  0  0  0  0  0  # atno 6909 bound_to 6896
  144.8750  139.5786  143.5869 H   0  0  0  0  0  0  0  0  0  0  0  0  # atno 7974 bound_to 7965
  154.4050  140.1288  156.4558 H   0  0  0  0  0  0  0  0  0  0  0  0  # atno 8008 bound_to 7997
  155.7322  140.3491  155.5045 H   0  0  0  0  0  0  0  0  0  0  0  0  # atno 8009 bound_to 7997
  155.9117  140.1037  157.1264 H   0  0  0  0  0  0  0  0  0  0  0  0  # atno 8010 bound_to 7997
  139.9741  144.5873  150.7959 H   0  0  0  0  0  0  0  0  0  0  0  0  # atno 10167 bound_to 10162
  156.6345  130.4911  149.6117 H   0  0  0  0  0  0  0  0  0  0  0  0  # atno 10718 bound_to 10713
  153.2646  135.6926  153.7543 H   0  0  0  0  0  0  0  0  0  0  0  0  # atno 10763 bound_to 10752
  153.6589  135.3364  155.3122 H   0  0  0  0  0  0  0  0  0  0  0  0  # atno 10764 bound_to 10752
  154.8442  135.4472  154.1648 H   0  0  0  0  0  0  0  0  0  0  0  0  # atno 10765 bound_to 10752
  139.9744  134.6846  156.0382 H   0  0  0  0  0  0  0  0  0  0  0  0  # atno 11005 bound_to 11000
  146.2956  139.7269  142.9129 LP  0  0  0  0  0  0  0  0  0  0  0  0  # atno 17320 bound_to 7965
  145.4059  141.0391  143.3044 LP  0  0  0  0  0  0  0  0  0  0  0  0  # atno 17321 bound_to 7965
  140.7512  143.2968  151.3184 LP  0  0  0  0  0  0  0  0  0  0  0  0  # atno 17342 bound_to 10162
  139.6459  144.0452  152.2590 LP  0  0  0  0  0  0  0  0  0  0  0  0  # atno 17343 bound_to 10162
  156.2208  130.6736  151.1366 LP  0  0  0  0  0  0  0  0  0  0  0  0  # atno 17370 bound_to 10713
  157.7190  131.0693  150.6213 LP  0  0  0  0  0  0  0  0  0  0  0  0  # atno 17371 bound_to 10713
  141.1422  133.6562  156.3763 LP  0  0  0  0  0  0  0  0  0  0  0  0  # atno 17394 bound_to 11000
  140.5225  134.6291  157.5323 LP  0  0  0  0  0  0  0  0  0  0  0  0  # atno 17395 bound_to 11000

$$$$
