AV-unprocessed.smi:2775|AV-procd|sdf|10701|dock7
  -GOLD-   2272015143D 1   1.00000     0.00000
 Structure written by MMmdl.
 43 46  0  0  0  0  0  0  0  0  2 V2000
  147.0786  139.5547  152.7909 C   0  0  0  0  0  0  0  0  0  0  0  0
  148.3906  139.4705  153.5469 C   0  0  0  0  0  0  0  0  0  0  0  0
  149.2448  138.4777  153.2146 N   0  3  0  0  0  0  0  0  0  0  0  0
  150.4422  138.3075  153.8123 C   0  0  0  0  0  0  0  0  0  0  0  0
  150.8476  139.1840  154.8374 C   0  0  0  0  0  0  0  0  0  0  0  0
  149.9832  140.2345  155.2378 C   0  0  0  0  0  0  0  0  0  0  0  0
  150.3075  141.1766  156.2528 N   0  0  0  0  0  0  0  0  0  0  0  0
  150.9474  140.9931  157.4237 C   0  0  0  0  0  0  0  0  0  0  0  0
  151.3802  139.9168  157.8285 O   0  0  0  0  0  0  0  0  0  0  0  0
  151.0767  142.1155  158.1522 N   0  0  0  0  0  0  0  0  0  0  0  0
  151.7170  142.2555  159.4610 C   0  0  1  0  0  0  0  0  0  0  0  0
  153.1213  141.6234  159.4950 C   0  0  2  0  0  0  0  0  0  0  0  0
  153.3934  140.4533  160.4011 C   0  0  0  0  0  0  0  0  0  0  0  0
  154.0245  141.1124  161.6306 C   0  0  0  0  0  0  0  0  0  0  0  0
  153.5832  142.4675  161.5804 O   0  0  0  0  0  0  0  0  0  0  0  0
  153.6069  142.8757  160.2159 C   0  0  2  0  0  0  0  0  0  0  0  0
  152.3652  143.6312  159.7271 C   0  0  0  0  0  0  0  0  0  0  0  0
  152.5037  144.7166  158.6424 C   0  0  0  0  0  0  0  0  0  0  0  0
  151.4077  145.5144  159.3542 C   0  0  0  0  0  0  0  0  0  0  0  0
  151.6789  144.6824  160.6110 C   0  0  0  0  0  0  0  0  0  0  0  0
  148.7421  140.3823  154.5699 C   0  0  0  0  0  0  0  0  0  0  0  0
  147.6588  141.6635  155.0010 Cl  0  0  0  0  0  0  0  0  0  0  0  0
  146.2385  139.4399  153.4764 H   0  0  0  0  0  0  0  0  0  0  0  0
  147.0052  138.7750  152.0317 H   0  0  0  0  0  0  0  0  0  0  0  0
  146.9880  140.5205  152.2933 H   0  0  0  0  0  0  0  0  0  0  0  0
  151.0396  137.4829  153.4512 H   0  0  0  0  0  0  0  0  0  0  0  0
  151.8178  139.0361  155.2851 H   0  0  0  0  0  0  0  0  0  0  0  0
  149.9586  142.1111  156.0941 H   0  0  0  0  0  0  0  0  0  0  0  0
  150.7053  142.9642  157.7496 H   0  0  0  0  0  0  0  0  0  0  0  0
  151.1092  141.9174  160.3031 H   0  0  0  0  0  0  0  0  0  0  0  0
  153.5678  141.5423  158.5021 H   0  0  0  0  0  0  0  0  0  0  0  0
  152.4673  139.9426  160.6671 H   0  0  0  0  0  0  0  0  0  0  0  0
  154.0625  139.7197  159.9509 H   0  0  0  0  0  0  0  0  0  0  0  0
  153.7330  140.6293  162.5635 H   0  0  0  0  0  0  0  0  0  0  0  0
  155.1131  141.0907  161.5603 H   0  0  0  0  0  0  0  0  0  0  0  0
  154.5731  143.2470  159.8719 H   0  0  0  0  0  0  0  0  0  0  0  0
  153.4701  145.2217  158.6789 H   0  0  0  0  0  0  0  0  0  0  0  0
  152.2576  144.4145  157.6246 H   0  0  0  0  0  0  0  0  0  0  0  0
  151.6180  146.5790  159.4601 H   0  0  0  0  0  0  0  0  0  0  0  0
  150.4163  145.3397  158.9351 H   0  0  0  0  0  0  0  0  0  0  0  0
  150.7835  144.3339  161.1260 H   0  0  0  0  0  0  0  0  0  0  0  0
  152.3727  145.1713  161.2966 H   0  0  0  0  0  0  0  0  0  0  0  0
  148.9742  137.8303  152.4739 H   0  0  0  0  0  0  0  0  0  0  0  0
  1  2  1  0  0  0  0
  1 23  1  0  0  0  0
  1 24  1  0  0  0  0
  1 25  1  0  0  0  0
  2 21  1  0  0  0  0
  2  3  2  0  0  0  0
  3  4  1  0  0  0  0
  3 43  1  0  0  0  0
  4  5  2  0  0  0  0
  4 26  1  0  0  0  0
  5  6  1  0  0  0  0
  5 27  1  0  0  0  0
  6  7  1  0  0  0  0
  6 21  2  0  0  0  0
  7  8  1  0  0  0  0
  7 28  1  0  0  0  0
  8  9  2  0  0  0  0
  8 10  1  0  0  0  0
 10 11  1  0  0  0  0
 10 29  1  0  0  0  0
 11 17  1  0  0  0  0
 11 12  1  0  0  0  0
 11 30  1  0  0  0  0
 12 16  1  0  0  0  0
 12 13  1  0  0  0  0
 12 31  1  0  0  0  0
 13 14  1  0  0  0  0
 13 32  1  0  0  0  0
 13 33  1  0  0  0  0
 14 15  1  0  0  0  0
 14 34  1  0  0  0  0
 14 35  1  0  0  0  0
 15 16  1  0  0  0  0
 16 17  1  0  0  0  0
 16 36  1  0  0  0  0
 17 20  1  0  0  0  0
 17 18  1  0  0  0  0
 18 19  1  0  0  0  0
 18 37  1  0  0  0  0
 18 38  1  0  0  0  0
 19 20  1  0  0  0  0
 19 39  1  0  0  0  0
 19 40  1  0  0  0  0
 20 41  1  0  0  0  0
 20 42  1  0  0  0  0
 21 22  1  0  0  0  0
M  CHG  1   3   1
M  END
> <s_m_source_file>
AV-unprocessed.smi

> <i_m_source_file_index>
2775

> <i_lp_mmshare_version>
43012

> <i_f3d_flags>
0

> <s_epik_input>
W0NIM11jMW5bY0hdW2NIXWMoYzFDbClbTkhdQyg9TylbTkhdW0NAQEhdMltDQEhdKFtDSDJdW0NIMl1PMylbQ0BASF0zQzI0W0NIMl1bQ0gyXVtDSDJdNA==

> <s_epik_cmdline>
J2VwaWtfcHl0aG9uJywgJy1waCcsICc3LjAnLCAnLXRuJywgJzgnLCAnLW1hJywgJzIwMCcsICctbWV0YWxfYmluZGluZycsICctaW1hZScsICc8aW5maWxlLm1hZT4nLCAnLW9tYWUnLCAnPG91dGZpbGUubWFlPic=

> <r_epik_Ionization_Penalty>
2.4104

> <r_epik_Ionization_Penalty_Charging>
2.41038

> <r_epik_Ionization_Penalty_Neutral>
1.9872e-05

> <r_epik_State_Penalty>
2.56896

> <r_epik_Charging_Adjusted_Penalty>
4.97934

> <i_epik_Tot_Q>
1

> <i_epik_Tot_abs_Q>
1

> <r_epik_Metal_State_Penalty>
2.57906

> <b_epik_Metal_Only>
0

> <s_lp_Force_Field>
OPLS_2005

> <r_lp_Energy>
60.4294

> <b_lp_Chiralities_Consistent>
1

> <s_lp_Variant>
AV-unprocessed.smi:2775-14

> <Gold.Version>
5.8.1

> <Gold.Id.Protein>
6NUR|6NUR_protein|mol2

> <Gold.PLP.Fitness>
52.4611

> <Gold.PLP.PLP>
-47.3529

> <Gold.PLP.part.hbond>
-2.0629

> <Gold.PLP.part.metal>
0.0000

> <Gold.PLP.part.buried>
0.9620

> <Gold.PLP.part.nonpolar>
-45.9737

> <Gold.PLP.part.repulsive>
0.2366

> <Gold.PLP.ligand.clash>
0.0000

> <Gold.PLP.ligand.torsion>
0.5194

> <Gold.PLP.Chemscore.Hbond>
1.9840

> <Gold.PLP.Chemscore.CHOScore>
0.0000

> <Gold.PLP.Chemscore.Metal>
0.0000

> <Gold.Chemscore.Hbonds>
donor molecule, donor type, donor heavy atom, donor atom, acceptor molecule, acceptor atom, score
      L1  H     3    43       P1  7948  1.98

> <Gold.PLP.Chemscore.Internal.Correction>
0.1950

> <Gold.Rescore>
     Score         DG    S(hbond)    S(metal)    S(lipo)     H(rot)  DE(clash)    DE(int)     intcor
     21.02     -22.81       0.97        0.00     142.31       1.00       0.50       1.29       ----

> <Gold.Chemscore.Fitness>
21.0180

> <Gold.Chemscore.DG>
-22.8079

> <Gold.Chemscore.ZeroCoef>
-5.4800

> <Gold.Chemscore.Hbond>
0.9693

> <Gold.Chemscore.Metal>
0.0000

> <Gold.Chemscore.Lipo>
142.3123

> <Gold.Chemscore.Internal_Hbond>
0.0000

> <Gold.Chemscore.DEClash>
0.4964

> <Gold.Chemscore.DEInternal>
1.2934

> <Gold.Chemscore.Rot>
1.0000

> <Gold.Chemscore.Internal.Correction>
   9.000000E+99

> <Gold.Chemscore.Hbonds>
donor molecule, donor type, donor heavy atom, donor atom, acceptor molecule, acceptor atom, score
      L1  H     3    43       P1  7948  0.93

> <Gold.Chemscore.Hbond.Weighted>
-3.2373

> <Gold.Chemscore.Metal.Weighted>
-0.0000

> <Gold.Chemscore.Lipo.Weighted>
-16.6505

> <Gold.Chemscore.Internal_Hbond.Weighted>
0.0000

> <Gold.Chemscore.DEClash.Weighted>
0.4964

> <Gold.Chemscore.DEInternal.Weighted>
1.2934

> <Gold.Chemscore.Rot.Weighted>
2.5600

> <Gold.Chemscore.Internal.Correction.Weighted>
   9.000000E+99

> <Gold.Protein.RotatedTorsions>
[ 6907 6896 6895 6894 ] final  163.01 input  -60.11 | X-H torsion
[ 7974 7965 7964 7962 ] final   -3.97 input  175.53 | X-H torsion
[ 8008 7997 7996 7995 ] final  -39.96 input   59.86 | X-H torsion
[ 10167 10162 10161 10158 ] final -113.94 input  -65.29 | X-H torsion
[ 10718 10713 10712 10709 ] final  -79.72 input   66.30 | X-H torsion
[ 10763 10752 10751 10750 ] final   49.39 input  -60.55 | X-H torsion
[ 11005 11000 10999 10996 ] final -156.86 input  -57.11 | X-H torsion

> <Gold.Protein.ActiveResidues>
 VAL166  LYS551  ARG553  GLY616  TRP617  ASP618  TYR619  PRO620  LYS621  CYS622 
 ASP623  PHE694  ASN695  SER759  ASP760  ASP761  ALA762  ILE779  LEU786  VAL792 
 PHE793  MET794  SER795  GLU796  ALA797  LYS798  CYS799  TRP800  GLU811  SER814 

> <Gold.Protein.RotatedAtoms>
  151.9318  133.3613  159.3933 H   0  0  0  0  0  0  0  0  0  0  0  0  # atno 6907 bound_to 6896
  150.7016  134.4530  159.5354 H   0  0  0  0  0  0  0  0  0  0  0  0  # atno 6908 bound_to 6896
  152.2172  134.8447  160.0541 H   0  0  0  0  0  0  0  0  0  0  0  0  # atno 6909 bound_to 6896
  146.2380  140.1801  142.8332 H   0  0  0  0  0  0  0  0  0  0  0  0  # atno 7974 bound_to 7965
  154.4017  140.1538  156.2949 H   0  0  0  0  0  0  0  0  0  0  0  0  # atno 8008 bound_to 7997
  155.8752  140.3446  155.5827 H   0  0  0  0  0  0  0  0  0  0  0  0  # atno 8009 bound_to 7997
  155.7729  140.0833  157.2089 H   0  0  0  0  0  0  0  0  0  0  0  0  # atno 8010 bound_to 7997
  140.1064  143.4567  152.1780 H   0  0  0  0  0  0  0  0  0  0  0  0  # atno 10167 bound_to 10162
  156.0086  130.4554  150.3692 H   0  0  0  0  0  0  0  0  0  0  0  0  # atno 10718 bound_to 10713
  152.9787  135.5913  154.4081 H   0  0  0  0  0  0  0  0  0  0  0  0  # atno 10763 bound_to 10752
  154.3720  135.2767  155.2263 H   0  0  0  0  0  0  0  0  0  0  0  0  # atno 10764 bound_to 10752
  154.4214  135.6058  153.6067 H   0  0  0  0  0  0  0  0  0  0  0  0  # atno 10765 bound_to 10752
  140.6710  134.4248  157.5231 H   0  0  0  0  0  0  0  0  0  0  0  0  # atno 11005 bound_to 11000
  144.9941  140.8574  143.5321 LP  0  0  0  0  0  0  0  0  0  0  0  0  # atno 17320 bound_to 7965
  145.1811  139.2351  143.5292 LP  0  0  0  0  0  0  0  0  0  0  0  0  # atno 17321 bound_to 7965
  139.5643  144.7425  151.4066 LP  0  0  0  0  0  0  0  0  0  0  0  0  # atno 17342 bound_to 10162
  140.6950  143.7771  150.7312 LP  0  0  0  0  0  0  0  0  0  0  0  0  # atno 17343 bound_to 10162
  157.1777  131.0384  151.2764 LP  0  0  0  0  0  0  0  0  0  0  0  0  # atno 17370 bound_to 10713
  157.4173  130.7418  149.6886 LP  0  0  0  0  0  0  0  0  0  0  0  0  # atno 17371 bound_to 10713
  139.8982  134.8620  156.2013 LP  0  0  0  0  0  0  0  0  0  0  0  0  # atno 17394 bound_to 11000
  141.0392  133.6947  156.1568 LP  0  0  0  0  0  0  0  0  0  0  0  0  # atno 17395 bound_to 11000

$$$$
