AV-unprocessed.smi:2346|AV-procd|sdf|9367|dock3
  -GOLD-   2272012593D 1   1.00000     0.00000
 Structure written by MMmdl.
 45 47  0  0  0  0  0  0  0  0  2 V2000
  148.0942  133.3311  157.2269 C   0  0  0  0  0  0  0  0  0  0  0  0
  148.6326  134.6103  157.5271 O   0  0  0  0  0  0  0  0  0  0  0  0
  148.4415  135.1213  158.7946 C   0  0  0  0  0  0  0  0  0  0  0  0
  147.7062  134.4543  159.8075 C   0  0  0  0  0  0  0  0  0  0  0  0
  147.5516  135.0359  161.0809 C   0  0  0  0  0  0  0  0  0  0  0  0
  146.7945  134.3448  162.1111 C   0  0  0  0  0  0  0  0  0  0  0  0
  146.1914  133.7945  162.9310 N   0  0  0  0  0  0  0  0  0  0  0  0
  148.1307  136.2888  161.3530 C   0  0  0  0  0  0  0  0  0  0  0  0
  148.8627  136.9572  160.3554 C   0  0  0  0  0  0  0  0  0  0  0  0
  149.0243  136.3797  159.0708 C   0  0  0  0  0  0  0  0  0  0  0  0
  149.7288  136.9782  158.0466 O   0  0  0  0  0  0  0  0  0  0  0  0
  150.1872  138.3099  158.2267 C   0  0  0  0  0  0  0  0  0  0  0  0
  150.6883  138.8345  156.8763 C   0  0  0  0  0  0  0  0  0  0  0  0
  150.7376  140.3024  156.8463 N   0  0  0  0  0  0  0  0  0  0  0  0
  150.1790  141.1878  155.9700 C   0  0  0  0  0  0  0  0  0  0  0  0
  149.3216  140.8610  154.7853 C   0  0  2  0  0  0  0  0  0  0  0  0
  148.0529  140.0966  155.1920 C   0  0  0  0  0  0  0  0  0  0  0  0
  150.0245  140.0945  153.8318 O   0  0  0  0  0  0  0  0  0  0  0  0
  150.5063  142.4390  156.4037 N   0  3  0  0  0  0  0  0  0  0  0  0
  151.3054  142.3531  157.5437 C   0  0  0  0  0  0  0  0  0  0  0  0
  151.8870  143.3464  158.3254 C   0  0  0  0  0  0  0  0  0  0  0  0
  152.6544  142.9157  159.4275 C   0  0  0  0  0  0  0  0  0  0  0  0
  152.8192  141.5454  159.7166 C   0  0  0  0  0  0  0  0  0  0  0  0
  152.2213  140.5474  158.9182 C   0  0  0  0  0  0  0  0  0  0  0  0
  151.4629  140.9821  157.8314 C   0  0  0  0  0  0  0  0  0  0  0  0
  148.3319  133.0754  156.1944 H   0  0  0  0  0  0  0  0  0  0  0  0
  147.0080  133.3220  157.3266 H   0  0  0  0  0  0  0  0  0  0  0  0
  148.5232  132.5574  157.8651 H   0  0  0  0  0  0  0  0  0  0  0  0
  147.2515  133.4919  159.6252 H   0  0  0  0  0  0  0  0  0  0  0  0
  148.0172  136.7447  162.3263 H   0  0  0  0  0  0  0  0  0  0  0  0
  149.2904  137.9168  160.6028 H   0  0  0  0  0  0  0  0  0  0  0  0
  149.3789  138.9432  158.5957 H   0  0  0  0  0  0  0  0  0  0  0  0
  151.0006  138.3330  158.9539 H   0  0  0  0  0  0  0  0  0  0  0  0
  151.6934  138.4623  156.6762 H   0  0  0  0  0  0  0  0  0  0  0  0
  150.0630  138.4779  156.0574 H   0  0  0  0  0  0  0  0  0  0  0  0
  149.0187  141.7903  154.3029 H   0  0  0  0  0  0  0  0  0  0  0  0
  147.4641  140.6695  155.9091 H   0  0  0  0  0  0  0  0  0  0  0  0
  148.2895  139.1341  155.6468 H   0  0  0  0  0  0  0  0  0  0  0  0
  147.4180  139.9042  154.3266 H   0  0  0  0  0  0  0  0  0  0  0  0
  149.5722  140.1567  153.0040 H   0  0  0  0  0  0  0  0  0  0  0  0
  151.7628  144.3966  158.1049 H   0  0  0  0  0  0  0  0  0  0  0  0
  153.1265  143.6511  160.0630 H   0  0  0  0  0  0  0  0  0  0  0  0
  153.4155  141.2531  160.5688 H   0  0  0  0  0  0  0  0  0  0  0  0
  152.3548  139.5009  159.1490 H   0  0  0  0  0  0  0  0  0  0  0  0
  150.2043  143.2888  155.9449 H   0  0  0  0  0  0  0  0  0  0  0  0
  1  2  1  0  0  0  0
  1 26  1  0  0  0  0
  1 27  1  0  0  0  0
  1 28  1  0  0  0  0
  2  3  1  0  0  0  0
  3 10  1  0  0  0  0
  3  4  2  0  0  0  0
  4  5  1  0  0  0  0
  4 29  1  0  0  0  0
  5  6  1  0  0  0  0
  5  8  2  0  0  0  0
  6  7  3  0  0  0  0
  8  9  1  0  0  0  0
  8 30  1  0  0  0  0
  9 10  2  0  0  0  0
  9 31  1  0  0  0  0
 10 11  1  0  0  0  0
 11 12  1  0  0  0  0
 12 13  1  0  0  0  0
 12 32  1  0  0  0  0
 12 33  1  0  0  0  0
 13 14  1  0  0  0  0
 13 34  1  0  0  0  0
 13 35  1  0  0  0  0
 14 25  1  0  0  0  0
 14 15  1  0  0  0  0
 15 16  1  0  0  0  0
 15 19  2  0  0  0  0
 16 17  1  0  0  0  0
 16 18  1  0  0  0  0
 16 36  1  0  0  0  0
 17 37  1  0  0  0  0
 17 38  1  0  0  0  0
 17 39  1  0  0  0  0
 18 40  1  0  0  0  0
 19 20  1  0  0  0  0
 19 45  1  0  0  0  0
 20 25  2  0  0  0  0
 20 21  1  0  0  0  0
 21 22  2  0  0  0  0
 21 41  1  0  0  0  0
 22 23  1  0  0  0  0
 22 42  1  0  0  0  0
 23 24  2  0  0  0  0
 23 43  1  0  0  0  0
 24 25  1  0  0  0  0
 24 44  1  0  0  0  0
M  CHG  1  19   1
M  END
> <s_m_source_file>
AV-unprocessed.smi

> <i_m_source_file_index>
2346

> <i_lp_mmshare_version>
43012

> <i_f3d_flags>
0

> <s_epik_input>
W0NIM11PYzFbY0hdYyhDI04pW2NIXVtjSF1jMU9bQ0gyXVtDSDJdbihjKG4yKVtDQEhdKFtDSDNdKVtPSF0pYyhjMjMpW2NIXVtjSF1bY0hdW2NIXTM=

> <s_epik_cmdline>
J2VwaWtfcHl0aG9uJywgJy1waCcsICc3LjAnLCAnLXRuJywgJzgnLCAnLW1hJywgJzIwMCcsICctbWV0YWxfYmluZGluZycsICctaW1hZScsICc8aW5maWxlLm1hZT4nLCAnLW9tYWUnLCAnPG91dGZpbGUubWFlPic=

> <r_epik_Ionization_Penalty>
1.58928

> <r_epik_Ionization_Penalty_Charging>
1.58925

> <r_epik_Ionization_Penalty_Neutral>
2.92192e-05

> <r_epik_State_Penalty>
1.68649

> <r_epik_Charging_Adjusted_Penalty>
3.27574

> <i_epik_Tot_Q>
1

> <i_epik_Tot_abs_Q>
1

> <r_epik_Metal_State_Penalty>
5.74385

> <b_epik_Metal_Only>
0

> <s_lp_Force_Field>
OPLS_2005

> <r_lp_Energy>
24.6554

> <b_lp_Chiralities_Consistent>
1

> <s_lp_Variant>
AV-unprocessed.smi:2346-3

> <Gold.Version>
5.8.1

> <Gold.Id.Protein>
6NUR|6NUR_protein|mol2

> <Gold.PLP.Fitness>
53.4205

> <Gold.PLP.PLP>
-42.2492

> <Gold.PLP.part.hbond>
-3.7435

> <Gold.PLP.part.metal>
0.0000

> <Gold.PLP.part.buried>
-4.3171

> <Gold.PLP.part.nonpolar>
-34.9902

> <Gold.PLP.part.repulsive>
0.1193

> <Gold.PLP.ligand.clash>
0.0000

> <Gold.PLP.ligand.torsion>
0.2167

> <Gold.PLP.Chemscore.Hbond>
3.8320

> <Gold.PLP.Chemscore.CHOScore>
0.0000

> <Gold.PLP.Chemscore.Metal>
0.0000

> <Gold.Chemscore.Hbonds>
donor molecule, donor type, donor heavy atom, donor atom, acceptor molecule, acceptor atom, score
      L1  H    18    40       P1  7957  0.98
      L1  H    19    45       P1  8028  2.00
      P1  H  7989  7998       L1    18  0.82

> <Gold.PLP.Chemscore.Internal.Correction>
0.1086

> <Gold.Rescore>
     Score         DG    S(hbond)    S(metal)    S(lipo)     H(rot)  DE(clash)    DE(int)     intcor
     17.73     -18.06       2.17        0.00     103.56       2.65       0.21       0.12       ----

> <Gold.Chemscore.Fitness>
17.7343

> <Gold.Chemscore.DG>
-18.0632

> <Gold.Chemscore.ZeroCoef>
-5.4800

> <Gold.Chemscore.Hbond>
2.1685

> <Gold.Chemscore.Metal>
0.0000

> <Gold.Chemscore.Lipo>
103.5554

> <Gold.Chemscore.Internal_Hbond>
0.0000

> <Gold.Chemscore.DEClash>
0.2056

> <Gold.Chemscore.DEInternal>
0.1232

> <Gold.Chemscore.Rot>
2.6467

> <Gold.Chemscore.Internal.Correction>
   9.000000E+99

> <Gold.Chemscore.Hbonds>
donor molecule, donor type, donor heavy atom, donor atom, acceptor molecule, acceptor atom, score
      L1  H    18    40       P1  7957  0.93
      L1  H    19    45       P1  8028  0.95
      P1  H  7989  7998       L1    18  0.21

> <Gold.Chemscore.Hbond.Weighted>
-7.2429

> <Gold.Chemscore.Metal.Weighted>
-0.0000

> <Gold.Chemscore.Lipo.Weighted>
-12.1160

> <Gold.Chemscore.Internal_Hbond.Weighted>
0.0000

> <Gold.Chemscore.DEClash.Weighted>
0.2056

> <Gold.Chemscore.DEInternal.Weighted>
0.1232

> <Gold.Chemscore.Rot.Weighted>
6.7756

> <Gold.Chemscore.Internal.Correction.Weighted>
   9.000000E+99

> <Gold.Protein.RotatedTorsions>
[ 6907 6896 6895 6894 ] final   -9.80 input  -60.11 | X-H torsion
[ 7974 7965 7964 7962 ] final   50.14 input  175.53 | X-H torsion
[ 8008 7997 7996 7995 ] final -100.44 input   59.86 | X-H torsion
[ 10167 10162 10161 10158 ] final -149.72 input  -65.29 | X-H torsion
[ 10718 10713 10712 10709 ] final  -47.00 input   66.30 | X-H torsion
[ 10763 10752 10751 10750 ] final  -50.46 input  -60.55 | X-H torsion
[ 11005 11000 10999 10996 ] final  -38.08 input  -57.11 | X-H torsion

> <Gold.Protein.ActiveResidues>
 VAL166  LYS551  ARG553  GLY616  TRP617  ASP618  TYR619  PRO620  LYS621  CYS622 
 ASP623  PHE694  ASN695  SER759  ASP760  ASP761  ALA762  ILE779  LEU786  VAL792 
 PHE793  MET794  SER795  GLU796  ALA797  LYS798  CYS799  TRP800  GLU811  SER814 

> <Gold.Protein.RotatedAtoms>
  151.4121  135.0986  159.9587 H   0  0  0  0  0  0  0  0  0  0  0  0  # atno 6907 bound_to 6896
  152.5016  133.8788  159.7346 H   0  0  0  0  0  0  0  0  0  0  0  0  # atno 6908 bound_to 6896
  150.9285  133.6738  159.2844 H   0  0  0  0  0  0  0  0  0  0  0  0  # atno 6909 bound_to 6896
  146.0041  139.4471  142.9997 H   0  0  0  0  0  0  0  0  0  0  0  0  # atno 7974 bound_to 7965
  154.8286  140.0441  157.1461 H   0  0  0  0  0  0  0  0  0  0  0  0  # atno 8008 bound_to 7997
  154.9178  140.3022  155.5212 H   0  0  0  0  0  0  0  0  0  0  0  0  # atno 8009 bound_to 7997
  156.2985  140.2346  156.4224 H   0  0  0  0  0  0  0  0  0  0  0  0  # atno 8010 bound_to 7997
  139.7417  143.8652  152.2564 H   0  0  0  0  0  0  0  0  0  0  0  0  # atno 10167 bound_to 10162
  156.2127  130.4161  149.9094 H   0  0  0  0  0  0  0  0  0  0  0  0  # atno 10718 bound_to 10713
  154.1107  135.6549  153.4884 H   0  0  0  0  0  0  0  0  0  0  0  0  # atno 10763 bound_to 10752
  153.0257  135.5247  154.7195 H   0  0  0  0  0  0  0  0  0  0  0  0  # atno 10764 bound_to 10752
  154.6374  135.2984  155.0114 H   0  0  0  0  0  0  0  0  0  0  0  0  # atno 10765 bound_to 10752
  141.0001  133.6960  156.2006 H   0  0  0  0  0  0  0  0  0  0  0  0  # atno 11005 bound_to 11000
  145.7443  140.9996  143.1284 LP  0  0  0  0  0  0  0  0  0  0  0  0  # atno 17320 bound_to 7965
  144.6929  139.9137  143.7464 LP  0  0  0  0  0  0  0  0  0  0  0  0  # atno 17321 bound_to 7965
  139.8604  144.7120  150.9106 LP  0  0  0  0  0  0  0  0  0  0  0  0  # atno 17342 bound_to 10162
  140.7787  143.3822  151.1456 LP  0  0  0  0  0  0  0  0  0  0  0  0  # atno 17343 bound_to 10162
  156.6767  130.8842  151.3570 LP  0  0  0  0  0  0  0  0  0  0  0  0  # atno 17370 bound_to 10713
  157.7047  130.9371  150.0893 LP  0  0  0  0  0  0  0  0  0  0  0  0  # atno 17371 bound_to 10713
  140.6903  134.4673  157.5588 LP  0  0  0  0  0  0  0  0  0  0  0  0  # atno 17394 bound_to 11000
  139.9034  134.8503  156.1802 LP  0  0  0  0  0  0  0  0  0  0  0  0  # atno 17395 bound_to 11000

$$$$
