AV-unprocessed.smi:2203|AV-procd|sdf|8935|dock3
  -GOLD-   2272012153D 1   1.00000     0.00000
 Structure written by MMmdl.
 48 49  0  0  0  0  0  0  0  0  1 V2000
  153.1694  137.9557  155.1450 C   0  0  0  0  0  0  0  0  0  0  0  0
  152.0832  138.9533  155.4297 C   0  0  0  0  0  0  0  0  0  0  0  0
  152.3846  140.0735  156.0636 N   0  0  0  0  0  0  0  0  0  0  0  0
  151.2179  140.7447  156.1577 N   0  0  0  0  0  0  0  0  0  0  0  0
  151.1981  142.0431  156.8153 C   0  0  0  0  0  0  0  0  0  0  0  0
  150.5881  141.9983  158.2330 C   0  0  0  0  0  0  0  0  0  0  0  0
  150.5440  143.4036  158.8501 C   0  0  0  0  0  0  0  0  0  0  0  0
  151.3145  141.0141  159.1660 C   0  0  0  0  0  0  0  0  0  0  0  0
  150.1780  140.0471  155.5699 C   0  0  0  0  0  0  0  0  0  0  0  0
  148.7785  140.5728  155.5221 C   0  0  0  0  0  0  0  0  0  0  0  0
  150.7005  138.8757  155.0905 C   0  0  0  0  0  0  0  0  0  0  0  0
  149.9933  137.7597  154.3645 C   0  0  0  0  0  0  0  0  0  0  0  0
  150.1450  136.4602  155.1544 C   0  0  0  0  0  0  0  0  0  0  0  0
  150.9478  136.3952  156.0852 O   0  0  0  0  0  0  0  0  0  0  0  0
  149.3629  135.4377  154.7806 N   0  0  0  0  0  0  0  0  0  0  0  0
  149.3507  134.1312  155.4227 C   0  0  0  0  0  0  0  0  0  0  0  0
  148.1436  133.3088  154.9517 C   0  0  2  0  0  0  0  0  0  0  0  0
  148.1553  133.0060  153.4534 C   0  0  0  0  0  0  0  0  0  0  0  0
  146.6811  132.8562  153.1564 C   0  0  0  0  0  0  0  0  0  0  0  0
  146.0827  133.9460  154.0387 C   0  0  0  0  0  0  0  0  0  0  0  0
  146.9297  134.0233  155.1817 O   0  0  0  0  0  0  0  0  0  0  0  0
  153.5160  138.0434  154.1152 H   0  0  0  0  0  0  0  0  0  0  0  0
  152.8148  136.9355  155.2909 H   0  0  0  0  0  0  0  0  0  0  0  0
  154.0299  138.1002  155.7995 H   0  0  0  0  0  0  0  0  0  0  0  0
  152.2176  142.4302  156.8601 H   0  0  0  0  0  0  0  0  0  0  0  0
  150.6404  142.7365  156.1856 H   0  0  0  0  0  0  0  0  0  0  0  0
  149.5566  141.6568  158.1435 H   0  0  0  0  0  0  0  0  0  0  0  0
  151.5468  143.8125  158.9774 H   0  0  0  0  0  0  0  0  0  0  0  0
  150.0635  143.3889  159.8290 H   0  0  0  0  0  0  0  0  0  0  0  0
  149.9809  144.0920  158.2193 H   0  0  0  0  0  0  0  0  0  0  0  0
  152.3679  141.2754  159.2717 H   0  0  0  0  0  0  0  0  0  0  0  0
  151.2602  139.9914  158.7927 H   0  0  0  0  0  0  0  0  0  0  0  0
  150.8697  141.0171  160.1613 H   0  0  0  0  0  0  0  0  0  0  0  0
  148.1642  139.9949  154.8316 H   0  0  0  0  0  0  0  0  0  0  0  0
  148.7581  141.6096  155.1873 H   0  0  0  0  0  0  0  0  0  0  0  0
  148.3119  140.5218  156.5057 H   0  0  0  0  0  0  0  0  0  0  0  0
  148.9345  137.9806  154.2237 H   0  0  0  0  0  0  0  0  0  0  0  0
  150.4012  137.6133  153.3639 H   0  0  0  0  0  0  0  0  0  0  0  0
  148.7342  135.5733  154.0023 H   0  0  0  0  0  0  0  0  0  0  0  0
  150.2770  133.5974  155.2044 H   0  0  0  0  0  0  0  0  0  0  0  0
  149.3059  134.2730  156.5034 H   0  0  0  0  0  0  0  0  0  0  0  0
  148.0874  132.3684  155.5027 H   0  0  0  0  0  0  0  0  0  0  0  0
  148.5618  133.8484  152.8916 H   0  0  0  0  0  0  0  0  0  0  0  0
  148.7357  132.1175  153.2038 H   0  0  0  0  0  0  0  0  0  0  0  0
  146.4393  132.9802  152.1004 H   0  0  0  0  0  0  0  0  0  0  0  0
  146.3304  131.8744  153.4774 H   0  0  0  0  0  0  0  0  0  0  0  0
  146.1074  134.9075  153.5242 H   0  0  0  0  0  0  0  0  0  0  0  0
  145.0498  133.7380  154.3186 H   0  0  0  0  0  0  0  0  0  0  0  0
  1  2  1  0  0  0  0
  1 22  1  0  0  0  0
  1 23  1  0  0  0  0
  1 24  1  0  0  0  0
  2 11  1  0  0  0  0
  2  3  2  0  0  0  0
  3  4  1  0  0  0  0
  4  5  1  0  0  0  0
  4  9  1  0  0  0  0
  5  6  1  0  0  0  0
  5 25  1  0  0  0  0
  5 26  1  0  0  0  0
  6  7  1  0  0  0  0
  6  8  1  0  0  0  0
  6 27  1  0  0  0  0
  7 28  1  0  0  0  0
  7 29  1  0  0  0  0
  7 30  1  0  0  0  0
  8 31  1  0  0  0  0
  8 32  1  0  0  0  0
  8 33  1  0  0  0  0
  9 10  1  0  0  0  0
  9 11  2  0  0  0  0
 10 34  1  0  0  0  0
 10 35  1  0  0  0  0
 10 36  1  0  0  0  0
 11 12  1  0  0  0  0
 12 13  1  0  0  0  0
 12 37  1  0  0  0  0
 12 38  1  0  0  0  0
 13 14  2  0  0  0  0
 13 15  1  0  0  0  0
 15 16  1  0  0  0  0
 15 39  1  0  0  0  0
 16 17  1  0  0  0  0
 16 40  1  0  0  0  0
 16 41  1  0  0  0  0
 17 21  1  0  0  0  0
 17 18  1  0  0  0  0
 17 42  1  0  0  0  0
 18 19  1  0  0  0  0
 18 43  1  0  0  0  0
 18 44  1  0  0  0  0
 19 20  1  0  0  0  0
 19 45  1  0  0  0  0
 19 46  1  0  0  0  0
 20 21  1  0  0  0  0
 20 47  1  0  0  0  0
 20 48  1  0  0  0  0
M  END
> <s_m_source_file>
AV-unprocessed.smi

> <i_m_source_file_index>
2203

> <i_lp_mmshare_version>
43012

> <i_f3d_flags>
0

> <s_epik_input>
W0NIM11jMW5uKFtDSDJdW0NIXShbQ0gzXSlbQ0gzXSljKFtDSDNdKWMxW0NIMl1DKD1PKVtOSF1bQ0gyXVtDQEBIXTJbQ0gyXVtDSDJdW0NIMl1PMg==

> <s_epik_cmdline>
J2VwaWtfcHl0aG9uJywgJy1waCcsICc3LjAnLCAnLXRuJywgJzgnLCAnLW1hJywgJzIwMCcsICctbWV0YWxfYmluZGluZycsICctaW1hZScsICc8aW5maWxlLm1hZT4nLCAnLW9tYWUnLCAnPG91dGZpbGUubWFlPic=

> <r_lp_tautomer_probability>
1

> <r_epik_Ionization_Penalty>
0.00306713

> <r_epik_Ionization_Penalty_Charging>
0

> <r_epik_Ionization_Penalty_Neutral>
0.00306713

> <r_epik_State_Penalty>
0.00215672

> <r_epik_Charging_Adjusted_Penalty>
0.00215672

> <i_epik_Tot_Q>
0

> <i_epik_Tot_abs_Q>
0

> <r_epik_Metal_State_Penalty>
-0

> <b_epik_Metal_Only>
0

> <s_lp_Force_Field>
OPLS_2005

> <r_lp_Energy>
15.5636

> <b_lp_Chiralities_Consistent>
1

> <s_lp_Variant>
AV-unprocessed.smi:2203-1

> <Gold.Version>
5.8.1

> <Gold.Id.Protein>
6NUR|6NUR_protein|mol2

> <Gold.PLP.Fitness>
44.6397

> <Gold.PLP.PLP>
-36.8575

> <Gold.PLP.part.hbond>
-4.1439

> <Gold.PLP.part.metal>
0.0000

> <Gold.PLP.part.buried>
2.5621

> <Gold.PLP.part.nonpolar>
-34.8997

> <Gold.PLP.part.repulsive>
0.1642

> <Gold.PLP.ligand.clash>
0.0000

> <Gold.PLP.ligand.torsion>
0.4162

> <Gold.PLP.Chemscore.Hbond>
2.8480

> <Gold.PLP.Chemscore.CHOScore>
0.0000

> <Gold.PLP.Chemscore.Metal>
0.0000

> <Gold.Chemscore.Hbonds>
donor molecule, donor type, donor heavy atom, donor atom, acceptor molecule, acceptor atom, score
      L1  H    15    39       P1  7948  0.35
      P1  H  7997  8009       L1     3  1.00

> <Gold.PLP.Chemscore.Internal.Correction>
0.0707

> <Gold.Rescore>
     Score         DG    S(hbond)    S(metal)    S(lipo)     H(rot)  DE(clash)    DE(int)     intcor
     14.24     -19.81       2.06        0.00      99.29       1.63       2.15       3.43       ----

> <Gold.Chemscore.Fitness>
14.2367

> <Gold.Chemscore.DG>
-19.8105

> <Gold.Chemscore.ZeroCoef>
-5.4800

> <Gold.Chemscore.Hbond>
2.0641

> <Gold.Chemscore.Metal>
0.0000

> <Gold.Chemscore.Lipo>
99.2889

> <Gold.Chemscore.Internal_Hbond>
0.0000

> <Gold.Chemscore.DEClash>
2.1475

> <Gold.Chemscore.DEInternal>
3.4263

> <Gold.Chemscore.Rot>
1.6329

> <Gold.Chemscore.Internal.Correction>
   9.000000E+99

> <Gold.Chemscore.Hbonds>
donor molecule, donor type, donor heavy atom, donor atom, acceptor molecule, acceptor atom, score
      L1  H    15    39       P1  7948  0.34
      P1  H  7997  8009       L1     3  0.58

> <Gold.Chemscore.Hbond.Weighted>
-6.8940

> <Gold.Chemscore.Metal.Weighted>
-0.0000

> <Gold.Chemscore.Lipo.Weighted>
-11.6168

> <Gold.Chemscore.Internal_Hbond.Weighted>
0.0000

> <Gold.Chemscore.DEClash.Weighted>
2.1475

> <Gold.Chemscore.DEInternal.Weighted>
3.4263

> <Gold.Chemscore.Rot.Weighted>
4.1803

> <Gold.Chemscore.Internal.Correction.Weighted>
   9.000000E+99

> <Gold.Protein.RotatedTorsions>
[ 6907 6896 6895 6894 ] final  173.20 input  -60.11 | X-H torsion
[ 7974 7965 7964 7962 ] final -135.89 input  175.53 | X-H torsion
[ 8008 7997 7996 7995 ] final -148.52 input   59.86 | X-H torsion
[ 10167 10162 10161 10158 ] final   13.04 input  -65.29 | X-H torsion
[ 10718 10713 10712 10709 ] final  -82.75 input   66.30 | X-H torsion
[ 10763 10752 10751 10750 ] final -169.71 input  -60.55 | X-H torsion
[ 11005 11000 10999 10996 ] final   39.60 input  -57.11 | X-H torsion

> <Gold.Protein.ActiveResidues>
 VAL166  LYS551  ARG553  GLY616  TRP617  ASP618  TYR619  PRO620  LYS621  CYS622 
 ASP623  PHE694  ASN695  SER759  ASP760  ASP761  ALA762  ILE779  LEU786  VAL792 
 PHE793  MET794  SER795  GLU796  ALA797  LYS798  CYS799  TRP800  GLU811  SER814 

> <Gold.Protein.RotatedAtoms>
  151.7721  133.3342  159.3447 H   0  0  0  0  0  0  0  0  0  0  0  0  # atno 6907 bound_to 6896
  150.7457  134.6009  159.6045 H   0  0  0  0  0  0  0  0  0  0  0  0  # atno 6908 bound_to 6896
  152.3334  134.7231  160.0335 H   0  0  0  0  0  0  0  0  0  0  0  0  # atno 6909 bound_to 6896
  144.8974  140.6725  143.5106 H   0  0  0  0  0  0  0  0  0  0  0  0  # atno 7974 bound_to 7965
  155.5930  140.0654  157.2753 H   0  0  0  0  0  0  0  0  0  0  0  0  # atno 8008 bound_to 7997
  154.4300  140.1832  156.1141 H   0  0  0  0  0  0  0  0  0  0  0  0  # atno 8009 bound_to 7997
  156.0218  140.3316  155.7050 H   0  0  0  0  0  0  0  0  0  0  0  0  # atno 8010 bound_to 7997
  140.6029  143.8568  150.6983 H   0  0  0  0  0  0  0  0  0  0  0  0  # atno 10167 bound_to 10162
  156.0028  130.4644  150.4152 H   0  0  0  0  0  0  0  0  0  0  0  0  # atno 10718 bound_to 10713
  154.6494  135.2909  155.0006 H   0  0  0  0  0  0  0  0  0  0  0  0  # atno 10763 bound_to 10752
  154.1104  135.6563  153.4888 H   0  0  0  0  0  0  0  0  0  0  0  0  # atno 10764 bound_to 10752
  153.0368  135.5264  154.7395 H   0  0  0  0  0  0  0  0  0  0  0  0  # atno 10765 bound_to 10752
  140.2012  134.3868  155.8095 H   0  0  0  0  0  0  0  0  0  0  0  0  # atno 11005 bound_to 11000
  145.3676  139.1666  143.4349 LP  0  0  0  0  0  0  0  0  0  0  0  0  # atno 17320 bound_to 7965
  146.3089  140.3744  142.8677 LP  0  0  0  0  0  0  0  0  0  0  0  0  # atno 17321 bound_to 7965
  140.2118  143.3877  152.1712 LP  0  0  0  0  0  0  0  0  0  0  0  0  # atno 17342 bound_to 10162
  139.5304  144.7152  151.5078 LP  0  0  0  0  0  0  0  0  0  0  0  0  # atno 17343 bound_to 10162
  157.2212  131.0483  151.2545 LP  0  0  0  0  0  0  0  0  0  0  0  0  # atno 17370 bound_to 10713
  157.3799  130.7225  149.6622 LP  0  0  0  0  0  0  0  0  0  0  0  0  # atno 17371 bound_to 10713
  141.2227  133.7095  156.8260 LP  0  0  0  0  0  0  0  0  0  0  0  0  # atno 17394 bound_to 11000
  140.2052  134.8867  157.3214 LP  0  0  0  0  0  0  0  0  0  0  0  0  # atno 17395 bound_to 11000

$$$$
