AV-unprocessed.smi:1374|AV-procd|sdf|5587|dock10
  -GOLD-   22720 5183D 1   1.00000     0.00000
 Structure written by MMmdl.
 43 44  0  0  0  0  0  0  0  0  1 V2000
  151.9891  145.3286  159.3772 C   0  0  0  0  0  0  0  0  0  0  0  0
  151.4559  144.4082  160.4804 C   0  0  0  0  0  0  0  0  0  0  0  0
  152.2203  143.0803  160.5594 C   0  0  0  0  0  0  0  0  0  0  0  0
  152.3455  142.3941  159.1888 C   0  0  0  0  0  0  0  0  0  0  0  0
  152.2753  140.9497  159.2838 N   0  0  0  0  0  0  0  0  0  0  0  0
  151.2309  140.1896  158.7486 C   0  0  0  0  0  0  0  0  0  0  0  0
  150.1991  140.8627  158.1106 N   0  0  0  0  0  0  0  0  0  0  0  0
  151.1861  138.8304  158.8892 C   0  0  0  0  0  0  0  0  0  0  0  0
  150.1376  138.0635  158.3371 N   0  0  0  0  0  0  0  0  0  0  0  0
  149.9961  138.1112  156.8770 C   0  0  0  0  0  0  0  0  0  0  0  0
  149.3035  137.2545  159.0545 C   0  0  0  0  0  0  0  0  0  0  0  0
  149.2613  137.3241  160.2850 O   0  0  0  0  0  0  0  0  0  0  0  0
  148.5025  136.2821  158.3030 C   0  0  0  0  0  0  0  0  0  0  0  0
  147.4336  136.7245  157.6014 C   0  0  0  0  0  0  0  0  0  0  0  0
  146.5796  135.9031  156.9084 O   0  0  0  0  0  0  0  0  0  0  0  0
  146.7400  134.5148  157.1750 C   0  0  0  0  0  0  0  0  0  0  0  0
  148.2288  134.1609  157.2939 C   0  0  0  0  0  0  0  0  0  0  0  0
  148.8305  134.9445  158.3163 O   0  0  0  0  0  0  0  0  0  0  0  0
  152.2710  138.1169  159.5805 C   0  0  0  0  0  0  0  0  0  0  0  0
  152.3552  136.8974  159.7210 O   0  0  0  0  0  0  0  0  0  0  0  0
  153.2648  138.9339  160.1120 N   0  0  0  0  0  0  0  0  0  0  0  0
  153.3107  140.3196  160.0149 C   0  0  0  0  0  0  0  0  0  0  0  0
  154.2314  140.9322  160.5569 O   0  0  0  0  0  0  0  0  0  0  0  0
  154.0144  138.4818  160.6148 H   0  0  0  0  0  0  0  0  0  0  0  0
  151.4272  146.2622  159.3448 H   0  0  0  0  0  0  0  0  0  0  0  0
  151.9077  144.8573  158.3974 H   0  0  0  0  0  0  0  0  0  0  0  0
  153.0375  145.5772  159.5442 H   0  0  0  0  0  0  0  0  0  0  0  0
  151.5183  144.9241  161.4392 H   0  0  0  0  0  0  0  0  0  0  0  0
  150.3980  144.2109  160.3037 H   0  0  0  0  0  0  0  0  0  0  0  0
  153.2138  143.2594  160.9726 H   0  0  0  0  0  0  0  0  0  0  0  0
  151.7132  142.4113  161.2562 H   0  0  0  0  0  0  0  0  0  0  0  0
  151.5525  142.7068  158.5099 H   0  0  0  0  0  0  0  0  0  0  0  0
  153.2735  142.6582  158.6784 H   0  0  0  0  0  0  0  0  0  0  0  0
  150.1925  141.8695  158.0296 H   0  0  0  0  0  0  0  0  0  0  0  0
  149.4573  140.3706  157.6339 H   0  0  0  0  0  0  0  0  0  0  0  0
  149.0003  138.4570  156.5960 H   0  0  0  0  0  0  0  0  0  0  0  0
  150.1536  137.1242  156.4396 H   0  0  0  0  0  0  0  0  0  0  0  0
  150.7207  138.7850  156.4175 H   0  0  0  0  0  0  0  0  0  0  0  0
  147.1240  137.7582  157.5412 H   0  0  0  0  0  0  0  0  0  0  0  0
  146.2152  134.2644  158.0979 H   0  0  0  0  0  0  0  0  0  0  0  0
  146.2738  133.9414  156.3739 H   0  0  0  0  0  0  0  0  0  0  0  0
  148.3565  133.1050  157.5327 H   0  0  0  0  0  0  0  0  0  0  0  0
  148.7447  134.3424  156.3499 H   0  0  0  0  0  0  0  0  0  0  0  0
  1  2  1  0  0  0  0
  1 25  1  0  0  0  0
  1 26  1  0  0  0  0
  1 27  1  0  0  0  0
  2  3  1  0  0  0  0
  2 28  1  0  0  0  0
  2 29  1  0  0  0  0
  3  4  1  0  0  0  0
  3 30  1  0  0  0  0
  3 31  1  0  0  0  0
  4  5  1  0  0  0  0
  4 32  1  0  0  0  0
  4 33  1  0  0  0  0
  5 22  1  0  0  0  0
  5  6  1  0  0  0  0
  6  7  1  0  0  0  0
  6  8  2  0  0  0  0
  7 34  1  0  0  0  0
  7 35  1  0  0  0  0
  8  9  1  0  0  0  0
  8 19  1  0  0  0  0
  9 10  1  0  0  0  0
  9 11  1  0  0  0  0
 10 36  1  0  0  0  0
 10 37  1  0  0  0  0
 10 38  1  0  0  0  0
 11 12  2  0  0  0  0
 11 13  1  0  0  0  0
 13 18  1  0  0  0  0
 13 14  2  0  0  0  0
 14 15  1  0  0  0  0
 14 39  1  0  0  0  0
 15 16  1  0  0  0  0
 16 17  1  0  0  0  0
 16 40  1  0  0  0  0
 16 41  1  0  0  0  0
 17 18  1  0  0  0  0
 17 42  1  0  0  0  0
 17 43  1  0  0  0  0
 19 20  2  0  0  0  0
 19 21  1  0  0  0  0
 21 24  1  0  0  0  0
 21 22  1  0  0  0  0
 22 23  2  0  0  0  0
M  END
> <s_m_source_file>
AV-unprocessed.smi

> <i_m_source_file_index>
1374

> <i_lp_mmshare_version>
43012

> <i_f3d_flags>
0

> <s_epik_input>
W0NIM11bQ0gyXVtDSDJdW0NIMl1uMWMoW05IMl0pYyhjKD1PKVtuSF1jMT1PKU4oW0NIM10pQyg9TylDMj1bQ0hdT1tDSDJdW0NIMl1PMg==

> <s_epik_cmdline>
J2VwaWtfcHl0aG9uJywgJy1waCcsICc3LjAnLCAnLXRuJywgJzgnLCAnLW1hJywgJzIwMCcsICctbWV0YWxfYmluZGluZycsICctaW1hZScsICc8aW5maWxlLm1hZT4nLCAnLW9tYWUnLCAnPG91dGZpbGUubWFlPic=

> <r_lp_tautomer_probability>
1

> <r_epik_Ionization_Penalty>
3.28524e-05

> <r_epik_Ionization_Penalty_Charging>
2.39265e-05

> <r_epik_Ionization_Penalty_Neutral>
8.92594e-06

> <r_epik_State_Penalty>
-0

> <r_epik_Charging_Adjusted_Penalty>
2.39265e-05

> <i_epik_Tot_Q>
0

> <i_epik_Tot_abs_Q>
0

> <r_epik_Metal_State_Penalty>
0.0232519

> <b_epik_Metal_Only>
0

> <s_epik_Chemistry_Notes>
This compound has an imine and may undergo hydrolysis.

> <s_lp_Force_Field>
OPLS_2005

> <r_lp_Energy>
27.3757

> <b_lp_Chiralities_Consistent>
1

> <s_lp_Variant>
AV-unprocessed.smi:1374-1

> <Gold.Version>
5.8.1

> <Gold.Id.Protein>
6NUR|6NUR_protein|mol2

> <Gold.PLP.Fitness>
38.5173

> <Gold.PLP.PLP>
-33.7668

> <Gold.PLP.part.hbond>
-3.0000

> <Gold.PLP.part.metal>
0.0000

> <Gold.PLP.part.buried>
-6.8045

> <Gold.PLP.part.nonpolar>
-24.8652

> <Gold.PLP.part.repulsive>
0.2057

> <Gold.PLP.ligand.clash>
0.0000

> <Gold.PLP.ligand.torsion>
2.8986

> <Gold.PLP.Chemscore.Hbond>
2.3840

> <Gold.PLP.Chemscore.CHOScore>
0.0000

> <Gold.PLP.Chemscore.Metal>
0.0000

> <Gold.Chemscore.Hbonds>
donor molecule, donor type, donor heavy atom, donor atom, acceptor molecule, acceptor atom, score
      P1  H  6896  6907       L1    20  1.00
      P1  H  6896  6909       L1    18  0.47
      P1  H  6931  6943       L1    12  0.42

> <Gold.PLP.Chemscore.Internal.Correction>
3.3957

> <Gold.Rescore>
     Score         DG    S(hbond)    S(metal)    S(lipo)     H(rot)  DE(clash)    DE(int)     intcor
     13.56     -16.86       2.40        0.00      61.29       1.49       0.01       3.29       ----

> <Gold.Chemscore.Fitness>
13.5644

> <Gold.Chemscore.DG>
-16.8646

> <Gold.Chemscore.ZeroCoef>
-5.4800

> <Gold.Chemscore.Hbond>
2.4017

> <Gold.Chemscore.Metal>
0.0000

> <Gold.Chemscore.Lipo>
61.2895

> <Gold.Chemscore.Internal_Hbond>
0.0000

> <Gold.Chemscore.DEClash>
0.0081

> <Gold.Chemscore.DEInternal>
3.2921

> <Gold.Chemscore.Rot>
1.4875

> <Gold.Chemscore.Internal.Correction>
   9.000000E+99

> <Gold.Chemscore.Hbonds>
donor molecule, donor type, donor heavy atom, donor atom, acceptor molecule, acceptor atom, score
      P1  H  6896  6907       L1    20  1.00
      P1  H  6896  6909       L1    18  0.46
      P1  H  6931  6943       L1    12  0.42

> <Gold.Chemscore.Hbond.Weighted>
-8.0218

> <Gold.Chemscore.Metal.Weighted>
-0.0000

> <Gold.Chemscore.Lipo.Weighted>
-7.1709

> <Gold.Chemscore.Internal_Hbond.Weighted>
0.0000

> <Gold.Chemscore.DEClash.Weighted>
0.0081

> <Gold.Chemscore.DEInternal.Weighted>
3.2921

> <Gold.Chemscore.Rot.Weighted>
3.8081

> <Gold.Chemscore.Internal.Correction.Weighted>
   9.000000E+99

> <Gold.Protein.RotatedTorsions>
[ 6907 6896 6895 6894 ] final   23.29 input  -60.11 | X-H torsion
[ 7974 7965 7964 7962 ] final   47.64 input  175.53 | X-H torsion
[ 8008 7997 7996 7995 ] final  -22.58 input   59.86 | X-H torsion
[ 10167 10162 10161 10158 ] final  -32.69 input  -65.29 | X-H torsion
[ 10718 10713 10712 10709 ] final  -66.32 input   66.30 | X-H torsion
[ 10763 10752 10751 10750 ] final -160.77 input  -60.55 | X-H torsion
[ 11005 11000 10999 10996 ] final  -77.75 input  -57.11 | X-H torsion

> <Gold.Protein.ActiveResidues>
 VAL166  LYS551  ARG553  GLY616  TRP617  ASP618  TYR619  PRO620  LYS621  CYS622 
 ASP623  PHE694  ASN695  SER759  ASP760  ASP761  ALA762  ILE779  LEU786  VAL792 
 PHE793  MET794  SER795  GLU796  ALA797  LYS798  CYS799  TRP800  GLU811  SER814 

> <Gold.Protein.RotatedAtoms>
  151.9401  135.0217  160.0535 H   0  0  0  0  0  0  0  0  0  0  0  0  # atno 6907 bound_to 6896
  152.2043  133.4859  159.5084 H   0  0  0  0  0  0  0  0  0  0  0  0  # atno 6908 bound_to 6896
  150.6961  134.1466  159.4167 H   0  0  0  0  0  0  0  0  0  0  0  0  # atno 6909 bound_to 6896
  146.0278  139.4727  142.9856 H   0  0  0  0  0  0  0  0  0  0  0  0  # atno 7974 bound_to 7965
  154.4636  140.2004  156.0179 H   0  0  0  0  0  0  0  0  0  0  0  0  # atno 8008 bound_to 7997
  156.0885  140.3261  155.7756 H   0  0  0  0  0  0  0  0  0  0  0  0  # atno 8009 bound_to 7997
  155.4995  140.0552  157.2932 H   0  0  0  0  0  0  0  0  0  0  0  0  # atno 8010 bound_to 7997
  140.7217  143.3676  151.1841 H   0  0  0  0  0  0  0  0  0  0  0  0  # atno 10167 bound_to 10162
  156.0619  130.4260  150.1691 H   0  0  0  0  0  0  0  0  0  0  0  0  # atno 10718 bound_to 10713
  154.7362  135.3058  154.8807 H   0  0  0  0  0  0  0  0  0  0  0  0  # atno 10763 bound_to 10752
  153.9635  135.6750  153.4749 H   0  0  0  0  0  0  0  0  0  0  0  0  # atno 10764 bound_to 10752
  153.0964  135.4933  154.8710 H   0  0  0  0  0  0  0  0  0  0  0  0  # atno 10765 bound_to 10752
  141.1662  133.7035  156.7867 H   0  0  0  0  0  0  0  0  0  0  0  0  # atno 11005 bound_to 11000
  145.7089  141.0112  143.1464 LP  0  0  0  0  0  0  0  0  0  0  0  0  # atno 17320 bound_to 7965
  144.7017  139.8733  143.7442 LP  0  0  0  0  0  0  0  0  0  0  0  0  # atno 17321 bound_to 7965
  139.7240  143.9177  152.2996 LP  0  0  0  0  0  0  0  0  0  0  0  0  # atno 17342 bound_to 10162
  139.8944  144.6947  150.8734 LP  0  0  0  0  0  0  0  0  0  0  0  0  # atno 17343 bound_to 10162
  156.9758  130.9849  151.3448 LP  0  0  0  0  0  0  0  0  0  0  0  0  # atno 17370 bound_to 10713
  157.5634  130.8261  149.8295 LP  0  0  0  0  0  0  0  0  0  0  0  0  # atno 17371 bound_to 10713
  140.2355  134.8653  157.3520 LP  0  0  0  0  0  0  0  0  0  0  0  0  # atno 17394 bound_to 11000
  140.1848  134.4445  155.7750 LP  0  0  0  0  0  0  0  0  0  0  0  0  # atno 17395 bound_to 11000

$$$$
