AV-unprocessed.smi:2399|AV-procd|sdf|9500|dock10
  -GOLD-   2272013133D 1   1.00000     0.00000
 Structure written by MMmdl.
 53 55  0  0  0  0  0  0  0  0  2 V2000
  147.8607  131.8170  153.5028 C   0  0  0  0  0  0  0  0  0  0  0  0
  147.2606  132.9990  152.9941 O   0  0  0  0  0  0  0  0  0  0  0  0
  146.3746  132.8813  151.9407 C   0  0  0  0  0  0  0  0  0  0  0  0
  145.8514  131.6425  151.4899 C   0  0  0  0  0  0  0  0  0  0  0  0
  144.9533  131.6243  150.4089 C   0  0  0  0  0  0  0  0  0  0  0  0
  144.6073  132.8493  149.8116 C   0  0  0  0  0  0  0  0  0  0  0  0
  143.6444  132.9044  148.6445 C   0  0  0  0  0  0  0  0  0  0  0  0
  145.0964  134.0331  150.2323 N   0  0  0  0  0  0  0  0  0  0  0  0
  145.9630  134.0646  151.2748 C   0  0  0  0  0  0  0  0  0  0  0  0
  146.5228  135.2723  151.7755 N   0  0  0  0  0  0  0  0  0  0  0  0
  145.8851  136.3558  152.2514 C   0  0  0  0  0  0  0  0  0  0  0  0
  144.6638  136.4846  152.3413 O   0  0  0  0  0  0  0  0  0  0  0  0
  146.7565  137.2993  152.6372 N   0  0  0  0  0  0  0  0  0  0  0  0
  146.3963  138.5863  153.2248 C   0  0  2  0  0  0  0  0  0  0  0  0
  147.1312  139.7191  152.4870 C   0  0  0  0  0  0  0  0  0  0  0  0
  146.8834  141.0808  153.1640 C   0  0  0  0  0  0  0  0  0  0  0  0
  147.2646  141.0663  154.6037 N   0  3  2  0  0  0  0  0  0  0  0  0
  148.7377  141.0590  154.8534 C   0  0  0  0  0  0  0  0  0  0  0  0
  149.4335  139.7655  154.4088 C   0  0  0  0  0  0  0  0  0  0  0  0
  150.7643  139.7559  155.1651 C   0  0  0  0  0  0  0  0  0  0  0  0
  150.5300  140.5700  156.4446 C   0  0  0  0  0  0  0  0  0  0  0  0
  149.1067  141.1305  156.3426 C   0  0  0  0  0  0  0  0  0  0  0  0
  146.5074  140.0100  155.3303 C   0  0  0  0  0  0  0  0  0  0  0  0
  146.7422  138.6129  154.7265 C   0  0  0  0  0  0  0  0  0  0  0  0
  148.5248  132.0775  154.3267 H   0  0  0  0  0  0  0  0  0  0  0  0
  148.4602  131.3150  152.7423 H   0  0  0  0  0  0  0  0  0  0  0  0
  147.1123  131.1242  153.8898 H   0  0  0  0  0  0  0  0  0  0  0  0
  146.1201  130.7048  151.9517 H   0  0  0  0  0  0  0  0  0  0  0  0
  144.5425  130.6915  150.0512 H   0  0  0  0  0  0  0  0  0  0  0  0
  143.4615  131.9098  148.2369 H   0  0  0  0  0  0  0  0  0  0  0  0
  144.0455  133.5289  147.8457 H   0  0  0  0  0  0  0  0  0  0  0  0
  142.6903  133.3245  148.9628 H   0  0  0  0  0  0  0  0  0  0  0  0
  147.5317  135.3052  151.7801 H   0  0  0  0  0  0  0  0  0  0  0  0
  147.7416  137.1084  152.5251 H   0  0  0  0  0  0  0  0  0  0  0  0
  145.3228  138.7474  153.1071 H   0  0  0  0  0  0  0  0  0  0  0  0
  148.2016  139.5132  152.4504 H   0  0  0  0  0  0  0  0  0  0  0  0
  146.7965  139.7613  151.4497 H   0  0  0  0  0  0  0  0  0  0  0  0
  147.3996  141.8745  152.6256 H   0  0  0  0  0  0  0  0  0  0  0  0
  145.8226  141.3263  153.0959 H   0  0  0  0  0  0  0  0  0  0  0  0
  149.2093  141.8969  154.3388 H   0  0  0  0  0  0  0  0  0  0  0  0
  148.8405  138.8992  154.7065 H   0  0  0  0  0  0  0  0  0  0  0  0
  149.5850  139.7127  153.3302 H   0  0  0  0  0  0  0  0  0  0  0  0
  151.1024  138.7413  155.3778 H   0  0  0  0  0  0  0  0  0  0  0  0
  151.5356  140.2375  154.5624 H   0  0  0  0  0  0  0  0  0  0  0  0
  150.6451  139.9577  157.3397 H   0  0  0  0  0  0  0  0  0  0  0  0
  151.2577  141.3800  156.5092 H   0  0  0  0  0  0  0  0  0  0  0  0
  149.0432  142.1423  156.7445 H   0  0  0  0  0  0  0  0  0  0  0  0
  148.4317  140.5004  156.9239 H   0  0  0  0  0  0  0  0  0  0  0  0
  146.7436  140.0126  156.3935 H   0  0  0  0  0  0  0  0  0  0  0  0
  145.4451  140.2505  155.2690 H   0  0  0  0  0  0  0  0  0  0  0  0
  146.1344  137.8821  155.2609 H   0  0  0  0  0  0  0  0  0  0  0  0
  147.7794  138.3119  154.8786 H   0  0  0  0  0  0  0  0  0  0  0  0
  146.9411  141.9451  154.9827 H   0  0  0  0  0  0  0  0  0  0  0  0
  1  2  1  0  0  0  0
  1 25  1  0  0  0  0
  1 26  1  0  0  0  0
  1 27  1  0  0  0  0
  2  3  1  0  0  0  0
  3  9  1  0  0  0  0
  3  4  2  0  0  0  0
  4  5  1  0  0  0  0
  4 28  1  0  0  0  0
  5  6  2  0  0  0  0
  5 29  1  0  0  0  0
  6  7  1  0  0  0  0
  6  8  1  0  0  0  0
  7 30  1  0  0  0  0
  7 31  1  0  0  0  0
  7 32  1  0  0  0  0
  8  9  2  0  0  0  0
  9 10  1  0  0  0  0
 10 11  1  0  0  0  0
 10 33  1  0  0  0  0
 11 12  2  0  0  0  0
 11 13  1  0  0  0  0
 13 14  1  0  0  0  0
 13 34  1  0  0  0  0
 14 24  1  0  0  0  0
 14 15  1  0  0  0  0
 14 35  1  0  0  0  0
 15 16  1  0  0  0  0
 15 36  1  0  0  0  0
 15 37  1  0  0  0  0
 16 17  1  0  0  0  0
 16 38  1  0  0  0  0
 16 39  1  0  0  0  0
 17 18  1  0  0  0  0
 17 23  1  0  0  0  0
 17 53  1  0  0  0  0
 18 22  1  0  0  0  0
 18 19  1  0  0  0  0
 18 40  1  0  0  0  0
 19 20  1  0  0  0  0
 19 41  1  0  0  0  0
 19 42  1  0  0  0  0
 20 21  1  0  0  0  0
 20 43  1  0  0  0  0
 20 44  1  0  0  0  0
 21 22  1  0  0  0  0
 21 45  1  0  0  0  0
 21 46  1  0  0  0  0
 22 47  1  0  0  0  0
 22 48  1  0  0  0  0
 23 24  1  0  0  0  0
 23 49  1  0  0  0  0
 23 50  1  0  0  0  0
 24 51  1  0  0  0  0
 24 52  1  0  0  0  0
M  CHG  1  17   1
M  END
> <s_m_source_file>
AV-unprocessed.smi

> <i_m_source_file_index>
2399

> <i_lp_mmshare_version>
43012

> <i_f3d_flags>
0

> <s_epik_input>
W0NIM11PYzFbY0hdW2NIXWMoW0NIM10pbmMxW05IXUMoPU8pW05IXVtDSF0yW0NIMl1bQ0gyXU4oW0NIMl1bQ0gyXTIpW0NIXTNbQ0gyXVtDSDJdW0NIMl1bQ0gyXTM=

> <s_epik_cmdline>
J2VwaWtfcHl0aG9uJywgJy1waCcsICc3LjAnLCAnLXRuJywgJzgnLCAnLW1hJywgJzIwMCcsICctbWV0YWxfYmluZGluZycsICctaW1hZScsICc8aW5maWxlLm1hZT4nLCAnLW9tYWUnLCAnPG91dGZpbGUubWFlPic=

> <r_lp_tautomer_probability>
1

> <r_epik_Ionization_Penalty>
0.00183805

> <r_epik_Ionization_Penalty_Charging>
0.00179121

> <r_epik_Ionization_Penalty_Neutral>
4.68398e-05

> <r_epik_State_Penalty>
0.00121448

> <r_epik_Charging_Adjusted_Penalty>
0.0030057

> <i_epik_Tot_Q>
1

> <i_epik_Tot_abs_Q>
1

> <r_epik_Metal_State_Penalty>
-0

> <b_epik_Metal_Only>
0

> <s_lp_Force_Field>
OPLS_2005

> <r_lp_Energy>
44.4335

> <b_lp_Chiralities_Consistent>
1

> <s_lp_Variant>
AV-unprocessed.smi:2399-2

> <Gold.Version>
5.8.1

> <Gold.Id.Protein>
6NUR|6NUR_protein|mol2

> <Gold.PLP.Fitness>
39.9689

> <Gold.PLP.PLP>
-37.3403

> <Gold.PLP.part.hbond>
-2.0000

> <Gold.PLP.part.metal>
0.0000

> <Gold.PLP.part.buried>
-0.7007

> <Gold.PLP.part.nonpolar>
-36.0104

> <Gold.PLP.part.repulsive>
1.3105

> <Gold.PLP.ligand.clash>
1.8402

> <Gold.PLP.ligand.torsion>
0.7930

> <Gold.PLP.Chemscore.Hbond>
2.0000

> <Gold.PLP.Chemscore.CHOScore>
0.0000

> <Gold.PLP.Chemscore.Metal>
0.0000

> <Gold.Chemscore.Hbonds>
donor molecule, donor type, donor heavy atom, donor atom, acceptor molecule, acceptor atom, score
      L1  H    10    33       P1  7948  0.99
      L1  H    13    34       P1  7948  1.00

> <Gold.PLP.Chemscore.Internal.Correction>
0.0549

> <Gold.Rescore>
     Score         DG    S(hbond)    S(metal)    S(lipo)     H(rot)  DE(clash)    DE(int)     intcor
     16.94     -21.01       1.88        0.00     109.32       1.38       1.12       2.96       ----

> <Gold.Chemscore.Fitness>
16.9363

> <Gold.Chemscore.DG>
-21.0140

> <Gold.Chemscore.ZeroCoef>
-5.4800

> <Gold.Chemscore.Hbond>
1.8813

> <Gold.Chemscore.Metal>
0.0000

> <Gold.Chemscore.Lipo>
109.3185

> <Gold.Chemscore.Internal_Hbond>
0.0000

> <Gold.Chemscore.DEClash>
1.1165

> <Gold.Chemscore.DEInternal>
2.9611

> <Gold.Chemscore.Rot>
1.3828

> <Gold.Chemscore.Internal.Correction>
   9.000000E+99

> <Gold.Chemscore.Hbonds>
donor molecule, donor type, donor heavy atom, donor atom, acceptor molecule, acceptor atom, score
      L1  H    10    33       P1  7948  0.89
      L1  H    13    34       P1  7948  0.94

> <Gold.Chemscore.Hbond.Weighted>
-6.2836

> <Gold.Chemscore.Metal.Weighted>
-0.0000

> <Gold.Chemscore.Lipo.Weighted>
-12.7903

> <Gold.Chemscore.Internal_Hbond.Weighted>
0.0000

> <Gold.Chemscore.DEClash.Weighted>
1.1165

> <Gold.Chemscore.DEInternal.Weighted>
2.9611

> <Gold.Chemscore.Rot.Weighted>
3.5399

> <Gold.Chemscore.Internal.Correction.Weighted>
   9.000000E+99

> <Gold.Protein.RotatedTorsions>
[ 6907 6896 6895 6894 ] final   61.23 input  -60.11 | X-H torsion
[ 7974 7965 7964 7962 ] final  101.65 input  175.53 | X-H torsion
[ 8008 7997 7996 7995 ] final -102.95 input   59.86 | X-H torsion
[ 10167 10162 10161 10158 ] final   84.55 input  -65.29 | X-H torsion
[ 10718 10713 10712 10709 ] final  -61.25 input   66.30 | X-H torsion
[ 10763 10752 10751 10750 ] final -154.41 input  -60.55 | X-H torsion
[ 11005 11000 10999 10996 ] final   45.69 input  -57.11 | X-H torsion

> <Gold.Protein.ActiveResidues>
 VAL166  LYS551  ARG553  GLY616  TRP617  ASP618  TYR619  PRO620  LYS621  CYS622 
 ASP623  PHE694  ASN695  SER759  ASP760  ASP761  ALA762  ILE779  LEU786  VAL792 
 PHE793  MET794  SER795  GLU796  ALA797  LYS798  CYS799  TRP800  GLU811  SER814 

> <Gold.Protein.RotatedAtoms>
  152.4071  134.6188  160.0044 H   0  0  0  0  0  0  0  0  0  0  0  0  # atno 6907 bound_to 6896
  151.6376  133.3322  159.3131 H   0  0  0  0  0  0  0  0  0  0  0  0  # atno 6908 bound_to 6896
  150.7965  134.7070  159.6627 H   0  0  0  0  0  0  0  0  0  0  0  0  # atno 6909 bound_to 6896
  145.3695  139.2401  143.3463 H   0  0  0  0  0  0  0  0  0  0  0  0  # atno 7974 bound_to 7965
  154.8640  140.0425  157.1683 H   0  0  0  0  0  0  0  0  0  0  0  0  # atno 8008 bound_to 7997
  154.8810  140.2972  155.5405 H   0  0  0  0  0  0  0  0  0  0  0  0  # atno 8009 bound_to 7997
  156.2999  140.2411  156.3812 H   0  0  0  0  0  0  0  0  0  0  0  0  # atno 8010 bound_to 7997
  139.9069  144.6295  150.8578 H   0  0  0  0  0  0  0  0  0  0  0  0  # atno 10167 bound_to 10162
  156.0934  130.4196  150.0968 H   0  0  0  0  0  0  0  0  0  0  0  0  # atno 10718 bound_to 10713
  154.7860  135.3190  154.7885 H   0  0  0  0  0  0  0  0  0  0  0  0  # atno 10763 bound_to 10752
  153.8585  135.6855  153.4789 H   0  0  0  0  0  0  0  0  0  0  0  0  # atno 10764 bound_to 10752
  153.1512  135.4698  154.9578 H   0  0  0  0  0  0  0  0  0  0  0  0  # atno 10765 bound_to 10752
  140.1437  134.4550  155.8431 H   0  0  0  0  0  0  0  0  0  0  0  0  # atno 11005 bound_to 11000
  146.2892  140.4343  142.8746 LP  0  0  0  0  0  0  0  0  0  0  0  0  # atno 17320 bound_to 7965
  144.8587  140.7108  143.6121 LP  0  0  0  0  0  0  0  0  0  0  0  0  # atno 17321 bound_to 7965
  140.7694  143.3394  151.2239 LP  0  0  0  0  0  0  0  0  0  0  0  0  # atno 17342 bound_to 10162
  139.6976  143.9586  152.2890 LP  0  0  0  0  0  0  0  0  0  0  0  0  # atno 17343 bound_to 10162
  156.8972  130.9608  151.3581 LP  0  0  0  0  0  0  0  0  0  0  0  0  # atno 17370 bound_to 10713
  157.6090  130.8568  149.8920 LP  0  0  0  0  0  0  0  0  0  0  0  0  # atno 17371 bound_to 10713
  141.2189  133.6843  156.7294 LP  0  0  0  0  0  0  0  0  0  0  0  0  # atno 17394 bound_to 11000
  140.2690  134.8407  157.3829 LP  0  0  0  0  0  0  0  0  0  0  0  0  # atno 17395 bound_to 11000

$$$$
