AV-unprocessed.smi:21|AV-procd|sdf|129|dock9
  -GOLD-   2262015313D 1   1.00000     0.00000
 Structure written by MMmdl.
 62 65  0  0  0  0  0  0  0  0  2 V2000
  146.7403  130.0468  153.1886 C   0  0  0  0  0  0  0  0  0  0  0  0
  147.8356  130.8872  153.5137 O   0  0  0  0  0  0  0  0  0  0  0  0
  147.4454  132.1392  154.0574 C   0  0  1  0  0  0  0  0  0  0  0  0
  148.6339  132.8305  154.7116 C   0  0  0  0  0  0  0  0  0  0  0  0
  148.2119  134.3014  154.7154 C   0  0  1  0  0  0  0  0  0  0  0  0
  149.4036  135.2799  154.8052 C   0  0  0  0  0  0  0  0  0  0  0  0
  149.9183  135.4514  156.1632 N   0  0  0  0  0  0  0  0  0  0  0  0
  150.4255  134.2655  156.8396 C   0  0  0  0  0  0  0  0  0  0  0  0
  150.6364  136.5637  156.4532 C   0  0  0  0  0  0  0  0  0  0  0  0
  151.8153  136.3815  157.0997 N   0  0  0  0  0  0  0  0  0  0  0  0
  152.5650  137.4333  157.4418 C   0  0  0  0  0  0  0  0  0  0  0  0
  152.3261  138.7300  157.2371 N   0  0  0  0  0  0  0  0  0  0  0  0
  151.1492  138.9178  156.5744 C   0  0  0  0  0  0  0  0  0  0  0  0
  150.2523  137.9010  156.1404 C   0  0  0  0  0  0  0  0  0  0  0  0
  149.1672  138.4801  155.4904 N   0  0  0  0  0  0  0  0  0  0  0  0
  149.4031  139.7620  155.5479 C   0  0  0  0  0  0  0  0  0  0  0  0
  150.5659  140.1124  156.1942 N   0  0  0  0  0  0  0  0  0  0  0  0
  151.0672  141.4552  156.4217 C   0  0  0  0  0  0  0  0  0  0  0  0
  150.4440  142.1419  157.6619 C   0  0  2  0  0  0  0  0  0  0  0  0
  148.9073  142.3213  157.5493 C   0  0  0  0  0  0  0  0  0  0  0  0
  148.5038  142.5957  156.2225 O   0  0  0  0  0  0  0  0  0  0  0  0
  151.1947  143.4641  157.9651 C   0  0  1  0  0  0  0  0  0  0  0  0
  150.5994  144.3323  159.0693 C   0  0  0  0  0  0  0  0  0  0  0  0
  151.8230  145.0602  159.6070 C   0  0  0  0  0  0  0  0  0  0  0  0
  152.8178  144.0510  159.5840 O   0  0  0  0  0  0  0  0  0  0  0  0
  152.6690  143.3080  158.3794 C   0  0  0  0  0  0  0  0  0  0  0  0
  147.4484  134.4862  153.4596 N   0  3  2  0  0  0  0  0  0  0  0  0
  146.3587  135.4819  153.5579 C   0  0  0  0  0  0  0  0  0  0  0  0
  147.0021  133.1518  152.9926 C   0  0  0  0  0  0  0  0  0  0  0  0
  146.6605  132.0116  154.8056 H   0  0  0  0  0  0  0  0  0  0  0  0
  147.5198  134.4471  155.5462 H   0  0  0  0  0  0  0  0  0  0  0  0
  147.1120  129.1013  152.7941 H   0  0  0  0  0  0  0  0  0  0  0  0
  146.1003  130.4966  152.4289 H   0  0  0  0  0  0  0  0  0  0  0  0
  146.1363  129.8274  154.0700 H   0  0  0  0  0  0  0  0  0  0  0  0
  148.8485  132.4483  155.7102 H   0  0  0  0  0  0  0  0  0  0  0  0
  149.5274  132.6943  154.1001 H   0  0  0  0  0  0  0  0  0  0  0  0
  150.2125  134.9121  154.1728 H   0  0  0  0  0  0  0  0  0  0  0  0
  149.1346  136.2540  154.3978 H   0  0  0  0  0  0  0  0  0  0  0  0
  150.3620  134.3774  157.9224 H   0  0  0  0  0  0  0  0  0  0  0  0
  151.4674  134.0849  156.5725 H   0  0  0  0  0  0  0  0  0  0  0  0
  149.8471  133.3835  156.5637 H   0  0  0  0  0  0  0  0  0  0  0  0
  153.4859  137.2035  157.9575 H   0  0  0  0  0  0  0  0  0  0  0  0
  148.7255  140.4922  155.1302 H   0  0  0  0  0  0  0  0  0  0  0  0
  152.1504  141.3889  156.5299 H   0  0  0  0  0  0  0  0  0  0  0  0
  150.8830  142.0494  155.5259 H   0  0  0  0  0  0  0  0  0  0  0  0
  150.6340  141.4954  158.5206 H   0  0  0  0  0  0  0  0  0  0  0  0
  148.3808  141.4198  157.8605 H   0  0  0  0  0  0  0  0  0  0  0  0
  148.5597  143.1242  158.1997 H   0  0  0  0  0  0  0  0  0  0  0  0
  149.1236  143.1986  155.8412 H   0  0  0  0  0  0  0  0  0  0  0  0
  151.1993  144.0620  157.0519 H   0  0  0  0  0  0  0  0  0  0  0  0
  149.8293  145.0136  158.7064 H   0  0  0  0  0  0  0  0  0  0  0  0
  150.1652  143.7288  159.8656 H   0  0  0  0  0  0  0  0  0  0  0  0
  152.1141  145.8804  158.9493 H   0  0  0  0  0  0  0  0  0  0  0  0
  151.6722  145.4565  160.6115 H   0  0  0  0  0  0  0  0  0  0  0  0
  152.9716  142.2730  158.5368 H   0  0  0  0  0  0  0  0  0  0  0  0
  153.3251  143.7254  157.6145 H   0  0  0  0  0  0  0  0  0  0  0  0
  145.6048  135.1709  154.2825 H   0  0  0  0  0  0  0  0  0  0  0  0
  145.8721  135.6107  152.5907 H   0  0  0  0  0  0  0  0  0  0  0  0
  146.7501  136.4514  153.8668 H   0  0  0  0  0  0  0  0  0  0  0  0
  147.5018  132.9507  152.0444 H   0  0  0  0  0  0  0  0  0  0  0  0
  145.9270  133.1002  152.8137 H   0  0  0  0  0  0  0  0  0  0  0  0
  148.1024  134.8224  152.7669 H   0  0  0  0  0  0  0  0  0  0  0  0
  1  2  1  0  0  0  0
  1 32  1  0  0  0  0
  1 33  1  0  0  0  0
  1 34  1  0  0  0  0
  2  3  1  0  0  0  0
  3 30  1  0  0  0  0
  3 29  1  0  0  0  0
  3  4  1  0  0  0  0
  4  5  1  0  0  0  0
  4 35  1  0  0  0  0
  4 36  1  0  0  0  0
  5 31  1  0  0  0  0
  5  6  1  0  0  0  0
  5 27  1  0  0  0  0
  6  7  1  0  0  0  0
  6 37  1  0  0  0  0
  6 38  1  0  0  0  0
  7  8  1  0  0  0  0
  7  9  1  0  0  0  0
  8 39  1  0  0  0  0
  8 40  1  0  0  0  0
  8 41  1  0  0  0  0
  9 14  1  0  0  0  0
  9 10  2  0  0  0  0
 10 11  1  0  0  0  0
 11 12  2  0  0  0  0
 11 42  1  0  0  0  0
 12 13  1  0  0  0  0
 13 17  1  0  0  0  0
 13 14  2  0  0  0  0
 14 15  1  0  0  0  0
 15 16  2  0  0  0  0
 16 17  1  0  0  0  0
 16 43  1  0  0  0  0
 17 18  1  0  0  0  0
 18 19  1  0  0  0  0
 18 44  1  0  0  0  0
 18 45  1  0  0  0  0
 19 20  1  0  0  0  0
 19 22  1  0  0  0  0
 19 46  1  0  0  0  0
 20 21  1  0  0  0  0
 20 47  1  0  0  0  0
 20 48  1  0  0  0  0
 21 49  1  0  0  0  0
 22 26  1  0  0  0  0
 22 23  1  0  0  0  0
 22 50  1  0  0  0  0
 23 24  1  0  0  0  0
 23 51  1  0  0  0  0
 23 52  1  0  0  0  0
 24 25  1  0  0  0  0
 24 53  1  0  0  0  0
 24 54  1  0  0  0  0
 25 26  1  0  0  0  0
 26 55  1  0  0  0  0
 26 56  1  0  0  0  0
 27 28  1  0  0  0  0
 27 29  1  0  0  0  0
 27 62  1  0  0  0  0
 28 57  1  0  0  0  0
 28 58  1  0  0  0  0
 28 59  1  0  0  0  0
 29 60  1  0  0  0  0
 29 61  1  0  0  0  0
M  CHG  1  27   1
M  END
> <s_m_source_file>
AV-unprocessed.smi

> <i_m_source_file_index>
21

> <i_lp_mmshare_version>
43012

> <i_f3d_flags>
0

> <s_epik_input>
W0NIM11PW0NASF0xW0NIMl1bQ0BIXShOKFtDSDNdKVtDSDJdMSlbQ0gyXU4oW0NIM10pYyhuW2NIXW4yKWMoYzIzKW5bY0hdbjNbQ0gyXVtDQEhdKFtDSDJdW09IXSlbQ0BASF00W0NIMl1bQ0gyXU9bQ0gyXTQ=

> <s_epik_cmdline>
J2VwaWtfcHl0aG9uJywgJy1waCcsICc3LjAnLCAnLXRuJywgJzgnLCAnLW1hJywgJzIwMCcsICctbWV0YWxfYmluZGluZycsICctaW1hZScsICc8aW5maWxlLm1hZT4nLCAnLW9tYWUnLCAnPG91dGZpbGUubWFlPic=

> <r_lp_tautomer_probability>
1

> <r_epik_Ionization_Penalty>
0.0157465

> <r_epik_Ionization_Penalty_Charging>
0.015354

> <r_epik_Ionization_Penalty_Neutral>
0.000392529

> <r_epik_State_Penalty>
0.0120612

> <r_epik_Charging_Adjusted_Penalty>
0.0274152

> <i_epik_Tot_Q>
1

> <i_epik_Tot_abs_Q>
1

> <r_epik_Metal_State_Penalty>
0.0121253

> <b_epik_Metal_Only>
0

> <s_lp_Force_Field>
OPLS_2005

> <r_lp_Energy>
59.3761

> <b_lp_Chiralities_Consistent>
1

> <s_lp_Variant>
AV-unprocessed.smi:21-9

> <Gold.Version>
5.8.1

> <Gold.Id.Protein>
6NUR|6NUR_protein|mol2

> <Gold.PLP.Fitness>
53.5134

> <Gold.PLP.PLP>
-41.6842

> <Gold.PLP.part.hbond>
-4.0000

> <Gold.PLP.part.metal>
0.0000

> <Gold.PLP.part.buried>
-4.5993

> <Gold.PLP.part.nonpolar>
-33.6164

> <Gold.PLP.part.repulsive>
0.2122

> <Gold.PLP.ligand.clash>
0.0000

> <Gold.PLP.ligand.torsion>
1.4445

> <Gold.PLP.Chemscore.Hbond>
4.5900

> <Gold.PLP.Chemscore.CHOScore>
0.0000

> <Gold.PLP.Chemscore.Metal>
0.0000

> <Gold.Chemscore.Hbonds>
donor molecule, donor type, donor heavy atom, donor atom, acceptor molecule, acceptor atom, score
      L1  H    21    49       P1  8028  0.50
      L1  H    27    62       P1  7948  2.00

> <Gold.PLP.Chemscore.Internal.Correction>
0.9483

> <Gold.Rescore>
     Score         DG    S(hbond)    S(metal)    S(lipo)     H(rot)  DE(clash)    DE(int)     intcor
     14.16     -18.67       2.91        0.00     102.86       3.35       3.06       1.45       ----

> <Gold.Chemscore.Fitness>
14.1593

> <Gold.Chemscore.DG>
-18.6686

> <Gold.Chemscore.ZeroCoef>
-5.4800

> <Gold.Chemscore.Hbond>
2.9094

> <Gold.Chemscore.Metal>
0.0000

> <Gold.Chemscore.Lipo>
102.8618

> <Gold.Chemscore.Internal_Hbond>
0.0000

> <Gold.Chemscore.DEClash>
3.0624

> <Gold.Chemscore.DEInternal>
1.4469

> <Gold.Chemscore.Rot>
3.3452

> <Gold.Chemscore.Internal.Correction>
   9.000000E+99

> <Gold.Chemscore.Hbonds>
donor molecule, donor type, donor heavy atom, donor atom, acceptor molecule, acceptor atom, score
      L1  H    21    49       P1  8028  0.48
      L1  H    27    62       P1  7948  0.76

> <Gold.Chemscore.Hbond.Weighted>
-9.7174

> <Gold.Chemscore.Metal.Weighted>
-0.0000

> <Gold.Chemscore.Lipo.Weighted>
-12.0348

> <Gold.Chemscore.Internal_Hbond.Weighted>
0.0000

> <Gold.Chemscore.DEClash.Weighted>
3.0624

> <Gold.Chemscore.DEInternal.Weighted>
1.4469

> <Gold.Chemscore.Rot.Weighted>
8.5636

> <Gold.Chemscore.Internal.Correction.Weighted>
   9.000000E+99

> <Gold.Protein.RotatedTorsions>
[ 6907 6896 6895 6894 ] final -179.65 input  -60.11 | X-H torsion
[ 7974 7965 7964 7962 ] final   -4.66 input  175.53 | X-H torsion
[ 8008 7997 7996 7995 ] final  -38.03 input   59.86 | X-H torsion
[ 10167 10162 10161 10158 ] final  -14.43 input  -65.29 | X-H torsion
[ 10718 10713 10712 10709 ] final  -50.59 input   66.30 | X-H torsion
[ 10763 10752 10751 10750 ] final   89.26 input  -60.55 | X-H torsion
[ 11005 11000 10999 10996 ] final  130.95 input  -57.11 | X-H torsion

> <Gold.Protein.ActiveResidues>
 VAL166  LYS551  ARG553  GLY616  TRP617  ASP618  TYR619  PRO620  LYS621  CYS622 
 ASP623  PHE694  ASN695  SER759  ASP760  ASP761  ALA762  ILE779  LEU786  VAL792 
 PHE793  MET794  SER795  GLU796  ALA797  LYS798  CYS799  TRP800  GLU811  SER814 

> <Gold.Protein.RotatedAtoms>
  151.6569  133.3318  159.3164 H   0  0  0  0  0  0  0  0  0  0  0  0  # atno 6907 bound_to 6896
  150.7932  134.6977  159.6541 H   0  0  0  0  0  0  0  0  0  0  0  0  # atno 6908 bound_to 6896
  152.4016  134.6281  160.0120 H   0  0  0  0  0  0  0  0  0  0  0  0  # atno 6909 bound_to 6896
  146.2368  140.1905  142.8332 H   0  0  0  0  0  0  0  0  0  0  0  0  # atno 7974 bound_to 7965
  154.4043  140.1588  156.2634 H   0  0  0  0  0  0  0  0  0  0  0  0  # atno 8008 bound_to 7997
  155.9016  140.3433  155.6009 H   0  0  0  0  0  0  0  0  0  0  0  0  # atno 8009 bound_to 7997
  155.7441  140.0796  157.2223 H   0  0  0  0  0  0  0  0  0  0  0  0  # atno 8010 bound_to 7997
  140.7201  143.5322  150.9506 H   0  0  0  0  0  0  0  0  0  0  0  0  # atno 10167 bound_to 10162
  156.1787  130.4150  149.9539 H   0  0  0  0  0  0  0  0  0  0  0  0  # atno 10718 bound_to 10713
  153.1852  135.4477  155.0080 H   0  0  0  0  0  0  0  0  0  0  0  0  # atno 10763 bound_to 10752
  154.8056  135.3273  154.7442 H   0  0  0  0  0  0  0  0  0  0  0  0  # atno 10764 bound_to 10752
  153.7902  135.6971  153.4928 H   0  0  0  0  0  0  0  0  0  0  0  0  # atno 10765 bound_to 10752
  139.9702  134.9579  156.9368 H   0  0  0  0  0  0  0  0  0  0  0  0  # atno 11005 bound_to 11000
  144.9862  140.8505  143.5367 LP  0  0  0  0  0  0  0  0  0  0  0  0  # atno 17320 bound_to 7965
  145.1904  139.2304  143.5245 LP  0  0  0  0  0  0  0  0  0  0  0  0  # atno 17321 bound_to 7965
  139.9043  143.6798  152.3126 LP  0  0  0  0  0  0  0  0  0  0  0  0  # atno 17342 bound_to 10162
  139.7158  144.7612  151.1036 LP  0  0  0  0  0  0  0  0  0  0  0  0  # atno 17343 bound_to 10162
  156.7316  130.9045  151.3626 LP  0  0  0  0  0  0  0  0  0  0  0  0  # atno 17370 bound_to 10713
  157.6853  130.9180  150.0371 LP  0  0  0  0  0  0  0  0  0  0  0  0  # atno 17371 bound_to 10713
  140.5310  134.0813  155.7316 LP  0  0  0  0  0  0  0  0  0  0  0  0  # atno 17394 bound_to 11000
  141.1381  133.9185  157.2387 LP  0  0  0  0  0  0  0  0  0  0  0  0  # atno 17395 bound_to 11000

$$$$
