AV-unprocessed.smi:3201|AV-procd|sdf|12238|dock8
  -GOLD-   2272018 73D 1   1.00000     0.00000
 Structure written by MMmdl.
 41 43  0  0  0  0  0  0  0  0  2 V2000
  148.6202  138.2164  155.5313 C   0  0  0  0  0  0  0  0  0  0  0  0
  150.0608  138.3060  155.1427 C   0  0  0  0  0  0  0  0  0  0  0  0
  150.8747  139.3934  154.9685 C   0  0  0  0  0  0  0  0  0  0  0  0
  150.5507  140.8545  155.1184 C   0  0  0  0  0  0  0  0  0  0  0  0
  150.2977  141.2257  156.5854 C   0  0  0  0  0  0  0  0  0  0  0  0
  150.5206  142.6676  156.8147 N   0  3  0  0  0  0  0  0  0  0  0  0
  150.8038  143.0289  158.2210 C   0  0  1  0  0  0  0  0  0  0  0  0
  152.1665  142.4850  158.7112 C   0  0  0  0  0  0  0  0  0  0  0  0
  152.9022  143.7585  159.1657 C   0  0  2  0  0  0  0  0  0  0  0  0
  152.2332  144.3183  160.4349 C   0  0  0  0  0  0  0  0  0  0  0  0
  150.9106  144.8947  159.8948 C   0  0  0  0  0  0  0  0  0  0  0  0
  150.9781  144.5536  158.3938 C   0  0  1  0  0  0  0  0  0  0  0  0
  152.4624  144.7604  158.1056 C   0  0  0  0  0  0  0  0  0  0  0  0
  152.1260  138.8221  154.6019 C   0  0  0  0  0  0  0  0  0  0  0  0
  152.0922  137.5028  154.5488 N   0  0  0  0  0  0  0  0  0  0  0  0
  150.8250  137.1836  154.8826 N   0  0  0  0  0  0  0  0  0  0  0  0
  150.4310  135.7886  154.9235 C   0  0  0  0  0  0  0  0  0  0  0  0
  148.1813  139.2060  155.6570 H   0  0  0  0  0  0  0  0  0  0  0  0
  148.5065  137.6789  156.4729 H   0  0  0  0  0  0  0  0  0  0  0  0
  148.0450  137.6900  154.7694 H   0  0  0  0  0  0  0  0  0  0  0  0
  151.3619  141.4674  154.7236 H   0  0  0  0  0  0  0  0  0  0  0  0
  149.6719  141.1112  154.5256 H   0  0  0  0  0  0  0  0  0  0  0  0
  149.2731  140.9738  156.8622 H   0  0  0  0  0  0  0  0  0  0  0  0
  150.9569  140.6469  157.2333 H   0  0  0  0  0  0  0  0  0  0  0  0
  151.2894  142.9802  156.2393 H   0  0  0  0  0  0  0  0  0  0  0  0
  149.9839  142.6701  158.8456 H   0  0  0  0  0  0  0  0  0  0  0  0
  152.0568  141.7607  159.5193 H   0  0  0  0  0  0  0  0  0  0  0  0
  152.7227  142.0007  157.9070 H   0  0  0  0  0  0  0  0  0  0  0  0
  153.9810  143.6302  159.2595 H   0  0  0  0  0  0  0  0  0  0  0  0
  152.0749  143.5487  161.1914 H   0  0  0  0  0  0  0  0  0  0  0  0
  152.8406  145.1069  160.8813 H   0  0  0  0  0  0  0  0  0  0  0  0
  150.0365  144.4631  160.3840 H   0  0  0  0  0  0  0  0  0  0  0  0
  150.8758  145.9747  160.0448 H   0  0  0  0  0  0  0  0  0  0  0  0
  150.2992  145.1528  157.7857 H   0  0  0  0  0  0  0  0  0  0  0  0
  152.8052  145.7776  158.3036 H   0  0  0  0  0  0  0  0  0  0  0  0
  152.7544  144.4763  157.0931 H   0  0  0  0  0  0  0  0  0  0  0  0
  153.0529  139.3262  154.3711 H   0  0  0  0  0  0  0  0  0  0  0  0
  149.9528  135.5684  155.8783 H   0  0  0  0  0  0  0  0  0  0  0  0
  151.3003  135.1392  154.8085 H   0  0  0  0  0  0  0  0  0  0  0  0
  149.7271  135.5835  154.1162 H   0  0  0  0  0  0  0  0  0  0  0  0
  149.6846  143.1570  156.5285 H   0  0  0  0  0  0  0  0  0  0  0  0
  1  2  1  0  0  0  0
  1 18  1  0  0  0  0
  1 19  1  0  0  0  0
  1 20  1  0  0  0  0
  2 16  1  0  0  0  0
  2  3  2  0  0  0  0
  3  4  1  0  0  0  0
  3 14  1  0  0  0  0
  4  5  1  0  0  0  0
  4 21  1  0  0  0  0
  4 22  1  0  0  0  0
  5  6  1  0  0  0  0
  5 23  1  0  0  0  0
  5 24  1  0  0  0  0
  6  7  1  0  0  0  0
  6 25  1  0  0  0  0
  6 41  1  0  0  0  0
  7 12  1  0  0  0  0
  7  8  1  0  0  0  0
  7 26  1  0  0  0  0
  8  9  1  0  0  0  0
  8 27  1  0  0  0  0
  8 28  1  0  0  0  0
  9 13  1  0  0  0  0
  9 10  1  0  0  0  0
  9 29  1  0  0  0  0
 10 11  1  0  0  0  0
 10 30  1  0  0  0  0
 10 31  1  0  0  0  0
 11 12  1  0  0  0  0
 11 32  1  0  0  0  0
 11 33  1  0  0  0  0
 12 13  1  0  0  0  0
 12 34  1  0  0  0  0
 13 35  1  0  0  0  0
 13 36  1  0  0  0  0
 14 15  2  0  0  0  0
 14 37  1  0  0  0  0
 15 16  1  0  0  0  0
 16 17  1  0  0  0  0
 17 38  1  0  0  0  0
 17 39  1  0  0  0  0
 17 40  1  0  0  0  0
M  CHG  1   6   1
M  END
> <s_m_source_file>
AV-unprocessed.smi

> <i_m_source_file_index>
3201

> <i_lp_mmshare_version>
43012

> <i_f3d_flags>
0

> <s_epik_input>
W0NIM11uMW5bY0hdYyhjMVtDSDNdKVtDSDJdW0NIMl1bTkhdW0NASF0oW0NIMl1bQ0BIXTIzKVtDQEhdKFtDSDJdMylbQ0gyXVtDSDJdMg==

> <s_epik_cmdline>
J2VwaWtfcHl0aG9uJywgJy1waCcsICc3LjAnLCAnLXRuJywgJzgnLCAnLW1hJywgJzIwMCcsICctbWV0YWxfYmluZGluZycsICctaW1hZScsICc8aW5maWxlLm1hZT4nLCAnLW9tYWUnLCAnPG91dGZpbGUubWFlPic=

> <r_lp_tautomer_probability>
1

> <r_epik_Ionization_Penalty>
0.000331174

> <r_epik_Ionization_Penalty_Charging>
0.000242709

> <r_epik_Ionization_Penalty_Neutral>
8.84659e-05

> <r_epik_State_Penalty>
-0

> <r_epik_Charging_Adjusted_Penalty>
0.000242709

> <i_epik_Tot_Q>
1

> <i_epik_Tot_abs_Q>
1

> <r_epik_Metal_State_Penalty>
-0

> <b_epik_Metal_Only>
0

> <s_lp_Force_Field>
OPLS_2005

> <r_lp_Energy>
49.6372

> <b_lp_Chiralities_Consistent>
1

> <s_lp_Variant>
AV-unprocessed.smi:3201-2

> <Gold.Version>
5.8.1

> <Gold.Id.Protein>
6NUR|6NUR_protein|mol2

> <Gold.PLP.Fitness>
48.9097

> <Gold.PLP.PLP>
-40.8035

> <Gold.PLP.part.hbond>
-2.0000

> <Gold.PLP.part.metal>
0.0000

> <Gold.PLP.part.buried>
-3.9144

> <Gold.PLP.part.nonpolar>
-35.9833

> <Gold.PLP.part.repulsive>
0.1588

> <Gold.PLP.ligand.clash>
0.0000

> <Gold.PLP.ligand.torsion>
0.3224

> <Gold.PLP.Chemscore.Hbond>
2.9120

> <Gold.PLP.Chemscore.CHOScore>
0.0000

> <Gold.PLP.Chemscore.Metal>
0.0000

> <Gold.Chemscore.Hbonds>
donor molecule, donor type, donor heavy atom, donor atom, acceptor molecule, acceptor atom, score
      L1  H     6    41       P1  8028  1.92
      P1  H 10752 10763       L1    15  0.78

> <Gold.PLP.Chemscore.Internal.Correction>
0.0151

> <Gold.Rescore>
     Score         DG    S(hbond)    S(metal)    S(lipo)     H(rot)  DE(clash)    DE(int)     intcor
     21.48     -22.91       1.94        0.00     123.35       1.36       1.13       0.30       ----

> <Gold.Chemscore.Fitness>
21.4823

> <Gold.Chemscore.DG>
-22.9115

> <Gold.Chemscore.ZeroCoef>
-5.4800

> <Gold.Chemscore.Hbond>
1.9397

> <Gold.Chemscore.Metal>
0.0000

> <Gold.Chemscore.Lipo>
123.3451

> <Gold.Chemscore.Internal_Hbond>
0.0000

> <Gold.Chemscore.DEClash>
1.1293

> <Gold.Chemscore.DEInternal>
0.2998

> <Gold.Chemscore.Rot>
1.3588

> <Gold.Chemscore.Internal.Correction>
   9.000000E+99

> <Gold.Chemscore.Hbonds>
donor molecule, donor type, donor heavy atom, donor atom, acceptor molecule, acceptor atom, score
      L1  H     6    41       P1  8028  0.91
      P1  H 10752 10763       L1    15  0.25

> <Gold.Chemscore.Hbond.Weighted>
-6.4787

> <Gold.Chemscore.Metal.Weighted>
-0.0000

> <Gold.Chemscore.Lipo.Weighted>
-14.4314

> <Gold.Chemscore.Internal_Hbond.Weighted>
0.0000

> <Gold.Chemscore.DEClash.Weighted>
1.1293

> <Gold.Chemscore.DEInternal.Weighted>
0.2998

> <Gold.Chemscore.Rot.Weighted>
3.4786

> <Gold.Chemscore.Internal.Correction.Weighted>
   9.000000E+99

> <Gold.Protein.RotatedTorsions>
[ 6907 6896 6895 6894 ] final   21.51 input  -60.11 | X-H torsion
[ 7974 7965 7964 7962 ] final  -71.93 input  175.53 | X-H torsion
[ 8008 7997 7996 7995 ] final  -91.62 input   59.86 | X-H torsion
[ 10167 10162 10161 10158 ] final   29.95 input  -65.29 | X-H torsion
[ 10718 10713 10712 10709 ] final   42.91 input   66.30 | X-H torsion
[ 10763 10752 10751 10750 ] final   47.68 input  -60.55 | X-H torsion
[ 11005 11000 10999 10996 ] final  158.10 input  -57.11 | X-H torsion

> <Gold.Protein.ActiveResidues>
 VAL166  LYS551  ARG553  GLY616  TRP617  ASP618  TYR619  PRO620  LYS621  CYS622 
 ASP623  PHE694  ASN695  SER759  ASP760  ASP761  ALA762  ILE779  LEU786  VAL792 
 PHE793  MET794  SER795  GLU796  ALA797  LYS798  CYS799  TRP800  GLU811  SER814 

> <Gold.Protein.RotatedAtoms>
  151.9130  135.0331  160.0515 H   0  0  0  0  0  0  0  0  0  0  0  0  # atno 6907 bound_to 6896
  152.2264  133.5019  159.5199 H   0  0  0  0  0  0  0  0  0  0  0  0  # atno 6908 bound_to 6896
  150.7013  134.1191  159.4071 H   0  0  0  0  0  0  0  0  0  0  0  0  # atno 6909 bound_to 6896
  145.6717  140.9219  143.0879 H   0  0  0  0  0  0  0  0  0  0  0  0  # atno 7974 bound_to 7965
  154.7130  140.0517  157.0568 H   0  0  0  0  0  0  0  0  0  0  0  0  # atno 8008 bound_to 7997
  155.0529  140.3181  155.4667 H   0  0  0  0  0  0  0  0  0  0  0  0  # atno 8009 bound_to 7997
  156.2795  140.2112  156.5654 H   0  0  0  0  0  0  0  0  0  0  0  0  # atno 8010 bound_to 7997
  140.4721  144.0747  150.6240 H   0  0  0  0  0  0  0  0  0  0  0  0  # atno 10167 bound_to 10162
  157.4101  130.7909  149.7423 H   0  0  0  0  0  0  0  0  0  0  0  0  # atno 10718 bound_to 10713
  152.9798  135.5968  154.3803 H   0  0  0  0  0  0  0  0  0  0  0  0  # atno 10763 bound_to 10752
  154.3468  135.2767  155.2395 H   0  0  0  0  0  0  0  0  0  0  0  0  # atno 10764 bound_to 10752
  154.4452  135.6003  153.6210 H   0  0  0  0  0  0  0  0  0  0  0  0  # atno 10765 bound_to 10752
  140.1833  134.8460  157.2828 H   0  0  0  0  0  0  0  0  0  0  0  0  # atno 11005 bound_to 11000
  144.7055  139.8581  143.7431 LP  0  0  0  0  0  0  0  0  0  0  0  0  # atno 17320 bound_to 7965
  146.1040  139.4038  143.0329 LP  0  0  0  0  0  0  0  0  0  0  0  0  # atno 17321 bound_to 7965
  140.3964  143.2726  151.9999 LP  0  0  0  0  0  0  0  0  0  0  0  0  # atno 17342 bound_to 10162
  139.4820  144.6034  151.7565 LP  0  0  0  0  0  0  0  0  0  0  0  0  # atno 17343 bound_to 10162
  155.9848  130.3988  150.3293 LP  0  0  0  0  0  0  0  0  0  0  0  0  # atno 17370 bound_to 10713
  157.1431  131.0301  151.2919 LP  0  0  0  0  0  0  0  0  0  0  0  0  # atno 17371 bound_to 10713
  140.2242  134.3986  155.7551 LP  0  0  0  0  0  0  0  0  0  0  0  0  # atno 17394 bound_to 11000
  141.2224  133.7182  156.8539 LP  0  0  0  0  0  0  0  0  0  0  0  0  # atno 17395 bound_to 11000

$$$$
