AV-unprocessed.smi:1767|AV-procd|sdf|7139|dock4
  -GOLD-   22720 8373D 1   1.00000     0.00000
 Structure written by MMmdl.
 32 34  0  0  0  0  0  0  0  0  1 V2000
  150.4954  144.5590  158.1687 O   0  0  0  0  0  0  0  0  0  0  0  0
  151.1762  143.3307  158.3235 C   0  0  2  0  0  0  0  0  0  0  0  0
  150.1655  142.1873  158.1066 C   0  0  0  0  0  0  0  0  0  0  0  0
  150.5211  141.3493  156.9754 N   0  0  0  0  0  0  0  0  0  0  0  0
  150.0946  141.4818  155.7048 C   0  0  0  0  0  0  0  0  0  0  0  0
  150.5571  140.6112  154.8124 N   0  0  0  0  0  0  0  0  0  0  0  0
  151.3795  139.8191  155.5952 C   0  0  0  0  0  0  0  0  0  0  0  0
  152.1782  138.7054  155.2504 C   0  0  0  0  0  0  0  0  0  0  0  0
  152.9485  138.0474  156.2318 C   0  0  0  0  0  0  0  0  0  0  0  0
  152.9318  138.4909  157.5702 C   0  0  0  0  0  0  0  0  0  0  0  0
  152.1427  139.5975  157.9378 C   0  0  0  0  0  0  0  0  0  0  0  0
  151.3765  140.2524  156.9555 C   0  0  0  0  0  0  0  0  0  0  0  0
  151.8840  143.2300  159.6682 C   0  0  0  0  0  0  0  0  0  0  0  0
  152.6551  142.0877  159.9745 C   0  0  0  0  0  0  0  0  0  0  0  0
  153.2877  141.9728  161.2275 C   0  0  0  0  0  0  0  0  0  0  0  0
  153.1542  142.9998  162.1812 C   0  0  0  0  0  0  0  0  0  0  0  0
  153.7609  142.8883  163.3866 F   0  0  0  0  0  0  0  0  0  0  0  0
  152.3881  144.1423  161.8813 C   0  0  0  0  0  0  0  0  0  0  0  0
  151.7543  144.2573  160.6289 C   0  0  0  0  0  0  0  0  0  0  0  0
  150.1371  144.5935  157.2949 H   0  0  0  0  0  0  0  0  0  0  0  0
  151.9258  143.2946  157.5316 H   0  0  0  0  0  0  0  0  0  0  0  0
  150.0833  141.5643  158.9982 H   0  0  0  0  0  0  0  0  0  0  0  0
  149.1710  142.5954  157.9198 H   0  0  0  0  0  0  0  0  0  0  0  0
  149.4096  142.2663  155.4180 H   0  0  0  0  0  0  0  0  0  0  0  0
  152.1991  138.3573  154.2284 H   0  0  0  0  0  0  0  0  0  0  0  0
  153.5559  137.1979  155.9560 H   0  0  0  0  0  0  0  0  0  0  0  0
  153.5256  137.9812  158.3148 H   0  0  0  0  0  0  0  0  0  0  0  0
  152.1310  139.9412  158.9613 H   0  0  0  0  0  0  0  0  0  0  0  0
  152.7555  141.2901  159.2530 H   0  0  0  0  0  0  0  0  0  0  0  0
  153.8730  141.0949  161.4581 H   0  0  0  0  0  0  0  0  0  0  0  0
  152.2833  144.9293  162.6134 H   0  0  0  0  0  0  0  0  0  0  0  0
  151.1603  145.1330  160.4119 H   0  0  0  0  0  0  0  0  0  0  0  0
  1  2  1  0  0  0  0
  1 20  1  0  0  0  0
  2  3  1  0  0  0  0
  2 13  1  0  0  0  0
  2 21  1  0  0  0  0
  3  4  1  0  0  0  0
  3 22  1  0  0  0  0
  3 23  1  0  0  0  0
  4 12  1  0  0  0  0
  4  5  1  0  0  0  0
  5  6  2  0  0  0  0
  5 24  1  0  0  0  0
  6  7  1  0  0  0  0
  7 12  2  0  0  0  0
  7  8  1  0  0  0  0
  8  9  2  0  0  0  0
  8 25  1  0  0  0  0
  9 10  1  0  0  0  0
  9 26  1  0  0  0  0
 10 11  2  0  0  0  0
 10 27  1  0  0  0  0
 11 12  1  0  0  0  0
 11 28  1  0  0  0  0
 13 19  1  0  0  0  0
 13 14  2  0  0  0  0
 14 15  1  0  0  0  0
 14 29  1  0  0  0  0
 15 16  2  0  0  0  0
 15 30  1  0  0  0  0
 16 17  1  0  0  0  0
 16 18  1  0  0  0  0
 18 19  2  0  0  0  0
 18 31  1  0  0  0  0
 19 32  1  0  0  0  0
M  END
> <s_m_source_file>
AV-unprocessed.smi

> <i_m_source_file_index>
1767

> <i_lp_mmshare_version>
43012

> <i_f3d_flags>
0

> <s_epik_input>
W2NIXTFbY0hdYyhGKVtjSF1bY0hdYzFbQ0BIXShbT0hdKVtDSDJdbihbY0hdbjIpYyhjMjMpW2NIXVtjSF1bY0hdW2NIXTM=

> <s_epik_cmdline>
J2VwaWtfcHl0aG9uJywgJy1waCcsICc3LjAnLCAnLXRuJywgJzgnLCAnLW1hJywgJzIwMCcsICctbWV0YWxfYmluZGluZycsICctaW1hZScsICc8aW5maWxlLm1hZT4nLCAnLW9tYWUnLCAnPG91dGZpbGUubWFlPic=

> <r_epik_Ionization_Penalty>
0.0696514

> <r_epik_Ionization_Penalty_Charging>
0

> <r_epik_Ionization_Penalty_Neutral>
0.0696514

> <r_epik_State_Penalty>
0.0610247

> <r_epik_Charging_Adjusted_Penalty>
0.0610247

> <i_epik_Tot_Q>
0

> <i_epik_Tot_abs_Q>
0

> <r_epik_Metal_State_Penalty>
6.42746e-05

> <b_epik_Metal_Only>
0

> <s_lp_Force_Field>
OPLS_2005

> <r_lp_Energy>
11.9132

> <b_lp_Chiralities_Consistent>
1

> <s_lp_Variant>
AV-unprocessed.smi:1767-1

> <Gold.Version>
5.8.1

> <Gold.Id.Protein>
6NUR|6NUR_protein|mol2

> <Gold.PLP.Fitness>
55.2954

> <Gold.PLP.PLP>
-48.6199

> <Gold.PLP.part.hbond>
-2.9225

> <Gold.PLP.part.metal>
0.0000

> <Gold.PLP.part.buried>
-3.3539

> <Gold.PLP.part.nonpolar>
-41.3617

> <Gold.PLP.part.repulsive>
0.0951

> <Gold.PLP.ligand.clash>
0.0000

> <Gold.PLP.ligand.torsion>
1.1191

> <Gold.PLP.Chemscore.Hbond>
1.9600

> <Gold.PLP.Chemscore.CHOScore>
0.9987

> <Gold.PLP.Chemscore.Metal>
0.0000

> <Gold.Chemscore.Hbonds>
donor molecule, donor type, donor heavy atom, donor atom, acceptor molecule, acceptor atom, score
      L1  H     1    20       P1  8028  1.00
      P1  H  7989  7998       L1     6  0.91
      L1  C     5    24       P1  8028  1.00

> <Gold.PLP.Chemscore.Internal.Correction>
0.0377

> <Gold.Rescore>
     Score         DG    S(hbond)    S(metal)    S(lipo)     H(rot)  DE(clash)    DE(int)     intcor
     18.53     -19.65       1.69        0.00     114.72       1.91       0.02       1.10       ----

> <Gold.Chemscore.Fitness>
18.5292

> <Gold.Chemscore.DG>
-19.6532

> <Gold.Chemscore.ZeroCoef>
-5.4800

> <Gold.Chemscore.Hbond>
1.6899

> <Gold.Chemscore.Metal>
0.0000

> <Gold.Chemscore.Lipo>
114.7226

> <Gold.Chemscore.Internal_Hbond>
0.0000

> <Gold.Chemscore.DEClash>
0.0195

> <Gold.Chemscore.DEInternal>
1.1044

> <Gold.Chemscore.Rot>
1.9116

> <Gold.Chemscore.Internal.Correction>
   9.000000E+99

> <Gold.Chemscore.Hbonds>
donor molecule, donor type, donor heavy atom, donor atom, acceptor molecule, acceptor atom, score
      L1  H     1    20       P1  8028  0.32
      P1  H  7989  7998       L1     6  0.20

> <Gold.Chemscore.Hbond.Weighted>
-5.6444

> <Gold.Chemscore.Metal.Weighted>
-0.0000

> <Gold.Chemscore.Lipo.Weighted>
-13.4225

> <Gold.Chemscore.Internal_Hbond.Weighted>
0.0000

> <Gold.Chemscore.DEClash.Weighted>
0.0195

> <Gold.Chemscore.DEInternal.Weighted>
1.1044

> <Gold.Chemscore.Rot.Weighted>
4.8937

> <Gold.Chemscore.Internal.Correction.Weighted>
   9.000000E+99

> <Gold.Protein.RotatedTorsions>
[ 6907 6896 6895 6894 ] final  136.50 input  -60.11 | X-H torsion
[ 7974 7965 7964 7962 ] final  167.46 input  175.53 | X-H torsion
[ 8008 7997 7996 7995 ] final  -55.42 input   59.86 | X-H torsion
[ 10167 10162 10161 10158 ] final  -77.13 input  -65.29 | X-H torsion
[ 10718 10713 10712 10709 ] final   77.24 input   66.30 | X-H torsion
[ 10763 10752 10751 10750 ] final  -94.27 input  -60.55 | X-H torsion
[ 11005 11000 10999 10996 ] final  -54.78 input  -57.11 | X-H torsion

> <Gold.Protein.ActiveResidues>
 VAL166  LYS551  ARG553  GLY616  TRP617  ASP618  TYR619  PRO620  LYS621  CYS622 
 ASP623  PHE694  ASN695  SER759  ASP760  ASP761  ALA762  ILE779  LEU786  VAL792 
 PHE793  MET794  SER795  GLU796  ALA797  LYS798  CYS799  TRP800  GLU811  SER814 

> <Gold.Protein.RotatedAtoms>
  152.2887  133.5540  159.5543 H   0  0  0  0  0  0  0  0  0  0  0  0  # atno 6907 bound_to 6896
  150.7226  134.0460  159.3791 H   0  0  0  0  0  0  0  0  0  0  0  0  # atno 6908 bound_to 6896
  151.8367  135.0604  160.0494 H   0  0  0  0  0  0  0  0  0  0  0  0  # atno 6909 bound_to 6896
  144.7423  139.8765  143.6393 H   0  0  0  0  0  0  0  0  0  0  0  0  # atno 7974 bound_to 7965
  154.4194  140.1153  156.5473 H   0  0  0  0  0  0  0  0  0  0  0  0  # atno 8008 bound_to 7997
  155.6446  140.3496  155.4708 H   0  0  0  0  0  0  0  0  0  0  0  0  # atno 8009 bound_to 7997
  155.9843  140.1166  157.0688 H   0  0  0  0  0  0  0  0  0  0  0  0  # atno 8010 bound_to 7997
  140.4797  143.2405  151.8077 H   0  0  0  0  0  0  0  0  0  0  0  0  # atno 10167 bound_to 10162
  157.6703  130.9812  150.1612 H   0  0  0  0  0  0  0  0  0  0  0  0  # atno 10718 bound_to 10713
  154.7039  135.5163  153.8567 H   0  0  0  0  0  0  0  0  0  0  0  0  # atno 10763 bound_to 10752
  153.0726  135.6606  154.0224 H   0  0  0  0  0  0  0  0  0  0  0  0  # atno 10764 bound_to 10752
  154.0078  135.3005  155.3375 H   0  0  0  0  0  0  0  0  0  0  0  0  # atno 10765 bound_to 10752
  141.1042  133.6615  156.4372 H   0  0  0  0  0  0  0  0  0  0  0  0  # atno 11005 bound_to 11000
  146.1242  139.4266  143.0209 LP  0  0  0  0  0  0  0  0  0  0  0  0  # atno 17320 bound_to 7965
  145.7259  141.0059  143.1377 LP  0  0  0  0  0  0  0  0  0  0  0  0  # atno 17321 bound_to 7965
  139.4831  144.4788  151.9333 LP  0  0  0  0  0  0  0  0  0  0  0  0  # atno 17342 bound_to 10162
  140.3873  144.2660  150.5903 LP  0  0  0  0  0  0  0  0  0  0  0  0  # atno 17343 bound_to 10162
  156.2388  130.3689  149.8360 LP  0  0  0  0  0  0  0  0  0  0  0  0  # atno 17370 bound_to 10713
  156.6166  130.8609  151.3466 LP  0  0  0  0  0  0  0  0  0  0  0  0  # atno 17371 bound_to 10713
  140.4944  134.6545  157.5224 LP  0  0  0  0  0  0  0  0  0  0  0  0  # atno 17394 bound_to 11000
  139.9906  134.6992  155.9697 LP  0  0  0  0  0  0  0  0  0  0  0  0  # atno 17395 bound_to 11000

$$$$
