AV-unprocessed.smi:148|AV-procd|sdf|1202|dock10
  -GOLD-   2262018363D 1   1.00000     0.00000
 Structure written by MMmdl.
 63 67  0  0  0  0  0  0  0  0  1 V2000
  149.4123  141.0588  153.5931 O   0  0  0  0  0  0  0  0  0  0  0  0
  148.8714  141.1262  154.8960 C   0  0  0  0  0  0  0  0  0  0  0  0
  148.7952  139.7239  155.5450 C   0  0  2  0  0  0  0  0  0  0  0  0
  147.6383  139.6343  156.5739 C   0  0  0  0  0  0  0  0  0  0  0  0
  146.4515  139.0033  156.0242 N   0  0  0  0  0  0  0  0  0  0  0  0
  145.2886  138.7134  156.7009 C   0  0  0  0  0  0  0  0  0  0  0  0
  144.3608  138.1345  155.9887 N   0  0  0  0  0  0  0  0  0  0  0  0
  144.9272  138.0184  154.7248 C   0  0  0  0  0  0  0  0  0  0  0  0
  144.4885  137.4798  153.4820 C   0  0  0  0  0  0  0  0  0  0  0  0
  143.2870  136.8944  153.2750 N   0  0  0  0  0  0  0  0  0  0  0  0
  142.2877  137.4792  154.1686 C   0  0  0  0  0  0  0  0  0  0  0  0
  140.8711  137.0207  153.8007 C   0  0  0  0  0  0  0  0  0  0  0  0
  140.7964  135.4910  153.7872 C   0  0  0  0  0  0  0  0  0  0  0  0
  141.8517  134.9234  152.8285 C   0  0  0  0  0  0  0  0  0  0  0  0
  143.2782  135.4223  153.1800 C   0  0  1  0  0  0  0  0  0  0  0  0
  144.3815  134.8685  152.2236 C   0  0  2  0  0  0  0  0  0  0  0  0
  144.2811  135.2985  150.7466 C   0  0  0  0  0  0  0  0  0  0  0  0
  144.8748  134.1474  149.9179 C   0  0  0  0  0  0  0  0  0  0  0  0
  145.3857  133.1129  150.9252 C   0  0  0  0  0  0  0  0  0  0  0  0
  144.5252  133.3403  152.1672 C   0  0  1  0  0  0  0  0  0  0  0  0
  145.1426  132.8193  153.3260 O   0  0  0  0  0  0  0  0  0  0  0  0
  145.3299  137.5567  152.4218 N   0  0  0  0  0  0  0  0  0  0  0  0
  146.5387  138.1075  152.5677 C   0  0  0  0  0  0  0  0  0  0  0  0
  147.0899  138.6346  153.6635 N   0  0  0  0  0  0  0  0  0  0  0  0
  146.2384  138.5705  154.7273 C   0  0  0  0  0  0  0  0  0  0  0  0
  150.1676  139.2764  156.1199 C   0  0  2  0  0  0  0  0  0  0  0  0
  150.5877  139.9505  157.4279 C   0  0  0  0  0  0  0  0  0  0  0  0
  152.0030  140.4555  157.1508 C   0  0  0  0  0  0  0  0  0  0  0  0
  152.4652  139.6180  156.1040 O   0  0  0  0  0  0  0  0  0  0  0  0
  151.3829  139.4661  155.2007 C   0  0  0  0  0  0  0  0  0  0  0  0
  149.1445  140.2427  153.1990 H   0  0  0  0  0  0  0  0  0  0  0  0
  149.4700  141.8055  155.5031 H   0  0  0  0  0  0  0  0  0  0  0  0
  147.8818  141.5731  154.8053 H   0  0  0  0  0  0  0  0  0  0  0  0
  148.5560  139.0211  154.7451 H   0  0  0  0  0  0  0  0  0  0  0  0
  147.9321  139.0632  157.4534 H   0  0  0  0  0  0  0  0  0  0  0  0
  147.3605  140.6246  156.9329 H   0  0  0  0  0  0  0  0  0  0  0  0
  145.1527  138.9410  157.7483 H   0  0  0  0  0  0  0  0  0  0  0  0
  142.5110  137.1927  155.1974 H   0  0  0  0  0  0  0  0  0  0  0  0
  142.3384  138.5683  154.1248 H   0  0  0  0  0  0  0  0  0  0  0  0
  140.1504  137.4262  154.5111 H   0  0  0  0  0  0  0  0  0  0  0  0
  140.5992  137.4134  152.8200 H   0  0  0  0  0  0  0  0  0  0  0  0
  140.9640  135.1036  154.7929 H   0  0  0  0  0  0  0  0  0  0  0  0
  139.8002  135.1648  153.4871 H   0  0  0  0  0  0  0  0  0  0  0  0
  141.7982  133.8369  152.8718 H   0  0  0  0  0  0  0  0  0  0  0  0
  141.5854  135.2068  151.8109 H   0  0  0  0  0  0  0  0  0  0  0  0
  143.4985  135.0405  154.1771 H   0  0  0  0  0  0  0  0  0  0  0  0
  145.3502  135.2279  152.5744 H   0  0  0  0  0  0  0  0  0  0  0  0
  143.2523  135.4763  150.4376 H   0  0  0  0  0  0  0  0  0  0  0  0
  144.8256  136.2280  150.5784 H   0  0  0  0  0  0  0  0  0  0  0  0
  144.0944  133.7050  149.2978 H   0  0  0  0  0  0  0  0  0  0  0  0
  145.6683  134.4865  149.2510 H   0  0  0  0  0  0  0  0  0  0  0  0
  145.3213  132.0918  150.5487 H   0  0  0  0  0  0  0  0  0  0  0  0
  146.4334  133.3172  151.1525 H   0  0  0  0  0  0  0  0  0  0  0  0
  143.5643  132.8508  152.0163 H   0  0  0  0  0  0  0  0  0  0  0  0
  144.4685  132.5190  153.9165 H   0  0  0  0  0  0  0  0  0  0  0  0
  147.1538  138.1249  151.6801 H   0  0  0  0  0  0  0  0  0  0  0  0
  150.1085  138.2109  156.3459 H   0  0  0  0  0  0  0  0  0  0  0  0
  149.9277  140.7557  157.7488 H   0  0  0  0  0  0  0  0  0  0  0  0
  150.6038  139.2132  158.2316 H   0  0  0  0  0  0  0  0  0  0  0  0
  151.9828  141.4901  156.8041 H   0  0  0  0  0  0  0  0  0  0  0  0
  152.6492  140.3999  158.0271 H   0  0  0  0  0  0  0  0  0  0  0  0
  151.5382  138.6176  154.5338 H   0  0  0  0  0  0  0  0  0  0  0  0
  151.3126  140.3657  154.5903 H   0  0  0  0  0  0  0  0  0  0  0  0
  1  2  1  0  0  0  0
  1 31  1  0  0  0  0
  2  3  1  0  0  0  0
  2 32  1  0  0  0  0
  2 33  1  0  0  0  0
  3  4  1  0  0  0  0
  3 26  1  0  0  0  0
  3 34  1  0  0  0  0
  4  5  1  0  0  0  0
  4 35  1  0  0  0  0
  4 36  1  0  0  0  0
  5 25  1  0  0  0  0
  5  6  1  0  0  0  0
  6  7  2  0  0  0  0
  6 37  1  0  0  0  0
  7  8  1  0  0  0  0
  8 25  2  0  0  0  0
  8  9  1  0  0  0  0
  9 10  1  0  0  0  0
  9 22  2  0  0  0  0
 10 15  1  0  0  0  0
 10 11  1  0  0  0  0
 11 12  1  0  0  0  0
 11 38  1  0  0  0  0
 11 39  1  0  0  0  0
 12 13  1  0  0  0  0
 12 40  1  0  0  0  0
 12 41  1  0  0  0  0
 13 14  1  0  0  0  0
 13 42  1  0  0  0  0
 13 43  1  0  0  0  0
 14 15  1  0  0  0  0
 14 44  1  0  0  0  0
 14 45  1  0  0  0  0
 15 16  1  0  0  0  0
 15 46  1  0  0  0  0
 16 20  1  0  0  0  0
 16 17  1  0  0  0  0
 16 47  1  0  0  0  0
 17 18  1  0  0  0  0
 17 48  1  0  0  0  0
 17 49  1  0  0  0  0
 18 19  1  0  0  0  0
 18 50  1  0  0  0  0
 18 51  1  0  0  0  0
 19 20  1  0  0  0  0
 19 52  1  0  0  0  0
 19 53  1  0  0  0  0
 20 21  1  0  0  0  0
 20 54  1  0  0  0  0
 21 55  1  0  0  0  0
 22 23  1  0  0  0  0
 23 24  2  0  0  0  0
 23 56  1  0  0  0  0
 24 25  1  0  0  0  0
 26 30  1  0  0  0  0
 26 27  1  0  0  0  0
 26 57  1  0  0  0  0
 27 28  1  0  0  0  0
 27 58  1  0  0  0  0
 27 59  1  0  0  0  0
 28 29  1  0  0  0  0
 28 60  1  0  0  0  0
 28 61  1  0  0  0  0
 29 30  1  0  0  0  0
 30 62  1  0  0  0  0
 30 63  1  0  0  0  0
M  END
> <s_m_source_file>
AV-unprocessed.smi

> <i_m_source_file_index>
148

> <i_lp_mmshare_version>
43012

> <i_f3d_flags>
0

> <s_epik_input>
W0NIMl0xT1tDSDJdW0NIMl1bQ0BIXTFbQ0BIXShbQ0gyXVtPSF0pW0NIMl1uKFtjSF1uMiljKGMyMyluW2NIXW5jM040W0NIMl1bQ0gyXVtDSDJdW0NIMl1bQ0BIXTRbQ0BASF01W0NIMl1bQ0gyXVtDSDJdW0NASF01W09IXQ==

> <s_epik_cmdline>
J2VwaWtfcHl0aG9uJywgJy1waCcsICc3LjAnLCAnLXRuJywgJzgnLCAnLW1hJywgJzIwMCcsICctbWV0YWxfYmluZGluZycsICctaW1hZScsICc8aW5maWxlLm1hZT4nLCAnLW9tYWUnLCAnPG91dGZpbGUubWFlPic=

> <r_lp_tautomer_probability>
1

> <r_epik_Ionization_Penalty>
0.00556303

> <r_epik_Ionization_Penalty_Charging>
0

> <r_epik_Ionization_Penalty_Neutral>
0.00556303

> <r_epik_State_Penalty>
0.00401767

> <r_epik_Charging_Adjusted_Penalty>
0.00401767

> <i_epik_Tot_Q>
0

> <i_epik_Tot_abs_Q>
0

> <r_epik_Metal_State_Penalty>
-0

> <b_epik_Metal_Only>
0

> <s_lp_Force_Field>
OPLS_2005

> <r_lp_Energy>
68.457

> <b_lp_Chiralities_Consistent>
1

> <s_lp_Variant>
AV-unprocessed.smi:148-1

> <Gold.Version>
5.8.1

> <Gold.Id.Protein>
6NUR|6NUR_protein|mol2

> <Gold.PLP.Fitness>
45.0083

> <Gold.PLP.PLP>
-35.7320

> <Gold.PLP.part.hbond>
-5.0000

> <Gold.PLP.part.metal>
0.0000

> <Gold.PLP.part.buried>
-3.2250

> <Gold.PLP.part.nonpolar>
-28.3893

> <Gold.PLP.part.repulsive>
0.6133

> <Gold.PLP.ligand.clash>
0.0000

> <Gold.PLP.ligand.torsion>
1.5971

> <Gold.PLP.Chemscore.Hbond>
3.3798

> <Gold.PLP.Chemscore.CHOScore>
0.6700

> <Gold.PLP.Chemscore.Metal>
0.0000

> <Gold.Chemscore.Hbonds>
donor molecule, donor type, donor heavy atom, donor atom, acceptor molecule, acceptor atom, score
      L1  H     1    31       P1  7957  0.25
      L1  H    21    55       P1 10957  0.76
      P1  H  7989  7998       L1     1  0.16
      P1  H  7997  8010       L1    29  0.90
      P1  H  8011  8017       L1     1  1.00
      L1  C    23    56       P1  7948  0.52

> <Gold.PLP.Chemscore.Internal.Correction>
0.3213

> <Gold.Rescore>
     Score         DG    S(hbond)    S(metal)    S(lipo)     H(rot)  DE(clash)    DE(int)     intcor
      8.75     -15.35       2.51        0.00      85.21       3.32       0.26       6.34       ----

> <Gold.Chemscore.Fitness>
8.7473

> <Gold.Chemscore.DG>
-15.3491

> <Gold.Chemscore.ZeroCoef>
-5.4800

> <Gold.Chemscore.Hbond>
2.5148

> <Gold.Chemscore.Metal>
0.0000

> <Gold.Chemscore.Lipo>
85.2111

> <Gold.Chemscore.Internal_Hbond>
0.0000

> <Gold.Chemscore.DEClash>
0.2587

> <Gold.Chemscore.DEInternal>
6.3431

> <Gold.Chemscore.Rot>
3.3203

> <Gold.Chemscore.Internal.Correction>
   9.000000E+99

> <Gold.Chemscore.Hbonds>
donor molecule, donor type, donor heavy atom, donor atom, acceptor molecule, acceptor atom, score
      L1  H     1    31       P1  7957  0.24
      L1  H    21    55       P1 10957  0.38
      P1  H  7989  7998       L1     1  0.05
      P1  H  7997  8010       L1    29  0.18
      P1  H  8011  8017       L1     1  0.81

> <Gold.Chemscore.Hbond.Weighted>
-8.3994

> <Gold.Chemscore.Metal.Weighted>
-0.0000

> <Gold.Chemscore.Lipo.Weighted>
-9.9697

> <Gold.Chemscore.Internal_Hbond.Weighted>
0.0000

> <Gold.Chemscore.DEClash.Weighted>
0.2587

> <Gold.Chemscore.DEInternal.Weighted>
6.3431

> <Gold.Chemscore.Rot.Weighted>
8.5000

> <Gold.Chemscore.Internal.Correction.Weighted>
   9.000000E+99

> <Gold.Protein.RotatedTorsions>
[ 6907 6896 6895 6894 ] final -137.30 input  -60.11 | X-H torsion
[ 7974 7965 7964 7962 ] final -163.24 input  175.53 | X-H torsion
[ 8008 7997 7996 7995 ] final   88.42 input   59.86 | X-H torsion
[ 10167 10162 10161 10158 ] final -157.28 input  -65.29 | X-H torsion
[ 10718 10713 10712 10709 ] final  100.56 input   66.30 | X-H torsion
[ 10763 10752 10751 10750 ] final  111.47 input  -60.55 | X-H torsion
[ 11005 11000 10999 10996 ] final -176.76 input  -57.11 | X-H torsion

> <Gold.Protein.ActiveResidues>
 VAL166  LYS551  ARG553  GLY616  TRP617  ASP618  TYR619  PRO620  LYS621  CYS622 
 ASP623  PHE694  ASN695  SER759  ASP760  ASP761  ALA762  ILE779  LEU786  VAL792 
 PHE793  MET794  SER795  GLU796  ALA797  LYS798  CYS799  TRP800  GLU811  SER814 

> <Gold.Protein.RotatedAtoms>
  151.0208  133.5879  159.2671 H   0  0  0  0  0  0  0  0  0  0  0  0  # atno 6907 bound_to 6896
  151.2996  135.0764  159.9243 H   0  0  0  0  0  0  0  0  0  0  0  0  # atno 6908 bound_to 6896
  152.5322  133.9892  159.7897 H   0  0  0  0  0  0  0  0  0  0  0  0  # atno 6909 bound_to 6896
  144.7332  140.3135  143.6183 H   0  0  0  0  0  0  0  0  0  0  0  0  # atno 7974 bound_to 7965
  155.9875  140.3372  155.6721 H   0  0  0  0  0  0  0  0  0  0  0  0  # atno 8008 bound_to 7997
  155.6466  140.0701  157.2619 H   0  0  0  0  0  0  0  0  0  0  0  0  # atno 8009 bound_to 7997
  154.4209  140.1733  156.1617 H   0  0  0  0  0  0  0  0  0  0  0  0  # atno 8010 bound_to 7997
  139.6783  143.9625  152.2322 H   0  0  0  0  0  0  0  0  0  0  0  0  # atno 10167 bound_to 10162
  157.6851  131.0702  150.5118 H   0  0  0  0  0  0  0  0  0  0  0  0  # atno 10718 bound_to 10713
  153.4639  135.3716  155.2353 H   0  0  0  0  0  0  0  0  0  0  0  0  # atno 10763 bound_to 10752
  154.8757  135.3915  154.3892 H   0  0  0  0  0  0  0  0  0  0  0  0  # atno 10764 bound_to 10752
  153.4470  135.7085  153.6197 H   0  0  0  0  0  0  0  0  0  0  0  0  # atno 10765 bound_to 10752
  140.4484  134.6366  157.4790 H   0  0  0  0  0  0  0  0  0  0  0  0  # atno 11005 bound_to 11000
  145.7641  139.1834  143.2250 LP  0  0  0  0  0  0  0  0  0  0  0  0  # atno 17320 bound_to 7965
  146.0963  140.7596  142.9570 LP  0  0  0  0  0  0  0  0  0  0  0  0  # atno 17321 bound_to 7965
  139.9408  144.6682  150.8268 LP  0  0  0  0  0  0  0  0  0  0  0  0  # atno 17342 bound_to 10162
  140.7643  143.3245  151.2546 LP  0  0  0  0  0  0  0  0  0  0  0  0  # atno 17343 bound_to 10162
  156.5435  130.4214  149.6142 LP  0  0  0  0  0  0  0  0  0  0  0  0  # atno 17370 bound_to 10713
  156.2964  130.7153  151.2014 LP  0  0  0  0  0  0  0  0  0  0  0  0  # atno 17371 bound_to 10713
  140.0023  134.6818  155.9511 LP  0  0  0  0  0  0  0  0  0  0  0  0  # atno 17394 bound_to 11000
  141.1675  133.6537  156.4531 LP  0  0  0  0  0  0  0  0  0  0  0  0  # atno 17395 bound_to 11000

$$$$
