AV-unprocessed.smi:1668|AV-procd|sdf|6681|dock3
  -GOLD-   22720 7393D 1   1.00000     0.00000
 Structure written by MMmdl.
 44 46  0  0  0  0  0  0  0  0  1 V2000
  149.1054  140.6356  154.4074 C   0  0  0  0  0  0  0  0  0  0  0  0
  148.0029  140.3001  155.2371 O   0  0  0  0  0  0  0  0  0  0  0  0
  147.7813  141.0654  156.3617 C   0  0  0  0  0  0  0  0  0  0  0  0
  146.5153  141.2441  156.9668 C   0  0  0  0  0  0  0  0  0  0  0  0
  146.3828  142.0366  158.1216 C   0  0  0  0  0  0  0  0  0  0  0  0
  147.5090  142.6708  158.7011 C   0  0  0  0  0  0  0  0  0  0  0  0
  147.4354  143.4402  159.8441 O   0  0  0  0  0  0  0  0  0  0  0  0
  146.1689  143.6121  160.4620 C   0  0  0  0  0  0  0  0  0  0  0  0
  148.7777  142.5008  158.0931 C   0  0  0  0  0  0  0  0  0  0  0  0
  150.0301  143.1297  158.7055 C   0  0  2  0  0  0  0  0  0  0  0  0
  150.0840  144.5296  158.5168 O   0  0  0  0  0  0  0  0  0  0  0  0
  151.3353  142.5188  158.1474 C   0  0  0  0  0  0  0  0  0  0  0  0
  152.1421  141.8828  159.1897 N   0  0  0  0  0  0  0  0  0  0  0  0
  152.7910  140.6988  159.0850 C   0  0  0  0  0  0  0  0  0  0  0  0
  152.7679  139.9471  158.1106 O   0  0  0  0  0  0  0  0  0  0  0  0
  153.4985  140.5057  160.2222 N   0  0  0  0  0  0  0  0  0  0  0  0
  154.3811  139.3849  160.5216 C   0  0  0  0  0  0  0  0  0  0  0  0
  153.3108  141.6026  161.0725 C   0  0  0  0  0  0  0  0  0  0  0  0
  153.8462  141.8891  162.3400 C   0  0  0  0  0  0  0  0  0  0  0  0
  153.4676  143.1133  162.9393 C   0  0  0  0  0  0  0  0  0  0  0  0
  152.5847  144.0047  162.2764 C   0  0  0  0  0  0  0  0  0  0  0  0
  152.0599  143.6901  161.0014 C   0  0  0  0  0  0  0  0  0  0  0  0
  152.4519  142.4676  160.4278 C   0  0  0  0  0  0  0  0  0  0  0  0
  148.8989  141.7000  156.9357 C   0  0  0  0  0  0  0  0  0  0  0  0
  149.1453  139.9447  153.5654 H   0  0  0  0  0  0  0  0  0  0  0  0
  150.0498  140.5529  154.9469 H   0  0  0  0  0  0  0  0  0  0  0  0
  149.0073  141.6436  154.0018 H   0  0  0  0  0  0  0  0  0  0  0  0
  145.6270  140.7801  156.5663 H   0  0  0  0  0  0  0  0  0  0  0  0
  145.3969  142.1412  158.5476 H   0  0  0  0  0  0  0  0  0  0  0  0
  146.3010  144.1456  161.4032 H   0  0  0  0  0  0  0  0  0  0  0  0
  145.7047  142.6518  160.6921 H   0  0  0  0  0  0  0  0  0  0  0  0
  145.4960  144.2022  159.8389 H   0  0  0  0  0  0  0  0  0  0  0  0
  150.0104  142.9867  159.7860 H   0  0  0  0  0  0  0  0  0  0  0  0
  149.2551  144.8155  158.1643 H   0  0  0  0  0  0  0  0  0  0  0  0
  151.1077  141.7923  157.3668 H   0  0  0  0  0  0  0  0  0  0  0  0
  151.9322  143.2950  157.6653 H   0  0  0  0  0  0  0  0  0  0  0  0
  154.2473  139.0565  161.5527 H   0  0  0  0  0  0  0  0  0  0  0  0
  155.4214  139.6826  160.3882 H   0  0  0  0  0  0  0  0  0  0  0  0
  154.1858  138.5303  159.8723 H   0  0  0  0  0  0  0  0  0  0  0  0
  154.5213  141.2079  162.8361 H   0  0  0  0  0  0  0  0  0  0  0  0
  153.8573  143.3735  163.9124 H   0  0  0  0  0  0  0  0  0  0  0  0
  152.3116  144.9363  162.7499 H   0  0  0  0  0  0  0  0  0  0  0  0
  151.3938  144.3696  160.4911 H   0  0  0  0  0  0  0  0  0  0  0  0
  149.8688  141.5538  156.4830 H   0  0  0  0  0  0  0  0  0  0  0  0
  1  2  1  0  0  0  0
  1 25  1  0  0  0  0
  1 26  1  0  0  0  0
  1 27  1  0  0  0  0
  2  3  1  0  0  0  0
  3 24  1  0  0  0  0
  3  4  2  0  0  0  0
  4  5  1  0  0  0  0
  4 28  1  0  0  0  0
  5  6  2  0  0  0  0
  5 29  1  0  0  0  0
  6  7  1  0  0  0  0
  6  9  1  0  0  0  0
  7  8  1  0  0  0  0
  8 30  1  0  0  0  0
  8 31  1  0  0  0  0
  8 32  1  0  0  0  0
  9 10  1  0  0  0  0
  9 24  2  0  0  0  0
 10 11  1  0  0  0  0
 10 12  1  0  0  0  0
 10 33  1  0  0  0  0
 11 34  1  0  0  0  0
 12 13  1  0  0  0  0
 12 35  1  0  0  0  0
 12 36  1  0  0  0  0
 13 23  1  0  0  0  0
 13 14  1  0  0  0  0
 14 15  2  0  0  0  0
 14 16  1  0  0  0  0
 16 17  1  0  0  0  0
 16 18  1  0  0  0  0
 17 37  1  0  0  0  0
 17 38  1  0  0  0  0
 17 39  1  0  0  0  0
 18 23  2  0  0  0  0
 18 19  1  0  0  0  0
 19 20  2  0  0  0  0
 19 40  1  0  0  0  0
 20 21  1  0  0  0  0
 20 41  1  0  0  0  0
 21 22  2  0  0  0  0
 21 42  1  0  0  0  0
 22 23  1  0  0  0  0
 22 43  1  0  0  0  0
 24 44  1  0  0  0  0
M  END
> <s_m_source_file>
AV-unprocessed.smi

> <i_m_source_file_index>
1668

> <i_lp_mmshare_version>
43012

> <i_f3d_flags>
0

> <s_epik_input>
W0NIM11PYzFbY0hdW2NIXWMoT1tDSDNdKWMoW2NIXTEpW0NASF0oW09IXSlbQ0gyXW4oYyg9TyluMltDSDNdKWMoYzIzKVtjSF1bY0hdW2NIXVtjSF0z

> <s_epik_cmdline>
J2VwaWtfcHl0aG9uJywgJy1waCcsICc3LjAnLCAnLXRuJywgJzgnLCAnLW1hJywgJzIwMCcsICctbWV0YWxfYmluZGluZycsICctaW1hZScsICc8aW5maWxlLm1hZT4nLCAnLW9tYWUnLCAnPG91dGZpbGUubWFlPic=

> <r_lp_tautomer_probability>
1

> <r_epik_Ionization_Penalty>
1.34538e-06

> <r_epik_Ionization_Penalty_Charging>
1.76928e-09

> <r_epik_Ionization_Penalty_Neutral>
1.34362e-06

> <r_epik_State_Penalty>
-0

> <r_epik_Charging_Adjusted_Penalty>
1.76928e-09

> <i_epik_Tot_Q>
0

> <i_epik_Tot_abs_Q>
0

> <r_epik_Metal_State_Penalty>
-0

> <b_epik_Metal_Only>
0

> <s_lp_Force_Field>
OPLS_2005

> <r_lp_Energy>
46.5536

> <b_lp_Chiralities_Consistent>
1

> <s_lp_Variant>
AV-unprocessed.smi:1668-1

> <Gold.Version>
5.8.1

> <Gold.Id.Protein>
6NUR|6NUR_protein|mol2

> <Gold.PLP.Fitness>
51.2798

> <Gold.PLP.PLP>
-45.4956

> <Gold.PLP.part.hbond>
-3.4871

> <Gold.PLP.part.metal>
0.0000

> <Gold.PLP.part.buried>
-4.1854

> <Gold.PLP.part.nonpolar>
-38.4228

> <Gold.PLP.part.repulsive>
0.1416

> <Gold.PLP.ligand.clash>
0.0000

> <Gold.PLP.ligand.torsion>
1.6195

> <Gold.PLP.Chemscore.Hbond>
2.9833

> <Gold.PLP.Chemscore.CHOScore>
0.0000

> <Gold.PLP.Chemscore.Metal>
0.0000

> <Gold.Chemscore.Hbonds>
donor molecule, donor type, donor heavy atom, donor atom, acceptor molecule, acceptor atom, score
      L1  H    11    34       P1  8029  1.00
      P1  H  6933  6944       L1     7  0.59
      P1  H  7997  8009       L1    15  0.78

> <Gold.PLP.Chemscore.Internal.Correction>
0.0732

> <Gold.Rescore>
     Score         DG    S(hbond)    S(metal)    S(lipo)     H(rot)  DE(clash)    DE(int)     intcor
     16.83     -18.24       1.61        0.00     112.26       2.24       0.06       1.35       ----

> <Gold.Chemscore.Fitness>
16.8285

> <Gold.Chemscore.DG>
-18.2402

> <Gold.Chemscore.ZeroCoef>
-5.4800

> <Gold.Chemscore.Hbond>
1.6084

> <Gold.Chemscore.Metal>
0.0000

> <Gold.Chemscore.Lipo>
112.2639

> <Gold.Chemscore.Internal_Hbond>
0.0000

> <Gold.Chemscore.DEClash>
0.0639

> <Gold.Chemscore.DEInternal>
1.3479

> <Gold.Chemscore.Rot>
2.2448

> <Gold.Chemscore.Internal.Correction>
   9.000000E+99

> <Gold.Chemscore.Hbonds>
donor molecule, donor type, donor heavy atom, donor atom, acceptor molecule, acceptor atom, score
      L1  H    11    34       P1  8029  0.29
      P1  H  6933  6944       L1     7  0.09
      P1  H  7997  8009       L1    15  0.60

> <Gold.Chemscore.Hbond.Weighted>
-5.3721

> <Gold.Chemscore.Metal.Weighted>
-0.0000

> <Gold.Chemscore.Lipo.Weighted>
-13.1349

> <Gold.Chemscore.Internal_Hbond.Weighted>
0.0000

> <Gold.Chemscore.DEClash.Weighted>
0.0639

> <Gold.Chemscore.DEInternal.Weighted>
1.3479

> <Gold.Chemscore.Rot.Weighted>
5.7467

> <Gold.Chemscore.Internal.Correction.Weighted>
   9.000000E+99

> <Gold.Protein.RotatedTorsions>
[ 6907 6896 6895 6894 ] final    9.48 input  -60.11 | X-H torsion
[ 7974 7965 7964 7962 ] final -175.19 input  175.53 | X-H torsion
[ 8008 7997 7996 7995 ] final  155.31 input   59.86 | X-H torsion
[ 10167 10162 10161 10158 ] final  -55.13 input  -65.29 | X-H torsion
[ 10718 10713 10712 10709 ] final -176.45 input   66.30 | X-H torsion
[ 10763 10752 10751 10750 ] final   76.01 input  -60.55 | X-H torsion
[ 11005 11000 10999 10996 ] final  -66.87 input  -57.11 | X-H torsion

> <Gold.Protein.ActiveResidues>
 VAL166  LYS551  ARG553  GLY616  TRP617  ASP618  TYR619  PRO620  LYS621  CYS622 
 ASP623  PHE694  ASN695  SER759  ASP760  ASP761  ALA762  ILE779  LEU786  VAL792 
 PHE793  MET794  SER795  GLU796  ALA797  LYS798  CYS799  TRP800  GLU811  SER814 

> <Gold.Protein.RotatedAtoms>
  151.7229  135.0890  160.0286 H   0  0  0  0  0  0  0  0  0  0  0  0  # atno 6907 bound_to 6896
  152.3590  133.6269  159.6009 H   0  0  0  0  0  0  0  0  0  0  0  0  # atno 6908 bound_to 6896
  150.7591  133.9369  159.3486 H   0  0  0  0  0  0  0  0  0  0  0  0  # atno 6909 bound_to 6896
  144.7129  140.1358  143.6395 H   0  0  0  0  0  0  0  0  0  0  0  0  # atno 7974 bound_to 7965
  156.2485  140.1943  156.6782 H   0  0  0  0  0  0  0  0  0  0  0  0  # atno 8008 bound_to 7997
  154.6342  140.0592  156.9794 H   0  0  0  0  0  0  0  0  0  0  0  0  # atno 8009 bound_to 7997
  155.1663  140.3264  155.4404 H   0  0  0  0  0  0  0  0  0  0  0  0  # atno 8010 bound_to 7997
  140.6392  143.2498  151.5036 H   0  0  0  0  0  0  0  0  0  0  0  0  # atno 10167 bound_to 10162
  156.8148  130.9599  151.3114 H   0  0  0  0  0  0  0  0  0  0  0  0  # atno 10718 bound_to 10713
  153.0695  135.4967  154.8273 H   0  0  0  0  0  0  0  0  0  0  0  0  # atno 10763 bound_to 10752
  154.7001  135.3000  154.9355 H   0  0  0  0  0  0  0  0  0  0  0  0  # atno 10764 bound_to 10752
  154.0082  135.6757  153.4816 H   0  0  0  0  0  0  0  0  0  0  0  0  # atno 10765 bound_to 10752
  141.1493  133.6707  156.6205 H   0  0  0  0  0  0  0  0  0  0  0  0  # atno 11005 bound_to 11000
  145.9246  139.2567  143.1361 LP  0  0  0  0  0  0  0  0  0  0  0  0  # atno 17320 bound_to 7965
  145.9585  140.8854  143.0223 LP  0  0  0  0  0  0  0  0  0  0  0  0  # atno 17321 bound_to 7965
  139.5601  144.2178  152.1677 LP  0  0  0  0  0  0  0  0  0  0  0  0  # atno 17342 bound_to 10162
  140.1443  144.5173  150.6725 LP  0  0  0  0  0  0  0  0  0  0  0  0  # atno 17343 bound_to 10162
  157.6487  130.8866  149.9590 LP  0  0  0  0  0  0  0  0  0  0  0  0  # atno 17370 bound_to 10713
  156.1023  130.3655  150.0196 LP  0  0  0  0  0  0  0  0  0  0  0  0  # atno 17371 bound_to 10713
  140.3544  134.7741  157.4490 LP  0  0  0  0  0  0  0  0  0  0  0  0  # atno 17394 bound_to 11000
  140.0835  134.5699  155.8516 LP  0  0  0  0  0  0  0  0  0  0  0  0  # atno 17395 bound_to 11000

$$$$
