AV-unprocessed.smi:2168|AV-procd|sdf|8820|dock7
  -GOLD-   2272012 13D 1   1.00000     0.00000
 Structure written by MMmdl.
 45 46  0  0  0  0  0  0  0  0  2 V2000
  152.3099  137.5863  159.0762 C   0  0  0  0  0  0  0  0  0  0  0  0
  153.1312  138.0422  157.8604 C   0  0  0  0  0  0  0  0  0  0  0  0
  152.3086  138.7224  156.8394 N   0  0  0  0  0  0  0  0  0  0  0  0
  151.4436  139.8301  157.2956 C   0  0  0  0  0  0  0  0  0  0  0  0
  152.1959  140.8846  158.1232 C   0  0  0  0  0  0  0  0  0  0  0  0
  152.5488  138.4035  155.1376 S   0  0  0  0  0  0  0  0  0  0  0  0
  152.3275  136.9578  154.9789 O   0  0  0  0  0  0  0  0  0  0  0  0
  151.6445  139.3122  154.4106 O   0  0  0  0  0  0  0  0  0  0  0  0
  154.1301  138.7843  155.0409 N   0  5  0  0  0  0  0  0  0  0  0  0
  154.7882  139.0374  153.7681 C   0  0  0  0  0  0  0  0  0  0  0  0
  155.9883  138.1221  153.5763 C   0  0  0  0  0  0  0  0  0  0  0  0
  156.9918  138.0202  154.5639 C   0  0  0  0  0  0  0  0  0  0  0  0
  158.0919  137.1701  154.3366 C   0  0  0  0  0  0  0  0  0  0  0  0
  158.1637  136.4387  153.1271 C   0  0  0  0  0  0  0  0  0  0  0  0
  159.2618  135.5875  152.8728 N   0  0  0  0  0  0  0  0  0  0  0  0
  159.5630  135.2495  151.4825 C   0  0  0  0  0  0  0  0  0  0  0  0
  160.9474  134.5878  151.3792 C   0  0  0  0  0  0  0  0  0  0  0  0
  161.0073  133.4611  152.2471 O   0  0  0  0  0  0  0  0  0  0  0  0
  160.8237  133.8324  153.6091 C   0  0  0  0  0  0  0  0  0  0  0  0
  159.4344  134.4671  153.7941 C   0  0  0  0  0  0  0  0  0  0  0  0
  157.1986  136.5401  152.1800 N   0  0  0  0  0  0  0  0  0  0  0  0
  156.1451  137.3564  152.4001 C   0  0  0  0  0  0  0  0  0  0  0  0
  152.9315  137.0183  159.7679 H   0  0  0  0  0  0  0  0  0  0  0  0
  151.4734  136.9512  158.7866 H   0  0  0  0  0  0  0  0  0  0  0  0
  151.9085  138.4370  159.6264 H   0  0  0  0  0  0  0  0  0  0  0  0
  153.9202  138.7197  158.1868 H   0  0  0  0  0  0  0  0  0  0  0  0
  153.6406  137.1886  157.4127 H   0  0  0  0  0  0  0  0  0  0  0  0
  150.9823  140.3121  156.4343 H   0  0  0  0  0  0  0  0  0  0  0  0
  150.6260  139.4147  157.8849 H   0  0  0  0  0  0  0  0  0  0  0  0
  151.5391  141.7207  158.3627 H   0  0  0  0  0  0  0  0  0  0  0  0
  153.0503  141.2846  157.5796 H   0  0  0  0  0  0  0  0  0  0  0  0
  152.5586  140.4785  159.0669 H   0  0  0  0  0  0  0  0  0  0  0  0
  154.1105  138.8854  152.9274 H   0  0  0  0  0  0  0  0  0  0  0  0
  155.1284  140.0702  153.6856 H   0  0  0  0  0  0  0  0  0  0  0  0
  156.9410  138.5856  155.4848 H   0  0  0  0  0  0  0  0  0  0  0  0
  158.8710  137.1089  155.0813 H   0  0  0  0  0  0  0  0  0  0  0  0
  158.7961  134.5740  151.1012 H   0  0  0  0  0  0  0  0  0  0  0  0
  159.5466  136.1461  150.8617 H   0  0  0  0  0  0  0  0  0  0  0  0
  161.1300  134.2586  150.3563 H   0  0  0  0  0  0  0  0  0  0  0  0
  161.7372  135.2975  151.6309 H   0  0  0  0  0  0  0  0  0  0  0  0
  160.9169  132.9446  154.2347 H   0  0  0  0  0  0  0  0  0  0  0  0
  161.6103  134.5230  153.9180 H   0  0  0  0  0  0  0  0  0  0  0  0
  159.3226  134.7727  154.8331 H   0  0  0  0  0  0  0  0  0  0  0  0
  158.6574  133.7276  153.5964 H   0  0  0  0  0  0  0  0  0  0  0  0
  155.4179  137.3880  151.6005 H   0  0  0  0  0  0  0  0  0  0  0  0
  1  2  1  0  0  0  0
  1 23  1  0  0  0  0
  1 24  1  0  0  0  0
  1 25  1  0  0  0  0
  2  3  1  0  0  0  0
  2 26  1  0  0  0  0
  2 27  1  0  0  0  0
  3  4  1  0  0  0  0
  3  6  1  0  0  0  0
  4  5  1  0  0  0  0
  4 28  1  0  0  0  0
  4 29  1  0  0  0  0
  5 30  1  0  0  0  0
  5 31  1  0  0  0  0
  5 32  1  0  0  0  0
  6  7  2  0  0  0  0
  6  8  2  0  0  0  0
  6  9  1  0  0  0  0
  9 10  1  0  0  0  0
 10 11  1  0  0  0  0
 10 33  1  0  0  0  0
 10 34  1  0  0  0  0
 11 22  1  0  0  0  0
 11 12  2  0  0  0  0
 12 13  1  0  0  0  0
 12 35  1  0  0  0  0
 13 14  2  0  0  0  0
 13 36  1  0  0  0  0
 14 15  1  0  0  0  0
 14 21  1  0  0  0  0
 15 20  1  0  0  0  0
 15 16  1  0  0  0  0
 16 17  1  0  0  0  0
 16 37  1  0  0  0  0
 16 38  1  0  0  0  0
 17 18  1  0  0  0  0
 17 39  1  0  0  0  0
 17 40  1  0  0  0  0
 18 19  1  0  0  0  0
 19 20  1  0  0  0  0
 19 41  1  0  0  0  0
 19 42  1  0  0  0  0
 20 43  1  0  0  0  0
 20 44  1  0  0  0  0
 21 22  2  0  0  0  0
 22 45  1  0  0  0  0
M  CHG  1   9  -1
M  END
> <s_m_source_file>
AV-unprocessed.smi

> <i_m_source_file_index>
2168

> <i_lp_mmshare_version>
43012

> <i_f3d_flags>
0

> <s_epik_input>
W0NIM11bQ0gyXU4oW0NIMl1bQ0gzXSlTKD1PKSg9TylbTkhdW0NIMl1jMVtjSF1bY0hdYyhuW2NIXTEpTjJbQ0gyXVtDSDJdT1tDSDJdW0NIMl0y

> <s_epik_cmdline>
J2VwaWtfcHl0aG9uJywgJy1waCcsICc3LjAnLCAnLXRuJywgJzgnLCAnLW1hJywgJzIwMCcsICctbWV0YWxfYmluZGluZycsICctaW1hZScsICc8aW5maWxlLm1hZT4nLCAnLW9tYWUnLCAnPG91dGZpbGUubWFlPic=

> <r_lp_tautomer_probability>
1

> <r_epik_Ionization_Penalty>
2.49252

> <r_epik_Ionization_Penalty_Charging>
2.41478

> <r_epik_Ionization_Penalty_Neutral>
0.0777351

> <r_epik_State_Penalty>
2.68884

> <r_epik_Charging_Adjusted_Penalty>
5.10362

> <i_epik_Tot_Q>
-1

> <i_epik_Tot_abs_Q>
1

> <r_epik_Metal_State_Penalty>
0.584574

> <b_epik_Metal_Only>
0

> <s_lp_Force_Field>
OPLS_2005

> <r_lp_Energy>
16.7

> <b_lp_Chiralities_Consistent>
1

> <s_lp_Variant>
AV-unprocessed.smi:2168-3

> <Gold.Version>
5.8.1

> <Gold.Id.Protein>
6NUR|6NUR_protein|mol2

> <Gold.PLP.Fitness>
40.7983

> <Gold.PLP.PLP>
-32.1333

> <Gold.PLP.part.hbond>
-2.3400

> <Gold.PLP.part.metal>
0.0000

> <Gold.PLP.part.buried>
-2.5167

> <Gold.PLP.part.nonpolar>
-27.5636

> <Gold.PLP.part.repulsive>
0.6320

> <Gold.PLP.ligand.clash>
0.0000

> <Gold.PLP.ligand.torsion>
2.2826

> <Gold.PLP.Chemscore.Hbond>
3.2080

> <Gold.PLP.Chemscore.CHOScore>
0.0000

> <Gold.PLP.Chemscore.Metal>
0.0000

> <Gold.Chemscore.Hbonds>
donor molecule, donor type, donor heavy atom, donor atom, acceptor molecule, acceptor atom, score
      P1  H  7989  7998       L1     8  1.00
      P1  H  7997  8008       L1     9  1.31
      P1  H 10752 10763       L1     7  0.75

> <Gold.PLP.Chemscore.Internal.Correction>
3.6062

> <Gold.Rescore>
     Score         DG    S(hbond)    S(metal)    S(lipo)     H(rot)  DE(clash)    DE(int)     intcor
     15.79     -22.34       2.41        0.00     111.64       1.66       4.14       2.40       ----

> <Gold.Chemscore.Fitness>
15.7897

> <Gold.Chemscore.DG>
-22.3364

> <Gold.Chemscore.ZeroCoef>
-5.4800

> <Gold.Chemscore.Hbond>
2.4116

> <Gold.Chemscore.Metal>
0.0000

> <Gold.Chemscore.Lipo>
111.6421

> <Gold.Chemscore.Internal_Hbond>
0.0000

> <Gold.Chemscore.DEClash>
4.1431

> <Gold.Chemscore.DEInternal>
2.4036

> <Gold.Chemscore.Rot>
1.6642

> <Gold.Chemscore.Internal.Correction>
   9.000000E+99

> <Gold.Chemscore.Hbonds>
donor molecule, donor type, donor heavy atom, donor atom, acceptor molecule, acceptor atom, score
      P1  H  7989  7998       L1     8  0.98
      P1  H  7997  8008       L1     9  0.19
      P1  H 10752 10763       L1     7  0.72

> <Gold.Chemscore.Hbond.Weighted>
-8.0547

> <Gold.Chemscore.Metal.Weighted>
-0.0000

> <Gold.Chemscore.Lipo.Weighted>
-13.0621

> <Gold.Chemscore.Internal_Hbond.Weighted>
0.0000

> <Gold.Chemscore.DEClash.Weighted>
4.1431

> <Gold.Chemscore.DEInternal.Weighted>
2.4036

> <Gold.Chemscore.Rot.Weighted>
4.2604

> <Gold.Chemscore.Internal.Correction.Weighted>
   9.000000E+99

> <Gold.Protein.RotatedTorsions>
[ 6907 6896 6895 6894 ] final  -59.52 input  -60.11 | X-H torsion
[ 7974 7965 7964 7962 ] final   55.46 input  175.53 | X-H torsion
[ 8008 7997 7996 7995 ] final  -17.42 input   59.86 | X-H torsion
[ 10167 10162 10161 10158 ] final   30.12 input  -65.29 | X-H torsion
[ 10718 10713 10712 10709 ] final  146.06 input   66.30 | X-H torsion
[ 10763 10752 10751 10750 ] final   48.78 input  -60.55 | X-H torsion
[ 11005 11000 10999 10996 ] final -157.78 input  -57.11 | X-H torsion

> <Gold.Protein.ActiveResidues>
 VAL166  LYS551  ARG553  GLY616  TRP617  ASP618  TYR619  PRO620  LYS621  CYS622 
 ASP623  PHE694  ASN695  SER759  ASP760  ASP761  ALA762  ILE779  LEU786  VAL792 
 PHE793  MET794  SER795  GLU796  ALA797  LYS798  CYS799  TRP800  GLU811  SER814 

> <Gold.Protein.RotatedAtoms>
  150.7924  134.6958  159.6522 H   0  0  0  0  0  0  0  0  0  0  0  0  # atno 6907 bound_to 6896
  152.4032  134.6248  160.0070 H   0  0  0  0  0  0  0  0  0  0  0  0  # atno 6908 bound_to 6896
  151.6513  133.3284  159.3188 H   0  0  0  0  0  0  0  0  0  0  0  0  # atno 6909 bound_to 6896
  145.9502  139.3965  143.0311 H   0  0  0  0  0  0  0  0  0  0  0  0  # atno 7974 bound_to 7965
  154.4980  140.2143  155.9407 H   0  0  0  0  0  0  0  0  0  0  0  0  # atno 8008 bound_to 7997
  156.1396  140.3182  155.8442 H   0  0  0  0  0  0  0  0  0  0  0  0  # atno 8009 bound_to 7997
  155.4146  140.0493  157.3020 H   0  0  0  0  0  0  0  0  0  0  0  0  # atno 8010 bound_to 7997
  140.4706  144.0768  150.6236 H   0  0  0  0  0  0  0  0  0  0  0  0  # atno 10167 bound_to 10162
  157.3378  131.0931  151.1108 H   0  0  0  0  0  0  0  0  0  0  0  0  # atno 10718 bound_to 10713
  152.9790  135.5933  154.3982 H   0  0  0  0  0  0  0  0  0  0  0  0  # atno 10763 bound_to 10752
  154.3630  135.2767  155.2311 H   0  0  0  0  0  0  0  0  0  0  0  0  # atno 10764 bound_to 10752
  154.4300  135.6038  153.6117 H   0  0  0  0  0  0  0  0  0  0  0  0  # atno 10765 bound_to 10752
  140.6609  134.4350  157.5234 H   0  0  0  0  0  0  0  0  0  0  0  0  # atno 11005 bound_to 11000
  145.8182  140.9692  143.0913 LP  0  0  0  0  0  0  0  0  0  0  0  0  # atno 17320 bound_to 7965
  144.6794  140.0007  143.7484 LP  0  0  0  0  0  0  0  0  0  0  0  0  # atno 17321 bound_to 7965
  140.3982  143.2717  151.9979 LP  0  0  0  0  0  0  0  0  0  0  0  0  # atno 17342 bound_to 10162
  139.4818  144.6020  151.7588 LP  0  0  0  0  0  0  0  0  0  0  0  0  # atno 17343 bound_to 10162
  157.2332  130.6535  149.5858 LP  0  0  0  0  0  0  0  0  0  0  0  0  # atno 17370 bound_to 10713
  155.9703  130.4592  150.6027 LP  0  0  0  0  0  0  0  0  0  0  0  0  # atno 17371 bound_to 10713
  139.9013  134.8549  156.1884 LP  0  0  0  0  0  0  0  0  0  0  0  0  # atno 17394 bound_to 11000
  141.0466  133.6910  156.1694 LP  0  0  0  0  0  0  0  0  0  0  0  0  # atno 17395 bound_to 11000

$$$$
