AV-unprocessed.smi:1184|AV-procd|sdf|4969|dock7
  -GOLD-   22720 3563D 1   1.00000     0.00000
 Structure written by MMmdl.
 43 44  0  0  0  0  0  0  0  0  2 V2000
  144.9481  135.3456  150.7230 C   0  0  0  0  0  0  0  0  0  0  0  0
  144.9460  136.1296  152.0434 C   0  0  0  0  0  0  0  0  0  0  0  0
  146.1305  137.0103  152.1711 N   0  3  1  0  0  0  0  0  0  0  0  0
  146.3213  137.9590  151.0480 C   0  0  0  0  0  0  0  0  0  0  0  0
  146.7405  139.3031  151.6633 C   0  0  0  0  0  0  0  0  0  0  0  0
  147.1245  138.9635  153.1025 C   0  0  1  0  0  0  0  0  0  0  0  0
  147.0369  140.1469  154.0890 C   0  0  0  0  0  0  0  0  0  0  0  0
  148.3560  140.6977  154.3761 N   0  0  0  0  0  0  0  0  0  0  0  0
  148.9421  140.7147  155.5829 C   0  0  0  0  0  0  0  0  0  0  0  0
  148.5071  140.1058  156.5598 O   0  0  0  0  0  0  0  0  0  0  0  0
  150.1708  141.6127  155.7200 C   0  0  0  0  0  0  0  0  0  0  0  0
  151.2525  140.8434  156.4382 C   0  0  0  0  0  0  0  0  0  0  0  0
  151.9141  139.6551  156.0123 C   0  0  0  0  0  0  0  0  0  0  0  0
  151.7172  138.8803  154.7413 C   0  0  0  0  0  0  0  0  0  0  0  0
  152.7785  139.2205  156.9138 N   0  0  0  0  0  0  0  0  0  0  0  0
  152.7193  140.1323  157.9720 O   0  0  0  0  0  0  0  0  0  0  0  0
  151.8057  141.0881  157.6651 C   0  0  0  0  0  0  0  0  0  0  0  0
  151.5785  142.1507  158.6860 C   0  0  0  0  0  0  0  0  0  0  0  0
  146.1929  137.7936  153.4203 C   0  0  0  0  0  0  0  0  0  0  0  0
  144.0371  134.7550  150.6244 H   0  0  0  0  0  0  0  0  0  0  0  0
  145.7910  134.6564  150.6632 H   0  0  0  0  0  0  0  0  0  0  0  0
  145.0021  136.0166  149.8651 H   0  0  0  0  0  0  0  0  0  0  0  0
  144.0478  136.7472  152.0835 H   0  0  0  0  0  0  0  0  0  0  0  0
  144.8964  135.4453  152.8915 H   0  0  0  0  0  0  0  0  0  0  0  0
  147.0961  137.5692  150.3870 H   0  0  0  0  0  0  0  0  0  0  0  0
  145.4119  138.0790  150.4569 H   0  0  0  0  0  0  0  0  0  0  0  0
  147.5539  139.7798  151.1153 H   0  0  0  0  0  0  0  0  0  0  0  0
  145.8901  139.9865  151.6533 H   0  0  0  0  0  0  0  0  0  0  0  0
  148.1478  138.5835  153.0941 H   0  0  0  0  0  0  0  0  0  0  0  0
  146.3804  140.9259  153.6983 H   0  0  0  0  0  0  0  0  0  0  0  0
  146.6035  139.8174  155.0338 H   0  0  0  0  0  0  0  0  0  0  0  0
  148.8046  141.2108  153.6309 H   0  0  0  0  0  0  0  0  0  0  0  0
  150.4991  141.9323  154.7303 H   0  0  0  0  0  0  0  0  0  0  0  0
  149.8922  142.5192  156.2584 H   0  0  0  0  0  0  0  0  0  0  0  0
  150.8471  138.2278  154.8161 H   0  0  0  0  0  0  0  0  0  0  0  0
  152.5825  138.2580  154.5105 H   0  0  0  0  0  0  0  0  0  0  0  0
  151.5580  139.5486  153.8949 H   0  0  0  0  0  0  0  0  0  0  0  0
  151.5956  143.1390  158.2261 H   0  0  0  0  0  0  0  0  0  0  0  0
  152.3479  142.1258  159.4583 H   0  0  0  0  0  0  0  0  0  0  0  0
  150.6099  142.0185  159.1686 H   0  0  0  0  0  0  0  0  0  0  0  0
  145.1992  138.1642  153.6786 H   0  0  0  0  0  0  0  0  0  0  0  0
  146.5550  137.1867  154.2500 H   0  0  0  0  0  0  0  0  0  0  0  0
  146.9469  136.4155  152.1693 H   0  0  0  0  0  0  0  0  0  0  0  0
  1  2  1  0  0  0  0
  1 20  1  0  0  0  0
  1 21  1  0  0  0  0
  1 22  1  0  0  0  0
  2  3  1  0  0  0  0
  2 23  1  0  0  0  0
  2 24  1  0  0  0  0
  3 19  1  0  0  0  0
  3  4  1  0  0  0  0
  3 43  1  0  0  0  0
  4  5  1  0  0  0  0
  4 25  1  0  0  0  0
  4 26  1  0  0  0  0
  5  6  1  0  0  0  0
  5 27  1  0  0  0  0
  5 28  1  0  0  0  0
  6  7  1  0  0  0  0
  6 19  1  0  0  0  0
  6 29  1  0  0  0  0
  7  8  1  0  0  0  0
  7 30  1  0  0  0  0
  7 31  1  0  0  0  0
  8  9  1  0  0  0  0
  8 32  1  0  0  0  0
  9 10  2  0  0  0  0
  9 11  1  0  0  0  0
 11 12  1  0  0  0  0
 11 33  1  0  0  0  0
 11 34  1  0  0  0  0
 12 17  2  0  0  0  0
 12 13  1  0  0  0  0
 13 14  1  0  0  0  0
 13 15  2  0  0  0  0
 14 35  1  0  0  0  0
 14 36  1  0  0  0  0
 14 37  1  0  0  0  0
 15 16  1  0  0  0  0
 16 17  1  0  0  0  0
 17 18  1  0  0  0  0
 18 38  1  0  0  0  0
 18 39  1  0  0  0  0
 18 40  1  0  0  0  0
 19 41  1  0  0  0  0
 19 42  1  0  0  0  0
M  CHG  1   3   1
M  END
> <s_m_source_file>
AV-unprocessed.smi

> <i_m_source_file_index>
1184

> <i_lp_mmshare_version>
43012

> <i_f3d_flags>
0

> <s_epik_input>
W0NIM11bQ0gyXU4xW0NIMl1bQ0gyXVtDQEhdKFtDSDJdMSlbQ0gyXVtOSF1DKD1PKVtDSDJdYzJjKFtDSDNdKW5vYzJbQ0gzXQ==

> <s_epik_cmdline>
J2VwaWtfcHl0aG9uJywgJy1waCcsICc3LjAnLCAnLXRuJywgJzgnLCAnLW1hJywgJzIwMCcsICctbWV0YWxfYmluZGluZycsICctaW1hZScsICc8aW5maWxlLm1hZT4nLCAnLW9tYWUnLCAnPG91dGZpbGUubWFlPic=

> <r_epik_Ionization_Penalty>
0.000590726

> <r_epik_Ionization_Penalty_Charging>
0.000590692

> <r_epik_Ionization_Penalty_Neutral>
3.44741e-08

> <r_epik_State_Penalty>
0.000371644

> <r_epik_Charging_Adjusted_Penalty>
0.000962336

> <i_epik_Tot_Q>
1

> <i_epik_Tot_abs_Q>
1

> <r_epik_Metal_State_Penalty>
-0

> <b_epik_Metal_Only>
0

> <s_lp_Force_Field>
OPLS_2005

> <r_lp_Energy>
20.0287

> <b_lp_Chiralities_Consistent>
1

> <s_lp_Variant>
AV-unprocessed.smi:1184-1

> <Gold.Version>
5.8.1

> <Gold.Id.Protein>
6NUR|6NUR_protein|mol2

> <Gold.PLP.Fitness>
39.6651

> <Gold.PLP.PLP>
-33.4286

> <Gold.PLP.part.hbond>
-3.0000

> <Gold.PLP.part.metal>
0.0000

> <Gold.PLP.part.buried>
2.3849

> <Gold.PLP.part.nonpolar>
-32.9173

> <Gold.PLP.part.repulsive>
0.1675

> <Gold.PLP.ligand.clash>
0.0000

> <Gold.PLP.ligand.torsion>
0.7511

> <Gold.PLP.Chemscore.Hbond>
2.5720

> <Gold.PLP.Chemscore.CHOScore>
0.0000

> <Gold.PLP.Chemscore.Metal>
0.0000

> <Gold.Chemscore.Hbonds>
donor molecule, donor type, donor heavy atom, donor atom, acceptor molecule, acceptor atom, score
      L1  H     3    43       P1  7948  1.92
      P1  H  7997  8010       L1    15  0.36

> <Gold.PLP.Chemscore.Internal.Correction>
0.0227

> <Gold.Rescore>
     Score         DG    S(hbond)    S(metal)    S(lipo)     H(rot)  DE(clash)    DE(int)     intcor
     13.34     -15.45       1.01        0.00      92.91       1.67       1.33       0.78       ----

> <Gold.Chemscore.Fitness>
13.3368

> <Gold.Chemscore.DG>
-15.4464

> <Gold.Chemscore.ZeroCoef>
-5.4800

> <Gold.Chemscore.Hbond>
1.0080

> <Gold.Chemscore.Metal>
0.0000

> <Gold.Chemscore.Lipo>
92.9137

> <Gold.Chemscore.Internal_Hbond>
0.0000

> <Gold.Chemscore.DEClash>
1.3301

> <Gold.Chemscore.DEInternal>
0.7795

> <Gold.Chemscore.Rot>
1.6684

> <Gold.Chemscore.Internal.Correction>
   9.000000E+99

> <Gold.Chemscore.Hbonds>
donor molecule, donor type, donor heavy atom, donor atom, acceptor molecule, acceptor atom, score
      L1  H     3    43       P1  7948  0.87

> <Gold.Chemscore.Hbond.Weighted>
-3.3668

> <Gold.Chemscore.Metal.Weighted>
-0.0000

> <Gold.Chemscore.Lipo.Weighted>
-10.8709

> <Gold.Chemscore.Internal_Hbond.Weighted>
0.0000

> <Gold.Chemscore.DEClash.Weighted>
1.3301

> <Gold.Chemscore.DEInternal.Weighted>
0.7795

> <Gold.Chemscore.Rot.Weighted>
4.2712

> <Gold.Chemscore.Internal.Correction.Weighted>
   9.000000E+99

> <Gold.Protein.RotatedTorsions>
[ 6907 6896 6895 6894 ] final  128.52 input  -60.11 | X-H torsion
[ 7974 7965 7964 7962 ] final   75.48 input  175.53 | X-H torsion
[ 8008 7997 7996 7995 ] final   88.46 input   59.86 | X-H torsion
[ 10167 10162 10161 10158 ] final -135.14 input  -65.29 | X-H torsion
[ 10718 10713 10712 10709 ] final  -59.70 input   66.30 | X-H torsion
[ 10763 10752 10751 10750 ] final -125.95 input  -60.55 | X-H torsion
[ 11005 11000 10999 10996 ] final   79.83 input  -57.11 | X-H torsion

> <Gold.Protein.ActiveResidues>
 VAL166  LYS551  ARG553  GLY616  TRP617  ASP618  TYR619  PRO620  LYS621  CYS622 
 ASP623  PHE694  ASN695  SER759  ASP760  ASP761  ALA762  ILE779  LEU786  VAL792 
 PHE793  MET794  SER795  GLU796  ALA797  LYS798  CYS799  TRP800  GLU811  SER814 

> <Gold.Protein.RotatedAtoms>
  152.3711  133.6420  159.6087 H   0  0  0  0  0  0  0  0  0  0  0  0  # atno 6907 bound_to 6896
  150.7669  133.9268  159.3423 H   0  0  0  0  0  0  0  0  0  0  0  0  # atno 6908 bound_to 6896
  151.7091  135.0917  160.0315 H   0  0  0  0  0  0  0  0  0  0  0  0  # atno 6909 bound_to 6896
  145.7151  139.2628  143.1628 H   0  0  0  0  0  0  0  0  0  0  0  0  # atno 7974 bound_to 7965
  155.9880  140.3371  155.6726 H   0  0  0  0  0  0  0  0  0  0  0  0  # atno 8008 bound_to 7997
  155.6459  140.0700  157.2621 H   0  0  0  0  0  0  0  0  0  0  0  0  # atno 8009 bound_to 7997
  154.4211  140.1734  156.1610 H   0  0  0  0  0  0  0  0  0  0  0  0  # atno 8010 bound_to 7997
  139.8809  143.6841  152.2627 H   0  0  0  0  0  0  0  0  0  0  0  0  # atno 10167 bound_to 10162
  156.1043  130.4182  150.0752 H   0  0  0  0  0  0  0  0  0  0  0  0  # atno 10718 bound_to 10713
  154.8741  135.4012  154.3352 H   0  0  0  0  0  0  0  0  0  0  0  0  # atno 10763 bound_to 10752
  153.4159  135.7022  153.6332 H   0  0  0  0  0  0  0  0  0  0  0  0  # atno 10764 bound_to 10752
  153.5015  135.3726  155.2512 H   0  0  0  0  0  0  0  0  0  0  0  0  # atno 10765 bound_to 10752
  139.9157  134.7873  156.1830 H   0  0  0  0  0  0  0  0  0  0  0  0  # atno 11005 bound_to 11000
  146.0677  140.7902  142.9703 LP  0  0  0  0  0  0  0  0  0  0  0  0  # atno 17320 bound_to 7965
  144.6931  140.3294  143.7218 LP  0  0  0  0  0  0  0  0  0  0  0  0  # atno 17321 bound_to 7965
  139.7197  144.7605  151.0975 LP  0  0  0  0  0  0  0  0  0  0  0  0  # atno 17342 bound_to 10162
  140.7744  143.5223  150.9521 LP  0  0  0  0  0  0  0  0  0  0  0  0  # atno 17343 bound_to 10162
  156.8731  130.9531  151.3607 LP  0  0  0  0  0  0  0  0  0  0  0  0  # atno 17370 bound_to 10713
  157.6217  130.8660  149.9120 LP  0  0  0  0  0  0  0  0  0  0  0  0  # atno 17371 bound_to 10713
  141.0631  133.6832  156.1990 LP  0  0  0  0  0  0  0  0  0  0  0  0  # atno 17394 bound_to 11000
  140.6629  134.4948  157.5584 LP  0  0  0  0  0  0  0  0  0  0  0  0  # atno 17395 bound_to 11000

$$$$
