AV-unprocessed.smi:2237|AV-procd|sdf|9052|dock10
  -GOLD-   2272012253D 1   1.00000     0.00000
 Structure written by MMmdl.
 54 56  0  0  0  0  0  0  0  0  2 V2000
  151.4910  131.4341  157.0004 C   0  0  0  0  0  0  0  0  0  0  0  0
  150.6715  131.8914  155.8119 C   0  0  0  0  0  0  0  0  0  0  0  0
  150.0386  130.9591  154.9665 C   0  0  0  0  0  0  0  0  0  0  0  0
  149.2919  131.4495  153.8804 C   0  0  0  0  0  0  0  0  0  0  0  0
  149.2099  132.8418  153.6854 C   0  0  0  0  0  0  0  0  0  0  0  0
  149.8771  133.7094  154.5793 C   0  0  0  0  0  0  0  0  0  0  0  0
  149.7306  135.0937  154.2974 N   0  0  0  0  0  0  0  0  0  0  0  0
  150.1891  136.1393  155.0082 C   0  0  0  0  0  0  0  0  0  0  0  0
  150.8517  136.0640  156.0434 O   0  0  0  0  0  0  0  0  0  0  0  0
  149.8358  137.3030  154.4426 N   0  0  0  0  0  0  0  0  0  0  0  0
  150.1672  138.6252  154.9659 C   0  0  2  0  0  0  0  0  0  0  0  0
  151.6884  138.8217  154.9628 C   0  0  0  0  0  0  0  0  0  0  0  0
  152.0867  140.1695  155.5889 C   0  0  0  0  0  0  0  0  0  0  0  0
  151.5545  140.3162  156.9754 N   0  3  1  0  0  0  0  0  0  0  0  0
  151.9908  141.5537  157.7018 C   0  0  0  0  0  0  0  0  0  0  0  0
  151.9122  141.4478  159.2444 C   0  0  0  0  0  0  0  0  0  0  0  0
  152.2715  142.7777  159.9297 C   0  0  0  0  0  0  0  0  0  0  0  0
  151.3663  143.8337  159.4830 N   0  0  0  0  0  0  0  0  0  0  0  0
  151.6786  145.0679  160.1900 C   0  0  0  0  0  0  0  0  0  0  0  0
  151.5287  144.0442  158.0466 C   0  0  0  0  0  0  0  0  0  0  0  0
  151.1362  142.7706  157.2785 C   0  0  0  0  0  0  0  0  0  0  0  0
  150.0724  140.1496  156.9868 C   0  0  0  0  0  0  0  0  0  0  0  0
  149.6432  138.7956  156.4001 C   0  0  0  0  0  0  0  0  0  0  0  0
  150.5948  133.2266  155.6239 N   0  0  0  0  0  0  0  0  0  0  0  0
  151.3232  130.3777  157.2118 H   0  0  0  0  0  0  0  0  0  0  0  0
  151.2246  132.0038  157.8914 H   0  0  0  0  0  0  0  0  0  0  0  0
  152.5534  131.5798  156.8039 H   0  0  0  0  0  0  0  0  0  0  0  0
  150.1216  129.8967  155.1430 H   0  0  0  0  0  0  0  0  0  0  0  0
  148.7899  130.7703  153.2074 H   0  0  0  0  0  0  0  0  0  0  0  0
  148.6394  133.2341  152.8560 H   0  0  0  0  0  0  0  0  0  0  0  0
  149.2101  135.3120  153.4609 H   0  0  0  0  0  0  0  0  0  0  0  0
  149.2937  137.2716  153.5913 H   0  0  0  0  0  0  0  0  0  0  0  0
  149.7195  139.3886  154.3260 H   0  0  0  0  0  0  0  0  0  0  0  0
  152.1677  138.0127  155.5163 H   0  0  0  0  0  0  0  0  0  0  0  0
  152.0694  138.7648  153.9423 H   0  0  0  0  0  0  0  0  0  0  0  0
  153.1752  140.2049  155.5833 H   0  0  0  0  0  0  0  0  0  0  0  0
  151.7319  140.9957  154.9706 H   0  0  0  0  0  0  0  0  0  0  0  0
  153.0335  141.7467  157.4431 H   0  0  0  0  0  0  0  0  0  0  0  0
  150.9105  141.1430  159.5516 H   0  0  0  0  0  0  0  0  0  0  0  0
  152.6036  140.6910  159.6153 H   0  0  0  0  0  0  0  0  0  0  0  0
  152.1886  142.6615  161.0113 H   0  0  0  0  0  0  0  0  0  0  0  0
  153.3067  143.0491  159.7153 H   0  0  0  0  0  0  0  0  0  0  0  0
  151.0063  145.8680  159.8781 H   0  0  0  0  0  0  0  0  0  0  0  0
  152.7036  145.3895  159.9995 H   0  0  0  0  0  0  0  0  0  0  0  0
  151.5567  144.9342  161.2655 H   0  0  0  0  0  0  0  0  0  0  0  0
  150.8924  144.8705  157.7267 H   0  0  0  0  0  0  0  0  0  0  0  0
  152.5582  144.3249  157.8172 H   0  0  0  0  0  0  0  0  0  0  0  0
  151.2393  142.9775  156.2147 H   0  0  0  0  0  0  0  0  0  0  0  0
  150.0794  142.5570  157.4472 H   0  0  0  0  0  0  0  0  0  0  0  0
  149.6780  140.2174  157.9986 H   0  0  0  0  0  0  0  0  0  0  0  0
  149.6121  140.9608  156.4200 H   0  0  0  0  0  0  0  0  0  0  0  0
  148.5549  138.7216  156.4141 H   0  0  0  0  0  0  0  0  0  0  0  0
  150.0161  137.9891  157.0335 H   0  0  0  0  0  0  0  0  0  0  0  0
  151.9389  139.5409  157.4964 H   0  0  0  0  0  0  0  0  0  0  0  0
  1  2  1  0  0  0  0
  1 25  1  0  0  0  0
  1 26  1  0  0  0  0
  1 27  1  0  0  0  0
  2 24  1  0  0  0  0
  2  3  2  0  0  0  0
  3  4  1  0  0  0  0
  3 28  1  0  0  0  0
  4  5  2  0  0  0  0
  4 29  1  0  0  0  0
  5  6  1  0  0  0  0
  5 30  1  0  0  0  0
  6  7  1  0  0  0  0
  6 24  2  0  0  0  0
  7  8  1  0  0  0  0
  7 31  1  0  0  0  0
  8  9  2  0  0  0  0
  8 10  1  0  0  0  0
 10 11  1  0  0  0  0
 10 32  1  0  0  0  0
 11 23  1  0  0  0  0
 11 12  1  0  0  0  0
 11 33  1  0  0  0  0
 12 13  1  0  0  0  0
 12 34  1  0  0  0  0
 12 35  1  0  0  0  0
 13 14  1  0  0  0  0
 13 36  1  0  0  0  0
 13 37  1  0  0  0  0
 14 15  1  0  0  0  0
 14 22  1  0  0  0  0
 14 54  1  0  0  0  0
 15 21  1  0  0  0  0
 15 16  1  0  0  0  0
 15 38  1  0  0  0  0
 16 17  1  0  0  0  0
 16 39  1  0  0  0  0
 16 40  1  0  0  0  0
 17 18  1  0  0  0  0
 17 41  1  0  0  0  0
 17 42  1  0  0  0  0
 18 19  1  0  0  0  0
 18 20  1  0  0  0  0
 19 43  1  0  0  0  0
 19 44  1  0  0  0  0
 19 45  1  0  0  0  0
 20 21  1  0  0  0  0
 20 46  1  0  0  0  0
 20 47  1  0  0  0  0
 21 48  1  0  0  0  0
 21 49  1  0  0  0  0
 22 23  1  0  0  0  0
 22 50  1  0  0  0  0
 22 51  1  0  0  0  0
 23 52  1  0  0  0  0
 23 53  1  0  0  0  0
M  CHG  1  14   1
M  END
> <s_m_source_file>
AV-unprocessed.smi

> <i_m_source_file_index>
2237

> <i_lp_mmshare_version>
43012

> <i_f3d_flags>
0

> <s_epik_input>
W0NIM11jMVtjSF1bY0hdW2NIXWMobjEpW05IXUMoPU8pW05IXVtDSF0yW0NIMl1bQ0gyXU4oW0NIMl1bQ0gyXTIpW0NIXTNbQ0gyXVtDSDJdTihbQ0gzXSlbQ0gyXVtDSDJdMw==

> <s_epik_cmdline>
J2VwaWtfcHl0aG9uJywgJy1waCcsICc3LjAnLCAnLXRuJywgJzgnLCAnLW1hJywgJzIwMCcsICctbWV0YWxfYmluZGluZycsICctaW1hZScsICc8aW5maWxlLm1hZT4nLCAnLW9tYWUnLCAnPG91dGZpbGUubWFlPic=

> <r_epik_Ionization_Penalty>
1.37251

> <r_epik_Ionization_Penalty_Charging>
0.00081195

> <r_epik_Ionization_Penalty_Neutral>
1.3717

> <r_epik_State_Penalty>
1.55149

> <r_epik_Charging_Adjusted_Penalty>
1.5523

> <i_epik_Tot_Q>
1

> <i_epik_Tot_abs_Q>
1

> <r_epik_Metal_State_Penalty>
1.55149

> <b_epik_Metal_Only>
0

> <s_lp_Force_Field>
OPLS_2005

> <r_lp_Energy>
32.6589

> <b_lp_Chiralities_Consistent>
1

> <s_lp_Variant>
AV-unprocessed.smi:2237-7

> <Gold.Version>
5.8.1

> <Gold.Id.Protein>
6NUR|6NUR_protein|mol2

> <Gold.PLP.Fitness>
48.8223

> <Gold.PLP.PLP>
-43.8021

> <Gold.PLP.part.hbond>
-2.0959

> <Gold.PLP.part.metal>
0.0000

> <Gold.PLP.part.buried>
-5.1865

> <Gold.PLP.part.nonpolar>
-36.5694

> <Gold.PLP.part.repulsive>
0.2498

> <Gold.PLP.ligand.clash>
0.0000

> <Gold.PLP.ligand.torsion>
0.3259

> <Gold.PLP.Chemscore.Hbond>
1.8800

> <Gold.PLP.Chemscore.CHOScore>
0.0000

> <Gold.PLP.Chemscore.Metal>
0.0000

> <Gold.Chemscore.Hbonds>
donor molecule, donor type, donor heavy atom, donor atom, acceptor molecule, acceptor atom, score
      L1  H     7    31       P1  7948  1.00
      L1  H    10    32       P1  7948  0.88

> <Gold.PLP.Chemscore.Internal.Correction>
0.0320

> <Gold.Rescore>
     Score         DG    S(hbond)    S(metal)    S(lipo)     H(rot)  DE(clash)    DE(int)     intcor
     17.40     -20.23       1.47        0.00     110.52       1.21       0.08       2.76       ----

> <Gold.Chemscore.Fitness>
17.3959

> <Gold.Chemscore.DG>
-20.2332

> <Gold.Chemscore.ZeroCoef>
-5.4800

> <Gold.Chemscore.Hbond>
1.4740

> <Gold.Chemscore.Metal>
0.0000

> <Gold.Chemscore.Lipo>
110.5212

> <Gold.Chemscore.Internal_Hbond>
0.0000

> <Gold.Chemscore.DEClash>
0.0808

> <Gold.Chemscore.DEInternal>
2.7565

> <Gold.Chemscore.Rot>
1.2113

> <Gold.Chemscore.Internal.Correction>
   9.000000E+99

> <Gold.Chemscore.Hbonds>
donor molecule, donor type, donor heavy atom, donor atom, acceptor molecule, acceptor atom, score
      L1  H     7    31       P1  7948  0.29
      L1  H    10    32       P1  7948  0.80

> <Gold.Chemscore.Hbond.Weighted>
-4.9231

> <Gold.Chemscore.Metal.Weighted>
-0.0000

> <Gold.Chemscore.Lipo.Weighted>
-12.9310

> <Gold.Chemscore.Internal_Hbond.Weighted>
0.0000

> <Gold.Chemscore.DEClash.Weighted>
0.0808

> <Gold.Chemscore.DEInternal.Weighted>
2.7565

> <Gold.Chemscore.Rot.Weighted>
3.1009

> <Gold.Chemscore.Internal.Correction.Weighted>
   9.000000E+99

> <Gold.Protein.RotatedTorsions>
[ 6907 6896 6895 6894 ] final -168.02 input  -60.11 | X-H torsion
[ 7974 7965 7964 7962 ] final   10.04 input  175.53 | X-H torsion
[ 8008 7997 7996 7995 ] final -110.35 input   59.86 | X-H torsion
[ 10167 10162 10161 10158 ] final  -15.94 input  -65.29 | X-H torsion
[ 10718 10713 10712 10709 ] final -118.09 input   66.30 | X-H torsion
[ 10763 10752 10751 10750 ] final   12.29 input  -60.55 | X-H torsion
[ 11005 11000 10999 10996 ] final  -60.02 input  -57.11 | X-H torsion

> <Gold.Protein.ActiveResidues>
 VAL166  LYS551  ARG553  GLY616  TRP617  ASP618  TYR619  PRO620  LYS621  CYS622 
 ASP623  PHE694  ASN695  SER759  ASP760  ASP761  ALA762  ILE779  LEU786  VAL792 
 PHE793  MET794  SER795  GLU796  ALA797  LYS798  CYS799  TRP800  GLU811  SER814 

> <Gold.Protein.RotatedAtoms>
  151.4688  133.3574  159.2820 H   0  0  0  0  0  0  0  0  0  0  0  0  # atno 6907 bound_to 6896
  150.8975  134.8386  159.7347 H   0  0  0  0  0  0  0  0  0  0  0  0  # atno 6908 bound_to 6896
  152.4860  134.4605  159.9655 H   0  0  0  0  0  0  0  0  0  0  0  0  # atno 6909 bound_to 6896
  146.2394  139.9693  142.8449 H   0  0  0  0  0  0  0  0  0  0  0  0  # atno 7974 bound_to 7965
  154.9732  140.0397  157.2244 H   0  0  0  0  0  0  0  0  0  0  0  0  # atno 8008 bound_to 7997
  154.7782  140.2814  155.6062 H   0  0  0  0  0  0  0  0  0  0  0  0  # atno 8009 bound_to 7997
  156.2932  140.2597  156.2601 H   0  0  0  0  0  0  0  0  0  0  0  0  # atno 8010 bound_to 7997
  140.7226  143.5167  150.9683 H   0  0  0  0  0  0  0  0  0  0  0  0  # atno 10167 bound_to 10162
  156.1081  130.6226  150.9246 H   0  0  0  0  0  0  0  0  0  0  0  0  # atno 10718 bound_to 10713
  153.1837  135.6832  153.8443 H   0  0  0  0  0  0  0  0  0  0  0  0  # atno 10763 bound_to 10752
  153.7766  135.3188  155.3361 H   0  0  0  0  0  0  0  0  0  0  0  0  # atno 10764 bound_to 10752
  154.8075  135.4739  154.0527 H   0  0  0  0  0  0  0  0  0  0  0  0  # atno 10765 bound_to 10752
  141.1271  133.6619  156.5160 H   0  0  0  0  0  0  0  0  0  0  0  0  # atno 11005 bound_to 11000
  145.1696  140.9714  143.4329 LP  0  0  0  0  0  0  0  0  0  0  0  0  # atno 17320 bound_to 7965
  145.0041  139.3571  143.6153 LP  0  0  0  0  0  0  0  0  0  0  0  0  # atno 17321 bound_to 7965
  139.8883  143.6985  152.3148 LP  0  0  0  0  0  0  0  0  0  0  0  0  # atno 17342 bound_to 10162
  139.7292  144.7586  151.0829 LP  0  0  0  0  0  0  0  0  0  0  0  0  # atno 17343 bound_to 10162
  157.6259  131.0925  150.8534 LP  0  0  0  0  0  0  0  0  0  0  0  0  # atno 17370 bound_to 10713
  156.8649  130.5126  149.5301 LP  0  0  0  0  0  0  0  0  0  0  0  0  # atno 17371 bound_to 10713
  140.4330  134.7084  157.4952 LP  0  0  0  0  0  0  0  0  0  0  0  0  # atno 17394 bound_to 11000
  140.0281  134.6447  155.9145 LP  0  0  0  0  0  0  0  0  0  0  0  0  # atno 17395 bound_to 11000

$$$$
