AV-unprocessed.smi:34|AV-procd|sdf|220|dock5
  -GOLD-   2262015533D 1   1.00000     0.00000
 Structure written by MMmdl.
 55 59  0  0  0  0  0  0  0  0  1 V2000
  152.3356  140.2455  159.3153 O   0  0  0  0  0  0  0  0  0  0  0  0
  152.1779  141.2004  158.5540 C   0  0  0  0  0  0  0  0  0  0  0  0
  151.9840  141.0269  157.1252 N   0  0  0  0  0  0  0  0  0  0  0  0
  152.0041  139.8755  156.4134 C   0  0  0  0  0  0  0  0  0  0  0  0
  152.5512  139.7965  155.1720 N   0  0  0  0  0  0  0  0  0  0  0  0
  152.5517  138.6359  154.5107 C   0  0  0  0  0  0  0  0  0  0  0  0
  152.0654  137.4565  154.9004 N   0  0  0  0  0  0  0  0  0  0  0  0
  151.5078  137.5252  156.1430 C   0  0  0  0  0  0  0  0  0  0  0  0
  151.4369  138.6921  156.9547 C   0  0  0  0  0  0  0  0  0  0  0  0
  150.8024  138.3936  158.1532 N   0  0  0  0  0  0  0  0  0  0  0  0
  150.5199  137.1228  158.0528 C   0  0  0  0  0  0  0  0  0  0  0  0
  150.9135  136.5182  156.8798 N   0  0  0  0  0  0  0  0  0  0  0  0
  150.7351  135.0774  156.5066 C   0  0  1  0  0  0  0  0  0  0  0  0
  149.9113  134.4388  157.4343 O   0  0  0  0  0  0  0  0  0  0  0  0
  148.9602  133.5936  156.7817 C   0  0  1  0  0  0  0  0  0  0  0  0
  147.5522  134.1663  157.0002 C   0  0  0  0  0  0  0  0  0  0  0  0
  147.1716  133.9668  158.3521 O   0  0  0  0  0  0  0  0  0  0  0  0
  145.8680  133.9354  158.6920 C   0  0  0  0  0  0  0  0  0  0  0  0
  144.9514  133.8169  157.8762 O   0  0  0  0  0  0  0  0  0  0  0  0
  145.6485  134.0665  160.1610 C   0  0  0  0  0  0  0  0  0  0  0  0
  146.7622  134.2435  161.0149 C   0  0  0  0  0  0  0  0  0  0  0  0
  146.5863  134.3697  162.4067 C   0  0  0  0  0  0  0  0  0  0  0  0
  145.2940  134.3208  162.9614 C   0  0  0  0  0  0  0  0  0  0  0  0
  144.1780  134.1448  162.1227 C   0  0  0  0  0  0  0  0  0  0  0  0
  144.3521  134.0171  160.7308 C   0  0  0  0  0  0  0  0  0  0  0  0
  149.3620  133.5847  155.3024 C   0  0  2  0  0  0  0  0  0  0  0  0
  150.1971  132.5691  155.0756 F   0  0  0  0  0  0  0  0  0  0  0  0
  150.1067  134.8933  155.1197 C   0  0  1  0  0  0  0  0  0  0  0  0
  149.2356  135.9405  154.7314 O   0  0  0  0  0  0  0  0  0  0  0  0
  152.0842  142.6084  159.0654 C   0  0  0  0  0  0  0  0  0  0  0  0
  152.3110  142.8793  160.4336 C   0  0  0  0  0  0  0  0  0  0  0  0
  152.2377  144.1987  160.9210 C   0  0  0  0  0  0  0  0  0  0  0  0
  151.9462  145.2594  160.0428 C   0  0  0  0  0  0  0  0  0  0  0  0
  151.7318  145.0002  158.6760 C   0  0  0  0  0  0  0  0  0  0  0  0
  151.8036  143.6810  158.1875 C   0  0  0  0  0  0  0  0  0  0  0  0
  151.8081  141.8697  156.5979 H   0  0  0  0  0  0  0  0  0  0  0  0
  153.0072  138.6540  153.5313 H   0  0  0  0  0  0  0  0  0  0  0  0
  150.0183  136.5832  158.8429 H   0  0  0  0  0  0  0  0  0  0  0  0
  151.7352  134.6465  156.5714 H   0  0  0  0  0  0  0  0  0  0  0  0
  149.0088  132.5859  157.1966 H   0  0  0  0  0  0  0  0  0  0  0  0
  147.5274  135.2231  156.7340 H   0  0  0  0  0  0  0  0  0  0  0  0
  146.8343  133.6549  156.3583 H   0  0  0  0  0  0  0  0  0  0  0  0
  147.7639  134.2847  160.6119 H   0  0  0  0  0  0  0  0  0  0  0  0
  147.4443  134.5043  163.0488 H   0  0  0  0  0  0  0  0  0  0  0  0
  145.1590  134.4181  164.0284 H   0  0  0  0  0  0  0  0  0  0  0  0
  143.1856  134.1078  162.5473 H   0  0  0  0  0  0  0  0  0  0  0  0
  143.4745  133.8809  160.1159 H   0  0  0  0  0  0  0  0  0  0  0  0
  148.5214  133.4581  154.6187 H   0  0  0  0  0  0  0  0  0  0  0  0
  150.8952  134.8173  154.3700 H   0  0  0  0  0  0  0  0  0  0  0  0
  149.1586  135.9317  153.7893 H   0  0  0  0  0  0  0  0  0  0  0  0
  152.5370  142.0762  161.1202 H   0  0  0  0  0  0  0  0  0  0  0  0
  152.4063  144.3964  161.9693 H   0  0  0  0  0  0  0  0  0  0  0  0
  151.8907  146.2711  160.4169 H   0  0  0  0  0  0  0  0  0  0  0  0
  151.5145  145.8145  158.0005 H   0  0  0  0  0  0  0  0  0  0  0  0
  151.6445  143.5051  157.1335 H   0  0  0  0  0  0  0  0  0  0  0  0
  1  2  2  0  0  0  0
  2  3  1  0  0  0  0
  2 30  1  0  0  0  0
  3  4  1  0  0  0  0
  3 36  1  0  0  0  0
  4  9  1  0  0  0  0
  4  5  2  0  0  0  0
  5  6  1  0  0  0  0
  6  7  2  0  0  0  0
  6 37  1  0  0  0  0
  7  8  1  0  0  0  0
  8 12  1  0  0  0  0
  8  9  2  0  0  0  0
  9 10  1  0  0  0  0
 10 11  2  0  0  0  0
 11 12  1  0  0  0  0
 11 38  1  0  0  0  0
 12 13  1  0  0  0  0
 13 28  1  0  0  0  0
 13 14  1  0  0  0  0
 13 39  1  0  0  0  0
 14 15  1  0  0  0  0
 15 16  1  0  0  0  0
 15 26  1  0  0  0  0
 15 40  1  0  0  0  0
 16 17  1  0  0  0  0
 16 41  1  0  0  0  0
 16 42  1  0  0  0  0
 17 18  1  0  0  0  0
 18 19  2  0  0  0  0
 18 20  1  0  0  0  0
 20 25  1  0  0  0  0
 20 21  2  0  0  0  0
 21 22  1  0  0  0  0
 21 43  1  0  0  0  0
 22 23  2  0  0  0  0
 22 44  1  0  0  0  0
 23 24  1  0  0  0  0
 23 45  1  0  0  0  0
 24 25  2  0  0  0  0
 24 46  1  0  0  0  0
 25 47  1  0  0  0  0
 26 27  1  0  0  0  0
 26 28  1  0  0  0  0
 26 48  1  0  0  0  0
 28 29  1  0  0  0  0
 28 49  1  0  0  0  0
 29 50  1  0  0  0  0
 30 35  1  0  0  0  0
 30 31  2  0  0  0  0
 31 32  1  0  0  0  0
 31 51  1  0  0  0  0
 32 33  2  0  0  0  0
 32 52  1  0  0  0  0
 33 34  1  0  0  0  0
 33 53  1  0  0  0  0
 34 35  2  0  0  0  0
 34 54  1  0  0  0  0
 35 55  1  0  0  0  0
M  END
> <s_m_source_file>
AV-unprocessed.smi

> <i_m_source_file_index>
34

> <i_lp_mmshare_version>
43012

> <i_f3d_flags>
0

> <s_epik_input>
W2NIXTFbY0hdW2NIXVtjSF1bY0hdYzFDKD1PKVtOSF1jKG5bY0hdbjIpYyhjMjMpbltjSF1uM1tDQEBIXTRPW0NASF0oW0NAQEhdKEYpW0NASF00W09IXSlbQ0gyXU9DKD1PKWM1W2NIXVtjSF1bY0hdW2NIXVtjSF01

> <s_epik_cmdline>
J2VwaWtfcHl0aG9uJywgJy1waCcsICc3LjAnLCAnLXRuJywgJzgnLCAnLW1hJywgJzIwMCcsICctbWV0YWxfYmluZGluZycsICctaW1hZScsICc8aW5maWxlLm1hZT4nLCAnLW9tYWUnLCAnPG91dGZpbGUubWFlPic=

> <r_lp_tautomer_probability>
1

> <r_epik_Ionization_Penalty>
0.00257489

> <r_epik_Ionization_Penalty_Charging>
0

> <r_epik_Ionization_Penalty_Neutral>
0.00257489

> <r_epik_State_Penalty>
0.00519398

> <r_epik_Charging_Adjusted_Penalty>
0.00519398

> <i_epik_Tot_Q>
0

> <i_epik_Tot_abs_Q>
0

> <r_epik_Metal_State_Penalty>
0.335891

> <b_epik_Metal_Only>
0

> <s_epik_Chemistry_Notes>
This compound has an ester and may undergo hydrolysis at high or low pH. This compound contains an acetal/aminal-like group ( X-CH(R)-Y where X, Y are N, S, or O) that may be acid/base labile, releasing an aldehyde.

> <s_lp_Force_Field>
OPLS_2005

> <r_lp_Energy>
51.6643

> <b_lp_Chiralities_Consistent>
1

> <s_lp_Variant>
AV-unprocessed.smi:34-6

> <Gold.Version>
5.8.1

> <Gold.Id.Protein>
6NUR|6NUR_protein|mol2

> <Gold.PLP.Fitness>
65.0442

> <Gold.PLP.PLP>
-55.4427

> <Gold.PLP.part.hbond>
-5.0000

> <Gold.PLP.part.metal>
0.0000

> <Gold.PLP.part.buried>
-7.0774

> <Gold.PLP.part.nonpolar>
-45.2221

> <Gold.PLP.part.repulsive>
0.2428

> <Gold.PLP.ligand.clash>
0.0000

> <Gold.PLP.ligand.torsion>
0.8226

> <Gold.PLP.Chemscore.Hbond>
3.6408

> <Gold.PLP.Chemscore.CHOScore>
0.0000

> <Gold.PLP.Chemscore.Metal>
0.0000

> <Gold.Chemscore.Hbonds>
donor molecule, donor type, donor heavy atom, donor atom, acceptor molecule, acceptor atom, score
      L1  H    29    50       P1  7948  1.00
      P1  H  6896  6908       L1    14  0.82
      P1  H  7989  7998       L1     5  0.26
      P1  H  7997  8010       L1     5  0.58
      P1  H 10752 10763       L1     7  0.73

> <Gold.PLP.Chemscore.Internal.Correction>
0.3244

> <Gold.Rescore>
     Score         DG    S(hbond)    S(metal)    S(lipo)     H(rot)  DE(clash)    DE(int)     intcor
     17.62     -21.15       2.49        0.00     122.47       2.72       0.04       3.49       ----

> <Gold.Chemscore.Fitness>
17.6185

> <Gold.Chemscore.DG>
-21.1478

> <Gold.Chemscore.ZeroCoef>
-5.4800

> <Gold.Chemscore.Hbond>
2.4867

> <Gold.Chemscore.Metal>
0.0000

> <Gold.Chemscore.Lipo>
122.4710

> <Gold.Chemscore.Internal_Hbond>
0.0000

> <Gold.Chemscore.DEClash>
0.0383

> <Gold.Chemscore.DEInternal>
3.4910

> <Gold.Chemscore.Rot>
2.7215

> <Gold.Chemscore.Internal.Correction>
   9.000000E+99

> <Gold.Chemscore.Hbonds>
donor molecule, donor type, donor heavy atom, donor atom, acceptor molecule, acceptor atom, score
      L1  H    29    50       P1  7948  0.85
      P1  H  6896  6908       L1    14  0.73
      P1  H  7989  7998       L1     5  0.02
      P1  H  7997  8010       L1     5  0.04
      P1  H 10752 10763       L1     7  0.57

> <Gold.Chemscore.Hbond.Weighted>
-8.3057

> <Gold.Chemscore.Metal.Weighted>
-0.0000

> <Gold.Chemscore.Lipo.Weighted>
-14.3291

> <Gold.Chemscore.Internal_Hbond.Weighted>
0.0000

> <Gold.Chemscore.DEClash.Weighted>
0.0383

> <Gold.Chemscore.DEInternal.Weighted>
3.4910

> <Gold.Chemscore.Rot.Weighted>
6.9670

> <Gold.Chemscore.Internal.Correction.Weighted>
   9.000000E+99

> <Gold.Protein.RotatedTorsions>
[ 6907 6896 6895 6894 ] final  137.12 input  -60.11 | X-H torsion
[ 7974 7965 7964 7962 ] final  -37.86 input  175.53 | X-H torsion
[ 8008 7997 7996 7995 ] final  104.99 input   59.86 | X-H torsion
[ 10167 10162 10161 10158 ] final  -10.72 input  -65.29 | X-H torsion
[ 10718 10713 10712 10709 ] final  160.95 input   66.30 | X-H torsion
[ 10763 10752 10751 10750 ] final   57.68 input  -60.55 | X-H torsion
[ 11005 11000 10999 10996 ] final -101.39 input  -57.11 | X-H torsion

> <Gold.Protein.ActiveResidues>
 VAL166  LYS551  ARG553  GLY616  TRP617  ASP618  TYR619  PRO620  LYS621  CYS622 
 ASP623  PHE694  ASN695  SER759  ASP760  ASP761  ALA762  ILE779  LEU786  VAL792 
 PHE793  MET794  SER795  GLU796  ALA797  LYS798  CYS799  TRP800  GLU811  SER814 

> <Gold.Protein.RotatedAtoms>
  152.2816  133.5476  159.5501 H   0  0  0  0  0  0  0  0  0  0  0  0  # atno 6907 bound_to 6896
  150.7198  134.0556  159.3822 H   0  0  0  0  0  0  0  0  0  0  0  0  # atno 6908 bound_to 6896
  151.8466  135.0572  160.0505 H   0  0  0  0  0  0  0  0  0  0  0  0  # atno 6909 bound_to 6896
  146.0538  140.6445  142.9029 H   0  0  0  0  0  0  0  0  0  0  0  0  # atno 7974 bound_to 7965
  156.1621  140.3138  155.8825 H   0  0  0  0  0  0  0  0  0  0  0  0  # atno 8008 bound_to 7997
  155.3761  140.0485  157.3061 H   0  0  0  0  0  0  0  0  0  0  0  0  # atno 8009 bound_to 7997
  154.5156  140.2180  155.9082 H   0  0  0  0  0  0  0  0  0  0  0  0  # atno 8010 bound_to 7997
  140.7121  143.5717  150.9085 H   0  0  0  0  0  0  0  0  0  0  0  0  # atno 10167 bound_to 10162
  157.1433  131.0546  151.2316 H   0  0  0  0  0  0  0  0  0  0  0  0  # atno 10718 bound_to 10713
  152.9855  135.5633  154.5430 H   0  0  0  0  0  0  0  0  0  0  0  0  # atno 10763 bound_to 10752
  154.4881  135.2791  155.1520 H   0  0  0  0  0  0  0  0  0  0  0  0  # atno 10764 bound_to 10752
  154.3000  135.6309  153.5474 H   0  0  0  0  0  0  0  0  0  0  0  0  # atno 10765 bound_to 10752
  141.1232  133.8474  157.1226 H   0  0  0  0  0  0  0  0  0  0  0  0  # atno 11005 bound_to 11000
  144.7137  140.4131  143.7061 LP  0  0  0  0  0  0  0  0  0  0  0  0  # atno 17320 bound_to 7965
  145.6679  139.1593  143.2771 LP  0  0  0  0  0  0  0  0  0  0  0  0  # atno 17321 bound_to 7965
  139.9443  143.6346  152.3046 LP  0  0  0  0  0  0  0  0  0  0  0  0  # atno 17342 bound_to 10162
  139.6841  144.7653  151.1555 LP  0  0  0  0  0  0  0  0  0  0  0  0  # atno 17343 bound_to 10162
  157.4287  130.7478  149.6972 LP  0  0  0  0  0  0  0  0  0  0  0  0  # atno 17370 bound_to 10713
  155.9784  130.4051  150.3650 LP  0  0  0  0  0  0  0  0  0  0  0  0  # atno 17371 bound_to 10713
  140.0208  134.9947  157.0587 LP  0  0  0  0  0  0  0  0  0  0  0  0  # atno 17394 bound_to 11000
  140.4443  134.1648  155.7176 LP  0  0  0  0  0  0  0  0  0  0  0  0  # atno 17395 bound_to 11000

$$$$
