AV-unprocessed.smi:2396|AV-procd|sdf|9492|dock7
  -GOLD-   2272013123D 1   1.00000     0.00000
 Structure written by MMmdl.
 32 32  0  0  0  0  0  0  0  0  1 V2000
  147.4073  145.9889  160.8080 C   0  0  0  0  0  0  0  0  0  0  0  0
  146.2561  145.2121  160.1558 C   0  0  0  0  0  0  0  0  0  0  0  0
  146.7419  144.2865  159.1392 N   0  0  0  0  0  0  0  0  0  0  0  0
  146.5678  142.9562  159.1614 C   0  0  0  0  0  0  0  0  0  0  0  0
  145.9689  142.3700  160.0642 O   0  0  0  0  0  0  0  0  0  0  0  0
  147.1670  142.1764  157.9856 C   0  0  0  0  0  0  0  0  0  0  0  0
  148.6156  142.2838  157.9393 N   0  0  0  0  0  0  0  0  0  0  0  0
  149.5415  141.2971  157.6885 C   0  0  0  0  0  0  0  0  0  0  0  0
  150.7838  141.8624  157.7588 C   0  0  0  0  0  0  0  0  0  0  0  0
  152.1060  141.1609  157.5741 C   0  0  0  0  0  0  0  0  0  0  0  0
  151.9326  139.7210  157.0669 C   0  0  0  0  0  0  0  0  0  0  0  0
  153.1859  139.1272  156.8016 O   0  0  0  0  0  0  0  0  0  0  0  0
  150.5126  143.2371  158.0557 C   0  0  0  0  0  0  0  0  0  0  0  0
  151.4620  144.3916  158.2782 C   0  0  0  0  0  0  0  0  0  0  0  0
  150.7710  145.4664  158.6573 F   0  0  0  0  0  0  0  0  0  0  0  0
  152.3715  144.1213  159.2120 F   0  0  0  0  0  0  0  0  0  0  0  0
  152.1030  144.6731  157.1433 F   0  0  0  0  0  0  0  0  0  0  0  0
  149.2107  143.4718  158.1635 N   0  0  0  0  0  0  0  0  0  0  0  0
  147.0327  146.6543  161.5862 H   0  0  0  0  0  0  0  0  0  0  0  0
  147.9384  146.6011  160.0782 H   0  0  0  0  0  0  0  0  0  0  0  0
  148.1284  145.3127  161.2679 H   0  0  0  0  0  0  0  0  0  0  0  0
  145.7257  144.6359  160.9144 H   0  0  0  0  0  0  0  0  0  0  0  0
  145.5283  145.9012  159.7247 H   0  0  0  0  0  0  0  0  0  0  0  0
  147.2492  144.6866  158.3630 H   0  0  0  0  0  0  0  0  0  0  0  0
  146.9043  141.1200  158.0577 H   0  0  0  0  0  0  0  0  0  0  0  0
  146.7438  142.5507  157.0524 H   0  0  0  0  0  0  0  0  0  0  0  0
  149.2432  140.2780  157.4906 H   0  0  0  0  0  0  0  0  0  0  0  0
  152.7064  141.7037  156.8434 H   0  0  0  0  0  0  0  0  0  0  0  0
  152.7048  141.1688  158.4844 H   0  0  0  0  0  0  0  0  0  0  0  0
  151.3782  139.1157  157.7850 H   0  0  0  0  0  0  0  0  0  0  0  0
  151.3608  139.7224  156.1387 H   0  0  0  0  0  0  0  0  0  0  0  0
  153.1834  138.2494  157.1518 H   0  0  0  0  0  0  0  0  0  0  0  0
  1  2  1  0  0  0  0
  1 19  1  0  0  0  0
  1 20  1  0  0  0  0
  1 21  1  0  0  0  0
  2  3  1  0  0  0  0
  2 22  1  0  0  0  0
  2 23  1  0  0  0  0
  3  4  1  0  0  0  0
  3 24  1  0  0  0  0
  4  5  2  0  0  0  0
  4  6  1  0  0  0  0
  6  7  1  0  0  0  0
  6 25  1  0  0  0  0
  6 26  1  0  0  0  0
  7 18  1  0  0  0  0
  7  8  1  0  0  0  0
  8  9  2  0  0  0  0
  8 27  1  0  0  0  0
  9 10  1  0  0  0  0
  9 13  1  0  0  0  0
 10 11  1  0  0  0  0
 10 28  1  0  0  0  0
 10 29  1  0  0  0  0
 11 12  1  0  0  0  0
 11 30  1  0  0  0  0
 11 31  1  0  0  0  0
 12 32  1  0  0  0  0
 13 14  1  0  0  0  0
 13 18  2  0  0  0  0
 14 15  1  0  0  0  0
 14 16  1  0  0  0  0
 14 17  1  0  0  0  0
M  END
> <s_m_source_file>
AV-unprocessed.smi

> <i_m_source_file_index>
2396

> <i_lp_mmshare_version>
43012

> <i_f3d_flags>
0

> <s_epik_input>
W0NIM11bQ0gyXVtOSF1DKD1PKVtDSDJdbjFbY0hdYyhjKG4xKUMoRikoRilGKVtDSDJdW0NIMl1bT0hd

> <s_epik_cmdline>
J2VwaWtfcHl0aG9uJywgJy1waCcsICc3LjAnLCAnLXRuJywgJzgnLCAnLW1hJywgJzIwMCcsICctbWV0YWxfYmluZGluZycsICctaW1hZScsICc8aW5maWxlLm1hZT4nLCAnLW9tYWUnLCAnPG91dGZpbGUubWFlPic=

> <r_lp_tautomer_probability>
1

> <r_epik_Ionization_Penalty>
2.37964e-07

> <r_epik_Ionization_Penalty_Charging>
0

> <r_epik_Ionization_Penalty_Neutral>
2.37964e-07

> <r_epik_State_Penalty>
-0

> <r_epik_Charging_Adjusted_Penalty>
0

> <i_epik_Tot_Q>
0

> <i_epik_Tot_abs_Q>
0

> <r_epik_Metal_State_Penalty>
-0

> <b_epik_Metal_Only>
0

> <s_lp_Force_Field>
OPLS_2005

> <r_lp_Energy>
5.98536

> <b_lp_Chiralities_Consistent>
1

> <s_lp_Variant>
AV-unprocessed.smi:2396-1

> <Gold.Version>
5.8.1

> <Gold.Id.Protein>
6NUR|6NUR_protein|mol2

> <Gold.PLP.Fitness>
45.6464

> <Gold.PLP.PLP>
-37.5251

> <Gold.PLP.part.hbond>
-3.0000

> <Gold.PLP.part.metal>
0.0000

> <Gold.PLP.part.buried>
-6.4076

> <Gold.PLP.part.nonpolar>
-28.8222

> <Gold.PLP.part.repulsive>
0.2675

> <Gold.PLP.ligand.clash>
0.0000

> <Gold.PLP.ligand.torsion>
0.4283

> <Gold.PLP.Chemscore.Hbond>
2.9760

> <Gold.PLP.Chemscore.CHOScore>
0.0000

> <Gold.PLP.Chemscore.Metal>
0.0000

> <Gold.Chemscore.Hbonds>
donor molecule, donor type, donor heavy atom, donor atom, acceptor molecule, acceptor atom, score
      L1  H     3    24       P1  8029  1.00
      P1  H  6934  6946       L1     5  1.00
      P1  H  7997  8010       L1    12  0.99

> <Gold.PLP.Chemscore.Internal.Correction>
0.0498

> <Gold.Rescore>
     Score         DG    S(hbond)    S(metal)    S(lipo)     H(rot)  DE(clash)    DE(int)     intcor
     13.60     -14.30       2.90        0.00      55.08       2.86       0.01       0.69       ----

> <Gold.Chemscore.Fitness>
13.5969

> <Gold.Chemscore.DG>
-14.2966

> <Gold.Chemscore.ZeroCoef>
-5.4800

> <Gold.Chemscore.Hbond>
2.9042

> <Gold.Chemscore.Metal>
0.0000

> <Gold.Chemscore.Lipo>
55.0800

> <Gold.Chemscore.Internal_Hbond>
0.0000

> <Gold.Chemscore.DEClash>
0.0064

> <Gold.Chemscore.DEInternal>
0.6933

> <Gold.Chemscore.Rot>
2.8625

> <Gold.Chemscore.Internal.Correction>
   9.000000E+99

> <Gold.Chemscore.Hbonds>
donor molecule, donor type, donor heavy atom, donor atom, acceptor molecule, acceptor atom, score
      L1  H     3    24       P1  8029  0.94
      P1  H  6934  6946       L1     5  0.85
      P1  H  7997  8010       L1    12  0.87

> <Gold.Chemscore.Hbond.Weighted>
-9.7001

> <Gold.Chemscore.Metal.Weighted>
-0.0000

> <Gold.Chemscore.Lipo.Weighted>
-6.4444

> <Gold.Chemscore.Internal_Hbond.Weighted>
0.0000

> <Gold.Chemscore.DEClash.Weighted>
0.0064

> <Gold.Chemscore.DEInternal.Weighted>
0.6933

> <Gold.Chemscore.Rot.Weighted>
7.3279

> <Gold.Chemscore.Internal.Correction.Weighted>
   9.000000E+99

> <Gold.Protein.RotatedTorsions>
[ 6907 6896 6895 6894 ] final -151.51 input  -60.11 | X-H torsion
[ 7974 7965 7964 7962 ] final  106.32 input  175.53 | X-H torsion
[ 8008 7997 7996 7995 ] final   62.07 input   59.86 | X-H torsion
[ 10167 10162 10161 10158 ] final  -62.75 input  -65.29 | X-H torsion
[ 10718 10713 10712 10709 ] final  -85.12 input   66.30 | X-H torsion
[ 10763 10752 10751 10750 ] final   38.44 input  -60.55 | X-H torsion
[ 11005 11000 10999 10996 ] final   19.36 input  -57.11 | X-H torsion

> <Gold.Protein.ActiveResidues>
 VAL166  LYS551  ARG553  GLY616  TRP617  ASP618  TYR619  PRO620  LYS621  CYS622 
 ASP623  PHE694  ASN695  SER759  ASP760  ASP761  ALA762  ILE779  LEU786  VAL792 
 PHE793  MET794  SER795  GLU796  ALA797  LYS798  CYS799  TRP800  GLU811  SER814 

> <Gold.Protein.RotatedAtoms>
  151.2142  133.4539  159.2598 H   0  0  0  0  0  0  0  0  0  0  0  0  # atno 6907 bound_to 6896
  151.0947  134.9937  159.8430 H   0  0  0  0  0  0  0  0  0  0  0  0  # atno 6908 bound_to 6896
  152.5438  134.2073  159.8789 H   0  0  0  0  0  0  0  0  0  0  0  0  # atno 6909 bound_to 6896
  145.3081  139.2548  143.3777 H   0  0  0  0  0  0  0  0  0  0  0  0  # atno 7974 bound_to 7965
  155.6085  140.3494  155.4615 H   0  0  0  0  0  0  0  0  0  0  0  0  # atno 8008 bound_to 7997
  156.0173  140.1246  157.0418 H   0  0  0  0  0  0  0  0  0  0  0  0  # atno 8009 bound_to 7997
  154.4302  140.1069  156.5899 H   0  0  0  0  0  0  0  0  0  0  0  0  # atno 8010 bound_to 7997
  140.5918  143.2343  151.6123 H   0  0  0  0  0  0  0  0  0  0  0  0  # atno 10167 bound_to 10162
  155.9999  130.4720  150.4513 H   0  0  0  0  0  0  0  0  0  0  0  0  # atno 10718 bound_to 10713
  153.0001  135.6249  154.2305 H   0  0  0  0  0  0  0  0  0  0  0  0  # atno 10763 bound_to 10752
  154.2047  135.2802  155.2980 H   0  0  0  0  0  0  0  0  0  0  0  0  # atno 10764 bound_to 10752
  154.5655  135.5692  153.7105 H   0  0  0  0  0  0  0  0  0  0  0  0  # atno 10765 bound_to 10752
  140.4146  134.1582  155.7669 H   0  0  0  0  0  0  0  0  0  0  0  0  # atno 11005 bound_to 11000
  146.3128  140.3611  142.8665 LP  0  0  0  0  0  0  0  0  0  0  0  0  # atno 17320 bound_to 7965
  144.9038  140.7675  143.5850 LP  0  0  0  0  0  0  0  0  0  0  0  0  # atno 17321 bound_to 7965
  139.5232  144.3139  152.0969 LP  0  0  0  0  0  0  0  0  0  0  0  0  # atno 17342 bound_to 10162
  140.2305  144.4373  150.6302 LP  0  0  0  0  0  0  0  0  0  0  0  0  # atno 17343 bound_to 10162
  157.2546  131.0554  151.2358 LP  0  0  0  0  0  0  0  0  0  0  0  0  # atno 17370 bound_to 10713
  157.3495  130.7074  149.6431 LP  0  0  0  0  0  0  0  0  0  0  0  0  # atno 17371 bound_to 10713
  141.1808  133.8418  157.1265 LP  0  0  0  0  0  0  0  0  0  0  0  0  # atno 17394 bound_to 11000
  140.0243  134.9931  157.0655 LP  0  0  0  0  0  0  0  0  0  0  0  0  # atno 17395 bound_to 11000

$$$$
