AV-unprocessed.smi:932|AV-procd|sdf|4199|dock9
  -GOLD-   22720 2103D 1   1.00000     0.00000
 Structure written by MMmdl.
 44 45  0  0  0  0  0  0  0  0  2 V2000
  146.2788  137.1484  155.0676 O   0  0  0  0  0  0  0  0  0  0  0  0
  146.9975  136.8413  154.1182 C   0  0  0  0  0  0  0  0  0  0  0  0
  146.5349  136.2535  153.0014 N   0  0  0  0  0  0  0  0  0  0  0  0
  145.1460  135.8773  152.7561 C   0  0  0  0  0  0  0  0  0  0  0  0
  144.8578  135.6714  151.2568 C   0  0  0  0  0  0  0  0  0  0  0  0
  145.2514  134.3438  150.7756 N   0  0  0  0  0  0  0  0  0  0  0  0
  144.4725  133.4380  150.1019 C   0  0  0  0  0  0  0  0  0  0  0  0
  145.2683  132.3507  149.8492 C   0  0  0  0  0  0  0  0  0  0  0  0
  146.4962  132.6360  150.3839 N   0  3  0  0  0  0  0  0  0  0  0  0
  146.4828  133.8470  150.9501 C   0  0  0  0  0  0  0  0  0  0  0  0
  148.3223  137.0746  154.1283 N   0  0  0  0  0  0  0  0  0  0  0  0
  149.1386  137.6928  155.1777 C   0  0  0  0  0  0  0  0  0  0  0  0
  149.6670  139.0375  154.6241 C   0  0  0  0  0  0  0  0  0  0  0  0
  150.3455  139.9565  155.6601 C   0  0  0  0  0  0  0  0  0  0  0  0
  151.8860  139.9782  155.6226 C   0  0  0  0  0  0  0  0  0  0  0  0
  152.5988  138.6235  155.4613 C   0  0  0  0  0  0  0  0  0  0  0  0
  152.4391  137.6221  156.6190 C   0  0  0  0  0  0  0  0  0  0  0  0
  151.0184  137.0896  156.8886 C   0  0  0  0  0  0  0  0  0  0  0  0
  150.2154  136.6773  155.6381 C   0  0  0  0  0  0  0  0  0  0  0  0
  147.1979  136.0499  152.2674 H   0  0  0  0  0  0  0  0  0  0  0  0
  144.8717  134.9910  153.3309 H   0  0  0  0  0  0  0  0  0  0  0  0
  144.5188  136.6857  153.1324 H   0  0  0  0  0  0  0  0  0  0  0  0
  143.7918  135.7901  151.0586 H   0  0  0  0  0  0  0  0  0  0  0  0
  145.3766  136.4202  150.6568 H   0  0  0  0  0  0  0  0  0  0  0  0
  143.4396  133.6330  149.8522 H   0  0  0  0  0  0  0  0  0  0  0  0
  145.0586  131.4203  149.3417 H   0  0  0  0  0  0  0  0  0  0  0  0
  147.3070  134.3322  151.4419 H   0  0  0  0  0  0  0  0  0  0  0  0
  148.8230  136.8194  153.2891 H   0  0  0  0  0  0  0  0  0  0  0  0
  148.4986  137.9311  156.0288 H   0  0  0  0  0  0  0  0  0  0  0  0
  150.3099  138.8803  153.7578 H   0  0  0  0  0  0  0  0  0  0  0  0
  148.8072  139.5856  154.2347 H   0  0  0  0  0  0  0  0  0  0  0  0
  150.0110  140.9785  155.4778 H   0  0  0  0  0  0  0  0  0  0  0  0
  149.9847  139.7376  156.6634 H   0  0  0  0  0  0  0  0  0  0  0  0
  152.1903  140.6070  154.7848 H   0  0  0  0  0  0  0  0  0  0  0  0
  152.2573  140.4825  156.5153 H   0  0  0  0  0  0  0  0  0  0  0  0
  152.3222  138.1584  154.5164 H   0  0  0  0  0  0  0  0  0  0  0  0
  153.6647  138.8298  155.3578 H   0  0  0  0  0  0  0  0  0  0  0  0
  153.0810  136.7676  156.4011 H   0  0  0  0  0  0  0  0  0  0  0  0
  152.8361  138.0591  157.5361 H   0  0  0  0  0  0  0  0  0  0  0  0
  151.1265  136.2118  157.5268 H   0  0  0  0  0  0  0  0  0  0  0  0
  150.4498  137.7896  157.4978 H   0  0  0  0  0  0  0  0  0  0  0  0
  149.7055  135.7460  155.8885 H   0  0  0  0  0  0  0  0  0  0  0  0
  150.8803  136.4135  154.8153 H   0  0  0  0  0  0  0  0  0  0  0  0
  147.3008  132.0222  150.3537 H   0  0  0  0  0  0  0  0  0  0  0  0
  1  2  2  0  0  0  0
  2  3  1  0  0  0  0
  2 11  1  0  0  0  0
  3  4  1  0  0  0  0
  3 20  1  0  0  0  0
  4  5  1  0  0  0  0
  4 21  1  0  0  0  0
  4 22  1  0  0  0  0
  5  6  1  0  0  0  0
  5 23  1  0  0  0  0
  5 24  1  0  0  0  0
  6 10  1  0  0  0  0
  6  7  1  0  0  0  0
  7  8  2  0  0  0  0
  7 25  1  0  0  0  0
  8  9  1  0  0  0  0
  8 26  1  0  0  0  0
  9 10  2  0  0  0  0
  9 44  1  0  0  0  0
 10 27  1  0  0  0  0
 11 12  1  0  0  0  0
 11 28  1  0  0  0  0
 12 19  1  0  0  0  0
 12 13  1  0  0  0  0
 12 29  1  0  0  0  0
 13 14  1  0  0  0  0
 13 30  1  0  0  0  0
 13 31  1  0  0  0  0
 14 15  1  0  0  0  0
 14 32  1  0  0  0  0
 14 33  1  0  0  0  0
 15 16  1  0  0  0  0
 15 34  1  0  0  0  0
 15 35  1  0  0  0  0
 16 17  1  0  0  0  0
 16 36  1  0  0  0  0
 16 37  1  0  0  0  0
 17 18  1  0  0  0  0
 17 38  1  0  0  0  0
 17 39  1  0  0  0  0
 18 19  1  0  0  0  0
 18 40  1  0  0  0  0
 18 41  1  0  0  0  0
 19 42  1  0  0  0  0
 19 43  1  0  0  0  0
M  CHG  1   9   1
M  END
> <s_m_source_file>
AV-unprocessed.smi

> <i_m_source_file_index>
932

> <i_lp_mmshare_version>
43012

> <i_f3d_flags>
0

> <s_epik_input>
W2NIXTFuW2NIXVtjSF1uMVtDSDJdW0NIMl1bTkhdQyg9TylbTkhdW0NIXTJbQ0gyXVtDSDJdW0NIMl1bQ0gyXVtDSDJdW0NIMl1bQ0gyXTI=

> <s_epik_cmdline>
J2VwaWtfcHl0aG9uJywgJy1waCcsICc3LjAnLCAnLXRuJywgJzgnLCAnLW1hJywgJzIwMCcsICctbWV0YWxfYmluZGluZycsICctaW1hZScsICc8aW5maWxlLm1hZT4nLCAnLW9tYWUnLCAnPG91dGZpbGUubWFlPic=

> <r_lp_tautomer_probability>
1

> <r_epik_Ionization_Penalty>
0.254654

> <r_epik_Ionization_Penalty_Charging>
0

> <r_epik_Ionization_Penalty_Neutral>
0.254654

> <r_epik_State_Penalty>
0.246077

> <r_epik_Charging_Adjusted_Penalty>
0.246077

> <i_epik_Tot_Q>
1

> <i_epik_Tot_abs_Q>
1

> <r_epik_Metal_State_Penalty>
0.536041

> <b_epik_Metal_Only>
0

> <s_lp_Force_Field>
OPLS_2005

> <r_lp_Energy>
30.2565

> <b_lp_Chiralities_Consistent>
1

> <s_lp_Variant>
AV-unprocessed.smi:932-1

> <Gold.Version>
5.8.1

> <Gold.Id.Protein>
6NUR|6NUR_protein|mol2

> <Gold.PLP.Fitness>
43.4146

> <Gold.PLP.PLP>
-29.8309

> <Gold.PLP.part.hbond>
-2.8342

> <Gold.PLP.part.metal>
0.0000

> <Gold.PLP.part.buried>
-3.6790

> <Gold.PLP.part.nonpolar>
-23.7131

> <Gold.PLP.part.repulsive>
0.1334

> <Gold.PLP.ligand.clash>
0.0000

> <Gold.PLP.ligand.torsion>
0.3085

> <Gold.PLP.Chemscore.Hbond>
2.8393

> <Gold.PLP.Chemscore.CHOScore>
1.8830

> <Gold.PLP.Chemscore.Metal>
0.0000

> <Gold.Chemscore.Hbonds>
donor molecule, donor type, donor heavy atom, donor atom, acceptor molecule, acceptor atom, score
      L1  H     3    20       P1  7948  0.85
      L1  H     9    44       P1 10747  0.99
      L1  H    11    28       P1  7948  1.00
      L1  C     7    25       P1 10186  0.89
      L1  C    10    27       P1  7948  0.98

> <Gold.PLP.Chemscore.Internal.Correction>
0.0340

> <Gold.Rescore>
     Score         DG    S(hbond)    S(metal)    S(lipo)     H(rot)  DE(clash)    DE(int)     intcor
     18.03     -18.37       2.89        0.00      69.29       1.90       0.05       0.28       ----

> <Gold.Chemscore.Fitness>
18.0309

> <Gold.Chemscore.DG>
-18.3692

> <Gold.Chemscore.ZeroCoef>
-5.4800

> <Gold.Chemscore.Hbond>
2.8867

> <Gold.Chemscore.Metal>
0.0000

> <Gold.Chemscore.Lipo>
69.2918

> <Gold.Chemscore.Internal_Hbond>
0.0000

> <Gold.Chemscore.DEClash>
0.0536

> <Gold.Chemscore.DEInternal>
0.2846

> <Gold.Chemscore.Rot>
1.8982

> <Gold.Chemscore.Internal.Correction>
   9.000000E+99

> <Gold.Chemscore.Hbonds>
donor molecule, donor type, donor heavy atom, donor atom, acceptor molecule, acceptor atom, score
      L1  H     3    20       P1  7948  0.85
      L1  H     9    44       P1 10747  0.92
      L1  H    11    28       P1  7948  0.92

> <Gold.Chemscore.Hbond.Weighted>
-9.6415

> <Gold.Chemscore.Metal.Weighted>
-0.0000

> <Gold.Chemscore.Lipo.Weighted>
-8.1071

> <Gold.Chemscore.Internal_Hbond.Weighted>
0.0000

> <Gold.Chemscore.DEClash.Weighted>
0.0536

> <Gold.Chemscore.DEInternal.Weighted>
0.2846

> <Gold.Chemscore.Rot.Weighted>
4.8594

> <Gold.Chemscore.Internal.Correction.Weighted>
   9.000000E+99

> <Gold.Protein.RotatedTorsions>
[ 6907 6896 6895 6894 ] final   83.55 input  -60.11 | X-H torsion
[ 7974 7965 7964 7962 ] final -144.57 input  175.53 | X-H torsion
[ 8008 7997 7996 7995 ] final  -82.21 input   59.86 | X-H torsion
[ 10167 10162 10161 10158 ] final  125.88 input  -65.29 | X-H torsion
[ 10718 10713 10712 10709 ] final -101.18 input   66.30 | X-H torsion
[ 10763 10752 10751 10750 ] final -179.05 input  -60.55 | X-H torsion
[ 11005 11000 10999 10996 ] final  -51.08 input  -57.11 | X-H torsion

> <Gold.Protein.ActiveResidues>
 VAL166  LYS551  ARG553  GLY616  TRP617  ASP618  TYR619  PRO620  LYS621  CYS622 
 ASP623  PHE694  ASN695  SER759  ASP760  ASP761  ALA762  ILE779  LEU786  VAL792 
 PHE793  MET794  SER795  GLU796  ALA797  LYS798  CYS799  TRP800  GLU811  SER814 

> <Gold.Protein.RotatedAtoms>
  152.5330  134.2878  159.9031 H   0  0  0  0  0  0  0  0  0  0  0  0  # atno 6907 bound_to 6896
  151.2831  133.4194  159.2636 H   0  0  0  0  0  0  0  0  0  0  0  0  # atno 6908 bound_to 6896
  151.0266  134.9524  159.8145 H   0  0  0  0  0  0  0  0  0  0  0  0  # atno 6909 bound_to 6896
  144.8288  140.5693  143.5529 H   0  0  0  0  0  0  0  0  0  0  0  0  # atno 7974 bound_to 7965
  154.6062  140.0636  156.9434 H   0  0  0  0  0  0  0  0  0  0  0  0  # atno 8008 bound_to 7997
  155.2049  140.3318  155.4319 H   0  0  0  0  0  0  0  0  0  0  0  0  # atno 8009 bound_to 7997
  156.2349  140.1858  156.7129 H   0  0  0  0  0  0  0  0  0  0  0  0  # atno 8010 bound_to 7997
  139.5661  144.6912  151.3906 H   0  0  0  0  0  0  0  0  0  0  0  0  # atno 10167 bound_to 10162
  156.0186  130.5362  150.6926 H   0  0  0  0  0  0  0  0  0  0  0  0  # atno 10718 bound_to 10713
  154.5399  135.2805  155.1105 H   0  0  0  0  0  0  0  0  0  0  0  0  # atno 10763 bound_to 10752
  154.2591  135.6325  153.5272 H   0  0  0  0  0  0  0  0  0  0  0  0  # atno 10764 bound_to 10752
  152.9976  135.5601  154.5936 H   0  0  0  0  0  0  0  0  0  0  0  0  # atno 10765 bound_to 10752
  141.0851  133.6644  156.3825 H   0  0  0  0  0  0  0  0  0  0  0  0  # atno 11005 bound_to 11000
  145.4941  139.1487  143.3693 LP  0  0  0  0  0  0  0  0  0  0  0  0  # atno 17320 bound_to 7965
  146.2592  140.5080  142.8860 LP  0  0  0  0  0  0  0  0  0  0  0  0  # atno 17321 bound_to 7965
  140.6945  143.7783  150.7305 LP  0  0  0  0  0  0  0  0  0  0  0  0  # atno 17342 bound_to 10162
  140.1275  143.4556  152.2275 LP  0  0  0  0  0  0  0  0  0  0  0  0  # atno 17343 bound_to 10162
  157.4604  131.0882  151.0751 LP  0  0  0  0  0  0  0  0  0  0  0  0  # atno 17370 bound_to 10713
  157.1241  130.6074  149.5512 LP  0  0  0  0  0  0  0  0  0  0  0  0  # atno 17371 bound_to 10713
  140.5380  134.6148  157.5371 LP  0  0  0  0  0  0  0  0  0  0  0  0  # atno 17394 bound_to 11000
  139.9669  134.7358  156.0120 LP  0  0  0  0  0  0  0  0  0  0  0  0  # atno 17395 bound_to 11000

$$$$
