AV-unprocessed.smi:265|AV-procd|sdf|2019|dock10
  -GOLD-   2262021223D 1   1.00000     0.00000
 Structure written by MMmdl.
 52 56  0  0  0  0  0  0  0  0  1 V2000
  150.3740  141.3737  155.7856 C   0  0  0  0  0  0  0  0  0  0  0  0
  151.3129  140.2521  155.3138 C   0  0  2  0  0  0  0  0  0  0  0  0
  150.6052  139.4654  154.3591 O   0  0  0  0  0  0  0  0  0  0  0  0
  151.0929  138.1369  154.4107 C   0  0  0  0  0  0  0  0  0  0  0  0
  151.2663  137.9135  155.9050 C   0  0  0  0  0  0  0  0  0  0  0  0
  151.8137  139.2522  156.3950 C   0  0  1  0  0  0  0  0  0  0  0  0
  153.2279  139.1987  156.3113 O   0  0  0  0  0  0  0  0  0  0  0  0
  151.4314  139.5776  157.8630 C   0  0  0  0  0  0  0  0  0  0  0  0
  152.1687  138.7934  158.8429 N   0  0  0  0  0  0  0  0  0  0  0  0
  152.0850  137.4337  159.0481 C   0  0  0  0  0  0  0  0  0  0  0  0
  152.8525  136.9628  159.9933 N   0  0  0  0  0  0  0  0  0  0  0  0
  153.5055  138.0859  160.4838 C   0  0  0  0  0  0  0  0  0  0  0  0
  154.4612  138.3005  161.5105 C   0  0  0  0  0  0  0  0  0  0  0  0
  154.9485  137.2856  162.2559 N   0  0  0  0  0  0  0  0  0  0  0  0
  153.9773  136.7660  163.2127 C   0  0  0  0  0  0  0  0  0  0  0  0
  154.6562  135.8121  164.2080 C   0  0  0  0  0  0  0  0  0  0  0  0
  155.4401  134.6988  163.4916 C   0  0  1  0  0  0  0  0  0  0  0  0
  154.5455  133.8042  162.8428 O   0  0  0  0  0  0  0  0  0  0  0  0
  155.1804  132.6404  162.3092 C   0  0  0  0  0  0  0  0  0  0  0  0
  156.4254  132.9843  161.4702 C   0  0  0  0  0  0  0  0  0  0  0  0
  156.9102  132.1415  160.7189 O   0  0  0  0  0  0  0  0  0  0  0  0
  156.9741  134.2004  161.6214 N   0  0  0  0  0  0  0  0  0  0  0  0
  156.3855  135.2749  162.4142 C   0  0  1  0  0  0  0  0  0  0  0  0
  155.6459  136.2599  161.4859 C   0  0  0  0  0  0  0  0  0  0  0  0
  154.8915  139.5714  161.7267 N   0  0  0  0  0  0  0  0  0  0  0  0
  154.4114  140.5723  160.9817 C   0  0  0  0  0  0  0  0  0  0  0  0
  153.5161  140.5224  159.9922 N   0  0  0  0  0  0  0  0  0  0  0  0
  153.0867  139.2458  159.7747 C   0  0  0  0  0  0  0  0  0  0  0  0
  156.0116  134.1426  164.2375 H   0  0  0  0  0  0  0  0  0  0  0  0
  157.1979  135.8073  162.9103 H   0  0  0  0  0  0  0  0  0  0  0  0
  150.8642  142.0268  156.5077 H   0  0  0  0  0  0  0  0  0  0  0  0
  149.4694  140.9739  156.2440 H   0  0  0  0  0  0  0  0  0  0  0  0
  150.0651  141.9942  154.9443 H   0  0  0  0  0  0  0  0  0  0  0  0
  152.1594  140.7088  154.7973 H   0  0  0  0  0  0  0  0  0  0  0  0
  150.3955  137.4336  153.9554 H   0  0  0  0  0  0  0  0  0  0  0  0
  152.0478  138.0704  153.8870 H   0  0  0  0  0  0  0  0  0  0  0  0
  150.2854  137.7268  156.3438 H   0  0  0  0  0  0  0  0  0  0  0  0
  151.9039  137.0603  156.1415 H   0  0  0  0  0  0  0  0  0  0  0  0
  153.4643  138.6752  155.5610 H   0  0  0  0  0  0  0  0  0  0  0  0
  151.6030  140.6339  158.0743 H   0  0  0  0  0  0  0  0  0  0  0  0
  150.3692  139.3982  158.0307 H   0  0  0  0  0  0  0  0  0  0  0  0
  151.4337  136.7959  158.4687 H   0  0  0  0  0  0  0  0  0  0  0  0
  153.5076  137.5896  163.7523 H   0  0  0  0  0  0  0  0  0  0  0  0
  153.1845  136.2417  162.6767 H   0  0  0  0  0  0  0  0  0  0  0  0
  155.3420  136.3835  164.8347 H   0  0  0  0  0  0  0  0  0  0  0  0
  153.9142  135.3788  164.8792 H   0  0  0  0  0  0  0  0  0  0  0  0
  155.4775  131.9821  163.1264 H   0  0  0  0  0  0  0  0  0  0  0  0
  154.4632  132.0925  161.6976 H   0  0  0  0  0  0  0  0  0  0  0  0
  157.8111  134.4153  161.0994 H   0  0  0  0  0  0  0  0  0  0  0  0
  154.9242  135.7205  160.8703 H   0  0  0  0  0  0  0  0  0  0  0  0
  156.3553  136.7322  160.8047 H   0  0  0  0  0  0  0  0  0  0  0  0
  154.8005  141.5537  161.2103 H   0  0  0  0  0  0  0  0  0  0  0  0
  1  2  1  0  0  0  0
  1 31  1  0  0  0  0
  1 32  1  0  0  0  0
  1 33  1  0  0  0  0
  2  6  1  0  0  0  0
  2  3  1  0  0  0  0
  2 34  1  0  0  0  0
  3  4  1  0  0  0  0
  4  5  1  0  0  0  0
  4 35  1  0  0  0  0
  4 36  1  0  0  0  0
  5  6  1  0  0  0  0
  5 37  1  0  0  0  0
  5 38  1  0  0  0  0
  6  7  1  0  0  0  0
  6  8  1  0  0  0  0
  7 39  1  0  0  0  0
  8  9  1  0  0  0  0
  8 40  1  0  0  0  0
  8 41  1  0  0  0  0
  9 28  1  0  0  0  0
  9 10  1  0  0  0  0
 10 11  2  0  0  0  0
 10 42  1  0  0  0  0
 11 12  1  0  0  0  0
 12 28  2  0  0  0  0
 12 13  1  0  0  0  0
 13 14  1  0  0  0  0
 13 25  2  0  0  0  0
 14 24  1  0  0  0  0
 14 15  1  0  0  0  0
 15 16  1  0  0  0  0
 15 43  1  0  0  0  0
 15 44  1  0  0  0  0
 16 17  1  0  0  0  0
 16 45  1  0  0  0  0
 16 46  1  0  0  0  0
 17 29  1  0  0  0  0
 17 23  1  0  0  0  0
 17 18  1  0  0  0  0
 18 19  1  0  0  0  0
 19 20  1  0  0  0  0
 19 47  1  0  0  0  0
 19 48  1  0  0  0  0
 20 21  2  0  0  0  0
 20 22  1  0  0  0  0
 22 23  1  0  0  0  0
 22 49  1  0  0  0  0
 23 30  1  0  0  0  0
 23 24  1  0  0  0  0
 24 50  1  0  0  0  0
 24 51  1  0  0  0  0
 25 26  1  0  0  0  0
 26 27  2  0  0  0  0
 26 52  1  0  0  0  0
 27 28  1  0  0  0  0
M  END
> <s_m_source_file>
AV-unprocessed.smi

> <i_m_source_file_index>
265

> <i_lp_mmshare_version>
43012

> <i_f3d_flags>
0

> <s_epik_input>
W0NIMl0xW0NIMl1PW0NAQEhdKFtDSDNdKVtDQEBdMShbT0hdKVtDSDJdbihbY0hdbjIpYyhjMjMpbltjSF1uYzNOKFtDSDJdW0NIMl00KVtDSDJdW0NAQEhdKFtDQEhdNDUpW05IXUMoPU8pW0NIMl1PNQ==

> <s_epik_cmdline>
J2VwaWtfcHl0aG9uJywgJy1waCcsICc3LjAnLCAnLXRuJywgJzgnLCAnLW1hJywgJzIwMCcsICctbWV0YWxfYmluZGluZycsICctaW1hZScsICc8aW5maWxlLm1hZT4nLCAnLW9tYWUnLCAnPG91dGZpbGUubWFlPic=

> <r_lp_tautomer_probability>
1

> <r_epik_Ionization_Penalty>
0.00221504

> <r_epik_Ionization_Penalty_Charging>
0

> <r_epik_Ionization_Penalty_Neutral>
0.00221504

> <r_epik_State_Penalty>
-0

> <r_epik_Charging_Adjusted_Penalty>
0

> <i_epik_Tot_Q>
0

> <i_epik_Tot_abs_Q>
0

> <r_epik_Metal_State_Penalty>
-0

> <b_epik_Metal_Only>
0

> <s_lp_Force_Field>
OPLS_2005

> <r_lp_Energy>
45.6992

> <b_lp_Chiralities_Consistent>
1

> <s_lp_Variant>
AV-unprocessed.smi:265-5

> <Gold.Version>
5.8.1

> <Gold.Id.Protein>
6NUR|6NUR_protein|mol2

> <Gold.PLP.Fitness>
43.2156

> <Gold.PLP.PLP>
-37.9448

> <Gold.PLP.part.hbond>
-2.7348

> <Gold.PLP.part.metal>
0.0000

> <Gold.PLP.part.buried>
-4.5617

> <Gold.PLP.part.nonpolar>
-31.1007

> <Gold.PLP.part.repulsive>
0.1466

> <Gold.PLP.ligand.clash>
0.0000

> <Gold.PLP.ligand.torsion>
0.3163

> <Gold.PLP.Chemscore.Hbond>
1.9100

> <Gold.PLP.Chemscore.CHOScore>
0.0000

> <Gold.PLP.Chemscore.Metal>
0.0000

> <Gold.Chemscore.Hbonds>
donor molecule, donor type, donor heavy atom, donor atom, acceptor molecule, acceptor atom, score
      P1  H  6896  6908       L1    11  0.75
      P1  H  7997  8009       L1     7  0.89

> <Gold.PLP.Chemscore.Internal.Correction>
0.1734

> <Gold.Rescore>
     Score         DG    S(hbond)    S(metal)    S(lipo)     H(rot)  DE(clash)    DE(int)     intcor
     12.54     -12.80       1.19        0.00      77.83       2.25       0.09       0.18       ----

> <Gold.Chemscore.Fitness>
12.5351

> <Gold.Chemscore.DG>
-12.7976

> <Gold.Chemscore.ZeroCoef>
-5.4800

> <Gold.Chemscore.Hbond>
1.1854

> <Gold.Chemscore.Metal>
0.0000

> <Gold.Chemscore.Lipo>
77.8314

> <Gold.Chemscore.Internal_Hbond>
0.0000

> <Gold.Chemscore.DEClash>
0.0859

> <Gold.Chemscore.DEInternal>
0.1766

> <Gold.Chemscore.Rot>
2.2453

> <Gold.Chemscore.Internal.Correction>
   9.000000E+99

> <Gold.Chemscore.Hbonds>
donor molecule, donor type, donor heavy atom, donor atom, acceptor molecule, acceptor atom, score
      P1  H  6896  6908       L1    11  0.13
      P1  H  7997  8009       L1     7  0.54

> <Gold.Chemscore.Hbond.Weighted>
-3.9592

> <Gold.Chemscore.Metal.Weighted>
-0.0000

> <Gold.Chemscore.Lipo.Weighted>
-9.1063

> <Gold.Chemscore.Internal_Hbond.Weighted>
0.0000

> <Gold.Chemscore.DEClash.Weighted>
0.0859

> <Gold.Chemscore.DEInternal.Weighted>
0.1766

> <Gold.Chemscore.Rot.Weighted>
5.7479

> <Gold.Chemscore.Internal.Correction.Weighted>
   9.000000E+99

> <Gold.Protein.RotatedTorsions>
[ 6907 6896 6895 6894 ] final  -91.45 input  -60.11 | X-H torsion
[ 7974 7965 7964 7962 ] final   76.16 input  175.53 | X-H torsion
[ 8008 7997 7996 7995 ] final  177.17 input   59.86 | X-H torsion
[ 10167 10162 10161 10158 ] final   40.24 input  -65.29 | X-H torsion
[ 10718 10713 10712 10709 ] final   60.34 input   66.30 | X-H torsion
[ 10763 10752 10751 10750 ] final  155.77 input  -60.55 | X-H torsion
[ 11005 11000 10999 10996 ] final -104.88 input  -57.11 | X-H torsion

> <Gold.Protein.ActiveResidues>
 VAL166  LYS551  ARG553  GLY616  TRP617  ASP618  TYR619  PRO620  LYS621  CYS622 
 ASP623  PHE694  ASN695  SER759  ASP760  ASP761  ALA762  ILE779  LEU786  VAL792 
 PHE793  MET794  SER795  GLU796  ALA797  LYS798  CYS799  TRP800  GLU811  SER814 

> <Gold.Protein.RotatedAtoms>
  150.6893  134.2275  159.4420 H   0  0  0  0  0  0  0  0  0  0  0  0  # atno 6907 bound_to 6896
  152.0227  134.9811  160.0580 H   0  0  0  0  0  0  0  0  0  0  0  0  # atno 6908 bound_to 6896
  152.1381  133.4413  159.4790 H   0  0  0  0  0  0  0  0  0  0  0  0  # atno 6909 bound_to 6896
  145.7064  139.2600  143.1676 H   0  0  0  0  0  0  0  0  0  0  0  0  # atno 7974 bound_to 7965
  156.0686  140.1365  156.9856 H   0  0  0  0  0  0  0  0  0  0  0  0  # atno 8008 bound_to 7997
  154.4519  140.0976  156.6696 H   0  0  0  0  0  0  0  0  0  0  0  0  # atno 8009 bound_to 7997
  155.5264  140.3457  155.4419 H   0  0  0  0  0  0  0  0  0  0  0  0  # atno 8010 bound_to 7997
  140.3761  144.2041  150.6131 H   0  0  0  0  0  0  0  0  0  0  0  0  # atno 10167 bound_to 10162
  157.5745  130.8933  149.9324 H   0  0  0  0  0  0  0  0  0  0  0  0  # atno 10718 bound_to 10713
  154.1737  135.2803  155.3073 H   0  0  0  0  0  0  0  0  0  0  0  0  # atno 10763 bound_to 10752
  154.6055  135.5515  153.7422 H   0  0  0  0  0  0  0  0  0  0  0  0  # atno 10764 bound_to 10752
  153.0157  135.6402  154.1877 H   0  0  0  0  0  0  0  0  0  0  0  0  # atno 10765 bound_to 10752
  141.1080  133.8761  157.1666 H   0  0  0  0  0  0  0  0  0  0  0  0  # atno 11005 bound_to 11000
  146.0752  140.7825  142.9668 LP  0  0  0  0  0  0  0  0  0  0  0  0  # atno 17320 bound_to 7965
  144.6954  140.3403  143.7200 LP  0  0  0  0  0  0  0  0  0  0  0  0  # atno 17321 bound_to 7965
  140.4985  143.2325  151.8714 LP  0  0  0  0  0  0  0  0  0  0  0  0  # atno 17342 bound_to 10162
  139.4799  144.5086  151.8963 LP  0  0  0  0  0  0  0  0  0  0  0  0  # atno 17343 bound_to 10162
  156.0790  130.3675  150.0619 LP  0  0  0  0  0  0  0  0  0  0  0  0  # atno 17370 bound_to 10713
  156.8767  130.9542  151.3604 LP  0  0  0  0  0  0  0  0  0  0  0  0  # atno 17371 bound_to 10713
  139.9959  135.0047  157.0080 LP  0  0  0  0  0  0  0  0  0  0  0  0  # atno 17394 bound_to 11000
  140.4852  134.1249  155.7223 LP  0  0  0  0  0  0  0  0  0  0  0  0  # atno 17395 bound_to 11000

$$$$
