AV-unprocessed.smi:1848|AV-procd|sdf|7519|dock2
  -GOLD-   22720 9223D 1   1.00000     0.00000
 Structure written by MMmdl.
 31 31  0  0  0  0  0  0  0  0  1 V2000
  148.9677  132.7463  153.3727 C   0  0  0  0  0  0  0  0  0  0  0  0
  149.2748  133.6029  154.1869 C   0  0  0  0  0  0  0  0  0  0  0  0
  149.6291  134.6418  155.1690 C   0  0  0  0  0  0  0  0  0  0  0  0
  150.1284  135.8615  154.5441 N   0  0  0  0  0  0  0  0  0  0  0  0
  150.9206  136.7696  155.1355 C   0  0  0  0  0  0  0  0  0  0  0  0
  151.3074  136.6701  156.3008 O   0  0  0  0  0  0  0  0  0  0  0  0
  151.3097  137.9817  154.2770 C   0  0  0  0  0  0  0  0  0  0  0  0
  150.7516  139.2506  154.7749 N   0  0  0  0  0  0  0  0  0  0  0  0
  149.5259  139.6722  154.2215 C   0  0  0  0  0  0  0  0  0  0  0  0
  148.9173  140.8161  154.6057 C   0  0  0  0  0  0  0  0  0  0  0  0
  147.6390  141.2785  154.0570 C   0  0  0  0  0  0  0  0  0  0  0  0
  146.8612  140.5655  153.4214 O   0  0  0  0  0  0  0  0  0  0  0  0
  147.3673  142.5722  154.3017 N   0  0  0  0  0  0  0  0  0  0  0  0
  146.1645  143.2606  153.8583 C   0  0  0  0  0  0  0  0  0  0  0  0
  149.5796  141.6117  155.6215 C   0  0  0  0  0  0  0  0  0  0  0  0
  150.7485  141.2110  156.1586 C   0  0  0  0  0  0  0  0  0  0  0  0
  151.4002  139.9661  155.7433 C   0  0  0  0  0  0  0  0  0  0  0  0
  152.4641  139.5896  156.2355 O   0  0  0  0  0  0  0  0  0  0  0  0
  148.6958  131.9967  152.6639 H   0  0  0  0  0  0  0  0  0  0  0  0
  148.7581  134.8441  155.7945 H   0  0  0  0  0  0  0  0  0  0  0  0
  150.4038  134.2373  155.8205 H   0  0  0  0  0  0  0  0  0  0  0  0
  149.8524  136.0263  153.5870 H   0  0  0  0  0  0  0  0  0  0  0  0
  152.3977  138.0467  154.2142 H   0  0  0  0  0  0  0  0  0  0  0  0
  150.9788  137.7936  153.2548 H   0  0  0  0  0  0  0  0  0  0  0  0
  149.1282  138.9933  153.4808 H   0  0  0  0  0  0  0  0  0  0  0  0
  148.0411  143.1113  154.8258 H   0  0  0  0  0  0  0  0  0  0  0  0
  146.1917  144.3012  154.1814 H   0  0  0  0  0  0  0  0  0  0  0  0
  145.2727  142.7954  154.2802 H   0  0  0  0  0  0  0  0  0  0  0  0
  146.0860  143.2436  152.7705 H   0  0  0  0  0  0  0  0  0  0  0  0
  149.1405  142.5382  155.9632 H   0  0  0  0  0  0  0  0  0  0  0  0
  151.2187  141.8219  156.9152 H   0  0  0  0  0  0  0  0  0  0  0  0
  1  2  3  0  0  0  0
  1 19  1  0  0  0  0
  2  3  1  0  0  0  0
  3  4  1  0  0  0  0
  3 20  1  0  0  0  0
  3 21  1  0  0  0  0
  4  5  1  0  0  0  0
  4 22  1  0  0  0  0
  5  6  2  0  0  0  0
  5  7  1  0  0  0  0
  7  8  1  0  0  0  0
  7 23  1  0  0  0  0
  7 24  1  0  0  0  0
  8 17  1  0  0  0  0
  8  9  1  0  0  0  0
  9 10  2  0  0  0  0
  9 25  1  0  0  0  0
 10 11  1  0  0  0  0
 10 15  1  0  0  0  0
 11 12  2  0  0  0  0
 11 13  1  0  0  0  0
 13 14  1  0  0  0  0
 13 26  1  0  0  0  0
 14 27  1  0  0  0  0
 14 28  1  0  0  0  0
 14 29  1  0  0  0  0
 15 16  2  0  0  0  0
 15 30  1  0  0  0  0
 16 17  1  0  0  0  0
 16 31  1  0  0  0  0
 17 18  2  0  0  0  0
M  END
> <s_m_source_file>
AV-unprocessed.smi

> <i_m_source_file_index>
1848

> <i_lp_mmshare_version>
43012

> <i_f3d_flags>
0

> <s_epik_input>
W0NIXSNDW0NIMl1bTkhdQyg9TylbQ0gyXW4xW2NIXWMoQyg9TylbTkhdW0NIM10pW2NIXVtjSF1jMT1P

> <s_epik_cmdline>
J2VwaWtfcHl0aG9uJywgJy1waCcsICc3LjAnLCAnLXRuJywgJzgnLCAnLW1hJywgJzIwMCcsICctbWV0YWxfYmluZGluZycsICctaW1hZScsICc8aW5maWxlLm1hZT4nLCAnLW9tYWUnLCAnPG91dGZpbGUubWFlPic=

> <r_lp_tautomer_probability>
1

> <r_epik_Ionization_Penalty>
5.04952e-07

> <r_epik_Ionization_Penalty_Charging>
3.86163e-08

> <r_epik_Ionization_Penalty_Neutral>
4.66336e-07

> <r_epik_State_Penalty>
-0

> <r_epik_Charging_Adjusted_Penalty>
3.86163e-08

> <i_epik_Tot_Q>
0

> <i_epik_Tot_abs_Q>
0

> <r_epik_Metal_State_Penalty>
-0

> <b_epik_Metal_Only>
0

> <s_lp_Force_Field>
OPLS_2005

> <r_lp_Energy>
14.316

> <b_lp_Chiralities_Consistent>
1

> <s_lp_Variant>
AV-unprocessed.smi:1848-1

> <Gold.Version>
5.8.1

> <Gold.Id.Protein>
6NUR|6NUR_protein|mol2

> <Gold.PLP.Fitness>
48.4250

> <Gold.PLP.PLP>
-39.6928

> <Gold.PLP.part.hbond>
-3.4781

> <Gold.PLP.part.metal>
0.0000

> <Gold.PLP.part.buried>
-1.6663

> <Gold.PLP.part.nonpolar>
-34.4188

> <Gold.PLP.part.repulsive>
0.4213

> <Gold.PLP.ligand.clash>
0.0226

> <Gold.PLP.ligand.torsion>
0.6692

> <Gold.PLP.Chemscore.Hbond>
2.8500

> <Gold.PLP.Chemscore.CHOScore>
0.5059

> <Gold.PLP.Chemscore.Metal>
0.0000

> <Gold.Chemscore.Hbonds>
donor molecule, donor type, donor heavy atom, donor atom, acceptor molecule, acceptor atom, score
      L1  H     4    22       P1  7948  0.80
      L1  H    13    26       P1  8028  1.00
      P1  H  7997  8008       L1    18  1.00
      L1  C     9    25       P1  7957  0.47

> <Gold.PLP.Chemscore.Internal.Correction>
0.0255

> <Gold.Rescore>
     Score         DG    S(hbond)    S(metal)    S(lipo)     H(rot)  DE(clash)    DE(int)     intcor
     16.55     -17.32       2.78        0.00      57.37       1.62       0.01       0.75       ----

> <Gold.Chemscore.Fitness>
16.5515

> <Gold.Chemscore.DG>
-17.3185

> <Gold.Chemscore.ZeroCoef>
-5.4800

> <Gold.Chemscore.Hbond>
2.7789

> <Gold.Chemscore.Metal>
0.0000

> <Gold.Chemscore.Lipo>
57.3740

> <Gold.Chemscore.Internal_Hbond>
0.0000

> <Gold.Chemscore.DEClash>
0.0126

> <Gold.Chemscore.DEInternal>
0.7544

> <Gold.Chemscore.Rot>
1.6233

> <Gold.Chemscore.Internal.Correction>
   9.000000E+99

> <Gold.Chemscore.Hbonds>
donor molecule, donor type, donor heavy atom, donor atom, acceptor molecule, acceptor atom, score
      L1  H     4    22       P1  7948  0.12
      L1  H    13    26       P1  8028  0.90
      P1  H  7997  8008       L1    18  0.99

> <Gold.Chemscore.Hbond.Weighted>
-9.2814

> <Gold.Chemscore.Metal.Weighted>
-0.0000

> <Gold.Chemscore.Lipo.Weighted>
-6.7128

> <Gold.Chemscore.Internal_Hbond.Weighted>
0.0000

> <Gold.Chemscore.DEClash.Weighted>
0.0126

> <Gold.Chemscore.DEInternal.Weighted>
0.7544

> <Gold.Chemscore.Rot.Weighted>
4.1557

> <Gold.Chemscore.Internal.Correction.Weighted>
   9.000000E+99

> <Gold.Protein.RotatedTorsions>
[ 6907 6896 6895 6894 ] final -152.91 input  -60.11 | X-H torsion
[ 7974 7965 7964 7962 ] final   67.37 input  175.53 | X-H torsion
[ 8008 7997 7996 7995 ] final  -44.17 input   59.86 | X-H torsion
[ 10167 10162 10161 10158 ] final   26.19 input  -65.29 | X-H torsion
[ 10718 10713 10712 10709 ] final   -8.48 input   66.30 | X-H torsion
[ 10763 10752 10751 10750 ] final  -29.52 input  -60.55 | X-H torsion
[ 11005 11000 10999 10996 ] final  -43.63 input  -57.11 | X-H torsion

> <Gold.Protein.ActiveResidues>
 VAL166  LYS551  ARG553  GLY616  TRP617  ASP618  TYR619  PRO620  LYS621  CYS622 
 ASP623  PHE694  ASN695  SER759  ASP760  ASP761  ALA762  ILE779  LEU786  VAL792 
 PHE793  MET794  SER795  GLU796  ALA797  LYS798  CYS799  TRP800  GLU811  SER814 

> <Gold.Protein.RotatedAtoms>
  151.2347  133.4431  159.2604 H   0  0  0  0  0  0  0  0  0  0  0  0  # atno 6907 bound_to 6896
  151.0761  134.9829  159.8343 H   0  0  0  0  0  0  0  0  0  0  0  0  # atno 6908 bound_to 6896
  152.5418  134.2290  159.8870 H   0  0  0  0  0  0  0  0  0  0  0  0  # atno 6909 bound_to 6896
  145.8155  139.3055  143.1074 H   0  0  0  0  0  0  0  0  0  0  0  0  # atno 7974 bound_to 7965
  154.3997  140.1429  156.3639 H   0  0  0  0  0  0  0  0  0  0  0  0  # atno 8008 bound_to 7997
  155.8155  140.3471  155.5462 H   0  0  0  0  0  0  0  0  0  0  0  0  # atno 8009 bound_to 7997
  155.8342  140.0917  157.1764 H   0  0  0  0  0  0  0  0  0  0  0  0  # atno 8010 bound_to 7997
  140.5044  144.0263  150.6346 H   0  0  0  0  0  0  0  0  0  0  0  0  # atno 10167 bound_to 10162
  156.7020  130.5096  149.5915 H   0  0  0  0  0  0  0  0  0  0  0  0  # atno 10718 bound_to 10713
  153.7660  135.6916  153.4916 H   0  0  0  0  0  0  0  0  0  0  0  0  # atno 10763 bound_to 10752
  153.1906  135.4472  155.0143 H   0  0  0  0  0  0  0  0  0  0  0  0  # atno 10764 bound_to 10752
  154.8135  135.3388  154.7172 H   0  0  0  0  0  0  0  0  0  0  0  0  # atno 10765 bound_to 10752
  141.0397  133.6785  156.2760 H   0  0  0  0  0  0  0  0  0  0  0  0  # atno 11005 bound_to 11000
  145.9732  140.8743  143.0152 LP  0  0  0  0  0  0  0  0  0  0  0  0  # atno 17320 bound_to 7965
  144.6753  140.1975  143.7390 LP  0  0  0  0  0  0  0  0  0  0  0  0  # atno 17321 bound_to 7965
  140.3568  143.2931  152.0427 LP  0  0  0  0  0  0  0  0  0  0  0  0  # atno 17342 bound_to 10162
  139.4880  144.6333  151.7026 LP  0  0  0  0  0  0  0  0  0  0  0  0  # atno 17343 bound_to 10162
  156.1722  130.6444  151.0851 LP  0  0  0  0  0  0  0  0  0  0  0  0  # atno 17370 bound_to 10713
  157.6969  131.0790  150.6940 LP  0  0  0  0  0  0  0  0  0  0  0  0  # atno 17371 bound_to 10713
  140.6257  134.5316  157.5553 LP  0  0  0  0  0  0  0  0  0  0  0  0  # atno 17394 bound_to 11000
  139.9266  134.8043  156.1050 LP  0  0  0  0  0  0  0  0  0  0  0  0  # atno 17395 bound_to 11000

$$$$
