AV-unprocessed.smi:3089|AV-procd|sdf|11773|dock7
  -GOLD-   2272017153D 1   1.00000     0.00000
 Structure written by MMmdl.
 24 24  0  0  0  0  0  0  0  0  1 V2000
  151.9107  145.5537  159.1915 C   0  0  0  0  0  0  0  0  0  0  0  0
  151.9634  144.1314  158.9298 N   0  0  0  0  0  0  0  0  0  0  0  0
  151.4340  143.4320  157.8674 C   0  0  0  0  0  0  0  0  0  0  0  0
  151.7308  142.1094  158.0514 C   0  0  0  0  0  0  0  0  0  0  0  0
  151.3728  140.9308  157.1704 C   0  0  2  0  0  0  0  0  0  0  0  0
  150.4204  139.9873  157.9259 C   0  0  0  0  0  0  0  0  0  0  0  0
  152.5007  140.1414  156.8434 O   0  0  0  0  0  0  0  0  0  0  0  0
  150.7282  141.3774  155.8392 C   0  0  0  0  0  0  0  0  0  0  0  0
  150.6157  140.2970  154.8444 N   0  0  0  0  0  0  0  0  0  0  0  0
  152.4621  142.1108  159.2758 C   0  0  0  0  0  0  0  0  0  0  0  0
  152.5979  143.3189  159.7983 N   0  0  0  0  0  0  0  0  0  0  0  0
  151.3536  146.0587  158.4021 H   0  0  0  0  0  0  0  0  0  0  0  0
  152.9216  145.9606  159.2278 H   0  0  0  0  0  0  0  0  0  0  0  0
  151.4154  145.7352  160.1458 H   0  0  0  0  0  0  0  0  0  0  0  0
  150.8925  143.9264  157.0745 H   0  0  0  0  0  0  0  0  0  0  0  0
  149.4915  140.4916  158.1949 H   0  0  0  0  0  0  0  0  0  0  0  0
  150.8731  139.6214  158.8486 H   0  0  0  0  0  0  0  0  0  0  0  0
  150.1550  139.1187  157.3218 H   0  0  0  0  0  0  0  0  0  0  0  0
  152.2053  139.3774  156.3723 H   0  0  0  0  0  0  0  0  0  0  0  0
  149.7457  141.8108  156.0297 H   0  0  0  0  0  0  0  0  0  0  0  0
  151.3277  142.1797  155.4079 H   0  0  0  0  0  0  0  0  0  0  0  0
  151.1501  139.4828  155.1446 H   0  0  0  0  0  0  0  0  0  0  0  0
  149.6459  140.0000  154.7476 H   0  0  0  0  0  0  0  0  0  0  0  0
  152.8959  141.2711  159.7989 H   0  0  0  0  0  0  0  0  0  0  0  0
  1  2  1  0  0  0  0
  1 12  1  0  0  0  0
  1 13  1  0  0  0  0
  1 14  1  0  0  0  0
  2 11  1  0  0  0  0
  2  3  1  0  0  0  0
  3  4  2  0  0  0  0
  3 15  1  0  0  0  0
  4  5  1  0  0  0  0
  4 10  1  0  0  0  0
  5  6  1  0  0  0  0
  5  7  1  0  0  0  0
  5  8  1  0  0  0  0
  6 16  1  0  0  0  0
  6 17  1  0  0  0  0
  6 18  1  0  0  0  0
  7 19  1  0  0  0  0
  8  9  1  0  0  0  0
  8 20  1  0  0  0  0
  8 21  1  0  0  0  0
  9 22  1  0  0  0  0
  9 23  1  0  0  0  0
 10 11  2  0  0  0  0
 10 24  1  0  0  0  0
M  END
> <s_m_source_file>
AV-unprocessed.smi

> <i_m_source_file_index>
3089

> <i_lp_mmshare_version>
43012

> <i_f3d_flags>
0

> <s_epik_input>
W0NIM11uMVtjSF1jKFtjSF1uMSlbQ0BAXShbQ0gzXSkoW09IXSlbQ0gyXVtOSDJd

> <s_epik_cmdline>
J2VwaWtfcHl0aG9uJywgJy1waCcsICc3LjAnLCAnLXRuJywgJzgnLCAnLW1hJywgJzIwMCcsICctbWV0YWxfYmluZGluZycsICctaW1hZScsICc8aW5maWxlLm1hZT4nLCAnLW9tYWUnLCAnPG91dGZpbGUubWFlPic=

> <r_lp_tautomer_probability>
1

> <r_epik_Ionization_Penalty>
2.22427

> <r_epik_Ionization_Penalty_Charging>
0

> <r_epik_Ionization_Penalty_Neutral>
2.22427

> <r_epik_State_Penalty>
2.36938

> <r_epik_Charging_Adjusted_Penalty>
2.36938

> <i_epik_Tot_Q>
0

> <i_epik_Tot_abs_Q>
0

> <r_epik_Metal_State_Penalty>
2.36933

> <b_epik_Metal_Only>
0

> <s_lp_Force_Field>
OPLS_2005

> <r_lp_Energy>
8.30456

> <b_lp_Chiralities_Consistent>
1

> <s_lp_Variant>
AV-unprocessed.smi:3089-4

> <Gold.Version>
5.8.1

> <Gold.Id.Protein>
6NUR|6NUR_protein|mol2

> <Gold.PLP.Fitness>
34.1960

> <Gold.PLP.PLP>
-25.8501

> <Gold.PLP.part.hbond>
-2.0000

> <Gold.PLP.part.metal>
0.0000

> <Gold.PLP.part.buried>
-2.4567

> <Gold.PLP.part.nonpolar>
-20.5281

> <Gold.PLP.part.repulsive>
0.0000

> <Gold.PLP.ligand.clash>
0.0000

> <Gold.PLP.ligand.torsion>
0.2540

> <Gold.PLP.Chemscore.Hbond>
2.0000

> <Gold.PLP.Chemscore.CHOScore>
0.9444

> <Gold.PLP.Chemscore.Metal>
0.0000

> <Gold.Chemscore.Hbonds>
donor molecule, donor type, donor heavy atom, donor atom, acceptor molecule, acceptor atom, score
      P1  H  7989  7998       L1     9  1.00
      P1  H  7997  8008       L1     7  1.00
      L1  C     3    15       P1  8028  0.93

> <Gold.PLP.Chemscore.Internal.Correction>
0.0207

> <Gold.Rescore>
     Score         DG    S(hbond)    S(metal)    S(lipo)     H(rot)  DE(clash)    DE(int)     intcor
     11.18     -11.42       1.16        0.00      57.89       1.84       0.00       0.24       ----

> <Gold.Chemscore.Fitness>
11.1760

> <Gold.Chemscore.DG>
-11.4165

> <Gold.Chemscore.ZeroCoef>
-5.4800

> <Gold.Chemscore.Hbond>
1.1586

> <Gold.Chemscore.Metal>
0.0000

> <Gold.Chemscore.Lipo>
57.8946

> <Gold.Chemscore.Internal_Hbond>
0.0000

> <Gold.Chemscore.DEClash>
0.0048

> <Gold.Chemscore.DEInternal>
0.2357

> <Gold.Chemscore.Rot>
1.8386

> <Gold.Chemscore.Internal.Correction>
   9.000000E+99

> <Gold.Chemscore.Hbonds>
donor molecule, donor type, donor heavy atom, donor atom, acceptor molecule, acceptor atom, score
      P1  H  7989  7998       L1     9  0.12
      P1  H  7997  8008       L1     7  0.34

> <Gold.Chemscore.Hbond.Weighted>
-3.8697

> <Gold.Chemscore.Metal.Weighted>
-0.0000

> <Gold.Chemscore.Lipo.Weighted>
-6.7737

> <Gold.Chemscore.Internal_Hbond.Weighted>
0.0000

> <Gold.Chemscore.DEClash.Weighted>
0.0048

> <Gold.Chemscore.DEInternal.Weighted>
0.2357

> <Gold.Chemscore.Rot.Weighted>
4.7069

> <Gold.Chemscore.Internal.Correction.Weighted>
   9.000000E+99

> <Gold.Protein.RotatedTorsions>
[ 6907 6896 6895 6894 ] final   15.25 input  -60.11 | X-H torsion
[ 7974 7965 7964 7962 ] final   64.98 input  175.53 | X-H torsion
[ 8008 7997 7996 7995 ] final  -50.38 input   59.86 | X-H torsion
[ 10167 10162 10161 10158 ] final  151.64 input  -65.29 | X-H torsion
[ 10718 10713 10712 10709 ] final  163.19 input   66.30 | X-H torsion
[ 10763 10752 10751 10750 ] final  -11.77 input  -60.55 | X-H torsion
[ 11005 11000 10999 10996 ] final  165.74 input  -57.11 | X-H torsion

> <Gold.Protein.ActiveResidues>
 VAL166  LYS551  ARG553  GLY616  TRP617  ASP618  TYR619  PRO620  LYS621  CYS622 
 ASP623  PHE694  ASN695  SER759  ASP760  ASP761  ALA762  ILE779  LEU786  VAL792 
 PHE793  MET794  SER795  GLU796  ALA797  LYS798  CYS799  TRP800  GLU811  SER814 

> <Gold.Protein.RotatedAtoms>
  151.8151  135.0669  160.0417 H   0  0  0  0  0  0  0  0  0  0  0  0  # atno 6907 bound_to 6896
  152.2992  133.5634  159.5616 H   0  0  0  0  0  0  0  0  0  0  0  0  # atno 6908 bound_to 6896
  150.7265  134.0232  159.3750 H   0  0  0  0  0  0  0  0  0  0  0  0  # atno 6909 bound_to 6896
  145.8439  139.3212  143.0915 H   0  0  0  0  0  0  0  0  0  0  0  0  # atno 7974 bound_to 7965
  154.4061  140.1274  156.4656 H   0  0  0  0  0  0  0  0  0  0  0  0  # atno 8008 bound_to 7997
  155.7230  140.3492  155.5005 H   0  0  0  0  0  0  0  0  0  0  0  0  # atno 8009 bound_to 7997
  155.9197  140.1050  157.1206 H   0  0  0  0  0  0  0  0  0  0  0  0  # atno 8010 bound_to 7997
  139.4839  144.5424  151.7542 H   0  0  0  0  0  0  0  0  0  0  0  0  # atno 10167 bound_to 10162
  157.1119  131.0470  151.2453 H   0  0  0  0  0  0  0  0  0  0  0  0  # atno 10718 bound_to 10713
  153.4886  135.7017  153.5897 H   0  0  0  0  0  0  0  0  0  0  0  0  # atno 10763 bound_to 10752
  153.4079  135.3856  155.2031 H   0  0  0  0  0  0  0  0  0  0  0  0  # atno 10764 bound_to 10752
  154.8718  135.3897  154.4344 H   0  0  0  0  0  0  0  0  0  0  0  0  # atno 10765 bound_to 10752
  140.2592  134.7915  157.3574 H   0  0  0  0  0  0  0  0  0  0  0  0  # atno 11005 bound_to 11000
  145.9434  140.8962  143.0296 LP  0  0  0  0  0  0  0  0  0  0  0  0  # atno 17320 bound_to 7965
  144.6732  140.1581  143.7424 LP  0  0  0  0  0  0  0  0  0  0  0  0  # atno 17321 bound_to 7965
  140.4965  144.1233  150.5961 LP  0  0  0  0  0  0  0  0  0  0  0  0  # atno 17342 bound_to 10162
  140.4111  143.2656  151.9831 LP  0  0  0  0  0  0  0  0  0  0  0  0  # atno 17343 bound_to 10162
  157.4552  130.7621  149.7186 LP  0  0  0  0  0  0  0  0  0  0  0  0  # atno 17370 bound_to 10713
  155.9848  130.3988  150.3291 LP  0  0  0  0  0  0  0  0  0  0  0  0  # atno 17371 bound_to 10713
  140.1481  134.4885  155.7981 LP  0  0  0  0  0  0  0  0  0  0  0  0  # atno 17394 bound_to 11000
  141.2192  133.6851  156.7330 LP  0  0  0  0  0  0  0  0  0  0  0  0  # atno 17395 bound_to 11000

$$$$
