AV-unprocessed.smi:667|AV-procd|sdf|3256|dock1
  -GOLD-   22720 0203D 1   1.00000     0.00000
 Structure written by MMmdl.
 48 49  0  0  0  0  0  0  0  0  1 V2000
  153.8614  141.1601  160.9195 C   0  0  0  0  0  0  0  0  0  0  0  0
  153.0731  142.1976  160.1726 C   0  0  0  0  0  0  0  0  0  0  0  0
  152.8385  143.3665  160.7452 N   0  0  0  0  0  0  0  0  0  0  0  0
  152.1231  144.0585  159.8361 N   0  0  0  0  0  0  0  0  0  0  0  0
  151.6865  145.4049  160.1509 C   0  0  0  0  0  0  0  0  0  0  0  0
  151.9089  143.3262  158.6843 C   0  0  0  0  0  0  0  0  0  0  0  0
  151.1479  143.8714  157.5187 C   0  0  0  0  0  0  0  0  0  0  0  0
  152.5020  142.1056  158.8689 C   0  0  0  0  0  0  0  0  0  0  0  0
  152.5478  140.9296  157.9253 C   0  0  0  0  0  0  0  0  0  0  0  0
  151.3043  140.0565  158.1080 C   0  0  0  0  0  0  0  0  0  0  0  0
  151.1761  139.3641  159.1183 O   0  0  0  0  0  0  0  0  0  0  0  0
  150.3920  140.1034  157.1250 N   0  0  0  0  0  0  0  0  0  0  0  0
  149.1256  139.3792  157.1231 C   0  0  0  0  0  0  0  0  0  0  0  0
  148.6063  139.1264  155.6862 C   0  0  1  0  0  0  0  0  0  0  0  0
  147.8641  140.3303  155.1188 C   0  0  0  0  0  0  0  0  0  0  0  0
  148.9656  141.1534  154.4442 C   0  0  0  0  0  0  0  0  0  0  0  0
  150.1111  140.3087  154.3882 O   0  0  0  0  0  0  0  0  0  0  0  0
  149.7081  138.9668  154.6246 C   0  0  1  0  0  0  0  0  0  0  0  0
  150.9129  138.0644  154.9748 C   0  0  0  0  0  0  0  0  0  0  0  0
  152.0486  138.2436  153.9544 C   0  0  0  0  0  0  0  0  0  0  0  0
  150.5101  136.5816  155.0573 C   0  0  0  0  0  0  0  0  0  0  0  0
  154.5131  140.6035  160.2469 H   0  0  0  0  0  0  0  0  0  0  0  0
  153.1993  140.4454  161.4081 H   0  0  0  0  0  0  0  0  0  0  0  0
  154.4920  141.6102  161.6871 H   0  0  0  0  0  0  0  0  0  0  0  0
  150.6034  145.4726  160.0456 H   0  0  0  0  0  0  0  0  0  0  0  0
  152.1565  146.1122  159.4671 H   0  0  0  0  0  0  0  0  0  0  0  0
  151.9575  145.6694  161.1740 H   0  0  0  0  0  0  0  0  0  0  0  0
  151.3709  143.3138  156.6092 H   0  0  0  0  0  0  0  0  0  0  0  0
  151.4034  144.9147  157.3338 H   0  0  0  0  0  0  0  0  0  0  0  0
  150.0743  143.8113  157.6971 H   0  0  0  0  0  0  0  0  0  0  0  0
  152.6175  141.2647  156.8895 H   0  0  0  0  0  0  0  0  0  0  0  0
  153.4289  140.3117  158.0987 H   0  0  0  0  0  0  0  0  0  0  0  0
  150.5802  140.6963  156.3297 H   0  0  0  0  0  0  0  0  0  0  0  0
  149.2718  138.4340  157.6467 H   0  0  0  0  0  0  0  0  0  0  0  0
  148.4004  139.9424  157.7106 H   0  0  0  0  0  0  0  0  0  0  0  0
  147.9600  138.2476  155.6908 H   0  0  0  0  0  0  0  0  0  0  0  0
  147.1470  139.9958  154.3680 H   0  0  0  0  0  0  0  0  0  0  0  0
  147.3118  140.9035  155.8632 H   0  0  0  0  0  0  0  0  0  0  0  0
  148.6691  141.4629  153.4414 H   0  0  0  0  0  0  0  0  0  0  0  0
  149.2080  142.0479  155.0184 H   0  0  0  0  0  0  0  0  0  0  0  0
  149.2511  138.5967  153.7041 H   0  0  0  0  0  0  0  0  0  0  0  0
  151.3079  138.3643  155.9455 H   0  0  0  0  0  0  0  0  0  0  0  0
  151.7253  137.9715  152.9489 H   0  0  0  0  0  0  0  0  0  0  0  0
  152.9067  137.6208  154.2082 H   0  0  0  0  0  0  0  0  0  0  0  0
  152.3957  139.2768  153.9239 H   0  0  0  0  0  0  0  0  0  0  0  0
  150.1102  136.2279  154.1067 H   0  0  0  0  0  0  0  0  0  0  0  0
  149.7503  136.4098  155.8194 H   0  0  0  0  0  0  0  0  0  0  0  0
  151.3664  135.9560  155.3098 H   0  0  0  0  0  0  0  0  0  0  0  0
  1  2  1  0  0  0  0
  1 22  1  0  0  0  0
  1 23  1  0  0  0  0
  1 24  1  0  0  0  0
  2  8  1  0  0  0  0
  2  3  2  0  0  0  0
  3  4  1  0  0  0  0
  4  5  1  0  0  0  0
  4  6  1  0  0  0  0
  5 25  1  0  0  0  0
  5 26  1  0  0  0  0
  5 27  1  0  0  0  0
  6  7  1  0  0  0  0
  6  8  2  0  0  0  0
  7 28  1  0  0  0  0
  7 29  1  0  0  0  0
  7 30  1  0  0  0  0
  8  9  1  0  0  0  0
  9 10  1  0  0  0  0
  9 31  1  0  0  0  0
  9 32  1  0  0  0  0
 10 11  2  0  0  0  0
 10 12  1  0  0  0  0
 12 13  1  0  0  0  0
 12 33  1  0  0  0  0
 13 14  1  0  0  0  0
 13 34  1  0  0  0  0
 13 35  1  0  0  0  0
 14 18  1  0  0  0  0
 14 15  1  0  0  0  0
 14 36  1  0  0  0  0
 15 16  1  0  0  0  0
 15 37  1  0  0  0  0
 15 38  1  0  0  0  0
 16 17  1  0  0  0  0
 16 39  1  0  0  0  0
 16 40  1  0  0  0  0
 17 18  1  0  0  0  0
 18 19  1  0  0  0  0
 18 41  1  0  0  0  0
 19 20  1  0  0  0  0
 19 21  1  0  0  0  0
 19 42  1  0  0  0  0
 20 43  1  0  0  0  0
 20 44  1  0  0  0  0
 20 45  1  0  0  0  0
 21 46  1  0  0  0  0
 21 47  1  0  0  0  0
 21 48  1  0  0  0  0
M  END
> <s_m_source_file>
AV-unprocessed.smi

> <i_m_source_file_index>
667

> <i_lp_mmshare_version>
43012

> <i_f3d_flags>
0

> <s_epik_input>
W0NIM11jMW5uKFtDSDNdKWMoW0NIM10pYzFbQ0gyXUMoPU8pW05IXVtDSDJdW0NAQEhdMltDSDJdW0NIMl1PW0NASF0yW0NIXShbQ0gzXSlbQ0gzXQ==

> <s_epik_cmdline>
J2VwaWtfcHl0aG9uJywgJy1waCcsICc3LjAnLCAnLXRuJywgJzgnLCAnLW1hJywgJzIwMCcsICctbWV0YWxfYmluZGluZycsICctaW1hZScsICc8aW5maWxlLm1hZT4nLCAnLW9tYWUnLCAnPG91dGZpbGUubWFlPic=

> <r_lp_tautomer_probability>
1

> <r_epik_Ionization_Penalty>
0.00315488

> <r_epik_Ionization_Penalty_Charging>
0

> <r_epik_Ionization_Penalty_Neutral>
0.00315488

> <r_epik_State_Penalty>
0.00222269

> <r_epik_Charging_Adjusted_Penalty>
0.00222269

> <i_epik_Tot_Q>
0

> <i_epik_Tot_abs_Q>
0

> <r_epik_Metal_State_Penalty>
-0

> <b_epik_Metal_Only>
0

> <s_lp_Force_Field>
OPLS_2005

> <r_lp_Energy>
16.6838

> <b_lp_Chiralities_Consistent>
1

> <s_lp_Variant>
AV-unprocessed.smi:667-2

> <Gold.Version>
5.8.1

> <Gold.Id.Protein>
6NUR|6NUR_protein|mol2

> <Gold.PLP.Fitness>
43.3883

> <Gold.PLP.PLP>
-42.4663

> <Gold.PLP.part.hbond>
-1.6040

> <Gold.PLP.part.metal>
0.0000

> <Gold.PLP.part.buried>
-4.7364

> <Gold.PLP.part.nonpolar>
-36.0077

> <Gold.PLP.part.repulsive>
0.1680

> <Gold.PLP.ligand.clash>
0.0000

> <Gold.PLP.ligand.torsion>
1.0623

> <Gold.PLP.Chemscore.Hbond>
1.0000

> <Gold.PLP.Chemscore.CHOScore>
0.0000

> <Gold.PLP.Chemscore.Metal>
0.0000

> <Gold.Chemscore.Hbonds>
donor molecule, donor type, donor heavy atom, donor atom, acceptor molecule, acceptor atom, score
      P1  H  7989  7998       L1    17  0.96

> <Gold.PLP.Chemscore.Internal.Correction>
0.0466

> <Gold.Rescore>
     Score         DG    S(hbond)    S(metal)    S(lipo)     H(rot)  DE(clash)    DE(int)     intcor
     15.31     -17.69       0.81        0.00     114.68       1.52       0.05       2.33       ----

> <Gold.Chemscore.Fitness>
15.3071

> <Gold.Chemscore.DG>
-17.6925

> <Gold.Chemscore.ZeroCoef>
-5.4800

> <Gold.Chemscore.Hbond>
0.8054

> <Gold.Chemscore.Metal>
0.0000

> <Gold.Chemscore.Lipo>
114.6756

> <Gold.Chemscore.Internal_Hbond>
0.0000

> <Gold.Chemscore.DEClash>
0.0531

> <Gold.Chemscore.DEInternal>
2.3323

> <Gold.Chemscore.Rot>
1.5213

> <Gold.Chemscore.Internal.Correction>
   9.000000E+99

> <Gold.Chemscore.Hbonds>
donor molecule, donor type, donor heavy atom, donor atom, acceptor molecule, acceptor atom, score
      P1  H  7989  7998       L1    17  0.89

> <Gold.Chemscore.Hbond.Weighted>
-2.6899

> <Gold.Chemscore.Metal.Weighted>
-0.0000

> <Gold.Chemscore.Lipo.Weighted>
-13.4170

> <Gold.Chemscore.Internal_Hbond.Weighted>
0.0000

> <Gold.Chemscore.DEClash.Weighted>
0.0531

> <Gold.Chemscore.DEInternal.Weighted>
2.3323

> <Gold.Chemscore.Rot.Weighted>
3.8945

> <Gold.Chemscore.Internal.Correction.Weighted>
   9.000000E+99

> <Gold.Protein.RotatedTorsions>
[ 6907 6896 6895 6894 ] final -121.87 input  -60.11 | X-H torsion
[ 7974 7965 7964 7962 ] final    6.01 input  175.53 | X-H torsion
[ 8008 7997 7996 7995 ] final   71.17 input   59.86 | X-H torsion
[ 10167 10162 10161 10158 ] final   20.79 input  -65.29 | X-H torsion
[ 10718 10713 10712 10709 ] final   78.14 input   66.30 | X-H torsion
[ 10763 10752 10751 10750 ] final -141.60 input  -60.55 | X-H torsion
[ 11005 11000 10999 10996 ] final   42.94 input  -57.11 | X-H torsion

> <Gold.Protein.ActiveResidues>
 VAL166  LYS551  ARG553  GLY616  TRP617  ASP618  TYR619  PRO620  LYS621  CYS622 
 ASP623  PHE694  ASN695  SER759  ASP760  ASP761  ALA762  ILE779  LEU786  VAL792 
 PHE793  MET794  SER795  GLU796  ALA797  LYS798  CYS799  TRP800  GLU811  SER814 

> <Gold.Protein.RotatedAtoms>
  150.8523  133.7768  159.3020 H   0  0  0  0  0  0  0  0  0  0  0  0  # atno 6907 bound_to 6896
  151.5436  135.1066  159.9942 H   0  0  0  0  0  0  0  0  0  0  0  0  # atno 6908 bound_to 6896
  152.4563  133.7686  159.6842 H   0  0  0  0  0  0  0  0  0  0  0  0  # atno 6909 bound_to 6896
  146.2437  140.0298  142.8391 H   0  0  0  0  0  0  0  0  0  0  0  0  # atno 7974 bound_to 7965
  155.7499  140.3489  155.5145 H   0  0  0  0  0  0  0  0  0  0  0  0  # atno 8008 bound_to 7997
  155.9014  140.1035  157.1368 H   0  0  0  0  0  0  0  0  0  0  0  0  # atno 8009 bound_to 7997
  154.4044  140.1285  156.4428 H   0  0  0  0  0  0  0  0  0  0  0  0  # atno 8010 bound_to 7997
  140.5477  143.9565  150.6558 H   0  0  0  0  0  0  0  0  0  0  0  0  # atno 10167 bound_to 10162
  157.6735  130.9854  150.1744 H   0  0  0  0  0  0  0  0  0  0  0  0  # atno 10718 bound_to 10713
  154.8539  135.3520  154.5893 H   0  0  0  0  0  0  0  0  0  0  0  0  # atno 10763 bound_to 10752
  153.6503  135.6994  153.5216 H   0  0  0  0  0  0  0  0  0  0  0  0  # atno 10764 bound_to 10752
  153.2899  135.4238  155.1115 H   0  0  0  0  0  0  0  0  0  0  0  0  # atno 10765 bound_to 10752
  140.1691  134.4244  155.8268 H   0  0  0  0  0  0  0  0  0  0  0  0  # atno 11005 bound_to 11000
  145.1165  140.9437  143.4625 LP  0  0  0  0  0  0  0  0  0  0  0  0  # atno 17320 bound_to 7965
  145.0523  139.3171  143.5922 LP  0  0  0  0  0  0  0  0  0  0  0  0  # atno 17321 bound_to 7965
  140.2983  143.3278  152.0996 LP  0  0  0  0  0  0  0  0  0  0  0  0  # atno 17342 bound_to 10162
  139.5014  144.6713  151.6236 LP  0  0  0  0  0  0  0  0  0  0  0  0  # atno 17343 bound_to 10162
  156.2490  130.3698  149.8253 LP  0  0  0  0  0  0  0  0  0  0  0  0  # atno 17370 bound_to 10713
  156.6031  130.8555  151.3436 LP  0  0  0  0  0  0  0  0  0  0  0  0  # atno 17371 bound_to 10713
  141.2216  133.6948  156.7732 LP  0  0  0  0  0  0  0  0  0  0  0  0  # atno 17394 bound_to 11000
  140.2398  134.8622  157.3562 LP  0  0  0  0  0  0  0  0  0  0  0  0  # atno 17395 bound_to 11000

$$$$
