AV-unprocessed.smi:501|AV-procd|sdf|2742|dock5
  -GOLD-   2262023203D 1   1.00000     0.00000
 Structure written by MMmdl.
 45 47  0  0  0  0  0  0  0  0  1 V2000
  149.6769  141.5876  154.9346 C   0  0  0  0  0  0  0  0  0  0  0  0
  150.3947  140.2791  155.1943 C   0  0  0  0  0  0  0  0  0  0  0  0
  150.4457  139.2934  154.1890 C   0  0  0  0  0  0  0  0  0  0  0  0
  151.1142  138.0791  154.4289 C   0  0  0  0  0  0  0  0  0  0  0  0
  151.7333  137.8497  155.6722 C   0  0  0  0  0  0  0  0  0  0  0  0
  151.6954  138.8263  156.6884 C   0  0  0  0  0  0  0  0  0  0  0  0
  152.3312  138.5199  157.8725 O   0  0  0  0  0  0  0  0  0  0  0  0
  152.1957  139.4223  158.9611 C   0  0  0  0  0  0  0  0  0  0  0  0
  153.5828  139.9711  159.3151 C   0  0  0  0  0  0  0  0  0  0  0  0
  153.5375  140.8529  160.4731 N   0  0  0  0  0  0  0  0  0  0  0  0
  154.0646  140.6733  161.7136 C   0  0  0  0  0  0  0  0  0  0  0  0
  154.8482  139.4566  162.1119 C   0  0  0  0  0  0  0  0  0  0  0  0
  153.9745  138.1952  162.2146 C   0  0  0  0  0  0  0  0  0  0  0  0
  154.5029  137.1066  161.4006 N   0  0  0  0  0  0  0  0  0  0  0  0
  153.8388  136.4980  160.4080 C   0  0  0  0  0  0  0  0  0  0  0  0
  152.6967  136.7873  160.0546 O   0  0  0  0  0  0  0  0  0  0  0  0
  153.8627  141.6707  162.5759 N   0  0  0  0  0  0  0  0  0  0  0  0
  153.1400  142.5805  161.8310 C   0  0  0  0  0  0  0  0  0  0  0  0
  152.6211  143.8478  162.1806 C   0  0  0  0  0  0  0  0  0  0  0  0
  151.9071  144.6121  161.2345 C   0  0  0  0  0  0  0  0  0  0  0  0
  151.7027  144.1214  159.9287 C   0  0  0  0  0  0  0  0  0  0  0  0
  152.2107  142.8605  159.5607 C   0  0  0  0  0  0  0  0  0  0  0  0
  152.9214  142.1006  160.5094 C   0  0  0  0  0  0  0  0  0  0  0  0
  151.0179  140.0471  156.4384 C   0  0  0  0  0  0  0  0  0  0  0  0
  148.8197  141.4352  154.2782 H   0  0  0  0  0  0  0  0  0  0  0  0
  150.3523  142.2987  154.4584 H   0  0  0  0  0  0  0  0  0  0  0  0
  149.3151  142.0268  155.8647 H   0  0  0  0  0  0  0  0  0  0  0  0
  149.9737  139.4658  153.2326 H   0  0  0  0  0  0  0  0  0  0  0  0
  151.1537  137.3231  153.6587 H   0  0  0  0  0  0  0  0  0  0  0  0
  152.2446  136.9145  155.8472 H   0  0  0  0  0  0  0  0  0  0  0  0
  151.5298  140.2404  158.6880 H   0  0  0  0  0  0  0  0  0  0  0  0
  151.7706  138.9089  159.8250 H   0  0  0  0  0  0  0  0  0  0  0  0
  154.2569  139.1443  159.5411 H   0  0  0  0  0  0  0  0  0  0  0  0
  154.0253  140.4861  158.4648 H   0  0  0  0  0  0  0  0  0  0  0  0
  155.6256  139.3005  161.3627 H   0  0  0  0  0  0  0  0  0  0  0  0
  155.3783  139.6263  163.0466 H   0  0  0  0  0  0  0  0  0  0  0  0
  153.9316  137.8504  163.2466 H   0  0  0  0  0  0  0  0  0  0  0  0
  152.9468  138.4176  161.9219 H   0  0  0  0  0  0  0  0  0  0  0  0
  155.4387  136.7903  161.6102 H   0  0  0  0  0  0  0  0  0  0  0  0
  154.4530  135.7057  159.9531 H   0  0  0  0  0  0  0  0  0  0  0  0
  152.7741  144.2325  163.1781 H   0  0  0  0  0  0  0  0  0  0  0  0
  151.5150  145.5796  161.5119 H   0  0  0  0  0  0  0  0  0  0  0  0
  151.1556  144.7133  159.2094 H   0  0  0  0  0  0  0  0  0  0  0  0
  152.0562  142.4830  158.5609 H   0  0  0  0  0  0  0  0  0  0  0  0
  150.9634  140.8211  157.1887 H   0  0  0  0  0  0  0  0  0  0  0  0
  1  2  1  0  0  0  0
  1 25  1  0  0  0  0
  1 26  1  0  0  0  0
  1 27  1  0  0  0  0
  2 24  1  0  0  0  0
  2  3  2  0  0  0  0
  3  4  1  0  0  0  0
  3 28  1  0  0  0  0
  4  5  2  0  0  0  0
  4 29  1  0  0  0  0
  5  6  1  0  0  0  0
  5 30  1  0  0  0  0
  6  7  1  0  0  0  0
  6 24  2  0  0  0  0
  7  8  1  0  0  0  0
  8  9  1  0  0  0  0
  8 31  1  0  0  0  0
  8 32  1  0  0  0  0
  9 10  1  0  0  0  0
  9 33  1  0  0  0  0
  9 34  1  0  0  0  0
 10 23  1  0  0  0  0
 10 11  1  0  0  0  0
 11 12  1  0  0  0  0
 11 17  2  0  0  0  0
 12 13  1  0  0  0  0
 12 35  1  0  0  0  0
 12 36  1  0  0  0  0
 13 14  1  0  0  0  0
 13 37  1  0  0  0  0
 13 38  1  0  0  0  0
 14 15  1  0  0  0  0
 14 39  1  0  0  0  0
 15 16  2  0  0  0  0
 15 40  1  0  0  0  0
 17 18  1  0  0  0  0
 18 23  2  0  0  0  0
 18 19  1  0  0  0  0
 19 20  2  0  0  0  0
 19 41  1  0  0  0  0
 20 21  1  0  0  0  0
 20 42  1  0  0  0  0
 21 22  2  0  0  0  0
 21 43  1  0  0  0  0
 22 23  1  0  0  0  0
 22 44  1  0  0  0  0
 24 45  1  0  0  0  0
M  END
> <s_m_source_file>
AV-unprocessed.smi

> <i_m_source_file_index>
501

> <i_lp_mmshare_version>
43012

> <i_f3d_flags>
0

> <s_epik_input>
W0NIM11jMVtjSF1bY0hdW2NIXWMoW2NIXTEpT1tDSDJdW0NIMl1uKGMobjIpW0NIMl1bQ0gyXVtOSF1bQ0hdPU8pYyhjMjMpW2NIXVtjSF1bY0hdW2NIXTM=

> <s_epik_cmdline>
J2VwaWtfcHl0aG9uJywgJy1waCcsICc3LjAnLCAnLXRuJywgJzgnLCAnLW1hJywgJzIwMCcsICctbWV0YWxfYmluZGluZycsICctaW1hZScsICc8aW5maWxlLm1hZT4nLCAnLW9tYWUnLCAnPG91dGZpbGUubWFlPic=

> <r_lp_tautomer_probability>
1

> <r_epik_Ionization_Penalty>
0.092246

> <r_epik_Ionization_Penalty_Charging>
0

> <r_epik_Ionization_Penalty_Neutral>
0.092246

> <r_epik_State_Penalty>
0.0825475

> <r_epik_Charging_Adjusted_Penalty>
0.0825475

> <i_epik_Tot_Q>
0

> <i_epik_Tot_abs_Q>
0

> <r_epik_Metal_State_Penalty>
0.0713424

> <b_epik_Metal_Only>
0

> <s_lp_Force_Field>
OPLS_2005

> <r_lp_Energy>
15.5248

> <b_lp_Chiralities_Consistent>
1

> <s_lp_Variant>
AV-unprocessed.smi:501-1

> <Gold.Version>
5.8.1

> <Gold.Id.Protein>
6NUR|6NUR_protein|mol2

> <Gold.PLP.Fitness>
52.9839

> <Gold.PLP.PLP>
-51.6068

> <Gold.PLP.part.hbond>
-2.0000

> <Gold.PLP.part.metal>
0.0000

> <Gold.PLP.part.buried>
-4.0108

> <Gold.PLP.part.nonpolar>
-45.3490

> <Gold.PLP.part.repulsive>
0.0213

> <Gold.PLP.ligand.clash>
0.0000

> <Gold.PLP.ligand.torsion>
0.9194

> <Gold.PLP.Chemscore.Hbond>
1.0000

> <Gold.PLP.Chemscore.CHOScore>
0.0000

> <Gold.PLP.Chemscore.Metal>
0.0000

> <Gold.Chemscore.Hbonds>
donor molecule, donor type, donor heavy atom, donor atom, acceptor molecule, acceptor atom, score
      P1  H  6896  6909       L1    16  0.85

> <Gold.PLP.Chemscore.Internal.Correction>
0.2160

> <Gold.Rescore>
     Score         DG    S(hbond)    S(metal)    S(lipo)     H(rot)  DE(clash)    DE(int)     intcor
     17.37     -18.56       0.99        0.00     140.63       2.61       0.31       0.89       ----

> <Gold.Chemscore.Fitness>
17.3684

> <Gold.Chemscore.DG>
-18.5642

> <Gold.Chemscore.ZeroCoef>
-5.4800

> <Gold.Chemscore.Hbond>
0.9932

> <Gold.Chemscore.Metal>
0.0000

> <Gold.Chemscore.Lipo>
140.6337

> <Gold.Chemscore.Internal_Hbond>
0.0000

> <Gold.Chemscore.DEClash>
0.3095

> <Gold.Chemscore.DEInternal>
0.8864

> <Gold.Chemscore.Rot>
2.6122

> <Gold.Chemscore.Internal.Correction>
   9.000000E+99

> <Gold.Chemscore.Hbonds>
donor molecule, donor type, donor heavy atom, donor atom, acceptor molecule, acceptor atom, score
      P1  H  6896  6909       L1    16  0.15

> <Gold.Chemscore.Hbond.Weighted>
-3.3173

> <Gold.Chemscore.Metal.Weighted>
-0.0000

> <Gold.Chemscore.Lipo.Weighted>
-16.4541

> <Gold.Chemscore.Internal_Hbond.Weighted>
0.0000

> <Gold.Chemscore.DEClash.Weighted>
0.3095

> <Gold.Chemscore.DEInternal.Weighted>
0.8864

> <Gold.Chemscore.Rot.Weighted>
6.6872

> <Gold.Chemscore.Internal.Correction.Weighted>
   9.000000E+99

> <Gold.Protein.RotatedTorsions>
[ 6907 6896 6895 6894 ] final  147.34 input  -60.11 | X-H torsion
[ 7974 7965 7964 7962 ] final -160.52 input  175.53 | X-H torsion
[ 8008 7997 7996 7995 ] final   50.14 input   59.86 | X-H torsion
[ 10167 10162 10161 10158 ] final -165.09 input  -65.29 | X-H torsion
[ 10718 10713 10712 10709 ] final  145.96 input   66.30 | X-H torsion
[ 10763 10752 10751 10750 ] final -166.28 input  -60.55 | X-H torsion
[ 11005 11000 10999 10996 ] final   28.96 input  -57.11 | X-H torsion

> <Gold.Protein.ActiveResidues>
 VAL166  LYS551  ARG553  GLY616  TRP617  ASP618  TYR619  PRO620  LYS621  CYS622 
 ASP623  PHE694  ASN695  SER759  ASP760  ASP761  ALA762  ILE779  LEU786  VAL792 
 PHE793  MET794  SER795  GLU796  ALA797  LYS798  CYS799  TRP800  GLU811  SER814 

> <Gold.Protein.RotatedAtoms>
  152.1561  133.4552  159.4837 H   0  0  0  0  0  0  0  0  0  0  0  0  # atno 6907 bound_to 6896
  150.6901  134.2129  159.4375 H   0  0  0  0  0  0  0  0  0  0  0  0  # atno 6908 bound_to 6896
  152.0029  134.9918  160.0616 H   0  0  0  0  0  0  0  0  0  0  0  0  # atno 6909 bound_to 6896
  144.7424  140.3529  143.6112 H   0  0  0  0  0  0  0  0  0  0  0  0  # atno 7974 bound_to 7965
  155.4139  140.3443  155.4266 H   0  0  0  0  0  0  0  0  0  0  0  0  # atno 8008 bound_to 7997
  156.1433  140.1548  156.8919 H   0  0  0  0  0  0  0  0  0  0  0  0  # atno 8009 bound_to 7997
  154.4989  140.0820  156.7736 H   0  0  0  0  0  0  0  0  0  0  0  0  # atno 8010 bound_to 7997
  139.6206  144.0632  152.1929 H   0  0  0  0  0  0  0  0  0  0  0  0  # atno 10167 bound_to 10162
  157.3389  131.0932  151.1099 H   0  0  0  0  0  0  0  0  0  0  0  0  # atno 10718 bound_to 10713
  154.6848  135.2960  154.9562 H   0  0  0  0  0  0  0  0  0  0  0  0  # atno 10763 bound_to 10752
  154.0545  135.6640  153.4808 H   0  0  0  0  0  0  0  0  0  0  0  0  # atno 10764 bound_to 10752
  153.0572  135.5137  154.7910 H   0  0  0  0  0  0  0  0  0  0  0  0  # atno 10765 bound_to 10752
  140.3100  134.2660  155.7736 H   0  0  0  0  0  0  0  0  0  0  0  0  # atno 11005 bound_to 11000
  145.7257  139.1722  143.2459 LP  0  0  0  0  0  0  0  0  0  0  0  0  # atno 17320 bound_to 7965
  146.1244  140.7267  142.9442 LP  0  0  0  0  0  0  0  0  0  0  0  0  # atno 17321 bound_to 7965
  140.0273  144.6107  150.7517 LP  0  0  0  0  0  0  0  0  0  0  0  0  # atno 17342 bound_to 10162
  140.7379  143.2772  151.3707 LP  0  0  0  0  0  0  0  0  0  0  0  0  # atno 17343 bound_to 10162
  157.2318  130.6529  149.5853 LP  0  0  0  0  0  0  0  0  0  0  0  0  # atno 17370 bound_to 10713
  155.9705  130.4596  150.6042 LP  0  0  0  0  0  0  0  0  0  0  0  0  # atno 17371 bound_to 10713
  141.2110  133.7702  156.9893 LP  0  0  0  0  0  0  0  0  0  0  0  0  # atno 17394 bound_to 11000
  140.1033  134.9522  157.1956 LP  0  0  0  0  0  0  0  0  0  0  0  0  # atno 17395 bound_to 11000

$$$$
