AV-unprocessed.smi:3311|AV-procd|sdf|12721|dock6
  -GOLD-   2272019 63D 1   1.00000     0.00000
 Structure written by MMmdl.
 44 45  0  0  0  0  0  0  0  0  2 V2000
  151.7661  140.5376  157.5520 C   0  0  0  0  0  0  0  0  0  0  0  0
  150.9111  141.8130  157.6634 C   0  0  2  0  0  0  0  0  0  0  0  0
  150.1727  142.0015  156.3951 N   0  3  0  0  0  0  0  0  0  0  0  0
  149.1563  140.9663  156.1043 C   0  0  0  0  0  0  0  0  0  0  0  0
  148.9045  140.8013  154.5859 C   0  0  0  0  0  0  0  0  0  0  0  0
  150.1265  140.3761  154.0119 O   0  0  0  0  0  0  0  0  0  0  0  0
  147.8165  139.7523  154.2481 C   0  0  0  0  0  0  0  0  0  0  0  0
  146.4046  140.2291  154.6320 C   0  0  0  0  0  0  0  0  0  0  0  0
  146.0731  141.5735  153.9657 C   0  0  0  0  0  0  0  0  0  0  0  0
  147.1334  142.6376  154.2899 C   0  0  0  0  0  0  0  0  0  0  0  0
  148.5471  142.1515  153.9209 C   0  0  0  0  0  0  0  0  0  0  0  0
  151.7480  143.0768  158.0015 C   0  0  1  0  0  0  0  0  0  0  0  0
  150.9715  144.3898  157.7851 C   0  0  0  0  0  0  0  0  0  0  0  0
  152.2792  143.0332  159.3583 N   0  0  0  0  0  0  0  0  0  0  0  0
  152.0397  143.9070  160.3991 C   0  0  0  0  0  0  0  0  0  0  0  0
  152.7481  143.4614  161.4781 C   0  0  0  0  0  0  0  0  0  0  0  0
  153.3963  142.2899  160.9970 C   0  0  0  0  0  0  0  0  0  0  0  0
  153.1125  142.0350  159.7302 N   0  0  0  0  0  0  0  0  0  0  0  0
  152.2542  140.2915  158.4954 H   0  0  0  0  0  0  0  0  0  0  0  0
  152.5423  140.6456  156.7938 H   0  0  0  0  0  0  0  0  0  0  0  0
  151.1522  139.6789  157.2785 H   0  0  0  0  0  0  0  0  0  0  0  0
  150.1940  141.6453  158.4692 H   0  0  0  0  0  0  0  0  0  0  0  0
  149.7147  142.9018  156.4178 H   0  0  0  0  0  0  0  0  0  0  0  0
  149.4888  140.0268  156.5456 H   0  0  0  0  0  0  0  0  0  0  0  0
  148.2249  141.2310  156.6071 H   0  0  0  0  0  0  0  0  0  0  0  0
  149.9490  140.0227  153.1529 H   0  0  0  0  0  0  0  0  0  0  0  0
  147.8296  139.5515  153.1754 H   0  0  0  0  0  0  0  0  0  0  0  0
  148.0289  138.7970  154.7286 H   0  0  0  0  0  0  0  0  0  0  0  0
  145.6695  139.4806  154.3347 H   0  0  0  0  0  0  0  0  0  0  0  0
  146.3216  140.3227  155.7150 H   0  0  0  0  0  0  0  0  0  0  0  0
  146.0129  141.4387  152.8850 H   0  0  0  0  0  0  0  0  0  0  0  0
  145.0899  141.9168  154.2886 H   0  0  0  0  0  0  0  0  0  0  0  0
  146.9083  143.5571  153.7486 H   0  0  0  0  0  0  0  0  0  0  0  0
  147.0873  142.8921  155.3489 H   0  0  0  0  0  0  0  0  0  0  0  0
  149.2814  142.9136  154.1859 H   0  0  0  0  0  0  0  0  0  0  0  0
  148.6004  142.0485  152.8357 H   0  0  0  0  0  0  0  0  0  0  0  0
  152.6097  143.0948  157.3321 H   0  0  0  0  0  0  0  0  0  0  0  0
  150.6922  144.5227  156.7399 H   0  0  0  0  0  0  0  0  0  0  0  0
  151.5770  145.2520  158.0664 H   0  0  0  0  0  0  0  0  0  0  0  0
  150.0582  144.4183  158.3803 H   0  0  0  0  0  0  0  0  0  0  0  0
  151.3929  144.7648  160.2878 H   0  0  0  0  0  0  0  0  0  0  0  0
  152.7951  143.9038  162.4621 H   0  0  0  0  0  0  0  0  0  0  0  0
  154.0593  141.6217  161.5267 H   0  0  0  0  0  0  0  0  0  0  0  0
  150.8397  142.0025  155.6367 H   0  0  0  0  0  0  0  0  0  0  0  0
  1  2  1  0  0  0  0
  1 19  1  0  0  0  0
  1 20  1  0  0  0  0
  1 21  1  0  0  0  0
  2  3  1  0  0  0  0
  2 12  1  0  0  0  0
  2 22  1  0  0  0  0
  3  4  1  0  0  0  0
  3 23  1  0  0  0  0
  3 44  1  0  0  0  0
  4  5  1  0  0  0  0
  4 24  1  0  0  0  0
  4 25  1  0  0  0  0
  5 11  1  0  0  0  0
  5  6  1  0  0  0  0
  5  7  1  0  0  0  0
  6 26  1  0  0  0  0
  7  8  1  0  0  0  0
  7 27  1  0  0  0  0
  7 28  1  0  0  0  0
  8  9  1  0  0  0  0
  8 29  1  0  0  0  0
  8 30  1  0  0  0  0
  9 10  1  0  0  0  0
  9 31  1  0  0  0  0
  9 32  1  0  0  0  0
 10 11  1  0  0  0  0
 10 33  1  0  0  0  0
 10 34  1  0  0  0  0
 11 35  1  0  0  0  0
 11 36  1  0  0  0  0
 12 13  1  0  0  0  0
 12 14  1  0  0  0  0
 12 37  1  0  0  0  0
 13 38  1  0  0  0  0
 13 39  1  0  0  0  0
 13 40  1  0  0  0  0
 14 18  1  0  0  0  0
 14 15  1  0  0  0  0
 15 16  2  0  0  0  0
 15 41  1  0  0  0  0
 16 17  1  0  0  0  0
 16 42  1  0  0  0  0
 17 18  2  0  0  0  0
 17 43  1  0  0  0  0
M  CHG  1   3   1
M  END
> <s_m_source_file>
AV-unprocessed.smi

> <i_m_source_file_index>
3311

> <i_lp_mmshare_version>
43012

> <i_f3d_flags>
0

> <s_epik_input>
bjFbY0hdW2NIXVtjSF1uMVtDQEBIXShbQ0gzXSlbQ0BIXShbQ0gzXSlbTkhdW0NIMl1DMihbT0hdKVtDSDJdW0NIMl1bQ0gyXVtDSDJdW0NIMl0y

> <s_epik_cmdline>
J2VwaWtfcHl0aG9uJywgJy1waCcsICc3LjAnLCAnLXRuJywgJzgnLCAnLW1hJywgJzIwMCcsICctbWV0YWxfYmluZGluZycsICctaW1hZScsICc8aW5maWxlLm1hZT4nLCAnLW9tYWUnLCAnPG91dGZpbGUubWFlPic=

> <r_lp_tautomer_probability>
1

> <r_epik_Ionization_Penalty>
0.0141403

> <r_epik_Ionization_Penalty_Charging>
0.0141276

> <r_epik_Ionization_Penalty_Neutral>
1.27139e-05

> <r_epik_State_Penalty>
0.0110334

> <r_epik_Charging_Adjusted_Penalty>
0.025161

> <i_epik_Tot_Q>
1

> <i_epik_Tot_abs_Q>
1

> <r_epik_Metal_State_Penalty>
0.0110573

> <b_epik_Metal_Only>
0

> <s_lp_Force_Field>
OPLS_2005

> <r_lp_Energy>
22.4961

> <b_lp_Chiralities_Consistent>
1

> <s_lp_Variant>
AV-unprocessed.smi:3311-3

> <Gold.Version>
5.8.1

> <Gold.Id.Protein>
6NUR|6NUR_protein|mol2

> <Gold.PLP.Fitness>
41.1043

> <Gold.PLP.PLP>
-32.7921

> <Gold.PLP.part.hbond>
-2.8380

> <Gold.PLP.part.metal>
0.0000

> <Gold.PLP.part.buried>
3.9974

> <Gold.PLP.part.nonpolar>
-32.8759

> <Gold.PLP.part.repulsive>
0.0757

> <Gold.PLP.ligand.clash>
0.0000

> <Gold.PLP.ligand.torsion>
0.4152

> <Gold.PLP.Chemscore.Hbond>
3.0005

> <Gold.PLP.Chemscore.CHOScore>
0.0000

> <Gold.PLP.Chemscore.Metal>
0.0000

> <Gold.Chemscore.Hbonds>
donor molecule, donor type, donor heavy atom, donor atom, acceptor molecule, acceptor atom, score
      L1  H     3    23       P1  8028  1.46
      L1  H     6    26       P1  7957  1.00
      P1  H  7989  7998       L1     6  0.37

> <Gold.PLP.Chemscore.Internal.Correction>
0.1412

> <Gold.Rescore>
     Score         DG    S(hbond)    S(metal)    S(lipo)     H(rot)  DE(clash)    DE(int)     intcor
     14.84     -18.44       1.63        0.00     111.25       2.14       2.03       1.58       ----

> <Gold.Chemscore.Fitness>
14.8389

> <Gold.Chemscore.DG>
-18.4439

> <Gold.Chemscore.ZeroCoef>
-5.4800

> <Gold.Chemscore.Hbond>
1.6263

> <Gold.Chemscore.Metal>
0.0000

> <Gold.Chemscore.Lipo>
111.2534

> <Gold.Chemscore.Internal_Hbond>
0.0000

> <Gold.Chemscore.DEClash>
2.0290

> <Gold.Chemscore.DEInternal>
1.5760

> <Gold.Chemscore.Rot>
2.1424

> <Gold.Chemscore.Internal.Correction>
   9.000000E+99

> <Gold.Chemscore.Hbonds>
donor molecule, donor type, donor heavy atom, donor atom, acceptor molecule, acceptor atom, score
      L1  H     3    23       P1  8028  0.72
      L1  H     6    26       P1  7957  0.93
      P1  H  7989  7998       L1     6  0.01

> <Gold.Chemscore.Hbond.Weighted>
-5.4319

> <Gold.Chemscore.Metal.Weighted>
-0.0000

> <Gold.Chemscore.Lipo.Weighted>
-13.0167

> <Gold.Chemscore.Internal_Hbond.Weighted>
0.0000

> <Gold.Chemscore.DEClash.Weighted>
2.0290

> <Gold.Chemscore.DEInternal.Weighted>
1.5760

> <Gold.Chemscore.Rot.Weighted>
5.4846

> <Gold.Chemscore.Internal.Correction.Weighted>
   9.000000E+99

> <Gold.Protein.RotatedTorsions>
[ 6907 6896 6895 6894 ] final  166.32 input  -60.11 | X-H torsion
[ 7974 7965 7964 7962 ] final  -28.83 input  175.53 | X-H torsion
[ 8008 7997 7996 7995 ] final -109.87 input   59.86 | X-H torsion
[ 10167 10162 10161 10158 ] final  -54.01 input  -65.29 | X-H torsion
[ 10718 10713 10712 10709 ] final   59.32 input   66.30 | X-H torsion
[ 10763 10752 10751 10750 ] final    2.51 input  -60.55 | X-H torsion
[ 11005 11000 10999 10996 ] final   87.20 input  -57.11 | X-H torsion

> <Gold.Protein.ActiveResidues>
 VAL166  LYS551  ARG553  GLY616  TRP617  ASP618  TYR619  PRO620  LYS621  CYS622 
 ASP623  PHE694  ASN695  SER759  ASP760  ASP761  ALA762  ILE779  LEU786  VAL792 
 PHE793  MET794  SER795  GLU796  ALA797  LYS798  CYS799  TRP800  GLU811  SER814 

> <Gold.Protein.RotatedAtoms>
  151.8807  133.3495  159.3765 H   0  0  0  0  0  0  0  0  0  0  0  0  # atno 6907 bound_to 6896
  150.7128  134.5021  159.5576 H   0  0  0  0  0  0  0  0  0  0  0  0  # atno 6908 bound_to 6896
  152.2572  134.8072  160.0487 H   0  0  0  0  0  0  0  0  0  0  0  0  # atno 6909 bound_to 6896
  146.1260  140.5334  142.8714 H   0  0  0  0  0  0  0  0  0  0  0  0  # atno 7974 bound_to 7965
  154.9659  140.0398  157.2212 H   0  0  0  0  0  0  0  0  0  0  0  0  # atno 8008 bound_to 7997
  154.7846  140.2825  155.6015 H   0  0  0  0  0  0  0  0  0  0  0  0  # atno 8009 bound_to 7997
  156.2941  140.2585  156.2679 H   0  0  0  0  0  0  0  0  0  0  0  0  # atno 8010 bound_to 7997
  140.6454  143.2532  151.4874 H   0  0  0  0  0  0  0  0  0  0  0  0  # atno 10167 bound_to 10162
  157.5667  130.8876  149.9198 H   0  0  0  0  0  0  0  0  0  0  0  0  # atno 10718 bound_to 10713
  153.2947  135.6951  153.7259 H   0  0  0  0  0  0  0  0  0  0  0  0  # atno 10763 bound_to 10752
  153.6196  135.3429  155.3007 H   0  0  0  0  0  0  0  0  0  0  0  0  # atno 10764 bound_to 10752
  154.8534  135.4383  154.2041 H   0  0  0  0  0  0  0  0  0  0  0  0  # atno 10765 bound_to 10752
  139.8925  134.8406  156.2826 H   0  0  0  0  0  0  0  0  0  0  0  0  # atno 11005 bound_to 11000
  144.7643  140.5494  143.6714 LP  0  0  0  0  0  0  0  0  0  0  0  0  # atno 17320 bound_to 7965
  145.5364  139.1475  143.3471 LP  0  0  0  0  0  0  0  0  0  0  0  0  # atno 17321 bound_to 7965
  139.5664  144.2031  152.1772 LP  0  0  0  0  0  0  0  0  0  0  0  0  # atno 17342 bound_to 10162
  140.1314  144.5284  150.6800 LP  0  0  0  0  0  0  0  0  0  0  0  0  # atno 17343 bound_to 10162
  156.0714  130.3684  150.0767 LP  0  0  0  0  0  0  0  0  0  0  0  0  # atno 17370 bound_to 10713
  156.8925  130.9593  151.3586 LP  0  0  0  0  0  0  0  0  0  0  0  0  # atno 17371 bound_to 10713
  141.0028  133.7141  156.0988 LP  0  0  0  0  0  0  0  0  0  0  0  0  # atno 17394 bound_to 11000
  140.7474  134.4083  157.5546 LP  0  0  0  0  0  0  0  0  0  0  0  0  # atno 17395 bound_to 11000

$$$$
