AV-unprocessed.smi:394|AV-procd|sdf|2485|dock9
  -GOLD-   2262022423D 1   1.00000     0.00000
 Structure written by MMmdl.
 30 31  0  0  0  0  0  0  0  0  1 V2000
  146.4981  141.9158  154.2722 C   0  0  0  0  0  0  0  0  0  0  0  0
  147.8275  142.3342  154.6879 N   0  0  0  0  0  0  0  0  0  0  0  0
  148.8668  141.5009  154.8575 C   0  0  0  0  0  0  0  0  0  0  0  0
  148.7810  140.2880  154.6688 O   0  0  0  0  0  0  0  0  0  0  0  0
  150.2160  142.0915  155.3063 C   0  0  0  0  0  0  0  0  0  0  0  0
  150.9727  141.2667  156.2773 N   0  0  0  0  0  0  0  0  0  0  0  0
  151.4014  139.9730  155.8836 C   0  0  0  0  0  0  0  0  0  0  0  0
  151.1726  139.5458  154.7509 O   0  0  0  0  0  0  0  0  0  0  0  0
  152.1190  139.2104  156.9028 C   0  0  0  0  0  0  0  0  0  0  0  0
  152.5235  137.8867  156.5618 C   0  0  0  0  0  0  0  0  0  0  0  0
  152.8292  136.8033  156.2930 N   0  0  0  0  0  0  0  0  0  0  0  0
  152.3793  139.7433  158.1143 C   0  0  0  0  0  0  0  0  0  0  0  0
  152.0050  141.0244  158.4563 N   0  0  0  0  0  0  0  0  0  0  0  0
  152.1653  141.5190  159.7947 C   0  0  0  0  0  0  0  0  0  0  0  0
  152.7843  142.8815  160.0398 C   0  0  0  0  0  0  0  0  0  0  0  0
  153.5589  141.6301  160.3737 C   0  0  0  0  0  0  0  0  0  0  0  0
  151.2454  141.8057  157.5585 C   0  0  0  0  0  0  0  0  0  0  0  0
  150.8319  142.9232  157.8771 O   0  0  0  0  0  0  0  0  0  0  0  0
  145.8433  142.7836  154.1940 H   0  0  0  0  0  0  0  0  0  0  0  0
  146.0645  141.2259  154.9973 H   0  0  0  0  0  0  0  0  0  0  0  0
  146.5316  141.4245  153.2990 H   0  0  0  0  0  0  0  0  0  0  0  0
  147.9687  143.3188  154.8614 H   0  0  0  0  0  0  0  0  0  0  0  0
  150.8133  142.2827  154.4135 H   0  0  0  0  0  0  0  0  0  0  0  0
  150.0284  143.0891  155.7063 H   0  0  0  0  0  0  0  0  0  0  0  0
  152.9083  139.1479  158.8448 H   0  0  0  0  0  0  0  0  0  0  0  0
  151.3854  141.2221  160.4939 H   0  0  0  0  0  0  0  0  0  0  0  0
  153.1206  143.4585  159.1803 H   0  0  0  0  0  0  0  0  0  0  0  0
  152.3919  143.4671  160.8685 H   0  0  0  0  0  0  0  0  0  0  0  0
  153.6855  141.3835  161.4259 H   0  0  0  0  0  0  0  0  0  0  0  0
  154.4030  141.3826  159.7330 H   0  0  0  0  0  0  0  0  0  0  0  0
  1  2  1  0  0  0  0
  1 19  1  0  0  0  0
  1 20  1  0  0  0  0
  1 21  1  0  0  0  0
  2  3  1  0  0  0  0
  2 22  1  0  0  0  0
  3  4  2  0  0  0  0
  3  5  1  0  0  0  0
  5  6  1  0  0  0  0
  5 23  1  0  0  0  0
  5 24  1  0  0  0  0
  6 17  1  0  0  0  0
  6  7  1  0  0  0  0
  7  8  2  0  0  0  0
  7  9  1  0  0  0  0
  9 10  1  0  0  0  0
  9 12  2  0  0  0  0
 10 11  3  0  0  0  0
 12 13  1  0  0  0  0
 12 25  1  0  0  0  0
 13 14  1  0  0  0  0
 13 17  1  0  0  0  0
 14 16  1  0  0  0  0
 14 15  1  0  0  0  0
 14 26  1  0  0  0  0
 15 16  1  0  0  0  0
 15 27  1  0  0  0  0
 15 28  1  0  0  0  0
 16 29  1  0  0  0  0
 16 30  1  0  0  0  0
 17 18  2  0  0  0  0
M  END
> <s_m_source_file>
AV-unprocessed.smi

> <i_m_source_file_index>
394

> <i_lp_mmshare_version>
43012

> <i_f3d_flags>
0

> <s_epik_input>
W0NIM11bTkhdQyg9TylbQ0gyXW4xYyg9TyljKEMjTilbY0hdbihjMT1PKVtDSF0yW0NIMl1bQ0gyXTI=

> <s_epik_cmdline>
J2VwaWtfcHl0aG9uJywgJy1waCcsICc3LjAnLCAnLXRuJywgJzgnLCAnLW1hJywgJzIwMCcsICctbWV0YWxfYmluZGluZycsICctaW1hZScsICc8aW5maWxlLm1hZT4nLCAnLW9tYWUnLCAnPG91dGZpbGUubWFlPic=

> <r_lp_tautomer_probability>
1

> <r_epik_Ionization_Penalty>
1.93483e-08

> <r_epik_Ionization_Penalty_Charging>
8.13451e-11

> <r_epik_Ionization_Penalty_Neutral>
1.9267e-08

> <r_epik_State_Penalty>
-0

> <r_epik_Charging_Adjusted_Penalty>
8.13451e-11

> <i_epik_Tot_Q>
0

> <i_epik_Tot_abs_Q>
0

> <r_epik_Metal_State_Penalty>
-0

> <b_epik_Metal_Only>
0

> <s_lp_Force_Field>
OPLS_2005

> <r_lp_Energy>
29.0516

> <b_lp_Chiralities_Consistent>
1

> <s_lp_Variant>
AV-unprocessed.smi:394-1

> <Gold.Version>
5.8.1

> <Gold.Id.Protein>
6NUR|6NUR_protein|mol2

> <Gold.PLP.Fitness>
41.0253

> <Gold.PLP.PLP>
-32.9711

> <Gold.PLP.part.hbond>
-3.0000

> <Gold.PLP.part.metal>
0.0000

> <Gold.PLP.part.buried>
-3.3293

> <Gold.PLP.part.nonpolar>
-27.4361

> <Gold.PLP.part.repulsive>
0.4505

> <Gold.PLP.ligand.clash>
0.0000

> <Gold.PLP.ligand.torsion>
0.4159

> <Gold.PLP.Chemscore.Hbond>
2.8960

> <Gold.PLP.Chemscore.CHOScore>
0.0000

> <Gold.PLP.Chemscore.Metal>
0.0000

> <Gold.Chemscore.Hbonds>
donor molecule, donor type, donor heavy atom, donor atom, acceptor molecule, acceptor atom, score
      L1  H     2    22       P1  8028  1.00
      P1  H  7989  7998       L1     8  1.00
      P1  H 10752 10764       L1    11  0.88

> <Gold.PLP.Chemscore.Internal.Correction>
0.1980

> <Gold.Rescore>
     Score         DG    S(hbond)    S(metal)    S(lipo)     H(rot)  DE(clash)    DE(int)     intcor
      9.41     -16.39       2.64        0.00      55.79       1.73       1.44       5.54       ----

> <Gold.Chemscore.Fitness>
9.4130

> <Gold.Chemscore.DG>
-16.3902

> <Gold.Chemscore.ZeroCoef>
-5.4800

> <Gold.Chemscore.Hbond>
2.6393

> <Gold.Chemscore.Metal>
0.0000

> <Gold.Chemscore.Lipo>
55.7856

> <Gold.Chemscore.Internal_Hbond>
0.0000

> <Gold.Chemscore.DEClash>
1.4403

> <Gold.Chemscore.DEInternal>
5.5369

> <Gold.Chemscore.Rot>
1.7313

> <Gold.Chemscore.Internal.Correction>
   9.000000E+99

> <Gold.Chemscore.Hbonds>
donor molecule, donor type, donor heavy atom, donor atom, acceptor molecule, acceptor atom, score
      L1  H     2    22       P1  8028  0.80
      P1  H  7989  7998       L1     8  0.70
      P1  H 10752 10764       L1    11  0.87

> <Gold.Chemscore.Hbond.Weighted>
-8.8153

> <Gold.Chemscore.Metal.Weighted>
-0.0000

> <Gold.Chemscore.Lipo.Weighted>
-6.5269

> <Gold.Chemscore.Internal_Hbond.Weighted>
0.0000

> <Gold.Chemscore.DEClash.Weighted>
1.4403

> <Gold.Chemscore.DEInternal.Weighted>
5.5369

> <Gold.Chemscore.Rot.Weighted>
4.4320

> <Gold.Chemscore.Internal.Correction.Weighted>
   9.000000E+99

> <Gold.Protein.RotatedTorsions>
[ 6907 6896 6895 6894 ] final   -8.88 input  -60.11 | X-H torsion
[ 7974 7965 7964 7962 ] final  -43.43 input  175.53 | X-H torsion
[ 8008 7997 7996 7995 ] final -166.58 input   59.86 | X-H torsion
[ 10167 10162 10161 10158 ] final    1.69 input  -65.29 | X-H torsion
[ 10718 10713 10712 10709 ] final   37.20 input   66.30 | X-H torsion
[ 10763 10752 10751 10750 ] final  -19.04 input  -60.55 | X-H torsion
[ 11005 11000 10999 10996 ] final -176.59 input  -57.11 | X-H torsion

> <Gold.Protein.ActiveResidues>
 VAL166  LYS551  ARG553  GLY616  TRP617  ASP618  TYR619  PRO620  LYS621  CYS622 
 ASP623  PHE694  ASN695  SER759  ASP760  ASP761  ALA762  ILE779  LEU786  VAL792 
 PHE793  MET794  SER795  GLU796  ALA797  LYS798  CYS799  TRP800  GLU811  SER814 

> <Gold.Protein.RotatedAtoms>
  151.4266  135.1004  159.9629 H   0  0  0  0  0  0  0  0  0  0  0  0  # atno 6907 bound_to 6896
  152.4970  133.8657  159.7283 H   0  0  0  0  0  0  0  0  0  0  0  0  # atno 6908 bound_to 6896
  150.9185  133.6851  159.2865 H   0  0  0  0  0  0  0  0  0  0  0  0  # atno 6909 bound_to 6896
  146.0020  140.7064  142.9266 H   0  0  0  0  0  0  0  0  0  0  0  0  # atno 7974 bound_to 7965
  155.8658  140.0985  157.1583 H   0  0  0  0  0  0  0  0  0  0  0  0  # atno 8008 bound_to 7997
  154.3993  140.1356  156.4079 H   0  0  0  0  0  0  0  0  0  0  0  0  # atno 8009 bound_to 7997
  155.7806  140.3458  155.5298 H   0  0  0  0  0  0  0  0  0  0  0  0  # atno 8010 bound_to 7997
  140.6671  143.7150  150.7848 H   0  0  0  0  0  0  0  0  0  0  0  0  # atno 10167 bound_to 10162
  157.3441  130.7563  149.6932 H   0  0  0  0  0  0  0  0  0  0  0  0  # atno 10718 bound_to 10713
  153.5986  135.7000  153.5393 H   0  0  0  0  0  0  0  0  0  0  0  0  # atno 10763 bound_to 10752
  153.3116  135.4099  155.1340 H   0  0  0  0  0  0  0  0  0  0  0  0  # atno 10764 bound_to 10752
  154.8587  135.3673  154.5521 H   0  0  0  0  0  0  0  0  0  0  0  0  # atno 10765 bound_to 10752
  140.4504  134.6349  157.4798 H   0  0  0  0  0  0  0  0  0  0  0  0  # atno 11005 bound_to 11000
  144.6922  140.3249  143.7226 LP  0  0  0  0  0  0  0  0  0  0  0  0  # atno 17320 bound_to 7965
  145.7474  139.1783  143.2341 LP  0  0  0  0  0  0  0  0  0  0  0  0  # atno 17321 bound_to 7965
  140.0829  143.4951  152.2520 LP  0  0  0  0  0  0  0  0  0  0  0  0  # atno 17342 bound_to 10162
  139.5924  144.7555  151.3369 LP  0  0  0  0  0  0  0  0  0  0  0  0  # atno 17343 bound_to 10162
  155.9712  130.4159  150.4205 LP  0  0  0  0  0  0  0  0  0  0  0  0  # atno 17370 bound_to 10713
  157.2258  131.0493  151.2521 LP  0  0  0  0  0  0  0  0  0  0  0  0  # atno 17371 bound_to 10713
  140.0011  134.6835  155.9529 LP  0  0  0  0  0  0  0  0  0  0  0  0  # atno 17394 bound_to 11000
  141.1667  133.6537  156.4504 LP  0  0  0  0  0  0  0  0  0  0  0  0  # atno 17395 bound_to 11000

$$$$
