AV-unprocessed.smi:1585|AV-procd|sdf|6372|dock5
  -GOLD-   22720 7 03D 1   1.00000     0.00000
 Structure written by MMmdl.
 42 43  0  0  0  0  0  0  0  0  3 V2000
  151.8742  142.1069  158.5659 C   0  0  0  0  0  0  0  0  0  0  0  0
  151.6205  141.1700  157.4349 C   0  0  0  0  0  0  0  0  0  0  0  0
  150.7443  141.1939  156.3871 C   0  0  0  0  0  0  0  0  0  0  0  0
  151.0345  139.9876  155.6933 C   0  0  0  0  0  0  0  0  0  0  0  0
  150.4357  139.5578  154.5717 N   0  5  0  0  0  0  0  0  0  0  0  0
  149.3242  140.1767  154.1139 C   0  0  0  0  0  0  0  0  0  0  0  0
  149.1110  141.3912  154.1135 O   0  0  0  0  0  0  0  0  0  0  0  0
  148.3992  139.3350  153.6327 N   0  0  0  0  0  0  0  0  0  0  0  0
  147.0930  139.7107  153.1026 C   0  0  0  0  0  0  0  0  0  0  0  0
  146.4426  138.5565  152.3111 C   0  0  1  0  0  0  0  0  0  0  0  0
  147.3621  138.1077  151.3345 O   0  0  0  0  0  0  0  0  0  0  0  0
  146.1281  137.3501  153.2177 C   0  0  0  0  0  0  0  0  0  0  0  0
  146.1616  136.0630  152.4767 N   0  3  0  0  0  0  0  0  0  0  0  0
  146.1976  134.8877  153.3850 C   0  0  0  0  0  0  0  0  0  0  0  0
  146.3815  133.5802  152.5961 C   0  0  0  0  0  0  0  0  0  0  0  0
  145.2833  133.4172  151.5375 C   0  0  0  0  0  0  0  0  0  0  0  0
  145.2420  134.6550  150.6320 C   0  0  0  0  0  0  0  0  0  0  0  0
  145.0809  135.9401  151.4614 C   0  0  0  0  0  0  0  0  0  0  0  0
  152.0127  139.3010  156.2598 N   0  0  0  0  0  0  0  0  0  0  0  0
  152.3904  140.0500  157.3806 O   0  0  0  0  0  0  0  0  0  0  0  0
  152.6416  142.8337  158.2989 H   0  0  0  0  0  0  0  0  0  0  0  0
  152.2108  141.5673  159.4518 H   0  0  0  0  0  0  0  0  0  0  0  0
  150.9672  142.6521  158.8277 H   0  0  0  0  0  0  0  0  0  0  0  0
  150.0100  141.9507  156.1551 H   0  0  0  0  0  0  0  0  0  0  0  0
  148.6208  138.3500  153.6473 H   0  0  0  0  0  0  0  0  0  0  0  0
  146.4356  140.0906  153.8870 H   0  0  0  0  0  0  0  0  0  0  0  0
  147.2788  140.5518  152.4342 H   0  0  0  0  0  0  0  0  0  0  0  0
  145.5365  138.9120  151.8204 H   0  0  0  0  0  0  0  0  0  0  0  0
  147.7062  137.2711  151.6140 H   0  0  0  0  0  0  0  0  0  0  0  0
  146.8556  137.3319  154.0311 H   0  0  0  0  0  0  0  0  0  0  0  0
  145.1511  137.4652  153.6897 H   0  0  0  0  0  0  0  0  0  0  0  0
  147.0211  134.9940  154.0924 H   0  0  0  0  0  0  0  0  0  0  0  0
  145.2777  134.8501  153.9707 H   0  0  0  0  0  0  0  0  0  0  0  0
  147.3594  133.5786  152.1126 H   0  0  0  0  0  0  0  0  0  0  0  0
  146.3719  132.7288  153.2774 H   0  0  0  0  0  0  0  0  0  0  0  0
  145.4613  132.5204  150.9435 H   0  0  0  0  0  0  0  0  0  0  0  0
  144.3167  133.2829  152.0253 H   0  0  0  0  0  0  0  0  0  0  0  0
  146.1594  134.7110  150.0445 H   0  0  0  0  0  0  0  0  0  0  0  0
  144.4224  134.5666  149.9181 H   0  0  0  0  0  0  0  0  0  0  0  0
  144.1103  135.9428  151.9598 H   0  0  0  0  0  0  0  0  0  0  0  0
  145.0907  136.7975  150.7891 H   0  0  0  0  0  0  0  0  0  0  0  0
  147.0395  136.0573  151.9763 H   0  0  0  0  0  0  0  0  0  0  0  0
  1  2  1  0  0  0  0
  1 21  1  0  0  0  0
  1 22  1  0  0  0  0
  1 23  1  0  0  0  0
  2 20  1  0  0  0  0
  2  3  2  0  0  0  0
  3  4  1  0  0  0  0
  3 24  1  0  0  0  0
  4  5  1  0  0  0  0
  4 19  2  0  0  0  0
  5  6  1  0  0  0  0
  6  7  2  0  0  0  0
  6  8  1  0  0  0  0
  8  9  1  0  0  0  0
  8 25  1  0  0  0  0
  9 10  1  0  0  0  0
  9 26  1  0  0  0  0
  9 27  1  0  0  0  0
 10 11  1  0  0  0  0
 10 12  1  0  0  0  0
 10 28  1  0  0  0  0
 11 29  1  0  0  0  0
 12 13  1  0  0  0  0
 12 30  1  0  0  0  0
 12 31  1  0  0  0  0
 13 18  1  0  0  0  0
 13 14  1  0  0  0  0
 13 42  1  0  0  0  0
 14 15  1  0  0  0  0
 14 32  1  0  0  0  0
 14 33  1  0  0  0  0
 15 16  1  0  0  0  0
 15 34  1  0  0  0  0
 15 35  1  0  0  0  0
 16 17  1  0  0  0  0
 16 36  1  0  0  0  0
 16 37  1  0  0  0  0
 17 18  1  0  0  0  0
 17 38  1  0  0  0  0
 17 39  1  0  0  0  0
 18 40  1  0  0  0  0
 18 41  1  0  0  0  0
 19 20  1  0  0  0  0
M  CHG  1   5  -1
M  CHG  1  13   1
M  END
> <s_m_source_file>
AV-unprocessed.smi

> <i_m_source_file_index>
1585

> <i_lp_mmshare_version>
43012

> <i_f3d_flags>
0

> <s_epik_input>
W0NIM11jMVtjSF1jKG5vMSlbTkhdQyg9TylbTkhdW0NIMl1bQ0BIXShbT0hdKVtDSDJdTjJbQ0gyXVtDSDJdW0NIMl1bQ0gyXVtDSDJdMg==

> <s_epik_cmdline>
J2VwaWtfcHl0aG9uJywgJy1waCcsICc3LjAnLCAnLXRuJywgJzgnLCAnLW1hJywgJzIwMCcsICctbWV0YWxfYmluZGluZycsICctaW1hZScsICc8aW5maWxlLm1hZT4nLCAnLW9tYWUnLCAnPG91dGZpbGUubWFlPic=

> <r_epik_Ionization_Penalty>
6.29903

> <r_epik_Ionization_Penalty_Charging>
6.29893

> <r_epik_Ionization_Penalty_Neutral>
0.000107719

> <r_epik_State_Penalty>
6.29786

> <r_epik_Charging_Adjusted_Penalty>
12.5968

> <i_epik_Tot_Q>
0

> <i_epik_Tot_abs_Q>
2

> <r_epik_Metal_State_Penalty>
2.22942

> <b_epik_Metal_Only>
1

> <s_lp_Force_Field>
OPLS_2005

> <r_lp_Energy>
6.33274

> <b_lp_Chiralities_Consistent>
1

> <s_lp_Variant>
AV-unprocessed.smi:1585-4

> <Gold.Version>
5.8.1

> <Gold.Id.Protein>
6NUR|6NUR_protein|mol2

> <Gold.PLP.Fitness>
49.7904

> <Gold.PLP.PLP>
-35.9858

> <Gold.PLP.part.hbond>
-8.8131

> <Gold.PLP.part.metal>
0.0000

> <Gold.PLP.part.buried>
0.4243

> <Gold.PLP.part.nonpolar>
-26.8548

> <Gold.PLP.part.repulsive>
0.5745

> <Gold.PLP.ligand.clash>
0.0000

> <Gold.PLP.ligand.torsion>
0.8325

> <Gold.PLP.Chemscore.Hbond>
5.1145

> <Gold.PLP.Chemscore.CHOScore>
0.0000

> <Gold.PLP.Chemscore.Metal>
0.0000

> <Gold.Chemscore.Hbonds>
donor molecule, donor type, donor heavy atom, donor atom, acceptor molecule, acceptor atom, score
      L1  H    11    29       P1  7948  1.00
      L1  H    13    42       P1  7948  2.00
      P1  H  7954  7966       L1    11  0.35
      P1  H  7989  7998       L1     5  0.20
      P1  H  7997  8008       L1    20  0.50
      P1  H  8011  8017       L1     7  0.47

> <Gold.PLP.Chemscore.Internal.Correction>
0.1261

> <Gold.Rescore>
     Score         DG    S(hbond)    S(metal)    S(lipo)     H(rot)  DE(clash)    DE(int)     intcor
     12.37     -14.97       2.38        0.00      66.71       2.45       0.38       2.22       ----

> <Gold.Chemscore.Fitness>
12.3709

> <Gold.Chemscore.DG>
-14.9662

> <Gold.Chemscore.ZeroCoef>
-5.4800

> <Gold.Chemscore.Hbond>
2.3781

> <Gold.Chemscore.Metal>
0.0000

> <Gold.Chemscore.Lipo>
66.7094

> <Gold.Chemscore.Internal_Hbond>
0.0000

> <Gold.Chemscore.DEClash>
0.3786

> <Gold.Chemscore.DEInternal>
2.2167

> <Gold.Chemscore.Rot>
2.4459

> <Gold.Chemscore.Internal.Correction>
   9.000000E+99

> <Gold.Chemscore.Hbonds>
donor molecule, donor type, donor heavy atom, donor atom, acceptor molecule, acceptor atom, score
      L1  H    11    29       P1  7948  0.93
      L1  H    13    42       P1  7948  0.98
      P1  H  7954  7966       L1    11  0.01
      P1  H  7997  8008       L1    20  0.04
      P1  H  8011  8017       L1     7  0.42

> <Gold.Chemscore.Hbond.Weighted>
-7.9427

> <Gold.Chemscore.Metal.Weighted>
-0.0000

> <Gold.Chemscore.Lipo.Weighted>
-7.8050

> <Gold.Chemscore.Internal_Hbond.Weighted>
0.0000

> <Gold.Chemscore.DEClash.Weighted>
0.3786

> <Gold.Chemscore.DEInternal.Weighted>
2.2167

> <Gold.Chemscore.Rot.Weighted>
6.2615

> <Gold.Chemscore.Internal.Correction.Weighted>
   9.000000E+99

> <Gold.Protein.RotatedTorsions>
[ 6907 6896 6895 6894 ] final  110.11 input  -60.11 | X-H torsion
[ 7974 7965 7964 7962 ] final  -86.90 input  175.53 | X-H torsion
[ 8008 7997 7996 7995 ] final  -70.68 input   59.86 | X-H torsion
[ 10167 10162 10161 10158 ] final  158.77 input  -65.29 | X-H torsion
[ 10718 10713 10712 10709 ] final  -57.39 input   66.30 | X-H torsion
[ 10763 10752 10751 10750 ] final -116.01 input  -60.55 | X-H torsion
[ 11005 11000 10999 10996 ] final    2.42 input  -57.11 | X-H torsion

> <Gold.Protein.ActiveResidues>
 VAL166  LYS551  ARG553  GLY616  TRP617  ASP618  TYR619  PRO620  LYS621  CYS622 
 ASP623  PHE694  ASN695  SER759  ASP760  ASP761  ALA762  ILE779  LEU786  VAL792 
 PHE793  MET794  SER795  GLU796  ALA797  LYS798  CYS799  TRP800  GLU811  SER814 

> <Gold.Protein.RotatedAtoms>
  152.5035  133.8847  159.7363 H   0  0  0  0  0  0  0  0  0  0  0  0  # atno 6907 bound_to 6896
  150.9301  133.6768  159.2819 H   0  0  0  0  0  0  0  0  0  0  0  0  # atno 6908 bound_to 6896
  151.4116  135.0990  159.9639 H   0  0  0  0  0  0  0  0  0  0  0  0  # atno 6909 bound_to 6896
  145.4737  140.9559  143.1903 H   0  0  0  0  0  0  0  0  0  0  0  0  # atno 7974 bound_to 7965
  154.5030  140.0830  156.7837 H   0  0  0  0  0  0  0  0  0  0  0  0  # atno 8008 bound_to 7997
  155.3959  140.3435  155.4236 H   0  0  0  0  0  0  0  0  0  0  0  0  # atno 8009 bound_to 7997
  156.1480  140.1549  156.8803 H   0  0  0  0  0  0  0  0  0  0  0  0  # atno 8010 bound_to 7997
  139.4828  144.4793  151.8466 H   0  0  0  0  0  0  0  0  0  0  0  0  # atno 10167 bound_to 10162
  156.1214  130.4166  150.0434 H   0  0  0  0  0  0  0  0  0  0  0  0  # atno 10718 bound_to 10713
  154.8503  135.4361  154.1754 H   0  0  0  0  0  0  0  0  0  0  0  0  # atno 10763 bound_to 10752
  153.2857  135.6957  153.7348 H   0  0  0  0  0  0  0  0  0  0  0  0  # atno 10764 bound_to 10752
  153.6534  135.3447  155.3081 H   0  0  0  0  0  0  0  0  0  0  0  0  # atno 10765 bound_to 10752
  140.6045  133.9805  155.8148 H   0  0  0  0  0  0  0  0  0  0  0  0  # atno 11005 bound_to 11000
  144.7930  139.6290  143.7105 LP  0  0  0  0  0  0  0  0  0  0  0  0  # atno 17320 bound_to 7965
  146.2382  139.5947  142.9509 LP  0  0  0  0  0  0  0  0  0  0  0  0  # atno 17321 bound_to 7965
  140.4268  144.2169  150.5887 LP  0  0  0  0  0  0  0  0  0  0  0  0  # atno 17342 bound_to 10162
  140.4819  143.2376  151.8943 LP  0  0  0  0  0  0  0  0  0  0  0  0  # atno 17343 bound_to 10162
  156.8371  130.9413  151.3634 LP  0  0  0  0  0  0  0  0  0  0  0  0  # atno 17370 bound_to 10713
  157.6398  130.8796  149.9426 LP  0  0  0  0  0  0  0  0  0  0  0  0  # atno 17371 bound_to 10713
  141.0849  134.0005  157.3328 LP  0  0  0  0  0  0  0  0  0  0  0  0  # atno 17394 bound_to 11000
  139.9218  135.0200  156.8091 LP  0  0  0  0  0  0  0  0  0  0  0  0  # atno 17395 bound_to 11000

$$$$
