AV-unprocessed.smi:49|AV-procd|sdf|479|dock10
  -GOLD-   2262016343D 1   1.00000     0.00000
 Structure written by MMmdl.
 28 29  0  0  0  0  0  0  0  0  2 V2000
  152.2071  144.6890  159.3166 C   0  0  0  0  0  0  0  0  0  0  0  0
  151.9266  144.3892  157.8402 C   0  0  0  0  0  0  0  0  0  0  0  0
  151.2791  143.0587  157.6370 C   0  0  0  0  0  0  0  0  0  0  0  0
  150.0644  142.9364  157.0828 N   0  0  0  0  0  0  0  0  0  0  0  0
  149.8539  141.6118  157.1027 C   0  0  0  0  0  0  0  0  0  0  0  0
  148.5818  141.0148  156.5719 C   0  0  2  0  0  0  0  0  0  0  0  0
  148.7767  140.1363  155.3268 C   0  0  0  0  0  0  0  0  0  0  0  0
  148.4814  141.0775  154.1602 C   0  0  1  0  0  0  0  0  0  0  0  0
  148.0377  140.3856  153.0120 O   0  0  0  0  0  0  0  0  0  0  0  0
  147.4125  142.0078  154.7329 C   0  0  0  0  0  0  0  0  0  0  0  0
  147.7766  142.1835  156.1505 N   0  3  0  0  0  0  0  0  0  0  0  0
  150.8727  140.9330  157.6460 N   0  0  0  0  0  0  0  0  0  0  0  0
  151.8108  141.8872  157.9975 N   0  0  0  0  0  0  0  0  0  0  0  0
  148.0705  140.4677  157.3652 H   0  0  0  0  0  0  0  0  0  0  0  0
  149.3762  141.6508  153.9131 H   0  0  0  0  0  0  0  0  0  0  0  0
  149.4567  143.6669  156.7403 H   0  0  0  0  0  0  0  0  0  0  0  0
  152.6799  145.6643  159.4319 H   0  0  0  0  0  0  0  0  0  0  0  0
  152.8739  143.9428  159.7498 H   0  0  0  0  0  0  0  0  0  0  0  0
  151.2855  144.6938  159.8991 H   0  0  0  0  0  0  0  0  0  0  0  0
  151.2869  145.1653  157.4185 H   0  0  0  0  0  0  0  0  0  0  0  0
  152.8585  144.4137  157.2743 H   0  0  0  0  0  0  0  0  0  0  0  0
  149.7599  139.6672  155.2722 H   0  0  0  0  0  0  0  0  0  0  0  0
  148.0335  139.3375  155.3419 H   0  0  0  0  0  0  0  0  0  0  0  0
  148.7671  140.2688  152.4224 H   0  0  0  0  0  0  0  0  0  0  0  0
  147.3539  142.9618  154.2084 H   0  0  0  0  0  0  0  0  0  0  0  0
  146.4301  141.5352  154.6901 H   0  0  0  0  0  0  0  0  0  0  0  0
  146.9538  142.2920  156.7257 H   0  0  0  0  0  0  0  0  0  0  0  0
  148.3607  143.0042  156.2329 H   0  0  0  0  0  0  0  0  0  0  0  0
  1  2  1  0  0  0  0
  1 17  1  0  0  0  0
  1 18  1  0  0  0  0
  1 19  1  0  0  0  0
  2 20  1  0  0  0  0
  2 21  1  0  0  0  0
  2  3  1  0  0  0  0
  3  4  1  0  0  0  0
  3 13  2  0  0  0  0
  4 16  1  0  0  0  0
  4  5  1  0  0  0  0
  5 12  2  0  0  0  0
  5  6  1  0  0  0  0
  6 14  1  0  0  0  0
  6 11  1  0  0  0  0
  6  7  1  0  0  0  0
  7  8  1  0  0  0  0
  7 22  1  0  0  0  0
  7 23  1  0  0  0  0
  8 15  1  0  0  0  0
  8  9  1  0  0  0  0
  8 10  1  0  0  0  0
  9 24  1  0  0  0  0
 10 11  1  0  0  0  0
 10 25  1  0  0  0  0
 10 26  1  0  0  0  0
 11 27  1  0  0  0  0
 11 28  1  0  0  0  0
 12 13  1  0  0  0  0
M  CHG  1  11   1
M  END
> <s_m_source_file>
AV-unprocessed.smi

> <i_m_source_file_index>
49

> <i_lp_mmshare_version>
43012

> <i_f3d_flags>
0

> <s_epik_input>
W0NIM11bQ0gyXWMxbmMobltuSF0xKVtDQEBIXTJbQ0gyXVtDQEBIXShbT0hdKVtDSDJdW05IXTI=

> <s_epik_cmdline>
J2VwaWtfcHl0aG9uJywgJy1waCcsICc3LjAnLCAnLXRuJywgJzgnLCAnLW1hJywgJzIwMCcsICctbWV0YWxfYmluZGluZycsICctaW1hZScsICc8aW5maWxlLm1hZT4nLCAnLW9tYWUnLCAnPG91dGZpbGUubWFlPic=

> <r_lp_tautomer_probability>
0.0517155

> <r_epik_Ionization_Penalty>
0.939819

> <r_epik_Ionization_Penalty_Charging>
0.0688988

> <r_epik_Ionization_Penalty_Neutral>
0.87092

> <r_epik_State_Penalty>
2.1224

> <r_epik_Charging_Adjusted_Penalty>
2.1913

> <i_epik_Tot_Q>
1

> <i_epik_Tot_abs_Q>
1

> <r_epik_Metal_State_Penalty>
2.39725

> <b_epik_Metal_Only>
0

> <s_lp_Force_Field>
OPLS_2005

> <r_lp_Energy>
21.4308

> <b_lp_Chiralities_Consistent>
1

> <s_lp_Variant>
AV-unprocessed.smi:49-17

> <Gold.Version>
5.8.1

> <Gold.Id.Protein>
6NUR|6NUR_protein|mol2

> <Gold.PLP.Fitness>
38.2967

> <Gold.PLP.PLP>
-26.3624

> <Gold.PLP.part.hbond>
-2.7132

> <Gold.PLP.part.metal>
0.0000

> <Gold.PLP.part.buried>
-4.6138

> <Gold.PLP.part.nonpolar>
-19.7030

> <Gold.PLP.part.repulsive>
0.0558

> <Gold.PLP.ligand.clash>
0.0000

> <Gold.PLP.ligand.torsion>
0.0413

> <Gold.PLP.Chemscore.Hbond>
4.0000

> <Gold.PLP.Chemscore.CHOScore>
0.0000

> <Gold.PLP.Chemscore.Metal>
0.0000

> <Gold.Chemscore.Hbonds>
donor molecule, donor type, donor heavy atom, donor atom, acceptor molecule, acceptor atom, score
      L1  H     4    16       P1  8028  1.00
      L1  H     9    24       P1  7957  0.99
      L1  H    11    28       P1  8028  2.00

> <Gold.PLP.Chemscore.Internal.Correction>
0.0169

> <Gold.Rescore>
     Score         DG    S(hbond)    S(metal)    S(lipo)     H(rot)  DE(clash)    DE(int)     intcor
     15.65     -15.76       2.80        0.00      49.08       1.89       0.01       0.09       ----

> <Gold.Chemscore.Fitness>
15.6550

> <Gold.Chemscore.DG>
-15.7553

> <Gold.Chemscore.ZeroCoef>
-5.4800

> <Gold.Chemscore.Hbond>
2.8045

> <Gold.Chemscore.Metal>
0.0000

> <Gold.Chemscore.Lipo>
49.0786

> <Gold.Chemscore.Internal_Hbond>
0.0000

> <Gold.Chemscore.DEClash>
0.0106

> <Gold.Chemscore.DEInternal>
0.0897

> <Gold.Chemscore.Rot>
1.8883

> <Gold.Chemscore.Internal.Correction>
   9.000000E+99

> <Gold.Chemscore.Hbonds>
donor molecule, donor type, donor heavy atom, donor atom, acceptor molecule, acceptor atom, score
      L1  H     4    16       P1  8028  0.94
      L1  H     9    24       P1  7957  0.92
      L1  H    11    28       P1  8028  0.78

> <Gold.Chemscore.Hbond.Weighted>
-9.3671

> <Gold.Chemscore.Metal.Weighted>
-0.0000

> <Gold.Chemscore.Lipo.Weighted>
-5.7422

> <Gold.Chemscore.Internal_Hbond.Weighted>
0.0000

> <Gold.Chemscore.DEClash.Weighted>
0.0106

> <Gold.Chemscore.DEInternal.Weighted>
0.0897

> <Gold.Chemscore.Rot.Weighted>
4.8340

> <Gold.Chemscore.Internal.Correction.Weighted>
   9.000000E+99

> <Gold.Protein.RotatedTorsions>
[ 6907 6896 6895 6894 ] final -148.54 input  -60.11 | X-H torsion
[ 7974 7965 7964 7962 ] final  -33.00 input  175.53 | X-H torsion
[ 8008 7997 7996 7995 ] final   81.62 input   59.86 | X-H torsion
[ 10167 10162 10161 10158 ] final  -93.61 input  -65.29 | X-H torsion
[ 10718 10713 10712 10709 ] final  -80.05 input   66.30 | X-H torsion
[ 10763 10752 10751 10750 ] final  -99.91 input  -60.55 | X-H torsion
[ 11005 11000 10999 10996 ] final -138.12 input  -57.11 | X-H torsion

> <Gold.Protein.ActiveResidues>
 VAL166  LYS551  ARG553  GLY616  TRP617  ASP618  TYR619  PRO620  LYS621  CYS622 
 ASP623  PHE694  ASN695  SER759  ASP760  ASP761  ALA762  ILE779  LEU786  VAL792 
 PHE793  MET794  SER795  GLU796  ALA797  LYS798  CYS799  TRP800  GLU811  SER814 

> <Gold.Protein.RotatedAtoms>
  151.1713  133.4783  159.2593 H   0  0  0  0  0  0  0  0  0  0  0  0  # atno 6907 bound_to 6896
  151.1353  135.0151  159.8611 H   0  0  0  0  0  0  0  0  0  0  0  0  # atno 6908 bound_to 6896
  152.5461  134.1612  159.8611 H   0  0  0  0  0  0  0  0  0  0  0  0  # atno 6909 bound_to 6896
  146.0945  140.5862  142.8849 H   0  0  0  0  0  0  0  0  0  0  0  0  # atno 7974 bound_to 7965
  155.8996  140.3434  155.6016 H   0  0  0  0  0  0  0  0  0  0  0  0  # atno 8008 bound_to 7997
  155.7516  140.0820  157.2217 H   0  0  0  0  0  0  0  0  0  0  0  0  # atno 8009 bound_to 7997
  154.4042  140.1552  156.2717 H   0  0  0  0  0  0  0  0  0  0  0  0  # atno 8010 bound_to 7997
  140.3229  143.3039  152.0027 H   0  0  0  0  0  0  0  0  0  0  0  0  # atno 10167 bound_to 10162
  156.0078  130.4563  150.3741 H   0  0  0  0  0  0  0  0  0  0  0  0  # atno 10718 bound_to 10713
  154.7536  135.4955  153.9334 H   0  0  0  0  0  0  0  0  0  0  0  0  # atno 10763 bound_to 10752
  153.1171  135.6723  153.9407 H   0  0  0  0  0  0  0  0  0  0  0  0  # atno 10764 bound_to 10752
  153.9150  135.3094  155.3427 H   0  0  0  0  0  0  0  0  0  0  0  0  # atno 10765 bound_to 10752
  140.8646  134.2127  157.4687 H   0  0  0  0  0  0  0  0  0  0  0  0  # atno 11005 bound_to 11000
  144.7385  140.4876  143.6886 LP  0  0  0  0  0  0  0  0  0  0  0  0  # atno 17320 bound_to 7965
  145.5974  139.1501  143.3148 LP  0  0  0  0  0  0  0  0  0  0  0  0  # atno 17321 bound_to 7965
  139.4871  144.6297  151.7095 LP  0  0  0  0  0  0  0  0  0  0  0  0  # atno 17342 bound_to 10162
  140.5467  144.0491  150.6110 LP  0  0  0  0  0  0  0  0  0  0  0  0  # atno 17343 bound_to 10162
  157.1824  131.0395  151.2741 LP  0  0  0  0  0  0  0  0  0  0  0  0  # atno 17370 bound_to 10713
  157.4134  130.7397  149.6856 LP  0  0  0  0  0  0  0  0  0  0  0  0  # atno 17371 bound_to 10713
  139.8708  134.9745  156.4850 LP  0  0  0  0  0  0  0  0  0  0  0  0  # atno 17394 bound_to 11000
  140.8644  133.8035  155.9298 LP  0  0  0  0  0  0  0  0  0  0  0  0  # atno 17395 bound_to 11000

$$$$
