AV-unprocessed.smi:200|AV-procd|sdf|1576|dock3
  -GOLD-   2262019453D 1   1.00000     0.00000
 Structure written by MMmdl.
 56 59  0  0  0  0  0  0  0  0  1 V2000
  140.0330  136.1120  154.0078 C   0  0  0  0  0  0  0  0  0  0  0  0
  140.9228  137.1197  154.4554 O   0  0  0  0  0  0  0  0  0  0  0  0
  142.2010  136.6068  154.7894 C   0  0  0  0  0  0  0  0  0  0  0  0
  142.7928  135.9215  153.5471 C   0  0  0  0  0  0  0  0  0  0  0  0
  144.2512  135.7793  153.6025 N   0  0  0  0  0  0  0  0  0  0  0  0
  144.9586  136.8921  153.9102 C   0  0  0  0  0  0  0  0  0  0  0  0
  144.3508  138.0860  153.6982 N   0  0  0  0  0  0  0  0  0  0  0  0
  144.9874  139.2233  153.9914 C   0  0  0  0  0  0  0  0  0  0  0  0
  146.2081  139.3878  154.5045 N   0  0  0  0  0  0  0  0  0  0  0  0
  146.8178  138.1895  154.7329 C   0  0  0  0  0  0  0  0  0  0  0  0
  146.2719  136.9025  154.4621 C   0  0  0  0  0  0  0  0  0  0  0  0
  147.1825  135.9184  154.8277 N   0  0  0  0  0  0  0  0  0  0  0  0
  148.2087  136.5841  155.2807 C   0  0  0  0  0  0  0  0  0  0  0  0
  148.0691  137.9537  155.2757 N   0  0  0  0  0  0  0  0  0  0  0  0
  149.0484  138.9250  155.7393 C   0  0  0  0  0  0  0  0  0  0  0  0
  149.6729  139.7795  154.6156 C   0  0  0  0  0  0  0  0  0  0  0  0
  148.5990  140.6182  153.8997 C   0  0  0  0  0  0  0  0  0  0  0  0
  149.0795  141.1378  152.6761 O   0  0  0  0  0  0  0  0  0  0  0  0
  150.9438  140.5525  154.9938 C   0  0  0  0  0  0  0  0  0  0  0  0
  151.6620  140.0427  153.8505 O   0  0  0  0  0  0  0  0  0  0  0  0
  150.6345  139.0461  153.6689 C   0  0  0  0  0  0  0  0  0  0  0  0
  144.9393  134.9396  152.6168 C   0  0  2  0  0  0  0  0  0  0  0  0
  145.1077  135.5790  151.2327 C   0  0  0  0  0  0  0  0  0  0  0  0
  145.3706  134.3792  150.3275 C   0  0  0  0  0  0  0  0  0  0  0  0
  144.4249  133.2944  150.8595 C   0  0  1  0  0  0  0  0  0  0  0  0
  144.8748  131.8667  150.5215 C   0  0  0  0  0  0  0  0  0  0  0  0
  144.2889  133.5657  152.3698 C   0  0  0  0  0  0  0  0  0  0  0  0
  139.0669  136.5565  153.7693 H   0  0  0  0  0  0  0  0  0  0  0  0
  139.8747  135.3548  154.7767 H   0  0  0  0  0  0  0  0  0  0  0  0
  140.4103  135.6245  153.1080 H   0  0  0  0  0  0  0  0  0  0  0  0
  142.8435  137.4196  155.1308 H   0  0  0  0  0  0  0  0  0  0  0  0
  142.1123  135.8884  155.6058 H   0  0  0  0  0  0  0  0  0  0  0  0
  142.3389  134.9370  153.4467 H   0  0  0  0  0  0  0  0  0  0  0  0
  142.5017  136.4699  152.6524 H   0  0  0  0  0  0  0  0  0  0  0  0
  144.4387  140.1313  153.7893 H   0  0  0  0  0  0  0  0  0  0  0  0
  149.0967  136.0904  155.6477 H   0  0  0  0  0  0  0  0  0  0  0  0
  148.5671  139.5649  156.4799 H   0  0  0  0  0  0  0  0  0  0  0  0
  149.8226  138.3834  156.2843 H   0  0  0  0  0  0  0  0  0  0  0  0
  147.7218  140.0084  153.6797 H   0  0  0  0  0  0  0  0  0  0  0  0
  148.2435  141.4380  154.5241 H   0  0  0  0  0  0  0  0  0  0  0  0
  149.1080  140.4368  152.0428 H   0  0  0  0  0  0  0  0  0  0  0  0
  150.8307  141.6371  154.9695 H   0  0  0  0  0  0  0  0  0  0  0  0
  151.3961  140.2294  155.9329 H   0  0  0  0  0  0  0  0  0  0  0  0
  150.9615  138.0697  154.0286 H   0  0  0  0  0  0  0  0  0  0  0  0
  150.2843  138.9832  152.6380 H   0  0  0  0  0  0  0  0  0  0  0  0
  145.9456  134.7311  152.9862 H   0  0  0  0  0  0  0  0  0  0  0  0
  144.1919  136.0755  150.9110 H   0  0  0  0  0  0  0  0  0  0  0  0
  145.9139  136.3125  151.2039 H   0  0  0  0  0  0  0  0  0  0  0  0
  145.1986  134.6045  149.2746 H   0  0  0  0  0  0  0  0  0  0  0  0
  146.4091  134.0629  150.4350 H   0  0  0  0  0  0  0  0  0  0  0  0
  143.4465  133.4620  150.4064 H   0  0  0  0  0  0  0  0  0  0  0  0
  145.8556  131.6493  150.9454 H   0  0  0  0  0  0  0  0  0  0  0  0
  144.9381  131.7227  149.4427 H   0  0  0  0  0  0  0  0  0  0  0  0
  144.1716  131.1316  150.9141 H   0  0  0  0  0  0  0  0  0  0  0  0
  144.7998  132.8072  152.9643 H   0  0  0  0  0  0  0  0  0  0  0  0
  143.2394  133.5307  152.6603 H   0  0  0  0  0  0  0  0  0  0  0  0
  1  2  1  0  0  0  0
  1 28  1  0  0  0  0
  1 29  1  0  0  0  0
  1 30  1  0  0  0  0
  2  3  1  0  0  0  0
  3  4  1  0  0  0  0
  3 31  1  0  0  0  0
  3 32  1  0  0  0  0
  4  5  1  0  0  0  0
  4 33  1  0  0  0  0
  4 34  1  0  0  0  0
  5  6  1  0  0  0  0
  5 22  1  0  0  0  0
  6 11  1  0  0  0  0
  6  7  2  0  0  0  0
  7  8  1  0  0  0  0
  8  9  2  0  0  0  0
  8 35  1  0  0  0  0
  9 10  1  0  0  0  0
 10 14  1  0  0  0  0
 10 11  2  0  0  0  0
 11 12  1  0  0  0  0
 12 13  2  0  0  0  0
 13 14  1  0  0  0  0
 13 36  1  0  0  0  0
 14 15  1  0  0  0  0
 15 16  1  0  0  0  0
 15 37  1  0  0  0  0
 15 38  1  0  0  0  0
 16 21  1  0  0  0  0
 16 17  1  0  0  0  0
 16 19  1  0  0  0  0
 17 18  1  0  0  0  0
 17 39  1  0  0  0  0
 17 40  1  0  0  0  0
 18 41  1  0  0  0  0
 19 20  1  0  0  0  0
 19 42  1  0  0  0  0
 19 43  1  0  0  0  0
 20 21  1  0  0  0  0
 21 44  1  0  0  0  0
 21 45  1  0  0  0  0
 22 27  1  0  0  0  0
 22 23  1  0  0  0  0
 22 46  1  0  0  0  0
 23 24  1  0  0  0  0
 23 47  1  0  0  0  0
 23 48  1  0  0  0  0
 24 25  1  0  0  0  0
 24 49  1  0  0  0  0
 24 50  1  0  0  0  0
 25 26  1  0  0  0  0
 25 27  1  0  0  0  0
 25 51  1  0  0  0  0
 26 52  1  0  0  0  0
 26 53  1  0  0  0  0
 26 54  1  0  0  0  0
 27 55  1  0  0  0  0
 27 56  1  0  0  0  0
M  END
> <s_m_source_file>
AV-unprocessed.smi

> <i_m_source_file_index>
200

> <i_lp_mmshare_version>
43012

> <i_f3d_flags>
0

> <s_epik_input>
W0NIM11bQ0BASF0oW0NIMl0xKVtDSDJdW0NIMl1bQ0BIXTFOKFtDSDJdW0NIMl1PW0NIM10pYyhuW2NIXW4yKWMoYzIzKW5bY0hdbjNbQ0gyXUM0KFtDSDJdW09IXSlbQ0gyXU9bQ0gyXTQ=

> <s_epik_cmdline>
J2VwaWtfcHl0aG9uJywgJy1waCcsICc3LjAnLCAnLXRuJywgJzgnLCAnLW1hJywgJzIwMCcsICctbWV0YWxfYmluZGluZycsICctaW1hZScsICc8aW5maWxlLm1hZT4nLCAnLW9tYWUnLCAnPG91dGZpbGUubWFlPic=

> <r_lp_tautomer_probability>
1

> <r_epik_Ionization_Penalty>
0.00363087

> <r_epik_Ionization_Penalty_Charging>
0

> <r_epik_Ionization_Penalty_Neutral>
0.00363087

> <r_epik_State_Penalty>
0.0024341

> <r_epik_Charging_Adjusted_Penalty>
0.0024341

> <i_epik_Tot_Q>
0

> <i_epik_Tot_abs_Q>
0

> <r_epik_Metal_State_Penalty>
-0

> <b_epik_Metal_Only>
0

> <s_lp_Force_Field>
OPLS_2005

> <r_lp_Energy>
49.2687

> <b_lp_Chiralities_Consistent>
1

> <s_lp_Variant>
AV-unprocessed.smi:200-1

> <Gold.Version>
5.8.1

> <Gold.Id.Protein>
6NUR|6NUR_protein|mol2

> <Gold.PLP.Fitness>
39.8551

> <Gold.PLP.PLP>
-29.5010

> <Gold.PLP.part.hbond>
-3.5177

> <Gold.PLP.part.metal>
0.0000

> <Gold.PLP.part.buried>
-2.2990

> <Gold.PLP.part.nonpolar>
-24.3950

> <Gold.PLP.part.repulsive>
1.3871

> <Gold.PLP.ligand.clash>
0.0000

> <Gold.PLP.ligand.torsion>
0.9883

> <Gold.PLP.Chemscore.Hbond>
2.7280

> <Gold.PLP.Chemscore.CHOScore>
0.8940

> <Gold.PLP.Chemscore.Metal>
0.0000

> <Gold.Chemscore.Hbonds>
donor molecule, donor type, donor heavy atom, donor atom, acceptor molecule, acceptor atom, score
      P1  H  8011  8017       L1    18  0.91

> <Gold.PLP.Chemscore.Internal.Correction>
1.4647

> <Gold.Rescore>
     Score         DG    S(hbond)    S(metal)    S(lipo)     H(rot)  DE(clash)    DE(int)     intcor
      5.12     -10.69       1.43        0.00      75.47       3.28       1.98       3.59       ----

> <Gold.Chemscore.Fitness>
5.1215

> <Gold.Chemscore.DG>
-10.6937

> <Gold.Chemscore.ZeroCoef>
-5.4800

> <Gold.Chemscore.Hbond>
1.4282

> <Gold.Chemscore.Metal>
0.0000

> <Gold.Chemscore.Lipo>
75.4742

> <Gold.Chemscore.Internal_Hbond>
0.0000

> <Gold.Chemscore.DEClash>
1.9812

> <Gold.Chemscore.DEInternal>
3.5910

> <Gold.Chemscore.Rot>
3.2761

> <Gold.Chemscore.Internal.Correction>
   9.000000E+99

> <Gold.Chemscore.Hbonds>
donor molecule, donor type, donor heavy atom, donor atom, acceptor molecule, acceptor atom, score
      L1  H    18    41       P1  7957  0.02
      P1  H  8011  8017       L1    18  0.81

> <Gold.Chemscore.Hbond.Weighted>
-4.7700

> <Gold.Chemscore.Metal.Weighted>
-0.0000

> <Gold.Chemscore.Lipo.Weighted>
-8.8305

> <Gold.Chemscore.Internal_Hbond.Weighted>
0.0000

> <Gold.Chemscore.DEClash.Weighted>
1.9812

> <Gold.Chemscore.DEInternal.Weighted>
3.5910

> <Gold.Chemscore.Rot.Weighted>
8.3868

> <Gold.Chemscore.Internal.Correction.Weighted>
   9.000000E+99

> <Gold.Protein.RotatedTorsions>
[ 6907 6896 6895 6894 ] final   36.43 input  -60.11 | X-H torsion
[ 7974 7965 7964 7962 ] final  -91.03 input  175.53 | X-H torsion
[ 8008 7997 7996 7995 ] final    3.32 input   59.86 | X-H torsion
[ 10167 10162 10161 10158 ] final  159.95 input  -65.29 | X-H torsion
[ 10718 10713 10712 10709 ] final  -85.06 input   66.30 | X-H torsion
[ 10763 10752 10751 10750 ] final   26.74 input  -60.55 | X-H torsion
[ 11005 11000 10999 10996 ] final   89.34 input  -57.11 | X-H torsion

> <Gold.Protein.ActiveResidues>
 VAL166  LYS551  ARG553  GLY616  TRP617  ASP618  TYR619  PRO620  LYS621  CYS622 
 ASP623  PHE694  ASN695  SER759  ASP760  ASP761  ALA762  ILE779  LEU786  VAL792 
 PHE793  MET794  SER795  GLU796  ALA797  LYS798  CYS799  TRP800  GLU811  SER814 

> <Gold.Protein.RotatedAtoms>
  152.1296  134.9145  160.0559 H   0  0  0  0  0  0  0  0  0  0  0  0  # atno 6907 bound_to 6896
  152.0254  133.3910  159.4283 H   0  0  0  0  0  0  0  0  0  0  0  0  # atno 6908 bound_to 6896
  150.6855  134.3501  159.4949 H   0  0  0  0  0  0  0  0  0  0  0  0  # atno 6909 bound_to 6896
  145.4185  140.9549  143.2194 H   0  0  0  0  0  0  0  0  0  0  0  0  # atno 7974 bound_to 7965
  154.7022  140.2675  155.6708 H   0  0  0  0  0  0  0  0  0  0  0  0  # atno 8008 bound_to 7997
  156.2769  140.2770  156.1561 H   0  0  0  0  0  0  0  0  0  0  0  0  # atno 8009 bound_to 7997
  155.0748  140.0372  157.2610 H   0  0  0  0  0  0  0  0  0  0  0  0  # atno 8010 bound_to 7997
  139.4836  144.4681  151.8614 H   0  0  0  0  0  0  0  0  0  0  0  0  # atno 10167 bound_to 10162
  156.0000  130.4718  150.4505 H   0  0  0  0  0  0  0  0  0  0  0  0  # atno 10718 bound_to 10713
  153.0602  135.6553  154.0480 H   0  0  0  0  0  0  0  0  0  0  0  0  # atno 10763 bound_to 10752
  154.0149  135.2925  155.3389 H   0  0  0  0  0  0  0  0  0  0  0  0  # atno 10764 bound_to 10752
  154.6937  135.5272  153.8496 H   0  0  0  0  0  0  0  0  0  0  0  0  # atno 10765 bound_to 10752
  139.8877  134.8545  156.3128 H   0  0  0  0  0  0  0  0  0  0  0  0  # atno 11005 bound_to 11000
  144.8261  139.5708  143.6965 LP  0  0  0  0  0  0  0  0  0  0  0  0  # atno 17320 bound_to 7965
  146.2668  139.6540  142.9323 LP  0  0  0  0  0  0  0  0  0  0  0  0  # atno 17321 bound_to 7965
  140.4147  144.2322  150.5888 LP  0  0  0  0  0  0  0  0  0  0  0  0  # atno 17342 bound_to 10162
  140.4932  143.2341  151.8788 LP  0  0  0  0  0  0  0  0  0  0  0  0  # atno 17343 bound_to 10162
  157.2539  131.0552  151.2362 LP  0  0  0  0  0  0  0  0  0  0  0  0  # atno 17370 bound_to 10713
  157.3502  130.7078  149.6436 LP  0  0  0  0  0  0  0  0  0  0  0  0  # atno 17371 bound_to 10713
  140.9839  133.7250  156.0712 LP  0  0  0  0  0  0  0  0  0  0  0  0  # atno 17394 bound_to 11000
  140.7714  134.3828  157.5507 LP  0  0  0  0  0  0  0  0  0  0  0  0  # atno 17395 bound_to 11000

$$$$
