AV-unprocessed.smi:657|AV-procd|sdf|3226|dock9
  -GOLD-   22720 0163D 1   1.00000     0.00000
 Structure written by MMmdl.
 46 47  0  0  0  0  0  0  0  0  3 V2000
  148.2821  140.5900  154.0370 C   0  0  0  0  0  0  0  0  0  0  0  0
  148.3484  139.2726  153.2400 C   0  0  0  0  0  0  0  0  0  0  0  0
  147.1406  139.1137  152.3005 C   0  0  0  0  0  0  0  0  0  0  0  0
  148.5371  138.0554  154.1005 N   0  3  2  0  0  0  0  0  0  0  0  0
  147.2576  137.5385  154.6706 C   0  0  0  0  0  0  0  0  0  0  0  0
  147.4423  136.1952  155.3865 C   0  0  0  0  0  0  0  0  0  0  0  0
  148.4639  136.3369  156.5144 C   0  0  0  0  0  0  0  0  0  0  0  0
  149.7870  136.8329  155.9288 C   0  0  0  0  0  0  0  0  0  0  0  0
  149.6229  138.1569  155.1376 C   0  0  1  0  0  0  0  0  0  0  0  0
  151.0015  138.5611  154.5706 C   0  0  0  0  0  0  0  0  0  0  0  0
  151.5809  137.7590  153.8318 O   0  0  0  0  0  0  0  0  0  0  0  0
  151.3844  139.7964  155.0037 N   0  5  0  0  0  0  0  0  0  0  0  0
  150.7616  140.4917  156.1263 C   0  0  0  0  0  0  0  0  0  0  0  0
  151.7641  140.5972  157.2917 C   0  0  0  0  0  0  0  0  0  0  0  0
  151.6649  141.9082  158.0324 C   0  0  0  0  0  0  0  0  0  0  0  0
  151.1380  143.1456  157.5588 C   0  0  0  0  0  0  0  0  0  0  0  0
  151.1881  144.1091  158.4643 N   0  0  0  0  0  0  0  0  0  0  0  0
  151.7411  143.5241  159.5462 N   0  0  0  0  0  0  0  0  0  0  0  0
  151.9503  144.3017  160.7485 C   0  0  0  0  0  0  0  0  0  0  0  0
  152.0340  142.1970  159.3177 C   0  0  0  0  0  0  0  0  0  0  0  0
  148.2742  141.4454  153.3610 H   0  0  0  0  0  0  0  0  0  0  0  0
  149.1446  140.7079  154.6927 H   0  0  0  0  0  0  0  0  0  0  0  0
  147.3808  140.6573  154.6463 H   0  0  0  0  0  0  0  0  0  0  0  0
  149.1960  139.3695  152.5646 H   0  0  0  0  0  0  0  0  0  0  0  0
  147.1120  139.9231  151.5704 H   0  0  0  0  0  0  0  0  0  0  0  0
  146.1915  139.1325  152.8352 H   0  0  0  0  0  0  0  0  0  0  0  0
  147.1974  138.1767  151.7454 H   0  0  0  0  0  0  0  0  0  0  0  0
  146.8484  138.2592  155.3792 H   0  0  0  0  0  0  0  0  0  0  0  0
  146.5137  137.4105  153.8859 H   0  0  0  0  0  0  0  0  0  0  0  0
  146.4881  135.8550  155.7902 H   0  0  0  0  0  0  0  0  0  0  0  0
  147.7703  135.4358  154.6756 H   0  0  0  0  0  0  0  0  0  0  0  0
  148.1005  137.0377  157.2670 H   0  0  0  0  0  0  0  0  0  0  0  0
  148.6085  135.3800  157.0168 H   0  0  0  0  0  0  0  0  0  0  0  0
  150.5112  136.9654  156.7340 H   0  0  0  0  0  0  0  0  0  0  0  0
  150.1924  136.0521  155.2830 H   0  0  0  0  0  0  0  0  0  0  0  0
  149.3202  138.9293  155.8463 H   0  0  0  0  0  0  0  0  0  0  0  0
  150.4381  141.4970  155.8523 H   0  0  0  0  0  0  0  0  0  0  0  0
  149.8671  139.9707  156.4691 H   0  0  0  0  0  0  0  0  0  0  0  0
  151.6024  139.7665  157.9799 H   0  0  0  0  0  0  0  0  0  0  0  0
  152.7753  140.4620  156.9051 H   0  0  0  0  0  0  0  0  0  0  0  0
  150.7251  143.3693  156.5862 H   0  0  0  0  0  0  0  0  0  0  0  0
  152.4348  143.6906  161.5105 H   0  0  0  0  0  0  0  0  0  0  0  0
  150.9919  144.6531  161.1318 H   0  0  0  0  0  0  0  0  0  0  0  0
  152.5849  145.1603  160.5271 H   0  0  0  0  0  0  0  0  0  0  0  0
  152.4797  141.5726  160.0780 H   0  0  0  0  0  0  0  0  0  0  0  0
  148.8746  137.3426  153.4689 H   0  0  0  0  0  0  0  0  0  0  0  0
  1  2  1  0  0  0  0
  1 21  1  0  0  0  0
  1 22  1  0  0  0  0
  1 23  1  0  0  0  0
  2  3  1  0  0  0  0
  2  4  1  0  0  0  0
  2 24  1  0  0  0  0
  3 25  1  0  0  0  0
  3 26  1  0  0  0  0
  3 27  1  0  0  0  0
  4  9  1  0  0  0  0
  4  5  1  0  0  0  0
  4 46  1  0  0  0  0
  5  6  1  0  0  0  0
  5 28  1  0  0  0  0
  5 29  1  0  0  0  0
  6  7  1  0  0  0  0
  6 30  1  0  0  0  0
  6 31  1  0  0  0  0
  7  8  1  0  0  0  0
  7 32  1  0  0  0  0
  7 33  1  0  0  0  0
  8  9  1  0  0  0  0
  8 34  1  0  0  0  0
  8 35  1  0  0  0  0
  9 10  1  0  0  0  0
  9 36  1  0  0  0  0
 10 11  2  0  0  0  0
 10 12  1  0  0  0  0
 12 13  1  0  0  0  0
 13 14  1  0  0  0  0
 13 37  1  0  0  0  0
 13 38  1  0  0  0  0
 14 15  1  0  0  0  0
 14 39  1  0  0  0  0
 14 40  1  0  0  0  0
 15 20  2  0  0  0  0
 15 16  1  0  0  0  0
 16 17  2  0  0  0  0
 16 41  1  0  0  0  0
 17 18  1  0  0  0  0
 18 19  1  0  0  0  0
 18 20  1  0  0  0  0
 19 42  1  0  0  0  0
 19 43  1  0  0  0  0
 19 44  1  0  0  0  0
 20 45  1  0  0  0  0
M  CHG  1   4   1
M  CHG  1  12  -1
M  END
> <s_m_source_file>
AV-unprocessed.smi

> <i_m_source_file_index>
657

> <i_lp_mmshare_version>
43012

> <i_f3d_flags>
0

> <s_epik_input>
W0NIM11bQ0hdKFtDSDNdKU4xW0NIMl1bQ0gyXVtDSDJdW0NIMl1bQ0BIXTFDKD1PKVtOSF1bQ0gyXVtDSDJdYzJbY0hdbm4oW0NIM10pW2NIXTI=

> <s_epik_cmdline>
J2VwaWtfcHl0aG9uJywgJy1waCcsICc3LjAnLCAnLXRuJywgJzgnLCAnLW1hJywgJzIwMCcsICctbWV0YWxfYmluZGluZycsICctaW1hZScsICc8aW5maWxlLm1hZT4nLCAnLW9tYWUnLCAnPG91dGZpbGUubWFlPic=

> <r_lp_tautomer_probability>
1

> <r_epik_Ionization_Penalty>
6.1622

> <r_epik_Ionization_Penalty_Charging>
6.16146

> <r_epik_Ionization_Penalty_Neutral>
0.00073675

> <r_epik_State_Penalty>
6.18018

> <r_epik_Charging_Adjusted_Penalty>
12.3416

> <i_epik_Tot_Q>
0

> <i_epik_Tot_abs_Q>
2

> <r_epik_Metal_State_Penalty>
2.12232

> <b_epik_Metal_Only>
1

> <s_lp_Force_Field>
OPLS_2005

> <r_lp_Energy>
11.2403

> <b_lp_Chiralities_Consistent>
1

> <s_lp_Variant>
AV-unprocessed.smi:657-7

> <Gold.Version>
5.8.1

> <Gold.Id.Protein>
6NUR|6NUR_protein|mol2

> <Gold.PLP.Fitness>
40.6161

> <Gold.PLP.PLP>
-30.3140

> <Gold.PLP.part.hbond>
-2.0000

> <Gold.PLP.part.metal>
0.0000

> <Gold.PLP.part.buried>
0.4830

> <Gold.PLP.part.nonpolar>
-29.1874

> <Gold.PLP.part.repulsive>
1.4102

> <Gold.PLP.ligand.clash>
0.0000

> <Gold.PLP.ligand.torsion>
0.9607

> <Gold.PLP.Chemscore.Hbond>
3.0000

> <Gold.PLP.Chemscore.CHOScore>
1.0000

> <Gold.PLP.Chemscore.Metal>
0.0000

> <Gold.Chemscore.Hbonds>
donor molecule, donor type, donor heavy atom, donor atom, acceptor molecule, acceptor atom, score
      L1  H     4    46       P1  7948  2.00
      P1  H  7989  7998       L1    12  1.00
      L1  C    16    41       P1  8028  1.00

> <Gold.PLP.Chemscore.Internal.Correction>
0.2235

> <Gold.Rescore>
     Score         DG    S(hbond)    S(metal)    S(lipo)     H(rot)  DE(clash)    DE(int)     intcor
     13.81     -17.33       1.76        0.00      85.52       1.57       2.71       0.81       ----

> <Gold.Chemscore.Fitness>
13.8087

> <Gold.Chemscore.DG>
-17.3318

> <Gold.Chemscore.ZeroCoef>
-5.4800

> <Gold.Chemscore.Hbond>
1.7591

> <Gold.Chemscore.Metal>
0.0000

> <Gold.Chemscore.Lipo>
85.5212

> <Gold.Chemscore.Internal_Hbond>
0.0000

> <Gold.Chemscore.DEClash>
2.7141

> <Gold.Chemscore.DEInternal>
0.8090

> <Gold.Chemscore.Rot>
1.5741

> <Gold.Chemscore.Internal.Correction>
   9.000000E+99

> <Gold.Chemscore.Hbonds>
donor molecule, donor type, donor heavy atom, donor atom, acceptor molecule, acceptor atom, score
      L1  H     4    46       P1  7948  0.99
      P1  H  7989  7998       L1    12  0.57
      P1  H 10752 10764       L1    11  0.01

> <Gold.Chemscore.Hbond.Weighted>
-5.8755

> <Gold.Chemscore.Metal.Weighted>
-0.0000

> <Gold.Chemscore.Lipo.Weighted>
-10.0060

> <Gold.Chemscore.Internal_Hbond.Weighted>
0.0000

> <Gold.Chemscore.DEClash.Weighted>
2.7141

> <Gold.Chemscore.DEInternal.Weighted>
0.8090

> <Gold.Chemscore.Rot.Weighted>
4.0297

> <Gold.Chemscore.Internal.Correction.Weighted>
   9.000000E+99

> <Gold.Protein.RotatedTorsions>
[ 6907 6896 6895 6894 ] final  164.79 input  -60.11 | X-H torsion
[ 7974 7965 7964 7962 ] final  -28.29 input  175.53 | X-H torsion
[ 8008 7997 7996 7995 ] final -175.97 input   59.86 | X-H torsion
[ 10167 10162 10161 10158 ] final  -19.68 input  -65.29 | X-H torsion
[ 10718 10713 10712 10709 ] final  126.70 input   66.30 | X-H torsion
[ 10763 10752 10751 10750 ] final  -83.17 input  -60.55 | X-H torsion
[ 11005 11000 10999 10996 ] final  -77.59 input  -57.11 | X-H torsion

> <Gold.Protein.ActiveResidues>
 VAL166  LYS551  ARG553  GLY616  TRP617  ASP618  TYR619  PRO620  LYS621  CYS622 
 ASP623  PHE694  ASN695  SER759  ASP760  ASP761  ALA762  ILE779  LEU786  VAL792 
 PHE793  MET794  SER795  GLU796  ALA797  LYS798  CYS799  TRP800  GLU811  SER814 

> <Gold.Protein.RotatedAtoms>
  151.9045  133.3546  159.3841 H   0  0  0  0  0  0  0  0  0  0  0  0  # atno 6907 bound_to 6896
  150.7072  134.4795  159.5473 H   0  0  0  0  0  0  0  0  0  0  0  0  # atno 6908 bound_to 6896
  152.2389  134.8248  160.0514 H   0  0  0  0  0  0  0  0  0  0  0  0  # atno 6909 bound_to 6896
  146.1298  140.5264  142.8698 H   0  0  0  0  0  0  0  0  0  0  0  0  # atno 7974 bound_to 7965
  155.9892  140.1197  157.0654 H   0  0  0  0  0  0  0  0  0  0  0  0  # atno 8008 bound_to 7997
  154.4206  140.1129  156.5610 H   0  0  0  0  0  0  0  0  0  0  0  0  # atno 8009 bound_to 7997
  155.6366  140.3473  155.4703 H   0  0  0  0  0  0  0  0  0  0  0  0  # atno 8010 bound_to 7997
  140.7270  143.4795  151.0136 H   0  0  0  0  0  0  0  0  0  0  0  0  # atno 10167 bound_to 10162
  157.5397  131.1097  150.8879 H   0  0  0  0  0  0  0  0  0  0  0  0  # atno 10718 bound_to 10713
  154.5845  135.5565  153.7218 H   0  0  0  0  0  0  0  0  0  0  0  0  # atno 10763 bound_to 10752
  153.0093  135.6328  154.1936 H   0  0  0  0  0  0  0  0  0  0  0  0  # atno 10764 bound_to 10752
  154.1876  135.2884  155.3012 H   0  0  0  0  0  0  0  0  0  0  0  0  # atno 10765 bound_to 10752
  141.1661  133.7028  156.7844 H   0  0  0  0  0  0  0  0  0  0  0  0  # atno 11005 bound_to 11000
  144.7679  140.5571  143.6690 LP  0  0  0  0  0  0  0  0  0  0  0  0  # atno 17320 bound_to 7965
  145.5286  139.1475  143.3512 LP  0  0  0  0  0  0  0  0  0  0  0  0  # atno 17321 bound_to 7965
  139.8493  143.7460  152.3178 LP  0  0  0  0  0  0  0  0  0  0  0  0  # atno 17342 bound_to 10162
  139.7636  144.7499  151.0327 LP  0  0  0  0  0  0  0  0  0  0  0  0  # atno 17343 bound_to 10162
  156.9435  130.5393  149.5280 LP  0  0  0  0  0  0  0  0  0  0  0  0  # atno 17370 bound_to 10713
  156.0486  130.5559  150.8939 LP  0  0  0  0  0  0  0  0  0  0  0  0  # atno 17371 bound_to 10713
  140.2371  134.8641  157.3536 LP  0  0  0  0  0  0  0  0  0  0  0  0  # atno 17394 bound_to 11000
  140.1833  134.4463  155.7759 LP  0  0  0  0  0  0  0  0  0  0  0  0  # atno 17395 bound_to 11000

$$$$
