AV-unprocessed.smi:47|AV-procd|sdf|438|dock6
  -GOLD-   2262016303D 1   1.00000     0.00000
 Structure written by MMmdl.
 31 33  0  0  0  0  0  0  0  0  1 V2000
  151.8117  136.5718  153.9969 O   0  0  0  0  0  0  0  0  0  0  0  0
  151.1453  137.5064  154.8188 C   0  0  2  0  0  0  0  0  0  0  0  0
  149.7916  136.9987  155.2975 C   0  0  0  0  0  0  0  0  0  0  0  0
  149.0718  138.2011  155.6914 N   0  0  0  0  0  0  0  0  0  0  0  0
  149.5159  139.2948  154.8186 C   0  0  1  0  0  0  0  0  0  0  0  0
  149.7896  140.5601  155.5728 C   0  0  0  0  0  0  0  0  0  0  0  0
  149.2653  141.7154  155.1764 N   0  0  0  0  0  0  0  0  0  0  0  0
  149.7908  142.5791  156.0692 N   0  0  0  0  0  0  0  0  0  0  0  0
  150.5954  141.9339  156.9234 C   0  0  0  0  0  0  0  0  0  0  0  0
  151.3396  142.5695  158.0129 C   0  0  0  0  0  0  0  0  0  0  0  0
  151.5021  143.9740  158.0469 C   0  0  0  0  0  0  0  0  0  0  0  0
  152.2222  144.5848  159.0922 C   0  0  0  0  0  0  0  0  0  0  0  0
  152.7863  143.7984  160.1141 C   0  0  0  0  0  0  0  0  0  0  0  0
  152.6287  142.4002  160.0905 C   0  0  0  0  0  0  0  0  0  0  0  0
  151.9092  141.7886  159.0456 C   0  0  0  0  0  0  0  0  0  0  0  0
  150.6357  140.6310  156.6447 N   0  0  0  0  0  0  0  0  0  0  0  0
  150.7684  138.7865  154.0792 C   0  0  0  0  0  0  0  0  0  0  0  0
  151.7738  137.7472  155.6777 H   0  0  0  0  0  0  0  0  0  0  0  0
  148.7397  139.4997  154.0800 H   0  0  0  0  0  0  0  0  0  0  0  0
  149.5905  143.5687  156.0552 H   0  0  0  0  0  0  0  0  0  0  0  0
  151.3178  136.4696  153.1975 H   0  0  0  0  0  0  0  0  0  0  0  0
  149.2655  136.5093  154.4765 H   0  0  0  0  0  0  0  0  0  0  0  0
  149.8737  136.2844  156.1171 H   0  0  0  0  0  0  0  0  0  0  0  0
  148.0765  138.0443  155.5707 H   0  0  0  0  0  0  0  0  0  0  0  0
  151.0786  144.5968  157.2727 H   0  0  0  0  0  0  0  0  0  0  0  0
  152.3423  145.6580  159.1092 H   0  0  0  0  0  0  0  0  0  0  0  0
  153.3389  144.2669  160.9151 H   0  0  0  0  0  0  0  0  0  0  0  0
  153.0606  141.7950  160.8739 H   0  0  0  0  0  0  0  0  0  0  0  0
  151.8008  140.7138  159.0465 H   0  0  0  0  0  0  0  0  0  0  0  0
  151.5849  139.5094  154.0472 H   0  0  0  0  0  0  0  0  0  0  0  0
  150.4994  138.5531  153.0477 H   0  0  0  0  0  0  0  0  0  0  0  0
  1  2  1  0  0  0  0
  1 21  1  0  0  0  0
  2 18  1  0  0  0  0
  2 17  1  0  0  0  0
  2  3  1  0  0  0  0
  3  4  1  0  0  0  0
  3 22  1  0  0  0  0
  3 23  1  0  0  0  0
  4  5  1  0  0  0  0
  4 24  1  0  0  0  0
  5 19  1  0  0  0  0
  5  6  1  0  0  0  0
  5 17  1  0  0  0  0
  6 16  1  0  0  0  0
  6  7  2  0  0  0  0
  7  8  1  0  0  0  0
  8 20  1  0  0  0  0
  8  9  1  0  0  0  0
  9 10  1  0  0  0  0
  9 16  2  0  0  0  0
 10 15  1  0  0  0  0
 10 11  2  0  0  0  0
 11 12  1  0  0  0  0
 11 25  1  0  0  0  0
 12 13  2  0  0  0  0
 12 26  1  0  0  0  0
 13 14  1  0  0  0  0
 13 27  1  0  0  0  0
 14 15  2  0  0  0  0
 14 28  1  0  0  0  0
 15 29  1  0  0  0  0
 17 30  1  0  0  0  0
 17 31  1  0  0  0  0
M  END
> <s_m_source_file>
AV-unprocessed.smi

> <i_m_source_file_index>
47

> <i_lp_mmshare_version>
43012

> <i_f3d_flags>
0

> <s_epik_input>
W09IXVtDQEhdMVtDSDJdW05IXVtDQEBIXShbQ0gyXTEpYzJuW25IXWMobjIpLWMzW2NIXVtjSF1bY0hdW2NIXVtjSF0z

> <s_epik_cmdline>
J2VwaWtfcHl0aG9uJywgJy1waCcsICc3LjAnLCAnLXRuJywgJzgnLCAnLW1hJywgJzIwMCcsICctbWV0YWxfYmluZGluZycsICctaW1hZScsICc8aW5maWxlLm1hZT4nLCAnLW9tYWUnLCAnPG91dGZpbGUubWFlPic=

> <r_epik_Ionization_Penalty>
1.65981

> <r_epik_Ionization_Penalty_Charging>
0

> <r_epik_Ionization_Penalty_Neutral>
1.65981

> <r_epik_State_Penalty>
2.0492

> <r_epik_Charging_Adjusted_Penalty>
2.0492

> <i_epik_Tot_Q>
0

> <i_epik_Tot_abs_Q>
0

> <r_epik_Metal_State_Penalty>
2.54641

> <b_epik_Metal_Only>
0

> <s_lp_Force_Field>
OPLS_2005

> <r_lp_Energy>
25.8544

> <b_lp_Chiralities_Consistent>
1

> <s_lp_Variant>
AV-unprocessed.smi:47-16

> <Gold.Version>
5.8.1

> <Gold.Id.Protein>
6NUR|6NUR_protein|mol2

> <Gold.PLP.Fitness>
42.8670

> <Gold.PLP.PLP>
-35.2608

> <Gold.PLP.part.hbond>
-2.2731

> <Gold.PLP.part.metal>
0.0000

> <Gold.PLP.part.buried>
-6.2988

> <Gold.PLP.part.nonpolar>
-28.2989

> <Gold.PLP.part.repulsive>
0.7388

> <Gold.PLP.ligand.clash>
0.0000

> <Gold.PLP.ligand.torsion>
0.2286

> <Gold.PLP.Chemscore.Hbond>
2.6825

> <Gold.PLP.Chemscore.CHOScore>
0.0000

> <Gold.PLP.Chemscore.Metal>
0.0000

> <Gold.Chemscore.Hbonds>
donor molecule, donor type, donor heavy atom, donor atom, acceptor molecule, acceptor atom, score
      L1  H     1    21       P1  7949  1.00
      L1  H     8    20       P1  8028  0.68
      P1  H 10752 10763       L1     1  0.94

> <Gold.PLP.Chemscore.Internal.Correction>
0.0159

> <Gold.Rescore>
     Score         DG    S(hbond)    S(metal)    S(lipo)     H(rot)  DE(clash)    DE(int)     intcor
     20.30     -21.01       2.52        0.00      93.23       1.48       0.41       0.30       ----

> <Gold.Chemscore.Fitness>
20.2964

> <Gold.Chemscore.DG>
-21.0065

> <Gold.Chemscore.ZeroCoef>
-5.4800

> <Gold.Chemscore.Hbond>
2.5161

> <Gold.Chemscore.Metal>
0.0000

> <Gold.Chemscore.Lipo>
93.2314

> <Gold.Chemscore.Internal_Hbond>
0.0000

> <Gold.Chemscore.DEClash>
0.4091

> <Gold.Chemscore.DEInternal>
0.3010

> <Gold.Chemscore.Rot>
1.4786

> <Gold.Chemscore.Internal.Correction>
   9.000000E+99

> <Gold.Chemscore.Hbonds>
donor molecule, donor type, donor heavy atom, donor atom, acceptor molecule, acceptor atom, score
      L1  H     1    21       P1  7949  0.67
      L1  H     8    20       P1  8028  0.67
      P1  H 10752 10763       L1     1  0.88

> <Gold.Chemscore.Hbond.Weighted>
-8.4037

> <Gold.Chemscore.Metal.Weighted>
-0.0000

> <Gold.Chemscore.Lipo.Weighted>
-10.9081

> <Gold.Chemscore.Internal_Hbond.Weighted>
0.0000

> <Gold.Chemscore.DEClash.Weighted>
0.4091

> <Gold.Chemscore.DEInternal.Weighted>
0.3010

> <Gold.Chemscore.Rot.Weighted>
3.7853

> <Gold.Chemscore.Internal.Correction.Weighted>
   9.000000E+99

> <Gold.Protein.RotatedTorsions>
[ 6907 6896 6895 6894 ] final -103.30 input  -60.11 | X-H torsion
[ 7974 7965 7964 7962 ] final -171.96 input  175.53 | X-H torsion
[ 8008 7997 7996 7995 ] final  167.87 input   59.86 | X-H torsion
[ 10167 10162 10161 10158 ] final  163.30 input  -65.29 | X-H torsion
[ 10718 10713 10712 10709 ] final   44.28 input   66.30 | X-H torsion
[ 10763 10752 10751 10750 ] final   48.55 input  -60.55 | X-H torsion
[ 11005 11000 10999 10996 ] final  -11.97 input  -57.11 | X-H torsion

> <Gold.Protein.ActiveResidues>
 VAL166  LYS551  ARG553  GLY616  TRP617  ASP618  TYR619  PRO620  LYS621  CYS622 
 ASP623  PHE694  ASN695  SER759  ASP760  ASP761  ALA762  ILE779  LEU786  VAL792 
 PHE793  MET794  SER795  GLU796  ALA797  LYS798  CYS799  TRP800  GLU811  SER814 

> <Gold.Protein.RotatedAtoms>
  150.7234  134.0450  159.3778 H   0  0  0  0  0  0  0  0  0  0  0  0  # atno 6907 bound_to 6896
  151.8425  135.0583  160.0459 H   0  0  0  0  0  0  0  0  0  0  0  0  # atno 6908 bound_to 6896
  152.2852  133.5472  159.5559 H   0  0  0  0  0  0  0  0  0  0  0  0  # atno 6909 bound_to 6896
  144.7151  140.1845  143.6355 H   0  0  0  0  0  0  0  0  0  0  0  0  # atno 7974 bound_to 7965
  156.1596  140.1605  156.8634 H   0  0  0  0  0  0  0  0  0  0  0  0  # atno 8008 bound_to 7997
  154.5148  140.0792  156.8095 H   0  0  0  0  0  0  0  0  0  0  0  0  # atno 8009 bound_to 7997
  155.3734  140.3401  155.4246 H   0  0  0  0  0  0  0  0  0  0  0  0  # atno 8010 bound_to 7997
  139.4872  144.4351  151.9022 H   0  0  0  0  0  0  0  0  0  0  0  0  # atno 10167 bound_to 10162
  157.4251  130.7992  149.7551 H   0  0  0  0  0  0  0  0  0  0  0  0  # atno 10718 bound_to 10713
  152.9791  135.5940  154.3945 H   0  0  0  0  0  0  0  0  0  0  0  0  # atno 10763 bound_to 10752
  154.3597  135.2767  155.2329 H   0  0  0  0  0  0  0  0  0  0  0  0  # atno 10764 bound_to 10752
  154.4331  135.6031  153.6136 H   0  0  0  0  0  0  0  0  0  0  0  0  # atno 10765 bound_to 10752
  140.7608  133.8516  155.9123 H   0  0  0  0  0  0  0  0  0  0  0  0  # atno 11005 bound_to 11000
  145.8826  139.2331  143.1596 LP  0  0  0  0  0  0  0  0  0  0  0  0  # atno 17320 bound_to 7965
  145.9980  140.8545  143.0033 LP  0  0  0  0  0  0  0  0  0  0  0  0  # atno 17321 bound_to 7965
  140.3800  144.2747  150.5909 LP  0  0  0  0  0  0  0  0  0  0  0  0  # atno 17342 bound_to 10162
  140.5241  143.2258  151.8342 LP  0  0  0  0  0  0  0  0  0  0  0  0  # atno 17343 bound_to 10162
  155.9894  130.3952  150.3076 LP  0  0  0  0  0  0  0  0  0  0  0  0  # atno 17370 bound_to 10713
  157.1227  131.0251  151.3002 LP  0  0  0  0  0  0  0  0  0  0  0  0  # atno 17371 bound_to 10713
  140.9665  134.1588  157.4612 LP  0  0  0  0  0  0  0  0  0  0  0  0  # atno 17394 bound_to 11000
  139.8771  134.9963  156.5789 LP  0  0  0  0  0  0  0  0  0  0  0  0  # atno 17395 bound_to 11000

$$$$
