AV-unprocessed.smi:3096|AV-procd|sdf|11796|dock4
  -GOLD-   2272017173D 1   1.00000     0.00000
 Structure written by MMmdl.
 33 33  0  0  0  0  0  0  0  0  2 V2000
  148.3344  139.7873  153.7301 C   0  0  0  0  0  0  0  0  0  0  0  0
  147.1648  139.7546  153.0747 C   0  0  0  0  0  0  0  0  0  0  0  0
  146.8107  138.7383  152.0119 C   0  0  0  0  0  0  0  0  0  0  0  0
  145.5055  138.1487  152.3328 N   0  0  0  0  0  0  0  0  0  0  0  0
  145.2618  136.8396  152.5390 C   0  0  0  0  0  0  0  0  0  0  0  0
  146.2644  135.9438  152.4493 N   0  3  0  0  0  0  0  0  0  0  0  0
  146.1362  134.4952  152.6486 C   0  0  0  0  0  0  0  0  0  0  0  0
  144.0138  136.4268  152.8356 N   0  0  0  0  0  0  0  0  0  0  0  0
  142.8383  137.2961  152.9765 C   0  0  0  0  0  0  0  0  0  0  0  0
  142.2214  137.1768  154.3762 C   0  0  0  0  0  0  0  0  0  0  0  0
  140.7978  137.4507  154.3554 N   0  0  0  0  0  0  0  0  0  0  0  0
  140.0961  138.2902  153.5157 C   0  0  0  0  0  0  0  0  0  0  0  0
  138.7813  138.2192  153.8775 C   0  0  0  0  0  0  0  0  0  0  0  0
  138.7776  137.2966  154.9609 C   0  0  0  0  0  0  0  0  0  0  0  0
  139.9863  136.8382  155.2443 N   0  0  0  0  0  0  0  0  0  0  0  0
  149.1107  139.0631  153.5313 H   0  0  0  0  0  0  0  0  0  0  0  0
  148.5302  140.5425  154.4773 H   0  0  0  0  0  0  0  0  0  0  0  0
  146.4139  140.4985  153.2993 H   0  0  0  0  0  0  0  0  0  0  0  0
  146.7635  139.2317  151.0409 H   0  0  0  0  0  0  0  0  0  0  0  0
  147.5697  137.9569  151.9590 H   0  0  0  0  0  0  0  0  0  0  0  0
  144.7316  138.7932  152.4099 H   0  0  0  0  0  0  0  0  0  0  0  0
  147.1025  134.0098  152.5109 H   0  0  0  0  0  0  0  0  0  0  0  0
  145.4324  134.0730  151.9312 H   0  0  0  0  0  0  0  0  0  0  0  0
  145.7811  134.2784  153.6561 H   0  0  0  0  0  0  0  0  0  0  0  0
  143.8634  135.4401  152.9910 H   0  0  0  0  0  0  0  0  0  0  0  0
  143.1422  138.3256  152.7840 H   0  0  0  0  0  0  0  0  0  0  0  0
  142.1028  137.0281  152.2175 H   0  0  0  0  0  0  0  0  0  0  0  0
  142.3767  136.1738  154.7758 H   0  0  0  0  0  0  0  0  0  0  0  0
  142.6991  137.8721  155.0682 H   0  0  0  0  0  0  0  0  0  0  0  0
  140.5844  138.8623  152.7402 H   0  0  0  0  0  0  0  0  0  0  0  0
  137.9482  138.7455  153.4354 H   0  0  0  0  0  0  0  0  0  0  0  0
  137.9387  136.9492  155.5461 H   0  0  0  0  0  0  0  0  0  0  0  0
  147.1893  136.2851  152.2287 H   0  0  0  0  0  0  0  0  0  0  0  0
  1  2  2  0  0  0  0
  1 16  1  0  0  0  0
  1 17  1  0  0  0  0
  2  3  1  0  0  0  0
  2 18  1  0  0  0  0
  3  4  1  0  0  0  0
  3 19  1  0  0  0  0
  3 20  1  0  0  0  0
  4  5  1  0  0  0  0
  4 21  1  0  0  0  0
  5  6  2  0  0  0  0
  5  8  1  0  0  0  0
  6  7  1  0  0  0  0
  6 33  1  0  0  0  0
  7 22  1  0  0  0  0
  7 23  1  0  0  0  0
  7 24  1  0  0  0  0
  8  9  1  0  0  0  0
  8 25  1  0  0  0  0
  9 10  1  0  0  0  0
  9 26  1  0  0  0  0
  9 27  1  0  0  0  0
 10 11  1  0  0  0  0
 10 28  1  0  0  0  0
 10 29  1  0  0  0  0
 11 15  1  0  0  0  0
 11 12  1  0  0  0  0
 12 13  2  0  0  0  0
 12 30  1  0  0  0  0
 13 14  1  0  0  0  0
 13 31  1  0  0  0  0
 14 15  2  0  0  0  0
 14 32  1  0  0  0  0
M  CHG  1   6   1
M  END
> <s_m_source_file>
AV-unprocessed.smi

> <i_m_source_file_index>
3096

> <i_lp_mmshare_version>
43012

> <i_f3d_flags>
0

> <s_epik_input>
W0NIMl09W0NIXVtDSDJdW05IXS9DKD1OL1tDSDNdKVtOSF1bQ0gyXVtDSDJdbjFbY0hdW2NIXVtjSF1uMQ==

> <s_epik_cmdline>
J2VwaWtfcHl0aG9uJywgJy1waCcsICc3LjAnLCAnLXRuJywgJzgnLCAnLW1hJywgJzIwMCcsICctbWV0YWxfYmluZGluZycsICctaW1hZScsICc8aW5maWxlLm1hZT4nLCAnLW9tYWUnLCAnPG91dGZpbGUubWFlPic=

> <r_lp_tautomer_probability>
1

> <r_epik_Ionization_Penalty>
5.14269e-05

> <r_epik_Ionization_Penalty_Charging>
1.55211e-07

> <r_epik_Ionization_Penalty_Neutral>
5.12717e-05

> <r_epik_State_Penalty>
-0

> <r_epik_Charging_Adjusted_Penalty>
1.55211e-07

> <i_epik_Tot_Q>
1

> <i_epik_Tot_abs_Q>
1

> <r_epik_Metal_State_Penalty>
-0

> <b_epik_Metal_Only>
0

> <s_epik_Chemistry_Notes>
This compound has an imine and may undergo hydrolysis.

> <s_lp_Force_Field>
OPLS_2005

> <r_lp_Energy>
4.847

> <b_lp_Chiralities_Consistent>
1

> <s_lp_Variant>
AV-unprocessed.smi:3096-1

> <Gold.Version>
5.8.1

> <Gold.Id.Protein>
6NUR|6NUR_protein|mol2

> <Gold.PLP.Fitness>
46.6314

> <Gold.PLP.PLP>
-29.8620

> <Gold.PLP.part.hbond>
-4.0000

> <Gold.PLP.part.metal>
0.0000

> <Gold.PLP.part.buried>
-2.6880

> <Gold.PLP.part.nonpolar>
-23.1121

> <Gold.PLP.part.repulsive>
0.1450

> <Gold.PLP.ligand.clash>
0.0000

> <Gold.PLP.ligand.torsion>
0.5884

> <Gold.PLP.Chemscore.Hbond>
4.9750

> <Gold.PLP.Chemscore.CHOScore>
1.0000

> <Gold.PLP.Chemscore.Metal>
0.0000

> <Gold.Chemscore.Hbonds>
donor molecule, donor type, donor heavy atom, donor atom, acceptor molecule, acceptor atom, score
      L1  H     4    21       P1 10175  2.00
      L1  H     6    33       P1  7948  2.00
      P1  H 11000 11005       L1    15  0.33
      L1  C    12    30       P1 10160  1.00

> <Gold.PLP.Chemscore.Internal.Correction>
0.0211

> <Gold.Rescore>
     Score         DG    S(hbond)    S(metal)    S(lipo)     H(rot)  DE(clash)    DE(int)     intcor
     16.44     -16.95       2.85        0.00      58.02       1.89       0.02       0.49       ----

> <Gold.Chemscore.Fitness>
16.4389

> <Gold.Chemscore.DG>
-16.9525

> <Gold.Chemscore.ZeroCoef>
-5.4800

> <Gold.Chemscore.Hbond>
2.8504

> <Gold.Chemscore.Metal>
0.0000

> <Gold.Chemscore.Lipo>
58.0199

> <Gold.Chemscore.Internal_Hbond>
0.0000

> <Gold.Chemscore.DEClash>
0.0234

> <Gold.Chemscore.DEInternal>
0.4901

> <Gold.Chemscore.Rot>
1.8891

> <Gold.Chemscore.Internal.Correction>
   9.000000E+99

> <Gold.Chemscore.Hbonds>
donor molecule, donor type, donor heavy atom, donor atom, acceptor molecule, acceptor atom, score
      L1  H     4    21       P1 10175  0.98
      L1  H     6    33       P1  7948  0.99
      P1  H 11000 11005       L1    15  0.29

> <Gold.Chemscore.Hbond.Weighted>
-9.5202

> <Gold.Chemscore.Metal.Weighted>
-0.0000

> <Gold.Chemscore.Lipo.Weighted>
-6.7883

> <Gold.Chemscore.Internal_Hbond.Weighted>
0.0000

> <Gold.Chemscore.DEClash.Weighted>
0.0234

> <Gold.Chemscore.DEInternal.Weighted>
0.4901

> <Gold.Chemscore.Rot.Weighted>
4.8361

> <Gold.Chemscore.Internal.Correction.Weighted>
   9.000000E+99

> <Gold.Protein.RotatedTorsions>
[ 6907 6896 6895 6894 ] final  -96.75 input  -60.11 | X-H torsion
[ 7974 7965 7964 7962 ] final -141.03 input  175.53 | X-H torsion
[ 8008 7997 7996 7995 ] final  107.95 input   59.86 | X-H torsion
[ 10167 10162 10161 10158 ] final  -19.07 input  -65.29 | X-H torsion
[ 10718 10713 10712 10709 ] final -137.78 input   66.30 | X-H torsion
[ 10763 10752 10751 10750 ] final   43.49 input  -60.55 | X-H torsion
[ 11005 11000 10999 10996 ] final   61.12 input  -57.11 | X-H torsion

> <Gold.Protein.ActiveResidues>
 VAL166  LYS551  ARG553  GLY616  TRP617  ASP618  TYR619  PRO620  LYS621  CYS622 
 ASP623  PHE694  ASN695  SER759  ASP760  ASP761  ALA762  ILE779  LEU786  VAL792 
 PHE793  MET794  SER795  GLU796  ALA797  LYS798  CYS799  TRP800  GLU811  SER814 

> <Gold.Protein.RotatedAtoms>
  150.6997  134.1454  159.4120 H   0  0  0  0  0  0  0  0  0  0  0  0  # atno 6907 bound_to 6896
  151.9438  135.0199  160.0547 H   0  0  0  0  0  0  0  0  0  0  0  0  # atno 6908 bound_to 6896
  152.2071  133.4848  159.5126 H   0  0  0  0  0  0  0  0  0  0  0  0  # atno 6909 bound_to 6896
  144.8551  140.6129  143.5365 H   0  0  0  0  0  0  0  0  0  0  0  0  # atno 7974 bound_to 7965
  156.1864  140.3085  155.9247 H   0  0  0  0  0  0  0  0  0  0  0  0  # atno 8008 bound_to 7997
  155.3270  140.0459  157.3058 H   0  0  0  0  0  0  0  0  0  0  0  0  # atno 8009 bound_to 7997
  154.5401  140.2259  155.8665 H   0  0  0  0  0  0  0  0  0  0  0  0  # atno 8010 bound_to 7997
  140.7265  143.4854  151.0062 H   0  0  0  0  0  0  0  0  0  0  0  0  # atno 10167 bound_to 10162
  156.2920  130.7380  151.1408 H   0  0  0  0  0  0  0  0  0  0  0  0  # atno 10718 bound_to 10713
  152.9860  135.6100  154.3120 H   0  0  0  0  0  0  0  0  0  0  0  0  # atno 10763 bound_to 10752
  154.2834  135.2776  155.2688 H   0  0  0  0  0  0  0  0  0  0  0  0  # atno 10764 bound_to 10752
  154.5017  135.5865  153.6592 H   0  0  0  0  0  0  0  0  0  0  0  0  # atno 10765 bound_to 10752
  140.0184  134.6190  155.9676 H   0  0  0  0  0  0  0  0  0  0  0  0  # atno 11005 bound_to 11000
  145.4422  139.1534  143.3964 LP  0  0  0  0  0  0  0  0  0  0  0  0  # atno 17320 bound_to 7965
  146.2816  140.4544  142.8774 LP  0  0  0  0  0  0  0  0  0  0  0  0  # atno 17321 bound_to 7965
  139.8555  143.7382  152.3176 LP  0  0  0  0  0  0  0  0  0  0  0  0  # atno 17342 bound_to 10162
  139.7579  144.7515  151.0408 LP  0  0  0  0  0  0  0  0  0  0  0  0  # atno 17343 bound_to 10162
  157.7345  131.0581  150.5522 LP  0  0  0  0  0  0  0  0  0  0  0  0  # atno 17370 bound_to 10713
  156.5639  130.4262  149.6050 LP  0  0  0  0  0  0  0  0  0  0  0  0  # atno 17371 bound_to 10713
  141.1758  133.6540  156.4822 LP  0  0  0  0  0  0  0  0  0  0  0  0  # atno 17394 bound_to 11000
  140.4431  134.6998  157.5002 LP  0  0  0  0  0  0  0  0  0  0  0  0  # atno 17395 bound_to 11000

$$$$
