AV-unprocessed.smi:1826|AV-procd|sdf|7416|dock8
  -GOLD-   22720 9 93D 1   1.00000     0.00000
 Structure written by MMmdl.
 39 41  0  0  0  0  0  0  0  0  1 V2000
  146.7702  137.2612  153.3464 O   0  0  0  0  0  0  0  0  0  0  0  0
  145.9740  136.2512  153.9283 C   0  0  0  0  0  0  0  0  0  0  0  0
  145.4907  135.2474  152.9269 C   0  0  0  0  0  0  0  0  0  0  0  0
  146.2827  134.7792  151.9611 N   0  0  0  0  0  0  0  0  0  0  0  0
  145.4532  133.9070  151.2837 C   0  0  0  0  0  0  0  0  0  0  0  0
  145.7006  133.0932  150.1549 C   0  0  0  0  0  0  0  0  0  0  0  0
  144.6818  132.2706  149.6311 C   0  0  0  0  0  0  0  0  0  0  0  0
  143.4038  132.2501  150.2265 C   0  0  0  0  0  0  0  0  0  0  0  0
  143.1362  133.0533  151.3517 C   0  0  0  0  0  0  0  0  0  0  0  0
  144.1569  133.8719  151.8709 C   0  0  0  0  0  0  0  0  0  0  0  0
  144.2246  134.7583  152.9404 N   0  0  0  0  0  0  0  0  0  0  0  0
  143.1378  135.0719  153.8589 C   0  0  0  0  0  0  0  0  0  0  0  0
  141.7621  135.0956  153.1630 C   0  0  1  0  0  0  0  0  0  0  0  0
  140.9940  133.9787  153.5676 O   0  0  0  0  0  0  0  0  0  0  0  0
  141.0384  136.4095  153.4124 C   0  0  0  0  0  0  0  0  0  0  0  0
  139.6558  136.4121  153.6925 C   0  0  0  0  0  0  0  0  0  0  0  0
  138.9797  137.6265  153.9195 C   0  0  0  0  0  0  0  0  0  0  0  0
  139.6755  138.8529  153.8693 C   0  0  0  0  0  0  0  0  0  0  0  0
  138.9247  140.1536  154.1139 C   0  0  0  0  0  0  0  0  0  0  0  0
  139.7408  141.2081  154.1000 F   0  0  0  0  0  0  0  0  0  0  0  0
  138.0034  140.3156  153.1649 F   0  0  0  0  0  0  0  0  0  0  0  0
  138.3167  140.1095  155.2995 F   0  0  0  0  0  0  0  0  0  0  0  0
  141.0580  138.8501  153.5807 C   0  0  0  0  0  0  0  0  0  0  0  0
  141.7347  137.6360  153.3538 C   0  0  0  0  0  0  0  0  0  0  0  0
  147.5448  136.8597  152.9839 H   0  0  0  0  0  0  0  0  0  0  0  0
  146.5614  135.7425  154.6936 H   0  0  0  0  0  0  0  0  0  0  0  0
  145.1247  136.7057  154.4380 H   0  0  0  0  0  0  0  0  0  0  0  0
  146.6759  133.1022  149.6914 H   0  0  0  0  0  0  0  0  0  0  0  0
  144.8816  131.6528  148.7679 H   0  0  0  0  0  0  0  0  0  0  0  0
  142.6289  131.6175  149.8186 H   0  0  0  0  0  0  0  0  0  0  0  0
  142.1588  133.0403  151.8105 H   0  0  0  0  0  0  0  0  0  0  0  0
  143.1391  134.3635  154.6870 H   0  0  0  0  0  0  0  0  0  0  0  0
  143.3451  136.0480  154.2994 H   0  0  0  0  0  0  0  0  0  0  0  0
  141.9131  134.9908  152.0878 H   0  0  0  0  0  0  0  0  0  0  0  0
  141.5507  133.2150  153.5615 H   0  0  0  0  0  0  0  0  0  0  0  0
  139.1068  135.4828  153.7334 H   0  0  0  0  0  0  0  0  0  0  0  0
  137.9206  137.6165  154.1320 H   0  0  0  0  0  0  0  0  0  0  0  0
  141.6101  139.7766  153.5288 H   0  0  0  0  0  0  0  0  0  0  0  0
  142.7917  137.6497  153.1312 H   0  0  0  0  0  0  0  0  0  0  0  0
  1  2  1  0  0  0  0
  1 25  1  0  0  0  0
  2  3  1  0  0  0  0
  2 26  1  0  0  0  0
  2 27  1  0  0  0  0
  3 11  1  0  0  0  0
  3  4  2  0  0  0  0
  4  5  1  0  0  0  0
  5 10  2  0  0  0  0
  5  6  1  0  0  0  0
  6  7  2  0  0  0  0
  6 28  1  0  0  0  0
  7  8  1  0  0  0  0
  7 29  1  0  0  0  0
  8  9  2  0  0  0  0
  8 30  1  0  0  0  0
  9 10  1  0  0  0  0
  9 31  1  0  0  0  0
 10 11  1  0  0  0  0
 11 12  1  0  0  0  0
 12 13  1  0  0  0  0
 12 32  1  0  0  0  0
 12 33  1  0  0  0  0
 13 14  1  0  0  0  0
 13 15  1  0  0  0  0
 13 34  1  0  0  0  0
 14 35  1  0  0  0  0
 15 24  1  0  0  0  0
 15 16  2  0  0  0  0
 16 17  1  0  0  0  0
 16 36  1  0  0  0  0
 17 18  2  0  0  0  0
 17 37  1  0  0  0  0
 18 19  1  0  0  0  0
 18 23  1  0  0  0  0
 19 20  1  0  0  0  0
 19 21  1  0  0  0  0
 19 22  1  0  0  0  0
 23 24  2  0  0  0  0
 23 38  1  0  0  0  0
 24 39  1  0  0  0  0
M  END
> <s_m_source_file>
AV-unprocessed.smi

> <i_m_source_file_index>
1826

> <i_lp_mmshare_version>
43012

> <i_f3d_flags>
0

> <s_epik_input>
W2NIXTFbY0hdW2NIXVtjSF1jKGMxMiluKGMobjIpW0NIMl1bT0hdKVtDSDJdW0NASF0oW09IXSljM1tjSF1bY0hdYyhDKEYpKEYpRilbY0hdW2NIXTM=

> <s_epik_cmdline>
J2VwaWtfcHl0aG9uJywgJy1waCcsICc3LjAnLCAnLXRuJywgJzgnLCAnLW1hJywgJzIwMCcsICctbWV0YWxfYmluZGluZycsICctaW1hZScsICc8aW5maWxlLm1hZT4nLCAnLW9tYWUnLCAnPG91dGZpbGUubWFlPic=

> <r_epik_Ionization_Penalty>
0.0634718

> <r_epik_Ionization_Penalty_Charging>
0

> <r_epik_Ionization_Penalty_Neutral>
0.0634718

> <r_epik_State_Penalty>
0.0551572

> <r_epik_Charging_Adjusted_Penalty>
0.0551572

> <i_epik_Tot_Q>
0

> <i_epik_Tot_abs_Q>
0

> <r_epik_Metal_State_Penalty>
5.78034e-05

> <b_epik_Metal_Only>
0

> <s_lp_Force_Field>
OPLS_2005

> <r_lp_Energy>
14.1967

> <b_lp_Chiralities_Consistent>
1

> <s_lp_Variant>
AV-unprocessed.smi:1826-2

> <Gold.Version>
5.8.1

> <Gold.Id.Protein>
6NUR|6NUR_protein|mol2

> <Gold.PLP.Fitness>
51.6071

> <Gold.PLP.PLP>
-45.7101

> <Gold.PLP.part.hbond>
-4.0000

> <Gold.PLP.part.metal>
0.0000

> <Gold.PLP.part.buried>
-5.7933

> <Gold.PLP.part.nonpolar>
-38.2914

> <Gold.PLP.part.repulsive>
1.2408

> <Gold.PLP.ligand.clash>
0.0000

> <Gold.PLP.ligand.torsion>
1.7609

> <Gold.PLP.Chemscore.Hbond>
3.0988

> <Gold.PLP.Chemscore.CHOScore>
0.0000

> <Gold.PLP.Chemscore.Metal>
0.0000

> <Gold.Chemscore.Hbonds>
donor molecule, donor type, donor heavy atom, donor atom, acceptor molecule, acceptor atom, score
      L1  H     1    25       P1  7948  1.00
      L1  H    14    35       P1 10957  0.61
      P1  H 10995 11001       L1    14  0.18
      P1  H 11000 11005       L1    14  0.57

> <Gold.PLP.Chemscore.Internal.Correction>
0.1224

> <Gold.Rescore>
     Score         DG    S(hbond)    S(metal)    S(lipo)     H(rot)  DE(clash)    DE(int)     intcor
     16.73     -18.42       2.58        0.00     100.61       2.91       0.09       1.59       ----

> <Gold.Chemscore.Fitness>
16.7324

> <Gold.Chemscore.DG>
-18.4163

> <Gold.Chemscore.ZeroCoef>
-5.4800

> <Gold.Chemscore.Hbond>
2.5823

> <Gold.Chemscore.Metal>
0.0000

> <Gold.Chemscore.Lipo>
100.6104

> <Gold.Chemscore.Internal_Hbond>
0.0000

> <Gold.Chemscore.DEClash>
0.0932

> <Gold.Chemscore.DEInternal>
1.5907

> <Gold.Chemscore.Rot>
2.9141

> <Gold.Chemscore.Internal.Correction>
   9.000000E+99

> <Gold.Chemscore.Hbonds>
donor molecule, donor type, donor heavy atom, donor atom, acceptor molecule, acceptor atom, score
      L1  H     1    25       P1  7948  1.00
      L1  H    14    35       P1 10957  0.53
      P1  H 10995 11001       L1    14  0.03
      P1  H 11000 11005       L1    14  0.13

> <Gold.Chemscore.Hbond.Weighted>
-8.6248

> <Gold.Chemscore.Metal.Weighted>
-0.0000

> <Gold.Chemscore.Lipo.Weighted>
-11.7714

> <Gold.Chemscore.Internal_Hbond.Weighted>
0.0000

> <Gold.Chemscore.DEClash.Weighted>
0.0932

> <Gold.Chemscore.DEInternal.Weighted>
1.5907

> <Gold.Chemscore.Rot.Weighted>
7.4600

> <Gold.Chemscore.Internal.Correction.Weighted>
   9.000000E+99

> <Gold.Protein.RotatedTorsions>
[ 6907 6896 6895 6894 ] final   97.44 input  -60.11 | X-H torsion
[ 7974 7965 7964 7962 ] final   75.12 input  175.53 | X-H torsion
[ 8008 7997 7996 7995 ] final  149.74 input   59.86 | X-H torsion
[ 10167 10162 10161 10158 ] final  -39.41 input  -65.29 | X-H torsion
[ 10718 10713 10712 10709 ] final   57.08 input   66.30 | X-H torsion
[ 10763 10752 10751 10750 ] final  109.92 input  -60.55 | X-H torsion
[ 11005 11000 10999 10996 ] final   15.80 input  -57.11 | X-H torsion

> <Gold.Protein.ActiveResidues>
 VAL166  LYS551  ARG553  GLY616  TRP617  ASP618  TYR619  PRO620  LYS621  CYS622 
 ASP623  PHE694  ASN695  SER759  ASP760  ASP761  ALA762  ILE779  LEU786  VAL792 
 PHE793  MET794  SER795  GLU796  ALA797  LYS798  CYS799  TRP800  GLU811  SER814 

> <Gold.Protein.RotatedAtoms>
  152.5423  134.0734  159.8203 H   0  0  0  0  0  0  0  0  0  0  0  0  # atno 6907 bound_to 6896
  151.0845  133.5356  159.2626 H   0  0  0  0  0  0  0  0  0  0  0  0  # atno 6908 bound_to 6896
  151.2171  135.0512  159.8989 H   0  0  0  0  0  0  0  0  0  0  0  0  # atno 6909 bound_to 6896
  145.7197  139.2644  143.1603 H   0  0  0  0  0  0  0  0  0  0  0  0  # atno 7974 bound_to 7965
  156.2743  140.2093  156.5906 H   0  0  0  0  0  0  0  0  0  0  0  0  # atno 8008 bound_to 7997
  154.6985  140.0523  157.0458 H   0  0  0  0  0  0  0  0  0  0  0  0  # atno 8009 bound_to 7997
  155.0768  140.3182  155.4616 H   0  0  0  0  0  0  0  0  0  0  0  0  # atno 8010 bound_to 7997
  140.7065  143.3216  151.2779 H   0  0  0  0  0  0  0  0  0  0  0  0  # atno 10167 bound_to 10162
  157.5485  130.8748  149.8927 H   0  0  0  0  0  0  0  0  0  0  0  0  # atno 10718 bound_to 10713
  153.4415  135.3765  155.2231 H   0  0  0  0  0  0  0  0  0  0  0  0  # atno 10763 bound_to 10752
  154.8754  135.3864  154.4146 H   0  0  0  0  0  0  0  0  0  0  0  0  # atno 10764 bound_to 10752
  153.4693  135.7087  153.6067 H   0  0  0  0  0  0  0  0  0  0  0  0  # atno 10765 bound_to 10752
  140.4542  134.1193  155.7707 H   0  0  0  0  0  0  0  0  0  0  0  0  # atno 11005 bound_to 11000
  146.0637  140.7943  142.9722 LP  0  0  0  0  0  0  0  0  0  0  0  0  # atno 17320 bound_to 7965
  144.6920  140.3236  143.7228 LP  0  0  0  0  0  0  0  0  0  0  0  0  # atno 17321 bound_to 7965
  139.6671  144.0085  152.2730 LP  0  0  0  0  0  0  0  0  0  0  0  0  # atno 17342 bound_to 10162
  139.9671  144.6518  150.8024 LP  0  0  0  0  0  0  0  0  0  0  0  0  # atno 17343 bound_to 10162
  156.0556  130.3709  150.1099 LP  0  0  0  0  0  0  0  0  0  0  0  0  # atno 17370 bound_to 10713
  156.9274  130.9702  151.3539 LP  0  0  0  0  0  0  0  0  0  0  0  0  # atno 17371 bound_to 10713
  141.1650  133.8719  157.1739 LP  0  0  0  0  0  0  0  0  0  0  0  0  # atno 17394 bound_to 11000
  139.9987  135.0036  157.0141 LP  0  0  0  0  0  0  0  0  0  0  0  0  # atno 17395 bound_to 11000

$$$$
