AV-unprocessed.smi:3327|AV-procd|sdf|12789|dock1
  -GOLD-   2272019143D 1   1.00000     0.00000
 Structure written by MMmdl.
 40 41  0  0  0  0  0  0  0  0  1 V2000
  153.3802  142.6012  161.3170 C   0  0  0  0  0  0  0  0  0  0  0  0
  152.9271  142.5095  159.8531 C   0  0  2  0  0  0  0  0  0  0  0  0
  152.2253  143.8061  159.3952 C   0  0  0  0  0  0  0  0  0  0  0  0
  151.6587  143.6808  157.9685 C   0  0  0  0  0  0  0  0  0  0  0  0
  150.8043  142.4092  157.8235 C   0  0  0  0  0  0  0  0  0  0  0  0
  151.6223  141.2475  158.1988 N   0  0  0  0  0  0  0  0  0  0  0  0
  152.0982  140.3069  157.3458 C   0  0  0  0  0  0  0  0  0  0  0  0
  152.8801  139.4282  157.7147 O   0  0  0  0  0  0  0  0  0  0  0  0
  151.6721  140.3548  155.8639 C   0  0  0  0  0  0  0  0  0  0  0  0
  150.2506  140.0688  155.6064 N   0  0  0  0  0  0  0  0  0  0  0  0
  150.0211  139.3571  154.3524 C   0  0  0  0  0  0  0  0  0  0  0  0
  148.5149  139.1397  154.1291 C   0  0  0  0  0  0  0  0  0  0  0  0
  147.7426  140.3567  154.3064 N   0  0  0  0  0  0  0  0  0  0  0  0
  147.8208  141.5335  153.5917 C   0  0  0  0  0  0  0  0  0  0  0  0
  146.8982  142.3911  154.1186 C   0  0  0  0  0  0  0  0  0  0  0  0
  146.2965  141.6384  155.1655 C   0  0  0  0  0  0  0  0  0  0  0  0
  146.8019  140.4202  155.2738 N   0  0  0  0  0  0  0  0  0  0  0  0
  152.0047  141.2947  159.6169 C   0  0  0  0  0  0  0  0  0  0  0  0
  152.5300  142.7239  161.9889 H   0  0  0  0  0  0  0  0  0  0  0  0
  154.0496  143.4486  161.4684 H   0  0  0  0  0  0  0  0  0  0  0  0
  153.9157  141.7008  161.6186 H   0  0  0  0  0  0  0  0  0  0  0  0
  153.8203  142.3760  159.2406 H   0  0  0  0  0  0  0  0  0  0  0  0
  151.4079  144.0350  160.0803 H   0  0  0  0  0  0  0  0  0  0  0  0
  152.9156  144.6485  159.4477 H   0  0  0  0  0  0  0  0  0  0  0  0
  151.0653  144.5625  157.7249 H   0  0  0  0  0  0  0  0  0  0  0  0
  152.4791  143.6512  157.2501 H   0  0  0  0  0  0  0  0  0  0  0  0
  149.9372  142.4651  158.4833 H   0  0  0  0  0  0  0  0  0  0  0  0
  150.3987  142.3607  156.8150 H   0  0  0  0  0  0  0  0  0  0  0  0
  151.9076  141.3319  155.4407 H   0  0  0  0  0  0  0  0  0  0  0  0
  152.2681  139.6208  155.3210 H   0  0  0  0  0  0  0  0  0  0  0  0
  149.6898  140.9082  155.6416 H   0  0  0  0  0  0  0  0  0  0  0  0
  150.4221  139.9252  153.5136 H   0  0  0  0  0  0  0  0  0  0  0  0
  150.5420  138.3986  154.3643 H   0  0  0  0  0  0  0  0  0  0  0  0
  148.3266  138.7428  153.1305 H   0  0  0  0  0  0  0  0  0  0  0  0
  148.1413  138.3953  154.8336 H   0  0  0  0  0  0  0  0  0  0  0  0
  148.5193  141.6612  152.7780 H   0  0  0  0  0  0  0  0  0  0  0  0
  146.6856  143.4021  153.8048 H   0  0  0  0  0  0  0  0  0  0  0  0
  145.5114  141.9382  155.8437 H   0  0  0  0  0  0  0  0  0  0  0  0
  152.4982  140.3798  159.9484 H   0  0  0  0  0  0  0  0  0  0  0  0
  151.1049  141.3790  160.2284 H   0  0  0  0  0  0  0  0  0  0  0  0
  1  2  1  0  0  0  0
  1 19  1  0  0  0  0
  1 20  1  0  0  0  0
  1 21  1  0  0  0  0
  2 18  1  0  0  0  0
  2  3  1  0  0  0  0
  2 22  1  0  0  0  0
  3  4  1  0  0  0  0
  3 23  1  0  0  0  0
  3 24  1  0  0  0  0
  4  5  1  0  0  0  0
  4 25  1  0  0  0  0
  4 26  1  0  0  0  0
  5  6  1  0  0  0  0
  5 27  1  0  0  0  0
  5 28  1  0  0  0  0
  6  7  1  0  0  0  0
  6 18  1  0  0  0  0
  7  8  2  0  0  0  0
  7  9  1  0  0  0  0
  9 10  1  0  0  0  0
  9 29  1  0  0  0  0
  9 30  1  0  0  0  0
 10 11  1  0  0  0  0
 10 31  1  0  0  0  0
 11 12  1  0  0  0  0
 11 32  1  0  0  0  0
 11 33  1  0  0  0  0
 12 13  1  0  0  0  0
 12 34  1  0  0  0  0
 12 35  1  0  0  0  0
 13 17  1  0  0  0  0
 13 14  1  0  0  0  0
 14 15  2  0  0  0  0
 14 36  1  0  0  0  0
 15 16  1  0  0  0  0
 15 37  1  0  0  0  0
 16 17  2  0  0  0  0
 16 38  1  0  0  0  0
 18 39  1  0  0  0  0
 18 40  1  0  0  0  0
M  END
> <s_m_source_file>
AV-unprocessed.smi

> <i_m_source_file_index>
3327

> <i_lp_mmshare_version>
43012

> <i_f3d_flags>
0

> <s_epik_input>
W0NIM11bQ0BASF0xW0NIMl1bQ0gyXVtDSDJdTihbQ0gyXTEpQyg9TylbQ0gyXVtOSF1bQ0gyXVtDSDJdbjJbY0hdW2NIXVtjSF1uMg==

> <s_epik_cmdline>
J2VwaWtfcHl0aG9uJywgJy1waCcsICc3LjAnLCAnLXRuJywgJzgnLCAnLW1hJywgJzIwMCcsICctbWV0YWxfYmluZGluZycsICctaW1hZScsICc8aW5maWxlLm1hZT4nLCAnLW9tYWUnLCAnPG91dGZpbGUubWFlPic=

> <r_lp_tautomer_probability>
1

> <r_epik_Ionization_Penalty>
0.752964

> <r_epik_Ionization_Penalty_Charging>
0

> <r_epik_Ionization_Penalty_Neutral>
0.752964

> <r_epik_State_Penalty>
0.778238

> <r_epik_Charging_Adjusted_Penalty>
0.778238

> <i_epik_Tot_Q>
0

> <i_epik_Tot_abs_Q>
0

> <r_epik_Metal_State_Penalty>
0.776974

> <b_epik_Metal_Only>
0

> <s_lp_Force_Field>
OPLS_2005

> <r_lp_Energy>
27.1089

> <b_lp_Chiralities_Consistent>
1

> <s_lp_Variant>
AV-unprocessed.smi:3327-3

> <Gold.Version>
5.8.1

> <Gold.Id.Protein>
6NUR|6NUR_protein|mol2

> <Gold.PLP.Fitness>
45.2650

> <Gold.PLP.PLP>
-39.8455

> <Gold.PLP.part.hbond>
-1.0000

> <Gold.PLP.part.metal>
0.0000

> <Gold.PLP.part.buried>
-3.9834

> <Gold.PLP.part.nonpolar>
-34.2234

> <Gold.PLP.part.repulsive>
0.0499

> <Gold.PLP.ligand.clash>
0.0000

> <Gold.PLP.ligand.torsion>
0.3209

> <Gold.PLP.Chemscore.Hbond>
1.0000

> <Gold.PLP.Chemscore.CHOScore>
1.0000

> <Gold.PLP.Chemscore.Metal>
0.0000

> <Gold.Chemscore.Hbonds>
donor molecule, donor type, donor heavy atom, donor atom, acceptor molecule, acceptor atom, score
      P1  H  7997  8010       L1     8  1.00
      L1  C    14    36       P1  7957  1.00

> <Gold.PLP.Chemscore.Internal.Correction>
0.0612

> <Gold.Rescore>
     Score         DG    S(hbond)    S(metal)    S(lipo)     H(rot)  DE(clash)    DE(int)     intcor
     15.66     -16.20       0.89        0.00     104.04       1.73       0.26       0.28       ----

> <Gold.Chemscore.Fitness>
15.6648

> <Gold.Chemscore.DG>
-16.2012

> <Gold.Chemscore.ZeroCoef>
-5.4800

> <Gold.Chemscore.Hbond>
0.8911

> <Gold.Chemscore.Metal>
0.0000

> <Gold.Chemscore.Lipo>
104.0411

> <Gold.Chemscore.Internal_Hbond>
0.0000

> <Gold.Chemscore.DEClash>
0.2556

> <Gold.Chemscore.DEInternal>
0.2808

> <Gold.Chemscore.Rot>
1.7296

> <Gold.Chemscore.Internal.Correction>
   9.000000E+99

> <Gold.Chemscore.Hbonds>
donor molecule, donor type, donor heavy atom, donor atom, acceptor molecule, acceptor atom, score
      P1  H  7997  8010       L1     8  0.30

> <Gold.Chemscore.Hbond.Weighted>
-2.9762

> <Gold.Chemscore.Metal.Weighted>
-0.0000

> <Gold.Chemscore.Lipo.Weighted>
-12.1728

> <Gold.Chemscore.Internal_Hbond.Weighted>
0.0000

> <Gold.Chemscore.DEClash.Weighted>
0.2556

> <Gold.Chemscore.DEInternal.Weighted>
0.2808

> <Gold.Chemscore.Rot.Weighted>
4.4278

> <Gold.Chemscore.Internal.Correction.Weighted>
   9.000000E+99

> <Gold.Protein.RotatedTorsions>
[ 6907 6896 6895 6894 ] final   95.83 input  -60.11 | X-H torsion
[ 7974 7965 7964 7962 ] final   23.40 input  175.53 | X-H torsion
[ 8008 7997 7996 7995 ] final   42.29 input   59.86 | X-H torsion
[ 10167 10162 10161 10158 ] final    1.56 input  -65.29 | X-H torsion
[ 10718 10713 10712 10709 ] final  -63.40 input   66.30 | X-H torsion
[ 10763 10752 10751 10750 ] final    4.34 input  -60.55 | X-H torsion
[ 11005 11000 10999 10996 ] final  -38.49 input  -57.11 | X-H torsion

> <Gold.Protein.ActiveResidues>
 VAL166  LYS551  ARG553  GLY616  TRP617  ASP618  TYR619  PRO620  LYS621  CYS622 
 ASP623  PHE694  ASN695  SER759  ASP760  ASP761  ALA762  ILE779  LEU786  VAL792 
 PHE793  MET794  SER795  GLU796  ALA797  LYS798  CYS799  TRP800  GLU811  SER814 

> <Gold.Protein.RotatedAtoms>
  152.5440  134.0980  159.8305 H   0  0  0  0  0  0  0  0  0  0  0  0  # atno 6907 bound_to 6896
  151.1061  133.5200  159.2615 H   0  0  0  0  0  0  0  0  0  0  0  0  # atno 6908 bound_to 6896
  151.1936  135.0422  159.8897 H   0  0  0  0  0  0  0  0  0  0  0  0  # atno 6909 bound_to 6896
  146.1986  139.7750  142.8778 H   0  0  0  0  0  0  0  0  0  0  0  0  # atno 7974 bound_to 7965
  155.2837  140.3374  155.4256 H   0  0  0  0  0  0  0  0  0  0  0  0  # atno 8008 bound_to 7997
  156.2078  140.1758  156.7802 H   0  0  0  0  0  0  0  0  0  0  0  0  # atno 8009 bound_to 7997
  154.5644  140.0681  156.8853 H   0  0  0  0  0  0  0  0  0  0  0  0  # atno 8010 bound_to 7997
  140.6677  143.7135  150.7859 H   0  0  0  0  0  0  0  0  0  0  0  0  # atno 10167 bound_to 10162
  156.0793  130.4220  150.1272 H   0  0  0  0  0  0  0  0  0  0  0  0  # atno 10718 bound_to 10713
  153.2724  135.6933  153.7467 H   0  0  0  0  0  0  0  0  0  0  0  0  # atno 10763 bound_to 10752
  153.6486  135.3381  155.3094 H   0  0  0  0  0  0  0  0  0  0  0  0  # atno 10764 bound_to 10752
  154.8468  135.4449  154.1750 H   0  0  0  0  0  0  0  0  0  0  0  0  # atno 10765 bound_to 10752
  141.0032  133.6945  156.2061 H   0  0  0  0  0  0  0  0  0  0  0  0  # atno 11005 bound_to 11000
  145.3561  141.0317  143.3311 LP  0  0  0  0  0  0  0  0  0  0  0  0  # atno 17320 bound_to 7965
  144.8633  139.5144  143.6802 LP  0  0  0  0  0  0  0  0  0  0  0  0  # atno 17321 bound_to 7965
  140.0815  143.4964  152.2528 LP  0  0  0  0  0  0  0  0  0  0  0  0  # atno 17342 bound_to 10162
  139.5932  144.7558  151.3350 LP  0  0  0  0  0  0  0  0  0  0  0  0  # atno 17343 bound_to 10162
  156.9307  130.9713  151.3533 LP  0  0  0  0  0  0  0  0  0  0  0  0  # atno 17370 bound_to 10713
  157.5903  130.8439  149.8649 LP  0  0  0  0  0  0  0  0  0  0  0  0  # atno 17371 bound_to 10713
  140.6856  134.4721  157.5589 LP  0  0  0  0  0  0  0  0  0  0  0  0  # atno 17394 bound_to 11000
  139.9049  134.8471  156.1745 LP  0  0  0  0  0  0  0  0  0  0  0  0  # atno 17395 bound_to 11000

$$$$
