AV-unprocessed.smi:3317|AV-procd|sdf|12761|dock2
  -GOLD-   2272019 93D 1   1.00000     0.00000
 Structure written by MMmdl.
 36 37  0  0  0  0  0  0  0  0  1 V2000
  145.8908  143.2529  153.8142 C   0  0  0  0  0  0  0  0  0  0  0  0
  147.2241  142.8801  154.1306 O   0  0  0  0  0  0  0  0  0  0  0  0
  147.5877  141.5566  153.9749 C   0  0  0  0  0  0  0  0  0  0  0  0
  146.8361  140.6202  153.2200 C   0  0  0  0  0  0  0  0  0  0  0  0
  147.2887  139.2935  153.1191 C   0  0  0  0  0  0  0  0  0  0  0  0
  148.4797  138.9464  153.7777 C   0  0  0  0  0  0  0  0  0  0  0  0
  149.2027  139.8250  154.4992 N   0  0  0  0  0  0  0  0  0  0  0  0
  148.7782  141.1089  154.6048 C   0  0  0  0  0  0  0  0  0  0  0  0
  149.4814  142.0954  155.3487 N   0  0  0  0  0  0  0  0  0  0  0  0
  150.6482  141.9799  156.0108 C   0  0  0  0  0  0  0  0  0  0  0  0
  151.3145  140.9479  156.0855 O   0  0  0  0  0  0  0  0  0  0  0  0
  151.1357  143.2391  156.7269 C   0  0  0  0  0  0  0  0  0  0  0  0
  151.4289  142.9217  158.0810 O   0  0  0  0  0  0  0  0  0  0  0  0
  152.4945  143.6806  158.6367 C   0  0  0  0  0  0  0  0  0  0  0  0
  152.7298  143.1807  160.0621 C   0  0  0  0  0  0  0  0  0  0  0  0
  151.6644  143.8786  160.9149 C   0  0  0  0  0  0  0  0  0  0  0  0
  151.2629  145.1469  160.1463 C   0  0  0  0  0  0  0  0  0  0  0  0
  152.0785  145.1410  158.8480 C   0  0  0  0  0  0  0  0  0  0  0  0
  145.7667  144.3221  153.9858 H   0  0  0  0  0  0  0  0  0  0  0  0
  145.1712  142.7320  154.4475 H   0  0  0  0  0  0  0  0  0  0  0  0
  145.6585  143.0590  152.7663 H   0  0  0  0  0  0  0  0  0  0  0  0
  145.9214  140.8921  152.7154 H   0  0  0  0  0  0  0  0  0  0  0  0
  146.7360  138.5602  152.5507 H   0  0  0  0  0  0  0  0  0  0  0  0
  148.8617  137.9377  153.7249 H   0  0  0  0  0  0  0  0  0  0  0  0
  149.0472  143.0067  155.3731 H   0  0  0  0  0  0  0  0  0  0  0  0
  152.0286  143.6079  156.2204 H   0  0  0  0  0  0  0  0  0  0  0  0
  150.3715  144.0144  156.6624 H   0  0  0  0  0  0  0  0  0  0  0  0
  153.3986  143.5832  158.0331 H   0  0  0  0  0  0  0  0  0  0  0  0
  152.6886  142.0937  160.1419 H   0  0  0  0  0  0  0  0  0  0  0  0
  153.7196  143.4957  160.3947 H   0  0  0  0  0  0  0  0  0  0  0  0
  150.7952  143.2299  161.0303 H   0  0  0  0  0  0  0  0  0  0  0  0
  152.0378  144.1049  161.9140 H   0  0  0  0  0  0  0  0  0  0  0  0
  150.1964  145.1179  159.9200 H   0  0  0  0  0  0  0  0  0  0  0  0
  151.4487  146.0510  160.7269 H   0  0  0  0  0  0  0  0  0  0  0  0
  152.9739  145.7482  158.9866 H   0  0  0  0  0  0  0  0  0  0  0  0
  151.5291  145.5675  158.0092 H   0  0  0  0  0  0  0  0  0  0  0  0
  1  2  1  0  0  0  0
  1 19  1  0  0  0  0
  1 20  1  0  0  0  0
  1 21  1  0  0  0  0
  2  3  1  0  0  0  0
  3  8  1  0  0  0  0
  3  4  2  0  0  0  0
  4  5  1  0  0  0  0
  4 22  1  0  0  0  0
  5  6  2  0  0  0  0
  5 23  1  0  0  0  0
  6  7  1  0  0  0  0
  6 24  1  0  0  0  0
  7  8  2  0  0  0  0
  8  9  1  0  0  0  0
  9 10  1  0  0  0  0
  9 25  1  0  0  0  0
 10 11  2  0  0  0  0
 10 12  1  0  0  0  0
 12 13  1  0  0  0  0
 12 26  1  0  0  0  0
 12 27  1  0  0  0  0
 13 14  1  0  0  0  0
 14 18  1  0  0  0  0
 14 15  1  0  0  0  0
 14 28  1  0  0  0  0
 15 16  1  0  0  0  0
 15 29  1  0  0  0  0
 15 30  1  0  0  0  0
 16 17  1  0  0  0  0
 16 31  1  0  0  0  0
 16 32  1  0  0  0  0
 17 18  1  0  0  0  0
 17 33  1  0  0  0  0
 17 34  1  0  0  0  0
 18 35  1  0  0  0  0
 18 36  1  0  0  0  0
M  END
> <s_m_source_file>
AV-unprocessed.smi

> <i_m_source_file_index>
3317

> <i_lp_mmshare_version>
43012

> <i_f3d_flags>
0

> <s_epik_input>
W0NIM11PYzFbY0hdW2NIXVtjSF1uYzFbTkhdQyg9TylbQ0gyXU9bQ0hdMltDSDJdW0NIMl1bQ0gyXVtDSDJdMg==

> <s_epik_cmdline>
J2VwaWtfcHl0aG9uJywgJy1waCcsICc3LjAnLCAnLXRuJywgJzgnLCAnLW1hJywgJzIwMCcsICctbWV0YWxfYmluZGluZycsICctaW1hZScsICc8aW5maWxlLm1hZT4nLCAnLW9tYWUnLCAnPG91dGZpbGUubWFlPic=

> <r_lp_tautomer_probability>
1

> <r_epik_Ionization_Penalty>
0.000545986

> <r_epik_Ionization_Penalty_Charging>
0

> <r_epik_Ionization_Penalty_Neutral>
0.000545986

> <r_epik_State_Penalty>
-0

> <r_epik_Charging_Adjusted_Penalty>
0

> <i_epik_Tot_Q>
0

> <i_epik_Tot_abs_Q>
0

> <r_epik_Metal_State_Penalty>
-0

> <b_epik_Metal_Only>
0

> <s_lp_Force_Field>
OPLS_2005

> <r_lp_Energy>
28.4297

> <b_lp_Chiralities_Consistent>
1

> <s_lp_Variant>
AV-unprocessed.smi:3317-1

> <Gold.Version>
5.8.1

> <Gold.Id.Protein>
6NUR|6NUR_protein|mol2

> <Gold.PLP.Fitness>
46.3007

> <Gold.PLP.PLP>
-40.6819

> <Gold.PLP.part.hbond>
-1.8731

> <Gold.PLP.part.metal>
0.0000

> <Gold.PLP.part.buried>
-2.4819

> <Gold.PLP.part.nonpolar>
-37.6747

> <Gold.PLP.part.repulsive>
2.5279

> <Gold.PLP.ligand.clash>
0.0000

> <Gold.PLP.ligand.torsion>
0.5221

> <Gold.PLP.Chemscore.Hbond>
1.2080

> <Gold.PLP.Chemscore.CHOScore>
0.9925

> <Gold.PLP.Chemscore.Metal>
0.0000

> <Gold.Chemscore.Hbonds>
donor molecule, donor type, donor heavy atom, donor atom, acceptor molecule, acceptor atom, score
      L1  H     9    25       P1  8028  1.00
      P1  H  8022  8030       L1     2  0.10
      L1  C     6    24       P1  7948  1.00

> <Gold.PLP.Chemscore.Internal.Correction>
0.0616

> <Gold.Rescore>
     Score         DG    S(hbond)    S(metal)    S(lipo)     H(rot)  DE(clash)    DE(int)     intcor
     13.68     -17.67       1.06        0.00     109.16       1.61       2.23       1.76       ----

> <Gold.Chemscore.Fitness>
13.6752

> <Gold.Chemscore.DG>
-17.6734

> <Gold.Chemscore.ZeroCoef>
-5.4800

> <Gold.Chemscore.Hbond>
1.0631

> <Gold.Chemscore.Metal>
0.0000

> <Gold.Chemscore.Lipo>
109.1556

> <Gold.Chemscore.Internal_Hbond>
0.0000

> <Gold.Chemscore.DEClash>
2.2338

> <Gold.Chemscore.DEInternal>
1.7644

> <Gold.Chemscore.Rot>
1.6127

> <Gold.Chemscore.Internal.Correction>
   9.000000E+99

> <Gold.Chemscore.Hbonds>
donor molecule, donor type, donor heavy atom, donor atom, acceptor molecule, acceptor atom, score
      L1  H     9    25       P1  8028  0.99
      P1  H  8022  8030       L1     2  0.06

> <Gold.Chemscore.Hbond.Weighted>
-3.5507

> <Gold.Chemscore.Metal.Weighted>
-0.0000

> <Gold.Chemscore.Lipo.Weighted>
-12.7712

> <Gold.Chemscore.Internal_Hbond.Weighted>
0.0000

> <Gold.Chemscore.DEClash.Weighted>
2.2338

> <Gold.Chemscore.DEInternal.Weighted>
1.7644

> <Gold.Chemscore.Rot.Weighted>
4.1285

> <Gold.Chemscore.Internal.Correction.Weighted>
   9.000000E+99

> <Gold.Protein.RotatedTorsions>
[ 6907 6896 6895 6894 ] final  -51.33 input  -60.11 | X-H torsion
[ 7974 7965 7964 7962 ] final  141.98 input  175.53 | X-H torsion
[ 8008 7997 7996 7995 ] final   49.78 input   59.86 | X-H torsion
[ 10167 10162 10161 10158 ] final   93.87 input  -65.29 | X-H torsion
[ 10718 10713 10712 10709 ] final  123.33 input   66.30 | X-H torsion
[ 10763 10752 10751 10750 ] final  -22.41 input  -60.55 | X-H torsion
[ 11005 11000 10999 10996 ] final  -60.27 input  -57.11 | X-H torsion

> <Gold.Protein.ActiveResidues>
 VAL166  LYS551  ARG553  GLY616  TRP617  ASP618  TYR619  PRO620  LYS621  CYS622 
 ASP623  PHE694  ASN695  SER759  ASP760  ASP761  ALA762  ILE779  LEU786  VAL792 
 PHE793  MET794  SER795  GLU796  ALA797  LYS798  CYS799  TRP800  GLU811  SER814 

> <Gold.Protein.RotatedAtoms>
  150.8622  134.7976  159.7090 H   0  0  0  0  0  0  0  0  0  0  0  0  # atno 6907 bound_to 6896
  152.4655  134.5082  159.9755 H   0  0  0  0  0  0  0  0  0  0  0  0  # atno 6908 bound_to 6896
  151.5184  133.3433  159.2932 H   0  0  0  0  0  0  0  0  0  0  0  0  # atno 6909 bound_to 6896
  144.9048  139.5373  143.5736 H   0  0  0  0  0  0  0  0  0  0  0  0  # atno 7974 bound_to 7965
  155.4078  140.3441  155.4261 H   0  0  0  0  0  0  0  0  0  0  0  0  # atno 8008 bound_to 7997
  156.1466  140.1558  156.8869 H   0  0  0  0  0  0  0  0  0  0  0  0  # atno 8009 bound_to 7997
  154.5016  140.0813  156.7790 H   0  0  0  0  0  0  0  0  0  0  0  0  # atno 8010 bound_to 7997
  139.8138  144.6762  150.9606 H   0  0  0  0  0  0  0  0  0  0  0  0  # atno 10167 bound_to 10162
  157.5673  131.1085  150.8431 H   0  0  0  0  0  0  0  0  0  0  0  0  # atno 10718 bound_to 10713
  153.6515  135.6980  153.5207 H   0  0  0  0  0  0  0  0  0  0  0  0  # atno 10763 bound_to 10752
  153.2703  135.4217  155.0980 H   0  0  0  0  0  0  0  0  0  0  0  0  # atno 10764 bound_to 10752
  154.8475  135.3577  154.6059 H   0  0  0  0  0  0  0  0  0  0  0  0  # atno 10765 bound_to 10752
  141.1280  133.6621  156.5197 H   0  0  0  0  0  0  0  0  0  0  0  0  # atno 11005 bound_to 11000
  146.3128  139.7807  142.9007 LP  0  0  0  0  0  0  0  0  0  0  0  0  # atno 17320 bound_to 7965
  145.3554  141.0315  143.3315 LP  0  0  0  0  0  0  0  0  0  0  0  0  # atno 17321 bound_to 7965
  140.7816  143.4159  151.0919 LP  0  0  0  0  0  0  0  0  0  0  0  0  # atno 17342 bound_to 10162
  139.7823  143.8337  152.3139 LP  0  0  0  0  0  0  0  0  0  0  0  0  # atno 17343 bound_to 10162
  156.8912  130.5213  149.5286 LP  0  0  0  0  0  0  0  0  0  0  0  0  # atno 17370 bound_to 10713
  156.0721  130.5751  150.9403 LP  0  0  0  0  0  0  0  0  0  0  0  0  # atno 17371 bound_to 10713
  140.4302  134.7109  157.4937 LP  0  0  0  0  0  0  0  0  0  0  0  0  # atno 17394 bound_to 11000
  140.0299  134.6421  155.9121 LP  0  0  0  0  0  0  0  0  0  0  0  0  # atno 17395 bound_to 11000

$$$$
