AV-unprocessed.smi:1748|AV-procd|sdf|7042|dock2
  -GOLD-   22720 8263D 1   1.00000     0.00000
 Structure written by MMmdl.
 39 40  0  0  0  0  0  0  0  0  3 V2000
  146.8761  132.8444  152.2543 C   0  0  0  0  0  0  0  0  0  0  0  0
  146.6261  134.3013  152.2856 N   0  3  1  0  0  0  0  0  0  0  0  0
  145.7647  134.7547  151.1647 C   0  0  0  0  0  0  0  0  0  0  0  0
  145.6333  136.2879  151.1507 C   0  0  0  0  0  0  0  0  0  0  0  0
  145.1426  136.8222  152.5078 C   0  0  0  0  0  0  0  0  0  0  0  0
  146.0237  136.3015  153.6583 C   0  0  2  0  0  0  0  0  0  0  0  0
  147.3498  136.9150  153.5852 N   0  0  0  0  0  0  0  0  0  0  0  0
  147.9464  137.5968  154.5734 C   0  0  0  0  0  0  0  0  0  0  0  0
  147.4227  137.7864  155.6709 O   0  0  0  0  0  0  0  0  0  0  0  0
  149.1753  137.9973  154.2027 N   0  0  0  0  0  0  0  0  0  0  0  0
  150.1295  138.7261  154.9319 C   0  0  0  0  0  0  0  0  0  0  0  0
  149.8518  139.8113  155.7063 C   0  0  0  0  0  0  0  0  0  0  0  0
  150.8873  140.5383  156.4296 C   0  0  0  0  0  0  0  0  0  0  0  0
  150.6022  141.6896  157.3778 C   0  0  0  0  0  0  0  0  0  0  0  0
  149.2942  141.9370  157.4528 F   0  0  0  0  0  0  0  0  0  0  0  0
  151.0390  141.3893  158.6003 F   0  0  0  0  0  0  0  0  0  0  0  0
  151.2185  142.8019  156.9775 F   0  0  0  0  0  0  0  0  0  0  0  0
  152.1422  139.9930  156.2383 C   0  0  0  0  0  0  0  0  0  0  0  0
  152.5046  138.9415  155.4709 N   0  5  0  0  0  0  0  0  0  0  0  0
  151.5284  138.2700  154.7977 C   0  0  0  0  0  0  0  0  0  0  0  0
  151.7867  137.2980  154.0866 O   0  0  0  0  0  0  0  0  0  0  0  0
  146.1054  134.7595  153.5979 C   0  0  0  0  0  0  0  0  0  0  0  0
  145.9498  132.2845  152.3885 H   0  0  0  0  0  0  0  0  0  0  0  0
  147.5687  132.5563  153.0459 H   0  0  0  0  0  0  0  0  0  0  0  0
  147.3203  132.5507  151.3027 H   0  0  0  0  0  0  0  0  0  0  0  0
  146.1886  134.4178  150.2179 H   0  0  0  0  0  0  0  0  0  0  0  0
  144.7792  134.2946  151.2529 H   0  0  0  0  0  0  0  0  0  0  0  0
  146.5981  136.7338  150.9056 H   0  0  0  0  0  0  0  0  0  0  0  0
  144.9466  136.5946  150.3612 H   0  0  0  0  0  0  0  0  0  0  0  0
  145.1251  137.9129  152.5015 H   0  0  0  0  0  0  0  0  0  0  0  0
  144.1126  136.5012  152.6688 H   0  0  0  0  0  0  0  0  0  0  0  0
  145.5647  136.5972  154.6034 H   0  0  0  0  0  0  0  0  0  0  0  0
  147.8508  136.8141  152.7143 H   0  0  0  0  0  0  0  0  0  0  0  0
  149.4914  137.7014  153.2907 H   0  0  0  0  0  0  0  0  0  0  0  0
  148.8451  140.1861  155.7917 H   0  0  0  0  0  0  0  0  0  0  0  0
  152.9804  140.4706  156.7889 H   0  0  0  0  0  0  0  0  0  0  0  0
  145.1181  134.3267  153.7665 H   0  0  0  0  0  0  0  0  0  0  0  0
  146.7450  134.3838  154.3976 H   0  0  0  0  0  0  0  0  0  0  0  0
  147.5238  134.7480  152.1620 H   0  0  0  0  0  0  0  0  0  0  0  0
  1  2  1  0  0  0  0
  1 23  1  0  0  0  0
  1 24  1  0  0  0  0
  1 25  1  0  0  0  0
  2 22  1  0  0  0  0
  2  3  1  0  0  0  0
  2 39  1  0  0  0  0
  3  4  1  0  0  0  0
  3 26  1  0  0  0  0
  3 27  1  0  0  0  0
  4  5  1  0  0  0  0
  4 28  1  0  0  0  0
  4 29  1  0  0  0  0
  5  6  1  0  0  0  0
  5 30  1  0  0  0  0
  5 31  1  0  0  0  0
  6  7  1  0  0  0  0
  6 22  1  0  0  0  0
  6 32  1  0  0  0  0
  7  8  1  0  0  0  0
  7 33  1  0  0  0  0
  8  9  2  0  0  0  0
  8 10  1  0  0  0  0
 10 11  1  0  0  0  0
 10 34  1  0  0  0  0
 11 20  1  0  0  0  0
 11 12  2  0  0  0  0
 12 13  1  0  0  0  0
 12 35  1  0  0  0  0
 13 14  1  0  0  0  0
 13 18  2  0  0  0  0
 14 15  1  0  0  0  0
 14 16  1  0  0  0  0
 14 17  1  0  0  0  0
 18 19  1  0  0  0  0
 18 36  1  0  0  0  0
 19 20  1  0  0  0  0
 20 21  2  0  0  0  0
 22 37  1  0  0  0  0
 22 38  1  0  0  0  0
M  CHG  1   2   1
M  CHG  1  19  -1
M  END
> <s_m_source_file>
AV-unprocessed.smi

> <i_m_source_file_index>
1748

> <i_lp_mmshare_version>
43012

> <i_f3d_flags>
0

> <s_epik_input>
W0NIM11OMVtDSDJdW0NIMl1bQ0gyXVtDQEhdKFtDSDJdMSlbTkhdQyg9TylbTkhdYzJbY0hdYyhDKEYpKEYpRilbY0hdW25IXWMyPU8=

> <s_epik_cmdline>
J2VwaWtfcHl0aG9uJywgJy1waCcsICc3LjAnLCAnLXRuJywgJzgnLCAnLW1hJywgJzIwMCcsICctbWV0YWxfYmluZGluZycsICctaW1hZScsICc8aW5maWxlLm1hZT4nLCAnLW9tYWUnLCAnPG91dGZpbGUubWFlPic=

> <r_lp_tautomer_probability>
1

> <r_epik_Ionization_Penalty>
3.00907

> <r_epik_Ionization_Penalty_Charging>
0.148702

> <r_epik_Ionization_Penalty_Neutral>
2.86036

> <r_epik_State_Penalty>
2.85557

> <r_epik_Charging_Adjusted_Penalty>
3.00428

> <i_epik_Tot_Q>
0

> <i_epik_Tot_abs_Q>
2

> <r_epik_Metal_State_Penalty>
0.443779

> <b_epik_Metal_Only>
1

> <s_lp_Force_Field>
OPLS_2005

> <r_lp_Energy>
33.4181

> <b_lp_Chiralities_Consistent>
1

> <s_lp_Variant>
AV-unprocessed.smi:1748-7

> <Gold.Version>
5.8.1

> <Gold.Id.Protein>
6NUR|6NUR_protein|mol2

> <Gold.PLP.Fitness>
44.1719

> <Gold.PLP.PLP>
-31.0751

> <Gold.PLP.part.hbond>
-3.7339

> <Gold.PLP.part.metal>
0.0000

> <Gold.PLP.part.buried>
-4.3046

> <Gold.PLP.part.nonpolar>
-25.5382

> <Gold.PLP.part.repulsive>
1.7218

> <Gold.PLP.ligand.clash>
0.0000

> <Gold.PLP.ligand.torsion>
0.4109

> <Gold.PLP.Chemscore.Hbond>
4.6228

> <Gold.PLP.Chemscore.CHOScore>
0.0000

> <Gold.PLP.Chemscore.Metal>
0.0000

> <Gold.Chemscore.Hbonds>
donor molecule, donor type, donor heavy atom, donor atom, acceptor molecule, acceptor atom, score
      L1  H     2    39       P1  7948  1.95
      L1  H     7    33       P1  7948  0.94
      L1  H    10    34       P1  7948  0.66
      P1  H 10752 10763       L1    21  1.00

> <Gold.PLP.Chemscore.Internal.Correction>
0.0501

> <Gold.Rescore>
     Score         DG    S(hbond)    S(metal)    S(lipo)     H(rot)  DE(clash)    DE(int)     intcor
     19.51     -20.18       3.24        0.00      55.01       1.00       0.23       0.44       ----

> <Gold.Chemscore.Fitness>
19.5126

> <Gold.Chemscore.DG>
-20.1754

> <Gold.Chemscore.ZeroCoef>
-5.4800

> <Gold.Chemscore.Hbond>
3.2392

> <Gold.Chemscore.Metal>
0.0000

> <Gold.Chemscore.Lipo>
55.0133

> <Gold.Chemscore.Internal_Hbond>
0.0000

> <Gold.Chemscore.DEClash>
0.2261

> <Gold.Chemscore.DEInternal>
0.4366

> <Gold.Chemscore.Rot>
1.0000

> <Gold.Chemscore.Internal.Correction>
   9.000000E+99

> <Gold.Chemscore.Hbonds>
donor molecule, donor type, donor heavy atom, donor atom, acceptor molecule, acceptor atom, score
      L1  H     2    39       P1  7948  0.76
      L1  H     7    33       P1  7948  0.87
      L1  H    10    34       P1  7948  0.59
      P1  H 10752 10763       L1    21  0.93

> <Gold.Chemscore.Hbond.Weighted>
-10.8188

> <Gold.Chemscore.Metal.Weighted>
-0.0000

> <Gold.Chemscore.Lipo.Weighted>
-6.4366

> <Gold.Chemscore.Internal_Hbond.Weighted>
0.0000

> <Gold.Chemscore.DEClash.Weighted>
0.2261

> <Gold.Chemscore.DEInternal.Weighted>
0.4366

> <Gold.Chemscore.Rot.Weighted>
2.5600

> <Gold.Chemscore.Internal.Correction.Weighted>
   9.000000E+99

> <Gold.Protein.RotatedTorsions>
[ 6907 6896 6895 6894 ] final  125.27 input  -60.11 | X-H torsion
[ 7974 7965 7964 7962 ] final -143.66 input  175.53 | X-H torsion
[ 8008 7997 7996 7995 ] final  -36.50 input   59.86 | X-H torsion
[ 10167 10162 10161 10158 ] final  -16.17 input  -65.29 | X-H torsion
[ 10718 10713 10712 10709 ] final  169.66 input   66.30 | X-H torsion
[ 10763 10752 10751 10750 ] final   30.06 input  -60.55 | X-H torsion
[ 11005 11000 10999 10996 ] final -125.58 input  -57.11 | X-H torsion

> <Gold.Protein.ActiveResidues>
 VAL166  LYS551  ARG553  GLY616  TRP617  ASP618  TYR619  PRO620  LYS621  CYS622 
 ASP623  PHE694  ASN695  SER759  ASP760  ASP761  ALA762  ILE779  LEU786  VAL792 
 PHE793  MET794  SER795  GLU796  ALA797  LYS798  CYS799  TRP800  GLU811  SER814 

> <Gold.Protein.RotatedAtoms>
  152.4006  133.6812  159.6313 H   0  0  0  0  0  0  0  0  0  0  0  0  # atno 6907 bound_to 6896
  150.7898  133.8797  159.3291 H   0  0  0  0  0  0  0  0  0  0  0  0  # atno 6908 bound_to 6896
  151.6564  135.0996  160.0222 H   0  0  0  0  0  0  0  0  0  0  0  0  # atno 6909 bound_to 6896
  144.8353  140.5807  143.5488 H   0  0  0  0  0  0  0  0  0  0  0  0  # atno 7974 bound_to 7965
  154.4072  140.1629  156.2384 H   0  0  0  0  0  0  0  0  0  0  0  0  # atno 8008 bound_to 7997
  155.9223  140.3420  155.6160 H   0  0  0  0  0  0  0  0  0  0  0  0  # atno 8009 bound_to 7997
  155.7207  140.0768  157.2322 H   0  0  0  0  0  0  0  0  0  0  0  0  # atno 8010 bound_to 7997
  140.7230  143.5143  150.9711 H   0  0  0  0  0  0  0  0  0  0  0  0  # atno 10167 bound_to 10162
  157.0194  131.0227  151.2779 H   0  0  0  0  0  0  0  0  0  0  0  0  # atno 10718 bound_to 10713
  153.0394  135.6473  154.0986 H   0  0  0  0  0  0  0  0  0  0  0  0  # atno 10763 bound_to 10752
  154.0695  135.2881  155.3312 H   0  0  0  0  0  0  0  0  0  0  0  0  # atno 10764 bound_to 10752
  154.6604  135.5393  153.8075 H   0  0  0  0  0  0  0  0  0  0  0  0  # atno 10765 bound_to 10752
  140.9750  134.0753  157.3828 H   0  0  0  0  0  0  0  0  0  0  0  0  # atno 11005 bound_to 11000
  145.4807  139.1495  143.3763 LP  0  0  0  0  0  0  0  0  0  0  0  0  # atno 17320 bound_to 7965
  146.2653  140.4943  142.8837 LP  0  0  0  0  0  0  0  0  0  0  0  0  # atno 17321 bound_to 7965
  139.8858  143.7014  152.3151 LP  0  0  0  0  0  0  0  0  0  0  0  0  # atno 17342 bound_to 10162
  139.7313  144.7581  151.0798 LP  0  0  0  0  0  0  0  0  0  0  0  0  # atno 17343 bound_to 10162
  157.5261  130.8028  149.7863 LP  0  0  0  0  0  0  0  0  0  0  0  0  # atno 17370 bound_to 10713
  156.0107  130.3834  150.2273 LP  0  0  0  0  0  0  0  0  0  0  0  0  # atno 17371 bound_to 10713
  139.8927  135.0126  156.6859 LP  0  0  0  0  0  0  0  0  0  0  0  0  # atno 17394 bound_to 11000
  140.7272  133.9090  155.8186 LP  0  0  0  0  0  0  0  0  0  0  0  0  # atno 17395 bound_to 11000

$$$$
