AV-unprocessed.smi:1726|AV-procd|sdf|6960|dock10
  -GOLD-   22720 8173D 1   1.00000     0.00000
 Structure written by MMmdl.
 43 44  0  0  0  0  0  0  0  0  2 V2000
  149.0384  141.6230  154.4464 C   0  0  0  0  0  0  0  0  0  0  0  0
  149.4212  141.1624  155.8602 C   0  0  0  0  0  0  0  0  0  0  0  0
  150.1424  139.8642  155.8626 N   0  3  2  0  0  0  0  0  0  0  0  0
  151.5491  140.0068  155.4046 C   0  0  0  0  0  0  0  0  0  0  0  0
  152.3173  138.6818  155.5391 C   0  0  0  0  0  0  0  0  0  0  0  0
  151.6085  137.5536  154.7791 C   0  0  0  0  0  0  0  0  0  0  0  0
  150.1509  137.4378  155.2509 C   0  0  2  0  0  0  0  0  0  0  0  0
  149.4621  136.4013  154.4867 N   0  0  0  0  0  0  0  0  0  0  0  0
  148.9730  135.2625  154.9988 C   0  0  0  0  0  0  0  0  0  0  0  0
  149.0484  134.9769  156.1938 O   0  0  0  0  0  0  0  0  0  0  0  0
  148.3872  134.5163  154.0443 N   0  0  0  0  0  0  0  0  0  0  0  0
  147.7748  133.2561  154.1525 C   0  0  0  0  0  0  0  0  0  0  0  0
  148.4260  132.0660  154.0738 C   0  0  0  0  0  0  0  0  0  0  0  0
  147.7285  130.7957  154.1866 C   0  0  0  0  0  0  0  0  0  0  0  0
  148.4576  129.4685  154.0429 C   0  0  0  0  0  0  0  0  0  0  0  0
  149.7745  129.6506  153.9362 F   0  0  0  0  0  0  0  0  0  0  0  0
  148.2282  128.6781  155.0917 F   0  0  0  0  0  0  0  0  0  0  0  0
  148.0362  128.8373  152.9479 F   0  0  0  0  0  0  0  0  0  0  0  0
  146.3932  130.8562  154.3425 C   0  0  0  0  0  0  0  0  0  0  0  0
  145.7161  132.0749  154.4243 N   0  0  0  0  0  0  0  0  0  0  0  0
  146.3144  133.2840  154.3377 C   0  0  0  0  0  0  0  0  0  0  0  0
  145.6466  134.3147  154.4140 O   0  0  0  0  0  0  0  0  0  0  0  0
  149.4299  138.7959  155.1118 C   0  0  0  0  0  0  0  0  0  0  0  0
  144.7149  132.0358  154.5513 H   0  0  0  0  0  0  0  0  0  0  0  0
  148.4224  142.5215  154.4911 H   0  0  0  0  0  0  0  0  0  0  0  0
  148.4651  140.8569  153.9238 H   0  0  0  0  0  0  0  0  0  0  0  0
  149.9122  141.8630  153.8412 H   0  0  0  0  0  0  0  0  0  0  0  0
  150.0169  141.9238  156.3659 H   0  0  0  0  0  0  0  0  0  0  0  0
  148.4992  141.0611  156.4347 H   0  0  0  0  0  0  0  0  0  0  0  0
  151.5626  140.3471  154.3679 H   0  0  0  0  0  0  0  0  0  0  0  0
  152.0545  140.7716  155.9957 H   0  0  0  0  0  0  0  0  0  0  0  0
  153.3341  138.8014  155.1638 H   0  0  0  0  0  0  0  0  0  0  0  0
  152.4061  138.4150  156.5931 H   0  0  0  0  0  0  0  0  0  0  0  0
  151.6412  137.7573  153.7077 H   0  0  0  0  0  0  0  0  0  0  0  0
  152.1351  136.6114  154.9356 H   0  0  0  0  0  0  0  0  0  0  0  0
  150.1580  137.1478  156.3038 H   0  0  0  0  0  0  0  0  0  0  0  0
  149.3542  136.5608  153.4952 H   0  0  0  0  0  0  0  0  0  0  0  0
  148.3435  134.9222  153.1205 H   0  0  0  0  0  0  0  0  0  0  0  0
  149.4902  132.0258  153.9096 H   0  0  0  0  0  0  0  0  0  0  0  0
  145.7495  129.9916  154.4118 H   0  0  0  0  0  0  0  0  0  0  0  0
  148.4108  138.7002  155.4846 H   0  0  0  0  0  0  0  0  0  0  0  0
  149.3548  139.0792  154.0603 H   0  0  0  0  0  0  0  0  0  0  0  0
  150.1891  139.5651  156.8262 H   0  0  0  0  0  0  0  0  0  0  0  0
  1  2  1  0  0  0  0
  1 25  1  0  0  0  0
  1 26  1  0  0  0  0
  1 27  1  0  0  0  0
  2  3  1  0  0  0  0
  2 28  1  0  0  0  0
  2 29  1  0  0  0  0
  3 23  1  0  0  0  0
  3  4  1  0  0  0  0
  3 43  1  0  0  0  0
  4  5  1  0  0  0  0
  4 30  1  0  0  0  0
  4 31  1  0  0  0  0
  5  6  1  0  0  0  0
  5 32  1  0  0  0  0
  5 33  1  0  0  0  0
  6  7  1  0  0  0  0
  6 34  1  0  0  0  0
  6 35  1  0  0  0  0
  7  8  1  0  0  0  0
  7 23  1  0  0  0  0
  7 36  1  0  0  0  0
  8  9  1  0  0  0  0
  8 37  1  0  0  0  0
  9 10  2  0  0  0  0
  9 11  1  0  0  0  0
 11 12  1  0  0  0  0
 11 38  1  0  0  0  0
 12 21  1  0  0  0  0
 12 13  2  0  0  0  0
 13 14  1  0  0  0  0
 13 39  1  0  0  0  0
 14 15  1  0  0  0  0
 14 19  2  0  0  0  0
 15 16  1  0  0  0  0
 15 17  1  0  0  0  0
 15 18  1  0  0  0  0
 19 20  1  0  0  0  0
 19 40  1  0  0  0  0
 20 24  1  0  0  0  0
 20 21  1  0  0  0  0
 21 22  2  0  0  0  0
 23 41  1  0  0  0  0
 23 42  1  0  0  0  0
M  CHG  1   3   1
M  END
> <s_m_source_file>
AV-unprocessed.smi

> <i_m_source_file_index>
1726

> <i_lp_mmshare_version>
43012

> <i_f3d_flags>
0

> <s_epik_input>
W0NIM11bQ0gyXU4xW0NIMl1bQ0gyXVtDSDJdW0NASF0oW0NIMl0xKVtOSF1DKD1PKVtOSF1jMltjSF1jKEMoRikoRilGKVtjSF1bbkhdYzI9Tw==

> <s_epik_cmdline>
J2VwaWtfcHl0aG9uJywgJy1waCcsICc3LjAnLCAnLXRuJywgJzgnLCAnLW1hJywgJzIwMCcsICctbWV0YWxfYmluZGluZycsICctaW1hZScsICc8aW5maWxlLm1hZT4nLCAnLW9tYWUnLCAnPG91dGZpbGUubWFlPic=

> <r_lp_tautomer_probability>
1

> <r_epik_Ionization_Penalty>
0.00745721

> <r_epik_Ionization_Penalty_Charging>
0.00743804

> <r_epik_Ionization_Penalty_Neutral>
1.91703e-05

> <r_epik_State_Penalty>
-0

> <r_epik_Charging_Adjusted_Penalty>
0.00743804

> <i_epik_Tot_Q>
1

> <i_epik_Tot_abs_Q>
1

> <r_epik_Metal_State_Penalty>
0.37929

> <b_epik_Metal_Only>
0

> <s_lp_Force_Field>
OPLS_2005

> <r_lp_Energy>
26.6941

> <b_lp_Chiralities_Consistent>
1

> <s_lp_Variant>
AV-unprocessed.smi:1726-4

> <Gold.Version>
5.8.1

> <Gold.Id.Protein>
6NUR|6NUR_protein|mol2

> <Gold.PLP.Fitness>
38.5307

> <Gold.PLP.PLP>
-28.3776

> <Gold.PLP.part.hbond>
-2.9171

> <Gold.PLP.part.metal>
0.0000

> <Gold.PLP.part.buried>
-1.6983

> <Gold.PLP.part.nonpolar>
-25.4957

> <Gold.PLP.part.repulsive>
0.1770

> <Gold.PLP.ligand.clash>
0.0000

> <Gold.PLP.ligand.torsion>
0.8894

> <Gold.PLP.Chemscore.Hbond>
2.9588

> <Gold.PLP.Chemscore.CHOScore>
1.0000

> <Gold.PLP.Chemscore.Metal>
0.0000

> <Gold.Chemscore.Hbonds>
donor molecule, donor type, donor heavy atom, donor atom, acceptor molecule, acceptor atom, score
      L1  H     8    37       P1  7948  1.00
      L1  H    11    38       P1  7948  0.99
      L1  H    20    24       P1 10957  0.94
      L1  C    19    40       P1 10956  0.99

> <Gold.PLP.Chemscore.Internal.Correction>
0.0556

> <Gold.Rescore>
     Score         DG    S(hbond)    S(metal)    S(lipo)     H(rot)  DE(clash)    DE(int)     intcor
     17.71     -18.57       2.71        0.00      62.62       1.29       0.06       0.80       ----

> <Gold.Chemscore.Fitness>
17.7080

> <Gold.Chemscore.DG>
-18.5702

> <Gold.Chemscore.ZeroCoef>
-5.4800

> <Gold.Chemscore.Hbond>
2.7134

> <Gold.Chemscore.Metal>
0.0000

> <Gold.Chemscore.Lipo>
62.6151

> <Gold.Chemscore.Internal_Hbond>
0.0000

> <Gold.Chemscore.DEClash>
0.0615

> <Gold.Chemscore.DEInternal>
0.8007

> <Gold.Chemscore.Rot>
1.2884

> <Gold.Chemscore.Internal.Correction>
   9.000000E+99

> <Gold.Chemscore.Hbonds>
donor molecule, donor type, donor heavy atom, donor atom, acceptor molecule, acceptor atom, score
      L1  H     8    37       P1  7948  0.88
      L1  H    11    38       P1  7948  0.74
      L1  H    20    24       P1 10957  0.23

> <Gold.Chemscore.Hbond.Weighted>
-9.0626

> <Gold.Chemscore.Metal.Weighted>
-0.0000

> <Gold.Chemscore.Lipo.Weighted>
-7.3260

> <Gold.Chemscore.Internal_Hbond.Weighted>
0.0000

> <Gold.Chemscore.DEClash.Weighted>
0.0615

> <Gold.Chemscore.DEInternal.Weighted>
0.8007

> <Gold.Chemscore.Rot.Weighted>
3.2983

> <Gold.Chemscore.Internal.Correction.Weighted>
   9.000000E+99

> <Gold.Protein.RotatedTorsions>
[ 6907 6896 6895 6894 ] final   63.38 input  -60.11 | X-H torsion
[ 7974 7965 7964 7962 ] final  -46.28 input  175.53 | X-H torsion
[ 8008 7997 7996 7995 ] final -132.71 input   59.86 | X-H torsion
[ 10167 10162 10161 10158 ] final   70.80 input  -65.29 | X-H torsion
[ 10718 10713 10712 10709 ] final -104.28 input   66.30 | X-H torsion
[ 10763 10752 10751 10750 ] final  -14.23 input  -60.55 | X-H torsion
[ 11005 11000 10999 10996 ] final  170.08 input  -57.11 | X-H torsion

> <Gold.Protein.ActiveResidues>
 VAL166  LYS551  ARG553  GLY616  TRP617  ASP618  TYR619  PRO620  LYS621  CYS622 
 ASP623  PHE694  ASN695  SER759  ASP760  ASP761  ALA762  ILE779  LEU786  VAL792 
 PHE793  MET794  SER795  GLU796  ALA797  LYS798  CYS799  TRP800  GLU811  SER814 

> <Gold.Protein.RotatedAtoms>
  152.4248  134.5888  159.9968 H   0  0  0  0  0  0  0  0  0  0  0  0  # atno 6907 bound_to 6896
  151.6027  133.3349  159.3059 H   0  0  0  0  0  0  0  0  0  0  0  0  # atno 6908 bound_to 6896
  150.8137  134.7345  159.6777 H   0  0  0  0  0  0  0  0  0  0  0  0  # atno 6909 bound_to 6896
  145.9735  140.7358  142.9398 H   0  0  0  0  0  0  0  0  0  0  0  0  # atno 7974 bound_to 7965
  155.3335  140.0468  157.3043 H   0  0  0  0  0  0  0  0  0  0  0  0  # atno 8008 bound_to 7997
  154.5315  140.2258  155.8761 H   0  0  0  0  0  0  0  0  0  0  0  0  # atno 8009 bound_to 7997
  156.1793  140.3077  155.9125 H   0  0  0  0  0  0  0  0  0  0  0  0  # atno 8010 bound_to 7997
  140.0530  144.5296  150.7349 H   0  0  0  0  0  0  0  0  0  0  0  0  # atno 10167 bound_to 10162
  156.0298  130.5508  150.7374 H   0  0  0  0  0  0  0  0  0  0  0  0  # atno 10718 bound_to 10713
  153.5252  135.7015  153.5711 H   0  0  0  0  0  0  0  0  0  0  0  0  # atno 10763 bound_to 10752
  153.3743  135.3936  155.1811 H   0  0  0  0  0  0  0  0  0  0  0  0  # atno 10764 bound_to 10752
  154.8690  135.3819  154.4744 H   0  0  0  0  0  0  0  0  0  0  0  0  # atno 10765 bound_to 10752
  140.3045  134.7568  157.3943 H   0  0  0  0  0  0  0  0  0  0  0  0  # atno 11005 bound_to 11000
  144.6843  140.2789  143.7295 LP  0  0  0  0  0  0  0  0  0  0  0  0  # atno 17320 bound_to 7965
  145.7871  139.1913  143.2124 LP  0  0  0  0  0  0  0  0  0  0  0  0  # atno 17321 bound_to 7965
  140.7208  143.2587  151.4285 LP  0  0  0  0  0  0  0  0  0  0  0  0  # atno 17342 bound_to 10162
  139.5941  144.1435  152.2123 LP  0  0  0  0  0  0  0  0  0  0  0  0  # atno 17343 bound_to 10162
  157.4951  131.0914  151.0380 LP  0  0  0  0  0  0  0  0  0  0  0  0  # atno 17370 bound_to 10713
  157.0776  130.5890  149.5414 LP  0  0  0  0  0  0  0  0  0  0  0  0  # atno 17371 bound_to 10713
  140.1079  134.5384  155.8292 LP  0  0  0  0  0  0  0  0  0  0  0  0  # atno 17394 bound_to 11000
  141.2121  133.6715  156.6634 LP  0  0  0  0  0  0  0  0  0  0  0  0  # atno 17395 bound_to 11000

$$$$
