AV-unprocessed.smi:1403|AV-procd|sdf|5699|dock1
  -GOLD-   22720 5333D 1   1.00000     0.00000
 Structure written by MMmdl.
 36 37  0  0  0  0  0  0  0  0  1 V2000
  153.5738  141.3344  160.0773 C   0  0  0  0  0  0  0  0  0  0  0  0
  152.2214  141.4388  159.3577 C   0  0  2  0  0  0  0  0  0  0  0  0
  152.3835  140.9657  157.9839 N   0  0  0  0  0  0  0  0  0  0  0  0
  152.1930  139.7087  157.5531 C   0  0  0  0  0  0  0  0  0  0  0  0
  151.8304  138.7884  158.2870 O   0  0  0  0  0  0  0  0  0  0  0  0
  152.4207  139.4702  156.0537 C   0  0  0  0  0  0  0  0  0  0  0  0
  151.1677  139.3344  155.2969 N   0  0  0  0  0  0  0  0  0  0  0  0
  150.2375  140.3640  155.2901 C   0  0  0  0  0  0  0  0  0  0  0  0
  149.0610  140.3013  154.6227 C   0  0  0  0  0  0  0  0  0  0  0  0
  148.7084  139.1105  153.8572 C   0  0  0  0  0  0  0  0  0  0  0  0
  147.6693  138.9592  153.2190 O   0  0  0  0  0  0  0  0  0  0  0  0
  149.6687  138.0959  153.8908 N   0  0  0  0  0  0  0  0  0  0  0  0
  150.8821  138.1531  154.5781 C   0  0  0  0  0  0  0  0  0  0  0  0
  151.6576  137.1984  154.5446 O   0  0  0  0  0  0  0  0  0  0  0  0
  151.6736  142.8809  159.3692 C   0  0  1  0  0  0  0  0  0  0  0  0
  152.0030  143.6879  160.6250 C   0  0  0  0  0  0  0  0  0  0  0  0
  151.8169  145.1056  160.1338 C   0  0  0  0  0  0  0  0  0  0  0  0
  152.3168  145.0243  158.6920 C   0  0  0  0  0  0  0  0  0  0  0  0
  152.2541  143.6489  158.3201 O   0  0  0  0  0  0  0  0  0  0  0  0
  149.4673  137.2505  153.3770 H   0  0  0  0  0  0  0  0  0  0  0  0
  153.4902  141.6415  161.1201 H   0  0  0  0  0  0  0  0  0  0  0  0
  154.3267  141.9659  159.6043 H   0  0  0  0  0  0  0  0  0  0  0  0
  153.9448  140.3090  160.0681 H   0  0  0  0  0  0  0  0  0  0  0  0
  151.5168  140.7975  159.8905 H   0  0  0  0  0  0  0  0  0  0  0  0
  152.6714  141.6539  157.3036 H   0  0  0  0  0  0  0  0  0  0  0  0
  153.0083  140.3034  155.6660 H   0  0  0  0  0  0  0  0  0  0  0  0
  153.0447  138.5861  155.9075 H   0  0  0  0  0  0  0  0  0  0  0  0
  150.4541  141.2644  155.8472 H   0  0  0  0  0  0  0  0  0  0  0  0
  148.3764  141.1365  154.6560 H   0  0  0  0  0  0  0  0  0  0  0  0
  150.5917  142.8742  159.2227 H   0  0  0  0  0  0  0  0  0  0  0  0
  151.3613  143.4437  161.4719 H   0  0  0  0  0  0  0  0  0  0  0  0
  153.0405  143.5279  160.9224 H   0  0  0  0  0  0  0  0  0  0  0  0
  150.7579  145.3662  160.1476 H   0  0  0  0  0  0  0  0  0  0  0  0
  152.3565  145.8406  160.7317 H   0  0  0  0  0  0  0  0  0  0  0  0
  151.7154  145.6385  158.0213 H   0  0  0  0  0  0  0  0  0  0  0  0
  153.3523  145.3578  158.6189 H   0  0  0  0  0  0  0  0  0  0  0  0
  1  2  1  0  0  0  0
  1 21  1  0  0  0  0
  1 22  1  0  0  0  0
  1 23  1  0  0  0  0
  2  3  1  0  0  0  0
  2 15  1  0  0  0  0
  2 24  1  0  0  0  0
  3  4  1  0  0  0  0
  3 25  1  0  0  0  0
  4  5  2  0  0  0  0
  4  6  1  0  0  0  0
  6  7  1  0  0  0  0
  6 26  1  0  0  0  0
  6 27  1  0  0  0  0
  7 13  1  0  0  0  0
  7  8  1  0  0  0  0
  8  9  2  0  0  0  0
  8 28  1  0  0  0  0
  9 10  1  0  0  0  0
  9 29  1  0  0  0  0
 10 11  2  0  0  0  0
 10 12  1  0  0  0  0
 12 20  1  0  0  0  0
 12 13  1  0  0  0  0
 13 14  2  0  0  0  0
 15 19  1  0  0  0  0
 15 16  1  0  0  0  0
 15 30  1  0  0  0  0
 16 17  1  0  0  0  0
 16 31  1  0  0  0  0
 16 32  1  0  0  0  0
 17 18  1  0  0  0  0
 17 33  1  0  0  0  0
 17 34  1  0  0  0  0
 18 19  1  0  0  0  0
 18 35  1  0  0  0  0
 18 36  1  0  0  0  0
M  END
> <s_m_source_file>
AV-unprocessed.smi

> <i_m_source_file_index>
1403

> <i_lp_mmshare_version>
43012

> <i_f3d_flags>
0

> <s_epik_input>
TzFbQ0gyXVtDSDJdW0NIMl1bQ0BIXTFbQ0BIXShbQ0gzXSlbTkhdQyg9TylbQ0gyXW4yW2NIXVtjSF1jKD1PKVtuSF1jMj1P

> <s_epik_cmdline>
J2VwaWtfcHl0aG9uJywgJy1waCcsICc3LjAnLCAnLXRuJywgJzgnLCAnLW1hJywgJzIwMCcsICctbWV0YWxfYmluZGluZycsICctaW1hZScsICc8aW5maWxlLm1hZT4nLCAnLW9tYWUnLCAnPG91dGZpbGUubWFlPic=

> <r_lp_tautomer_probability>
0.999537

> <r_epik_Ionization_Penalty>
0.00331407

> <r_epik_Ionization_Penalty_Charging>
0.00331405

> <r_epik_Ionization_Penalty_Neutral>
2.30132e-08

> <r_epik_State_Penalty>
0.00234266

> <r_epik_Charging_Adjusted_Penalty>
0.00565671

> <i_epik_Tot_Q>
0

> <i_epik_Tot_abs_Q>
0

> <r_epik_Metal_State_Penalty>
0.365604

> <b_epik_Metal_Only>
0

> <s_lp_Force_Field>
OPLS_2005

> <r_lp_Energy>
18.4227

> <b_lp_Chiralities_Consistent>
1

> <s_lp_Variant>
AV-unprocessed.smi:1403-3

> <Gold.Version>
5.8.1

> <Gold.Id.Protein>
6NUR|6NUR_protein|mol2

> <Gold.PLP.Fitness>
43.3430

> <Gold.PLP.PLP>
-39.4288

> <Gold.PLP.part.hbond>
-2.0000

> <Gold.PLP.part.metal>
0.0000

> <Gold.PLP.part.buried>
-2.7406

> <Gold.PLP.part.nonpolar>
-35.1691

> <Gold.PLP.part.repulsive>
1.2924

> <Gold.PLP.ligand.clash>
0.0000

> <Gold.PLP.ligand.torsion>
1.0581

> <Gold.PLP.Chemscore.Hbond>
2.0000

> <Gold.PLP.Chemscore.CHOScore>
0.0000

> <Gold.PLP.Chemscore.Metal>
0.0000

> <Gold.Chemscore.Hbonds>
donor molecule, donor type, donor heavy atom, donor atom, acceptor molecule, acceptor atom, score
      L1  H    12    20       P1  7948  1.00
      P1  H 10752 10763       L1    14  1.00

> <Gold.PLP.Chemscore.Internal.Correction>
0.0305

> <Gold.Rescore>
     Score         DG    S(hbond)    S(metal)    S(lipo)     H(rot)  DE(clash)    DE(int)     intcor
     15.45     -16.52       1.88        0.00      85.46       2.04       0.01       1.06       ----

> <Gold.Chemscore.Fitness>
15.4485

> <Gold.Chemscore.DG>
-16.5234

> <Gold.Chemscore.ZeroCoef>
-5.4800

> <Gold.Chemscore.Hbond>
1.8759

> <Gold.Chemscore.Metal>
0.0000

> <Gold.Chemscore.Lipo>
85.4605

> <Gold.Chemscore.Internal_Hbond>
0.0000

> <Gold.Chemscore.DEClash>
0.0149

> <Gold.Chemscore.DEInternal>
1.0600

> <Gold.Chemscore.Rot>
2.0395

> <Gold.Chemscore.Internal.Correction>
   9.000000E+99

> <Gold.Chemscore.Hbonds>
donor molecule, donor type, donor heavy atom, donor atom, acceptor molecule, acceptor atom, score
      L1  H    12    20       P1  7948  0.89
      P1  H 10752 10763       L1    14  0.93

> <Gold.Chemscore.Hbond.Weighted>
-6.2656

> <Gold.Chemscore.Metal.Weighted>
-0.0000

> <Gold.Chemscore.Lipo.Weighted>
-9.9989

> <Gold.Chemscore.Internal_Hbond.Weighted>
0.0000

> <Gold.Chemscore.DEClash.Weighted>
0.0149

> <Gold.Chemscore.DEInternal.Weighted>
1.0600

> <Gold.Chemscore.Rot.Weighted>
5.2211

> <Gold.Chemscore.Internal.Correction.Weighted>
   9.000000E+99

> <Gold.Protein.RotatedTorsions>
[ 6907 6896 6895 6894 ] final  -90.59 input  -60.11 | X-H torsion
[ 7974 7965 7964 7962 ] final -178.44 input  175.53 | X-H torsion
[ 8008 7997 7996 7995 ] final  175.28 input   59.86 | X-H torsion
[ 10167 10162 10161 10158 ] final  160.86 input  -65.29 | X-H torsion
[ 10718 10713 10712 10709 ] final   -5.47 input   66.30 | X-H torsion
[ 10763 10752 10751 10750 ] final   43.06 input  -60.55 | X-H torsion
[ 11005 11000 10999 10996 ] final  167.20 input  -57.11 | X-H torsion

> <Gold.Protein.ActiveResidues>
 VAL166  LYS551  ARG553  GLY616  TRP617  ASP618  TYR619  PRO620  LYS621  CYS622 
 ASP623  PHE694  ASN695  SER759  ASP760  ASP761  ALA762  ILE779  LEU786  VAL792 
 PHE793  MET794  SER795  GLU796  ALA797  LYS798  CYS799  TRP800  GLU811  SER814 

> <Gold.Protein.RotatedAtoms>
  150.6883  134.2408  159.4471 H   0  0  0  0  0  0  0  0  0  0  0  0  # atno 6907 bound_to 6896
  152.0353  134.9741  160.0582 H   0  0  0  0  0  0  0  0  0  0  0  0  # atno 6908 bound_to 6896
  152.1264  133.4348  159.4737 H   0  0  0  0  0  0  0  0  0  0  0  0  # atno 6909 bound_to 6896
  144.7131  140.0868  143.6423 H   0  0  0  0  0  0  0  0  0  0  0  0  # atno 7974 bound_to 7965
  156.0887  140.1413  156.9620 H   0  0  0  0  0  0  0  0  0  0  0  0  # atno 8008 bound_to 7997
  154.4629  140.0937  156.6988 H   0  0  0  0  0  0  0  0  0  0  0  0  # atno 8009 bound_to 7997
  155.4955  140.3449  155.4364 H   0  0  0  0  0  0  0  0  0  0  0  0  # atno 8010 bound_to 7997
  139.4844  144.4593  151.8726 H   0  0  0  0  0  0  0  0  0  0  0  0  # atno 10167 bound_to 10162
  156.7461  130.5224  149.5814 H   0  0  0  0  0  0  0  0  0  0  0  0  # atno 10718 bound_to 10713
  152.9869  135.6113  154.3050 H   0  0  0  0  0  0  0  0  0  0  0  0  # atno 10763 bound_to 10752
  154.2768  135.2778  155.2716 H   0  0  0  0  0  0  0  0  0  0  0  0  # atno 10764 bound_to 10752
  154.5073  135.5850  153.6634 H   0  0  0  0  0  0  0  0  0  0  0  0  # atno 10765 bound_to 10752
  140.2744  134.7801  157.3703 H   0  0  0  0  0  0  0  0  0  0  0  0  # atno 11005 bound_to 11000
  145.9654  139.2831  143.1130 LP  0  0  0  0  0  0  0  0  0  0  0  0  # atno 17320 bound_to 7965
  145.9174  140.9138  143.0422 LP  0  0  0  0  0  0  0  0  0  0  0  0  # atno 17321 bound_to 7965
  140.4055  144.2438  150.5891 LP  0  0  0  0  0  0  0  0  0  0  0  0  # atno 17342 bound_to 10162
  140.5017  143.2316  151.8669 LP  0  0  0  0  0  0  0  0  0  0  0  0  # atno 17343 bound_to 10162
  156.1432  130.6259  151.0496 LP  0  0  0  0  0  0  0  0  0  0  0  0  # atno 17370 bound_to 10713
  157.6798  131.0841  150.7401 LP  0  0  0  0  0  0  0  0  0  0  0  0  # atno 17371 bound_to 10713
  140.1343  134.5055  155.8081 LP  0  0  0  0  0  0  0  0  0  0  0  0  # atno 17394 bound_to 11000
  141.2172  133.6801  156.7095 LP  0  0  0  0  0  0  0  0  0  0  0  0  # atno 17395 bound_to 11000

$$$$
