AV-unprocessed.smi:2858|AV-procd|sdf|11000|dock3
  -GOLD-   2272015453D 1   1.00000     0.00000
 Structure written by MMmdl.
 40 41  0  0  0  0  0  0  0  0  2 V2000
  147.2913  134.9241  156.1078 O   0  0  0  0  0  0  0  0  0  0  0  0
  147.9884  135.8043  155.6100 C   0  0  0  0  0  0  0  0  0  0  0  0
  147.3199  137.0310  154.9704 C   0  0  0  0  0  0  0  0  0  0  0  0
  148.2210  137.8180  154.0891 N   0  3  1  0  0  0  0  0  0  0  0  0
  147.5697  139.0507  153.5799 C   0  0  0  0  0  0  0  0  0  0  0  0
  147.7602  140.2484  154.5255 C   0  0  0  0  0  0  0  0  0  0  0  0
  149.0747  141.0002  154.2570 C   0  0  0  0  0  0  0  0  0  0  0  0
  149.3465  141.9972  155.2865 N   0  0  0  0  0  0  0  0  0  0  0  0
  150.2540  141.8595  156.2646 C   0  0  0  0  0  0  0  0  0  0  0  0
  150.9681  140.8637  156.3872 O   0  0  0  0  0  0  0  0  0  0  0  0
  150.2757  142.9379  157.0677 N   0  0  0  0  0  0  0  0  0  0  0  0
  151.1012  143.1715  158.2002 C   0  0  0  0  0  0  0  0  0  0  0  0
  151.2132  144.5252  158.5910 C   0  0  0  0  0  0  0  0  0  0  0  0
  152.0106  144.8616  159.7023 C   0  0  0  0  0  0  0  0  0  0  0  0
  152.6743  143.8343  160.3962 C   0  0  0  0  0  0  0  0  0  0  0  0
  152.5092  142.5130  159.9416 C   0  0  0  0  0  0  0  0  0  0  0  0
  151.7471  142.1883  158.8759 N   0  0  0  0  0  0  0  0  0  0  0  0
  149.5383  138.0607  154.7257 C   0  0  0  0  0  0  0  0  0  0  0  0
  150.2328  136.7229  155.0354 C   0  0  0  0  0  0  0  0  0  0  0  0
  149.3292  135.7298  155.6112 N   0  0  0  0  0  0  0  0  0  0  0  0
  146.4521  136.7002  154.3981 H   0  0  0  0  0  0  0  0  0  0  0  0
  146.9497  137.6695  155.7739 H   0  0  0  0  0  0  0  0  0  0  0  0
  148.0069  139.3106  152.6147 H   0  0  0  0  0  0  0  0  0  0  0  0
  146.5104  138.8623  153.3983 H   0  0  0  0  0  0  0  0  0  0  0  0
  146.9262  140.9416  154.4220 H   0  0  0  0  0  0  0  0  0  0  0  0
  147.7461  139.9020  155.5599 H   0  0  0  0  0  0  0  0  0  0  0  0
  149.9087  140.2981  154.2363 H   0  0  0  0  0  0  0  0  0  0  0  0
  149.0479  141.4795  153.2768 H   0  0  0  0  0  0  0  0  0  0  0  0
  148.8001  142.8457  155.2574 H   0  0  0  0  0  0  0  0  0  0  0  0
  149.6289  143.6793  156.8430 H   0  0  0  0  0  0  0  0  0  0  0  0
  150.6957  145.3022  158.0473 H   0  0  0  0  0  0  0  0  0  0  0  0
  152.1097  145.8900  160.0168 H   0  0  0  0  0  0  0  0  0  0  0  0
  153.2934  144.0525  161.2537 H   0  0  0  0  0  0  0  0  0  0  0  0
  153.0012  141.6948  160.4464 H   0  0  0  0  0  0  0  0  0  0  0  0
  150.1860  138.6592  154.0861 H   0  0  0  0  0  0  0  0  0  0  0  0
  149.3914  138.6295  155.6455 H   0  0  0  0  0  0  0  0  0  0  0  0
  150.6413  136.3016  154.1162 H   0  0  0  0  0  0  0  0  0  0  0  0
  151.0753  136.8797  155.7093 H   0  0  0  0  0  0  0  0  0  0  0  0
  149.7550  134.9195  156.0389 H   0  0  0  0  0  0  0  0  0  0  0  0
  148.3966  137.2341  153.2840 H   0  0  0  0  0  0  0  0  0  0  0  0
  1  2  2  0  0  0  0
  2 20  1  0  0  0  0
  2  3  1  0  0  0  0
  3  4  1  0  0  0  0
  3 21  1  0  0  0  0
  3 22  1  0  0  0  0
  4  5  1  0  0  0  0
  4 18  1  0  0  0  0
  4 40  1  0  0  0  0
  5  6  1  0  0  0  0
  5 23  1  0  0  0  0
  5 24  1  0  0  0  0
  6  7  1  0  0  0  0
  6 25  1  0  0  0  0
  6 26  1  0  0  0  0
  7  8  1  0  0  0  0
  7 27  1  0  0  0  0
  7 28  1  0  0  0  0
  8  9  1  0  0  0  0
  8 29  1  0  0  0  0
  9 10  2  0  0  0  0
  9 11  1  0  0  0  0
 11 12  1  0  0  0  0
 11 30  1  0  0  0  0
 12 17  1  0  0  0  0
 12 13  2  0  0  0  0
 13 14  1  0  0  0  0
 13 31  1  0  0  0  0
 14 15  2  0  0  0  0
 14 32  1  0  0  0  0
 15 16  1  0  0  0  0
 15 33  1  0  0  0  0
 16 17  2  0  0  0  0
 16 34  1  0  0  0  0
 18 19  1  0  0  0  0
 18 35  1  0  0  0  0
 18 36  1  0  0  0  0
 19 20  1  0  0  0  0
 19 37  1  0  0  0  0
 19 38  1  0  0  0  0
 20 39  1  0  0  0  0
M  CHG  1   4   1
M  END
> <s_m_source_file>
AV-unprocessed.smi

> <i_m_source_file_index>
2858

> <i_lp_mmshare_version>
43012

> <i_f3d_flags>
0

> <s_epik_input>
Tz1DMVtDSDJdTihbQ0gyXVtDSDJdW05IXTEpW0NIMl1bQ0gyXVtDSDJdW05IXUMoPU8pW05IXWMyW2NIXVtjSF1bY0hdW2NIXW4y

> <s_epik_cmdline>
J2VwaWtfcHl0aG9uJywgJy1waCcsICc3LjAnLCAnLXRuJywgJzgnLCAnLW1hJywgJzIwMCcsICctbWV0YWxfYmluZGluZycsICctaW1hZScsICc8aW5maWxlLm1hZT4nLCAnLW9tYWUnLCAnPG91dGZpbGUubWFlPic=

> <r_epik_Ionization_Penalty>
0.11034

> <r_epik_Ionization_Penalty_Charging>
0.110189

> <r_epik_Ionization_Penalty_Neutral>
0.000150894

> <r_epik_State_Penalty>
0.0999426

> <r_epik_Charging_Adjusted_Penalty>
0.210132

> <i_epik_Tot_Q>
1

> <i_epik_Tot_abs_Q>
1

> <r_epik_Metal_State_Penalty>
0.172915

> <b_epik_Metal_Only>
0

> <s_lp_Force_Field>
OPLS_2005

> <r_lp_Energy>
20.0709

> <b_lp_Chiralities_Consistent>
1

> <s_lp_Variant>
AV-unprocessed.smi:2858-2

> <Gold.Version>
5.8.1

> <Gold.Id.Protein>
6NUR|6NUR_protein|mol2

> <Gold.PLP.Fitness>
44.9115

> <Gold.PLP.PLP>
-34.2023

> <Gold.PLP.part.hbond>
-3.0000

> <Gold.PLP.part.metal>
0.0000

> <Gold.PLP.part.buried>
-4.2864

> <Gold.PLP.part.nonpolar>
-27.1490

> <Gold.PLP.part.repulsive>
0.2568

> <Gold.PLP.ligand.clash>
0.0000

> <Gold.PLP.ligand.torsion>
0.6275

> <Gold.PLP.Chemscore.Hbond>
3.9760

> <Gold.PLP.Chemscore.CHOScore>
0.0000

> <Gold.PLP.Chemscore.Metal>
0.0000

> <Gold.Chemscore.Hbonds>
donor molecule, donor type, donor heavy atom, donor atom, acceptor molecule, acceptor atom, score
      L1  H     4    40       P1  7948  2.00
      L1  H     8    29       P1  8028  0.86
      L1  H    11    30       P1  8028  1.00

> <Gold.PLP.Chemscore.Internal.Correction>
0.0363

> <Gold.Rescore>
     Score         DG    S(hbond)    S(metal)    S(lipo)     H(rot)  DE(clash)    DE(int)     intcor
     17.50     -19.22       2.92        0.00      79.46       2.08       0.05       1.67       ----

> <Gold.Chemscore.Fitness>
17.4982

> <Gold.Chemscore.DG>
-19.2169

> <Gold.Chemscore.ZeroCoef>
-5.4800

> <Gold.Chemscore.Hbond>
2.9219

> <Gold.Chemscore.Metal>
0.0000

> <Gold.Chemscore.Lipo>
79.4577

> <Gold.Chemscore.Internal_Hbond>
0.0000

> <Gold.Chemscore.DEClash>
0.0458

> <Gold.Chemscore.DEInternal>
1.6729

> <Gold.Chemscore.Rot>
2.0777

> <Gold.Chemscore.Internal.Correction>
   9.000000E+99

> <Gold.Chemscore.Hbonds>
donor molecule, donor type, donor heavy atom, donor atom, acceptor molecule, acceptor atom, score
      L1  H     4    40       P1  7948  1.00
      L1  H     8    29       P1  8028  0.85
      L1  H    11    30       P1  8028  0.93

> <Gold.Chemscore.Hbond.Weighted>
-9.7591

> <Gold.Chemscore.Metal.Weighted>
-0.0000

> <Gold.Chemscore.Lipo.Weighted>
-9.2965

> <Gold.Chemscore.Internal_Hbond.Weighted>
0.0000

> <Gold.Chemscore.DEClash.Weighted>
0.0458

> <Gold.Chemscore.DEInternal.Weighted>
1.6729

> <Gold.Chemscore.Rot.Weighted>
5.3188

> <Gold.Chemscore.Internal.Correction.Weighted>
   9.000000E+99

> <Gold.Protein.RotatedTorsions>
[ 6907 6896 6895 6894 ] final   97.91 input  -60.11 | X-H torsion
[ 7974 7965 7964 7962 ] final   57.71 input  175.53 | X-H torsion
[ 8008 7997 7996 7995 ] final  -86.93 input   59.86 | X-H torsion
[ 10167 10162 10161 10158 ] final  156.84 input  -65.29 | X-H torsion
[ 10718 10713 10712 10709 ] final  166.26 input   66.30 | X-H torsion
[ 10763 10752 10751 10750 ] final   96.39 input  -60.55 | X-H torsion
[ 11005 11000 10999 10996 ] final  171.42 input  -57.11 | X-H torsion

> <Gold.Protein.ActiveResidues>
 VAL166  LYS551  ARG553  GLY616  TRP617  ASP618  TYR619  PRO620  LYS621  CYS622 
 ASP623  PHE694  ASN695  SER759  ASP760  ASP761  ALA762  ILE779  LEU786  VAL792 
 PHE793  MET794  SER795  GLU796  ALA797  LYS798  CYS799  TRP800  GLU811  SER814 

> <Gold.Protein.RotatedAtoms>
  152.5417  134.0661  159.8173 H   0  0  0  0  0  0  0  0  0  0  0  0  # atno 6907 bound_to 6896
  151.0782  133.5404  159.2629 H   0  0  0  0  0  0  0  0  0  0  0  0  # atno 6908 bound_to 6896
  151.2241  135.0538  159.9015 H   0  0  0  0  0  0  0  0  0  0  0  0  # atno 6909 bound_to 6896
  145.9261  139.3769  143.0449 H   0  0  0  0  0  0  0  0  0  0  0  0  # atno 7974 bound_to 7965
  154.6574  140.0572  157.0024 H   0  0  0  0  0  0  0  0  0  0  0  0  # atno 8008 bound_to 7997
  155.1280  140.3254  155.4462 H   0  0  0  0  0  0  0  0  0  0  0  0  # atno 8009 bound_to 7997
  156.2603  140.1986  156.6400 H   0  0  0  0  0  0  0  0  0  0  0  0  # atno 8010 bound_to 7997
  139.4822  144.4972  151.8221 H   0  0  0  0  0  0  0  0  0  0  0  0  # atno 10167 bound_to 10162
  157.0685  131.0359  151.2620 H   0  0  0  0  0  0  0  0  0  0  0  0  # atno 10718 bound_to 10713
  153.2644  135.4220  155.0926 H   0  0  0  0  0  0  0  0  0  0  0  0  # atno 10763 bound_to 10752
  154.8432  135.3457  154.6332 H   0  0  0  0  0  0  0  0  0  0  0  0  # atno 10764 bound_to 10752
  153.6752  135.7041  153.5192 H   0  0  0  0  0  0  0  0  0  0  0  0  # atno 10765 bound_to 10752
  140.3188  134.7455  157.4048 H   0  0  0  0  0  0  0  0  0  0  0  0  # atno 11005 bound_to 11000
  145.8487  140.9541  143.0761 LP  0  0  0  0  0  0  0  0  0  0  0  0  # atno 17320 bound_to 7965
  144.6759  140.0379  143.7481 LP  0  0  0  0  0  0  0  0  0  0  0  0  # atno 17321 bound_to 7965
  140.4462  144.1918  150.5894 LP  0  0  0  0  0  0  0  0  0  0  0  0  # atno 17342 bound_to 10162
  140.4632  143.2441  151.9191 LP  0  0  0  0  0  0  0  0  0  0  0  0  # atno 17343 bound_to 10162
  157.4897  130.7815  149.7496 LP  0  0  0  0  0  0  0  0  0  0  0  0  # atno 17370 bound_to 10713
  155.9957  130.3910  150.2807 LP  0  0  0  0  0  0  0  0  0  0  0  0  # atno 17371 bound_to 10713
  140.0960  134.5536  155.8398 LP  0  0  0  0  0  0  0  0  0  0  0  0  # atno 17394 bound_to 11000
  141.2091  133.6681  156.6419 LP  0  0  0  0  0  0  0  0  0  0  0  0  # atno 17395 bound_to 11000

$$$$
