AV-unprocessed.smi:193|AV-procd|sdf|1511|dock3
  -GOLD-   2262019343D 1   1.00000     0.00000
 Structure written by MMmdl.
 62 66  0  0  0  0  0  0  0  0  2 V2000
  144.5877  131.9833  149.5304 C   0  0  0  0  0  0  0  0  0  0  0  0
  145.5993  132.1355  150.6781 C   0  0  1  0  0  0  0  0  0  0  0  0
  145.0345  133.1069  151.7347 C   0  0  0  0  0  0  0  0  0  0  0  0
  146.0535  133.7416  152.5735 N   0  0  0  0  0  0  0  0  0  0  0  0
  145.7426  134.9177  153.1794 C   0  0  0  0  0  0  0  0  0  0  0  0
  146.7505  135.7496  153.5547 N   0  0  0  0  0  0  0  0  0  0  0  0
  146.4813  136.9171  154.1458 C   0  0  0  0  0  0  0  0  0  0  0  0
  145.2941  137.4403  154.4550 N   0  0  0  0  0  0  0  0  0  0  0  0
  144.2770  136.6085  154.0909 C   0  0  0  0  0  0  0  0  0  0  0  0
  144.4096  135.3408  153.4557 C   0  0  0  0  0  0  0  0  0  0  0  0
  143.1518  134.7812  153.2580 N   0  0  0  0  0  0  0  0  0  0  0  0
  142.3255  135.6718  153.7350 C   0  0  0  0  0  0  0  0  0  0  0  0
  142.9162  136.8037  154.2486 N   0  0  0  0  0  0  0  0  0  0  0  0
  142.2389  137.9476  154.8396 C   0  0  0  0  0  0  0  0  0  0  0  0
  140.9918  138.4158  154.0492 C   0  0  0  0  0  0  0  0  0  0  0  0
  141.3706  138.5547  152.6906 O   0  0  0  0  0  0  0  0  0  0  0  0
  139.8733  137.3580  154.1362 C   0  0  0  0  0  0  0  0  0  0  0  0
  138.5567  137.8511  153.5099 C   0  0  0  0  0  0  0  0  0  0  0  0
  138.1586  139.0756  154.1140 O   0  0  0  0  0  0  0  0  0  0  0  0
  139.0941  140.1250  153.8986 C   0  0  0  0  0  0  0  0  0  0  0  0
  140.4452  139.7723  154.5458 C   0  0  0  0  0  0  0  0  0  0  0  0
  147.2689  133.0477  152.9981 C   0  0  0  0  0  0  0  0  0  0  0  0
  147.0459  131.5651  153.3267 C   0  0  0  0  0  0  0  0  0  0  0  0
  147.1388  130.7200  152.1123 N   0  3  1  0  0  0  0  0  0  0  0  0
  147.5351  129.3319  152.4418 C   0  0  1  0  0  0  0  0  0  0  0  0
  146.3634  128.3914  152.6070 C   0  0  0  0  0  0  0  0  0  0  0  0
  147.2120  128.3292  151.3554 C   0  0  2  0  0  0  0  0  0  0  0  0
  148.1149  127.1408  151.1071 C   0  0  0  0  0  0  0  0  0  0  0  0
  145.9128  130.7475  151.2776 C   0  0  0  0  0  0  0  0  0  0  0  0
  143.6440  131.5673  149.8845 H   0  0  0  0  0  0  0  0  0  0  0  0
  144.9699  131.3251  148.7493 H   0  0  0  0  0  0  0  0  0  0  0  0
  144.3725  132.9454  149.0643 H   0  0  0  0  0  0  0  0  0  0  0  0
  146.5065  132.5579  150.2430 H   0  0  0  0  0  0  0  0  0  0  0  0
  144.4972  133.9019  151.2148 H   0  0  0  0  0  0  0  0  0  0  0  0
  144.3002  132.6036  152.3650 H   0  0  0  0  0  0  0  0  0  0  0  0
  147.3396  137.5181  154.4077 H   0  0  0  0  0  0  0  0  0  0  0  0
  141.2545  135.5292  153.7232 H   0  0  0  0  0  0  0  0  0  0  0  0
  141.9641  137.6890  155.8632 H   0  0  0  0  0  0  0  0  0  0  0  0
  142.9592  138.7628  154.9181 H   0  0  0  0  0  0  0  0  0  0  0  0
  141.0284  139.3738  152.3667 H   0  0  0  0  0  0  0  0  0  0  0  0
  140.1883  136.4275  153.6621 H   0  0  0  0  0  0  0  0  0  0  0  0
  139.6860  137.1179  155.1836 H   0  0  0  0  0  0  0  0  0  0  0  0
  138.6562  137.9792  152.4310 H   0  0  0  0  0  0  0  0  0  0  0  0
  137.7712  137.1121  153.6680 H   0  0  0  0  0  0  0  0  0  0  0  0
  139.2069  140.3129  152.8299 H   0  0  0  0  0  0  0  0  0  0  0  0
  138.6994  141.0410  154.3383 H   0  0  0  0  0  0  0  0  0  0  0  0
  140.3093  139.7302  155.6273 H   0  0  0  0  0  0  0  0  0  0  0  0
  141.1606  140.5737  154.3578 H   0  0  0  0  0  0  0  0  0  0  0  0
  148.0473  133.1689  152.2441 H   0  0  0  0  0  0  0  0  0  0  0  0
  147.6495  133.5170  153.9058 H   0  0  0  0  0  0  0  0  0  0  0  0
  147.8433  131.2660  154.0085 H   0  0  0  0  0  0  0  0  0  0  0  0
  146.1114  131.3975  153.8646 H   0  0  0  0  0  0  0  0  0  0  0  0
  148.4245  129.2173  153.0595 H   0  0  0  0  0  0  0  0  0  0  0  0
  146.4691  127.5831  153.3281 H   0  0  0  0  0  0  0  0  0  0  0  0
  145.3575  128.7957  152.5093 H   0  0  0  0  0  0  0  0  0  0  0  0
  146.7512  128.7202  150.4496 H   0  0  0  0  0  0  0  0  0  0  0  0
  148.5521  126.7845  152.0405 H   0  0  0  0  0  0  0  0  0  0  0  0
  148.9220  127.4194  150.4295 H   0  0  0  0  0  0  0  0  0  0  0  0
  147.5467  126.3272  150.6560 H   0  0  0  0  0  0  0  0  0  0  0  0
  145.0629  130.3729  151.8506 H   0  0  0  0  0  0  0  0  0  0  0  0
  146.0584  130.0424  150.4580 H   0  0  0  0  0  0  0  0  0  0  0  0
  147.8884  131.0980  151.5511 H   0  0  0  0  0  0  0  0  0  0  0  0
  1  2  1  0  0  0  0
  1 30  1  0  0  0  0
  1 31  1  0  0  0  0
  1 32  1  0  0  0  0
  2 29  1  0  0  0  0
  2  3  1  0  0  0  0
  2 33  1  0  0  0  0
  3  4  1  0  0  0  0
  3 34  1  0  0  0  0
  3 35  1  0  0  0  0
  4  5  1  0  0  0  0
  4 22  1  0  0  0  0
  5 10  1  0  0  0  0
  5  6  2  0  0  0  0
  6  7  1  0  0  0  0
  7  8  2  0  0  0  0
  7 36  1  0  0  0  0
  8  9  1  0  0  0  0
  9 13  1  0  0  0  0
  9 10  2  0  0  0  0
 10 11  1  0  0  0  0
 11 12  2  0  0  0  0
 12 13  1  0  0  0  0
 12 37  1  0  0  0  0
 13 14  1  0  0  0  0
 14 15  1  0  0  0  0
 14 38  1  0  0  0  0
 14 39  1  0  0  0  0
 15 21  1  0  0  0  0
 15 16  1  0  0  0  0
 15 17  1  0  0  0  0
 16 40  1  0  0  0  0
 17 18  1  0  0  0  0
 17 41  1  0  0  0  0
 17 42  1  0  0  0  0
 18 19  1  0  0  0  0
 18 43  1  0  0  0  0
 18 44  1  0  0  0  0
 19 20  1  0  0  0  0
 20 21  1  0  0  0  0
 20 45  1  0  0  0  0
 20 46  1  0  0  0  0
 21 47  1  0  0  0  0
 21 48  1  0  0  0  0
 22 23  1  0  0  0  0
 22 49  1  0  0  0  0
 22 50  1  0  0  0  0
 23 24  1  0  0  0  0
 23 51  1  0  0  0  0
 23 52  1  0  0  0  0
 24 25  1  0  0  0  0
 24 29  1  0  0  0  0
 24 62  1  0  0  0  0
 25 27  1  0  0  0  0
 25 26  1  0  0  0  0
 25 53  1  0  0  0  0
 26 27  1  0  0  0  0
 26 54  1  0  0  0  0
 26 55  1  0  0  0  0
 27 28  1  0  0  0  0
 27 56  1  0  0  0  0
 28 57  1  0  0  0  0
 28 58  1  0  0  0  0
 28 59  1  0  0  0  0
 29 60  1  0  0  0  0
 29 61  1  0  0  0  0
M  CHG  1  24   1
M  END
> <s_m_source_file>
AV-unprocessed.smi

> <i_m_source_file_index>
193

> <i_lp_mmshare_version>
43012

> <i_f3d_flags>
0

> <s_epik_input>
W0NIM11bQ0BASF0xW0NIMl1bQ0BIXTFOKFtDSDJdMilbQ0gyXVtDSDJdTihbQ0gyXVtDQEhdMltDSDNdKWMobltjSF1uMyljKGMzNCluW2NIXW40W0NIMl1DNShbT0hdKVtDSDJdW0NIMl1PW0NIMl1bQ0gyXTU=

> <s_epik_cmdline>
J2VwaWtfcHl0aG9uJywgJy1waCcsICc3LjAnLCAnLXRuJywgJzgnLCAnLW1hJywgJzIwMCcsICctbWV0YWxfYmluZGluZycsICctaW1hZScsICc8aW5maWxlLm1hZT4nLCAnLW9tYWUnLCAnPG91dGZpbGUubWFlPic=

> <r_lp_tautomer_probability>
1

> <r_epik_Ionization_Penalty>
0.0540825

> <r_epik_Ionization_Penalty_Charging>
0.0538476

> <r_epik_Ionization_Penalty_Neutral>
0.000234891

> <r_epik_State_Penalty>
0.0200719

> <r_epik_Charging_Adjusted_Penalty>
0.0739194

> <i_epik_Tot_Q>
1

> <i_epik_Tot_abs_Q>
1

> <r_epik_Metal_State_Penalty>
0.0199414

> <b_epik_Metal_Only>
0

> <s_lp_Force_Field>
OPLS_2005

> <r_lp_Energy>
53.3477

> <b_lp_Chiralities_Consistent>
1

> <s_lp_Variant>
AV-unprocessed.smi:193-16

> <Gold.Version>
5.8.1

> <Gold.Id.Protein>
6NUR|6NUR_protein|mol2

> <Gold.PLP.Fitness>
49.0362

> <Gold.PLP.PLP>
-45.0926

> <Gold.PLP.part.hbond>
-3.0000

> <Gold.PLP.part.metal>
0.0000

> <Gold.PLP.part.buried>
-6.4731

> <Gold.PLP.part.nonpolar>
-36.2284

> <Gold.PLP.part.repulsive>
1.1168

> <Gold.PLP.ligand.clash>
0.4058

> <Gold.PLP.ligand.torsion>
1.2824

> <Gold.PLP.Chemscore.Hbond>
1.8720

> <Gold.PLP.Chemscore.CHOScore>
0.0000

> <Gold.PLP.Chemscore.Metal>
0.0000

> <Gold.Chemscore.Hbonds>
donor molecule, donor type, donor heavy atom, donor atom, acceptor molecule, acceptor atom, score
      L1  H    16    40       P1 10160  0.99
      L1  H    24    62       P1 10747  0.94

> <Gold.PLP.Chemscore.Internal.Correction>
1.2981

> <Gold.Rescore>
     Score         DG    S(hbond)    S(metal)    S(lipo)     H(rot)  DE(clash)    DE(int)     intcor
     17.67     -21.45       1.91        0.00     124.12       1.93       0.53       3.25       ----

> <Gold.Chemscore.Fitness>
17.6672

> <Gold.Chemscore.DG>
-21.4540

> <Gold.Chemscore.ZeroCoef>
-5.4800

> <Gold.Chemscore.Hbond>
1.9134

> <Gold.Chemscore.Metal>
0.0000

> <Gold.Chemscore.Lipo>
124.1151

> <Gold.Chemscore.Internal_Hbond>
0.0000

> <Gold.Chemscore.DEClash>
0.5318

> <Gold.Chemscore.DEInternal>
3.2549

> <Gold.Chemscore.Rot>
1.9290

> <Gold.Chemscore.Internal.Correction>
   9.000000E+99

> <Gold.Chemscore.Hbonds>
donor molecule, donor type, donor heavy atom, donor atom, acceptor molecule, acceptor atom, score
      L1  H    16    40       P1 10160  0.92
      L1  H    24    62       P1 10747  0.91

> <Gold.Chemscore.Hbond.Weighted>
-6.3908

> <Gold.Chemscore.Metal.Weighted>
-0.0000

> <Gold.Chemscore.Lipo.Weighted>
-14.5215

> <Gold.Chemscore.Internal_Hbond.Weighted>
0.0000

> <Gold.Chemscore.DEClash.Weighted>
0.5318

> <Gold.Chemscore.DEInternal.Weighted>
3.2549

> <Gold.Chemscore.Rot.Weighted>
4.9383

> <Gold.Chemscore.Internal.Correction.Weighted>
   9.000000E+99

> <Gold.Protein.RotatedTorsions>
[ 6907 6896 6895 6894 ] final  155.90 input  -60.11 | X-H torsion
[ 7974 7965 7964 7962 ] final  177.49 input  175.53 | X-H torsion
[ 8008 7997 7996 7995 ] final  -53.80 input   59.86 | X-H torsion
[ 10167 10162 10161 10158 ] final -138.27 input  -65.29 | X-H torsion
[ 10718 10713 10712 10709 ] final  -33.45 input   66.30 | X-H torsion
[ 10763 10752 10751 10750 ] final  148.35 input  -60.55 | X-H torsion
[ 11005 11000 10999 10996 ] final  -50.61 input  -57.11 | X-H torsion

> <Gold.Protein.ActiveResidues>
 VAL166  LYS551  ARG553  GLY616  TRP617  ASP618  TYR619  PRO620  LYS621  CYS622 
 ASP623  PHE694  ASN695  SER759  ASP760  ASP761  ALA762  ILE779  LEU786  VAL792 
 PHE793  MET794  SER795  GLU796  ALA797  LYS798  CYS799  TRP800  GLU811  SER814 

> <Gold.Protein.RotatedAtoms>
  152.0374  133.3963  159.4322 H   0  0  0  0  0  0  0  0  0  0  0  0  # atno 6907 bound_to 6896
  150.6878  134.3453  159.4895 H   0  0  0  0  0  0  0  0  0  0  0  0  # atno 6908 bound_to 6896
  152.1247  134.9179  160.0612 H   0  0  0  0  0  0  0  0  0  0  0  0  # atno 6909 bound_to 6896
  144.7168  140.0255  143.6439 H   0  0  0  0  0  0  0  0  0  0  0  0  # atno 7974 bound_to 7965
  154.4144  140.1191  156.5213 H   0  0  0  0  0  0  0  0  0  0  0  0  # atno 8008 bound_to 7997
  155.6700  140.3496  155.4795 H   0  0  0  0  0  0  0  0  0  0  0  0  # atno 8009 bound_to 7997
  155.9641  140.1128  157.0860 H   0  0  0  0  0  0  0  0  0  0  0  0  # atno 8010 bound_to 7997
  139.8495  143.7217  152.2659 H   0  0  0  0  0  0  0  0  0  0  0  0  # atno 10167 bound_to 10162
  156.3626  130.4326  149.7611 H   0  0  0  0  0  0  0  0  0  0  0  0  # atno 10718 bound_to 10713
  154.0533  135.2880  155.3337 H   0  0  0  0  0  0  0  0  0  0  0  0  # atno 10763 bound_to 10752
  154.6855  135.5247  153.8324 H   0  0  0  0  0  0  0  0  0  0  0  0  # atno 10764 bound_to 10752
  153.0552  135.6592  154.0728 H   0  0  0  0  0  0  0  0  0  0  0  0  # atno 10765 bound_to 10752
  141.0825  133.6650  156.3756 H   0  0  0  0  0  0  0  0  0  0  0  0  # atno 11005 bound_to 11000
  146.0145  139.3198  143.0850 LP  0  0  0  0  0  0  0  0  0  0  0  0  # atno 17320 bound_to 7965
  145.8642  140.9458  143.0684 LP  0  0  0  0  0  0  0  0  0  0  0  0  # atno 17321 bound_to 7965
  139.7479  144.7542  151.0551 LP  0  0  0  0  0  0  0  0  0  0  0  0  # atno 17342 bound_to 10162
  140.7789  143.4894  150.9913 LP  0  0  0  0  0  0  0  0  0  0  0  0  # atno 17343 bound_to 10162
  156.4769  130.8023  151.3039 LP  0  0  0  0  0  0  0  0  0  0  0  0  # atno 17370 bound_to 10713
  157.7475  131.0018  150.2976 LP  0  0  0  0  0  0  0  0  0  0  0  0  # atno 17371 bound_to 10713
  140.5436  134.6096  157.5387 LP  0  0  0  0  0  0  0  0  0  0  0  0  # atno 17394 bound_to 11000
  139.9640  134.7404  156.0176 LP  0  0  0  0  0  0  0  0  0  0  0  0  # atno 17395 bound_to 11000

$$$$
