AV-unprocessed.smi:682|AV-procd|sdf|3328|dock3
  -GOLD-   22720 0293D 1   1.00000     0.00000
 Structure written by MMmdl.
 41 42  0  0  0  0  0  0  0  0  1 V2000
  151.1388  132.0109  157.8407 C   0  0  0  0  0  0  0  0  0  0  0  0
  150.7088  131.2659  156.7078 O   0  0  0  0  0  0  0  0  0  0  0  0
  151.0591  131.7742  155.4131 C   0  0  1  0  0  0  0  0  0  0  0  0
  152.4734  132.3674  155.4334 C   0  0  0  0  0  0  0  0  0  0  0  0
  150.6824  130.7556  154.3198 C   0  0  0  0  0  0  0  0  0  0  0  0
  149.2660  131.3231  154.3845 C   0  0  2  0  0  0  0  0  0  0  0  0
  148.6266  131.3951  153.0751 N   0  0  0  0  0  0  0  0  0  0  0  0
  147.3856  131.8542  152.8670 C   0  0  0  0  0  0  0  0  0  0  0  0
  146.6521  132.2628  153.7672 O   0  0  0  0  0  0  0  0  0  0  0  0
  147.0613  131.8113  151.5651 N   0  0  0  0  0  0  0  0  0  0  0  0
  145.8432  132.2261  150.9721 C   0  0  0  0  0  0  0  0  0  0  0  0
  144.7098  132.8418  151.5751 C   0  0  0  0  0  0  0  0  0  0  0  0
  143.7648  133.0792  150.6776 N   0  0  0  0  0  0  0  0  0  0  0  0
  144.2708  132.6259  149.5052 N   0  0  0  0  0  0  0  0  0  0  0  0
  143.4760  132.7370  148.3008 C   0  0  0  0  0  0  0  0  0  0  0  0
  145.5391  132.1003  149.6500 C   0  0  0  0  0  0  0  0  0  0  0  0
  149.8766  132.6552  154.8917 C   0  0  0  0  0  0  0  0  0  0  0  0
  149.0611  133.4054  155.9506 C   0  0  0  0  0  0  0  0  0  0  0  0
  150.2374  133.7040  153.8226 C   0  0  0  0  0  0  0  0  0  0  0  0
  150.9399  131.4323  158.7426 H   0  0  0  0  0  0  0  0  0  0  0  0
  150.5933  132.9497  157.9350 H   0  0  0  0  0  0  0  0  0  0  0  0
  152.2062  132.2269  157.8170 H   0  0  0  0  0  0  0  0  0  0  0  0
  152.7242  132.8513  154.4901 H   0  0  0  0  0  0  0  0  0  0  0  0
  153.2335  131.6030  155.5910 H   0  0  0  0  0  0  0  0  0  0  0  0
  152.5784  133.1139  156.2208 H   0  0  0  0  0  0  0  0  0  0  0  0
  151.1879  130.9469  153.3716 H   0  0  0  0  0  0  0  0  0  0  0  0
  150.7543  129.7039  154.5941 H   0  0  0  0  0  0  0  0  0  0  0  0
  148.6640  130.8157  155.1423 H   0  0  0  0  0  0  0  0  0  0  0  0
  149.1635  131.0771  152.2816 H   0  0  0  0  0  0  0  0  0  0  0  0
  147.7584  131.4464  150.9327 H   0  0  0  0  0  0  0  0  0  0  0  0
  144.5354  133.1222  152.6031 H   0  0  0  0  0  0  0  0  0  0  0  0
  143.9700  132.2199  147.4775 H   0  0  0  0  0  0  0  0  0  0  0  0
  143.3524  133.7878  148.0374 H   0  0  0  0  0  0  0  0  0  0  0  0
  142.4948  132.2889  148.4617 H   0  0  0  0  0  0  0  0  0  0  0  0
  146.0990  131.6934  148.8207 H   0  0  0  0  0  0  0  0  0  0  0  0
  148.2172  133.9347  155.5068 H   0  0  0  0  0  0  0  0  0  0  0  0
  149.6718  134.1391  156.4773 H   0  0  0  0  0  0  0  0  0  0  0  0
  148.6456  132.7306  156.6991 H   0  0  0  0  0  0  0  0  0  0  0  0
  149.3470  134.1563  153.3850 H   0  0  0  0  0  0  0  0  0  0  0  0
  150.8116  133.2750  153.0012 H   0  0  0  0  0  0  0  0  0  0  0  0
  150.8345  134.5135  154.2435 H   0  0  0  0  0  0  0  0  0  0  0  0
  1  2  1  0  0  0  0
  1 20  1  0  0  0  0
  1 21  1  0  0  0  0
  1 22  1  0  0  0  0
  2  3  1  0  0  0  0
  3 17  1  0  0  0  0
  3  4  1  0  0  0  0
  3  5  1  0  0  0  0
  4 23  1  0  0  0  0
  4 24  1  0  0  0  0
  4 25  1  0  0  0  0
  5  6  1  0  0  0  0
  5 26  1  0  0  0  0
  5 27  1  0  0  0  0
  6  7  1  0  0  0  0
  6 17  1  0  0  0  0
  6 28  1  0  0  0  0
  7  8  1  0  0  0  0
  7 29  1  0  0  0  0
  8  9  2  0  0  0  0
  8 10  1  0  0  0  0
 10 11  1  0  0  0  0
 10 30  1  0  0  0  0
 11 16  2  0  0  0  0
 11 12  1  0  0  0  0
 12 13  2  0  0  0  0
 12 31  1  0  0  0  0
 13 14  1  0  0  0  0
 14 15  1  0  0  0  0
 14 16  1  0  0  0  0
 15 32  1  0  0  0  0
 15 33  1  0  0  0  0
 15 34  1  0  0  0  0
 16 35  1  0  0  0  0
 17 18  1  0  0  0  0
 17 19  1  0  0  0  0
 18 36  1  0  0  0  0
 18 37  1  0  0  0  0
 18 38  1  0  0  0  0
 19 39  1  0  0  0  0
 19 40  1  0  0  0  0
 19 41  1  0  0  0  0
M  END
> <s_m_source_file>
AV-unprocessed.smi

> <i_m_source_file_index>
682

> <i_lp_mmshare_version>
43012

> <i_f3d_flags>
0

> <s_epik_input>
W0NIM11PW0NAQF0xKFtDSDNdKVtDSDJdW0NASF0oQzEoW0NIM10pW0NIM10pW05IXUMoPU8pW05IXWMyW2NIXW5uKFtDSDNdKVtjSF0y

> <s_epik_cmdline>
J2VwaWtfcHl0aG9uJywgJy1waCcsICc3LjAnLCAnLXRuJywgJzgnLCAnLW1hJywgJzIwMCcsICctbWV0YWxfYmluZGluZycsICctaW1hZScsICc8aW5maWxlLm1hZT4nLCAnLW9tYWUnLCAnPG91dGZpbGUubWFlPic=

> <r_lp_tautomer_probability>
1

> <r_epik_Ionization_Penalty>
0.000192302

> <r_epik_Ionization_Penalty_Charging>
0

> <r_epik_Ionization_Penalty_Neutral>
0.000192302

> <r_epik_State_Penalty>
-0

> <r_epik_Charging_Adjusted_Penalty>
0

> <i_epik_Tot_Q>
0

> <i_epik_Tot_abs_Q>
0

> <r_epik_Metal_State_Penalty>
-0

> <b_epik_Metal_Only>
0

> <s_lp_Force_Field>
OPLS_2005

> <r_lp_Energy>
24.1869

> <b_lp_Chiralities_Consistent>
1

> <s_lp_Variant>
AV-unprocessed.smi:682-3

> <Gold.Version>
5.8.1

> <Gold.Id.Protein>
6NUR|6NUR_protein|mol2

> <Gold.PLP.Fitness>
39.2560

> <Gold.PLP.PLP>
-33.4508

> <Gold.PLP.part.hbond>
-2.0000

> <Gold.PLP.part.metal>
0.0000

> <Gold.PLP.part.buried>
-4.3763

> <Gold.PLP.part.nonpolar>
-27.3643

> <Gold.PLP.part.repulsive>
0.3947

> <Gold.PLP.ligand.clash>
0.0000

> <Gold.PLP.ligand.torsion>
0.4963

> <Gold.PLP.Chemscore.Hbond>
1.8480

> <Gold.PLP.Chemscore.CHOScore>
0.2932

> <Gold.PLP.Chemscore.Metal>
0.0000

> <Gold.Chemscore.Hbonds>
donor molecule, donor type, donor heavy atom, donor atom, acceptor molecule, acceptor atom, score
      L1  H     7    29       P1 10747  0.83
      L1  H    10    30       P1 10747  0.94

> <Gold.PLP.Chemscore.Internal.Correction>
0.3741

> <Gold.Rescore>
     Score         DG    S(hbond)    S(metal)    S(lipo)     H(rot)  DE(clash)    DE(int)     intcor
     14.90     -16.51       1.48        0.00      79.08       1.23       0.13       1.49       ----

> <Gold.Chemscore.Fitness>
14.8972

> <Gold.Chemscore.DG>
-16.5134

> <Gold.Chemscore.ZeroCoef>
-5.4800

> <Gold.Chemscore.Hbond>
1.4789

> <Gold.Chemscore.Metal>
0.0000

> <Gold.Chemscore.Lipo>
79.0761

> <Gold.Chemscore.Internal_Hbond>
0.0000

> <Gold.Chemscore.DEClash>
0.1307

> <Gold.Chemscore.DEInternal>
1.4855

> <Gold.Chemscore.Rot>
1.2336

> <Gold.Chemscore.Internal.Correction>
   9.000000E+99

> <Gold.Chemscore.Hbonds>
donor molecule, donor type, donor heavy atom, donor atom, acceptor molecule, acceptor atom, score
      L1  H     7    29       P1 10747  0.24
      L1  H    10    30       P1 10747  0.90

> <Gold.Chemscore.Hbond.Weighted>
-4.9396

> <Gold.Chemscore.Metal.Weighted>
-0.0000

> <Gold.Chemscore.Lipo.Weighted>
-9.2519

> <Gold.Chemscore.Internal_Hbond.Weighted>
0.0000

> <Gold.Chemscore.DEClash.Weighted>
0.1307

> <Gold.Chemscore.DEInternal.Weighted>
1.4855

> <Gold.Chemscore.Rot.Weighted>
3.1581

> <Gold.Chemscore.Internal.Correction.Weighted>
   9.000000E+99

> <Gold.Protein.RotatedTorsions>
[ 6907 6896 6895 6894 ] final -164.29 input  -60.11 | X-H torsion
[ 7974 7965 7964 7962 ] final   -7.27 input  175.53 | X-H torsion
[ 8008 7997 7996 7995 ] final   77.82 input   59.86 | X-H torsion
[ 10167 10162 10161 10158 ] final  143.85 input  -65.29 | X-H torsion
[ 10718 10713 10712 10709 ] final -153.22 input   66.30 | X-H torsion
[ 10763 10752 10751 10750 ] final  165.95 input  -60.55 | X-H torsion
[ 11005 11000 10999 10996 ] final -140.28 input  -57.11 | X-H torsion

> <Gold.Protein.ActiveResidues>
 VAL166  LYS551  ARG553  GLY616  TRP617  ASP618  TYR619  PRO620  LYS621  CYS622 
 ASP623  PHE694  ASN695  SER759  ASP760  ASP761  ALA762  ILE779  LEU786  VAL792 
 PHE793  MET794  SER795  GLU796  ALA797  LYS798  CYS799  TRP800  GLU811  SER814 

> <Gold.Protein.RotatedAtoms>
  151.4095  133.3732  159.2741 H   0  0  0  0  0  0  0  0  0  0  0  0  # atno 6907 bound_to 6896
  150.9374  134.8786  159.7601 H   0  0  0  0  0  0  0  0  0  0  0  0  # atno 6908 bound_to 6896
  152.5056  134.4043  159.9479 H   0  0  0  0  0  0  0  0  0  0  0  0  # atno 6909 bound_to 6896
  146.2311  140.2295  142.8340 H   0  0  0  0  0  0  0  0  0  0  0  0  # atno 7974 bound_to 7965
  155.8470  140.3460  155.5669 H   0  0  0  0  0  0  0  0  0  0  0  0  # atno 8008 bound_to 7997
  155.8079  140.0894  157.1940 H   0  0  0  0  0  0  0  0  0  0  0  0  # atno 8009 bound_to 7997
  154.4006  140.1453  156.3339 H   0  0  0  0  0  0  0  0  0  0  0  0  # atno 8010 bound_to 7997
  139.4960  144.6012  151.6476 H   0  0  0  0  0  0  0  0  0  0  0  0  # atno 10167 bound_to 10162
  156.4829  130.8312  151.2538 H   0  0  0  0  0  0  0  0  0  0  0  0  # atno 10718 bound_to 10713
  154.3317  135.2754  155.2468 H   0  0  0  0  0  0  0  0  0  0  0  0  # atno 10763 bound_to 10752
  154.4777  135.5866  153.6371 H   0  0  0  0  0  0  0  0  0  0  0  0  # atno 10764 bound_to 10752
  152.9866  135.6104  154.3510 H   0  0  0  0  0  0  0  0  0  0  0  0  # atno 10765 bound_to 10752
  140.8438  134.2370  157.4796 H   0  0  0  0  0  0  0  0  0  0  0  0  # atno 11005 bound_to 11000
  144.9569  140.8236  143.5537 LP  0  0  0  0  0  0  0  0  0  0  0  0  # atno 17320 bound_to 7965
  145.2261  139.2136  143.5067 LP  0  0  0  0  0  0  0  0  0  0  0  0  # atno 17321 bound_to 7965
  140.5662  144.0185  150.6194 LP  0  0  0  0  0  0  0  0  0  0  0  0  # atno 17342 bound_to 10162
  140.3287  143.3091  152.0709 LP  0  0  0  0  0  0  0  0  0  0  0  0  # atno 17343 bound_to 10162
  157.7481  131.0039  150.3055 LP  0  0  0  0  0  0  0  0  0  0  0  0  # atno 17370 bound_to 10713
  156.3503  130.3830  149.7335 LP  0  0  0  0  0  0  0  0  0  0  0  0  # atno 17371 bound_to 10713
  139.8703  134.9649  156.4510 LP  0  0  0  0  0  0  0  0  0  0  0  0  # atno 17394 bound_to 11000
  140.8866  133.7879  155.9525 LP  0  0  0  0  0  0  0  0  0  0  0  0  # atno 17395 bound_to 11000

$$$$
