AV-unprocessed.smi:1234|AV-procd|sdf|5174|dock3
  -GOLD-   22720 4253D 1   1.00000     0.00000
 Structure written by MMmdl.
 32 33  0  0  0  0  0  0  0  0  2 V2000
  149.4747  135.7624  158.9946 O   0  0  0  0  0  0  0  0  0  0  0  0
  149.3132  136.8714  159.5094 C   0  0  0  0  0  0  0  0  0  0  0  0
  150.0127  137.9227  159.0619 N   0  0  0  0  0  0  0  0  0  0  0  0
  150.9953  137.8826  157.9862 C   0  0  0  0  0  0  0  0  0  0  0  0
  151.5025  139.3008  157.6693 C   0  0  0  0  0  0  0  0  0  0  0  0
  152.7442  139.7120  158.4789 C   0  0  0  0  0  0  0  0  0  0  0  0
  153.7172  138.9586  158.5390 O   0  0  0  0  0  0  0  0  0  0  0  0
  152.7265  140.9062  159.1071 N   0  0  0  0  0  0  0  0  0  0  0  0
  151.5857  141.8193  159.0741 C   0  0  0  0  0  0  0  0  0  0  0  0
  151.8856  142.8953  160.1176 C   0  0  0  0  0  0  0  0  0  0  0  0
  153.4049  142.9082  160.2131 C   0  0  0  0  0  0  0  0  0  0  0  0
  153.8138  141.4662  159.9095 C   0  0  0  0  0  0  0  0  0  0  0  0
  148.4708  137.1693  160.5248 N   0  5  0  0  0  0  0  0  0  0  0  0
  147.8971  136.1822  161.2326 C   0  0  0  0  0  0  0  0  0  0  0  0
  147.5415  135.0132  160.6754 N   0  0  0  0  0  0  0  0  0  0  0  0
  146.9694  134.1287  161.5797 N   0  0  0  0  0  0  0  0  0  0  0  0
  146.9155  134.6532  162.8039 C   0  0  0  0  0  0  0  0  0  0  0  0
  147.5618  136.2727  162.9641 S   0  0  0  0  0  0  0  0  0  0  0  0
  149.8522  138.8141  159.5075 H   0  0  0  0  0  0  0  0  0  0  0  0
  151.8273  137.2412  158.2826 H   0  0  0  0  0  0  0  0  0  0  0  0
  150.5359  137.4349  157.1033 H   0  0  0  0  0  0  0  0  0  0  0  0
  151.7368  139.3686  156.6061 H   0  0  0  0  0  0  0  0  0  0  0  0
  150.7066  140.0195  157.8677 H   0  0  0  0  0  0  0  0  0  0  0  0
  151.5134  142.2597  158.0783 H   0  0  0  0  0  0  0  0  0  0  0  0
  150.6448  141.3102  159.2890 H   0  0  0  0  0  0  0  0  0  0  0  0
  151.4692  143.8679  159.8537 H   0  0  0  0  0  0  0  0  0  0  0  0
  151.4626  142.6006  161.0790 H   0  0  0  0  0  0  0  0  0  0  0  0
  153.8117  143.5722  159.4491 H   0  0  0  0  0  0  0  0  0  0  0  0
  153.7648  143.2548  161.1822 H   0  0  0  0  0  0  0  0  0  0  0  0
  153.9064  140.8945  160.8338 H   0  0  0  0  0  0  0  0  0  0  0  0
  154.7724  141.4343  159.3901 H   0  0  0  0  0  0  0  0  0  0  0  0
  146.4953  134.0817  163.6179 H   0  0  0  0  0  0  0  0  0  0  0  0
  1  2  2  0  0  0  0
  2  3  1  0  0  0  0
  2 13  1  0  0  0  0
  3  4  1  0  0  0  0
  3 19  1  0  0  0  0
  4  5  1  0  0  0  0
  4 20  1  0  0  0  0
  4 21  1  0  0  0  0
  5  6  1  0  0  0  0
  5 22  1  0  0  0  0
  5 23  1  0  0  0  0
  6  7  2  0  0  0  0
  6  8  1  0  0  0  0
  8 12  1  0  0  0  0
  8  9  1  0  0  0  0
  9 10  1  0  0  0  0
  9 24  1  0  0  0  0
  9 25  1  0  0  0  0
 10 11  1  0  0  0  0
 10 26  1  0  0  0  0
 10 27  1  0  0  0  0
 11 12  1  0  0  0  0
 11 28  1  0  0  0  0
 11 29  1  0  0  0  0
 12 30  1  0  0  0  0
 12 31  1  0  0  0  0
 13 14  1  0  0  0  0
 14 18  1  0  0  0  0
 14 15  2  0  0  0  0
 15 16  1  0  0  0  0
 16 17  2  0  0  0  0
 17 18  1  0  0  0  0
 17 32  1  0  0  0  0
M  CHG  1  13  -1
M  END
> <s_m_source_file>
AV-unprocessed.smi

> <i_m_source_file_index>
1234

> <i_lp_mmshare_version>
43012

> <i_f3d_flags>
0

> <s_epik_input>
czFbY0hdbm5jMVtOSF1DKD1PKVtOSF1bQ0gyXVtDSDJdQyg9TylOMltDSDJdW0NIMl1bQ0gyXVtDSDJdMg==

> <s_epik_cmdline>
J2VwaWtfcHl0aG9uJywgJy1waCcsICc3LjAnLCAnLXRuJywgJzgnLCAnLW1hJywgJzIwMCcsICctbWV0YWxfYmluZGluZycsICctaW1hZScsICc8aW5maWxlLm1hZT4nLCAnLW9tYWUnLCAnPG91dGZpbGUubWFlPic=

> <r_lp_tautomer_probability>
1

> <r_epik_Ionization_Penalty>
3.2941

> <r_epik_Ionization_Penalty_Charging>
3.25456

> <r_epik_Ionization_Penalty_Neutral>
0.039538

> <r_epik_State_Penalty>
3.25212

> <r_epik_Charging_Adjusted_Penalty>
6.50668

> <i_epik_Tot_Q>
-1

> <i_epik_Tot_abs_Q>
1

> <r_epik_Metal_State_Penalty>
0.477003

> <b_epik_Metal_Only>
1

> <s_lp_Force_Field>
OPLS_2005

> <r_lp_Energy>
26.7799

> <b_lp_Chiralities_Consistent>
1

> <s_lp_Variant>
AV-unprocessed.smi:1234-2

> <Gold.Version>
5.8.1

> <Gold.Id.Protein>
6NUR|6NUR_protein|mol2

> <Gold.PLP.Fitness>
46.6885

> <Gold.PLP.PLP>
-35.5020

> <Gold.PLP.part.hbond>
-4.0000

> <Gold.PLP.part.metal>
0.0000

> <Gold.PLP.part.buried>
-4.7838

> <Gold.PLP.part.nonpolar>
-27.9750

> <Gold.PLP.part.repulsive>
0.2215

> <Gold.PLP.ligand.clash>
0.0000

> <Gold.PLP.ligand.torsion>
0.5873

> <Gold.PLP.Chemscore.Hbond>
4.0898

> <Gold.PLP.Chemscore.CHOScore>
0.0000

> <Gold.PLP.Chemscore.Metal>
0.0000

> <Gold.Chemscore.Hbonds>
donor molecule, donor type, donor heavy atom, donor atom, acceptor molecule, acceptor atom, score
      P1  H  6896  6907       L1     1  0.98
      P1  H  6931  6943       L1    13  1.50
      P1  H  6934  6947       L1    13  0.42
      P1  H  7997  8010       L1     7  0.75

> <Gold.PLP.Chemscore.Internal.Correction>
0.0919

> <Gold.Rescore>
     Score         DG    S(hbond)    S(metal)    S(lipo)     H(rot)  DE(clash)    DE(int)     intcor
     15.31     -17.45       2.61        0.00      66.37       1.76       0.02       2.11       ----

> <Gold.Chemscore.Fitness>
15.3120

> <Gold.Chemscore.DG>
-17.4492

> <Gold.Chemscore.ZeroCoef>
-5.4800

> <Gold.Chemscore.Hbond>
2.6074

> <Gold.Chemscore.Metal>
0.0000

> <Gold.Chemscore.Lipo>
66.3682

> <Gold.Chemscore.Internal_Hbond>
0.0000

> <Gold.Chemscore.DEClash>
0.0224

> <Gold.Chemscore.DEInternal>
2.1148

> <Gold.Chemscore.Rot>
1.7596

> <Gold.Chemscore.Internal.Correction>
   9.000000E+99

> <Gold.Chemscore.Hbonds>
donor molecule, donor type, donor heavy atom, donor atom, acceptor molecule, acceptor atom, score
      P1  H  6896  6907       L1     1  0.93
      P1  H  6931  6943       L1    13  0.22
      P1  H  6934  6947       L1    13  0.12
      P1  H  7997  8010       L1     7  0.09

> <Gold.Chemscore.Hbond.Weighted>
-8.7087

> <Gold.Chemscore.Metal.Weighted>
-0.0000

> <Gold.Chemscore.Lipo.Weighted>
-7.7651

> <Gold.Chemscore.Internal_Hbond.Weighted>
0.0000

> <Gold.Chemscore.DEClash.Weighted>
0.0224

> <Gold.Chemscore.DEInternal.Weighted>
2.1148

> <Gold.Chemscore.Rot.Weighted>
4.5046

> <Gold.Chemscore.Internal.Correction.Weighted>
   9.000000E+99

> <Gold.Protein.RotatedTorsions>
[ 6907 6896 6895 6894 ] final  -82.17 input  -60.11 | X-H torsion
[ 7974 7965 7964 7962 ] final -100.70 input  175.53 | X-H torsion
[ 8008 7997 7996 7995 ] final   15.41 input   59.86 | X-H torsion
[ 10167 10162 10161 10158 ] final    9.40 input  -65.29 | X-H torsion
[ 10718 10713 10712 10709 ] final -179.27 input   66.30 | X-H torsion
[ 10763 10752 10751 10750 ] final   24.43 input  -60.55 | X-H torsion
[ 11005 11000 10999 10996 ] final   62.74 input  -57.11 | X-H torsion

> <Gold.Protein.ActiveResidues>
 VAL166  LYS551  ARG553  GLY616  TRP617  ASP618  TYR619  PRO620  LYS621  CYS622 
 ASP623  PHE694  ASN695  SER759  ASP760  ASP761  ALA762  ILE779  LEU786  VAL792 
 PHE793  MET794  SER795  GLU796  ALA797  LYS798  CYS799  TRP800  GLU811  SER814 

> <Gold.Protein.RotatedAtoms>
  150.6901  134.3706  159.4990 H   0  0  0  0  0  0  0  0  0  0  0  0  # atno 6907 bound_to 6896
  152.1522  134.8976  160.0556 H   0  0  0  0  0  0  0  0  0  0  0  0  # atno 6908 bound_to 6896
  152.0069  133.3812  159.4241 H   0  0  0  0  0  0  0  0  0  0  0  0  # atno 6909 bound_to 6896
  145.2911  140.9353  143.2877 H   0  0  0  0  0  0  0  0  0  0  0  0  # atno 7974 bound_to 7965
  154.8623  140.2946  155.5531 H   0  0  0  0  0  0  0  0  0  0  0  0  # atno 8008 bound_to 7997
  156.3020  140.2475  156.3532 H   0  0  0  0  0  0  0  0  0  0  0  0  # atno 8009 bound_to 7997
  154.8905  140.0394  157.1825 H   0  0  0  0  0  0  0  0  0  0  0  0  # atno 8010 bound_to 7997
  140.6257  143.8106  150.7230 H   0  0  0  0  0  0  0  0  0  0  0  0  # atno 10167 bound_to 10162
  156.8565  130.9737  151.3087 H   0  0  0  0  0  0  0  0  0  0  0  0  # atno 10718 bound_to 10713
  153.0765  135.6605  154.0135 H   0  0  0  0  0  0  0  0  0  0  0  0  # atno 10763 bound_to 10752
  153.9768  135.2959  155.3424 H   0  0  0  0  0  0  0  0  0  0  0  0  # atno 10764 bound_to 10752
  154.7154  135.5187  153.8800 H   0  0  0  0  0  0  0  0  0  0  0  0  # atno 10765 bound_to 10752
  140.0072  134.6352  155.9837 H   0  0  0  0  0  0  0  0  0  0  0  0  # atno 11005 bound_to 11000
  144.9172  139.4456  143.6559 LP  0  0  0  0  0  0  0  0  0  0  0  0  # atno 17320 bound_to 7965
  146.3184  139.8012  142.8965 LP  0  0  0  0  0  0  0  0  0  0  0  0  # atno 17321 bound_to 7965
  140.1706  143.4197  152.2003 LP  0  0  0  0  0  0  0  0  0  0  0  0  # atno 17342 bound_to 10162
  139.5478  144.7313  151.4529 LP  0  0  0  0  0  0  0  0  0  0  0  0  # atno 17343 bound_to 10162
  157.6274  130.8702  149.9213 LP  0  0  0  0  0  0  0  0  0  0  0  0  # atno 17370 bound_to 10713
  156.0799  130.3674  150.0601 LP  0  0  0  0  0  0  0  0  0  0  0  0  # atno 17371 bound_to 10713
  141.1685  133.6537  156.4566 LP  0  0  0  0  0  0  0  0  0  0  0  0  # atno 17394 bound_to 11000
  140.4620  134.6832  157.5090 LP  0  0  0  0  0  0  0  0  0  0  0  0  # atno 17395 bound_to 11000

$$$$
