AV-unprocessed.smi:157|AV-procd|sdf|1295|dock1
  -GOLD-   2262018583D 1   1.00000     0.00000
 Structure written by MMmdl.
 35 37  0  0  0  0  0  0  0  0  1 V2000
  147.6357  142.6584  154.5973 O   0  0  0  0  0  0  0  0  0  0  0  0
  148.0853  141.3427  154.8422 C   0  0  0  0  0  0  0  0  0  0  0  0
  149.6147  141.3238  154.9858 C   0  0  1  0  0  0  0  0  0  0  0  0
  150.0001  142.1986  156.0372 O   0  0  0  0  0  0  0  0  0  0  0  0
  151.2437  141.7834  156.4842 C   0  0  1  0  0  0  0  0  0  0  0  0
  151.4765  142.3439  157.8532 N   0  0  0  0  0  0  0  0  0  0  0  0
  150.8657  143.4229  158.3571 C   0  0  0  0  0  0  0  0  0  0  0  0
  151.2272  143.7351  159.5896 N   0  0  0  0  0  0  0  0  0  0  0  0
  152.1585  142.7542  159.9253 C   0  0  0  0  0  0  0  0  0  0  0  0
  152.3242  141.8741  158.8651 C   0  0  0  0  0  0  0  0  0  0  0  0
  153.0882  140.7482  158.6197 N   0  0  0  0  0  0  0  0  0  0  0  0
  153.5971  140.1205  159.6323 C   0  0  0  0  0  0  0  0  0  0  0  0
  153.5924  140.4435  160.9813 N   0  0  0  0  0  0  0  0  0  0  0  0
  153.9314  141.7625  161.4875 C   0  0  0  0  0  0  0  0  0  0  0  0
  152.8264  142.8028  161.2694 C   0  0  2  0  0  0  0  0  0  0  0  0
  151.8165  142.6195  162.2405 O   0  0  0  0  0  0  0  0  0  0  0  0
  151.2043  140.2574  156.4934 C   0  0  0  0  0  0  0  0  0  0  0  0
  150.1741  139.9507  155.4113 C   0  0  2  0  0  0  0  0  0  0  0  0
  150.7846  139.2952  154.3178 O   0  0  0  0  0  0  0  0  0  0  0  0
  150.0992  141.6545  154.0642 H   0  0  0  0  0  0  0  0  0  0  0  0
  152.0333  142.1910  155.8503 H   0  0  0  0  0  0  0  0  0  0  0  0
  153.2485  143.7943  161.4367 H   0  0  0  0  0  0  0  0  0  0  0  0
  149.3925  139.3105  155.8226 H   0  0  0  0  0  0  0  0  0  0  0  0
  148.2461  143.2627  154.9910 H   0  0  0  0  0  0  0  0  0  0  0  0
  147.5999  140.9323  155.7285 H   0  0  0  0  0  0  0  0  0  0  0  0
  147.7811  140.7315  153.9920 H   0  0  0  0  0  0  0  0  0  0  0  0
  150.1402  143.9994  157.8022 H   0  0  0  0  0  0  0  0  0  0  0  0
  154.1311  139.1873  159.4472 H   0  0  0  0  0  0  0  0  0  0  0  0
  153.8256  139.7232  161.6494 H   0  0  0  0  0  0  0  0  0  0  0  0
  154.2000  141.6972  162.5423 H   0  0  0  0  0  0  0  0  0  0  0  0
  154.8308  142.0899  160.9638 H   0  0  0  0  0  0  0  0  0  0  0  0
  152.1007  143.0293  163.0435 H   0  0  0  0  0  0  0  0  0  0  0  0
  152.1982  139.8496  156.3047 H   0  0  0  0  0  0  0  0  0  0  0  0
  150.8565  139.8899  157.4591 H   0  0  0  0  0  0  0  0  0  0  0  0
  150.1884  138.6394  153.9900 H   0  0  0  0  0  0  0  0  0  0  0  0
  1  2  1  0  0  0  0
  1 24  1  0  0  0  0
  2  3  1  0  0  0  0
  2 25  1  0  0  0  0
  2 26  1  0  0  0  0
  3 20  1  0  0  0  0
  3 18  1  0  0  0  0
  3  4  1  0  0  0  0
  4  5  1  0  0  0  0
  5 21  1  0  0  0  0
  5  6  1  0  0  0  0
  5 17  1  0  0  0  0
  6 10  1  0  0  0  0
  6  7  1  0  0  0  0
  7  8  2  0  0  0  0
  7 27  1  0  0  0  0
  8  9  1  0  0  0  0
  9 15  1  0  0  0  0
  9 10  2  0  0  0  0
 10 11  1  0  0  0  0
 11 12  2  0  0  0  0
 12 13  1  0  0  0  0
 12 28  1  0  0  0  0
 13 14  1  0  0  0  0
 13 29  1  0  0  0  0
 14 15  1  0  0  0  0
 14 30  1  0  0  0  0
 14 31  1  0  0  0  0
 15 22  1  0  0  0  0
 15 16  1  0  0  0  0
 16 32  1  0  0  0  0
 17 18  1  0  0  0  0
 17 33  1  0  0  0  0
 17 34  1  0  0  0  0
 18 23  1  0  0  0  0
 18 19  1  0  0  0  0
 19 35  1  0  0  0  0
M  END
> <s_m_source_file>
AV-unprocessed.smi

> <i_m_source_file_index>
157

> <i_lp_mmshare_version>
43012

> <i_f3d_flags>
0

> <s_epik_input>
W09IXVtDSDJdW0NASF0xT1tDQEhdKFtDSDJdW0NAQEhdMVtPSF0pbihbY0hdbjIpYyhjMjMpTj1bQ0hdW05IXVtDSDJdW0NASF0zW09IXQ==

> <s_epik_cmdline>
J2VwaWtfcHl0aG9uJywgJy1waCcsICc3LjAnLCAnLXRuJywgJzgnLCAnLW1hJywgJzIwMCcsICctbWV0YWxfYmluZGluZycsICctaW1hZScsICc8aW5maWxlLm1hZT4nLCAnLW9tYWUnLCAnPG91dGZpbGUubWFlPic=

> <r_lp_tautomer_probability>
1

> <r_epik_Ionization_Penalty>
0.0357149

> <r_epik_Ionization_Penalty_Charging>
0.0355056

> <r_epik_Ionization_Penalty_Neutral>
0.000209255

> <r_epik_State_Penalty>
0.0296046

> <r_epik_Charging_Adjusted_Penalty>
0.0651102

> <i_epik_Tot_Q>
0

> <i_epik_Tot_abs_Q>
0

> <r_epik_Metal_State_Penalty>
3.03559e-05

> <b_epik_Metal_Only>
0

> <s_epik_Chemistry_Notes>
This compound has an imine and may undergo hydrolysis. This compound contains an acetal/aminal-like group ( X-CH(R)-Y where X, Y are N, S, or O) that may be acid/base labile, releasing an aldehyde.

> <s_lp_Force_Field>
OPLS_2005

> <r_lp_Energy>
44.773

> <b_lp_Chiralities_Consistent>
1

> <s_lp_Variant>
AV-unprocessed.smi:157-5

> <Gold.Version>
5.8.1

> <Gold.Id.Protein>
6NUR|6NUR_protein|mol2

> <Gold.PLP.Fitness>
45.1327

> <Gold.PLP.PLP>
-33.9081

> <Gold.PLP.part.hbond>
-5.0000

> <Gold.PLP.part.metal>
0.0000

> <Gold.PLP.part.buried>
-4.1680

> <Gold.PLP.part.nonpolar>
-26.0158

> <Gold.PLP.part.repulsive>
2.3932

> <Gold.PLP.ligand.clash>
0.0000

> <Gold.PLP.ligand.torsion>
0.6228

> <Gold.PLP.Chemscore.Hbond>
3.2399

> <Gold.PLP.Chemscore.CHOScore>
0.9117

> <Gold.PLP.Chemscore.Metal>
0.0000

> <Gold.Chemscore.Hbonds>
donor molecule, donor type, donor heavy atom, donor atom, acceptor molecule, acceptor atom, score
      L1  H     1    24       P1  8028  1.00
      P1  H  6933  6945       L1    16  1.00
      P1  H  7989  7998       L1    19  0.95
      P1  H  7997  8009       L1    11  0.21
      L1  C     7    27       P1  8028  0.93

> <Gold.PLP.Chemscore.Internal.Correction>
0.0156

> <Gold.Rescore>
     Score         DG    S(hbond)    S(metal)    S(lipo)     H(rot)  DE(clash)    DE(int)     intcor
      6.01     -10.20       2.17        0.00      57.82       3.64       2.19       2.01       ----

> <Gold.Chemscore.Fitness>
6.0059

> <Gold.Chemscore.DG>
-10.1979

> <Gold.Chemscore.ZeroCoef>
-5.4800

> <Gold.Chemscore.Hbond>
2.1742

> <Gold.Chemscore.Metal>
0.0000

> <Gold.Chemscore.Lipo>
57.8179

> <Gold.Chemscore.Internal_Hbond>
0.0000

> <Gold.Chemscore.DEClash>
2.1862

> <Gold.Chemscore.DEInternal>
2.0058

> <Gold.Chemscore.Rot>
3.6362

> <Gold.Chemscore.Internal.Correction>
   9.000000E+99

> <Gold.Chemscore.Hbonds>
donor molecule, donor type, donor heavy atom, donor atom, acceptor molecule, acceptor atom, score
      L1  H     1    24       P1  8028  0.97
      P1  H  6933  6945       L1    16  0.88
      P1  H  7989  7998       L1    19  0.21
      P1  H  7997  8009       L1    11  0.04

> <Gold.Chemscore.Hbond.Weighted>
-7.2619

> <Gold.Chemscore.Metal.Weighted>
-0.0000

> <Gold.Chemscore.Lipo.Weighted>
-6.7647

> <Gold.Chemscore.Internal_Hbond.Weighted>
0.0000

> <Gold.Chemscore.DEClash.Weighted>
2.1862

> <Gold.Chemscore.DEInternal.Weighted>
2.0058

> <Gold.Chemscore.Rot.Weighted>
9.3087

> <Gold.Chemscore.Internal.Correction.Weighted>
   9.000000E+99

> <Gold.Protein.RotatedTorsions>
[ 6907 6896 6895 6894 ] final   -2.28 input  -60.11 | X-H torsion
[ 7974 7965 7964 7962 ] final  -28.20 input  175.53 | X-H torsion
[ 8008 7997 7996 7995 ] final  151.31 input   59.86 | X-H torsion
[ 10167 10162 10161 10158 ] final   89.91 input  -65.29 | X-H torsion
[ 10718 10713 10712 10709 ] final  164.99 input   66.30 | X-H torsion
[ 10763 10752 10751 10750 ] final   75.66 input  -60.55 | X-H torsion
[ 11005 11000 10999 10996 ] final   59.34 input  -57.11 | X-H torsion

> <Gold.Protein.ActiveResidues>
 VAL166  LYS551  ARG553  GLY616  TRP617  ASP618  TYR619  PRO620  LYS621  CYS622 
 ASP623  PHE694  ASN695  SER759  ASP760  ASP761  ALA762  ILE779  LEU786  VAL792 
 PHE793  MET794  SER795  GLU796  ALA797  LYS798  CYS799  TRP800  GLU811  SER814 

> <Gold.Protein.RotatedAtoms>
  151.5324  135.1068  159.9905 H   0  0  0  0  0  0  0  0  0  0  0  0  # atno 6907 bound_to 6896
  152.4572  133.7744  159.6827 H   0  0  0  0  0  0  0  0  0  0  0  0  # atno 6908 bound_to 6896
  150.8520  133.7706  159.3047 H   0  0  0  0  0  0  0  0  0  0  0  0  # atno 6909 bound_to 6896
  146.1304  140.5252  142.8696 H   0  0  0  0  0  0  0  0  0  0  0  0  # atno 7974 bound_to 7965
  156.2679  140.2051  156.6155 H   0  0  0  0  0  0  0  0  0  0  0  0  # atno 8008 bound_to 7997
  154.6798  140.0541  157.0277 H   0  0  0  0  0  0  0  0  0  0  0  0  # atno 8009 bound_to 7997
  155.1017  140.3206  155.4548 H   0  0  0  0  0  0  0  0  0  0  0  0  # atno 8010 bound_to 7997
  139.8525  144.6586  150.9152 H   0  0  0  0  0  0  0  0  0  0  0  0  # atno 10167 bound_to 10162
  157.0866  131.0406  151.2554 H   0  0  0  0  0  0  0  0  0  0  0  0  # atno 10718 bound_to 10713
  153.0670  135.4980  154.8222 H   0  0  0  0  0  0  0  0  0  0  0  0  # atno 10763 bound_to 10752
  154.6968  135.2994  154.9402 H   0  0  0  0  0  0  0  0  0  0  0  0  # atno 10764 bound_to 10752
  154.0138  135.6751  153.4820 H   0  0  0  0  0  0  0  0  0  0  0  0  # atno 10765 bound_to 10752
  140.0311  134.6010  155.9505 H   0  0  0  0  0  0  0  0  0  0  0  0  # atno 11005 bound_to 11000
  144.7685  140.5585  143.6686 LP  0  0  0  0  0  0  0  0  0  0  0  0  # atno 17320 bound_to 7965
  145.5272  139.1476  143.3519 LP  0  0  0  0  0  0  0  0  0  0  0  0  # atno 17321 bound_to 7965
  140.7785  143.3814  151.1469 LP  0  0  0  0  0  0  0  0  0  0  0  0  # atno 17342 bound_to 10162
  139.7451  143.8864  152.3061 LP  0  0  0  0  0  0  0  0  0  0  0  0  # atno 17343 bound_to 10162
  157.4756  130.7734  149.7365 LP  0  0  0  0  0  0  0  0  0  0  0  0  # atno 17370 bound_to 10713
  155.9909  130.3941  150.3007 LP  0  0  0  0  0  0  0  0  0  0  0  0  # atno 17371 bound_to 10713
  141.1831  133.6550  156.5105 LP  0  0  0  0  0  0  0  0  0  0  0  0  # atno 17394 bound_to 11000
  140.4224  134.7175  157.4897 LP  0  0  0  0  0  0  0  0  0  0  0  0  # atno 17395 bound_to 11000

$$$$
