AV-unprocessed.smi:2406|AV-procd|sdf|9517|dock8
  -GOLD-   2272013153D 1   1.00000     0.00000
 Structure written by MMmdl.
 36 37  0  0  0  0  0  0  0  0  1 V2000
  150.7677  138.4775  154.4149 C   0  0  0  0  0  0  0  0  0  0  0  0
  150.5065  139.8593  154.6338 O   0  0  0  0  0  0  0  0  0  0  0  0
  149.2754  140.3566  154.2596 C   0  0  0  0  0  0  0  0  0  0  0  0
  148.3264  139.4887  153.6814 C   0  0  0  0  0  0  0  0  0  0  0  0
  147.0752  140.0367  153.3196 C   0  0  0  0  0  0  0  0  0  0  0  0
  146.1449  139.1273  152.7509 N   0  0  0  0  0  0  0  0  0  0  0  0
  146.0197  137.8104  152.9913 C   0  0  0  0  0  0  0  0  0  0  0  0
  146.6882  137.1686  153.8020 O   0  0  0  0  0  0  0  0  0  0  0  0
  145.0653  137.2692  152.2200 N   0  0  0  0  0  0  0  0  0  0  0  0
  144.7011  135.8544  152.1722 C   0  0  1  0  0  0  0  0  0  0  0  0
  143.2242  135.6908  152.5585 C   0  0  0  0  0  0  0  0  0  0  0  0
  144.9931  135.2798  150.7733 C   0  0  0  0  0  0  0  0  0  0  0  0
  145.0343  133.7615  150.7442 C   0  0  0  0  0  0  0  0  0  0  0  0
  144.3297  132.9746  149.6629 C   0  0  0  0  0  0  0  0  0  0  0  0
  143.8066  132.9489  151.0800 C   0  0  0  0  0  0  0  0  0  0  0  0
  146.8279  141.3536  153.5276 N   0  0  0  0  0  0  0  0  0  0  0  0
  147.7933  142.0918  154.0785 C   0  0  0  0  0  0  0  0  0  0  0  0
  149.0000  141.6685  154.4565 N   0  0  0  0  0  0  0  0  0  0  0  0
  151.7772  138.2434  154.7523 H   0  0  0  0  0  0  0  0  0  0  0  0
  150.7059  138.2233  153.3558 H   0  0  0  0  0  0  0  0  0  0  0  0
  150.0766  137.8464  154.9753 H   0  0  0  0  0  0  0  0  0  0  0  0
  148.5532  138.4436  153.5285 H   0  0  0  0  0  0  0  0  0  0  0  0
  145.5217  139.5186  152.0603 H   0  0  0  0  0  0  0  0  0  0  0  0
  144.5678  137.8802  151.5888 H   0  0  0  0  0  0  0  0  0  0  0  0
  145.2972  135.2899  152.8915 H   0  0  0  0  0  0  0  0  0  0  0  0
  142.9301  134.6409  152.5475 H   0  0  0  0  0  0  0  0  0  0  0  0
  142.5709  136.2264  151.8691 H   0  0  0  0  0  0  0  0  0  0  0  0
  143.0363  136.0734  153.5622 H   0  0  0  0  0  0  0  0  0  0  0  0
  144.2216  135.6074  150.0758 H   0  0  0  0  0  0  0  0  0  0  0  0
  145.9379  135.6725  150.3945 H   0  0  0  0  0  0  0  0  0  0  0  0
  145.9795  133.3474  151.0908 H   0  0  0  0  0  0  0  0  0  0  0  0
  143.7530  133.5289  148.9250 H   0  0  0  0  0  0  0  0  0  0  0  0
  144.8257  132.0804  149.2910 H   0  0  0  0  0  0  0  0  0  0  0  0
  143.9510  132.0351  151.6526 H   0  0  0  0  0  0  0  0  0  0  0  0
  142.8809  133.4846  151.2816 H   0  0  0  0  0  0  0  0  0  0  0  0
  147.5747  143.1376  154.2353 H   0  0  0  0  0  0  0  0  0  0  0  0
  1  2  1  0  0  0  0
  1 19  1  0  0  0  0
  1 20  1  0  0  0  0
  1 21  1  0  0  0  0
  2  3  1  0  0  0  0
  3 18  1  0  0  0  0
  3  4  2  0  0  0  0
  4  5  1  0  0  0  0
  4 22  1  0  0  0  0
  5  6  1  0  0  0  0
  5 16  2  0  0  0  0
  6  7  1  0  0  0  0
  6 23  1  0  0  0  0
  7  8  2  0  0  0  0
  7  9  1  0  0  0  0
  9 10  1  0  0  0  0
  9 24  1  0  0  0  0
 10 11  1  0  0  0  0
 10 12  1  0  0  0  0
 10 25  1  0  0  0  0
 11 26  1  0  0  0  0
 11 27  1  0  0  0  0
 11 28  1  0  0  0  0
 12 13  1  0  0  0  0
 12 29  1  0  0  0  0
 12 30  1  0  0  0  0
 13 15  1  0  0  0  0
 13 14  1  0  0  0  0
 13 31  1  0  0  0  0
 14 15  1  0  0  0  0
 14 32  1  0  0  0  0
 14 33  1  0  0  0  0
 15 34  1  0  0  0  0
 15 35  1  0  0  0  0
 16 17  1  0  0  0  0
 17 18  2  0  0  0  0
 17 36  1  0  0  0  0
M  END
> <s_m_source_file>
AV-unprocessed.smi

> <i_m_source_file_index>
2406

> <i_lp_mmshare_version>
43012

> <i_f3d_flags>
0

> <s_epik_input>
W0NIM11PYzFbY0hdYyhuW2NIXW4xKVtOSF1DKD1PKVtOSF1bQ0BIXShbQ0gzXSlbQ0gyXVtDSF0yW0NIMl1bQ0gyXTI=

> <s_epik_cmdline>
J2VwaWtfcHl0aG9uJywgJy1waCcsICc3LjAnLCAnLXRuJywgJzgnLCAnLW1hJywgJzIwMCcsICctbWV0YWxfYmluZGluZycsICctaW1hZScsICc8aW5maWxlLm1hZT4nLCAnLW9tYWUnLCAnPG91dGZpbGUubWFlPic=

> <r_lp_tautomer_probability>
1

> <r_epik_Ionization_Penalty>
2.82876e-05

> <r_epik_Ionization_Penalty_Charging>
0

> <r_epik_Ionization_Penalty_Neutral>
2.82876e-05

> <r_epik_State_Penalty>
-0

> <r_epik_Charging_Adjusted_Penalty>
0

> <i_epik_Tot_Q>
0

> <i_epik_Tot_abs_Q>
0

> <r_epik_Metal_State_Penalty>
-0

> <b_epik_Metal_Only>
0

> <s_lp_Force_Field>
OPLS_2005

> <r_lp_Energy>
10.7025

> <b_lp_Chiralities_Consistent>
1

> <s_lp_Variant>
AV-unprocessed.smi:2406-2

> <Gold.Version>
5.8.1

> <Gold.Id.Protein>
6NUR|6NUR_protein|mol2

> <Gold.PLP.Fitness>
43.0612

> <Gold.PLP.PLP>
-33.3482

> <Gold.PLP.part.hbond>
-3.8283

> <Gold.PLP.part.metal>
0.0000

> <Gold.PLP.part.buried>
-3.5720

> <Gold.PLP.part.nonpolar>
-26.9062

> <Gold.PLP.part.repulsive>
0.5937

> <Gold.PLP.ligand.clash>
0.2773

> <Gold.PLP.ligand.torsion>
0.6516

> <Gold.PLP.Chemscore.Hbond>
2.5980

> <Gold.PLP.Chemscore.CHOScore>
0.9735

> <Gold.PLP.Chemscore.Metal>
0.0000

> <Gold.Chemscore.Hbonds>
donor molecule, donor type, donor heavy atom, donor atom, acceptor molecule, acceptor atom, score
      L1  H     6    23       P1 10175  0.44
      L1  H     9    24       P1 10171  0.99
      P1  H  7989  7998       L1     2  1.00
      P1  H  8011  8017       L1    18  0.02
      L1  C    17    36       P1  8028  0.95

> <Gold.PLP.Chemscore.Internal.Correction>
0.5792

> <Gold.Rescore>
     Score         DG    S(hbond)    S(metal)    S(lipo)     H(rot)  DE(clash)    DE(int)     intcor
      9.51     -12.51       1.66        0.00      53.09       1.85       1.05       1.96       ----

> <Gold.Chemscore.Fitness>
9.5058

> <Gold.Chemscore.DG>
-12.5082

> <Gold.Chemscore.ZeroCoef>
-5.4800

> <Gold.Chemscore.Hbond>
1.6593

> <Gold.Chemscore.Metal>
0.0000

> <Gold.Chemscore.Lipo>
53.0893

> <Gold.Chemscore.Internal_Hbond>
0.0000

> <Gold.Chemscore.DEClash>
1.0467

> <Gold.Chemscore.DEInternal>
1.9558

> <Gold.Chemscore.Rot>
1.8458

> <Gold.Chemscore.Internal.Correction>
   9.000000E+99

> <Gold.Chemscore.Hbonds>
donor molecule, donor type, donor heavy atom, donor atom, acceptor molecule, acceptor atom, score
      L1  H     6    23       P1 10175  0.41
      L1  H     9    24       P1 10171  0.92
      P1  H  7989  7998       L1     2  0.17

> <Gold.Chemscore.Hbond.Weighted>
-5.5422

> <Gold.Chemscore.Metal.Weighted>
-0.0000

> <Gold.Chemscore.Lipo.Weighted>
-6.2115

> <Gold.Chemscore.Internal_Hbond.Weighted>
0.0000

> <Gold.Chemscore.DEClash.Weighted>
1.0467

> <Gold.Chemscore.DEInternal.Weighted>
1.9558

> <Gold.Chemscore.Rot.Weighted>
4.7254

> <Gold.Chemscore.Internal.Correction.Weighted>
   9.000000E+99

> <Gold.Protein.RotatedTorsions>
[ 6907 6896 6895 6894 ] final  136.46 input  -60.11 | X-H torsion
[ 7974 7965 7964 7962 ] final  114.72 input  175.53 | X-H torsion
[ 8008 7997 7996 7995 ] final -135.04 input   59.86 | X-H torsion
[ 10167 10162 10161 10158 ] final  172.10 input  -65.29 | X-H torsion
[ 10718 10713 10712 10709 ] final  124.47 input   66.30 | X-H torsion
[ 10763 10752 10751 10750 ] final  -25.54 input  -60.55 | X-H torsion
[ 11005 11000 10999 10996 ] final -116.47 input  -57.11 | X-H torsion

> <Gold.Protein.ActiveResidues>
 VAL166  LYS551  ARG553  GLY616  TRP617  ASP618  TYR619  PRO620  LYS621  CYS622 
 ASP623  PHE694  ASN695  SER759  ASP760  ASP761  ALA762  ILE779  LEU786  VAL792 
 PHE793  MET794  SER795  GLU796  ALA797  LYS798  CYS799  TRP800  GLU811  SER814 

> <Gold.Protein.RotatedAtoms>
  152.2891  133.5544  159.5545 H   0  0  0  0  0  0  0  0  0  0  0  0  # atno 6907 bound_to 6896
  150.7228  134.0454  159.3789 H   0  0  0  0  0  0  0  0  0  0  0  0  # atno 6908 bound_to 6896
  151.8361  135.0606  160.0493 H   0  0  0  0  0  0  0  0  0  0  0  0  # atno 6909 bound_to 6896
  145.2009  139.2953  143.4319 H   0  0  0  0  0  0  0  0  0  0  0  0  # atno 7974 bound_to 7965
  155.3721  140.0489  157.3045 H   0  0  0  0  0  0  0  0  0  0  0  0  # atno 8008 bound_to 7997
  154.5124  140.2196  155.9092 H   0  0  0  0  0  0  0  0  0  0  0  0  # atno 8009 bound_to 7997
  156.1598  140.3118  155.8794 H   0  0  0  0  0  0  0  0  0  0  0  0  # atno 8010 bound_to 7997
  139.5066  144.3411  152.0017 H   0  0  0  0  0  0  0  0  0  0  0  0  # atno 10167 bound_to 10162
  157.5582  131.1091  150.8584 H   0  0  0  0  0  0  0  0  0  0  0  0  # atno 10718 bound_to 10713
  153.7014  135.6956  153.5062 H   0  0  0  0  0  0  0  0  0  0  0  0  # atno 10763 bound_to 10752
  153.2339  135.4328  155.0624 H   0  0  0  0  0  0  0  0  0  0  0  0  # atno 10764 bound_to 10752
  154.8343  135.3491  154.6554 H   0  0  0  0  0  0  0  0  0  0  0  0  # atno 10765 bound_to 10752
  141.0420  133.9821  157.2979 H   0  0  0  0  0  0  0  0  0  0  0  0  # atno 11005 bound_to 11000
  146.3418  140.2253  142.8592 LP  0  0  0  0  0  0  0  0  0  0  0  0  # atno 17320 bound_to 7965
  144.9949  140.8580  143.5317 LP  0  0  0  0  0  0  0  0  0  0  0  0  # atno 17321 bound_to 7965
  140.2849  144.3818  150.6107 LP  0  0  0  0  0  0  0  0  0  0  0  0  # atno 17342 bound_to 10162
  140.5990  143.2167  151.7108 LP  0  0  0  0  0  0  0  0  0  0  0  0  # atno 17343 bound_to 10162
  156.9090  130.5274  149.5281 LP  0  0  0  0  0  0  0  0  0  0  0  0  # atno 17370 bound_to 10713
  156.0638  130.5685  150.9247 LP  0  0  0  0  0  0  0  0  0  0  0  0  # atno 17371 bound_to 10713
  139.9283  135.0201  156.8311 LP  0  0  0  0  0  0  0  0  0  0  0  0  # atno 17394 bound_to 11000
  140.6217  133.9988  155.7621 LP  0  0  0  0  0  0  0  0  0  0  0  0  # atno 17395 bound_to 11000

$$$$
