AV-unprocessed.smi:1424|AV-procd|sdf|5802|dock7
  -GOLD-   22720 5453D 1   1.00000     0.00000
 Structure written by MMmdl.
 46 48  0  0  0  0  0  0  0  0  2 V2000
  148.7444  133.4637  155.5547 O   0  0  0  0  0  0  0  0  0  0  0  0
  148.7211  134.1400  154.5264 C   0  0  0  0  0  0  0  0  0  0  0  0
  149.1384  135.4122  154.4661 N   0  0  0  0  0  0  0  0  0  0  0  0
  149.6627  136.1735  155.5952 C   0  0  0  0  0  0  0  0  0  0  0  0
  151.1073  136.6521  155.3506 C   0  0  1  0  0  0  0  0  0  0  0  0
  151.1680  137.9042  154.4548 C   0  0  0  0  0  0  0  0  0  0  0  0
  152.5946  138.4600  154.4909 C   0  0  0  0  0  0  0  0  0  0  0  0
  153.2027  138.1423  156.1884 S   0  0  0  0  0  0  0  0  0  0  0  0
  154.4888  137.4331  156.1136 O   0  0  0  0  0  0  0  0  0  0  0  0
  153.0551  139.3611  156.9982 O   0  0  0  0  0  0  0  0  0  0  0  0
  151.8769  136.9615  156.6468 C   0  0  0  0  0  0  0  0  0  0  0  0
  148.2592  133.7209  153.3365 N   0  0  0  0  0  0  0  0  0  0  0  0
  147.7071  132.4499  153.0083 C   0  0  0  0  0  0  0  0  0  0  0  0
  148.1484  131.2683  153.6580 C   0  0  0  0  0  0  0  0  0  0  0  0
  147.5722  130.0270  153.3291 C   0  0  0  0  0  0  0  0  0  0  0  0
  146.5651  129.9834  152.3504 C   0  0  0  0  0  0  0  0  0  0  0  0
  146.1813  131.1210  151.7354 N   0  3  0  0  0  0  0  0  0  0  0  0
  146.7073  132.3439  151.9971 C   0  0  0  0  0  0  0  0  0  0  0  0
  146.2105  133.4443  151.2614 N   0  0  0  0  0  0  0  0  0  0  0  0
  145.7692  134.6534  151.9471 C   0  0  0  0  0  0  0  0  0  0  0  0
  145.0007  135.4473  150.8942 C   0  0  0  0  0  0  0  0  0  0  0  0
  144.3354  134.3463  150.0741 C   0  0  0  0  0  0  0  0  0  0  0  0
  145.3561  133.2038  150.1028 C   0  0  0  0  0  0  0  0  0  0  0  0
  149.0823  135.8942  153.5809 H   0  0  0  0  0  0  0  0  0  0  0  0
  149.0112  137.0239  155.8043 H   0  0  0  0  0  0  0  0  0  0  0  0
  149.6254  135.5352  156.4784 H   0  0  0  0  0  0  0  0  0  0  0  0
  151.6524  135.8645  154.8279 H   0  0  0  0  0  0  0  0  0  0  0  0
  150.8519  137.6870  153.4342 H   0  0  0  0  0  0  0  0  0  0  0  0
  150.4856  138.6602  154.8457 H   0  0  0  0  0  0  0  0  0  0  0  0
  153.2377  137.9197  153.7955 H   0  0  0  0  0  0  0  0  0  0  0  0
  152.6467  139.5244  154.2622 H   0  0  0  0  0  0  0  0  0  0  0  0
  151.2351  137.4522  157.3790 H   0  0  0  0  0  0  0  0  0  0  0  0
  152.3106  136.0728  157.1052 H   0  0  0  0  0  0  0  0  0  0  0  0
  148.2055  134.4203  152.6106 H   0  0  0  0  0  0  0  0  0  0  0  0
  148.9283  131.2934  154.4041 H   0  0  0  0  0  0  0  0  0  0  0  0
  147.8987  129.1230  153.8224 H   0  0  0  0  0  0  0  0  0  0  0  0
  146.0639  129.0793  152.0362 H   0  0  0  0  0  0  0  0  0  0  0  0
  145.1029  134.4010  152.7733 H   0  0  0  0  0  0  0  0  0  0  0  0
  146.6131  135.2186  152.3441 H   0  0  0  0  0  0  0  0  0  0  0  0
  144.2874  136.1490  151.3273 H   0  0  0  0  0  0  0  0  0  0  0  0
  145.6953  136.0101  150.2686 H   0  0  0  0  0  0  0  0  0  0  0  0
  143.4151  134.0294  150.5667 H   0  0  0  0  0  0  0  0  0  0  0  0
  144.0819  134.6629  149.0619 H   0  0  0  0  0  0  0  0  0  0  0  0
  145.9703  133.2321  149.2023 H   0  0  0  0  0  0  0  0  0  0  0  0
  144.8625  132.2323  150.1492 H   0  0  0  0  0  0  0  0  0  0  0  0
  145.4548  131.0547  151.0224 H   0  0  0  0  0  0  0  0  0  0  0  0
  1  2  2  0  0  0  0
  2  3  1  0  0  0  0
  2 12  1  0  0  0  0
  3  4  1  0  0  0  0
  3 24  1  0  0  0  0
  4  5  1  0  0  0  0
  4 25  1  0  0  0  0
  4 26  1  0  0  0  0
  5 11  1  0  0  0  0
  5  6  1  0  0  0  0
  5 27  1  0  0  0  0
  6  7  1  0  0  0  0
  6 28  1  0  0  0  0
  6 29  1  0  0  0  0
  7  8  1  0  0  0  0
  7 30  1  0  0  0  0
  7 31  1  0  0  0  0
  8  9  2  0  0  0  0
  8 10  2  0  0  0  0
  8 11  1  0  0  0  0
 11 32  1  0  0  0  0
 11 33  1  0  0  0  0
 12 13  1  0  0  0  0
 12 34  1  0  0  0  0
 13 18  1  0  0  0  0
 13 14  2  0  0  0  0
 14 15  1  0  0  0  0
 14 35  1  0  0  0  0
 15 16  2  0  0  0  0
 15 36  1  0  0  0  0
 16 17  1  0  0  0  0
 16 37  1  0  0  0  0
 17 18  2  0  0  0  0
 17 46  1  0  0  0  0
 18 19  1  0  0  0  0
 19 23  1  0  0  0  0
 19 20  1  0  0  0  0
 20 21  1  0  0  0  0
 20 38  1  0  0  0  0
 20 39  1  0  0  0  0
 21 22  1  0  0  0  0
 21 40  1  0  0  0  0
 21 41  1  0  0  0  0
 22 23  1  0  0  0  0
 22 42  1  0  0  0  0
 22 43  1  0  0  0  0
 23 44  1  0  0  0  0
 23 45  1  0  0  0  0
M  CHG  1  17   1
M  END
> <s_m_source_file>
AV-unprocessed.smi

> <i_m_source_file_index>
1424

> <i_lp_mmshare_version>
43012

> <i_f3d_flags>
0

> <s_epik_input>
Tz1TMSg9TylbQ0gyXVtDSDJdW0NASF0oW0NIMl0xKVtDSDJdW05IXUMoPU8pW05IXWMyW2NIXVtjSF1bY0hdbmMyTjNbQ0gyXVtDSDJdW0NIMl1bQ0gyXTM=

> <s_epik_cmdline>
J2VwaWtfcHl0aG9uJywgJy1waCcsICc3LjAnLCAnLXRuJywgJzgnLCAnLW1hJywgJzIwMCcsICctbWV0YWxfYmluZGluZycsICctaW1hZScsICc8aW5maWxlLm1hZT4nLCAnLW9tYWUnLCAnPG91dGZpbGUubWFlPic=

> <r_lp_tautomer_probability>
0.999994

> <r_epik_Ionization_Penalty>
1.12573

> <r_epik_Ionization_Penalty_Charging>
1.12571

> <r_epik_Ionization_Penalty_Neutral>
1.92863e-05

> <r_epik_State_Penalty>
1.18495

> <r_epik_Charging_Adjusted_Penalty>
2.31065

> <i_epik_Tot_Q>
1

> <i_epik_Tot_abs_Q>
1

> <r_epik_Metal_State_Penalty>
1.26881

> <b_epik_Metal_Only>
0

> <s_lp_Force_Field>
OPLS_2005

> <r_lp_Energy>
39.7192

> <b_lp_Chiralities_Consistent>
1

> <s_lp_Variant>
AV-unprocessed.smi:1424-4

> <Gold.Version>
5.8.1

> <Gold.Id.Protein>
6NUR|6NUR_protein|mol2

> <Gold.PLP.Fitness>
45.0196

> <Gold.PLP.PLP>
-36.5475

> <Gold.PLP.part.hbond>
-4.9703

> <Gold.PLP.part.metal>
0.0000

> <Gold.PLP.part.buried>
-1.4920

> <Gold.PLP.part.nonpolar>
-30.3489

> <Gold.PLP.part.repulsive>
0.2210

> <Gold.PLP.ligand.clash>
0.0000

> <Gold.PLP.ligand.torsion>
0.6097

> <Gold.PLP.Chemscore.Hbond>
3.0956

> <Gold.PLP.Chemscore.CHOScore>
0.0000

> <Gold.PLP.Chemscore.Metal>
0.0000

> <Gold.Chemscore.Hbonds>
donor molecule, donor type, donor heavy atom, donor atom, acceptor molecule, acceptor atom, score
      L1  H     3    24       P1  7948  1.00
      L1  H    12    34       P1  7948  0.91
      P1  H  7997  8009       L1    10  0.85
      P1  H 10752 10763       L1     9  0.16

> <Gold.PLP.Chemscore.Internal.Correction>
0.4046

> <Gold.Rescore>
     Score         DG    S(hbond)    S(metal)    S(lipo)     H(rot)  DE(clash)    DE(int)     intcor
     15.98     -19.35       2.50        0.00      79.86       1.50       0.49       2.88       ----

> <Gold.Chemscore.Fitness>
15.9777

> <Gold.Chemscore.DG>
-19.3491

> <Gold.Chemscore.ZeroCoef>
-5.4800

> <Gold.Chemscore.Hbond>
2.5019

> <Gold.Chemscore.Metal>
0.0000

> <Gold.Chemscore.Lipo>
79.8559

> <Gold.Chemscore.Internal_Hbond>
0.0000

> <Gold.Chemscore.DEClash>
0.4916

> <Gold.Chemscore.DEInternal>
2.8798

> <Gold.Chemscore.Rot>
1.4962

> <Gold.Chemscore.Internal.Correction>
   9.000000E+99

> <Gold.Chemscore.Hbonds>
donor molecule, donor type, donor heavy atom, donor atom, acceptor molecule, acceptor atom, score
      L1  H     3    24       P1  7948  0.88
      L1  H    12    34       P1  7948  0.21
      P1  H  7997  8009       L1    10  0.14
      P1  H 10752 10763       L1     9  0.13

> <Gold.Chemscore.Hbond.Weighted>
-8.3562

> <Gold.Chemscore.Metal.Weighted>
-0.0000

> <Gold.Chemscore.Lipo.Weighted>
-9.3431

> <Gold.Chemscore.Internal_Hbond.Weighted>
0.0000

> <Gold.Chemscore.DEClash.Weighted>
0.4916

> <Gold.Chemscore.DEInternal.Weighted>
2.8798

> <Gold.Chemscore.Rot.Weighted>
3.8303

> <Gold.Chemscore.Internal.Correction.Weighted>
   9.000000E+99

> <Gold.Protein.RotatedTorsions>
[ 6907 6896 6895 6894 ] final  157.36 input  -60.11 | X-H torsion
[ 7974 7965 7964 7962 ] final  -96.77 input  175.53 | X-H torsion
[ 8008 7997 7996 7995 ] final -171.10 input   59.86 | X-H torsion
[ 10167 10162 10161 10158 ] final  146.16 input  -65.29 | X-H torsion
[ 10718 10713 10712 10709 ] final   19.28 input   66.30 | X-H torsion
[ 10763 10752 10751 10750 ] final  161.03 input  -60.55 | X-H torsion
[ 11005 11000 10999 10996 ] final   80.79 input  -57.11 | X-H torsion

> <Gold.Protein.ActiveResidues>
 VAL166  LYS551  ARG553  GLY616  TRP617  ASP618  TYR619  PRO620  LYS621  CYS622 
 ASP623  PHE694  ASN695  SER759  ASP760  ASP761  ALA762  ILE779  LEU786  VAL792 
 PHE793  MET794  SER795  GLU796  ALA797  LYS798  CYS799  TRP800  GLU811  SER814 

> <Gold.Protein.RotatedAtoms>
  152.0162  133.3880  159.4239 H   0  0  0  0  0  0  0  0  0  0  0  0  # atno 6907 bound_to 6896
  150.6894  134.3676  159.4987 H   0  0  0  0  0  0  0  0  0  0  0  0  # atno 6908 bound_to 6896
  152.1443  134.9037  160.0602 H   0  0  0  0  0  0  0  0  0  0  0  0  # atno 6909 bound_to 6896
  145.3425  140.9462  143.2599 H   0  0  0  0  0  0  0  0  0  0  0  0  # atno 7974 bound_to 7965
  155.9271  140.1084  157.1162 H   0  0  0  0  0  0  0  0  0  0  0  0  # atno 8008 bound_to 7997
  154.4064  140.1245  156.4819 H   0  0  0  0  0  0  0  0  0  0  0  0  # atno 8009 bound_to 7997
  155.7126  140.3471  155.4982 H   0  0  0  0  0  0  0  0  0  0  0  0  # atno 8010 bound_to 7997
  139.4912  144.5850  151.6796 H   0  0  0  0  0  0  0  0  0  0  0  0  # atno 10167 bound_to 10162
  157.1082  130.6497  149.5890 H   0  0  0  0  0  0  0  0  0  0  0  0  # atno 10718 bound_to 10713
  154.2566  135.2770  155.2795 H   0  0  0  0  0  0  0  0  0  0  0  0  # atno 10763 bound_to 10752
  154.5419  135.5700  153.6850 H   0  0  0  0  0  0  0  0  0  0  0  0  # atno 10764 bound_to 10752
  152.9970  135.6253  154.2715 H   0  0  0  0  0  0  0  0  0  0  0  0  # atno 10765 bound_to 10752
  139.9121  134.7947  156.1955 H   0  0  0  0  0  0  0  0  0  0  0  0  # atno 11005 bound_to 11000
  144.8779  139.4945  143.6737 LP  0  0  0  0  0  0  0  0  0  0  0  0  # atno 17320 bound_to 7965
  146.3001  139.7400  142.9097 LP  0  0  0  0  0  0  0  0  0  0  0  0  # atno 17321 bound_to 7965
  140.5464  144.0496  150.6109 LP  0  0  0  0  0  0  0  0  0  0  0  0  # atno 17342 bound_to 10162
  140.3536  143.2949  152.0461 LP  0  0  0  0  0  0  0  0  0  0  0  0  # atno 17343 bound_to 10162
  155.9857  130.4888  150.7043 LP  0  0  0  0  0  0  0  0  0  0  0  0  # atno 17370 bound_to 10713
  157.4582  131.0880  151.0774 LP  0  0  0  0  0  0  0  0  0  0  0  0  # atno 17371 bound_to 10713
  141.0557  133.6866  156.1856 LP  0  0  0  0  0  0  0  0  0  0  0  0  # atno 17394 bound_to 11000
  140.6740  134.4837  157.5588 LP  0  0  0  0  0  0  0  0  0  0  0  0  # atno 17395 bound_to 11000

$$$$
