AV-unprocessed.smi:490|AV-procd|sdf|2705|dock4
  -GOLD-   2262023143D 1   1.00000     0.00000
 Structure written by MMmdl.
 50 52  0  0  0  0  0  0  0  0  2 V2000
  152.2906  144.7645  160.6503 C   0  0  0  0  0  0  0  0  0  0  0  0
  152.4090  143.3717  160.0555 C   0  0  0  0  0  0  0  0  0  0  0  0
  152.9933  142.3473  160.8281 C   0  0  0  0  0  0  0  0  0  0  0  0
  153.1212  141.0477  160.3077 C   0  0  0  0  0  0  0  0  0  0  0  0
  152.6556  140.7551  159.0115 C   0  0  0  0  0  0  0  0  0  0  0  0
  152.8022  139.3484  158.4618 C   0  0  0  0  0  0  0  0  0  0  0  0
  152.0514  141.7705  158.2352 C   0  0  0  0  0  0  0  0  0  0  0  0
  151.5874  141.4656  156.9810 O   0  0  0  0  0  0  0  0  0  0  0  0
  150.4484  140.6169  156.9902 C   0  0  0  0  0  0  0  0  0  0  0  0
  150.1255  140.1889  155.5506 C   0  0  2  0  0  0  0  0  0  0  0  0
  151.3405  139.9650  154.8628 O   0  0  0  0  0  0  0  0  0  0  0  0
  149.3089  141.2636  154.8052 C   0  0  0  0  0  0  0  0  0  0  0  0
  147.8552  141.0514  154.9014 N   0  0  0  0  0  0  0  0  0  0  0  0
  146.9767  140.5847  153.9676 C   0  0  0  0  0  0  0  0  0  0  0  0
  147.2922  140.1640  152.5700 C   0  0  0  0  0  0  0  0  0  0  0  0
  146.2033  139.5241  151.9428 O   0  0  0  0  0  0  0  0  0  0  0  0
  145.7443  140.5602  154.5483 N   0  3  0  0  0  0  0  0  0  0  0  0
  145.8321  141.0187  155.8629 C   0  0  0  0  0  0  0  0  0  0  0  0
  144.8529  141.1736  156.8392 C   0  0  0  0  0  0  0  0  0  0  0  0
  145.2777  141.6722  158.0880 C   0  0  0  0  0  0  0  0  0  0  0  0
  146.6289  141.9952  158.3281 C   0  0  0  0  0  0  0  0  0  0  0  0
  147.6132  141.8317  157.3309 C   0  0  0  0  0  0  0  0  0  0  0  0
  147.1857  141.3377  156.0980 C   0  0  0  0  0  0  0  0  0  0  0  0
  151.9445  143.0890  158.7463 C   0  0  0  0  0  0  0  0  0  0  0  0
  151.3346  144.1945  157.8947 C   0  0  0  0  0  0  0  0  0  0  0  0
  152.5688  144.7708  161.7046 H   0  0  0  0  0  0  0  0  0  0  0  0
  151.2664  145.1302  160.5753 H   0  0  0  0  0  0  0  0  0  0  0  0
  152.9474  145.4593  160.1265 H   0  0  0  0  0  0  0  0  0  0  0  0
  153.3520  142.5547  161.8258 H   0  0  0  0  0  0  0  0  0  0  0  0
  153.5769  140.2755  160.9099 H   0  0  0  0  0  0  0  0  0  0  0  0
  153.1723  139.3721  157.4364 H   0  0  0  0  0  0  0  0  0  0  0  0
  151.8396  138.8370  158.4693 H   0  0  0  0  0  0  0  0  0  0  0  0
  153.5038  138.7626  159.0564 H   0  0  0  0  0  0  0  0  0  0  0  0
  150.6852  139.7347  157.5874 H   0  0  0  0  0  0  0  0  0  0  0  0
  149.5888  141.0953  157.4624 H   0  0  0  0  0  0  0  0  0  0  0  0
  149.5555  139.2593  155.5672 H   0  0  0  0  0  0  0  0  0  0  0  0
  151.7794  139.2291  155.2611 H   0  0  0  0  0  0  0  0  0  0  0  0
  149.5148  142.2459  155.2321 H   0  0  0  0  0  0  0  0  0  0  0  0
  149.5992  141.3268  153.7563 H   0  0  0  0  0  0  0  0  0  0  0  0
  147.5754  141.0377  151.9824 H   0  0  0  0  0  0  0  0  0  0  0  0
  148.1489  139.4902  152.5761 H   0  0  0  0  0  0  0  0  0  0  0  0
  145.4015  139.8932  152.2811 H   0  0  0  0  0  0  0  0  0  0  0  0
  143.8172  140.9269  156.6572 H   0  0  0  0  0  0  0  0  0  0  0  0
  144.5523  141.8098  158.8771 H   0  0  0  0  0  0  0  0  0  0  0  0
  146.9168  142.3764  159.2972 H   0  0  0  0  0  0  0  0  0  0  0  0
  148.6438  142.0858  157.5274 H   0  0  0  0  0  0  0  0  0  0  0  0
  151.2783  143.9191  156.8419 H   0  0  0  0  0  0  0  0  0  0  0  0
  151.9303  145.1053  157.9521 H   0  0  0  0  0  0  0  0  0  0  0  0
  150.3257  144.4207  158.2398 H   0  0  0  0  0  0  0  0  0  0  0  0
  144.9051  140.2483  154.0766 H   0  0  0  0  0  0  0  0  0  0  0  0
  1  2  1  0  0  0  0
  1 26  1  0  0  0  0
  1 27  1  0  0  0  0
  1 28  1  0  0  0  0
  2 24  1  0  0  0  0
  2  3  2  0  0  0  0
  3  4  1  0  0  0  0
  3 29  1  0  0  0  0
  4  5  2  0  0  0  0
  4 30  1  0  0  0  0
  5  6  1  0  0  0  0
  5  7  1  0  0  0  0
  6 31  1  0  0  0  0
  6 32  1  0  0  0  0
  6 33  1  0  0  0  0
  7  8  1  0  0  0  0
  7 24  2  0  0  0  0
  8  9  1  0  0  0  0
  9 10  1  0  0  0  0
  9 34  1  0  0  0  0
  9 35  1  0  0  0  0
 10 11  1  0  0  0  0
 10 12  1  0  0  0  0
 10 36  1  0  0  0  0
 11 37  1  0  0  0  0
 12 13  1  0  0  0  0
 12 38  1  0  0  0  0
 12 39  1  0  0  0  0
 13 23  1  0  0  0  0
 13 14  1  0  0  0  0
 14 15  1  0  0  0  0
 14 17  2  0  0  0  0
 15 16  1  0  0  0  0
 15 40  1  0  0  0  0
 15 41  1  0  0  0  0
 16 42  1  0  0  0  0
 17 18  1  0  0  0  0
 17 50  1  0  0  0  0
 18 23  2  0  0  0  0
 18 19  1  0  0  0  0
 19 20  2  0  0  0  0
 19 43  1  0  0  0  0
 20 21  1  0  0  0  0
 20 44  1  0  0  0  0
 21 22  2  0  0  0  0
 21 45  1  0  0  0  0
 22 23  1  0  0  0  0
 22 46  1  0  0  0  0
 24 25  1  0  0  0  0
 25 47  1  0  0  0  0
 25 48  1  0  0  0  0
 25 49  1  0  0  0  0
M  CHG  1  17   1
M  END
> <s_m_source_file>
AV-unprocessed.smi

> <i_m_source_file_index>
490

> <i_lp_mmshare_version>
43012

> <i_f3d_flags>
0

> <s_epik_input>
W0NIM11jMVtjSF1bY0hdYyhbQ0gzXSljKGMxW0NIM10pT1tDSDJdW0NASF0oW09IXSlbQ0gyXW4oYyhuMilbQ0gyXVtPSF0pYyhjMjMpW2NIXVtjSF1bY0hdW2NIXTM=

> <s_epik_cmdline>
J2VwaWtfcHl0aG9uJywgJy1waCcsICc3LjAnLCAnLXRuJywgJzgnLCAnLW1hJywgJzIwMCcsICctbWV0YWxfYmluZGluZycsICctaW1hZScsICc8aW5maWxlLm1hZT4nLCAnLW9tYWUnLCAnPG91dGZpbGUubWFlPic=

> <r_lp_tautomer_probability>
1

> <r_epik_Ionization_Penalty>
1.43125

> <r_epik_Ionization_Penalty_Charging>
1.43039

> <r_epik_Ionization_Penalty_Neutral>
0.000858184

> <r_epik_State_Penalty>
1.51493

> <r_epik_Charging_Adjusted_Penalty>
2.94531

> <i_epik_Tot_Q>
1

> <i_epik_Tot_abs_Q>
1

> <r_epik_Metal_State_Penalty>
5.5599

> <b_epik_Metal_Only>
0

> <s_lp_Force_Field>
OPLS_2005

> <r_lp_Energy>
24.6054

> <b_lp_Chiralities_Consistent>
1

> <s_lp_Variant>
AV-unprocessed.smi:490-3

> <Gold.Version>
5.8.1

> <Gold.Id.Protein>
6NUR|6NUR_protein|mol2

> <Gold.PLP.Fitness>
56.2578

> <Gold.PLP.PLP>
-46.1625

> <Gold.PLP.part.hbond>
-3.2825

> <Gold.PLP.part.metal>
0.0000

> <Gold.PLP.part.buried>
-1.8532

> <Gold.PLP.part.nonpolar>
-40.7636

> <Gold.PLP.part.repulsive>
0.0424

> <Gold.PLP.ligand.clash>
0.0000

> <Gold.PLP.ligand.torsion>
1.0169

> <Gold.PLP.Chemscore.Hbond>
4.0000

> <Gold.PLP.Chemscore.CHOScore>
0.0000

> <Gold.PLP.Chemscore.Metal>
0.0000

> <Gold.Chemscore.Hbonds>
donor molecule, donor type, donor heavy atom, donor atom, acceptor molecule, acceptor atom, score
      L1  H    16    42       P1 10175  1.00
      L1  H    17    50       P1 10175  1.86
      P1  H  7989  7998       L1    11  1.00

> <Gold.PLP.Chemscore.Internal.Correction>
0.1290

> <Gold.Rescore>
     Score         DG    S(hbond)    S(metal)    S(lipo)     H(rot)  DE(clash)    DE(int)     intcor
     19.14     -22.30       2.78        0.00     130.41       3.02       1.97       1.19       ----

> <Gold.Chemscore.Fitness>
19.1387

> <Gold.Chemscore.DG>
-22.2995

> <Gold.Chemscore.ZeroCoef>
-5.4800

> <Gold.Chemscore.Hbond>
2.7806

> <Gold.Chemscore.Metal>
0.0000

> <Gold.Chemscore.Lipo>
130.4128

> <Gold.Chemscore.Internal_Hbond>
0.0000

> <Gold.Chemscore.DEClash>
1.9743

> <Gold.Chemscore.DEInternal>
1.1865

> <Gold.Chemscore.Rot>
3.0180

> <Gold.Chemscore.Internal.Correction>
   9.000000E+99

> <Gold.Chemscore.Hbonds>
donor molecule, donor type, donor heavy atom, donor atom, acceptor molecule, acceptor atom, score
      L1  H    16    42       P1 10175  0.90
      L1  H    17    50       P1 10175  0.86
      P1  H  7989  7998       L1    11  0.95

> <Gold.Chemscore.Hbond.Weighted>
-9.2872

> <Gold.Chemscore.Metal.Weighted>
-0.0000

> <Gold.Chemscore.Lipo.Weighted>
-15.2583

> <Gold.Chemscore.Internal_Hbond.Weighted>
0.0000

> <Gold.Chemscore.DEClash.Weighted>
1.9743

> <Gold.Chemscore.DEInternal.Weighted>
1.1865

> <Gold.Chemscore.Rot.Weighted>
7.7260

> <Gold.Chemscore.Internal.Correction.Weighted>
   9.000000E+99

> <Gold.Protein.RotatedTorsions>
[ 6907 6896 6895 6894 ] final  -60.74 input  -60.11 | X-H torsion
[ 7974 7965 7964 7962 ] final  -95.81 input  175.53 | X-H torsion
[ 8008 7997 7996 7995 ] final -142.86 input   59.86 | X-H torsion
[ 10167 10162 10161 10158 ] final  -65.38 input  -65.29 | X-H torsion
[ 10718 10713 10712 10709 ] final   88.23 input   66.30 | X-H torsion
[ 10763 10752 10751 10750 ] final   98.27 input  -60.55 | X-H torsion
[ 11005 11000 10999 10996 ] final  -16.10 input  -57.11 | X-H torsion

> <Gold.Protein.ActiveResidues>
 VAL166  LYS551  ARG553  GLY616  TRP617  ASP618  TYR619  PRO620  LYS621  CYS622 
 ASP623  PHE694  ASN695  SER759  ASP760  ASP761  ALA762  ILE779  LEU786  VAL792 
 PHE793  MET794  SER795  GLU796  ALA797  LYS798  CYS799  TRP800  GLU811  SER814 

> <Gold.Protein.RotatedAtoms>
  150.7835  134.6798  159.6437 H   0  0  0  0  0  0  0  0  0  0  0  0  # atno 6907 bound_to 6896
  152.3925  134.6415  160.0111 H   0  0  0  0  0  0  0  0  0  0  0  0  # atno 6908 bound_to 6896
  151.6711  133.3277  159.3233 H   0  0  0  0  0  0  0  0  0  0  0  0  # atno 6909 bound_to 6896
  145.3552  140.9483  143.2532 H   0  0  0  0  0  0  0  0  0  0  0  0  # atno 7974 bound_to 7965
  155.5012  140.0575  157.2939 H   0  0  0  0  0  0  0  0  0  0  0  0  # atno 8008 bound_to 7997
  154.4586  140.1985  156.0257 H   0  0  0  0  0  0  0  0  0  0  0  0  # atno 8009 bound_to 7997
  156.0848  140.3242  155.7743 H   0  0  0  0  0  0  0  0  0  0  0  0  # atno 8010 bound_to 7997
  140.5733  143.2319  151.6493 H   0  0  0  0  0  0  0  0  0  0  0  0  # atno 10167 bound_to 10162
  157.6947  131.0286  150.3243 H   0  0  0  0  0  0  0  0  0  0  0  0  # atno 10718 bound_to 10713
  153.2870  135.4154  155.1131 H   0  0  0  0  0  0  0  0  0  0  0  0  # atno 10763 bound_to 10752
  154.8508  135.3509  154.6034 H   0  0  0  0  0  0  0  0  0  0  0  0  # atno 10764 bound_to 10752
  153.6456  135.7055  153.5284 H   0  0  0  0  0  0  0  0  0  0  0  0  # atno 10765 bound_to 10752
  140.8033  133.8197  155.9491 H   0  0  0  0  0  0  0  0  0  0  0  0  # atno 11005 bound_to 11000
  144.8687  139.5069  143.6778 LP  0  0  0  0  0  0  0  0  0  0  0  0  # atno 17320 bound_to 7965
  146.2951  139.7253  142.9132 LP  0  0  0  0  0  0  0  0  0  0  0  0  # atno 17321 bound_to 7965
  139.5129  144.3460  152.0696 LP  0  0  0  0  0  0  0  0  0  0  0  0  # atno 17342 bound_to 10162
  140.2600  144.4077  150.6189 LP  0  0  0  0  0  0  0  0  0  0  0  0  # atno 17343 bound_to 10162
  156.3726  130.3866  149.7163 LP  0  0  0  0  0  0  0  0  0  0  0  0  # atno 17370 bound_to 10713
  156.4573  130.7935  151.2956 LP  0  0  0  0  0  0  0  0  0  0  0  0  # atno 17371 bound_to 10713
  140.9272  134.2067  157.4888 LP  0  0  0  0  0  0  0  0  0  0  0  0  # atno 17394 bound_to 11000
  139.8720  134.9817  156.5129 LP  0  0  0  0  0  0  0  0  0  0  0  0  # atno 17395 bound_to 11000

$$$$
