AV-unprocessed.smi:1636|AV-procd|sdf|6542|dock7
  -GOLD-   22720 7223D 1   1.00000     0.00000
 Structure written by MMmdl.
 43 44  0  0  0  0  0  0  0  0  1 V2000
  152.4280  144.5140  158.5957 C   0  0  0  0  0  0  0  0  0  0  0  0
  152.1990  143.0292  158.2939 C   0  0  2  0  0  0  0  0  0  0  0  0
  150.9863  142.8061  157.3700 C   0  0  0  0  0  0  0  0  0  0  0  0
  150.7379  141.3773  157.1893 N   0  0  0  0  0  0  0  0  0  0  0  0
  149.8312  140.9864  156.1806 C   0  0  0  0  0  0  0  0  0  0  0  0
  148.4586  141.3087  156.2970 C   0  0  0  0  0  0  0  0  0  0  0  0
  147.5716  140.9114  155.2788 C   0  0  0  0  0  0  0  0  0  0  0  0
  148.0706  140.2004  154.1699 C   0  0  0  0  0  0  0  0  0  0  0  0
  147.1206  139.7771  153.0558 C   0  0  0  0  0  0  0  0  0  0  0  0
  147.0723  138.3424  152.7898 N   0  0  0  0  0  0  0  0  0  0  0  0
  145.9706  137.5834  152.8719 C   0  0  0  0  0  0  0  0  0  0  0  0
  144.8622  138.0097  153.1971 O   0  0  0  0  0  0  0  0  0  0  0  0
  146.2236  136.3035  152.5653 N   0  0  0  0  0  0  0  0  0  0  0  0
  145.2403  135.2258  152.5828 C   0  0  0  0  0  0  0  0  0  0  0  0
  144.8788  134.7607  151.1615 C   0  0  0  0  0  0  0  0  0  0  0  0
  144.9978  135.8348  150.2532 O   0  0  0  0  0  0  0  0  0  0  0  0
  149.4553  139.9242  154.1388 C   0  0  0  0  0  0  0  0  0  0  0  0
  150.3100  140.3000  155.1136 N   0  0  0  0  0  0  0  0  0  0  0  0
  150.6305  140.6450  158.4483 C   0  0  0  0  0  0  0  0  0  0  0  0
  151.8429  140.9435  159.3466 C   0  0  0  0  0  0  0  0  0  0  0  0
  151.9768  142.3497  159.5263 O   0  0  0  0  0  0  0  0  0  0  0  0
  152.6193  145.0749  157.6805 H   0  0  0  0  0  0  0  0  0  0  0  0
  153.2864  144.6494  159.2539 H   0  0  0  0  0  0  0  0  0  0  0  0
  151.5594  144.9562  159.0846 H   0  0  0  0  0  0  0  0  0  0  0  0
  153.0985  142.6292  157.8221 H   0  0  0  0  0  0  0  0  0  0  0  0
  150.0975  143.2748  157.7951 H   0  0  0  0  0  0  0  0  0  0  0  0
  151.1748  143.2776  156.4045 H   0  0  0  0  0  0  0  0  0  0  0  0
  148.0770  141.8402  157.1560 H   0  0  0  0  0  0  0  0  0  0  0  0
  146.5204  141.1490  155.3519 H   0  0  0  0  0  0  0  0  0  0  0  0
  146.1159  140.1408  153.2795 H   0  0  0  0  0  0  0  0  0  0  0  0
  147.4301  140.2783  152.1386 H   0  0  0  0  0  0  0  0  0  0  0  0
  147.9373  137.8996  152.5159 H   0  0  0  0  0  0  0  0  0  0  0  0
  147.1683  136.0506  152.3146 H   0  0  0  0  0  0  0  0  0  0  0  0
  145.6538  134.3859  153.1439 H   0  0  0  0  0  0  0  0  0  0  0  0
  144.3540  135.5437  153.1331 H   0  0  0  0  0  0  0  0  0  0  0  0
  145.4871  133.9163  150.8345 H   0  0  0  0  0  0  0  0  0  0  0  0
  143.8403  134.4300  151.1388 H   0  0  0  0  0  0  0  0  0  0  0  0
  145.0234  135.4842  149.3760 H   0  0  0  0  0  0  0  0  0  0  0  0
  149.9013  139.3911  153.3125 H   0  0  0  0  0  0  0  0  0  0  0  0
  149.7108  140.9458  158.9519 H   0  0  0  0  0  0  0  0  0  0  0  0
  150.5656  139.5699  158.2858 H   0  0  0  0  0  0  0  0  0  0  0  0
  151.7118  140.4733  160.3213 H   0  0  0  0  0  0  0  0  0  0  0  0
  152.7574  140.5323  158.9158 H   0  0  0  0  0  0  0  0  0  0  0  0
  1  2  1  0  0  0  0
  1 22  1  0  0  0  0
  1 23  1  0  0  0  0
  1 24  1  0  0  0  0
  2 21  1  0  0  0  0
  2  3  1  0  0  0  0
  2 25  1  0  0  0  0
  3  4  1  0  0  0  0
  3 26  1  0  0  0  0
  3 27  1  0  0  0  0
  4  5  1  0  0  0  0
  4 19  1  0  0  0  0
  5 18  1  0  0  0  0
  5  6  2  0  0  0  0
  6  7  1  0  0  0  0
  6 28  1  0  0  0  0
  7  8  2  0  0  0  0
  7 29  1  0  0  0  0
  8  9  1  0  0  0  0
  8 17  1  0  0  0  0
  9 10  1  0  0  0  0
  9 30  1  0  0  0  0
  9 31  1  0  0  0  0
 10 11  1  0  0  0  0
 10 32  1  0  0  0  0
 11 12  2  0  0  0  0
 11 13  1  0  0  0  0
 13 14  1  0  0  0  0
 13 33  1  0  0  0  0
 14 15  1  0  0  0  0
 14 34  1  0  0  0  0
 14 35  1  0  0  0  0
 15 16  1  0  0  0  0
 15 36  1  0  0  0  0
 15 37  1  0  0  0  0
 16 38  1  0  0  0  0
 17 18  2  0  0  0  0
 17 39  1  0  0  0  0
 19 20  1  0  0  0  0
 19 40  1  0  0  0  0
 19 41  1  0  0  0  0
 20 21  1  0  0  0  0
 20 42  1  0  0  0  0
 20 43  1  0  0  0  0
M  END
> <s_m_source_file>
AV-unprocessed.smi

> <i_m_source_file_index>
1636

> <i_lp_mmshare_version>
43012

> <i_f3d_flags>
0

> <s_epik_input>
W0NIM11bQ0BASF0xW0NIMl1OKFtDSDJdW0NIMl1PMSljMltjSF1bY0hdYyhbY0hdbjIpW0NIMl1bTkhdQyg9TylbTkhdW0NIMl1bQ0gyXVtPSF0=

> <s_epik_cmdline>
J2VwaWtfcHl0aG9uJywgJy1waCcsICc3LjAnLCAnLXRuJywgJzgnLCAnLW1hJywgJzIwMCcsICctbWV0YWxfYmluZGluZycsICctaW1hZScsICc8aW5maWxlLm1hZT4nLCAnLW9tYWUnLCAnPG91dGZpbGUubWFlPic=

> <r_lp_tautomer_probability>
1

> <r_epik_Ionization_Penalty>
0.00695222

> <r_epik_Ionization_Penalty_Charging>
0

> <r_epik_Ionization_Penalty_Neutral>
0.00695222

> <r_epik_State_Penalty>
0.00513345

> <r_epik_Charging_Adjusted_Penalty>
0.00513345

> <i_epik_Tot_Q>
0

> <i_epik_Tot_abs_Q>
0

> <r_epik_Metal_State_Penalty>
-0

> <b_epik_Metal_Only>
0

> <s_lp_Force_Field>
OPLS_2005

> <r_lp_Energy>
15.2616

> <b_lp_Chiralities_Consistent>
1

> <s_lp_Variant>
AV-unprocessed.smi:1636-1

> <Gold.Version>
5.8.1

> <Gold.Id.Protein>
6NUR|6NUR_protein|mol2

> <Gold.PLP.Fitness>
46.2702

> <Gold.PLP.PLP>
-34.2472

> <Gold.PLP.part.hbond>
-5.0934

> <Gold.PLP.part.metal>
0.0000

> <Gold.PLP.part.buried>
-3.3085

> <Gold.PLP.part.nonpolar>
-27.4977

> <Gold.PLP.part.repulsive>
1.1534

> <Gold.PLP.ligand.clash>
0.0000

> <Gold.PLP.ligand.torsion>
0.4202

> <Gold.PLP.Chemscore.Hbond>
3.1747

> <Gold.PLP.Chemscore.CHOScore>
1.0000

> <Gold.PLP.Chemscore.Metal>
0.0000

> <Gold.Chemscore.Hbonds>
donor molecule, donor type, donor heavy atom, donor atom, acceptor molecule, acceptor atom, score
      L1  H    10    32       P1  7948  0.98
      L1  H    13    33       P1  7948  1.00
      L1  H    16    38       P1  7921  0.67
      P1  H  7989  7998       L1    18  0.17
      L1  C    17    39       P1  7957  0.86

> <Gold.PLP.Chemscore.Internal.Correction>
0.3391

> <Gold.Rescore>
     Score         DG    S(hbond)    S(metal)    S(lipo)     H(rot)  DE(clash)    DE(int)     intcor
     16.18     -17.63       3.00        0.00      78.98       2.78       1.24       0.21       ----

> <Gold.Chemscore.Fitness>
16.1780

> <Gold.Chemscore.DG>
-17.6283

> <Gold.Chemscore.ZeroCoef>
-5.4800

> <Gold.Chemscore.Hbond>
3.0034

> <Gold.Chemscore.Metal>
0.0000

> <Gold.Chemscore.Lipo>
78.9832

> <Gold.Chemscore.Internal_Hbond>
0.0000

> <Gold.Chemscore.DEClash>
1.2375

> <Gold.Chemscore.DEInternal>
0.2128

> <Gold.Chemscore.Rot>
2.7828

> <Gold.Chemscore.Internal.Correction>
   9.000000E+99

> <Gold.Chemscore.Hbonds>
donor molecule, donor type, donor heavy atom, donor atom, acceptor molecule, acceptor atom, score
      L1  H    10    32       P1  7948  0.87
      L1  H    13    33       P1  7948  1.00
      L1  H    16    38       P1  7921  0.64

> <Gold.Chemscore.Hbond.Weighted>
-10.0314

> <Gold.Chemscore.Metal.Weighted>
-0.0000

> <Gold.Chemscore.Lipo.Weighted>
-9.2410

> <Gold.Chemscore.Internal_Hbond.Weighted>
0.0000

> <Gold.Chemscore.DEClash.Weighted>
1.2375

> <Gold.Chemscore.DEInternal.Weighted>
0.2128

> <Gold.Chemscore.Rot.Weighted>
7.1241

> <Gold.Chemscore.Internal.Correction.Weighted>
   9.000000E+99

> <Gold.Protein.RotatedTorsions>
[ 6907 6896 6895 6894 ] final  -69.50 input  -60.11 | X-H torsion
[ 7974 7965 7964 7962 ] final  109.58 input  175.53 | X-H torsion
[ 8008 7997 7996 7995 ] final -148.50 input   59.86 | X-H torsion
[ 10167 10162 10161 10158 ] final  -84.02 input  -65.29 | X-H torsion
[ 10718 10713 10712 10709 ] final -163.05 input   66.30 | X-H torsion
[ 10763 10752 10751 10750 ] final  -44.16 input  -60.55 | X-H torsion
[ 11005 11000 10999 10996 ] final  111.44 input  -57.11 | X-H torsion

> <Gold.Protein.ActiveResidues>
 VAL166  LYS551  ARG553  GLY616  TRP617  ASP618  TYR619  PRO620  LYS621  CYS622 
 ASP623  PHE694  ASN695  SER759  ASP760  ASP761  ALA762  ILE779  LEU786  VAL792 
 PHE793  MET794  SER795  GLU796  ALA797  LYS798  CYS799  TRP800  GLU811  SER814 

> <Gold.Protein.RotatedAtoms>
  150.7302  134.5587  159.5831 H   0  0  0  0  0  0  0  0  0  0  0  0  # atno 6907 bound_to 6896
  152.3056  134.7556  160.0357 H   0  0  0  0  0  0  0  0  0  0  0  0  # atno 6908 bound_to 6896
  151.8121  133.3347  159.3595 H   0  0  0  0  0  0  0  0  0  0  0  0  # atno 6909 bound_to 6896
  145.2660  139.2684  143.3991 H   0  0  0  0  0  0  0  0  0  0  0  0  # atno 7974 bound_to 7965
  155.5926  140.0654  157.2754 H   0  0  0  0  0  0  0  0  0  0  0  0  # atno 8008 bound_to 7997
  154.4301  140.1832  156.1137 H   0  0  0  0  0  0  0  0  0  0  0  0  # atno 8009 bound_to 7997
  156.0221  140.3315  155.7053 H   0  0  0  0  0  0  0  0  0  0  0  0  # atno 8010 bound_to 7997
  140.4172  143.2599  151.8938 H   0  0  0  0  0  0  0  0  0  0  0  0  # atno 10167 bound_to 10162
  156.6192  130.8883  151.2954 H   0  0  0  0  0  0  0  0  0  0  0  0  # atno 10718 bound_to 10713
  154.0075  135.6685  153.4763 H   0  0  0  0  0  0  0  0  0  0  0  0  # atno 10763 bound_to 10752
  153.0635  135.5014  154.8143 H   0  0  0  0  0  0  0  0  0  0  0  0  # atno 10764 bound_to 10752
  154.7015  135.3080  154.9297 H   0  0  0  0  0  0  0  0  0  0  0  0  # atno 10765 bound_to 10752
  139.8904  134.9508  156.6432 H   0  0  0  0  0  0  0  0  0  0  0  0  # atno 11005 bound_to 11000
  146.3261  140.3090  142.8625 LP  0  0  0  0  0  0  0  0  0  0  0  0  # atno 17320 bound_to 7965
  144.9376  140.8044  143.5650 LP  0  0  0  0  0  0  0  0  0  0  0  0  # atno 17321 bound_to 7965
  139.4782  144.5475  151.8436 LP  0  0  0  0  0  0  0  0  0  0  0  0  # atno 17342 bound_to 10162
  140.4573  144.1771  150.5903 LP  0  0  0  0  0  0  0  0  0  0  0  0  # atno 17343 bound_to 10162
  157.7232  130.9587  150.1526 LP  0  0  0  0  0  0  0  0  0  0  0  0  # atno 17370 bound_to 10713
  156.2326  130.3683  149.8428 LP  0  0  0  0  0  0  0  0  0  0  0  0  # atno 17371 bound_to 10713
  140.7578  133.8843  155.8395 LP  0  0  0  0  0  0  0  0  0  0  0  0  # atno 17394 bound_to 11000
  140.9947  134.1230  157.4374 LP  0  0  0  0  0  0  0  0  0  0  0  0  # atno 17395 bound_to 11000

$$$$
