AV-unprocessed.smi:201|AV-procd|sdf|1580|dock9
  -GOLD-   2262019473D 1   1.00000     0.00000
 Structure written by MMmdl.
 59 61  0  0  0  0  0  0  0  0  1 V2000
  144.9614  130.8272  160.1188 C   0  0  0  0  0  0  0  0  0  0  0  0
  144.6347  132.0634  159.2596 C   0  0  0  0  0  0  0  0  0  0  0  0
  143.3640  131.7670  158.4331 C   0  0  0  0  0  0  0  0  0  0  0  0
  145.7745  132.4618  158.4145 N   0  0  0  0  0  0  0  0  0  0  0  0
  147.1084  132.6214  159.0011 C   0  0  0  0  0  0  0  0  0  0  0  0
  147.0840  132.9645  160.5048 C   0  0  0  0  0  0  0  0  0  0  0  0
  147.0759  134.3691  160.7156 O   0  0  0  0  0  0  0  0  0  0  0  0
  147.4177  134.7637  162.0370 C   0  0  0  0  0  0  0  0  0  0  0  0
  146.9468  136.2052  162.2617 C   0  0  0  0  0  0  0  0  0  0  0  0
  147.6312  137.0789  161.3895 O   0  0  0  0  0  0  0  0  0  0  0  0
  145.5513  133.3764  157.4383 C   0  0  0  0  0  0  0  0  0  0  0  0
  144.7894  134.4517  157.7613 N   0  0  0  0  0  0  0  0  0  0  0  0
  144.5212  135.3850  156.8436 C   0  0  0  0  0  0  0  0  0  0  0  0
  144.9010  135.4319  155.5653 N   0  0  0  0  0  0  0  0  0  0  0  0
  145.6560  134.3460  155.2319 C   0  0  0  0  0  0  0  0  0  0  0  0
  146.0282  133.2798  156.0985 C   0  0  0  0  0  0  0  0  0  0  0  0
  146.7955  132.3536  155.4017 N   0  0  0  0  0  0  0  0  0  0  0  0
  146.8825  132.8500  154.1984 C   0  0  0  0  0  0  0  0  0  0  0  0
  146.2107  134.0353  154.0021 N   0  0  0  0  0  0  0  0  0  0  0  0
  146.1388  134.8065  152.7691 C   0  0  0  0  0  0  0  0  0  0  0  0
  145.4533  134.0926  151.5627 C   0  0  0  0  0  0  0  0  0  0  0  0
  145.1647  135.1746  150.4831 C   0  0  0  0  0  0  0  0  0  0  0  0
  144.4412  136.2743  151.0000 O   0  0  0  0  0  0  0  0  0  0  0  0
  146.3457  132.9562  150.9984 C   0  0  0  0  0  0  0  0  0  0  0  0
  145.6248  132.1109  149.9326 C   0  0  0  0  0  0  0  0  0  0  0  0
  144.4333  131.5588  150.4789 O   0  0  0  0  0  0  0  0  0  0  0  0
  143.5002  132.5482  150.8956 C   0  0  0  0  0  0  0  0  0  0  0  0
  144.1204  133.4282  151.9977 C   0  0  0  0  0  0  0  0  0  0  0  0
  144.0928  130.5127  160.6983 H   0  0  0  0  0  0  0  0  0  0  0  0
  145.7562  131.0291  160.8367 H   0  0  0  0  0  0  0  0  0  0  0  0
  145.2694  129.9832  159.5004 H   0  0  0  0  0  0  0  0  0  0  0  0
  144.4109  132.8820  159.9429 H   0  0  0  0  0  0  0  0  0  0  0  0
  142.5494  131.4323  159.0758 H   0  0  0  0  0  0  0  0  0  0  0  0
  143.5465  130.9823  157.6983 H   0  0  0  0  0  0  0  0  0  0  0  0
  142.9975  132.6430  157.8988 H   0  0  0  0  0  0  0  0  0  0  0  0
  147.6833  131.7101  158.8412 H   0  0  0  0  0  0  0  0  0  0  0  0
  147.6481  133.3932  158.4520 H   0  0  0  0  0  0  0  0  0  0  0  0
  146.2379  132.4979  161.0109 H   0  0  0  0  0  0  0  0  0  0  0  0
  147.9831  132.5759  160.9829 H   0  0  0  0  0  0  0  0  0  0  0  0
  146.9956  134.0978  162.7901 H   0  0  0  0  0  0  0  0  0  0  0  0
  148.5029  134.7243  162.1429 H   0  0  0  0  0  0  0  0  0  0  0  0
  145.8822  136.2851  162.0398 H   0  0  0  0  0  0  0  0  0  0  0  0
  147.0862  136.5129  163.2984 H   0  0  0  0  0  0  0  0  0  0  0  0
  147.8812  136.5935  160.6179 H   0  0  0  0  0  0  0  0  0  0  0  0
  143.9137  136.2116  157.1815 H   0  0  0  0  0  0  0  0  0  0  0  0
  147.4369  132.3576  153.4126 H   0  0  0  0  0  0  0  0  0  0  0  0
  145.6157  135.7371  152.9930 H   0  0  0  0  0  0  0  0  0  0  0  0
  147.1574  135.0961  152.5077 H   0  0  0  0  0  0  0  0  0  0  0  0
  146.0770  135.5668  150.0376 H   0  0  0  0  0  0  0  0  0  0  0  0
  144.5887  134.7453  149.6626 H   0  0  0  0  0  0  0  0  0  0  0  0
  144.3207  136.9065  150.3079 H   0  0  0  0  0  0  0  0  0  0  0  0
  147.2747  133.3573  150.5926 H   0  0  0  0  0  0  0  0  0  0  0  0
  146.6376  132.2784  151.7994 H   0  0  0  0  0  0  0  0  0  0  0  0
  145.3993  132.6929  149.0388 H   0  0  0  0  0  0  0  0  0  0  0  0
  146.2698  131.2919  149.6137 H   0  0  0  0  0  0  0  0  0  0  0  0
  143.1675  133.1377  150.0416 H   0  0  0  0  0  0  0  0  0  0  0  0
  142.6145  132.0446  151.2835 H   0  0  0  0  0  0  0  0  0  0  0  0
  144.2839  132.7820  152.8593 H   0  0  0  0  0  0  0  0  0  0  0  0
  143.4046  134.1856  152.3186 H   0  0  0  0  0  0  0  0  0  0  0  0
  1  2  1  0  0  0  0
  1 29  1  0  0  0  0
  1 30  1  0  0  0  0
  1 31  1  0  0  0  0
  2  3  1  0  0  0  0
  2  4  1  0  0  0  0
  2 32  1  0  0  0  0
  3 33  1  0  0  0  0
  3 34  1  0  0  0  0
  3 35  1  0  0  0  0
  4  5  1  0  0  0  0
  4 11  1  0  0  0  0
  5  6  1  0  0  0  0
  5 36  1  0  0  0  0
  5 37  1  0  0  0  0
  6  7  1  0  0  0  0
  6 38  1  0  0  0  0
  6 39  1  0  0  0  0
  7  8  1  0  0  0  0
  8  9  1  0  0  0  0
  8 40  1  0  0  0  0
  8 41  1  0  0  0  0
  9 10  1  0  0  0  0
  9 42  1  0  0  0  0
  9 43  1  0  0  0  0
 10 44  1  0  0  0  0
 11 16  1  0  0  0  0
 11 12  2  0  0  0  0
 12 13  1  0  0  0  0
 13 14  2  0  0  0  0
 13 45  1  0  0  0  0
 14 15  1  0  0  0  0
 15 19  1  0  0  0  0
 15 16  2  0  0  0  0
 16 17  1  0  0  0  0
 17 18  2  0  0  0  0
 18 19  1  0  0  0  0
 18 46  1  0  0  0  0
 19 20  1  0  0  0  0
 20 21  1  0  0  0  0
 20 47  1  0  0  0  0
 20 48  1  0  0  0  0
 21 28  1  0  0  0  0
 21 22  1  0  0  0  0
 21 24  1  0  0  0  0
 22 23  1  0  0  0  0
 22 49  1  0  0  0  0
 22 50  1  0  0  0  0
 23 51  1  0  0  0  0
 24 25  1  0  0  0  0
 24 52  1  0  0  0  0
 24 53  1  0  0  0  0
 25 26  1  0  0  0  0
 25 54  1  0  0  0  0
 25 55  1  0  0  0  0
 26 27  1  0  0  0  0
 27 28  1  0  0  0  0
 27 56  1  0  0  0  0
 27 57  1  0  0  0  0
 28 58  1  0  0  0  0
 28 59  1  0  0  0  0
M  END
> <s_m_source_file>
AV-unprocessed.smi

> <i_m_source_file_index>
201

> <i_lp_mmshare_version>
43012

> <i_f3d_flags>
0

> <s_epik_input>
W09IXVtDSDJdW0NIMl1PW0NIMl1bQ0gyXU4oW0NIXShbQ0gzXSlbQ0gzXSljKG5bY0hdbjEpYyhjMTIpbltjSF1uMltDSDJdQzMoW0NIMl1bT0hdKVtDSDJdW0NIMl1PW0NIMl1bQ0gyXTM=

> <s_epik_cmdline>
J2VwaWtfcHl0aG9uJywgJy1waCcsICc3LjAnLCAnLXRuJywgJzgnLCAnLW1hJywgJzIwMCcsICctbWV0YWxfYmluZGluZycsICctaW1hZScsICc8aW5maWxlLm1hZT4nLCAnLW9tYWUnLCAnPG91dGZpbGUubWFlPic=

> <r_lp_tautomer_probability>
1

> <r_epik_Ionization_Penalty>
0.00276835

> <r_epik_Ionization_Penalty_Charging>
0

> <r_epik_Ionization_Penalty_Neutral>
0.00276835

> <r_epik_State_Penalty>
0.00179834

> <r_epik_Charging_Adjusted_Penalty>
0.00179834

> <i_epik_Tot_Q>
0

> <i_epik_Tot_abs_Q>
0

> <r_epik_Metal_State_Penalty>
-0

> <b_epik_Metal_Only>
0

> <s_lp_Force_Field>
OPLS_2005

> <r_lp_Energy>
32.5455

> <b_lp_Chiralities_Consistent>
1

> <s_lp_Variant>
AV-unprocessed.smi:201-1

> <Gold.Version>
5.8.1

> <Gold.Id.Protein>
6NUR|6NUR_protein|mol2

> <Gold.PLP.Fitness>
41.2515

> <Gold.PLP.PLP>
-34.8031

> <Gold.PLP.part.hbond>
-3.2560

> <Gold.PLP.part.metal>
0.0000

> <Gold.PLP.part.buried>
-6.0171

> <Gold.PLP.part.nonpolar>
-25.5836

> <Gold.PLP.part.repulsive>
0.2571

> <Gold.PLP.ligand.clash>
0.0000

> <Gold.PLP.ligand.torsion>
1.6938

> <Gold.PLP.Chemscore.Hbond>
2.8880

> <Gold.PLP.Chemscore.CHOScore>
0.0000

> <Gold.PLP.Chemscore.Metal>
0.0000

> <Gold.Chemscore.Hbonds>
donor molecule, donor type, donor heavy atom, donor atom, acceptor molecule, acceptor atom, score
      L1  H    23    51       P1 10171  0.99
      P1  H  6931  6943       L1    10  1.00
      P1  H  6934  6947       L1    10  0.83

> <Gold.PLP.Chemscore.Internal.Correction>
1.1721

> <Gold.Rescore>
     Score         DG    S(hbond)    S(metal)    S(lipo)     H(rot)  DE(clash)    DE(int)     intcor
      9.77     -11.41       2.66        0.00      77.17       4.68       0.01       1.63       ----

> <Gold.Chemscore.Fitness>
9.7655

> <Gold.Chemscore.DG>
-11.4061

> <Gold.Chemscore.ZeroCoef>
-5.4800

> <Gold.Chemscore.Hbond>
2.6558

> <Gold.Chemscore.Metal>
0.0000

> <Gold.Chemscore.Lipo>
77.1721

> <Gold.Chemscore.Internal_Hbond>
0.0000

> <Gold.Chemscore.DEClash>
0.0082

> <Gold.Chemscore.DEInternal>
1.6325

> <Gold.Chemscore.Rot>
4.6771

> <Gold.Chemscore.Internal.Correction>
   9.000000E+99

> <Gold.Chemscore.Hbonds>
donor molecule, donor type, donor heavy atom, donor atom, acceptor molecule, acceptor atom, score
      L1  H    23    51       P1 10171  0.94
      P1  H  6931  6943       L1    10  0.71
      P1  H  6934  6947       L1    10  0.64

> <Gold.Chemscore.Hbond.Weighted>
-8.8704

> <Gold.Chemscore.Metal.Weighted>
-0.0000

> <Gold.Chemscore.Lipo.Weighted>
-9.0291

> <Gold.Chemscore.Internal_Hbond.Weighted>
0.0000

> <Gold.Chemscore.DEClash.Weighted>
0.0082

> <Gold.Chemscore.DEInternal.Weighted>
1.6325

> <Gold.Chemscore.Rot.Weighted>
11.9733

> <Gold.Chemscore.Internal.Correction.Weighted>
   9.000000E+99

> <Gold.Protein.RotatedTorsions>
[ 6907 6896 6895 6894 ] final   50.58 input  -60.11 | X-H torsion
[ 7974 7965 7964 7962 ] final  141.58 input  175.53 | X-H torsion
[ 8008 7997 7996 7995 ] final   83.82 input   59.86 | X-H torsion
[ 10167 10162 10161 10158 ] final   82.98 input  -65.29 | X-H torsion
[ 10718 10713 10712 10709 ] final -155.84 input   66.30 | X-H torsion
[ 10763 10752 10751 10750 ] final -175.58 input  -60.55 | X-H torsion
[ 11005 11000 10999 10996 ] final   44.20 input  -57.11 | X-H torsion

> <Gold.Protein.ActiveResidues>
 VAL166  LYS551  ARG553  GLY616  TRP617  ASP618  TYR619  PRO620  LYS621  CYS622 
 ASP623  PHE694  ASN695  SER759  ASP760  ASP761  ALA762  ILE779  LEU786  VAL792 
 PHE793  MET794  SER795  GLU796  ALA797  LYS798  CYS799  TRP800  GLU811  SER814 

> <Gold.Protein.RotatedAtoms>
  152.3033  134.7585  160.0352 H   0  0  0  0  0  0  0  0  0  0  0  0  # atno 6907 bound_to 6896
  151.8091  133.3374  159.3558 H   0  0  0  0  0  0  0  0  0  0  0  0  # atno 6908 bound_to 6896
  150.7284  134.5611  159.5887 H   0  0  0  0  0  0  0  0  0  0  0  0  # atno 6909 bound_to 6896
  144.9083  139.5327  143.5720 H   0  0  0  0  0  0  0  0  0  0  0  0  # atno 7974 bound_to 7965
  155.9290  140.3416  155.6234 H   0  0  0  0  0  0  0  0  0  0  0  0  # atno 8008 bound_to 7997
  155.7181  140.0780  157.2361 H   0  0  0  0  0  0  0  0  0  0  0  0  # atno 8009 bound_to 7997
  154.4082  140.1610  156.2358 H   0  0  0  0  0  0  0  0  0  0  0  0  # atno 8010 bound_to 7997
  139.9231  144.6200  150.8420 H   0  0  0  0  0  0  0  0  0  0  0  0  # atno 10167 bound_to 10162
  156.5183  130.8466  151.2672 H   0  0  0  0  0  0  0  0  0  0  0  0  # atno 10718 bound_to 10713
  154.5827  135.2837  155.0716 H   0  0  0  0  0  0  0  0  0  0  0  0  # atno 10763 bound_to 10752
  154.2046  135.6418  153.5101 H   0  0  0  0  0  0  0  0  0  0  0  0  # atno 10764 bound_to 10752
  153.0094  135.5477  154.6487 H   0  0  0  0  0  0  0  0  0  0  0  0  # atno 10765 bound_to 10752
  140.1574  134.4385  155.8340 H   0  0  0  0  0  0  0  0  0  0  0  0  # atno 11005 bound_to 11000
  146.3145  139.7870  142.8994 LP  0  0  0  0  0  0  0  0  0  0  0  0  # atno 17320 bound_to 7965
  145.3497  141.0305  143.3345 LP  0  0  0  0  0  0  0  0  0  0  0  0  # atno 17321 bound_to 7965
  140.7657  143.3283  151.2467 LP  0  0  0  0  0  0  0  0  0  0  0  0  # atno 17342 bound_to 10162
  139.6845  143.9798  152.2826 LP  0  0  0  0  0  0  0  0  0  0  0  0  # atno 17343 bound_to 10162
  157.7440  130.9926  150.2642 LP  0  0  0  0  0  0  0  0  0  0  0  0  # atno 17370 bound_to 10713
  156.3174  130.3781  149.7606 LP  0  0  0  0  0  0  0  0  0  0  0  0  # atno 17371 bound_to 10713
  141.2206  133.6898  156.7531 LP  0  0  0  0  0  0  0  0  0  0  0  0  # atno 17394 bound_to 11000
  140.2531  134.8525  157.3687 LP  0  0  0  0  0  0  0  0  0  0  0  0  # atno 17395 bound_to 11000

$$$$
