AV-unprocessed.smi:1567|AV-procd|sdf|6306|dock6
  -GOLD-   22720 6503D 1   1.00000     0.00000
 Structure written by MMmdl.
 42 44  0  0  0  0  0  0  0  0  1 V2000
  152.2093  137.1829  153.7694 O   0  0  0  0  0  0  0  0  0  0  0  0
  151.1189  137.6736  154.5198 C   0  0  0  0  0  0  0  0  0  0  0  0
  151.5024  138.9706  155.2459 C   0  0  0  0  0  0  0  0  0  0  0  0
  151.0047  139.0266  156.7002 C   0  0  0  0  0  0  0  0  0  0  0  0
  151.3893  140.3029  157.3948 C   0  0  0  0  0  0  0  0  0  0  0  0
  151.1048  141.4843  156.8439 N   0  0  0  0  0  0  0  0  0  0  0  0
  151.6053  142.3839  157.7620 C   0  0  0  0  0  0  0  0  0  0  0  0
  151.6024  143.7970  157.7583 C   0  0  0  0  0  0  0  0  0  0  0  0
  152.1870  144.5143  158.8224 C   0  0  0  0  0  0  0  0  0  0  0  0
  152.7831  143.8298  159.9011 C   0  0  0  0  0  0  0  0  0  0  0  0
  152.7974  142.4219  159.9227 C   0  0  0  0  0  0  0  0  0  0  0  0
  152.2096  141.7104  158.8592 C   0  0  0  0  0  0  0  0  0  0  0  0
  152.0588  140.3547  158.5795 N   0  0  0  0  0  0  0  0  0  0  0  0
  152.5574  139.2724  159.4220 C   0  0  0  0  0  0  0  0  0  0  0  0
  154.0198  139.4821  159.8621 C   0  0  2  0  0  0  0  0  0  0  0  0
  154.8504  139.2181  158.7497 O   0  0  0  0  0  0  0  0  0  0  0  0
  154.4043  138.6406  161.0727 C   0  0  0  0  0  0  0  0  0  0  0  0
  154.3331  137.2310  161.0087 C   0  0  0  0  0  0  0  0  0  0  0  0
  154.6987  136.4476  162.1201 C   0  0  0  0  0  0  0  0  0  0  0  0
  154.6235  135.0976  162.0505 F   0  0  0  0  0  0  0  0  0  0  0  0
  155.1389  137.0679  163.3044 C   0  0  0  0  0  0  0  0  0  0  0  0
  155.2063  138.4724  163.3778 C   0  0  0  0  0  0  0  0  0  0  0  0
  154.8375  139.2583  162.2684 C   0  0  0  0  0  0  0  0  0  0  0  0
  154.9010  140.6083  162.3612 F   0  0  0  0  0  0  0  0  0  0  0  0
  151.9459  137.1116  152.8646 H   0  0  0  0  0  0  0  0  0  0  0  0
  150.2878  137.8592  153.8390 H   0  0  0  0  0  0  0  0  0  0  0  0
  150.7904  136.9124  155.2278 H   0  0  0  0  0  0  0  0  0  0  0  0
  152.5838  139.1094  155.2108 H   0  0  0  0  0  0  0  0  0  0  0  0
  151.0764  139.8093  154.6981 H   0  0  0  0  0  0  0  0  0  0  0  0
  149.9276  138.8845  156.7062 H   0  0  0  0  0  0  0  0  0  0  0  0
  151.4205  138.1933  157.2674 H   0  0  0  0  0  0  0  0  0  0  0  0
  151.1498  144.3300  156.9352 H   0  0  0  0  0  0  0  0  0  0  0  0
  152.1789  145.5943  158.8100 H   0  0  0  0  0  0  0  0  0  0  0  0
  153.2299  144.3864  160.7118 H   0  0  0  0  0  0  0  0  0  0  0  0
  153.2540  141.8954  160.7476 H   0  0  0  0  0  0  0  0  0  0  0  0
  151.9048  139.1077  160.2762 H   0  0  0  0  0  0  0  0  0  0  0  0
  152.4893  138.3555  158.8347 H   0  0  0  0  0  0  0  0  0  0  0  0
  154.1686  140.5358  160.0988 H   0  0  0  0  0  0  0  0  0  0  0  0
  155.3055  138.4040  158.9026 H   0  0  0  0  0  0  0  0  0  0  0  0
  153.9961  136.7452  160.1047 H   0  0  0  0  0  0  0  0  0  0  0  0
  155.4192  136.4679  164.1576 H   0  0  0  0  0  0  0  0  0  0  0  0
  155.5378  138.9484  164.2886 H   0  0  0  0  0  0  0  0  0  0  0  0
  1  2  1  0  0  0  0
  1 25  1  0  0  0  0
  2  3  1  0  0  0  0
  2 26  1  0  0  0  0
  2 27  1  0  0  0  0
  3  4  1  0  0  0  0
  3 28  1  0  0  0  0
  3 29  1  0  0  0  0
  4  5  1  0  0  0  0
  4 30  1  0  0  0  0
  4 31  1  0  0  0  0
  5 13  1  0  0  0  0
  5  6  2  0  0  0  0
  6  7  1  0  0  0  0
  7 12  2  0  0  0  0
  7  8  1  0  0  0  0
  8  9  2  0  0  0  0
  8 32  1  0  0  0  0
  9 10  1  0  0  0  0
  9 33  1  0  0  0  0
 10 11  2  0  0  0  0
 10 34  1  0  0  0  0
 11 12  1  0  0  0  0
 11 35  1  0  0  0  0
 12 13  1  0  0  0  0
 13 14  1  0  0  0  0
 14 15  1  0  0  0  0
 14 36  1  0  0  0  0
 14 37  1  0  0  0  0
 15 16  1  0  0  0  0
 15 17  1  0  0  0  0
 15 38  1  0  0  0  0
 16 39  1  0  0  0  0
 17 23  1  0  0  0  0
 17 18  2  0  0  0  0
 18 19  1  0  0  0  0
 18 40  1  0  0  0  0
 19 20  1  0  0  0  0
 19 21  2  0  0  0  0
 21 22  1  0  0  0  0
 21 41  1  0  0  0  0
 22 23  2  0  0  0  0
 22 42  1  0  0  0  0
 23 24  1  0  0  0  0
M  END
> <s_m_source_file>
AV-unprocessed.smi

> <i_m_source_file_index>
1567

> <i_lp_mmshare_version>
43012

> <i_f3d_flags>
0

> <s_epik_input>
W09IXVtDSDJdW0NIMl1bQ0gyXWMobjEpbihjKGMxMilbY0hdW2NIXVtjSF1bY0hdMilbQ0gyXVtDQEhdKFtPSF0pYzNbY0hdYyhGKVtjSF1bY0hdYzNG

> <s_epik_cmdline>
J2VwaWtfcHl0aG9uJywgJy1waCcsICc3LjAnLCAnLXRuJywgJzgnLCAnLW1hJywgJzIwMCcsICctbWV0YWxfYmluZGluZycsICctaW1hZScsICc8aW5maWxlLm1hZT4nLCAnLW9tYWUnLCAnPG91dGZpbGUubWFlPic=

> <r_epik_Ionization_Penalty>
0.182562

> <r_epik_Ionization_Penalty_Charging>
0

> <r_epik_Ionization_Penalty_Neutral>
0.182562

> <r_epik_State_Penalty>
0.172086

> <r_epik_Charging_Adjusted_Penalty>
0.172086

> <i_epik_Tot_Q>
0

> <i_epik_Tot_abs_Q>
0

> <r_epik_Metal_State_Penalty>
0.000199649

> <b_epik_Metal_Only>
0

> <s_lp_Force_Field>
OPLS_2005

> <r_lp_Energy>
11.8794

> <b_lp_Chiralities_Consistent>
1

> <s_lp_Variant>
AV-unprocessed.smi:1567-1

> <Gold.Version>
5.8.1

> <Gold.Id.Protein>
6NUR|6NUR_protein|mol2

> <Gold.PLP.Fitness>
58.1121

> <Gold.PLP.PLP>
-50.5232

> <Gold.PLP.part.hbond>
-3.0000

> <Gold.PLP.part.metal>
0.0000

> <Gold.PLP.part.buried>
-4.7600

> <Gold.PLP.part.nonpolar>
-42.2726

> <Gold.PLP.part.repulsive>
0.0475

> <Gold.PLP.ligand.clash>
0.0000

> <Gold.PLP.ligand.torsion>
0.6252

> <Gold.PLP.Chemscore.Hbond>
2.9280

> <Gold.PLP.Chemscore.CHOScore>
0.0000

> <Gold.PLP.Chemscore.Metal>
0.0000

> <Gold.Chemscore.Hbonds>
donor molecule, donor type, donor heavy atom, donor atom, acceptor molecule, acceptor atom, score
      L1  H     1    25       P1  7949  0.94
      P1  H  7997  8008       L1    16  1.00
      P1  H 10752 10765       L1     1  1.00

> <Gold.PLP.Chemscore.Internal.Correction>
0.0552

> <Gold.Rescore>
     Score         DG    S(hbond)    S(metal)    S(lipo)     H(rot)  DE(clash)    DE(int)     intcor
     21.44     -22.23       2.73        0.00     135.93       3.23       0.05       0.74       ----

> <Gold.Chemscore.Fitness>
21.4398

> <Gold.Chemscore.DG>
-22.2268

> <Gold.Chemscore.ZeroCoef>
-5.4800

> <Gold.Chemscore.Hbond>
2.7267

> <Gold.Chemscore.Metal>
0.0000

> <Gold.Chemscore.Lipo>
135.9265

> <Gold.Chemscore.Internal_Hbond>
0.0000

> <Gold.Chemscore.DEClash>
0.0455

> <Gold.Chemscore.DEInternal>
0.7415

> <Gold.Chemscore.Rot>
3.2281

> <Gold.Chemscore.Internal.Correction>
   9.000000E+99

> <Gold.Chemscore.Hbonds>
donor molecule, donor type, donor heavy atom, donor atom, acceptor molecule, acceptor atom, score
      L1  H     1    25       P1  7949  0.90
      P1  H  7997  8008       L1    16  0.94
      P1  H 10752 10765       L1     1  0.33

> <Gold.Chemscore.Hbond.Weighted>
-9.1073

> <Gold.Chemscore.Metal.Weighted>
-0.0000

> <Gold.Chemscore.Lipo.Weighted>
-15.9034

> <Gold.Chemscore.Internal_Hbond.Weighted>
0.0000

> <Gold.Chemscore.DEClash.Weighted>
0.0455

> <Gold.Chemscore.DEInternal.Weighted>
0.7415

> <Gold.Chemscore.Rot.Weighted>
8.2639

> <Gold.Chemscore.Internal.Correction.Weighted>
   9.000000E+99

> <Gold.Protein.RotatedTorsions>
[ 6907 6896 6895 6894 ] final   31.23 input  -60.11 | X-H torsion
[ 7974 7965 7964 7962 ] final -128.78 input  175.53 | X-H torsion
[ 8008 7997 7996 7995 ] final -124.00 input   59.86 | X-H torsion
[ 10167 10162 10161 10158 ] final  176.77 input  -65.29 | X-H torsion
[ 10718 10713 10712 10709 ] final  -59.91 input   66.30 | X-H torsion
[ 10763 10752 10751 10750 ] final  145.08 input  -60.55 | X-H torsion
[ 11005 11000 10999 10996 ] final  -96.07 input  -57.11 | X-H torsion

> <Gold.Protein.ActiveResidues>
 VAL166  LYS551  ARG553  GLY616  TRP617  ASP618  TYR619  PRO620  LYS621  CYS622 
 ASP623  PHE694  ASN695  SER759  ASP760  ASP761  ALA762  ILE779  LEU786  VAL792 
 PHE793  MET794  SER795  GLU796  ALA797  LYS798  CYS799  TRP800  GLU811  SER814 

> <Gold.Protein.RotatedAtoms>
  152.0573  134.9616  160.0574 H   0  0  0  0  0  0  0  0  0  0  0  0  # atno 6907 bound_to 6896
  152.0994  133.4237  159.4588 H   0  0  0  0  0  0  0  0  0  0  0  0  # atno 6908 bound_to 6896
  150.6839  134.2698  159.4627 H   0  0  0  0  0  0  0  0  0  0  0  0  # atno 6909 bound_to 6896
  144.9637  140.7473  143.4713 H   0  0  0  0  0  0  0  0  0  0  0  0  # atno 7974 bound_to 7965
  155.1897  140.0413  157.2898 H   0  0  0  0  0  0  0  0  0  0  0  0  # atno 8008 bound_to 7997
  154.6147  140.2485  155.7597 H   0  0  0  0  0  0  0  0  0  0  0  0  # atno 8009 bound_to 7997
  156.2399  140.2907  156.0426 H   0  0  0  0  0  0  0  0  0  0  0  0  # atno 8010 bound_to 7997
  139.5227  144.2876  152.0492 H   0  0  0  0  0  0  0  0  0  0  0  0  # atno 10167 bound_to 10162
  156.1028  130.4184  150.0781 H   0  0  0  0  0  0  0  0  0  0  0  0  # atno 10718 bound_to 10713
  153.9995  135.2924  155.3404 H   0  0  0  0  0  0  0  0  0  0  0  0  # atno 10763 bound_to 10752
  154.7168  135.5126  153.8753 H   0  0  0  0  0  0  0  0  0  0  0  0  # atno 10764 bound_to 10752
  153.0772  135.6667  154.0238 H   0  0  0  0  0  0  0  0  0  0  0  0  # atno 10765 bound_to 10752
  141.1422  133.8071  157.0522 H   0  0  0  0  0  0  0  0  0  0  0  0  # atno 11005 bound_to 11000
  145.2662  139.1972  143.4866 LP  0  0  0  0  0  0  0  0  0  0  0  0  # atno 17320 bound_to 7965
  146.3361  140.2601  142.8601 LP  0  0  0  0  0  0  0  0  0  0  0  0  # atno 17321 bound_to 7965
  140.2329  144.4350  150.6292 LP  0  0  0  0  0  0  0  0  0  0  0  0  # atno 17342 bound_to 10162
  140.6343  143.2192  151.6428 LP  0  0  0  0  0  0  0  0  0  0  0  0  # atno 17343 bound_to 10162
  156.8764  130.9541  151.3604 LP  0  0  0  0  0  0  0  0  0  0  0  0  # atno 17370 bound_to 10713
  157.6200  130.8648  149.9093 LP  0  0  0  0  0  0  0  0  0  0  0  0  # atno 17371 bound_to 10713
  140.0625  134.9747  157.1329 LP  0  0  0  0  0  0  0  0  0  0  0  0  # atno 17394 bound_to 11000
  140.3828  134.2268  155.7170 LP  0  0  0  0  0  0  0  0  0  0  0  0  # atno 17395 bound_to 11000

$$$$
