AV-unprocessed.smi:2481|AV-procd|sdf|9772|dock7
  -GOLD-   2272013413D 1   1.00000     0.00000
 Structure written by MMmdl.
 37 38  0  0  0  0  0  0  0  0  1 V2000
  151.2848  138.3224  154.2709 C   0  0  0  0  0  0  0  0  0  0  0  0
  150.2331  139.3095  154.4214 N   0  0  0  0  0  0  0  0  0  0  0  0
  150.5097  140.5609  154.8576 N   0  0  0  0  0  0  0  0  0  0  0  0
  149.3108  141.1441  154.8552 C   0  0  0  0  0  0  0  0  0  0  0  0
  148.2662  140.3640  154.4481 N   0  0  0  0  0  0  0  0  0  0  0  0
  148.9186  139.2341  154.1937 C   0  0  0  0  0  0  0  0  0  0  0  0
  148.3437  138.0227  153.7243 N   0  0  0  0  0  0  0  0  0  0  0  0
  147.2701  137.3783  154.2118 C   0  0  0  0  0  0  0  0  0  0  0  0
  146.5896  137.7539  155.1669 O   0  0  0  0  0  0  0  0  0  0  0  0
  147.0208  136.2590  153.5174 N   0  0  0  0  0  0  0  0  0  0  0  0
  145.9265  135.3218  153.7775 C   0  0  1  0  0  0  0  0  0  0  0  0
  144.6071  136.0805  154.0371 C   0  0  0  0  0  0  0  0  0  0  0  0
  144.0683  136.7583  152.7663 C   0  0  0  0  0  0  0  0  0  0  0  0
  143.9088  135.7450  151.6239 C   0  0  0  0  0  0  0  0  0  0  0  0
  145.2250  135.0007  151.3476 C   0  0  0  0  0  0  0  0  0  0  0  0
  145.7659  134.3052  152.6154 C   0  0  1  0  0  0  0  0  0  0  0  0
  147.0520  133.5095  152.3069 C   0  0  0  0  0  0  0  0  0  0  0  0
  146.8443  132.6134  151.2352 O   0  0  0  0  0  0  0  0  0  0  0  0
  151.3762  138.0432  153.2209 H   0  0  0  0  0  0  0  0  0  0  0  0
  151.0424  137.4354  154.8569 H   0  0  0  0  0  0  0  0  0  0  0  0
  152.2394  138.7230  154.6148 H   0  0  0  0  0  0  0  0  0  0  0  0
  149.1838  142.1727  155.1590 H   0  0  0  0  0  0  0  0  0  0  0  0
  148.8015  137.6021  152.9293 H   0  0  0  0  0  0  0  0  0  0  0  0
  147.6320  136.0333  152.7467 H   0  0  0  0  0  0  0  0  0  0  0  0
  146.1683  134.7590  154.6809 H   0  0  0  0  0  0  0  0  0  0  0  0
  143.8603  135.3779  154.4087 H   0  0  0  0  0  0  0  0  0  0  0  0
  144.7412  136.8206  154.8271 H   0  0  0  0  0  0  0  0  0  0  0  0
  143.1097  137.2328  152.9777 H   0  0  0  0  0  0  0  0  0  0  0  0
  144.7443  137.5566  152.4574 H   0  0  0  0  0  0  0  0  0  0  0  0
  143.1302  135.0255  151.8805 H   0  0  0  0  0  0  0  0  0  0  0  0
  143.5727  136.2541  150.7202 H   0  0  0  0  0  0  0  0  0  0  0  0
  145.0621  134.2639  150.5603 H   0  0  0  0  0  0  0  0  0  0  0  0
  145.9661  135.7013  150.9608 H   0  0  0  0  0  0  0  0  0  0  0  0
  145.0097  133.5803  152.9224 H   0  0  0  0  0  0  0  0  0  0  0  0
  147.8561  134.1894  152.0235 H   0  0  0  0  0  0  0  0  0  0  0  0
  147.4000  132.9559  153.1792 H   0  0  0  0  0  0  0  0  0  0  0  0
  147.6687  132.2049  151.0194 H   0  0  0  0  0  0  0  0  0  0  0  0
  1  2  1  0  0  0  0
  1 19  1  0  0  0  0
  1 20  1  0  0  0  0
  1 21  1  0  0  0  0
  2  6  1  0  0  0  0
  2  3  1  0  0  0  0
  3  4  2  0  0  0  0
  4  5  1  0  0  0  0
  4 22  1  0  0  0  0
  5  6  2  0  0  0  0
  6  7  1  0  0  0  0
  7  8  1  0  0  0  0
  7 23  1  0  0  0  0
  8  9  2  0  0  0  0
  8 10  1  0  0  0  0
 10 11  1  0  0  0  0
 10 24  1  0  0  0  0
 11 16  1  0  0  0  0
 11 12  1  0  0  0  0
 11 25  1  0  0  0  0
 12 13  1  0  0  0  0
 12 26  1  0  0  0  0
 12 27  1  0  0  0  0
 13 14  1  0  0  0  0
 13 28  1  0  0  0  0
 13 29  1  0  0  0  0
 14 15  1  0  0  0  0
 14 30  1  0  0  0  0
 14 31  1  0  0  0  0
 15 16  1  0  0  0  0
 15 32  1  0  0  0  0
 15 33  1  0  0  0  0
 16 17  1  0  0  0  0
 16 34  1  0  0  0  0
 17 18  1  0  0  0  0
 17 35  1  0  0  0  0
 17 36  1  0  0  0  0
 18 37  1  0  0  0  0
M  END
> <s_m_source_file>
AV-unprocessed.smi

> <i_m_source_file_index>
2481

> <i_lp_mmshare_version>
43012

> <i_f3d_flags>
0

> <s_epik_input>
W0NIM11uMW5bY0hdbmMxW05IXUMoPU8pW05IXVtDQEBIXTJbQ0gyXVtDSDJdW0NIMl1bQ0gyXVtDQEhdMltDSDJdW09IXQ==

> <s_epik_cmdline>
J2VwaWtfcHl0aG9uJywgJy1waCcsICc3LjAnLCAnLXRuJywgJzgnLCAnLW1hJywgJzIwMCcsICctbWV0YWxfYmluZGluZycsICctaW1hZScsICc8aW5maWxlLm1hZT4nLCAnLW9tYWUnLCAnPG91dGZpbGUubWFlPic=

> <r_lp_tautomer_probability>
1

> <r_epik_Ionization_Penalty>
2.32704e-05

> <r_epik_Ionization_Penalty_Charging>
0

> <r_epik_Ionization_Penalty_Neutral>
2.32704e-05

> <r_epik_State_Penalty>
-0

> <r_epik_Charging_Adjusted_Penalty>
0

> <i_epik_Tot_Q>
0

> <i_epik_Tot_abs_Q>
0

> <r_epik_Metal_State_Penalty>
-0

> <b_epik_Metal_Only>
0

> <s_lp_Force_Field>
OPLS_2005

> <r_lp_Energy>
12.0368

> <b_lp_Chiralities_Consistent>
1

> <s_lp_Variant>
AV-unprocessed.smi:2481-2

> <Gold.Version>
5.8.1

> <Gold.Id.Protein>
6NUR|6NUR_protein|mol2

> <Gold.PLP.Fitness>
39.5625

> <Gold.PLP.PLP>
-27.0141

> <Gold.PLP.part.hbond>
-4.0000

> <Gold.PLP.part.metal>
0.0000

> <Gold.PLP.part.buried>
-2.5007

> <Gold.PLP.part.nonpolar>
-20.2643

> <Gold.PLP.part.repulsive>
0.2787

> <Gold.PLP.ligand.clash>
0.0000

> <Gold.PLP.ligand.torsion>
0.6034

> <Gold.PLP.Chemscore.Hbond>
3.5928

> <Gold.PLP.Chemscore.CHOScore>
0.9863

> <Gold.PLP.Chemscore.Metal>
0.0000

> <Gold.Chemscore.Hbonds>
donor molecule, donor type, donor heavy atom, donor atom, acceptor molecule, acceptor atom, score
      L1  H     7    23       P1  7948  0.99
      L1  H    10    24       P1  7948  1.00
      L1  H    18    37       P1 10747  1.00
      P1  H  7989  7998       L1     3  0.63
      L1  C     4    22       P1  8028  0.81

> <Gold.PLP.Chemscore.Internal.Correction>
0.0179

> <Gold.Rescore>
     Score         DG    S(hbond)    S(metal)    S(lipo)     H(rot)  DE(clash)    DE(int)     intcor
     12.85     -14.47       3.02        0.00      34.01       1.99       0.00       1.62       ----

> <Gold.Chemscore.Fitness>
12.8498

> <Gold.Chemscore.DG>
-14.4697

> <Gold.Chemscore.ZeroCoef>
-5.4800

> <Gold.Chemscore.Hbond>
3.0238

> <Gold.Chemscore.Metal>
0.0000

> <Gold.Chemscore.Lipo>
34.0078

> <Gold.Chemscore.Internal_Hbond>
0.0000

> <Gold.Chemscore.DEClash>
0.0000

> <Gold.Chemscore.DEInternal>
1.6199

> <Gold.Chemscore.Rot>
1.9877

> <Gold.Chemscore.Internal.Correction>
   9.000000E+99

> <Gold.Chemscore.Hbonds>
donor molecule, donor type, donor heavy atom, donor atom, acceptor molecule, acceptor atom, score
      L1  H     7    23       P1  7948  0.94
      L1  H    10    24       P1  7948  0.96
      L1  H    18    37       P1 10747  0.94
      P1  H  7989  7998       L1     3  0.05

> <Gold.Chemscore.Hbond.Weighted>
-10.0993

> <Gold.Chemscore.Metal.Weighted>
-0.0000

> <Gold.Chemscore.Lipo.Weighted>
-3.9789

> <Gold.Chemscore.Internal_Hbond.Weighted>
0.0000

> <Gold.Chemscore.DEClash.Weighted>
0.0000

> <Gold.Chemscore.DEInternal.Weighted>
1.6199

> <Gold.Chemscore.Rot.Weighted>
5.0885

> <Gold.Chemscore.Internal.Correction.Weighted>
   9.000000E+99

> <Gold.Protein.RotatedTorsions>
[ 6907 6896 6895 6894 ] final -171.84 input  -60.11 | X-H torsion
[ 7974 7965 7964 7962 ] final  -69.97 input  175.53 | X-H torsion
[ 8008 7997 7996 7995 ] final    1.21 input   59.86 | X-H torsion
[ 10167 10162 10161 10158 ] final -122.92 input  -65.29 | X-H torsion
[ 10718 10713 10712 10709 ] final  -99.78 input   66.30 | X-H torsion
[ 10763 10752 10751 10750 ] final  148.69 input  -60.55 | X-H torsion
[ 11005 11000 10999 10996 ] final -121.16 input  -57.11 | X-H torsion

> <Gold.Protein.ActiveResidues>
 VAL166  LYS551  ARG553  GLY616  TRP617  ASP618  TYR619  PRO620  LYS621  CYS622 
 ASP623  PHE694  ASN695  SER759  ASP760  ASP761  ALA762  ILE779  LEU786  VAL792 
 PHE793  MET794  SER795  GLU796  ALA797  LYS798  CYS799  TRP800  GLU811  SER814 

> <Gold.Protein.RotatedAtoms>
  151.5304  133.3450  159.2916 H   0  0  0  0  0  0  0  0  0  0  0  0  # atno 6907 bound_to 6896
  150.8597  134.7948  159.7084 H   0  0  0  0  0  0  0  0  0  0  0  0  # atno 6908 bound_to 6896
  152.4620  134.5170  159.9823 H   0  0  0  0  0  0  0  0  0  0  0  0  # atno 6909 bound_to 6896
  145.6970  140.9131  143.0751 H   0  0  0  0  0  0  0  0  0  0  0  0  # atno 7974 bound_to 7965
  154.6771  140.2624  155.6947 H   0  0  0  0  0  0  0  0  0  0  0  0  # atno 8008 bound_to 7997
  156.2682  140.2817  156.1224 H   0  0  0  0  0  0  0  0  0  0  0  0  # atno 8009 bound_to 7997
  155.1085  140.0375  157.2707 H   0  0  0  0  0  0  0  0  0  0  0  0  # atno 8010 bound_to 7997
  140.0091  143.5461  152.2271 H   0  0  0  0  0  0  0  0  0  0  0  0  # atno 10167 bound_to 10162
  156.0144  130.5298  150.6720 H   0  0  0  0  0  0  0  0  0  0  0  0  # atno 10718 bound_to 10713
  154.0588  135.2876  155.3328 H   0  0  0  0  0  0  0  0  0  0  0  0  # atno 10763 bound_to 10752
  154.6822  135.5259  153.8281 H   0  0  0  0  0  0  0  0  0  0  0  0  # atno 10764 bound_to 10752
  153.0531  135.6584  154.0778 H   0  0  0  0  0  0  0  0  0  0  0  0  # atno 10765 bound_to 10752
  141.0091  134.0291  157.3438 H   0  0  0  0  0  0  0  0  0  0  0  0  # atno 11005 bound_to 11000
  144.6980  139.8897  143.7452 LP  0  0  0  0  0  0  0  0  0  0  0  0  # atno 17320 bound_to 7965
  146.0832  139.3820  143.0452 LP  0  0  0  0  0  0  0  0  0  0  0  0  # atno 17321 bound_to 7965
  139.6218  144.7630  151.2724 LP  0  0  0  0  0  0  0  0  0  0  0  0  # atno 17342 bound_to 10162
  140.7389  143.6635  150.8143 LP  0  0  0  0  0  0  0  0  0  0  0  0  # atno 17343 bound_to 10162
  157.4441  131.0865  151.0914 LP  0  0  0  0  0  0  0  0  0  0  0  0  # atno 17370 bound_to 10713
  157.1449  130.6159  149.5565 LP  0  0  0  0  0  0  0  0  0  0  0  0  # atno 17371 bound_to 10713
  139.9079  135.0184  156.7568 LP  0  0  0  0  0  0  0  0  0  0  0  0  # atno 17394 bound_to 11000
  140.6764  133.9514  155.7885 LP  0  0  0  0  0  0  0  0  0  0  0  0  # atno 17395 bound_to 11000

$$$$
