AV-unprocessed.smi:2173|AV-procd|sdf|8840|dock4
  -GOLD-   2272012 33D 1   1.00000     0.00000
 Structure written by MMmdl.
 36 37  0  0  0  0  0  0  0  0  2 V2000
  152.7712  139.9118  157.4793 O   0  0  0  0  0  0  0  0  0  0  0  0
  151.8269  140.6667  157.2457 C   0  0  0  0  0  0  0  0  0  0  0  0
  151.0237  140.5321  156.1778 N   0  0  0  0  0  0  0  0  0  0  0  0
  151.1539  139.5094  155.1424 C   0  0  0  0  0  0  0  0  0  0  0  0
  149.8372  138.7498  154.8788 C   0  0  0  0  0  0  0  0  0  0  0  0
  148.8640  139.4931  153.9793 C   0  0  0  0  0  0  0  0  0  0  0  0
  148.5466  140.8532  154.1841 C   0  0  0  0  0  0  0  0  0  0  0  0
  147.6028  141.4751  153.3405 C   0  0  0  0  0  0  0  0  0  0  0  0
  146.9964  140.7253  152.3113 C   0  0  0  0  0  0  0  0  0  0  0  0
  147.3508  139.3705  152.1504 C   0  0  0  0  0  0  0  0  0  0  0  0
  148.2601  138.8112  152.9781 N   0  3  0  0  0  0  0  0  0  0  0  0
  151.5358  141.8499  158.1764 C   0  0  2  0  0  0  0  0  0  0  0  0
  151.4055  143.1644  157.3729 C   0  0  0  0  0  0  0  0  0  0  0  0
  151.3664  144.3846  158.2760 C   0  0  0  0  0  0  0  0  0  0  0  0
  151.7419  144.3607  159.5663 C   0  0  0  0  0  0  0  0  0  0  0  0
  152.2536  143.1132  160.2651 C   0  0  0  0  0  0  0  0  0  0  0  0
  152.6129  141.9934  159.2702 C   0  0  0  0  0  0  0  0  0  0  0  0
  150.2672  141.1929  156.0713 H   0  0  0  0  0  0  0  0  0  0  0  0
  151.5232  139.9508  154.2153 H   0  0  0  0  0  0  0  0  0  0  0  0
  151.9196  138.8032  155.4641 H   0  0  0  0  0  0  0  0  0  0  0  0
  150.0606  137.7829  154.4267 H   0  0  0  0  0  0  0  0  0  0  0  0
  149.3452  138.5308  155.8276 H   0  0  0  0  0  0  0  0  0  0  0  0
  149.0103  141.4107  154.9850 H   0  0  0  0  0  0  0  0  0  0  0  0
  147.3432  142.5137  153.4846 H   0  0  0  0  0  0  0  0  0  0  0  0
  146.2683  141.1825  151.6575 H   0  0  0  0  0  0  0  0  0  0  0  0
  146.9342  138.7205  151.3948 H   0  0  0  0  0  0  0  0  0  0  0  0
  150.5837  141.6627  158.6769 H   0  0  0  0  0  0  0  0  0  0  0  0
  152.2361  143.2880  156.6763 H   0  0  0  0  0  0  0  0  0  0  0  0
  150.4922  143.1442  156.7772 H   0  0  0  0  0  0  0  0  0  0  0  0
  151.0271  145.3093  157.8326 H   0  0  0  0  0  0  0  0  0  0  0  0
  151.6768  145.2601  160.1611 H   0  0  0  0  0  0  0  0  0  0  0  0
  153.1257  143.3690  160.8675 H   0  0  0  0  0  0  0  0  0  0  0  0
  151.4805  142.7706  160.9534 H   0  0  0  0  0  0  0  0  0  0  0  0
  152.7487  141.0540  159.8077 H   0  0  0  0  0  0  0  0  0  0  0  0
  153.5741  142.2240  158.8077 H   0  0  0  0  0  0  0  0  0  0  0  0
  148.4943  137.8267  152.8497 H   0  0  0  0  0  0  0  0  0  0  0  0
  1  2  2  0  0  0  0
  2  3  1  0  0  0  0
  2 12  1  0  0  0  0
  3  4  1  0  0  0  0
  3 18  1  0  0  0  0
  4  5  1  0  0  0  0
  4 19  1  0  0  0  0
  4 20  1  0  0  0  0
  5  6  1  0  0  0  0
  5 21  1  0  0  0  0
  5 22  1  0  0  0  0
  6 11  1  0  0  0  0
  6  7  2  0  0  0  0
  7  8  1  0  0  0  0
  7 23  1  0  0  0  0
  8  9  2  0  0  0  0
  8 24  1  0  0  0  0
  9 10  1  0  0  0  0
  9 25  1  0  0  0  0
 10 11  2  0  0  0  0
 10 26  1  0  0  0  0
 11 36  1  0  0  0  0
 12 17  1  0  0  0  0
 12 13  1  0  0  0  0
 12 27  1  0  0  0  0
 13 14  1  0  0  0  0
 13 28  1  0  0  0  0
 13 29  1  0  0  0  0
 14 15  2  0  0  0  0
 14 30  1  0  0  0  0
 15 16  1  0  0  0  0
 15 31  1  0  0  0  0
 16 17  1  0  0  0  0
 16 32  1  0  0  0  0
 16 33  1  0  0  0  0
 17 34  1  0  0  0  0
 17 35  1  0  0  0  0
M  CHG  1  11   1
M  END
> <s_m_source_file>
AV-unprocessed.smi

> <i_m_source_file_index>
2173

> <i_lp_mmshare_version>
43012

> <i_f3d_flags>
0

> <s_epik_input>
W0NIMl0xW0NIMl1bQ0hdPVtDSF1bQ0gyXVtDQEhdMUMoPU8pW05IXVtDSDJdW0NIMl1jMltjSF1bY0hdW2NIXVtjSF1uMg==

> <s_epik_cmdline>
J2VwaWtfcHl0aG9uJywgJy1waCcsICc3LjAnLCAnLXRuJywgJzgnLCAnLW1hJywgJzIwMCcsICctbWV0YWxfYmluZGluZycsICctaW1hZScsICc8aW5maWxlLm1hZT4nLCAnLW9tYWUnLCAnPG91dGZpbGUubWFlPic=

> <r_epik_Ionization_Penalty>
1.84586

> <r_epik_Ionization_Penalty_Charging>
1.84586

> <r_epik_Ionization_Penalty_Neutral>
1.53635e-08

> <r_epik_State_Penalty>
1.96297

> <r_epik_Charging_Adjusted_Penalty>
3.80883

> <i_epik_Tot_Q>
1

> <i_epik_Tot_abs_Q>
1

> <r_epik_Metal_State_Penalty>
1.98887

> <b_epik_Metal_Only>
0

> <s_lp_Force_Field>
OPLS_2005

> <r_lp_Energy>
13.6363

> <b_lp_Chiralities_Consistent>
1

> <s_lp_Variant>
AV-unprocessed.smi:2173-3

> <Gold.Version>
5.8.1

> <Gold.Id.Protein>
6NUR|6NUR_protein|mol2

> <Gold.PLP.Fitness>
47.4253

> <Gold.PLP.PLP>
-39.2106

> <Gold.PLP.part.hbond>
-3.0000

> <Gold.PLP.part.metal>
0.0000

> <Gold.PLP.part.buried>
0.6632

> <Gold.PLP.part.nonpolar>
-35.7951

> <Gold.PLP.part.repulsive>
0.1568

> <Gold.PLP.ligand.clash>
0.0000

> <Gold.PLP.ligand.torsion>
0.4048

> <Gold.PLP.Chemscore.Hbond>
3.0000

> <Gold.PLP.Chemscore.CHOScore>
0.0000

> <Gold.PLP.Chemscore.Metal>
0.0000

> <Gold.Chemscore.Hbonds>
donor molecule, donor type, donor heavy atom, donor atom, acceptor molecule, acceptor atom, score
      L1  H    11    36       P1  7948  2.00
      P1  H  7997  8010       L1     1  1.00

> <Gold.PLP.Chemscore.Internal.Correction>
0.0243

> <Gold.Rescore>
     Score         DG    S(hbond)    S(metal)    S(lipo)     H(rot)  DE(clash)    DE(int)     intcor
     19.16     -21.42       1.94        0.00     113.35       1.48       1.65       0.61       ----

> <Gold.Chemscore.Fitness>
19.1574

> <Gold.Chemscore.DG>
-21.4218

> <Gold.Chemscore.ZeroCoef>
-5.4800

> <Gold.Chemscore.Hbond>
1.9369

> <Gold.Chemscore.Metal>
0.0000

> <Gold.Chemscore.Lipo>
113.3475

> <Gold.Chemscore.Internal_Hbond>
0.0000

> <Gold.Chemscore.DEClash>
1.6517

> <Gold.Chemscore.DEInternal>
0.6127

> <Gold.Chemscore.Rot>
1.4801

> <Gold.Chemscore.Internal.Correction>
   9.000000E+99

> <Gold.Chemscore.Hbonds>
donor molecule, donor type, donor heavy atom, donor atom, acceptor molecule, acceptor atom, score
      L1  H    11    36       P1  7948  0.98
      P1  H  7997  8010       L1     1  0.99

> <Gold.Chemscore.Hbond.Weighted>
-6.4693

> <Gold.Chemscore.Metal.Weighted>
-0.0000

> <Gold.Chemscore.Lipo.Weighted>
-13.2617

> <Gold.Chemscore.Internal_Hbond.Weighted>
0.0000

> <Gold.Chemscore.DEClash.Weighted>
1.6517

> <Gold.Chemscore.DEInternal.Weighted>
0.6127

> <Gold.Chemscore.Rot.Weighted>
3.7892

> <Gold.Chemscore.Internal.Correction.Weighted>
   9.000000E+99

> <Gold.Protein.RotatedTorsions>
[ 6907 6896 6895 6894 ] final   56.54 input  -60.11 | X-H torsion
[ 7974 7965 7964 7962 ] final -138.56 input  175.53 | X-H torsion
[ 8008 7997 7996 7995 ] final   45.04 input   59.86 | X-H torsion
[ 10167 10162 10161 10158 ] final   65.40 input  -65.29 | X-H torsion
[ 10718 10713 10712 10709 ] final  132.33 input   66.30 | X-H torsion
[ 10763 10752 10751 10750 ] final   71.73 input  -60.55 | X-H torsion
[ 11005 11000 10999 10996 ] final -106.60 input  -57.11 | X-H torsion

> <Gold.Protein.ActiveResidues>
 VAL166  LYS551  ARG553  GLY616  TRP617  ASP618  TYR619  PRO620  LYS621  CYS622 
 ASP623  PHE694  ASN695  SER759  ASP760  ASP761  ALA762  ILE779  LEU786  VAL792 
 PHE793  MET794  SER795  GLU796  ALA797  LYS798  CYS799  TRP800  GLU811  SER814 

> <Gold.Protein.RotatedAtoms>
  152.3646  134.6823  160.0195 H   0  0  0  0  0  0  0  0  0  0  0  0  # atno 6907 bound_to 6896
  151.7135  133.3307  159.3305 H   0  0  0  0  0  0  0  0  0  0  0  0  # atno 6908 bound_to 6896
  150.7629  134.6445  159.6300 H   0  0  0  0  0  0  0  0  0  0  0  0  # atno 6909 bound_to 6896
  144.8748  140.6421  143.5244 H   0  0  0  0  0  0  0  0  0  0  0  0  # atno 7974 bound_to 7965
  155.3293  140.3401  155.4240 H   0  0  0  0  0  0  0  0  0  0  0  0  # atno 8008 bound_to 7997
  156.1870  140.1684  156.8203 H   0  0  0  0  0  0  0  0  0  0  0  0  # atno 8009 bound_to 7997
  154.5397  140.0727  156.8472 H   0  0  0  0  0  0  0  0  0  0  0  0  # atno 8010 bound_to 7997
  140.1117  144.4812  150.6974 H   0  0  0  0  0  0  0  0  0  0  0  0  # atno 10167 bound_to 10162
  157.4881  131.1089  150.9593 H   0  0  0  0  0  0  0  0  0  0  0  0  # atno 10718 bound_to 10713
  153.0416  135.5126  154.7637 H   0  0  0  0  0  0  0  0  0  0  0  0  # atno 10763 bound_to 10752
  154.6570  135.2933  154.9917 H   0  0  0  0  0  0  0  0  0  0  0  0  # atno 10764 bound_to 10752
  154.0782  135.6668  153.4886 H   0  0  0  0  0  0  0  0  0  0  0  0  # atno 10765 bound_to 10752
  141.0996  133.8908  157.1875 H   0  0  0  0  0  0  0  0  0  0  0  0  # atno 11005 bound_to 11000
  145.4063  139.1588  143.4150 LP  0  0  0  0  0  0  0  0  0  0  0  0  # atno 17320 bound_to 7965
  146.2955  140.4164  142.8723 LP  0  0  0  0  0  0  0  0  0  0  0  0  # atno 17321 bound_to 7965
  140.6922  143.2382  151.5100 LP  0  0  0  0  0  0  0  0  0  0  0  0  # atno 17342 bound_to 10162
  139.5616  144.2144  152.1699 LP  0  0  0  0  0  0  0  0  0  0  0  0  # atno 17343 bound_to 10162
  157.0304  130.5709  149.5342 LP  0  0  0  0  0  0  0  0  0  0  0  0  # atno 17370 bound_to 10713
  156.0158  130.5252  150.8130 LP  0  0  0  0  0  0  0  0  0  0  0  0  # atno 17371 bound_to 10713
  139.9844  135.0087  156.9826 LP  0  0  0  0  0  0  0  0  0  0  0  0  # atno 17394 bound_to 11000
  140.5054  134.1055  155.7259 LP  0  0  0  0  0  0  0  0  0  0  0  0  # atno 17395 bound_to 11000

$$$$
