AV-unprocessed.smi:990|AV-procd|sdf|4326|dock3
  -GOLD-   22720 2233D 1   1.00000     0.00000
 Structure written by MMmdl.
 44 45  0  0  0  0  0  0  0  0  1 V2000
  142.6424  136.9663  152.9053 C   0  0  0  0  0  0  0  0  0  0  0  0
  143.9573  137.1853  153.0568 C   0  0  0  0  0  0  0  0  0  0  0  0
  145.0213  136.1080  152.9787 C   0  0  0  0  0  0  0  0  0  0  0  0
  146.3609  136.6711  153.0977 N   0  0  0  0  0  0  0  0  0  0  0  0
  146.7328  137.6010  153.9893 C   0  0  0  0  0  0  0  0  0  0  0  0
  145.9629  138.0983  154.8105 O   0  0  0  0  0  0  0  0  0  0  0  0
  148.0334  137.9115  153.8497 N   0  0  0  0  0  0  0  0  0  0  0  0
  148.8222  138.8270  154.5995 C   0  0  0  0  0  0  0  0  0  0  0  0
  148.2887  139.3145  155.8086 C   0  0  0  0  0  0  0  0  0  0  0  0
  149.0332  140.2343  156.5706 C   0  0  0  0  0  0  0  0  0  0  0  0
  150.2992  140.6528  156.1002 C   0  0  0  0  0  0  0  0  0  0  0  0
  151.0599  141.5754  156.8489 N   0  0  0  0  0  0  0  0  0  0  0  0
  151.5951  141.0581  158.1060 C   0  0  0  0  0  0  0  0  0  0  0  0
  152.6900  141.9852  158.6659 C   0  0  0  0  0  0  0  0  0  0  0  0
  152.2196  143.3809  158.7583 N   0  0  0  0  0  0  0  0  0  0  0  0
  151.6795  144.0194  160.2833 S   0  0  0  0  0  0  0  0  0  0  0  0
  151.8996  145.8380  160.1161 C   0  0  0  0  0  0  0  0  0  0  0  0
  150.2402  143.7403  160.4015 O   0  0  0  0  0  0  0  0  0  0  0  0
  152.6033  143.5392  161.3224 O   0  0  0  0  0  0  0  0  0  0  0  0
  151.6449  143.8911  157.4988 C   0  0  0  0  0  0  0  0  0  0  0  0
  150.5588  142.9450  156.9544 C   0  0  0  0  0  0  0  0  0  0  0  0
  150.8114  140.1894  154.9341 N   0  0  0  0  0  0  0  0  0  0  0  0
  150.0938  139.3081  154.2053 C   0  0  0  0  0  0  0  0  0  0  0  0
  142.2558  135.9755  152.7166 H   0  0  0  0  0  0  0  0  0  0  0  0
  141.9339  137.7793  152.9688 H   0  0  0  0  0  0  0  0  0  0  0  0
  144.3050  138.1919  153.2401 H   0  0  0  0  0  0  0  0  0  0  0  0
  144.8754  135.3801  153.7776 H   0  0  0  0  0  0  0  0  0  0  0  0
  144.9170  135.5672  152.0367 H   0  0  0  0  0  0  0  0  0  0  0  0
  147.0581  136.3207  152.4571 H   0  0  0  0  0  0  0  0  0  0  0  0
  148.5133  137.4578  153.0863 H   0  0  0  0  0  0  0  0  0  0  0  0
  147.3201  138.9851  156.1552 H   0  0  0  0  0  0  0  0  0  0  0  0
  148.6351  140.5972  157.5066 H   0  0  0  0  0  0  0  0  0  0  0  0
  150.7774  140.9572  158.8187 H   0  0  0  0  0  0  0  0  0  0  0  0
  152.0144  140.0608  157.9777 H   0  0  0  0  0  0  0  0  0  0  0  0
  153.0276  141.6318  159.6398 H   0  0  0  0  0  0  0  0  0  0  0  0
  153.5604  141.9580  158.0092 H   0  0  0  0  0  0  0  0  0  0  0  0
  151.5801  146.3206  161.0395 H   0  0  0  0  0  0  0  0  0  0  0  0
  151.2919  146.2121  159.2942 H   0  0  0  0  0  0  0  0  0  0  0  0
  152.9485  146.0709  159.9416 H   0  0  0  0  0  0  0  0  0  0  0  0
  151.2411  144.8930  157.6416 H   0  0  0  0  0  0  0  0  0  0  0  0
  152.4480  143.9828  156.7666 H   0  0  0  0  0  0  0  0  0  0  0  0
  150.2411  143.3003  155.9732 H   0  0  0  0  0  0  0  0  0  0  0  0
  149.6789  142.9595  157.5968 H   0  0  0  0  0  0  0  0  0  0  0  0
  150.5632  139.0107  153.2815 H   0  0  0  0  0  0  0  0  0  0  0  0
  1  2  2  0  0  0  0
  1 24  1  0  0  0  0
  1 25  1  0  0  0  0
  2  3  1  0  0  0  0
  2 26  1  0  0  0  0
  3  4  1  0  0  0  0
  3 27  1  0  0  0  0
  3 28  1  0  0  0  0
  4  5  1  0  0  0  0
  4 29  1  0  0  0  0
  5  6  2  0  0  0  0
  5  7  1  0  0  0  0
  7  8  1  0  0  0  0
  7 30  1  0  0  0  0
  8 23  1  0  0  0  0
  8  9  2  0  0  0  0
  9 10  1  0  0  0  0
  9 31  1  0  0  0  0
 10 11  2  0  0  0  0
 10 32  1  0  0  0  0
 11 12  1  0  0  0  0
 11 22  1  0  0  0  0
 12 21  1  0  0  0  0
 12 13  1  0  0  0  0
 13 14  1  0  0  0  0
 13 33  1  0  0  0  0
 13 34  1  0  0  0  0
 14 15  1  0  0  0  0
 14 35  1  0  0  0  0
 14 36  1  0  0  0  0
 15 16  1  0  0  0  0
 15 20  1  0  0  0  0
 16 17  1  0  0  0  0
 16 18  2  0  0  0  0
 16 19  2  0  0  0  0
 17 37  1  0  0  0  0
 17 38  1  0  0  0  0
 17 39  1  0  0  0  0
 20 21  1  0  0  0  0
 20 40  1  0  0  0  0
 20 41  1  0  0  0  0
 21 42  1  0  0  0  0
 21 43  1  0  0  0  0
 22 23  2  0  0  0  0
 23 44  1  0  0  0  0
M  END
> <s_m_source_file>
AV-unprocessed.smi

> <i_m_source_file_index>
990

> <i_lp_mmshare_version>
43012

> <i_f3d_flags>
0

> <s_epik_input>
W0NIMl09W0NIXVtDSDJdW05IXUMoPU8pW05IXWMxW2NIXVtjSF1jKG5bY0hdMSlOMltDSDJdW0NIMl1OKFMoPU8pKD1PKVtDSDNdKVtDSDJdW0NIMl0y

> <s_epik_cmdline>
J2VwaWtfcHl0aG9uJywgJy1waCcsICc3LjAnLCAnLXRuJywgJzgnLCAnLW1hJywgJzIwMCcsICctbWV0YWxfYmluZGluZycsICctaW1hZScsICc8aW5maWxlLm1hZT4nLCAnLW9tYWUnLCAnPG91dGZpbGUubWFlPic=

> <r_lp_tautomer_probability>
1

> <r_epik_Ionization_Penalty>
0.151655

> <r_epik_Ionization_Penalty_Charging>
0

> <r_epik_Ionization_Penalty_Neutral>
0.151655

> <r_epik_State_Penalty>
0.140906

> <r_epik_Charging_Adjusted_Penalty>
0.140906

> <i_epik_Tot_Q>
0

> <i_epik_Tot_abs_Q>
0

> <r_epik_Metal_State_Penalty>
0.111889

> <b_epik_Metal_Only>
0

> <s_lp_Force_Field>
OPLS_2005

> <r_lp_Energy>
17.3553

> <b_lp_Chiralities_Consistent>
1

> <s_lp_Variant>
AV-unprocessed.smi:990-1

> <Gold.Version>
5.8.1

> <Gold.Id.Protein>
6NUR|6NUR_protein|mol2

> <Gold.PLP.Fitness>
44.8138

> <Gold.PLP.PLP>
-35.0358

> <Gold.PLP.part.hbond>
-4.0000

> <Gold.PLP.part.metal>
0.0000

> <Gold.PLP.part.buried>
-2.0564

> <Gold.PLP.part.nonpolar>
-28.8418

> <Gold.PLP.part.repulsive>
0.4173

> <Gold.PLP.ligand.clash>
0.0000

> <Gold.PLP.ligand.torsion>
1.4444

> <Gold.PLP.Chemscore.Hbond>
2.7021

> <Gold.PLP.Chemscore.CHOScore>
0.7297

> <Gold.PLP.Chemscore.Metal>
0.0000

> <Gold.Chemscore.Hbonds>
donor molecule, donor type, donor heavy atom, donor atom, acceptor molecule, acceptor atom, score
      L1  H     4    29       P1  7948  1.00
      L1  H     7    30       P1  7948  1.00
      P1  H  7989  7998       L1    22  0.70
      L1  C    23    44       P1  7957  0.74

> <Gold.PLP.Chemscore.Internal.Correction>
2.3714

> <Gold.Rescore>
     Score         DG    S(hbond)    S(metal)    S(lipo)     H(rot)  DE(clash)    DE(int)     intcor
     12.43     -17.73       2.02        0.00      78.26       1.43       1.23       4.06       ----

> <Gold.Chemscore.Fitness>
12.4324

> <Gold.Chemscore.DG>
-17.7281

> <Gold.Chemscore.ZeroCoef>
-5.4800

> <Gold.Chemscore.Hbond>
2.0191

> <Gold.Chemscore.Metal>
0.0000

> <Gold.Chemscore.Lipo>
78.2634

> <Gold.Chemscore.Internal_Hbond>
0.0000

> <Gold.Chemscore.DEClash>
1.2311

> <Gold.Chemscore.DEInternal>
4.0646

> <Gold.Chemscore.Rot>
1.4268

> <Gold.Chemscore.Internal.Correction>
   9.000000E+99

> <Gold.Chemscore.Hbonds>
donor molecule, donor type, donor heavy atom, donor atom, acceptor molecule, acceptor atom, score
      L1  H     4    29       P1  7948  0.93
      L1  H     7    30       P1  7948  1.00
      P1  H  6933  6944       L1    18  0.01
      P1  H  7989  7998       L1    22  0.07

> <Gold.Chemscore.Hbond.Weighted>
-6.7439

> <Gold.Chemscore.Metal.Weighted>
-0.0000

> <Gold.Chemscore.Lipo.Weighted>
-9.1568

> <Gold.Chemscore.Internal_Hbond.Weighted>
0.0000

> <Gold.Chemscore.DEClash.Weighted>
1.2311

> <Gold.Chemscore.DEInternal.Weighted>
4.0646

> <Gold.Chemscore.Rot.Weighted>
3.6526

> <Gold.Chemscore.Internal.Correction.Weighted>
   9.000000E+99

> <Gold.Protein.RotatedTorsions>
[ 6907 6896 6895 6894 ] final   32.29 input  -60.11 | X-H torsion
[ 7974 7965 7964 7962 ] final -175.61 input  175.53 | X-H torsion
[ 8008 7997 7996 7995 ] final -132.86 input   59.86 | X-H torsion
[ 10167 10162 10161 10158 ] final  -34.09 input  -65.29 | X-H torsion
[ 10718 10713 10712 10709 ] final  -54.43 input   66.30 | X-H torsion
[ 10763 10752 10751 10750 ] final  104.94 input  -60.55 | X-H torsion
[ 11005 11000 10999 10996 ] final -143.34 input  -57.11 | X-H torsion

> <Gold.Protein.ActiveResidues>
 VAL166  LYS551  ARG553  GLY616  TRP617  ASP618  TYR619  PRO620  LYS621  CYS622 
 ASP623  PHE694  ASN695  SER759  ASP760  ASP761  ALA762  ILE779  LEU786  VAL792 
 PHE793  MET794  SER795  GLU796  ALA797  LYS798  CYS799  TRP800  GLU811  SER814 

> <Gold.Protein.RotatedAtoms>
  152.0724  134.9525  160.0574 H   0  0  0  0  0  0  0  0  0  0  0  0  # atno 6907 bound_to 6896
  152.0846  133.4165  159.4524 H   0  0  0  0  0  0  0  0  0  0  0  0  # atno 6908 bound_to 6896
  150.6836  134.2862  159.4691 H   0  0  0  0  0  0  0  0  0  0  0  0  # atno 6909 bound_to 6896
  144.7128  140.1294  143.6400 H   0  0  0  0  0  0  0  0  0  0  0  0  # atno 7974 bound_to 7965
  155.3359  140.0469  157.3044 H   0  0  0  0  0  0  0  0  0  0  0  0  # atno 8008 bound_to 7997
  154.5303  140.2255  155.8781 H   0  0  0  0  0  0  0  0  0  0  0  0  # atno 8009 bound_to 7997
  156.1782  140.3080  155.9105 H   0  0  0  0  0  0  0  0  0  0  0  0  # atno 8010 bound_to 7997
  140.7192  143.3573  151.2034 H   0  0  0  0  0  0  0  0  0  0  0  0  # atno 10167 bound_to 10162
  156.1451  130.4153  150.0037 H   0  0  0  0  0  0  0  0  0  0  0  0  # atno 10718 bound_to 10713
  153.3727  135.3926  155.1800 H   0  0  0  0  0  0  0  0  0  0  0  0  # atno 10763 bound_to 10752
  154.8696  135.3706  154.4957 H   0  0  0  0  0  0  0  0  0  0  0  0  # atno 10764 bound_to 10752
  153.5426  135.7084  153.5690 H   0  0  0  0  0  0  0  0  0  0  0  0  # atno 10765 bound_to 10752
  140.8134  134.2717  157.4931 H   0  0  0  0  0  0  0  0  0  0  0  0  # atno 11005 bound_to 11000
  145.9300  139.2600  143.1331 LP  0  0  0  0  0  0  0  0  0  0  0  0  # atno 17320 bound_to 7965
  145.9532  140.8892  143.0248 LP  0  0  0  0  0  0  0  0  0  0  0  0  # atno 17321 bound_to 7965
  139.7117  143.9366  152.2950 LP  0  0  0  0  0  0  0  0  0  0  0  0  # atno 17342 bound_to 10162
  139.9093  144.6866  150.8579 LP  0  0  0  0  0  0  0  0  0  0  0  0  # atno 17343 bound_to 10162
  156.7911  130.9256  151.3646 LP  0  0  0  0  0  0  0  0  0  0  0  0  # atno 17370 bound_to 10713
  157.6610  130.8966  149.9829 LP  0  0  0  0  0  0  0  0  0  0  0  0  # atno 17371 bound_to 10713
  139.8712  134.9496  156.4030 LP  0  0  0  0  0  0  0  0  0  0  0  0  # atno 17394 bound_to 11000
  140.9174  133.7669  155.9864 LP  0  0  0  0  0  0  0  0  0  0  0  0  # atno 17395 bound_to 11000

$$$$
