AV-unprocessed.smi:2258|AV-procd|sdf|9129|dock8
  -GOLD-   2272012333D 1   1.00000     0.00000
 Structure written by MMmdl.
 40 42  0  0  0  0  0  0  0  0  1 V2000
  153.9094  141.5834  160.6605 C   0  0  0  0  0  0  0  0  0  0  0  0
  152.8335  142.4777  160.2318 N   0  0  0  0  0  0  0  0  0  0  0  0
  152.4413  143.5118  161.0931 C   0  0  0  0  0  0  0  0  0  0  0  0
  151.4596  144.3619  160.7427 C   0  0  0  0  0  0  0  0  0  0  0  0
  150.8082  144.2348  159.5160 N   0  0  0  0  0  0  0  0  0  0  0  0
  151.1126  143.2903  158.6696 C   0  0  0  0  0  0  0  0  0  0  0  0
  150.4889  143.1360  157.4194 N   0  0  0  0  0  0  0  0  0  0  0  0
  150.1427  142.0226  156.7312 C   0  0  0  0  0  0  0  0  0  0  0  0
  150.3225  140.9071  157.2162 O   0  0  0  0  0  0  0  0  0  0  0  0
  149.5481  142.2032  155.5376 N   0  0  0  0  0  0  0  0  0  0  0  0
  149.1013  141.1497  154.6302 C   0  0  0  0  0  0  0  0  0  0  0  0
  147.5936  141.2158  154.3260 C   0  0  0  0  0  0  0  0  0  0  0  0
  147.2403  140.0134  153.4381 C   0  0  0  0  0  0  0  0  0  0  0  0
  146.3532  138.8945  153.9250 C   0  0  0  0  0  0  0  0  0  0  0  0
  147.8107  138.6231  153.6100 C   0  0  0  0  0  0  0  0  0  0  0  0
  146.6639  141.4170  155.5442 C   0  0  0  0  0  0  0  0  0  0  0  0
  145.8595  142.4448  154.7531 C   0  0  0  0  0  0  0  0  0  0  0  0
  147.0950  142.6091  153.8700 C   0  0  0  0  0  0  0  0  0  0  0  0
  152.2336  142.3074  159.0223 C   0  0  0  0  0  0  0  0  0  0  0  0
  152.5504  141.4183  158.2296 O   0  0  0  0  0  0  0  0  0  0  0  0
  154.2576  141.8038  161.6702 H   0  0  0  0  0  0  0  0  0  0  0  0
  154.7662  141.6696  159.9911 H   0  0  0  0  0  0  0  0  0  0  0  0
  153.5734  140.5454  160.6516 H   0  0  0  0  0  0  0  0  0  0  0  0
  152.9745  143.5696  162.0309 H   0  0  0  0  0  0  0  0  0  0  0  0
  151.1359  145.1684  161.3842 H   0  0  0  0  0  0  0  0  0  0  0  0
  150.2050  143.9953  156.9712 H   0  0  0  0  0  0  0  0  0  0  0  0
  149.4204  143.1538  155.2209 H   0  0  0  0  0  0  0  0  0  0  0  0
  149.6858  141.1818  153.7092 H   0  0  0  0  0  0  0  0  0  0  0  0
  149.3469  140.1941  155.0942 H   0  0  0  0  0  0  0  0  0  0  0  0
  147.0949  140.2958  152.3969 H   0  0  0  0  0  0  0  0  0  0  0  0
  146.0580  138.8990  154.9721 H   0  0  0  0  0  0  0  0  0  0  0  0
  145.6066  138.5114  153.2324 H   0  0  0  0  0  0  0  0  0  0  0  0
  148.0291  138.0580  152.7062 H   0  0  0  0  0  0  0  0  0  0  0  0
  148.4653  138.4122  154.4517 H   0  0  0  0  0  0  0  0  0  0  0  0
  146.0998  140.5320  155.8401 H   0  0  0  0  0  0  0  0  0  0  0  0
  147.1693  141.8656  156.4010 H   0  0  0  0  0  0  0  0  0  0  0  0
  145.0061  142.0096  154.2326 H   0  0  0  0  0  0  0  0  0  0  0  0
  145.5797  143.3357  155.3157 H   0  0  0  0  0  0  0  0  0  0  0  0
  147.7354  143.4221  154.2169 H   0  0  0  0  0  0  0  0  0  0  0  0
  146.8860  142.7178  152.8062 H   0  0  0  0  0  0  0  0  0  0  0  0
  1  2  1  0  0  0  0
  1 21  1  0  0  0  0
  1 22  1  0  0  0  0
  1 23  1  0  0  0  0
  2 19  1  0  0  0  0
  2  3  1  0  0  0  0
  3  4  2  0  0  0  0
  3 24  1  0  0  0  0
  4  5  1  0  0  0  0
  4 25  1  0  0  0  0
  5  6  2  0  0  0  0
  6  7  1  0  0  0  0
  6 19  1  0  0  0  0
  7  8  1  0  0  0  0
  7 26  1  0  0  0  0
  8  9  2  0  0  0  0
  8 10  1  0  0  0  0
 10 11  1  0  0  0  0
 10 27  1  0  0  0  0
 11 12  1  0  0  0  0
 11 28  1  0  0  0  0
 11 29  1  0  0  0  0
 12 18  1  0  0  0  0
 12 13  1  0  0  0  0
 12 16  1  0  0  0  0
 13 15  1  0  0  0  0
 13 14  1  0  0  0  0
 13 30  1  0  0  0  0
 14 15  1  0  0  0  0
 14 31  1  0  0  0  0
 14 32  1  0  0  0  0
 15 33  1  0  0  0  0
 15 34  1  0  0  0  0
 16 17  1  0  0  0  0
 16 35  1  0  0  0  0
 16 36  1  0  0  0  0
 17 18  1  0  0  0  0
 17 37  1  0  0  0  0
 17 38  1  0  0  0  0
 18 39  1  0  0  0  0
 18 40  1  0  0  0  0
 19 20  2  0  0  0  0
M  END
> <s_m_source_file>
AV-unprocessed.smi

> <i_m_source_file_index>
2258

> <i_lp_mmshare_version>
43012

> <i_f3d_flags>
0

> <s_epik_input>
W0NIM11uMVtjSF1bY0hdbmMoYzE9TylbTkhdQyg9TylbTkhdW0NIMl1DMihbQ0hdM1tDSDJdW0NIMl0zKVtDSDJdW0NIMl1bQ0gyXTI=

> <s_epik_cmdline>
J2VwaWtfcHl0aG9uJywgJy1waCcsICc3LjAnLCAnLXRuJywgJzgnLCAnLW1hJywgJzIwMCcsICctbWV0YWxfYmluZGluZycsICctaW1hZScsICc8aW5maWxlLm1hZT4nLCAnLW9tYWUnLCAnPG91dGZpbGUubWFlPic=

> <r_lp_tautomer_probability>
1

> <r_epik_Ionization_Penalty>
0.000665538

> <r_epik_Ionization_Penalty_Charging>
1.64466e-07

> <r_epik_Ionization_Penalty_Neutral>
0.000665373

> <r_epik_State_Penalty>
-0

> <r_epik_Charging_Adjusted_Penalty>
1.64466e-07

> <i_epik_Tot_Q>
0

> <i_epik_Tot_abs_Q>
0

> <r_epik_Metal_State_Penalty>
-0

> <b_epik_Metal_Only>
0

> <s_lp_Force_Field>
OPLS_2005

> <r_lp_Energy>
52.1357

> <b_lp_Chiralities_Consistent>
1

> <s_lp_Variant>
AV-unprocessed.smi:2258-1

> <Gold.Version>
5.8.1

> <Gold.Id.Protein>
6NUR|6NUR_protein|mol2

> <Gold.PLP.Fitness>
43.4467

> <Gold.PLP.PLP>
-39.9030

> <Gold.PLP.part.hbond>
-2.0000

> <Gold.PLP.part.metal>
0.0000

> <Gold.PLP.part.buried>
-5.1725

> <Gold.PLP.part.nonpolar>
-33.1221

> <Gold.PLP.part.repulsive>
0.3158

> <Gold.PLP.ligand.clash>
0.0000

> <Gold.PLP.ligand.torsion>
1.7083

> <Gold.PLP.Chemscore.Hbond>
1.7600

> <Gold.PLP.Chemscore.CHOScore>
0.0000

> <Gold.PLP.Chemscore.Metal>
0.0000

> <Gold.Chemscore.Hbonds>
donor molecule, donor type, donor heavy atom, donor atom, acceptor molecule, acceptor atom, score
      L1  H     7    26       P1  8028  0.86
      L1  H    10    27       P1  8028  0.93

> <Gold.PLP.Chemscore.Internal.Correction>
1.6803

> <Gold.Rescore>
     Score         DG    S(hbond)    S(metal)    S(lipo)     H(rot)  DE(clash)    DE(int)     intcor
     10.97     -16.65       1.82        0.00      75.85       1.47       0.00       5.68       ----

> <Gold.Chemscore.Fitness>
10.9738

> <Gold.Chemscore.DG>
-16.6535

> <Gold.Chemscore.ZeroCoef>
-5.4800

> <Gold.Chemscore.Hbond>
1.8184

> <Gold.Chemscore.Metal>
0.0000

> <Gold.Chemscore.Lipo>
75.8485

> <Gold.Chemscore.Internal_Hbond>
0.0000

> <Gold.Chemscore.DEClash>
0.0038

> <Gold.Chemscore.DEInternal>
5.6759

> <Gold.Chemscore.Rot>
1.4742

> <Gold.Chemscore.Internal.Correction>
   9.000000E+99

> <Gold.Chemscore.Hbonds>
donor molecule, donor type, donor heavy atom, donor atom, acceptor molecule, acceptor atom, score
      L1  H     7    26       P1  8028  0.80
      L1  H    10    27       P1  8028  0.90

> <Gold.Chemscore.Hbond.Weighted>
-6.0733

> <Gold.Chemscore.Metal.Weighted>
-0.0000

> <Gold.Chemscore.Lipo.Weighted>
-8.8743

> <Gold.Chemscore.Internal_Hbond.Weighted>
0.0000

> <Gold.Chemscore.DEClash.Weighted>
0.0038

> <Gold.Chemscore.DEInternal.Weighted>
5.6759

> <Gold.Chemscore.Rot.Weighted>
3.7740

> <Gold.Chemscore.Internal.Correction.Weighted>
   9.000000E+99

> <Gold.Protein.RotatedTorsions>
[ 6907 6896 6895 6894 ] final  103.46 input  -60.11 | X-H torsion
[ 7974 7965 7964 7962 ] final  124.60 input  175.53 | X-H torsion
[ 8008 7997 7996 7995 ] final    3.09 input   59.86 | X-H torsion
[ 10167 10162 10161 10158 ] final -102.31 input  -65.29 | X-H torsion
[ 10718 10713 10712 10709 ] final -176.80 input   66.30 | X-H torsion
[ 10763 10752 10751 10750 ] final  -11.01 input  -60.55 | X-H torsion
[ 11005 11000 10999 10996 ] final   88.25 input  -57.11 | X-H torsion

> <Gold.Protein.ActiveResidues>
 VAL166  LYS551  ARG553  GLY616  TRP617  ASP618  TYR619  PRO620  LYS621  CYS622 
 ASP623  PHE694  ASN695  SER759  ASP760  ASP761  ALA762  ILE779  LEU786  VAL792 
 PHE793  MET794  SER795  GLU796  ALA797  LYS798  CYS799  TRP800  GLU811  SER814 

> <Gold.Protein.RotatedAtoms>
  152.5294  133.9822  159.7811 H   0  0  0  0  0  0  0  0  0  0  0  0  # atno 6907 bound_to 6896
  151.0074  133.5990  159.2694 H   0  0  0  0  0  0  0  0  0  0  0  0  # atno 6908 bound_to 6896
  151.3077  135.0792  159.9314 H   0  0  0  0  0  0  0  0  0  0  0  0  # atno 6909 bound_to 6896
  145.0825  139.3646  143.4902 H   0  0  0  0  0  0  0  0  0  0  0  0  # atno 7974 bound_to 7965
  154.6994  140.2670  155.6734 H   0  0  0  0  0  0  0  0  0  0  0  0  # atno 8008 bound_to 7997
  156.2760  140.2775  156.1523 H   0  0  0  0  0  0  0  0  0  0  0  0  # atno 8009 bound_to 7997
  155.0785  140.0372  157.2621 H   0  0  0  0  0  0  0  0  0  0  0  0  # atno 8010 bound_to 7997
  140.2320  143.3600  152.0878 H   0  0  0  0  0  0  0  0  0  0  0  0  # atno 10167 bound_to 10162
  156.8200  130.9616  151.3112 H   0  0  0  0  0  0  0  0  0  0  0  0  # atno 10718 bound_to 10713
  153.4776  135.7017  153.5957 H   0  0  0  0  0  0  0  0  0  0  0  0  # atno 10763 bound_to 10752
  153.4184  135.3831  155.2096 H   0  0  0  0  0  0  0  0  0  0  0  0  # atno 10764 bound_to 10752
  154.8723  135.3921  154.4221 H   0  0  0  0  0  0  0  0  0  0  0  0  # atno 10765 bound_to 10752
  139.8901  134.8475  156.2974 H   0  0  0  0  0  0  0  0  0  0  0  0  # atno 11005 bound_to 11000
  146.3531  140.0622  142.8628 LP  0  0  0  0  0  0  0  0  0  0  0  0  # atno 17320 bound_to 7965
  145.1161  140.9434  143.4628 LP  0  0  0  0  0  0  0  0  0  0  0  0  # atno 17321 bound_to 7965
  139.5106  144.6888  151.5816 LP  0  0  0  0  0  0  0  0  0  0  0  0  # atno 17342 bound_to 10162
  140.6178  143.9316  150.6502 LP  0  0  0  0  0  0  0  0  0  0  0  0  # atno 17343 bound_to 10162
  157.6462  130.8846  149.9542 LP  0  0  0  0  0  0  0  0  0  0  0  0  # atno 17370 bound_to 10713
  156.0994  130.3657  150.0245 LP  0  0  0  0  0  0  0  0  0  0  0  0  # atno 17371 bound_to 10713
  140.9936  133.7194  156.0851 LP  0  0  0  0  0  0  0  0  0  0  0  0  # atno 17394 bound_to 11000
  140.7592  134.3958  157.5528 LP  0  0  0  0  0  0  0  0  0  0  0  0  # atno 17395 bound_to 11000

$$$$
