AV-unprocessed.smi:203|AV-procd|sdf|1590|dock2
  -GOLD-   2262019483D 1   1.00000     0.00000
 Structure written by MMmdl.
 57 61  0  0  0  0  0  0  0  0  1 V2000
  153.4763  136.7409  159.7338 O   0  0  0  0  0  0  0  0  0  0  0  0
  153.0185  137.4466  158.8383 C   0  0  0  0  0  0  0  0  0  0  0  0
  151.7977  138.3333  159.0113 C   0  0  0  0  0  0  0  0  0  0  0  0
  151.7617  139.1613  157.7107 C   0  0  1  0  0  0  0  0  0  0  0  0
  152.0563  140.6843  157.9012 C   0  0  2  0  0  0  0  0  0  0  0  0
  152.9151  140.9811  159.1586 C   0  0  0  0  0  0  0  0  0  0  0  0
  153.2015  142.4816  159.3065 C   0  0  0  0  0  0  0  0  0  0  0  0
  151.8850  143.2666  159.3249 C   0  0  0  0  0  0  0  0  0  0  0  0
  151.0566  142.9524  158.0718 C   0  0  0  0  0  0  0  0  0  0  0  0
  150.8375  141.5140  157.9284 N   0  0  0  0  0  0  0  0  0  0  0  0
  149.9293  141.2629  156.9602 C   0  0  0  0  0  0  0  0  0  0  0  0
  150.3991  141.0845  155.7014 N   0  0  0  0  0  0  0  0  0  0  0  0
  149.5436  140.8979  154.6919 C   0  0  0  0  0  0  0  0  0  0  0  0
  148.2094  140.8643  154.7233 N   0  0  0  0  0  0  0  0  0  0  0  0
  147.7385  141.0292  155.9930 C   0  0  0  0  0  0  0  0  0  0  0  0
  148.5218  141.2196  157.1641 C   0  0  0  0  0  0  0  0  0  0  0  0
  147.6952  141.3511  158.2740 N   0  0  0  0  0  0  0  0  0  0  0  0
  146.4891  141.2734  157.7819 C   0  0  0  0  0  0  0  0  0  0  0  0
  146.4242  141.1033  156.4180 N   0  0  0  0  0  0  0  0  0  0  0  0
  145.2234  141.0591  155.6055 C   0  0  0  0  0  0  0  0  0  0  0  0
  144.2739  142.2447  155.8884 C   0  0  2  0  0  0  0  0  0  0  0  0
  142.9761  141.8488  155.4926 O   0  0  0  0  0  0  0  0  0  0  0  0
  144.6528  143.5570  155.1619 C   0  0  1  0  0  0  0  0  0  0  0  0
  145.0943  143.3851  153.7065 C   0  0  0  0  0  0  0  0  0  0  0  0
  144.7980  144.7373  153.0737 C   0  0  0  0  0  0  0  0  0  0  0  0
  143.8787  145.4266  154.0841 C   0  0  0  0  0  0  0  0  0  0  0  0
  143.5219  144.4020  154.9977 O   0  0  0  0  0  0  0  0  0  0  0  0
  152.7543  138.4582  156.7601 C   0  0  0  0  0  0  0  0  0  0  0  0
  153.5019  137.5448  157.6018 N   0  0  0  0  0  0  0  0  0  0  0  0
  150.9086  137.7086  159.1026 H   0  0  0  0  0  0  0  0  0  0  0  0
  151.8738  138.9438  159.9111 H   0  0  0  0  0  0  0  0  0  0  0  0
  150.7768  139.0436  157.2579 H   0  0  0  0  0  0  0  0  0  0  0  0
  152.6386  141.0089  157.0381 H   0  0  0  0  0  0  0  0  0  0  0  0
  152.4048  140.6324  160.0567 H   0  0  0  0  0  0  0  0  0  0  0  0
  153.8621  140.4443  159.1198 H   0  0  0  0  0  0  0  0  0  0  0  0
  153.7649  142.6698  160.2207 H   0  0  0  0  0  0  0  0  0  0  0  0
  153.8241  142.8220  158.4781 H   0  0  0  0  0  0  0  0  0  0  0  0
  151.3136  143.0071  160.2172 H   0  0  0  0  0  0  0  0  0  0  0  0
  152.0853  144.3368  159.3823 H   0  0  0  0  0  0  0  0  0  0  0  0
  150.0983  143.4713  158.1291 H   0  0  0  0  0  0  0  0  0  0  0  0
  151.5705  143.3307  157.1868 H   0  0  0  0  0  0  0  0  0  0  0  0
  149.9919  140.7690  153.7177 H   0  0  0  0  0  0  0  0  0  0  0  0
  145.6079  141.3659  158.3999 H   0  0  0  0  0  0  0  0  0  0  0  0
  145.5196  141.0533  154.5556 H   0  0  0  0  0  0  0  0  0  0  0  0
  144.7169  140.1112  155.7912 H   0  0  0  0  0  0  0  0  0  0  0  0
  144.2442  142.4324  156.9625 H   0  0  0  0  0  0  0  0  0  0  0  0
  142.7647  142.2808  154.6792 H   0  0  0  0  0  0  0  0  0  0  0  0
  145.4241  144.0913  155.7204 H   0  0  0  0  0  0  0  0  0  0  0  0
  146.1424  143.0981  153.6171 H   0  0  0  0  0  0  0  0  0  0  0  0
  144.4933  142.6160  153.2194 H   0  0  0  0  0  0  0  0  0  0  0  0
  145.7077  145.3190  152.9223 H   0  0  0  0  0  0  0  0  0  0  0  0
  144.3121  144.6139  152.1052 H   0  0  0  0  0  0  0  0  0  0  0  0
  144.4107  146.2144  154.6193 H   0  0  0  0  0  0  0  0  0  0  0  0
  142.9953  145.8658  153.6205 H   0  0  0  0  0  0  0  0  0  0  0  0
  152.2227  137.8796  156.0036 H   0  0  0  0  0  0  0  0  0  0  0  0
  153.4160  139.1489  156.2376 H   0  0  0  0  0  0  0  0  0  0  0  0
  154.3109  137.0391  157.2705 H   0  0  0  0  0  0  0  0  0  0  0  0
  1  2  2  0  0  0  0
  2 29  1  0  0  0  0
  2  3  1  0  0  0  0
  3  4  1  0  0  0  0
  3 30  1  0  0  0  0
  3 31  1  0  0  0  0
  4  5  1  0  0  0  0
  4 28  1  0  0  0  0
  4 32  1  0  0  0  0
  5 10  1  0  0  0  0
  5  6  1  0  0  0  0
  5 33  1  0  0  0  0
  6  7  1  0  0  0  0
  6 34  1  0  0  0  0
  6 35  1  0  0  0  0
  7  8  1  0  0  0  0
  7 36  1  0  0  0  0
  7 37  1  0  0  0  0
  8  9  1  0  0  0  0
  8 38  1  0  0  0  0
  8 39  1  0  0  0  0
  9 10  1  0  0  0  0
  9 40  1  0  0  0  0
  9 41  1  0  0  0  0
 10 11  1  0  0  0  0
 11 16  1  0  0  0  0
 11 12  2  0  0  0  0
 12 13  1  0  0  0  0
 13 14  2  0  0  0  0
 13 42  1  0  0  0  0
 14 15  1  0  0  0  0
 15 19  1  0  0  0  0
 15 16  2  0  0  0  0
 16 17  1  0  0  0  0
 17 18  2  0  0  0  0
 18 19  1  0  0  0  0
 18 43  1  0  0  0  0
 19 20  1  0  0  0  0
 20 21  1  0  0  0  0
 20 44  1  0  0  0  0
 20 45  1  0  0  0  0
 21 22  1  0  0  0  0
 21 23  1  0  0  0  0
 21 46  1  0  0  0  0
 22 47  1  0  0  0  0
 23 27  1  0  0  0  0
 23 24  1  0  0  0  0
 23 48  1  0  0  0  0
 24 25  1  0  0  0  0
 24 49  1  0  0  0  0
 24 50  1  0  0  0  0
 25 26  1  0  0  0  0
 25 51  1  0  0  0  0
 25 52  1  0  0  0  0
 26 27  1  0  0  0  0
 26 53  1  0  0  0  0
 26 54  1  0  0  0  0
 28 29  1  0  0  0  0
 28 55  1  0  0  0  0
 28 56  1  0  0  0  0
 29 57  1  0  0  0  0
M  END
> <s_m_source_file>
AV-unprocessed.smi

> <i_m_source_file_index>
203

> <i_lp_mmshare_version>
43012

> <i_f3d_flags>
0

> <s_epik_input>
Tz1DMVtDSDJdW0NASF0oW0NIMl1bTkhdMSlbQ0BASF0yW0NIMl1bQ0gyXVtDSDJdW0NIMl1OMmMobltjSF1uMyljKGMzNCluW2NIXW40W0NIMl1bQ0BIXShbT0hdKVtDQEBIXTVbQ0gyXVtDSDJdW0NIMl1PNQ==

> <s_epik_cmdline>
J2VwaWtfcHl0aG9uJywgJy1waCcsICc3LjAnLCAnLXRuJywgJzgnLCAnLW1hJywgJzIwMCcsICctbWV0YWxfYmluZGluZycsICctaW1hZScsICc8aW5maWxlLm1hZT4nLCAnLW9tYWUnLCAnPG91dGZpbGUubWFlPic=

> <r_lp_tautomer_probability>
1

> <r_epik_Ionization_Penalty>
0.00175146

> <r_epik_Ionization_Penalty_Charging>
0

> <r_epik_Ionization_Penalty_Neutral>
0.00175146

> <r_epik_State_Penalty>
0.00109045

> <r_epik_Charging_Adjusted_Penalty>
0.00109045

> <i_epik_Tot_Q>
0

> <i_epik_Tot_abs_Q>
0

> <r_epik_Metal_State_Penalty>
-0

> <b_epik_Metal_Only>
0

> <s_lp_Force_Field>
OPLS_2005

> <r_lp_Energy>
55.9411

> <b_lp_Chiralities_Consistent>
1

> <s_lp_Variant>
AV-unprocessed.smi:203-9

> <Gold.Version>
5.8.1

> <Gold.Id.Protein>
6NUR|6NUR_protein|mol2

> <Gold.PLP.Fitness>
46.7584

> <Gold.PLP.PLP>
-43.5346

> <Gold.PLP.part.hbond>
-3.5126

> <Gold.PLP.part.metal>
0.0000

> <Gold.PLP.part.buried>
-4.8336

> <Gold.PLP.part.nonpolar>
-35.7562

> <Gold.PLP.part.repulsive>
0.5189

> <Gold.PLP.ligand.clash>
0.0000

> <Gold.PLP.ligand.torsion>
2.3629

> <Gold.PLP.Chemscore.Hbond>
1.8850

> <Gold.PLP.Chemscore.CHOScore>
0.6304

> <Gold.PLP.Chemscore.Metal>
0.0000

> <Gold.Chemscore.Hbonds>
donor molecule, donor type, donor heavy atom, donor atom, acceptor molecule, acceptor atom, score
      P1  H  6896  6908       L1     1  0.39
      L1  C    13    42       P1  7957  0.63

> <Gold.PLP.Chemscore.Internal.Correction>
0.4034

> <Gold.Rescore>
     Score         DG    S(hbond)    S(metal)    S(lipo)     H(rot)  DE(clash)    DE(int)     intcor
     11.82     -14.72       1.40        0.00      98.41       2.72       0.49       2.41       ----

> <Gold.Chemscore.Fitness>
11.8230

> <Gold.Chemscore.DG>
-14.7226

> <Gold.Chemscore.ZeroCoef>
-5.4800

> <Gold.Chemscore.Hbond>
1.4024

> <Gold.Chemscore.Metal>
0.0000

> <Gold.Chemscore.Lipo>
98.4119

> <Gold.Chemscore.Internal_Hbond>
0.0000

> <Gold.Chemscore.DEClash>
0.4937

> <Gold.Chemscore.DEInternal>
2.4059

> <Gold.Chemscore.Rot>
2.7171

> <Gold.Chemscore.Internal.Correction>
   9.000000E+99

> <Gold.Chemscore.Hbonds>
donor molecule, donor type, donor heavy atom, donor atom, acceptor molecule, acceptor atom, score
      P1  H  6896  6908       L1     1  0.34

> <Gold.Chemscore.Hbond.Weighted>
-4.6841

> <Gold.Chemscore.Metal.Weighted>
-0.0000

> <Gold.Chemscore.Lipo.Weighted>
-11.5142

> <Gold.Chemscore.Internal_Hbond.Weighted>
0.0000

> <Gold.Chemscore.DEClash.Weighted>
0.4937

> <Gold.Chemscore.DEInternal.Weighted>
2.4059

> <Gold.Chemscore.Rot.Weighted>
6.9557

> <Gold.Chemscore.Internal.Correction.Weighted>
   9.000000E+99

> <Gold.Protein.RotatedTorsions>
[ 6907 6896 6895 6894 ] final  -66.35 input  -60.11 | X-H torsion
[ 7974 7965 7964 7962 ] final  130.91 input  175.53 | X-H torsion
[ 8008 7997 7996 7995 ] final  173.23 input   59.86 | X-H torsion
[ 10167 10162 10161 10158 ] final   96.40 input  -65.29 | X-H torsion
[ 10718 10713 10712 10709 ] final  109.22 input   66.30 | X-H torsion
[ 10763 10752 10751 10750 ] final -122.23 input  -60.55 | X-H torsion
[ 11005 11000 10999 10996 ] final -153.42 input  -57.11 | X-H torsion

> <Gold.Protein.ActiveResidues>
 VAL166  LYS551  ARG553  GLY616  TRP617  ASP618  TYR619  PRO620  LYS621  CYS622 
 ASP623  PHE694  ASN695  SER759  ASP760  ASP761  ALA762  ILE779  LEU786  VAL792 
 PHE793  MET794  SER795  GLU796  ALA797  LYS798  CYS799  TRP800  GLU811  SER814 

> <Gold.Protein.RotatedAtoms>
  150.7470  134.6033  159.6047 H   0  0  0  0  0  0  0  0  0  0  0  0  # atno 6907 bound_to 6896
  152.3388  134.7159  160.0278 H   0  0  0  0  0  0  0  0  0  0  0  0  # atno 6908 bound_to 6896
  151.7619  133.3298  159.3456 H   0  0  0  0  0  0  0  0  0  0  0  0  # atno 6909 bound_to 6896
  145.0129  139.4204  143.5236 H   0  0  0  0  0  0  0  0  0  0  0  0  # atno 7974 bound_to 7965
  156.1096  140.1465  156.9356 H   0  0  0  0  0  0  0  0  0  0  0  0  # atno 8008 bound_to 7997
  154.4758  140.0895  156.7301 H   0  0  0  0  0  0  0  0  0  0  0  0  # atno 8009 bound_to 7997
  155.4619  140.3438  155.4316 H   0  0  0  0  0  0  0  0  0  0  0  0  # atno 8010 bound_to 7997
  139.7898  144.6856  150.9908 H   0  0  0  0  0  0  0  0  0  0  0  0  # atno 10167 bound_to 10162
  157.6551  131.0909  150.6421 H   0  0  0  0  0  0  0  0  0  0  0  0  # atno 10718 bound_to 10713
  154.8685  135.4140  154.2748 H   0  0  0  0  0  0  0  0  0  0  0  0  # atno 10763 bound_to 10752
  153.3651  135.7005  153.6687 H   0  0  0  0  0  0  0  0  0  0  0  0  # atno 10764 bound_to 10752
  153.5571  135.3617  155.2756 H   0  0  0  0  0  0  0  0  0  0  0  0  # atno 10765 bound_to 10752
  140.7084  134.3860  157.5201 H   0  0  0  0  0  0  0  0  0  0  0  0  # atno 11005 bound_to 11000
  146.3473  139.9583  142.8720 LP  0  0  0  0  0  0  0  0  0  0  0  0  # atno 17320 bound_to 7965
  145.1999  140.9850  143.4161 LP  0  0  0  0  0  0  0  0  0  0  0  0  # atno 17321 bound_to 7965
  140.7820  143.4393  151.0576 LP  0  0  0  0  0  0  0  0  0  0  0  0  # atno 17342 bound_to 10162
  139.8070  143.8004  152.3168 LP  0  0  0  0  0  0  0  0  0  0  0  0  # atno 17343 bound_to 10162
  156.6729  130.4544  149.5651 LP  0  0  0  0  0  0  0  0  0  0  0  0  # atno 17370 bound_to 10713
  156.1985  130.6604  151.1141 LP  0  0  0  0  0  0  0  0  0  0  0  0  # atno 17371 bound_to 10713
  139.8878  134.8873  156.2508 LP  0  0  0  0  0  0  0  0  0  0  0  0  # atno 17394 bound_to 11000
  141.0105  133.7098  156.1105 LP  0  0  0  0  0  0  0  0  0  0  0  0  # atno 17395 bound_to 11000

$$$$
