AV-unprocessed.smi:2365|AV-procd|sdf|9422|dock1
  -GOLD-   2272013 63D 1   1.00000     0.00000
 Structure written by MMmdl.
 29 30  0  0  0  0  0  0  0  0  1 V2000
  148.5107  140.9620  154.1467 C   0  0  0  0  0  0  0  0  0  0  0  0
  149.4474  140.0927  154.9913 C   0  0  1  0  0  0  0  0  0  0  0  0
  149.3593  138.6003  154.6943 C   0  0  0  0  0  0  0  0  0  0  0  0
  150.6950  138.0766  155.1950 C   0  0  0  0  0  0  0  0  0  0  0  0
  151.6237  139.3074  155.1613 C   0  0  2  0  0  0  0  0  0  0  0  0
  152.2248  139.6536  156.5360 C   0  0  0  0  0  0  0  0  0  0  0  0
  153.0196  138.8734  157.0601 O   0  0  0  0  0  0  0  0  0  0  0  0
  151.8323  140.8159  157.0899 N   0  0  0  0  0  0  0  0  0  0  0  0
  152.1917  141.3556  158.3544 C   0  0  0  0  0  0  0  0  0  0  0  0
  152.7834  140.5854  159.3851 C   0  0  0  0  0  0  0  0  0  0  0  0
  153.1482  141.0962  160.5800 N   0  0  0  0  0  0  0  0  0  0  0  0
  152.9409  142.4115  160.7964 C   0  0  0  0  0  0  0  0  0  0  0  0
  152.3748  143.2743  159.8377 C   0  0  0  0  0  0  0  0  0  0  0  0
  152.1566  144.9486  160.2041 Cl  0  0  0  0  0  0  0  0  0  0  0  0
  151.9976  142.7364  158.5880 C   0  0  0  0  0  0  0  0  0  0  0  0
  151.2999  143.7494  157.3690 Cl  0  0  0  0  0  0  0  0  0  0  0  0
  150.8041  140.3793  154.6882 O   0  0  0  0  0  0  0  0  0  0  0  0
  147.4666  140.7247  154.3513 H   0  0  0  0  0  0  0  0  0  0  0  0
  148.6864  140.8134  153.0810 H   0  0  0  0  0  0  0  0  0  0  0  0
  148.6615  142.0195  154.3647 H   0  0  0  0  0  0  0  0  0  0  0  0
  149.2729  140.2750  156.0532 H   0  0  0  0  0  0  0  0  0  0  0  0
  148.5063  138.1211  155.1754 H   0  0  0  0  0  0  0  0  0  0  0  0
  149.2802  138.4333  153.6193 H   0  0  0  0  0  0  0  0  0  0  0  0
  150.5788  137.6770  156.2038 H   0  0  0  0  0  0  0  0  0  0  0  0
  151.0669  137.2674  154.5660 H   0  0  0  0  0  0  0  0  0  0  0  0
  152.4408  139.1576  154.4551 H   0  0  0  0  0  0  0  0  0  0  0  0
  151.1115  141.3169  156.5896 H   0  0  0  0  0  0  0  0  0  0  0  0
  152.9970  139.5355  159.2558 H   0  0  0  0  0  0  0  0  0  0  0  0
  153.2417  142.7883  161.7630 H   0  0  0  0  0  0  0  0  0  0  0  0
  1  2  1  0  0  0  0
  1 18  1  0  0  0  0
  1 19  1  0  0  0  0
  1 20  1  0  0  0  0
  2 17  1  0  0  0  0
  2  3  1  0  0  0  0
  2 21  1  0  0  0  0
  3  4  1  0  0  0  0
  3 22  1  0  0  0  0
  3 23  1  0  0  0  0
  4  5  1  0  0  0  0
  4 24  1  0  0  0  0
  4 25  1  0  0  0  0
  5  6  1  0  0  0  0
  5 17  1  0  0  0  0
  5 26  1  0  0  0  0
  6  7  2  0  0  0  0
  6  8  1  0  0  0  0
  8  9  1  0  0  0  0
  8 27  1  0  0  0  0
  9 15  1  0  0  0  0
  9 10  2  0  0  0  0
 10 11  1  0  0  0  0
 10 28  1  0  0  0  0
 11 12  2  0  0  0  0
 12 13  1  0  0  0  0
 12 29  1  0  0  0  0
 13 14  1  0  0  0  0
 13 15  2  0  0  0  0
 15 16  1  0  0  0  0
M  END
> <s_m_source_file>
AV-unprocessed.smi

> <i_m_source_file_index>
2365

> <i_lp_mmshare_version>
43012

> <i_f3d_flags>
0

> <s_epik_input>
W0NIM11bQ0BASF0xW0NIMl1bQ0gyXVtDQEhdKE8xKUMoPU8pW05IXWMyW2NIXW5bY0hdYyhDbCljMkNs

> <s_epik_cmdline>
J2VwaWtfcHl0aG9uJywgJy1waCcsICc3LjAnLCAnLXRuJywgJzgnLCAnLW1hJywgJzIwMCcsICctbWV0YWxfYmluZGluZycsICctaW1hZScsICc8aW5maWxlLm1hZT4nLCAnLW9tYWUnLCAnPG91dGZpbGUubWFlPic=

> <r_lp_tautomer_probability>
1

> <r_epik_Ionization_Penalty>
7.32461e-06

> <r_epik_Ionization_Penalty_Charging>
0

> <r_epik_Ionization_Penalty_Neutral>
7.32461e-06

> <r_epik_State_Penalty>
-0

> <r_epik_Charging_Adjusted_Penalty>
0

> <i_epik_Tot_Q>
0

> <i_epik_Tot_abs_Q>
0

> <r_epik_Metal_State_Penalty>
-0

> <b_epik_Metal_Only>
0

> <s_lp_Force_Field>
OPLS_2005

> <r_lp_Energy>
23.5341

> <b_lp_Chiralities_Consistent>
1

> <s_lp_Variant>
AV-unprocessed.smi:2365-4

> <Gold.Version>
5.8.1

> <Gold.Id.Protein>
6NUR|6NUR_protein|mol2

> <Gold.PLP.Fitness>
41.1980

> <Gold.PLP.PLP>
-35.8748

> <Gold.PLP.part.hbond>
-1.8692

> <Gold.PLP.part.metal>
0.0000

> <Gold.PLP.part.buried>
-1.7630

> <Gold.PLP.part.nonpolar>
-31.7299

> <Gold.PLP.part.repulsive>
0.2029

> <Gold.PLP.ligand.clash>
0.0000

> <Gold.PLP.ligand.torsion>
0.1246

> <Gold.PLP.Chemscore.Hbond>
1.8553

> <Gold.PLP.Chemscore.CHOScore>
0.0000

> <Gold.PLP.Chemscore.Metal>
0.0000

> <Gold.Chemscore.Hbonds>
donor molecule, donor type, donor heavy atom, donor atom, acceptor molecule, acceptor atom, score
      P1  H  7989  7998       L1    17  0.99
      P1  H  7997  8009       L1     7  0.86

> <Gold.PLP.Chemscore.Internal.Correction>
0.0067

> <Gold.Rescore>
     Score         DG    S(hbond)    S(metal)    S(lipo)     H(rot)  DE(clash)    DE(int)     intcor
     16.45     -19.69       1.39        0.00     103.70       1.00       1.76       1.49       ----

> <Gold.Chemscore.Fitness>
16.4466

> <Gold.Chemscore.DG>
-19.6928

> <Gold.Chemscore.ZeroCoef>
-5.4800

> <Gold.Chemscore.Hbond>
1.3893

> <Gold.Chemscore.Metal>
0.0000

> <Gold.Chemscore.Lipo>
103.6977

> <Gold.Chemscore.Internal_Hbond>
0.0000

> <Gold.Chemscore.DEClash>
1.7590

> <Gold.Chemscore.DEInternal>
1.4872

> <Gold.Chemscore.Rot>
1.0000

> <Gold.Chemscore.Internal.Correction>
   9.000000E+99

> <Gold.Chemscore.Hbonds>
donor molecule, donor type, donor heavy atom, donor atom, acceptor molecule, acceptor atom, score
      P1  H  7989  7998       L1    17  0.27
      P1  H  7997  8009       L1     7  0.16

> <Gold.Chemscore.Hbond.Weighted>
-4.6402

> <Gold.Chemscore.Metal.Weighted>
-0.0000

> <Gold.Chemscore.Lipo.Weighted>
-12.1326

> <Gold.Chemscore.Internal_Hbond.Weighted>
0.0000

> <Gold.Chemscore.DEClash.Weighted>
1.7590

> <Gold.Chemscore.DEInternal.Weighted>
1.4872

> <Gold.Chemscore.Rot.Weighted>
2.5600

> <Gold.Chemscore.Internal.Correction.Weighted>
   9.000000E+99

> <Gold.Protein.RotatedTorsions>
[ 6907 6896 6895 6894 ] final  164.19 input  -60.11 | X-H torsion
[ 7974 7965 7964 7962 ] final   73.02 input  175.53 | X-H torsion
[ 8008 7997 7996 7995 ] final  154.78 input   59.86 | X-H torsion
[ 10167 10162 10161 10158 ] final -130.59 input  -65.29 | X-H torsion
[ 10718 10713 10712 10709 ] final -138.51 input   66.30 | X-H torsion
[ 10763 10752 10751 10750 ] final   95.19 input  -60.55 | X-H torsion
[ 11005 11000 10999 10996 ] final  -40.93 input  -57.11 | X-H torsion

> <Gold.Protein.ActiveResidues>
 VAL166  LYS551  ARG553  GLY616  TRP617  ASP618  TYR619  PRO620  LYS621  CYS622 
 ASP623  PHE694  ASN695  SER759  ASP760  ASP761  ALA762  ILE779  LEU786  VAL792 
 PHE793  MET794  SER795  GLU796  ALA797  LYS798  CYS799  TRP800  GLU811  SER814 

> <Gold.Protein.RotatedAtoms>
  151.9136  133.3567  159.3872 H   0  0  0  0  0  0  0  0  0  0  0  0  # atno 6907 bound_to 6896
  150.7052  134.4706  159.5433 H   0  0  0  0  0  0  0  0  0  0  0  0  # atno 6908 bound_to 6896
  152.2317  134.8315  160.0523 H   0  0  0  0  0  0  0  0  0  0  0  0  # atno 6909 bound_to 6896
  145.7461  139.2741  143.1458 H   0  0  0  0  0  0  0  0  0  0  0  0  # atno 7974 bound_to 7965
  156.2513  140.1957  156.6700 H   0  0  0  0  0  0  0  0  0  0  0  0  # atno 8008 bound_to 7997
  154.6400  140.0585  156.9860 H   0  0  0  0  0  0  0  0  0  0  0  0  # atno 8009 bound_to 7997
  155.1577  140.3257  155.4420 H   0  0  0  0  0  0  0  0  0  0  0  0  # atno 8010 bound_to 7997
  139.9277  143.6308  152.2538 H   0  0  0  0  0  0  0  0  0  0  0  0  # atno 10167 bound_to 10162
  156.3001  130.7424  151.1473 H   0  0  0  0  0  0  0  0  0  0  0  0  # atno 10718 bound_to 10713
  153.2503  135.4263  155.0791 H   0  0  0  0  0  0  0  0  0  0  0  0  # atno 10763 bound_to 10752
  154.8379  135.3424  154.6522 H   0  0  0  0  0  0  0  0  0  0  0  0  # atno 10764 bound_to 10752
  153.6943  135.7032  153.5138 H   0  0  0  0  0  0  0  0  0  0  0  0  # atno 10765 bound_to 10752
  141.0210  133.6863  156.2388 H   0  0  0  0  0  0  0  0  0  0  0  0  # atno 11005 bound_to 11000
  146.0401  140.8173  142.9833 LP  0  0  0  0  0  0  0  0  0  0  0  0  # atno 17320 bound_to 7965
  144.6860  140.2898  143.7280 LP  0  0  0  0  0  0  0  0  0  0  0  0  # atno 17321 bound_to 7965
  139.6808  144.7655  151.1611 LP  0  0  0  0  0  0  0  0  0  0  0  0  # atno 17342 bound_to 10162
  140.7646  143.5727  150.8978 LP  0  0  0  0  0  0  0  0  0  0  0  0  # atno 17343 bound_to 10162
  157.7366  131.0561  150.5406 LP  0  0  0  0  0  0  0  0  0  0  0  0  # atno 17370 bound_to 10713
  156.5532  130.4237  149.6097 LP  0  0  0  0  0  0  0  0  0  0  0  0  # atno 17371 bound_to 10713
  140.6574  134.5004  157.5581 LP  0  0  0  0  0  0  0  0  0  0  0  0  # atno 17394 bound_to 11000
  139.9146  134.8273  156.1411 LP  0  0  0  0  0  0  0  0  0  0  0  0  # atno 17395 bound_to 11000

$$$$
