AV-unprocessed.smi:1797|AV-procd|sdf|7257|dock1
  -GOLD-   22720 8513D 1   1.00000     0.00000
 Structure written by MMmdl.
 29 30  0  0  0  0  0  0  0  0  2 V2000
  144.4575  134.8146  162.7690 C   0  0  0  0  0  0  0  0  0  0  0  0
  145.6032  135.5749  162.1943 C   0  0  0  0  0  0  0  0  0  0  0  0
  145.4655  136.7840  161.6449 N   0  0  0  0  0  0  0  0  0  0  0  0
  146.6719  137.2881  161.1812 N   0  0  0  0  0  0  0  0  0  0  0  0
  147.7004  136.4495  161.3730 C   0  0  0  0  0  0  0  0  0  0  0  0
  148.9569  136.7439  160.9906 N   0  5  0  0  0  0  0  0  0  0  0  0
  149.3330  136.7948  159.6857 C   0  0  0  0  0  0  0  0  0  0  0  0
  149.0658  135.9110  158.8725 O   0  0  0  0  0  0  0  0  0  0  0  0
  150.0338  137.8696  159.2741 N   0  0  0  0  0  0  0  0  0  0  0  0
  150.5187  138.1217  157.9205 C   0  0  2  0  0  0  0  0  0  0  0  0
  151.2764  139.4560  157.8467 C   0  0  0  0  0  0  0  0  0  0  0  0
  151.7889  139.7217  156.4222 C   0  0  0  0  0  0  0  0  0  0  0  0
  150.7412  139.4493  155.3322 C   0  0  0  0  0  0  0  0  0  0  0  0
  150.9071  139.9120  154.2056 O   0  0  0  0  0  0  0  0  0  0  0  0
  149.6798  138.6773  155.6250 N   0  0  0  0  0  0  0  0  0  0  0  0
  149.3305  138.1471  156.9425 C   0  0  0  0  0  0  0  0  0  0  0  0
  147.2436  134.9498  162.1798 S   0  0  0  0  0  0  0  0  0  0  0  0
  143.8962  134.3282  161.9712 H   0  0  0  0  0  0  0  0  0  0  0  0
  143.7906  135.4866  163.3098 H   0  0  0  0  0  0  0  0  0  0  0  0
  144.8180  134.0522  163.4596 H   0  0  0  0  0  0  0  0  0  0  0  0
  150.2458  138.5728  159.9666 H   0  0  0  0  0  0  0  0  0  0  0  0
  151.1909  137.3140  157.6235 H   0  0  0  0  0  0  0  0  0  0  0  0
  150.6236  140.2721  158.1607 H   0  0  0  0  0  0  0  0  0  0  0  0
  152.1192  139.4532  158.5389 H   0  0  0  0  0  0  0  0  0  0  0  0
  152.1432  140.7496  156.3386 H   0  0  0  0  0  0  0  0  0  0  0  0
  152.6467  139.0792  156.2207 H   0  0  0  0  0  0  0  0  0  0  0  0
  149.0263  138.4880  154.8789 H   0  0  0  0  0  0  0  0  0  0  0  0
  148.9154  137.1456  156.8258 H   0  0  0  0  0  0  0  0  0  0  0  0
  148.5305  138.7724  157.3420 H   0  0  0  0  0  0  0  0  0  0  0  0
  1  2  1  0  0  0  0
  1 18  1  0  0  0  0
  1 19  1  0  0  0  0
  1 20  1  0  0  0  0
  2 17  1  0  0  0  0
  2  3  2  0  0  0  0
  3  4  1  0  0  0  0
  4  5  2  0  0  0  0
  5  6  1  0  0  0  0
  5 17  1  0  0  0  0
  6  7  1  0  0  0  0
  7  8  2  0  0  0  0
  7  9  1  0  0  0  0
  9 10  1  0  0  0  0
  9 21  1  0  0  0  0
 10 16  1  0  0  0  0
 10 11  1  0  0  0  0
 10 22  1  0  0  0  0
 11 12  1  0  0  0  0
 11 23  1  0  0  0  0
 11 24  1  0  0  0  0
 12 13  1  0  0  0  0
 12 25  1  0  0  0  0
 12 26  1  0  0  0  0
 13 14  2  0  0  0  0
 13 15  1  0  0  0  0
 15 16  1  0  0  0  0
 15 27  1  0  0  0  0
 16 28  1  0  0  0  0
 16 29  1  0  0  0  0
M  CHG  1   6  -1
M  END
> <s_m_source_file>
AV-unprocessed.smi

> <i_m_source_file_index>
1797

> <i_lp_mmshare_version>
43012

> <i_f3d_flags>
0

> <s_epik_input>
W0NIM11jMW5uYyhzMSlbTkhdQyg9TylbTkhdW0NAQEhdMltDSDJdW0NIMl1DKD1PKVtOSF1bQ0gyXTI=

> <s_epik_cmdline>
J2VwaWtfcHl0aG9uJywgJy1waCcsICc3LjAnLCAnLXRuJywgJzgnLCAnLW1hJywgJzIwMCcsICctbWV0YWxfYmluZGluZycsICctaW1hZScsICc8aW5maWxlLm1hZT4nLCAnLW9tYWUnLCAnPG91dGZpbGUubWFlPic=

> <r_lp_tautomer_probability>
1

> <r_epik_Ionization_Penalty>
3.31792

> <r_epik_Ionization_Penalty_Charging>
3.17379

> <r_epik_Ionization_Penalty_Neutral>
0.144127

> <r_epik_State_Penalty>
3.17099

> <r_epik_Charging_Adjusted_Penalty>
6.34478

> <i_epik_Tot_Q>
-1

> <i_epik_Tot_abs_Q>
1

> <r_epik_Metal_State_Penalty>
0.468583

> <b_epik_Metal_Only>
1

> <s_lp_Force_Field>
OPLS_2005

> <r_lp_Energy>
8.3623

> <b_lp_Chiralities_Consistent>
1

> <s_lp_Variant>
AV-unprocessed.smi:1797-3

> <Gold.Version>
5.8.1

> <Gold.Id.Protein>
6NUR|6NUR_protein|mol2

> <Gold.PLP.Fitness>
35.3085

> <Gold.PLP.PLP>
-22.5920

> <Gold.PLP.part.hbond>
-3.9883

> <Gold.PLP.part.metal>
0.0000

> <Gold.PLP.part.buried>
-2.2498

> <Gold.PLP.part.nonpolar>
-18.1864

> <Gold.PLP.part.repulsive>
0.8990

> <Gold.PLP.ligand.clash>
0.0000

> <Gold.PLP.ligand.torsion>
1.0821

> <Gold.PLP.Chemscore.Hbond>
4.9500

> <Gold.PLP.Chemscore.CHOScore>
0.0000

> <Gold.PLP.Chemscore.Metal>
0.0000

> <Gold.Chemscore.Hbonds>
donor molecule, donor type, donor heavy atom, donor atom, acceptor molecule, acceptor atom, score
      P1  H  6896  6908       L1     8  0.43
      P1  H  6931  6943       L1     6  1.59
      P1  H  6934  6947       L1     4  1.00
      P1  H  7989  7998       L1    14  0.65

> <Gold.PLP.Chemscore.Internal.Correction>
0.0306

> <Gold.Rescore>
     Score         DG    S(hbond)    S(metal)    S(lipo)     H(rot)  DE(clash)    DE(int)     intcor
     14.53     -17.40       3.04        0.00      36.87       1.00       1.54       1.33       ----

> <Gold.Chemscore.Fitness>
14.5342

> <Gold.Chemscore.DG>
-17.4026

> <Gold.Chemscore.ZeroCoef>
-5.4800

> <Gold.Chemscore.Hbond>
3.0446

> <Gold.Chemscore.Metal>
0.0000

> <Gold.Chemscore.Lipo>
36.8694

> <Gold.Chemscore.Internal_Hbond>
0.0000

> <Gold.Chemscore.DEClash>
1.5394

> <Gold.Chemscore.DEInternal>
1.3290

> <Gold.Chemscore.Rot>
1.0000

> <Gold.Chemscore.Internal.Correction>
   9.000000E+99

> <Gold.Chemscore.Hbonds>
donor molecule, donor type, donor heavy atom, donor atom, acceptor molecule, acceptor atom, score
      P1  H  6896  6908       L1     8  0.05
      P1  H  6931  6943       L1     6  0.10
      P1  H  6934  6947       L1     4  0.88
      P1  H  7989  7998       L1    14  0.65

> <Gold.Chemscore.Hbond.Weighted>
-10.1689

> <Gold.Chemscore.Metal.Weighted>
-0.0000

> <Gold.Chemscore.Lipo.Weighted>
-4.3137

> <Gold.Chemscore.Internal_Hbond.Weighted>
0.0000

> <Gold.Chemscore.DEClash.Weighted>
1.5394

> <Gold.Chemscore.DEInternal.Weighted>
1.3290

> <Gold.Chemscore.Rot.Weighted>
2.5600

> <Gold.Chemscore.Internal.Correction.Weighted>
   9.000000E+99

> <Gold.Protein.RotatedTorsions>
[ 6907 6896 6895 6894 ] final  165.93 input  -60.11 | X-H torsion
[ 7974 7965 7964 7962 ] final  128.14 input  175.53 | X-H torsion
[ 8008 7997 7996 7995 ] final  -44.67 input   59.86 | X-H torsion
[ 10167 10162 10161 10158 ] final   99.54 input  -65.29 | X-H torsion
[ 10718 10713 10712 10709 ] final   89.83 input   66.30 | X-H torsion
[ 10763 10752 10751 10750 ] final  -42.82 input  -60.55 | X-H torsion
[ 11005 11000 10999 10996 ] final   95.88 input  -57.11 | X-H torsion

> <Gold.Protein.ActiveResidues>
 VAL166  LYS551  ARG553  GLY616  TRP617  ASP618  TYR619  PRO620  LYS621  CYS622 
 ASP623  PHE694  ASN695  SER759  ASP760  ASP761  ALA762  ILE779  LEU786  VAL792 
 PHE793  MET794  SER795  GLU796  ALA797  LYS798  CYS799  TRP800  GLU811  SER814 

> <Gold.Protein.RotatedAtoms>
  151.8868  133.3507  159.3784 H   0  0  0  0  0  0  0  0  0  0  0  0  # atno 6907 bound_to 6896
  150.7113  134.4964  159.5549 H   0  0  0  0  0  0  0  0  0  0  0  0  # atno 6908 bound_to 6896
  152.2526  134.8117  160.0494 H   0  0  0  0  0  0  0  0  0  0  0  0  # atno 6909 bound_to 6896
  145.0428  139.3949  143.5093 H   0  0  0  0  0  0  0  0  0  0  0  0  # atno 7974 bound_to 7965
  154.3998  140.1416  156.3721 H   0  0  0  0  0  0  0  0  0  0  0  0  # atno 8008 bound_to 7997
  155.8083  140.3473  155.5422 H   0  0  0  0  0  0  0  0  0  0  0  0  # atno 8009 bound_to 7997
  155.8413  140.0927  157.1723 H   0  0  0  0  0  0  0  0  0  0  0  0  # atno 8010 bound_to 7997
  139.7608  144.6955  151.0295 H   0  0  0  0  0  0  0  0  0  0  0  0  # atno 10167 bound_to 10162
  157.6957  131.0348  150.3486 H   0  0  0  0  0  0  0  0  0  0  0  0  # atno 10718 bound_to 10713
  153.9853  135.6712  153.4751 H   0  0  0  0  0  0  0  0  0  0  0  0  # atno 10763 bound_to 10752
  153.0730  135.4964  154.8341 H   0  0  0  0  0  0  0  0  0  0  0  0  # atno 10764 bound_to 10752
  154.7141  135.3103  154.9113 H   0  0  0  0  0  0  0  0  0  0  0  0  # atno 10765 bound_to 10752
  139.8785  134.8922  156.4076 H   0  0  0  0  0  0  0  0  0  0  0  0  # atno 11005 bound_to 11000
  146.3511  140.0038  142.8673 LP  0  0  0  0  0  0  0  0  0  0  0  0  # atno 17320 bound_to 7965
  145.1626  140.9680  143.4368 LP  0  0  0  0  0  0  0  0  0  0  0  0  # atno 17321 bound_to 7965
  140.7807  143.4699  151.0160 LP  0  0  0  0  0  0  0  0  0  0  0  0  # atno 17342 bound_to 10162
  139.8386  143.7595  152.3180 LP  0  0  0  0  0  0  0  0  0  0  0  0  # atno 17343 bound_to 10162
  156.3937  130.3902  149.7011 LP  0  0  0  0  0  0  0  0  0  0  0  0  # atno 17370 bound_to 10713
  156.4352  130.7834  151.2855 LP  0  0  0  0  0  0  0  0  0  0  0  0  # atno 17371 bound_to 10713
  140.9223  133.7636  155.9922 LP  0  0  0  0  0  0  0  0  0  0  0  0  # atno 17394 bound_to 11000
  140.8425  134.3049  157.5308 LP  0  0  0  0  0  0  0  0  0  0  0  0  # atno 17395 bound_to 11000

$$$$
