AV-unprocessed.smi:466|AV-procd|sdf|2642|dock8
  -GOLD-   2262023 53D 1   1.00000     0.00000
 Structure written by MMmdl.
 44 46  0  0  0  0  0  0  0  0  2 V2000
  153.9332  141.3475  161.5339 C   0  0  0  0  0  0  0  0  0  0  0  0
  153.3610  141.1837  160.2449 O   0  0  0  0  0  0  0  0  0  0  0  0
  152.7432  142.2704  159.6597 C   0  0  0  0  0  0  0  0  0  0  0  0
  152.8256  143.5912  160.1684 C   0  0  0  0  0  0  0  0  0  0  0  0
  152.1706  144.6500  159.5135 C   0  0  0  0  0  0  0  0  0  0  0  0
  151.4264  144.4028  158.3472 C   0  0  0  0  0  0  0  0  0  0  0  0
  151.3366  143.0960  157.8341 C   0  0  0  0  0  0  0  0  0  0  0  0
  151.9951  142.0237  158.4857 C   0  0  0  0  0  0  0  0  0  0  0  0
  151.9548  140.7196  158.0446 O   0  0  0  0  0  0  0  0  0  0  0  0
  150.8080  140.2613  157.3438 C   0  0  0  0  0  0  0  0  0  0  0  0
  150.8440  140.8385  155.9207 C   0  0  0  0  0  0  0  0  0  0  0  0
  150.0962  140.0025  154.9667 N   0  0  0  0  0  0  0  0  0  0  0  0
  150.3335  138.7301  154.5295 C   0  0  0  0  0  0  0  0  0  0  0  0
  151.4550  137.8280  154.9477 C   0  0  0  0  0  0  0  0  0  0  0  0
  152.8355  138.4788  154.7704 C   0  0  0  0  0  0  0  0  0  0  0  0
  153.2652  139.0237  155.9992 O   0  0  0  0  0  0  0  0  0  0  0  0
  149.3124  138.4011  153.6863 N   0  3  0  0  0  0  0  0  0  0  0  0
  148.4248  139.4707  153.5720 C   0  0  0  0  0  0  0  0  0  0  0  0
  147.2494  139.6037  152.8390 C   0  0  0  0  0  0  0  0  0  0  0  0
  146.5654  140.8313  152.9572 C   0  0  0  0  0  0  0  0  0  0  0  0
  147.0560  141.8683  153.7766 C   0  0  0  0  0  0  0  0  0  0  0  0
  148.2520  141.7229  154.5098 C   0  0  0  0  0  0  0  0  0  0  0  0
  148.9215  140.5045  154.3906 C   0  0  0  0  0  0  0  0  0  0  0  0
  154.3745  140.4030  161.8521 H   0  0  0  0  0  0  0  0  0  0  0  0
  153.1799  141.6248  162.2724 H   0  0  0  0  0  0  0  0  0  0  0  0
  154.7266  142.0960  161.5264 H   0  0  0  0  0  0  0  0  0  0  0  0
  153.3872  143.8189  161.0615 H   0  0  0  0  0  0  0  0  0  0  0  0
  152.2394  145.6531  159.9078 H   0  0  0  0  0  0  0  0  0  0  0  0
  150.9228  145.2164  157.8456 H   0  0  0  0  0  0  0  0  0  0  0  0
  150.7539  142.9407  156.9391 H   0  0  0  0  0  0  0  0  0  0  0  0
  150.8023  139.1713  157.3012 H   0  0  0  0  0  0  0  0  0  0  0  0
  149.8960  140.5873  157.8470 H   0  0  0  0  0  0  0  0  0  0  0  0
  150.4419  141.8516  155.9015 H   0  0  0  0  0  0  0  0  0  0  0  0
  151.8729  140.9178  155.5716 H   0  0  0  0  0  0  0  0  0  0  0  0
  151.3230  137.5442  155.9914 H   0  0  0  0  0  0  0  0  0  0  0  0
  151.3947  136.9085  154.3645 H   0  0  0  0  0  0  0  0  0  0  0  0
  153.5728  137.7501  154.4325 H   0  0  0  0  0  0  0  0  0  0  0  0
  152.7931  139.2746  154.0260 H   0  0  0  0  0  0  0  0  0  0  0  0
  152.5490  138.9855  156.6150 H   0  0  0  0  0  0  0  0  0  0  0  0
  146.8697  138.8087  152.2140 H   0  0  0  0  0  0  0  0  0  0  0  0
  145.6449  140.9794  152.4113 H   0  0  0  0  0  0  0  0  0  0  0  0
  146.5031  142.7935  153.8476 H   0  0  0  0  0  0  0  0  0  0  0  0
  148.6113  142.5213  155.1419 H   0  0  0  0  0  0  0  0  0  0  0  0
  149.2265  137.5026  153.2290 H   0  0  0  0  0  0  0  0  0  0  0  0
  1  2  1  0  0  0  0
  1 24  1  0  0  0  0
  1 25  1  0  0  0  0
  1 26  1  0  0  0  0
  2  3  1  0  0  0  0
  3  8  1  0  0  0  0
  3  4  2  0  0  0  0
  4  5  1  0  0  0  0
  4 27  1  0  0  0  0
  5  6  2  0  0  0  0
  5 28  1  0  0  0  0
  6  7  1  0  0  0  0
  6 29  1  0  0  0  0
  7  8  2  0  0  0  0
  7 30  1  0  0  0  0
  8  9  1  0  0  0  0
  9 10  1  0  0  0  0
 10 11  1  0  0  0  0
 10 31  1  0  0  0  0
 10 32  1  0  0  0  0
 11 12  1  0  0  0  0
 11 33  1  0  0  0  0
 11 34  1  0  0  0  0
 12 23  1  0  0  0  0
 12 13  1  0  0  0  0
 13 14  1  0  0  0  0
 13 17  2  0  0  0  0
 14 15  1  0  0  0  0
 14 35  1  0  0  0  0
 14 36  1  0  0  0  0
 15 16  1  0  0  0  0
 15 37  1  0  0  0  0
 15 38  1  0  0  0  0
 16 39  1  0  0  0  0
 17 18  1  0  0  0  0
 17 44  1  0  0  0  0
 18 23  2  0  0  0  0
 18 19  1  0  0  0  0
 19 20  2  0  0  0  0
 19 40  1  0  0  0  0
 20 21  1  0  0  0  0
 20 41  1  0  0  0  0
 21 22  2  0  0  0  0
 21 42  1  0  0  0  0
 22 23  1  0  0  0  0
 22 43  1  0  0  0  0
M  CHG  1  17   1
M  END
> <s_m_source_file>
AV-unprocessed.smi

> <i_m_source_file_index>
466

> <i_lp_mmshare_version>
43012

> <i_f3d_flags>
0

> <s_epik_input>
W0NIM11PYzFbY0hdW2NIXVtjSF1bY0hdYzFPW0NIMl1bQ0gyXW4oYyhuMilbQ0gyXVtDSDJdW09IXSljKGMyMylbY0hdW2NIXVtjSF1bY0hdMw==

> <s_epik_cmdline>
J2VwaWtfcHl0aG9uJywgJy1waCcsICc3LjAnLCAnLXRuJywgJzgnLCAnLW1hJywgJzIwMCcsICctbWV0YWxfYmluZGluZycsICctaW1hZScsICc8aW5maWxlLm1hZT4nLCAnLW9tYWUnLCAnPG91dGZpbGUubWFlPic=

> <r_lp_tautomer_probability>
1

> <r_epik_Ionization_Penalty>
0.720978

> <r_epik_Ionization_Penalty_Charging>
0.720978

> <r_epik_Ionization_Penalty_Neutral>
5.89567e-08

> <r_epik_State_Penalty>
0.7454

> <r_epik_Charging_Adjusted_Penalty>
1.46638

> <i_epik_Tot_Q>
1

> <i_epik_Tot_abs_Q>
1

> <r_epik_Metal_State_Penalty>
4.64029

> <b_epik_Metal_Only>
0

> <s_lp_Force_Field>
OPLS_2005

> <r_lp_Energy>
24.0837

> <b_lp_Chiralities_Consistent>
1

> <s_lp_Variant>
AV-unprocessed.smi:466-2

> <Gold.Version>
5.8.1

> <Gold.Id.Protein>
6NUR|6NUR_protein|mol2

> <Gold.PLP.Fitness>
61.9494

> <Gold.PLP.PLP>
-54.8430

> <Gold.PLP.part.hbond>
-2.8072

> <Gold.PLP.part.metal>
0.0000

> <Gold.PLP.part.buried>
-1.0049

> <Gold.PLP.part.nonpolar>
-52.7853

> <Gold.PLP.part.repulsive>
0.0573

> <Gold.PLP.ligand.clash>
0.0000

> <Gold.PLP.ligand.torsion>
1.0302

> <Gold.PLP.Chemscore.Hbond>
3.0000

> <Gold.PLP.Chemscore.CHOScore>
0.0000

> <Gold.PLP.Chemscore.Metal>
0.0000

> <Gold.Chemscore.Hbonds>
donor molecule, donor type, donor heavy atom, donor atom, acceptor molecule, acceptor atom, score
      L1  H    17    44       P1  7948  2.00
      P1  H  7997  8008       L1    16  0.96

> <Gold.PLP.Chemscore.Internal.Correction>
0.1667

> <Gold.Rescore>
     Score         DG    S(hbond)    S(metal)    S(lipo)     H(rot)  DE(clash)    DE(int)     intcor
     18.46     -22.16       1.89        0.00     147.45       2.68       1.70       2.00       ----

> <Gold.Chemscore.Fitness>
18.4589

> <Gold.Chemscore.DG>
-22.1572

> <Gold.Chemscore.ZeroCoef>
-5.4800

> <Gold.Chemscore.Hbond>
1.8852

> <Gold.Chemscore.Metal>
0.0000

> <Gold.Chemscore.Lipo>
147.4493

> <Gold.Chemscore.Internal_Hbond>
0.0000

> <Gold.Chemscore.DEClash>
1.6984

> <Gold.Chemscore.DEInternal>
1.9999

> <Gold.Chemscore.Rot>
2.6840

> <Gold.Chemscore.Internal.Correction>
   9.000000E+99

> <Gold.Chemscore.Hbonds>
donor molecule, donor type, donor heavy atom, donor atom, acceptor molecule, acceptor atom, score
      L1  H    17    44       P1  7948  0.98
      P1  H  7997  8008       L1    16  0.89

> <Gold.Chemscore.Hbond.Weighted>
-6.2966

> <Gold.Chemscore.Metal.Weighted>
-0.0000

> <Gold.Chemscore.Lipo.Weighted>
-17.2516

> <Gold.Chemscore.Internal_Hbond.Weighted>
0.0000

> <Gold.Chemscore.DEClash.Weighted>
1.6984

> <Gold.Chemscore.DEInternal.Weighted>
1.9999

> <Gold.Chemscore.Rot.Weighted>
6.8710

> <Gold.Chemscore.Internal.Correction.Weighted>
   9.000000E+99

> <Gold.Protein.RotatedTorsions>
[ 6907 6896 6895 6894 ] final  -58.66 input  -60.11 | X-H torsion
[ 7974 7965 7964 7962 ] final -174.05 input  175.53 | X-H torsion
[ 8008 7997 7996 7995 ] final  -23.11 input   59.86 | X-H torsion
[ 10167 10162 10161 10158 ] final   49.61 input  -65.29 | X-H torsion
[ 10718 10713 10712 10709 ] final  -31.88 input   66.30 | X-H torsion
[ 10763 10752 10751 10750 ] final -105.75 input  -60.55 | X-H torsion
[ 11005 11000 10999 10996 ] final  -81.07 input  -57.11 | X-H torsion

> <Gold.Protein.ActiveResidues>
 VAL166  LYS551  ARG553  GLY616  TRP617  ASP618  TYR619  PRO620  LYS621  CYS622 
 ASP623  PHE694  ASN695  SER759  ASP760  ASP761  ALA762  ILE779  LEU786  VAL792 
 PHE793  MET794  SER795  GLU796  ALA797  LYS798  CYS799  TRP800  GLU811  SER814 

> <Gold.Protein.RotatedAtoms>
  150.7990  134.7070  159.6581 H   0  0  0  0  0  0  0  0  0  0  0  0  # atno 6907 bound_to 6896
  152.4105  134.6129  160.0040 H   0  0  0  0  0  0  0  0  0  0  0  0  # atno 6908 bound_to 6896
  151.6374  133.3291  159.3158 H   0  0  0  0  0  0  0  0  0  0  0  0  # atno 6909 bound_to 6896
  144.7134  140.1530  143.6382 H   0  0  0  0  0  0  0  0  0  0  0  0  # atno 7974 bound_to 7965
  154.4604  140.1989  156.0260 H   0  0  0  0  0  0  0  0  0  0  0  0  # atno 8008 bound_to 7997
  156.0829  140.3269  155.7688 H   0  0  0  0  0  0  0  0  0  0  0  0  # atno 8009 bound_to 7997
  155.5082  140.0559  157.2918 H   0  0  0  0  0  0  0  0  0  0  0  0  # atno 8010 bound_to 7997
  140.2811  144.3156  150.6264 H   0  0  0  0  0  0  0  0  0  0  0  0  # atno 10167 bound_to 10162
  156.3818  130.4357  149.7463 H   0  0  0  0  0  0  0  0  0  0  0  0  # atno 10718 bound_to 10713
  154.7967  135.4737  154.0179 H   0  0  0  0  0  0  0  0  0  0  0  0  # atno 10763 bound_to 10752
  153.1716  135.6826  153.8608 H   0  0  0  0  0  0  0  0  0  0  0  0  # atno 10764 bound_to 10752
  153.8188  135.3207  155.3386 H   0  0  0  0  0  0  0  0  0  0  0  0  # atno 10765 bound_to 10752
  141.1667  133.7179  156.8368 H   0  0  0  0  0  0  0  0  0  0  0  0  # atno 11005 bound_to 11000
  145.9099  139.2481  143.1443 LP  0  0  0  0  0  0  0  0  0  0  0  0  # atno 17320 bound_to 7965
  145.9726  140.8748  143.0155 LP  0  0  0  0  0  0  0  0  0  0  0  0  # atno 17321 bound_to 7965
  140.5811  143.2173  151.7426 LP  0  0  0  0  0  0  0  0  0  0  0  0  # atno 17342 bound_to 10162
  139.4962  144.4079  152.0112 LP  0  0  0  0  0  0  0  0  0  0  0  0  # atno 17343 bound_to 10162
  156.4551  130.7925  151.2946 LP  0  0  0  0  0  0  0  0  0  0  0  0  # atno 17370 bound_to 10713
  157.7493  131.0083  150.3224 LP  0  0  0  0  0  0  0  0  0  0  0  0  # atno 17371 bound_to 10713
  140.2012  134.8896  157.3171 LP  0  0  0  0  0  0  0  0  0  0  0  0  # atno 17394 bound_to 11000
  140.2186  134.4051  155.7577 LP  0  0  0  0  0  0  0  0  0  0  0  0  # atno 17395 bound_to 11000

$$$$
