AV-unprocessed.smi:2467|AV-procd|sdf|9726|dock1
  -GOLD-   2272013363D 1   1.00000     0.00000
 Structure written by MMmdl.
 46 47  0  0  0  0  0  0  0  0  1 V2000
  151.1306  136.9669  158.0885 C   0  0  0  0  0  0  0  0  0  0  0  0
  149.7810  136.3672  157.6650 C   0  0  0  0  0  0  0  0  0  0  0  0
  149.6359  136.1342  156.1398 C   0  0  0  0  0  0  0  0  0  0  0  0
  150.2701  134.7843  155.7197 C   0  0  0  0  0  0  0  0  0  0  0  0
  149.8153  134.2599  154.3491 C   0  0  0  0  0  0  0  0  0  0  0  0
  150.2086  137.3124  155.3080 C   0  0  1  0  0  0  0  0  0  0  0  0
  149.9794  138.7071  155.9322 C   0  0  0  0  0  0  0  0  0  0  0  0
  150.5705  139.8016  155.0316 C   0  0  1  0  0  0  0  0  0  0  0  0
  150.4544  141.1012  155.6860 N   0  0  0  0  0  0  0  0  0  0  0  0
  151.0054  141.4349  156.8647 C   0  0  0  0  0  0  0  0  0  0  0  0
  151.6941  140.6547  157.5206 O   0  0  0  0  0  0  0  0  0  0  0  0
  150.7656  142.6887  157.3058 N   0  0  0  0  0  0  0  0  0  0  0  0
  151.1790  143.3736  158.4866 C   0  0  0  0  0  0  0  0  0  0  0  0
  151.3686  144.7643  158.3186 C   0  0  0  0  0  0  0  0  0  0  0  0
  151.7836  145.5487  159.4121 C   0  0  0  0  0  0  0  0  0  0  0  0
  152.0008  144.9215  160.6514 C   0  0  0  0  0  0  0  0  0  0  0  0
  151.7912  143.5331  160.7367 C   0  0  0  0  0  0  0  0  0  0  0  0
  151.3932  142.7805  159.6891 N   0  0  0  0  0  0  0  0  0  0  0  0
  152.0422  139.4711  154.7334 C   0  0  0  0  0  0  0  0  0  0  0  0
  152.1772  138.0423  154.1832 C   0  0  0  0  0  0  0  0  0  0  0  0
  151.6035  137.1077  155.0915 O   0  0  0  0  0  0  0  0  0  0  0  0
  151.1975  137.0271  159.1751 H   0  0  0  0  0  0  0  0  0  0  0  0
  151.2735  137.9752  157.7023 H   0  0  0  0  0  0  0  0  0  0  0  0
  151.9614  136.3514  157.7421 H   0  0  0  0  0  0  0  0  0  0  0  0
  149.6736  135.4278  158.2028 H   0  0  0  0  0  0  0  0  0  0  0  0
  148.9704  137.0038  158.0214 H   0  0  0  0  0  0  0  0  0  0  0  0
  148.5688  136.0754  155.9204 H   0  0  0  0  0  0  0  0  0  0  0  0
  151.3578  134.8624  155.7385 H   0  0  0  0  0  0  0  0  0  0  0  0
  150.0190  134.0162  156.4493 H   0  0  0  0  0  0  0  0  0  0  0  0
  150.2102  133.2590  154.1736 H   0  0  0  0  0  0  0  0  0  0  0  0
  150.1640  134.8884  153.5306 H   0  0  0  0  0  0  0  0  0  0  0  0
  148.7282  134.1990  154.2903 H   0  0  0  0  0  0  0  0  0  0  0  0
  149.7124  137.3199  154.3380 H   0  0  0  0  0  0  0  0  0  0  0  0
  148.9126  138.8806  156.0784 H   0  0  0  0  0  0  0  0  0  0  0  0
  150.4432  138.7718  156.9159 H   0  0  0  0  0  0  0  0  0  0  0  0
  150.0097  139.8157  154.0950 H   0  0  0  0  0  0  0  0  0  0  0  0
  149.9022  141.8026  155.2124 H   0  0  0  0  0  0  0  0  0  0  0  0
  150.2143  143.2505  156.6739 H   0  0  0  0  0  0  0  0  0  0  0  0
  151.1983  145.2324  157.3596 H   0  0  0  0  0  0  0  0  0  0  0  0
  151.9331  146.6124  159.3004 H   0  0  0  0  0  0  0  0  0  0  0  0
  152.3196  145.4891  161.5131 H   0  0  0  0  0  0  0  0  0  0  0  0
  151.9465  143.0123  161.6699 H   0  0  0  0  0  0  0  0  0  0  0  0
  152.4565  140.1843  154.0199 H   0  0  0  0  0  0  0  0  0  0  0  0
  152.6343  139.5612  155.6453 H   0  0  0  0  0  0  0  0  0  0  0  0
  151.6986  137.9560  153.2064 H   0  0  0  0  0  0  0  0  0  0  0  0
  153.2293  137.7943  154.0428 H   0  0  0  0  0  0  0  0  0  0  0  0
  1  2  1  0  0  0  0
  1 22  1  0  0  0  0
  1 23  1  0  0  0  0
  1 24  1  0  0  0  0
  2  3  1  0  0  0  0
  2 25  1  0  0  0  0
  2 26  1  0  0  0  0
  3  4  1  0  0  0  0
  3  6  1  0  0  0  0
  3 27  1  0  0  0  0
  4  5  1  0  0  0  0
  4 28  1  0  0  0  0
  4 29  1  0  0  0  0
  5 30  1  0  0  0  0
  5 31  1  0  0  0  0
  5 32  1  0  0  0  0
  6 21  1  0  0  0  0
  6  7  1  0  0  0  0
  6 33  1  0  0  0  0
  7  8  1  0  0  0  0
  7 34  1  0  0  0  0
  7 35  1  0  0  0  0
  8  9  1  0  0  0  0
  8 19  1  0  0  0  0
  8 36  1  0  0  0  0
  9 10  1  0  0  0  0
  9 37  1  0  0  0  0
 10 11  2  0  0  0  0
 10 12  1  0  0  0  0
 12 13  1  0  0  0  0
 12 38  1  0  0  0  0
 13 18  1  0  0  0  0
 13 14  2  0  0  0  0
 14 15  1  0  0  0  0
 14 39  1  0  0  0  0
 15 16  2  0  0  0  0
 15 40  1  0  0  0  0
 16 17  1  0  0  0  0
 16 41  1  0  0  0  0
 17 18  2  0  0  0  0
 17 42  1  0  0  0  0
 19 20  1  0  0  0  0
 19 43  1  0  0  0  0
 19 44  1  0  0  0  0
 20 21  1  0  0  0  0
 20 45  1  0  0  0  0
 20 46  1  0  0  0  0
M  END
> <s_m_source_file>
AV-unprocessed.smi

> <i_m_source_file_index>
2467

> <i_lp_mmshare_version>
43012

> <i_f3d_flags>
0

> <s_epik_input>
W0NIM11bQ0gyXVtDSF0oW0NIMl1bQ0gzXSlbQ0BASF0xW0NIMl1bQ0BIXShbQ0gyXVtDSDJdTzEpW05IXUMoPU8pW05IXWMyW2NIXVtjSF1bY0hdW2NIXW4y

> <s_epik_cmdline>
J2VwaWtfcHl0aG9uJywgJy1waCcsICc3LjAnLCAnLXRuJywgJzgnLCAnLW1hJywgJzIwMCcsICctbWV0YWxfYmluZGluZycsICctaW1hZScsICc8aW5maWxlLm1hZT4nLCAnLW9tYWUnLCAnPG91dGZpbGUubWFlPic=

> <r_lp_tautomer_probability>
1

> <r_epik_Ionization_Penalty>
4.80427e-05

> <r_epik_Ionization_Penalty_Charging>
0

> <r_epik_Ionization_Penalty_Neutral>
4.80427e-05

> <r_epik_State_Penalty>
-0

> <r_epik_Charging_Adjusted_Penalty>
0

> <i_epik_Tot_Q>
0

> <i_epik_Tot_abs_Q>
0

> <r_epik_Metal_State_Penalty>
-0

> <b_epik_Metal_Only>
0

> <s_lp_Force_Field>
OPLS_2005

> <r_lp_Energy>
20.6132

> <b_lp_Chiralities_Consistent>
1

> <s_lp_Variant>
AV-unprocessed.smi:2467-2

> <Gold.Version>
5.8.1

> <Gold.Id.Protein>
6NUR|6NUR_protein|mol2

> <Gold.PLP.Fitness>
38.9036

> <Gold.PLP.PLP>
-36.8575

> <Gold.PLP.part.hbond>
-1.3883

> <Gold.PLP.part.metal>
0.0000

> <Gold.PLP.part.buried>
-2.6989

> <Gold.PLP.part.nonpolar>
-31.2480

> <Gold.PLP.part.repulsive>
0.2479

> <Gold.PLP.ligand.clash>
0.0000

> <Gold.PLP.ligand.torsion>
0.9994

> <Gold.PLP.Chemscore.Hbond>
1.2959

> <Gold.PLP.Chemscore.CHOScore>
0.0000

> <Gold.PLP.Chemscore.Metal>
0.0000

> <Gold.Chemscore.Hbonds>
donor molecule, donor type, donor heavy atom, donor atom, acceptor molecule, acceptor atom, score
      L1  H    12    38       P1  8028  0.52
      P1  H 10752 10764       L1    21  0.65

> <Gold.PLP.Chemscore.Internal.Correction>
0.1571

> <Gold.Rescore>
     Score         DG    S(hbond)    S(metal)    S(lipo)     H(rot)  DE(clash)    DE(int)     intcor
     11.73     -17.00       1.05        0.00     100.91       1.49       1.76       3.51       ----

> <Gold.Chemscore.Fitness>
11.7268

> <Gold.Chemscore.DG>
-16.9998

> <Gold.Chemscore.ZeroCoef>
-5.4800

> <Gold.Chemscore.Hbond>
1.0528

> <Gold.Chemscore.Metal>
0.0000

> <Gold.Chemscore.Lipo>
100.9097

> <Gold.Chemscore.Internal_Hbond>
0.0000

> <Gold.Chemscore.DEClash>
1.7617

> <Gold.Chemscore.DEInternal>
3.5114

> <Gold.Chemscore.Rot>
1.4856

> <Gold.Chemscore.Internal.Correction>
   9.000000E+99

> <Gold.Chemscore.Hbonds>
donor molecule, donor type, donor heavy atom, donor atom, acceptor molecule, acceptor atom, score
      L1  H    12    38       P1  8028  0.52
      P1  H 10752 10764       L1    21  0.08

> <Gold.Chemscore.Hbond.Weighted>
-3.5164

> <Gold.Chemscore.Metal.Weighted>
-0.0000

> <Gold.Chemscore.Lipo.Weighted>
-11.8064

> <Gold.Chemscore.Internal_Hbond.Weighted>
0.0000

> <Gold.Chemscore.DEClash.Weighted>
1.7617

> <Gold.Chemscore.DEInternal.Weighted>
3.5114

> <Gold.Chemscore.Rot.Weighted>
3.8031

> <Gold.Chemscore.Internal.Correction.Weighted>
   9.000000E+99

> <Gold.Protein.RotatedTorsions>
[ 6907 6896 6895 6894 ] final   96.56 input  -60.11 | X-H torsion
[ 7974 7965 7964 7962 ] final   58.19 input  175.53 | X-H torsion
[ 8008 7997 7996 7995 ] final -135.45 input   59.86 | X-H torsion
[ 10167 10162 10161 10158 ] final  167.96 input  -65.29 | X-H torsion
[ 10718 10713 10712 10709 ] final  128.85 input   66.30 | X-H torsion
[ 10763 10752 10751 10750 ] final  -53.18 input  -60.55 | X-H torsion
[ 11005 11000 10999 10996 ] final  -51.20 input  -57.11 | X-H torsion

> <Gold.Protein.ActiveResidues>
 VAL166  LYS551  ARG553  GLY616  TRP617  ASP618  TYR619  PRO620  LYS621  CYS622 
 ASP623  PHE694  ASN695  SER759  ASP760  ASP761  ALA762  ILE779  LEU786  VAL792 
 PHE793  MET794  SER795  GLU796  ALA797  LYS798  CYS799  TRP800  GLU811  SER814 

> <Gold.Protein.RotatedAtoms>
  152.5433  134.0868  159.8259 H   0  0  0  0  0  0  0  0  0  0  0  0  # atno 6907 bound_to 6896
  151.0962  133.5270  159.2619 H   0  0  0  0  0  0  0  0  0  0  0  0  # atno 6908 bound_to 6896
  151.2043  135.0464  159.8939 H   0  0  0  0  0  0  0  0  0  0  0  0  # atno 6909 bound_to 6896
  145.9208  139.3728  143.0479 H   0  0  0  0  0  0  0  0  0  0  0  0  # atno 7974 bound_to 7965
  155.3789  140.0493  157.3044 H   0  0  0  0  0  0  0  0  0  0  0  0  # atno 8008 bound_to 7997
  154.5093  140.2185  155.9151 H   0  0  0  0  0  0  0  0  0  0  0  0  # atno 8009 bound_to 7997
  156.1563  140.3125  155.8737 H   0  0  0  0  0  0  0  0  0  0  0  0  # atno 8010 bound_to 7997
  139.4957  144.3865  151.9564 H   0  0  0  0  0  0  0  0  0  0  0  0  # atno 10167 bound_to 10162
  157.5207  131.1098  150.9158 H   0  0  0  0  0  0  0  0  0  0  0  0  # atno 10718 bound_to 10713
  154.1547  135.6484  153.4971 H   0  0  0  0  0  0  0  0  0  0  0  0  # atno 10763 bound_to 10752
  153.0127  135.5346  154.6772 H   0  0  0  0  0  0  0  0  0  0  0  0  # atno 10764 bound_to 10752
  154.6070  135.2949  155.0446 H   0  0  0  0  0  0  0  0  0  0  0  0  # atno 10765 bound_to 10752
  141.0858  133.6643  156.3843 H   0  0  0  0  0  0  0  0  0  0  0  0  # atno 11005 bound_to 11000
  145.8552  140.9506  143.0729 LP  0  0  0  0  0  0  0  0  0  0  0  0  # atno 17320 bound_to 7965
  144.6753  140.0459  143.7480 LP  0  0  0  0  0  0  0  0  0  0  0  0  # atno 17321 bound_to 7965
  140.3302  144.3325  150.5989 LP  0  0  0  0  0  0  0  0  0  0  0  0  # atno 17342 bound_to 10162
  140.5651  143.2187  151.7698 LP  0  0  0  0  0  0  0  0  0  0  0  0  # atno 17343 bound_to 10162
  156.9769  130.5512  149.5294 LP  0  0  0  0  0  0  0  0  0  0  0  0  # atno 17370 bound_to 10713
  156.0351  130.5439  150.8634 LP  0  0  0  0  0  0  0  0  0  0  0  0  # atno 17371 bound_to 10713
  140.5366  134.6161  157.5367 LP  0  0  0  0  0  0  0  0  0  0  0  0  # atno 17394 bound_to 11000
  139.9676  134.7346  156.0106 LP  0  0  0  0  0  0  0  0  0  0  0  0  # atno 17395 bound_to 11000

$$$$
