AV-unprocessed.smi:3018|AV-procd|sdf|11479|dock4
  -GOLD-   2272016413D 1   1.00000     0.00000
 Structure written by MMmdl.
 45 46  0  0  0  0  0  0  0  0  1 V2000
  151.1436  139.0873  158.0258 C   0  0  0  0  0  0  0  0  0  0  0  0
  151.5386  139.8313  156.7442 C   0  0  0  0  0  0  0  0  0  0  0  0
  150.6121  141.0223  156.4373 C   0  0  2  0  0  0  0  0  0  0  0  0
  150.3806  141.7208  157.6597 O   0  0  0  0  0  0  0  0  0  0  0  0
  151.4562  142.5113  158.1612 C   0  0  0  0  0  0  0  0  0  0  0  0
  151.9498  141.9582  159.5138 C   0  0  0  0  0  0  0  0  0  0  0  0
  153.0132  142.8768  160.1382 C   0  0  0  0  0  0  0  0  0  0  0  0
  152.4944  144.3164  160.2855 C   0  0  0  0  0  0  0  0  0  0  0  0
  151.9952  144.8676  158.9407 C   0  0  0  0  0  0  0  0  0  0  0  0
  150.9285  143.9467  158.3272 C   0  0  0  0  0  0  0  0  0  0  0  0
  149.2756  140.5399  155.8540 C   0  0  0  0  0  0  0  0  0  0  0  0
  149.0760  139.3382  155.6753 O   0  0  0  0  0  0  0  0  0  0  0  0
  148.3707  141.4897  155.5689 N   0  0  0  0  0  0  0  0  0  0  0  0
  147.0518  141.2581  154.9854 C   0  0  0  0  0  0  0  0  0  0  0  0
  145.9117  141.6197  155.9607 C   0  0  0  0  0  0  0  0  0  0  0  0
  144.9363  142.6594  155.4331 C   0  0  0  0  0  0  0  0  0  0  0  0
  144.0320  143.3056  156.0812 N   0  0  0  0  0  0  0  0  0  0  0  0
  143.5193  144.0922  155.1024 N   0  0  0  0  0  0  0  0  0  0  0  0
  144.0947  143.9306  153.9051 C   0  0  0  0  0  0  0  0  0  0  0  0
  143.8299  144.5148  152.8571 O   0  0  0  0  0  0  0  0  0  0  0  0
  145.0154  142.9960  154.1050 N   0  0  0  0  0  0  0  0  0  0  0  0
  142.7693  144.7308  155.3250 H   0  0  0  0  0  0  0  0  0  0  0  0
  145.6624  142.6164  153.4296 H   0  0  0  0  0  0  0  0  0  0  0  0
  151.8215  138.2548  158.2147 H   0  0  0  0  0  0  0  0  0  0  0  0
  150.1338  138.6827  157.9530 H   0  0  0  0  0  0  0  0  0  0  0  0
  151.1787  139.7483  158.8921 H   0  0  0  0  0  0  0  0  0  0  0  0
  152.5667  140.1817  156.8486 H   0  0  0  0  0  0  0  0  0  0  0  0
  151.5374  139.1316  155.9071 H   0  0  0  0  0  0  0  0  0  0  0  0
  151.1107  141.6717  155.7165 H   0  0  0  0  0  0  0  0  0  0  0  0
  152.2868  142.5379  157.4548 H   0  0  0  0  0  0  0  0  0  0  0  0
  151.1061  141.8600  160.1981 H   0  0  0  0  0  0  0  0  0  0  0  0
  152.3658  140.9585  159.3926 H   0  0  0  0  0  0  0  0  0  0  0  0
  153.3130  142.4895  161.1124 H   0  0  0  0  0  0  0  0  0  0  0  0
  153.9085  142.8737  159.5152 H   0  0  0  0  0  0  0  0  0  0  0  0
  151.6819  144.3394  161.0128 H   0  0  0  0  0  0  0  0  0  0  0  0
  153.2819  144.9579  160.6818 H   0  0  0  0  0  0  0  0  0  0  0  0
  151.5876  145.8697  159.0772 H   0  0  0  0  0  0  0  0  0  0  0  0
  152.8342  144.9659  158.2508 H   0  0  0  0  0  0  0  0  0  0  0  0
  150.6119  144.3390  157.3604 H   0  0  0  0  0  0  0  0  0  0  0  0
  150.0430  143.9411  158.9638 H   0  0  0  0  0  0  0  0  0  0  0  0
  148.6216  142.4493  155.7585 H   0  0  0  0  0  0  0  0  0  0  0  0
  146.9397  141.7810  154.0339 H   0  0  0  0  0  0  0  0  0  0  0  0
  146.9895  140.1959  154.7485 H   0  0  0  0  0  0  0  0  0  0  0  0
  145.3471  140.7186  156.2019 H   0  0  0  0  0  0  0  0  0  0  0  0
  146.3320  141.9719  156.9037 H   0  0  0  0  0  0  0  0  0  0  0  0
  1  2  1  0  0  0  0
  1 24  1  0  0  0  0
  1 25  1  0  0  0  0
  1 26  1  0  0  0  0
  2  3  1  0  0  0  0
  2 27  1  0  0  0  0
  2 28  1  0  0  0  0
  3  4  1  0  0  0  0
  3 11  1  0  0  0  0
  3 29  1  0  0  0  0
  4  5  1  0  0  0  0
  5 10  1  0  0  0  0
  5  6  1  0  0  0  0
  5 30  1  0  0  0  0
  6  7  1  0  0  0  0
  6 31  1  0  0  0  0
  6 32  1  0  0  0  0
  7  8  1  0  0  0  0
  7 33  1  0  0  0  0
  7 34  1  0  0  0  0
  8  9  1  0  0  0  0
  8 35  1  0  0  0  0
  8 36  1  0  0  0  0
  9 10  1  0  0  0  0
  9 37  1  0  0  0  0
  9 38  1  0  0  0  0
 10 39  1  0  0  0  0
 10 40  1  0  0  0  0
 11 12  2  0  0  0  0
 11 13  1  0  0  0  0
 13 14  1  0  0  0  0
 13 41  1  0  0  0  0
 14 15  1  0  0  0  0
 14 42  1  0  0  0  0
 14 43  1  0  0  0  0
 15 16  1  0  0  0  0
 15 44  1  0  0  0  0
 15 45  1  0  0  0  0
 16 21  1  0  0  0  0
 16 17  2  0  0  0  0
 17 18  1  0  0  0  0
 18 22  1  0  0  0  0
 18 19  1  0  0  0  0
 19 20  2  0  0  0  0
 19 21  1  0  0  0  0
 21 23  1  0  0  0  0
M  END
> <s_m_source_file>
AV-unprocessed.smi

> <i_m_source_file_index>
3018

> <i_lp_mmshare_version>
43012

> <i_f3d_flags>
0

> <s_epik_input>
W0NIMl0xW0NIMl1bQ0gyXVtDSDJdW0NIMl1bQ0hdMU9bQ0BASF0oW0NIMl1bQ0gzXSlDKD1PKVtOSF1bQ0gyXVtDSDJdYzJuW25IXWMoPU8pW25IXTI=

> <s_epik_cmdline>
J2VwaWtfcHl0aG9uJywgJy1waCcsICc3LjAnLCAnLXRuJywgJzgnLCAnLW1hJywgJzIwMCcsICctbWV0YWxfYmluZGluZycsICctaW1hZScsICc8aW5maWxlLm1hZT4nLCAnLW9tYWUnLCAnPG91dGZpbGUubWFlPic=

> <r_lp_tautomer_probability>
1

> <r_epik_Ionization_Penalty>
0.000773817

> <r_epik_Ionization_Penalty_Charging>
0.000773741

> <r_epik_Ionization_Penalty_Neutral>
7.58514e-08

> <r_epik_State_Penalty>
-0

> <r_epik_Charging_Adjusted_Penalty>
0.000773741

> <i_epik_Tot_Q>
0

> <i_epik_Tot_abs_Q>
0

> <r_epik_Metal_State_Penalty>
0.495152

> <b_epik_Metal_Only>
0

> <s_lp_Force_Field>
OPLS_2005

> <r_lp_Energy>
32.5004

> <b_lp_Chiralities_Consistent>
1

> <s_lp_Variant>
AV-unprocessed.smi:3018-1

> <Gold.Version>
5.8.1

> <Gold.Id.Protein>
6NUR|6NUR_protein|mol2

> <Gold.PLP.Fitness>
46.9560

> <Gold.PLP.PLP>
-46.6806

> <Gold.PLP.part.hbond>
-2.2432

> <Gold.PLP.part.metal>
0.0000

> <Gold.PLP.part.buried>
-9.4036

> <Gold.PLP.part.nonpolar>
-37.0342

> <Gold.PLP.part.repulsive>
0.9249

> <Gold.PLP.ligand.clash>
0.0000

> <Gold.PLP.ligand.torsion>
1.4918

> <Gold.PLP.Chemscore.Hbond>
1.0000

> <Gold.PLP.Chemscore.CHOScore>
0.0000

> <Gold.PLP.Chemscore.Metal>
0.0000

> <Gold.Chemscore.Hbonds>
donor molecule, donor type, donor heavy atom, donor atom, acceptor molecule, acceptor atom, score
      L1  H    13    41       P1  8028  0.37

> <Gold.PLP.Chemscore.Internal.Correction>
0.2589

> <Gold.Rescore>
     Score         DG    S(hbond)    S(metal)    S(lipo)     H(rot)  DE(clash)    DE(int)     intcor
      9.62     -12.62       1.00        0.00      99.07       3.04       1.51       1.49       ----

> <Gold.Chemscore.Fitness>
9.6241

> <Gold.Chemscore.DG>
-12.6219

> <Gold.Chemscore.ZeroCoef>
-5.4800

> <Gold.Chemscore.Hbond>
0.9955

> <Gold.Chemscore.Metal>
0.0000

> <Gold.Chemscore.Lipo>
99.0685

> <Gold.Chemscore.Internal_Hbond>
0.0000

> <Gold.Chemscore.DEClash>
1.5059

> <Gold.Chemscore.DEInternal>
1.4919

> <Gold.Chemscore.Rot>
3.0367

> <Gold.Chemscore.Internal.Correction>
   9.000000E+99

> <Gold.Chemscore.Hbonds>
donor molecule, donor type, donor heavy atom, donor atom, acceptor molecule, acceptor atom, score
      L1  H    13    41       P1  8028  0.37

> <Gold.Chemscore.Hbond.Weighted>
-3.3249

> <Gold.Chemscore.Metal.Weighted>
-0.0000

> <Gold.Chemscore.Lipo.Weighted>
-11.5910

> <Gold.Chemscore.Internal_Hbond.Weighted>
0.0000

> <Gold.Chemscore.DEClash.Weighted>
1.5059

> <Gold.Chemscore.DEInternal.Weighted>
1.4919

> <Gold.Chemscore.Rot.Weighted>
7.7739

> <Gold.Chemscore.Internal.Correction.Weighted>
   9.000000E+99

> <Gold.Protein.RotatedTorsions>
[ 6907 6896 6895 6894 ] final   80.18 input  -60.11 | X-H torsion
[ 7974 7965 7964 7962 ] final -103.33 input  175.53 | X-H torsion
[ 8008 7997 7996 7995 ] final  -19.82 input   59.86 | X-H torsion
[ 10167 10162 10161 10158 ] final   48.69 input  -65.29 | X-H torsion
[ 10718 10713 10712 10709 ] final -128.83 input   66.30 | X-H torsion
[ 10763 10752 10751 10750 ] final   -4.27 input  -60.55 | X-H torsion
[ 11005 11000 10999 10996 ] final  103.27 input  -57.11 | X-H torsion

> <Gold.Protein.ActiveResidues>
 VAL166  LYS551  ARG553  GLY616  TRP617  ASP618  TYR619  PRO620  LYS621  CYS622 
 ASP623  PHE694  ASN695  SER759  ASP760  ASP761  ALA762  ILE779  LEU786  VAL792 
 PHE793  MET794  SER795  GLU796  ALA797  LYS798  CYS799  TRP800  GLU811  SER814 

> <Gold.Protein.RotatedAtoms>
  152.5225  134.3398  159.9212 H   0  0  0  0  0  0  0  0  0  0  0  0  # atno 6907 bound_to 6896
  151.3347  133.3980  159.2673 H   0  0  0  0  0  0  0  0  0  0  0  0  # atno 6908 bound_to 6896
  150.9851  134.9216  159.7925 H   0  0  0  0  0  0  0  0  0  0  0  0  # atno 6909 bound_to 6896
  145.2573  140.9258  143.3061 H   0  0  0  0  0  0  0  0  0  0  0  0  # atno 7974 bound_to 7965
  154.4811  140.2078  155.9761 H   0  0  0  0  0  0  0  0  0  0  0  0  # atno 8008 bound_to 7997
  156.1166  140.3220  155.8118 H   0  0  0  0  0  0  0  0  0  0  0  0  # atno 8009 bound_to 7997
  155.4541  140.0519  157.2989 H   0  0  0  0  0  0  0  0  0  0  0  0  # atno 8010 bound_to 7997
  140.2906  144.3050  150.6241 H   0  0  0  0  0  0  0  0  0  0  0  0  # atno 10167 bound_to 10162
  156.1988  130.6844  151.0514 H   0  0  0  0  0  0  0  0  0  0  0  0  # atno 10718 bound_to 10713
  153.3826  135.6999  153.6554 H   0  0  0  0  0  0  0  0  0  0  0  0  # atno 10763 bound_to 10752
  153.5159  135.3622  155.2609 H   0  0  0  0  0  0  0  0  0  0  0  0  # atno 10764 bound_to 10752
  154.8694  135.4146  154.3127 H   0  0  0  0  0  0  0  0  0  0  0  0  # atno 10765 bound_to 10752
  139.8782  134.9256  156.5184 H   0  0  0  0  0  0  0  0  0  0  0  0  # atno 11005 bound_to 11000
  144.9449  139.4147  143.6430 LP  0  0  0  0  0  0  0  0  0  0  0  0  # atno 17320 bound_to 7965
  146.3285  139.8428  142.8887 LP  0  0  0  0  0  0  0  0  0  0  0  0  # atno 17321 bound_to 7965
  140.5735  143.2178  151.7557 LP  0  0  0  0  0  0  0  0  0  0  0  0  # atno 17342 bound_to 10162
  139.4939  144.4183  152.0006 LP  0  0  0  0  0  0  0  0  0  0  0  0  # atno 17343 bound_to 10162
  157.6974  131.0789  150.6928 LP  0  0  0  0  0  0  0  0  0  0  0  0  # atno 17370 bound_to 10713
  156.6985  130.4616  149.5579 LP  0  0  0  0  0  0  0  0  0  0  0  0  # atno 17371 bound_to 10713
  140.8469  133.8162  155.9130 LP  0  0  0  0  0  0  0  0  0  0  0  0  # atno 17394 bound_to 11000
  140.9183  134.2174  157.4943 LP  0  0  0  0  0  0  0  0  0  0  0  0  # atno 17395 bound_to 11000

$$$$
