AV-unprocessed.smi:1006|AV-procd|sdf|4390|dock2
  -GOLD-   22720 2323D 1   1.00000     0.00000
 Structure written by MMmdl.
 45 47  0  0  0  0  0  0  0  0  1 V2000
  146.6565  133.7669  153.8745 C   0  0  0  0  0  0  0  0  0  0  0  0
  146.4730  135.2639  153.7421 C   0  0  0  0  0  0  0  0  0  0  0  0
  145.5141  135.8114  152.8629 C   0  0  0  0  0  0  0  0  0  0  0  0
  145.4282  137.2190  152.8323 C   0  0  0  0  0  0  0  0  0  0  0  0
  144.5149  137.8585  151.9983 N   0  0  0  0  0  0  0  0  0  0  0  0
  146.2178  137.9974  153.6030 N   0  0  0  0  0  0  0  0  0  0  0  0
  147.0892  137.3656  154.3928 C   0  0  0  0  0  0  0  0  0  0  0  0
  148.0976  138.4211  155.4156 S   0  0  0  0  0  0  0  0  0  0  0  0
  147.8587  140.0463  154.6331 C   0  0  0  0  0  0  0  0  0  0  0  0
  148.9551  141.0472  155.0311 C   0  0  2  0  0  0  0  0  0  0  0  0
  148.9162  142.1617  154.1594 O   0  0  0  0  0  0  0  0  0  0  0  0
  150.3577  140.4120  154.9890 C   0  0  0  0  0  0  0  0  0  0  0  0
  150.8939  140.1701  156.3160 N   0  0  0  0  0  0  0  0  0  0  0  0
  151.1016  138.9787  156.9092 C   0  0  0  0  0  0  0  0  0  0  0  0
  151.6066  138.9913  158.1398 N   0  0  0  0  0  0  0  0  0  0  0  0
  151.7430  140.3496  158.3713 C   0  0  0  0  0  0  0  0  0  0  0  0
  152.2272  141.0439  159.5016 C   0  0  0  0  0  0  0  0  0  0  0  0
  152.2769  142.4563  159.5184 C   0  0  0  0  0  0  0  0  0  0  0  0
  152.8052  143.1621  160.7549 C   0  0  0  0  0  0  0  0  0  0  0  0
  151.8384  143.1965  158.3911 C   0  0  0  0  0  0  0  0  0  0  0  0
  151.8821  144.7144  158.3861 C   0  0  0  0  0  0  0  0  0  0  0  0
  151.3517  142.5186  157.2539 C   0  0  0  0  0  0  0  0  0  0  0  0
  151.3064  141.1134  157.2498 C   0  0  0  0  0  0  0  0  0  0  0  0
  147.2630  136.0457  154.5110 N   0  0  0  0  0  0  0  0  0  0  0  0
  146.3602  133.2577  152.9569 H   0  0  0  0  0  0  0  0  0  0  0  0
  146.0445  133.3850  154.6919 H   0  0  0  0  0  0  0  0  0  0  0  0
  147.6985  133.5181  154.0785 H   0  0  0  0  0  0  0  0  0  0  0  0
  144.8805  135.1863  152.2507 H   0  0  0  0  0  0  0  0  0  0  0  0
  143.8931  137.3382  151.3965 H   0  0  0  0  0  0  0  0  0  0  0  0
  144.4559  138.8658  151.9601 H   0  0  0  0  0  0  0  0  0  0  0  0
  147.8678  139.9127  153.5510 H   0  0  0  0  0  0  0  0  0  0  0  0
  146.8741  140.4314  154.9013 H   0  0  0  0  0  0  0  0  0  0  0  0
  148.7569  141.4037  156.0430 H   0  0  0  0  0  0  0  0  0  0  0  0
  148.8635  142.9494  154.6787 H   0  0  0  0  0  0  0  0  0  0  0  0
  150.3230  139.4587  154.4603 H   0  0  0  0  0  0  0  0  0  0  0  0
  151.0531  141.0476  154.4387 H   0  0  0  0  0  0  0  0  0  0  0  0
  150.8714  138.0496  156.4083 H   0  0  0  0  0  0  0  0  0  0  0  0
  152.5618  140.4799  160.3599 H   0  0  0  0  0  0  0  0  0  0  0  0
  152.0470  143.8277  161.1683 H   0  0  0  0  0  0  0  0  0  0  0  0
  153.6886  143.7522  160.5092 H   0  0  0  0  0  0  0  0  0  0  0  0
  153.0842  142.4498  161.5319 H   0  0  0  0  0  0  0  0  0  0  0  0
  151.5398  145.1190  157.4332 H   0  0  0  0  0  0  0  0  0  0  0  0
  152.8997  145.0686  158.5525 H   0  0  0  0  0  0  0  0  0  0  0  0
  151.2415  145.1171  159.1709 H   0  0  0  0  0  0  0  0  0  0  0  0
  151.0146  143.0689  156.3879 H   0  0  0  0  0  0  0  0  0  0  0  0
  1  2  1  0  0  0  0
  1 25  1  0  0  0  0
  1 26  1  0  0  0  0
  1 27  1  0  0  0  0
  2 24  1  0  0  0  0
  2  3  2  0  0  0  0
  3  4  1  0  0  0  0
  3 28  1  0  0  0  0
  4  5  1  0  0  0  0
  4  6  2  0  0  0  0
  5 29  1  0  0  0  0
  5 30  1  0  0  0  0
  6  7  1  0  0  0  0
  7  8  1  0  0  0  0
  7 24  2  0  0  0  0
  8  9  1  0  0  0  0
  9 10  1  0  0  0  0
  9 31  1  0  0  0  0
  9 32  1  0  0  0  0
 10 11  1  0  0  0  0
 10 12  1  0  0  0  0
 10 33  1  0  0  0  0
 11 34  1  0  0  0  0
 12 13  1  0  0  0  0
 12 35  1  0  0  0  0
 12 36  1  0  0  0  0
 13 23  1  0  0  0  0
 13 14  1  0  0  0  0
 14 15  2  0  0  0  0
 14 37  1  0  0  0  0
 15 16  1  0  0  0  0
 16 23  2  0  0  0  0
 16 17  1  0  0  0  0
 17 18  2  0  0  0  0
 17 38  1  0  0  0  0
 18 19  1  0  0  0  0
 18 20  1  0  0  0  0
 19 39  1  0  0  0  0
 19 40  1  0  0  0  0
 19 41  1  0  0  0  0
 20 21  1  0  0  0  0
 20 22  2  0  0  0  0
 21 42  1  0  0  0  0
 21 43  1  0  0  0  0
 21 44  1  0  0  0  0
 22 23  1  0  0  0  0
 22 45  1  0  0  0  0
M  END
> <s_m_source_file>
AV-unprocessed.smi

> <i_m_source_file_index>
1006

> <i_lp_mmshare_version>
43012

> <i_f3d_flags>
0

> <s_epik_input>
W0NIM11jMVtjSF1jKFtOSDJdKW5jKG4xKVNbQ0gyXVtDQEhdKFtPSF0pW0NIMl1uKFtjSF1uMiljKGMyMylbY0hdYyhbQ0gzXSljKFtjSF0zKVtDSDNd

> <s_epik_cmdline>
J2VwaWtfcHl0aG9uJywgJy1waCcsICc3LjAnLCAnLXRuJywgJzgnLCAnLW1hJywgJzIwMCcsICctbWV0YWxfYmluZGluZycsICctaW1hZScsICc8aW5maWxlLm1hZT4nLCAnLW9tYWUnLCAnPG91dGZpbGUubWFlPic=

> <r_lp_tautomer_probability>
1

> <r_epik_Ionization_Penalty>
0.490208

> <r_epik_Ionization_Penalty_Charging>
0

> <r_epik_Ionization_Penalty_Neutral>
0.490208

> <r_epik_State_Penalty>
0.473203

> <r_epik_Charging_Adjusted_Penalty>
0.473203

> <i_epik_Tot_Q>
0

> <i_epik_Tot_abs_Q>
0

> <r_epik_Metal_State_Penalty>
0.354099

> <b_epik_Metal_Only>
0

> <s_lp_Force_Field>
OPLS_2005

> <r_lp_Energy>
3.13918

> <b_lp_Chiralities_Consistent>
1

> <s_lp_Variant>
AV-unprocessed.smi:1006-1

> <Gold.Version>
5.8.1

> <Gold.Id.Protein>
6NUR|6NUR_protein|mol2

> <Gold.PLP.Fitness>
43.7889

> <Gold.PLP.PLP>
-39.0557

> <Gold.PLP.part.hbond>
-3.5859

> <Gold.PLP.part.metal>
0.0000

> <Gold.PLP.part.buried>
-4.2591

> <Gold.PLP.part.nonpolar>
-30.9923

> <Gold.PLP.part.repulsive>
0.3165

> <Gold.PLP.ligand.clash>
0.0000

> <Gold.PLP.ligand.torsion>
1.1310

> <Gold.PLP.Chemscore.Hbond>
2.3172

> <Gold.PLP.Chemscore.CHOScore>
0.0000

> <Gold.PLP.Chemscore.Metal>
0.0000

> <Gold.Chemscore.Hbonds>
donor molecule, donor type, donor heavy atom, donor atom, acceptor molecule, acceptor atom, score
      L1  H     5    30       P1 10175  1.00
      L1  H    11    34       P1  8028  1.00
      P1  H  8011  8017       L1    11  0.32

> <Gold.PLP.Chemscore.Internal.Correction>
0.0437

> <Gold.Rescore>
     Score         DG    S(hbond)    S(metal)    S(lipo)     H(rot)  DE(clash)    DE(int)     intcor
     16.25     -17.70       2.20        0.00     103.32       2.82       0.28       1.17       ----

> <Gold.Chemscore.Fitness>
16.2540

> <Gold.Chemscore.DG>
-17.7034

> <Gold.Chemscore.ZeroCoef>
-5.4800

> <Gold.Chemscore.Hbond>
2.2024

> <Gold.Chemscore.Metal>
0.0000

> <Gold.Chemscore.Lipo>
103.3247

> <Gold.Chemscore.Internal_Hbond>
0.0000

> <Gold.Chemscore.DEClash>
0.2755

> <Gold.Chemscore.DEInternal>
1.1739

> <Gold.Chemscore.Rot>
2.8209

> <Gold.Chemscore.Internal.Correction>
   9.000000E+99

> <Gold.Chemscore.Hbonds>
donor molecule, donor type, donor heavy atom, donor atom, acceptor molecule, acceptor atom, score
      L1  H     5    29       P1 10171  0.05
      L1  H     5    30       P1 10175  0.95
      L1  H    11    34       P1  8028  0.96
      P1  H  8011  8017       L1    11  0.25

> <Gold.Chemscore.Hbond.Weighted>
-7.3559

> <Gold.Chemscore.Metal.Weighted>
-0.0000

> <Gold.Chemscore.Lipo.Weighted>
-12.0890

> <Gold.Chemscore.Internal_Hbond.Weighted>
0.0000

> <Gold.Chemscore.DEClash.Weighted>
0.2755

> <Gold.Chemscore.DEInternal.Weighted>
1.1739

> <Gold.Chemscore.Rot.Weighted>
7.2215

> <Gold.Chemscore.Internal.Correction.Weighted>
   9.000000E+99

> <Gold.Protein.RotatedTorsions>
[ 6907 6896 6895 6894 ] final   -1.64 input  -60.11 | X-H torsion
[ 7974 7965 7964 7962 ] final   17.75 input  175.53 | X-H torsion
[ 8008 7997 7996 7995 ] final -107.85 input   59.86 | X-H torsion
[ 10167 10162 10161 10158 ] final   67.43 input  -65.29 | X-H torsion
[ 10718 10713 10712 10709 ] final  -96.01 input   66.30 | X-H torsion
[ 10763 10752 10751 10750 ] final   34.57 input  -60.55 | X-H torsion
[ 11005 11000 10999 10996 ] final  138.32 input  -57.11 | X-H torsion

> <Gold.Protein.ActiveResidues>
 VAL166  LYS551  ARG553  GLY616  TRP617  ASP618  TYR619  PRO620  LYS621  CYS622 
 ASP623  PHE694  ASN695  SER759  ASP760  ASP761  ALA762  ILE779  LEU786  VAL792 
 PHE793  MET794  SER795  GLU796  ALA797  LYS798  CYS799  TRP800  GLU811  SER814 

> <Gold.Protein.RotatedAtoms>
  151.5428  135.1068  159.9930 H   0  0  0  0  0  0  0  0  0  0  0  0  # atno 6907 bound_to 6896
  152.4527  133.7658  159.6782 H   0  0  0  0  0  0  0  0  0  0  0  0  # atno 6908 bound_to 6896
  150.8461  133.7793  159.3067 H   0  0  0  0  0  0  0  0  0  0  0  0  # atno 6909 bound_to 6896
  146.2208  139.8557  142.8614 H   0  0  0  0  0  0  0  0  0  0  0  0  # atno 7974 bound_to 7965
  154.9354  140.0404  157.2069 H   0  0  0  0  0  0  0  0  0  0  0  0  # atno 8008 bound_to 7997
  154.8120  140.2869  155.5825 H   0  0  0  0  0  0  0  0  0  0  0  0  # atno 8009 bound_to 7997
  156.2972  140.2535  156.3010 H   0  0  0  0  0  0  0  0  0  0  0  0  # atno 8010 bound_to 7997
  140.0896  144.4999  150.7107 H   0  0  0  0  0  0  0  0  0  0  0  0  # atno 10167 bound_to 10162
  156.0054  130.5133  150.6162 H   0  0  0  0  0  0  0  0  0  0  0  0  # atno 10718 bound_to 10713
  153.0158  135.6357  154.1690 H   0  0  0  0  0  0  0  0  0  0  0  0  # atno 10763 bound_to 10752
  154.1429  135.2833  155.3157 H   0  0  0  0  0  0  0  0  0  0  0  0  # atno 10764 bound_to 10752
  154.6111  135.5556  153.7535 H   0  0  0  0  0  0  0  0  0  0  0  0  # atno 10765 bound_to 10752
  140.0176  134.9411  157.0407 H   0  0  0  0  0  0  0  0  0  0  0  0  # atno 11005 bound_to 11000
  145.2755  141.0122  143.3747 LP  0  0  0  0  0  0  0  0  0  0  0  0  # atno 17320 bound_to 7965
  144.9190  139.4435  143.6550 LP  0  0  0  0  0  0  0  0  0  0  0  0  # atno 17321 bound_to 7965
  140.7035  143.2451  151.4795 LP  0  0  0  0  0  0  0  0  0  0  0  0  # atno 17342 bound_to 10162
  139.5732  144.1880  152.1866 LP  0  0  0  0  0  0  0  0  0  0  0  0  # atno 17343 bound_to 10162
  157.3986  131.0806  151.1329 LP  0  0  0  0  0  0  0  0  0  0  0  0  # atno 17370 bound_to 10713
  157.1998  130.6389  149.5734 LP  0  0  0  0  0  0  0  0  0  0  0  0  # atno 17371 bound_to 10713
  140.4444  134.1647  155.7176 LP  0  0  0  0  0  0  0  0  0  0  0  0  # atno 17394 bound_to 11000
  141.1753  133.8527  157.1442 LP  0  0  0  0  0  0  0  0  0  0  0  0  # atno 17395 bound_to 11000

$$$$
