AV-unprocessed.smi:2579|AV-procd|sdf|10126|dock4
  -GOLD-   2272014143D 1   1.00000     0.00000
 Structure written by MMmdl.
 38 40  0  0  0  0  0  0  0  0  1 V2000
  150.7759  140.2500  154.4228 O   0  0  0  0  0  0  0  0  0  0  0  0
  151.1799  140.5543  155.7408 C   0  0  0  0  0  0  0  0  0  0  0  0
  152.0376  139.4155  156.3071 C   0  0  0  0  0  0  0  0  0  0  0  0
  152.4930  139.7105  157.6520 N   0  0  0  0  0  0  0  0  0  0  0  0
  152.3518  140.8263  158.4667 C   0  0  0  0  0  0  0  0  0  0  0  0
  151.7114  141.9363  158.1040 N   0  0  0  0  0  0  0  0  0  0  0  0
  151.8595  142.7376  159.2207 C   0  0  0  0  0  0  0  0  0  0  0  0
  151.4052  144.0520  159.4734 C   0  0  0  0  0  0  0  0  0  0  0  0
  151.6837  144.6793  160.7055 C   0  0  0  0  0  0  0  0  0  0  0  0
  152.4197  144.0038  161.7007 C   0  0  0  0  0  0  0  0  0  0  0  0
  152.8807  142.6932  161.4711 C   0  0  0  0  0  0  0  0  0  0  0  0
  152.5989  142.0701  160.2406 C   0  0  0  0  0  0  0  0  0  0  0  0
  152.8958  140.8196  159.7070 N   0  0  0  0  0  0  0  0  0  0  0  0
  153.6393  139.7538  160.3638 C   0  0  0  0  0  0  0  0  0  0  0  0
  155.1163  140.1246  160.5725 C   0  0  1  0  0  0  0  0  0  0  0  0
  155.8333  139.2616  161.6108 C   0  0  0  0  0  0  0  0  0  0  0  0
  157.2830  139.2515  161.1449 C   0  0  0  0  0  0  0  0  0  0  0  0
  157.2461  139.9383  159.7780 C   0  0  0  0  0  0  0  0  0  0  0  0
  155.8800  139.9035  159.3972 O   0  0  0  0  0  0  0  0  0  0  0  0
  149.9251  139.8402  154.4572 H   0  0  0  0  0  0  0  0  0  0  0  0
  151.7072  141.5088  155.7693 H   0  0  0  0  0  0  0  0  0  0  0  0
  150.2784  140.6678  156.3433 H   0  0  0  0  0  0  0  0  0  0  0  0
  151.4386  138.5056  156.3528 H   0  0  0  0  0  0  0  0  0  0  0  0
  152.8894  139.2012  155.6609 H   0  0  0  0  0  0  0  0  0  0  0  0
  153.0331  138.9620  158.0618 H   0  0  0  0  0  0  0  0  0  0  0  0
  150.8417  144.5789  158.7176 H   0  0  0  0  0  0  0  0  0  0  0  0
  151.3316  145.6840  160.8877 H   0  0  0  0  0  0  0  0  0  0  0  0
  152.6297  144.4926  162.6408 H   0  0  0  0  0  0  0  0  0  0  0  0
  153.4447  142.1738  162.2315 H   0  0  0  0  0  0  0  0  0  0  0  0
  153.1686  139.5448  161.3249 H   0  0  0  0  0  0  0  0  0  0  0  0
  153.5488  138.8400  159.7757 H   0  0  0  0  0  0  0  0  0  0  0  0
  155.2021  141.1775  160.8482 H   0  0  0  0  0  0  0  0  0  0  0  0
  155.7170  139.6523  162.6222 H   0  0  0  0  0  0  0  0  0  0  0  0
  155.4414  138.2437  161.5992 H   0  0  0  0  0  0  0  0  0  0  0  0
  157.9401  139.7825  161.8345 H   0  0  0  0  0  0  0  0  0  0  0  0
  157.6452  138.2263  161.0591 H   0  0  0  0  0  0  0  0  0  0  0  0
  157.5679  140.9775  159.8612 H   0  0  0  0  0  0  0  0  0  0  0  0
  157.8780  139.4434  159.0400 H   0  0  0  0  0  0  0  0  0  0  0  0
  1  2  1  0  0  0  0
  1 20  1  0  0  0  0
  2  3  1  0  0  0  0
  2 21  1  0  0  0  0
  2 22  1  0  0  0  0
  3  4  1  0  0  0  0
  3 23  1  0  0  0  0
  3 24  1  0  0  0  0
  4  5  1  0  0  0  0
  4 25  1  0  0  0  0
  5 13  1  0  0  0  0
  5  6  2  0  0  0  0
  6  7  1  0  0  0  0
  7 12  2  0  0  0  0
  7  8  1  0  0  0  0
  8  9  2  0  0  0  0
  8 26  1  0  0  0  0
  9 10  1  0  0  0  0
  9 27  1  0  0  0  0
 10 11  2  0  0  0  0
 10 28  1  0  0  0  0
 11 12  1  0  0  0  0
 11 29  1  0  0  0  0
 12 13  1  0  0  0  0
 13 14  1  0  0  0  0
 14 15  1  0  0  0  0
 14 30  1  0  0  0  0
 14 31  1  0  0  0  0
 15 19  1  0  0  0  0
 15 16  1  0  0  0  0
 15 32  1  0  0  0  0
 16 17  1  0  0  0  0
 16 33  1  0  0  0  0
 16 34  1  0  0  0  0
 17 18  1  0  0  0  0
 17 35  1  0  0  0  0
 17 36  1  0  0  0  0
 18 19  1  0  0  0  0
 18 37  1  0  0  0  0
 18 38  1  0  0  0  0
M  END
> <s_m_source_file>
AV-unprocessed.smi

> <i_m_source_file_index>
2579

> <i_lp_mmshare_version>
43012

> <i_f3d_flags>
0

> <s_epik_input>
W09IXVtDSDJdW0NIMl1bTkhdYyhuMSluKGMoYzEyKVtjSF1bY0hdW2NIXVtjSF0yKVtDSDJdW0NAQEhdM1tDSDJdW0NIMl1bQ0gyXU8z

> <s_epik_cmdline>
J2VwaWtfcHl0aG9uJywgJy1waCcsICc3LjAnLCAnLXRuJywgJzgnLCAnLW1hJywgJzIwMCcsICctbWV0YWxfYmluZGluZycsICctaW1hZScsICc8aW5maWxlLm1hZT4nLCAnLW9tYWUnLCAnPG91dGZpbGUubWFlPic=

> <r_epik_Ionization_Penalty>
1.27244

> <r_epik_Ionization_Penalty_Charging>
0

> <r_epik_Ionization_Penalty_Neutral>
1.27244

> <r_epik_State_Penalty>
1.34401

> <r_epik_Charging_Adjusted_Penalty>
1.34401

> <i_epik_Tot_Q>
0

> <i_epik_Tot_abs_Q>
0

> <r_epik_Metal_State_Penalty>
0.00511131

> <b_epik_Metal_Only>
0

> <s_lp_Force_Field>
OPLS_2005

> <r_lp_Energy>
20.6152

> <b_lp_Chiralities_Consistent>
1

> <s_lp_Variant>
AV-unprocessed.smi:2579-4

> <Gold.Version>
5.8.1

> <Gold.Id.Protein>
6NUR|6NUR_protein|mol2

> <Gold.PLP.Fitness>
45.8419

> <Gold.PLP.PLP>
-40.3190

> <Gold.PLP.part.hbond>
-1.9410

> <Gold.PLP.part.metal>
0.0000

> <Gold.PLP.part.buried>
-5.0916

> <Gold.PLP.part.nonpolar>
-32.8617

> <Gold.PLP.part.repulsive>
0.4728

> <Gold.PLP.ligand.clash>
0.0000

> <Gold.PLP.ligand.torsion>
0.2501

> <Gold.PLP.Chemscore.Hbond>
2.0000

> <Gold.PLP.Chemscore.CHOScore>
0.0000

> <Gold.PLP.Chemscore.Metal>
0.0000

> <Gold.Chemscore.Hbonds>
donor molecule, donor type, donor heavy atom, donor atom, acceptor molecule, acceptor atom, score
      P1  H  7989  7998       L1     1  0.68
      P1  H  7997  8008       L1    19  0.89

> <Gold.PLP.Chemscore.Internal.Correction>
0.0230

> <Gold.Rescore>
     Score         DG    S(hbond)    S(metal)    S(lipo)     H(rot)  DE(clash)    DE(int)     intcor
     16.86     -18.76       1.83        0.00     108.61       2.17       0.07       1.83       ----

> <Gold.Chemscore.Fitness>
16.8574

> <Gold.Chemscore.DG>
-18.7634

> <Gold.Chemscore.ZeroCoef>
-5.4800

> <Gold.Chemscore.Hbond>
1.8348

> <Gold.Chemscore.Metal>
0.0000

> <Gold.Chemscore.Lipo>
108.6103

> <Gold.Chemscore.Internal_Hbond>
0.0000

> <Gold.Chemscore.DEClash>
0.0727

> <Gold.Chemscore.DEInternal>
1.8333

> <Gold.Chemscore.Rot>
2.1688

> <Gold.Chemscore.Internal.Correction>
   9.000000E+99

> <Gold.Chemscore.Hbonds>
donor molecule, donor type, donor heavy atom, donor atom, acceptor molecule, acceptor atom, score
      P1  H  7989  7998       L1     1  0.54
      P1  H  7997  8008       L1    19  0.80

> <Gold.Chemscore.Hbond.Weighted>
-6.1282

> <Gold.Chemscore.Metal.Weighted>
-0.0000

> <Gold.Chemscore.Lipo.Weighted>
-12.7074

> <Gold.Chemscore.Internal_Hbond.Weighted>
0.0000

> <Gold.Chemscore.DEClash.Weighted>
0.0727

> <Gold.Chemscore.DEInternal.Weighted>
1.8333

> <Gold.Chemscore.Rot.Weighted>
5.5522

> <Gold.Chemscore.Internal.Correction.Weighted>
   9.000000E+99

> <Gold.Protein.RotatedTorsions>
[ 6907 6896 6895 6894 ] final -177.53 input  -60.11 | X-H torsion
[ 7974 7965 7964 7962 ] final -124.88 input  175.53 | X-H torsion
[ 8008 7997 7996 7995 ] final -142.91 input   59.86 | X-H torsion
[ 10167 10162 10161 10158 ] final   94.38 input  -65.29 | X-H torsion
[ 10718 10713 10712 10709 ] final  -58.47 input   66.30 | X-H torsion
[ 10763 10752 10751 10750 ] final -126.63 input  -60.55 | X-H torsion
[ 11005 11000 10999 10996 ] final   87.70 input  -57.11 | X-H torsion

> <Gold.Protein.ActiveResidues>
 VAL166  LYS551  ARG553  GLY616  TRP617  ASP618  TYR619  PRO620  LYS621  CYS622 
 ASP623  PHE694  ASN695  SER759  ASP760  ASP761  ALA762  ILE779  LEU786  VAL792 
 PHE793  MET794  SER795  GLU796  ALA797  LYS798  CYS799  TRP800  GLU811  SER814 

> <Gold.Protein.RotatedAtoms>
  151.6225  133.3338  159.3090 H   0  0  0  0  0  0  0  0  0  0  0  0  # atno 6907 bound_to 6896
  150.8098  134.7250  159.6689 H   0  0  0  0  0  0  0  0  0  0  0  0  # atno 6908 bound_to 6896
  152.4195  134.5986  160.0045 H   0  0  0  0  0  0  0  0  0  0  0  0  # atno 6909 bound_to 6896
  145.0034  140.7841  143.4482 H   0  0  0  0  0  0  0  0  0  0  0  0  # atno 7974 bound_to 7965
  155.5019  140.0576  157.2937 H   0  0  0  0  0  0  0  0  0  0  0  0  # atno 8008 bound_to 7997
  154.4584  140.1984  156.0264 H   0  0  0  0  0  0  0  0  0  0  0  0  # atno 8009 bound_to 7997
  156.0843  140.3242  155.7738 H   0  0  0  0  0  0  0  0  0  0  0  0  # atno 8010 bound_to 7997
  139.8089  144.6782  150.9667 H   0  0  0  0  0  0  0  0  0  0  0  0  # atno 10167 bound_to 10162
  156.1133  130.4173  150.0582 H   0  0  0  0  0  0  0  0  0  0  0  0  # atno 10718 bound_to 10713
  154.8747  135.3989  154.3463 H   0  0  0  0  0  0  0  0  0  0  0  0  # atno 10763 bound_to 10752
  153.4255  135.7024  153.6271 H   0  0  0  0  0  0  0  0  0  0  0  0  # atno 10764 bound_to 10752
  153.4915  135.3747  155.2464 H   0  0  0  0  0  0  0  0  0  0  0  0  # atno 10765 bound_to 10752
  139.8913  134.8440  156.2897 H   0  0  0  0  0  0  0  0  0  0  0  0  # atno 11005 bound_to 11000
  145.2122  139.2199  143.5137 LP  0  0  0  0  0  0  0  0  0  0  0  0  # atno 17320 bound_to 7965
  146.3456  140.1962  142.8589 LP  0  0  0  0  0  0  0  0  0  0  0  0  # atno 17321 bound_to 7965
  140.7818  143.4205  151.0848 LP  0  0  0  0  0  0  0  0  0  0  0  0  # atno 17342 bound_to 10162
  139.7873  143.8269  152.3147 LP  0  0  0  0  0  0  0  0  0  0  0  0  # atno 17343 bound_to 10162
  156.8539  130.9468  151.3623 LP  0  0  0  0  0  0  0  0  0  0  0  0  # atno 17370 bound_to 10713
  157.6315  130.8733  149.9282 LP  0  0  0  0  0  0  0  0  0  0  0  0  # atno 17371 bound_to 10713
  140.9984  133.7166  156.0922 LP  0  0  0  0  0  0  0  0  0  0  0  0  # atno 17394 bound_to 11000
  140.7531  134.4023  157.5538 LP  0  0  0  0  0  0  0  0  0  0  0  0  # atno 17395 bound_to 11000

$$$$
