AV-unprocessed.smi:2224|AV-procd|sdf|8997|dock2
  -GOLD-   2272012203D 1   1.00000     0.00000
 Structure written by MMmdl.
 44 46  0  0  0  0  0  0  0  0  1 V2000
  144.6937  132.4531  150.5718 C   0  0  0  0  0  0  0  0  0  0  0  0
  144.5207  133.5954  151.5506 C   0  0  0  0  0  0  0  0  0  0  0  0
  143.2561  133.8997  152.0897 C   0  0  0  0  0  0  0  0  0  0  0  0
  143.1609  134.9745  152.9952 C   0  0  0  0  0  0  0  0  0  0  0  0
  141.8327  135.3548  153.6152 C   0  0  0  0  0  0  0  0  0  0  0  0
  144.2231  135.7201  153.3679 N   0  0  0  0  0  0  0  0  0  0  0  0
  145.4461  135.4365  152.8549 C   0  0  0  0  0  0  0  0  0  0  0  0
  146.6249  136.1580  153.1834 N   0  0  0  0  0  0  0  0  0  0  0  0
  146.8074  137.0397  154.1823 C   0  0  0  0  0  0  0  0  0  0  0  0
  145.9475  137.3909  154.9905 O   0  0  0  0  0  0  0  0  0  0  0  0
  148.0664  137.4988  154.2016 N   0  0  0  0  0  0  0  0  0  0  0  0
  148.5810  138.4665  155.1767 C   0  0  2  0  0  0  0  0  0  0  0  0
  148.0077  139.8719  154.9749 C   0  0  2  0  0  0  0  0  0  0  0  0
  146.8403  140.4545  154.2636 C   0  0  0  0  0  0  0  0  0  0  0  0
  147.5707  141.6926  153.6755 C   0  0  0  0  0  0  0  0  0  0  0  0
  148.9847  141.4760  153.9183 O   0  0  0  0  0  0  0  0  0  0  0  0
  149.1111  140.0682  153.9563 C   0  0  1  0  0  0  0  0  0  0  0  0
  149.9750  139.1210  154.8186 C   0  0  0  0  0  0  0  0  0  0  0  0
  150.7736  139.7540  155.9725 C   0  0  0  0  0  0  0  0  0  0  0  0
  150.9772  138.2598  154.0418 C   0  0  0  0  0  0  0  0  0  0  0  0
  145.6283  134.3759  151.9390 C   0  0  0  0  0  0  0  0  0  0  0  0
  143.7626  131.9019  150.4371 H   0  0  0  0  0  0  0  0  0  0  0  0
  145.4518  131.7577  150.9324 H   0  0  0  0  0  0  0  0  0  0  0  0
  145.0093  132.8335  149.6001 H   0  0  0  0  0  0  0  0  0  0  0  0
  142.3829  133.3250  151.8170 H   0  0  0  0  0  0  0  0  0  0  0  0
  141.0062  134.8389  153.1254 H   0  0  0  0  0  0  0  0  0  0  0  0
  141.6619  136.4281  153.5262 H   0  0  0  0  0  0  0  0  0  0  0  0
  141.8212  135.0913  154.6731 H   0  0  0  0  0  0  0  0  0  0  0  0
  147.4244  135.9725  152.5964 H   0  0  0  0  0  0  0  0  0  0  0  0
  148.7131  137.1622  153.5034 H   0  0  0  0  0  0  0  0  0  0  0  0
  148.5146  138.1285  156.2122 H   0  0  0  0  0  0  0  0  0  0  0  0
  148.1734  140.4430  155.8917 H   0  0  0  0  0  0  0  0  0  0  0  0
  146.4588  139.7947  153.4834 H   0  0  0  0  0  0  0  0  0  0  0  0
  146.0256  140.7268  154.9350 H   0  0  0  0  0  0  0  0  0  0  0  0
  147.3777  141.7857  152.6060 H   0  0  0  0  0  0  0  0  0  0  0  0
  147.2563  142.6186  154.1576 H   0  0  0  0  0  0  0  0  0  0  0  0
  148.8920  139.6408  152.9724 H   0  0  0  0  0  0  0  0  0  0  0  0
  151.5199  140.4546  155.5969 H   0  0  0  0  0  0  0  0  0  0  0  0
  151.3026  138.9956  156.5504 H   0  0  0  0  0  0  0  0  0  0  0  0
  150.1552  140.3030  156.6806 H   0  0  0  0  0  0  0  0  0  0  0  0
  151.8605  138.8318  153.7563 H   0  0  0  0  0  0  0  0  0  0  0  0
  150.5496  137.8641  153.1205 H   0  0  0  0  0  0  0  0  0  0  0  0
  151.3131  137.4077  154.6338 H   0  0  0  0  0  0  0  0  0  0  0  0
  146.6079  134.1597  151.5371 H   0  0  0  0  0  0  0  0  0  0  0  0
  1  2  1  0  0  0  0
  1 22  1  0  0  0  0
  1 23  1  0  0  0  0
  1 24  1  0  0  0  0
  2 21  1  0  0  0  0
  2  3  2  0  0  0  0
  3  4  1  0  0  0  0
  3 25  1  0  0  0  0
  4  5  1  0  0  0  0
  4  6  2  0  0  0  0
  5 26  1  0  0  0  0
  5 27  1  0  0  0  0
  5 28  1  0  0  0  0
  6  7  1  0  0  0  0
  7  8  1  0  0  0  0
  7 21  2  0  0  0  0
  8  9  1  0  0  0  0
  8 29  1  0  0  0  0
  9 10  2  0  0  0  0
  9 11  1  0  0  0  0
 11 12  1  0  0  0  0
 11 30  1  0  0  0  0
 12 18  1  0  0  0  0
 12 13  1  0  0  0  0
 12 31  1  0  0  0  0
 13 17  1  0  0  0  0
 13 14  1  0  0  0  0
 13 32  1  0  0  0  0
 14 15  1  0  0  0  0
 14 33  1  0  0  0  0
 14 34  1  0  0  0  0
 15 16  1  0  0  0  0
 15 35  1  0  0  0  0
 15 36  1  0  0  0  0
 16 17  1  0  0  0  0
 17 18  1  0  0  0  0
 17 37  1  0  0  0  0
 18 19  1  0  0  0  0
 18 20  1  0  0  0  0
 19 38  1  0  0  0  0
 19 39  1  0  0  0  0
 19 40  1  0  0  0  0
 20 41  1  0  0  0  0
 20 42  1  0  0  0  0
 20 43  1  0  0  0  0
 21 44  1  0  0  0  0
M  END
> <s_m_source_file>
AV-unprocessed.smi

> <i_m_source_file_index>
2224

> <i_lp_mmshare_version>
43012

> <i_f3d_flags>
0

> <s_epik_input>
W0NIM11jMVtjSF1jKFtDSDNdKW5jKFtjSF0xKVtOSF1DKD1PKVtOSF1bQ0BIXTJDKFtDSDNdKShbQ0gzXSlbQ0BIXShbQ0BASF0yMylPW0NIMl1bQ0gyXTM=

> <s_epik_cmdline>
J2VwaWtfcHl0aG9uJywgJy1waCcsICc3LjAnLCAnLXRuJywgJzgnLCAnLW1hJywgJzIwMCcsICctbWV0YWxfYmluZGluZycsICctaW1hZScsICc8aW5maWxlLm1hZT4nLCAnLW9tYWUnLCAnPG91dGZpbGUubWFlPic=

> <r_lp_tautomer_probability>
1

> <r_epik_Ionization_Penalty>
0.000276544

> <r_epik_Ionization_Penalty_Charging>
0

> <r_epik_Ionization_Penalty_Neutral>
0.000276544

> <r_epik_State_Penalty>
-0

> <r_epik_Charging_Adjusted_Penalty>
0

> <i_epik_Tot_Q>
0

> <i_epik_Tot_abs_Q>
0

> <r_epik_Metal_State_Penalty>
-0

> <b_epik_Metal_Only>
0

> <s_lp_Force_Field>
OPLS_2005

> <r_lp_Energy>
64.3879

> <b_lp_Chiralities_Consistent>
1

> <s_lp_Variant>
AV-unprocessed.smi:2224-7

> <Gold.Version>
5.8.1

> <Gold.Id.Protein>
6NUR|6NUR_protein|mol2

> <Gold.PLP.Fitness>
39.7913

> <Gold.PLP.PLP>
-31.7805

> <Gold.PLP.part.hbond>
-3.4098

> <Gold.PLP.part.metal>
0.0000

> <Gold.PLP.part.buried>
-4.3560

> <Gold.PLP.part.nonpolar>
-24.0950

> <Gold.PLP.part.repulsive>
0.2867

> <Gold.PLP.ligand.clash>
0.0000

> <Gold.PLP.ligand.torsion>
0.1680

> <Gold.PLP.Chemscore.Hbond>
2.6960

> <Gold.PLP.Chemscore.CHOScore>
0.0000

> <Gold.PLP.Chemscore.Metal>
0.0000

> <Gold.Chemscore.Hbonds>
donor molecule, donor type, donor heavy atom, donor atom, acceptor molecule, acceptor atom, score
      L1  H     8    29       P1  7948  1.00
      L1  H    11    30       P1  7948  0.96
      P1  H  8011  8017       L1    16  0.72

> <Gold.PLP.Chemscore.Internal.Correction>
0.2589

> <Gold.Rescore>
     Score         DG    S(hbond)    S(metal)    S(lipo)     H(rot)  DE(clash)    DE(int)     intcor
     17.17     -18.78       2.03        0.00      77.66       1.00       0.18       1.44       ----

> <Gold.Chemscore.Fitness>
17.1652

> <Gold.Chemscore.DG>
-18.7849

> <Gold.Chemscore.ZeroCoef>
-5.4800

> <Gold.Chemscore.Hbond>
2.0295

> <Gold.Chemscore.Metal>
0.0000

> <Gold.Chemscore.Lipo>
77.6617

> <Gold.Chemscore.Internal_Hbond>
0.0000

> <Gold.Chemscore.DEClash>
0.1815

> <Gold.Chemscore.DEInternal>
1.4383

> <Gold.Chemscore.Rot>
1.0000

> <Gold.Chemscore.Internal.Correction>
   9.000000E+99

> <Gold.Chemscore.Hbonds>
donor molecule, donor type, donor heavy atom, donor atom, acceptor molecule, acceptor atom, score
      L1  H     8    29       P1  7948  0.99
      L1  H    11    30       P1  7948  0.92
      P1  H  8011  8017       L1    16  0.19

> <Gold.Chemscore.Hbond.Weighted>
-6.7785

> <Gold.Chemscore.Metal.Weighted>
-0.0000

> <Gold.Chemscore.Lipo.Weighted>
-9.0864

> <Gold.Chemscore.Internal_Hbond.Weighted>
0.0000

> <Gold.Chemscore.DEClash.Weighted>
0.1815

> <Gold.Chemscore.DEInternal.Weighted>
1.4383

> <Gold.Chemscore.Rot.Weighted>
2.5600

> <Gold.Chemscore.Internal.Correction.Weighted>
   9.000000E+99

> <Gold.Protein.RotatedTorsions>
[ 6907 6896 6895 6894 ] final -157.50 input  -60.11 | X-H torsion
[ 7974 7965 7964 7962 ] final  125.46 input  175.53 | X-H torsion
[ 8008 7997 7996 7995 ] final   85.04 input   59.86 | X-H torsion
[ 10167 10162 10161 10158 ] final  137.41 input  -65.29 | X-H torsion
[ 10718 10713 10712 10709 ] final  -46.26 input   66.30 | X-H torsion
[ 10763 10752 10751 10750 ] final  -78.89 input  -60.55 | X-H torsion
[ 11005 11000 10999 10996 ] final  102.78 input  -57.11 | X-H torsion

> <Gold.Protein.ActiveResidues>
 VAL166  LYS551  ARG553  GLY616  TRP617  ASP618  TYR619  PRO620  LYS621  CYS622 
 ASP623  PHE694  ASN695  SER759  ASP760  ASP761  ALA762  ILE779  LEU786  VAL792 
 PHE793  MET794  SER795  GLU796  ALA797  LYS798  CYS799  TRP800  GLU811  SER814 

> <Gold.Protein.RotatedAtoms>
  151.3038  133.4111  159.2641 H   0  0  0  0  0  0  0  0  0  0  0  0  # atno 6907 bound_to 6896
  151.0173  134.9443  159.8050 H   0  0  0  0  0  0  0  0  0  0  0  0  # atno 6908 bound_to 6896
  152.5315  134.3001  159.9128 H   0  0  0  0  0  0  0  0  0  0  0  0  # atno 6909 bound_to 6896
  145.0728  139.3717  143.4949 H   0  0  0  0  0  0  0  0  0  0  0  0  # atno 7974 bound_to 7965
  155.9449  140.3405  155.6358 H   0  0  0  0  0  0  0  0  0  0  0  0  # atno 8008 bound_to 7997
  155.6993  140.0758  157.2435 H   0  0  0  0  0  0  0  0  0  0  0  0  # atno 8009 bound_to 7997
  154.4110  140.1643  156.2160 H   0  0  0  0  0  0  0  0  0  0  0  0  # atno 8010 bound_to 7997
  139.5145  144.6411  151.5565 H   0  0  0  0  0  0  0  0  0  0  0  0  # atno 10167 bound_to 10162
  156.2201  130.4165  149.9004 H   0  0  0  0  0  0  0  0  0  0  0  0  # atno 10718 bound_to 10713
  154.5317  135.5714  153.6764 H   0  0  0  0  0  0  0  0  0  0  0  0  # atno 10763 bound_to 10752
  152.9941  135.6206  154.2620 H   0  0  0  0  0  0  0  0  0  0  0  0  # atno 10764 bound_to 10752
  154.2547  135.2858  155.2782 H   0  0  0  0  0  0  0  0  0  0  0  0  # atno 10765 bound_to 10752
  139.8779  134.9238  156.5110 H   0  0  0  0  0  0  0  0  0  0  0  0  # atno 11005 bound_to 11000
  146.3529  140.0481  142.8638 LP  0  0  0  0  0  0  0  0  0  0  0  0  # atno 17320 bound_to 7965
  145.1272  140.9497  143.4565 LP  0  0  0  0  0  0  0  0  0  0  0  0  # atno 17321 bound_to 7965
  140.6178  143.9315  150.6502 LP  0  0  0  0  0  0  0  0  0  0  0  0  # atno 17342 bound_to 10162
  140.2579  143.3545  152.1349 LP  0  0  0  0  0  0  0  0  0  0  0  0  # atno 17343 bound_to 10162
  156.6653  130.8798  151.3554 LP  0  0  0  0  0  0  0  0  0  0  0  0  # atno 17370 bound_to 10713
  157.7083  130.9410  150.1004 LP  0  0  0  0  0  0  0  0  0  0  0  0  # atno 17371 bound_to 10713
  140.8520  133.8125  155.9178 LP  0  0  0  0  0  0  0  0  0  0  0  0  # atno 17394 bound_to 11000
  140.9135  134.2231  157.4971 LP  0  0  0  0  0  0  0  0  0  0  0  0  # atno 17395 bound_to 11000

$$$$
