AV-unprocessed.smi:308|AV-procd|sdf|2288|dock3
  -GOLD-   2262022183D 1   1.00000     0.00000
 Structure written by MMmdl.
 50 51  0  0  0  0  0  0  0  0  2 V2000
  144.2579  132.6701  151.7646 C   0  0  0  0  0  0  0  0  0  0  0  0
  145.6251  133.2288  151.3326 C   0  0  2  0  0  0  0  0  0  0  0  0
  146.4806  133.6962  152.5238 C   0  0  0  0  0  0  0  0  0  0  0  0
  145.9741  135.0216  153.1213 C   0  0  0  0  0  0  0  0  0  0  0  0
  145.8921  136.0860  152.0878 N   0  3  2  0  0  0  0  0  0  0  0  0
  145.5238  137.4014  152.6697 C   0  0  0  0  0  0  0  0  0  0  0  0
  146.3348  138.5630  152.0631 C   0  0  0  0  0  0  0  0  0  0  0  0
  147.6623  138.6588  152.6598 N   0  0  0  0  0  0  0  0  0  0  0  0
  147.9891  139.4750  153.6720 C   0  0  0  0  0  0  0  0  0  0  0  0
  147.1842  140.2310  154.2157 O   0  0  0  0  0  0  0  0  0  0  0  0
  149.2905  139.3626  153.9883 N   0  0  0  0  0  0  0  0  0  0  0  0
  150.0216  140.0621  154.9863 C   0  0  0  0  0  0  0  0  0  0  0  0
  151.2546  139.6288  155.5254 C   0  0  0  0  0  0  0  0  0  0  0  0
  151.8883  140.4186  156.5041 C   0  0  0  0  0  0  0  0  0  0  0  0
  151.2822  141.6303  156.9196 C   0  0  0  0  0  0  0  0  0  0  0  0
  151.8774  142.4539  157.9026 N   0  0  0  0  0  0  0  0  0  0  0  0
  151.5661  143.8792  157.9415 C   0  0  0  0  0  0  0  0  0  0  0  0
  152.7311  141.8694  158.9295 C   0  0  0  0  0  0  0  0  0  0  0  0
  150.1087  142.0480  156.3848 N   0  0  0  0  0  0  0  0  0  0  0  0
  149.5050  141.2884  155.4477 C   0  0  0  0  0  0  0  0  0  0  0  0
  145.0157  135.6822  150.9558 C   0  0  0  0  0  0  0  0  0  0  0  0
  145.5057  134.3734  150.3105 C   0  0  0  0  0  0  0  0  0  0  0  0
  143.6446  133.4195  152.2642 H   0  0  0  0  0  0  0  0  0  0  0  0
  144.3788  131.8328  152.4524 H   0  0  0  0  0  0  0  0  0  0  0  0
  143.6961  132.3057  150.9042 H   0  0  0  0  0  0  0  0  0  0  0  0
  146.1543  132.4072  150.8480 H   0  0  0  0  0  0  0  0  0  0  0  0
  146.5095  132.9248  153.2941 H   0  0  0  0  0  0  0  0  0  0  0  0
  147.5114  133.8294  152.1920 H   0  0  0  0  0  0  0  0  0  0  0  0
  144.9966  134.8850  153.5858 H   0  0  0  0  0  0  0  0  0  0  0  0
  146.6561  135.3327  153.9136 H   0  0  0  0  0  0  0  0  0  0  0  0
  144.4511  137.5629  152.5510 H   0  0  0  0  0  0  0  0  0  0  0  0
  145.7144  137.3860  153.7438 H   0  0  0  0  0  0  0  0  0  0  0  0
  146.4564  138.4095  150.9905 H   0  0  0  0  0  0  0  0  0  0  0  0
  145.8225  139.5178  152.1835 H   0  0  0  0  0  0  0  0  0  0  0  0
  148.3853  138.0745  152.2657 H   0  0  0  0  0  0  0  0  0  0  0  0
  149.8398  138.7523  153.4009 H   0  0  0  0  0  0  0  0  0  0  0  0
  151.7341  138.7182  155.2022 H   0  0  0  0  0  0  0  0  0  0  0  0
  152.8286  140.0807  156.9122 H   0  0  0  0  0  0  0  0  0  0  0  0
  150.5034  144.0335  158.1320 H   0  0  0  0  0  0  0  0  0  0  0  0
  151.8215  144.3540  156.9935 H   0  0  0  0  0  0  0  0  0  0  0  0
  152.1248  144.3873  158.7276 H   0  0  0  0  0  0  0  0  0  0  0  0
  153.6287  141.4418  158.4821 H   0  0  0  0  0  0  0  0  0  0  0  0
  152.2010  141.0848  159.4702 H   0  0  0  0  0  0  0  0  0  0  0  0
  153.0454  142.6173  159.6575 H   0  0  0  0  0  0  0  0  0  0  0  0
  148.5730  141.6722  155.0587 H   0  0  0  0  0  0  0  0  0  0  0  0
  143.9888  135.5726  151.3073 H   0  0  0  0  0  0  0  0  0  0  0  0
  144.9989  136.4594  150.1933 H   0  0  0  0  0  0  0  0  0  0  0  0
  146.4811  134.5481  149.8541 H   0  0  0  0  0  0  0  0  0  0  0  0
  144.8396  134.0854  149.4963 H   0  0  0  0  0  0  0  0  0  0  0  0
  146.8258  136.1872  151.7162 H   0  0  0  0  0  0  0  0  0  0  0  0
  1  2  1  0  0  0  0
  1 23  1  0  0  0  0
  1 24  1  0  0  0  0
  1 25  1  0  0  0  0
  2 22  1  0  0  0  0
  2  3  1  0  0  0  0
  2 26  1  0  0  0  0
  3  4  1  0  0  0  0
  3 27  1  0  0  0  0
  3 28  1  0  0  0  0
  4  5  1  0  0  0  0
  4 29  1  0  0  0  0
  4 30  1  0  0  0  0
  5  6  1  0  0  0  0
  5 21  1  0  0  0  0
  5 50  1  0  0  0  0
  6  7  1  0  0  0  0
  6 31  1  0  0  0  0
  6 32  1  0  0  0  0
  7  8  1  0  0  0  0
  7 33  1  0  0  0  0
  7 34  1  0  0  0  0
  8  9  1  0  0  0  0
  8 35  1  0  0  0  0
  9 10  2  0  0  0  0
  9 11  1  0  0  0  0
 11 12  1  0  0  0  0
 11 36  1  0  0  0  0
 12 20  1  0  0  0  0
 12 13  2  0  0  0  0
 13 14  1  0  0  0  0
 13 37  1  0  0  0  0
 14 15  2  0  0  0  0
 14 38  1  0  0  0  0
 15 16  1  0  0  0  0
 15 19  1  0  0  0  0
 16 17  1  0  0  0  0
 16 18  1  0  0  0  0
 17 39  1  0  0  0  0
 17 40  1  0  0  0  0
 17 41  1  0  0  0  0
 18 42  1  0  0  0  0
 18 43  1  0  0  0  0
 18 44  1  0  0  0  0
 19 20  2  0  0  0  0
 20 45  1  0  0  0  0
 21 22  1  0  0  0  0
 21 46  1  0  0  0  0
 21 47  1  0  0  0  0
 22 48  1  0  0  0  0
 22 49  1  0  0  0  0
M  CHG  1   5   1
M  END
> <s_m_source_file>
AV-unprocessed.smi

> <i_m_source_file_index>
308

> <i_lp_mmshare_version>
43012

> <i_f3d_flags>
0

> <s_epik_input>
W0NIM11bQ0hdMVtDSDJdW0NIMl1OKFtDSDJdW0NIMl0xKVtDSDJdW0NIMl1bTkhdQyg9TylbTkhdYzJbY0hdW2NIXWMoTihbQ0gzXSlbQ0gzXSluW2NIXTI=

> <s_epik_cmdline>
J2VwaWtfcHl0aG9uJywgJy1waCcsICc3LjAnLCAnLXRuJywgJzgnLCAnLW1hJywgJzIwMCcsICctbWV0YWxfYmluZGluZycsICctaW1hZScsICc8aW5maWxlLm1hZT4nLCAnLW9tYWUnLCAnPG91dGZpbGUubWFlPic=

> <r_lp_tautomer_probability>
1

> <r_epik_Ionization_Penalty>
0.536661

> <r_epik_Ionization_Penalty_Charging>
0.00139388

> <r_epik_Ionization_Penalty_Neutral>
0.535267

> <r_epik_State_Penalty>
0.543381

> <r_epik_Charging_Adjusted_Penalty>
0.544775

> <i_epik_Tot_Q>
1

> <i_epik_Tot_abs_Q>
1

> <r_epik_Metal_State_Penalty>
0.284523

> <b_epik_Metal_Only>
0

> <s_lp_Force_Field>
OPLS_2005

> <r_lp_Energy>
22.9976

> <b_lp_Chiralities_Consistent>
1

> <s_lp_Variant>
AV-unprocessed.smi:308-4

> <Gold.Version>
5.8.1

> <Gold.Id.Protein>
6NUR|6NUR_protein|mol2

> <Gold.PLP.Fitness>
47.1867

> <Gold.PLP.PLP>
-40.6857

> <Gold.PLP.part.hbond>
-4.0000

> <Gold.PLP.part.metal>
0.0000

> <Gold.PLP.part.buried>
-2.3137

> <Gold.PLP.part.nonpolar>
-35.0793

> <Gold.PLP.part.repulsive>
1.0216

> <Gold.PLP.ligand.clash>
0.0000

> <Gold.PLP.ligand.torsion>
1.1748

> <Gold.PLP.Chemscore.Hbond>
2.9280

> <Gold.PLP.Chemscore.CHOScore>
0.0000

> <Gold.PLP.Chemscore.Metal>
0.0000

> <Gold.Chemscore.Hbonds>
donor molecule, donor type, donor heavy atom, donor atom, acceptor molecule, acceptor atom, score
      L1  H     5    50       P1  7948  1.62
      L1  H     8    35       P1  7948  0.94

> <Gold.PLP.Chemscore.Internal.Correction>
0.0665

> <Gold.Rescore>
     Score         DG    S(hbond)    S(metal)    S(lipo)     H(rot)  DE(clash)    DE(int)     intcor
     15.89     -18.40       1.87        0.00      88.29       1.42       0.01       2.50       ----

> <Gold.Chemscore.Fitness>
15.8872

> <Gold.Chemscore.DG>
-18.3956

> <Gold.Chemscore.ZeroCoef>
-5.4800

> <Gold.Chemscore.Hbond>
1.8657

> <Gold.Chemscore.Metal>
0.0000

> <Gold.Chemscore.Lipo>
88.2882

> <Gold.Chemscore.Internal_Hbond>
0.0000

> <Gold.Chemscore.DEClash>
0.0060

> <Gold.Chemscore.DEInternal>
2.5024

> <Gold.Chemscore.Rot>
1.4241

> <Gold.Chemscore.Internal.Correction>
   9.000000E+99

> <Gold.Chemscore.Hbonds>
donor molecule, donor type, donor heavy atom, donor atom, acceptor molecule, acceptor atom, score
      L1  H     5    50       P1  7948  0.79
      L1  H     8    35       P1  7948  0.90

> <Gold.Chemscore.Hbond.Weighted>
-6.2315

> <Gold.Chemscore.Metal.Weighted>
-0.0000

> <Gold.Chemscore.Lipo.Weighted>
-10.3297

> <Gold.Chemscore.Internal_Hbond.Weighted>
0.0000

> <Gold.Chemscore.DEClash.Weighted>
0.0060

> <Gold.Chemscore.DEInternal.Weighted>
2.5024

> <Gold.Chemscore.Rot.Weighted>
3.6456

> <Gold.Chemscore.Internal.Correction.Weighted>
   9.000000E+99

> <Gold.Protein.RotatedTorsions>
[ 6907 6896 6895 6894 ] final   -8.60 input  -60.11 | X-H torsion
[ 7974 7965 7964 7962 ] final  -77.07 input  175.53 | X-H torsion
[ 8008 7997 7996 7995 ] final   -5.18 input   59.86 | X-H torsion
[ 10167 10162 10161 10158 ] final   24.42 input  -65.29 | X-H torsion
[ 10718 10713 10712 10709 ] final  -84.41 input   66.30 | X-H torsion
[ 10763 10752 10751 10750 ] final  109.60 input  -60.55 | X-H torsion
[ 11005 11000 10999 10996 ] final   29.18 input  -57.11 | X-H torsion

> <Gold.Protein.ActiveResidues>
 VAL166  LYS551  ARG553  GLY616  TRP617  ASP618  TYR619  PRO620  LYS621  CYS622 
 ASP623  PHE694  ASN695  SER759  ASP760  ASP761  ALA762  ILE779  LEU786  VAL792 
 PHE793  MET794  SER795  GLU796  ALA797  LYS798  CYS799  TRP800  GLU811  SER814 

> <Gold.Protein.RotatedAtoms>
  151.4310  135.1009  159.9641 H   0  0  0  0  0  0  0  0  0  0  0  0  # atno 6907 bound_to 6896
  152.4956  133.8618  159.7264 H   0  0  0  0  0  0  0  0  0  0  0  0  # atno 6908 bound_to 6896
  150.9155  133.6886  159.2872 H   0  0  0  0  0  0  0  0  0  0  0  0  # atno 6909 bound_to 6896
  145.6046  140.9401  143.1222 H   0  0  0  0  0  0  0  0  0  0  0  0  # atno 7974 bound_to 7965
  154.6065  140.2465  155.7724 H   0  0  0  0  0  0  0  0  0  0  0  0  # atno 8008 bound_to 7997
  156.2344  140.2955  156.0225 H   0  0  0  0  0  0  0  0  0  0  0  0  # atno 8009 bound_to 7997
  155.2123  140.0397  157.2925 H   0  0  0  0  0  0  0  0  0  0  0  0  # atno 8010 bound_to 7997
  140.5190  144.0035  150.6407 H   0  0  0  0  0  0  0  0  0  0  0  0  # atno 10167 bound_to 10162
  156.0006  130.4697  150.4406 H   0  0  0  0  0  0  0  0  0  0  0  0  # atno 10718 bound_to 10713
  153.4371  135.3775  155.2205 H   0  0  0  0  0  0  0  0  0  0  0  0  # atno 10763 bound_to 10752
  154.8752  135.3854  154.4198 H   0  0  0  0  0  0  0  0  0  0  0  0  # atno 10764 bound_to 10752
  153.4738  135.7087  153.6041 H   0  0  0  0  0  0  0  0  0  0  0  0  # atno 10765 bound_to 10752
  140.3077  134.2685  155.7740 H   0  0  0  0  0  0  0  0  0  0  0  0  # atno 11005 bound_to 11000
  144.7295  139.7769  143.7352 LP  0  0  0  0  0  0  0  0  0  0  0  0  # atno 17320 bound_to 7965
  146.1551  139.4646  143.0024 LP  0  0  0  0  0  0  0  0  0  0  0  0  # atno 17321 bound_to 7965
  140.3378  143.3038  152.0620 LP  0  0  0  0  0  0  0  0  0  0  0  0  # atno 17342 bound_to 10162
  139.4917  144.6464  151.6770 LP  0  0  0  0  0  0  0  0  0  0  0  0  # atno 17343 bound_to 10162
  157.2447  131.0533  151.2415 LP  0  0  0  0  0  0  0  0  0  0  0  0  # atno 17370 bound_to 10713
  157.3586  130.7119  149.6487 LP  0  0  0  0  0  0  0  0  0  0  0  0  # atno 17371 bound_to 10713
  141.2115  133.7687  156.9860 LP  0  0  0  0  0  0  0  0  0  0  0  0  # atno 17394 bound_to 11000
  140.1053  134.9510  157.1984 LP  0  0  0  0  0  0  0  0  0  0  0  0  # atno 17395 bound_to 11000

$$$$
