AV-unprocessed.smi:2100|AV-procd|sdf|8576|dock3
  -GOLD-   2272011303D 1   1.00000     0.00000
 Structure written by MMmdl.
 40 41  0  0  0  0  0  0  0  0  2 V2000
  150.9605  141.4999  156.9279 C   0  0  0  0  0  0  0  0  0  0  0  0
  150.5582  140.1108  156.4208 C   0  0  2  0  0  0  0  0  0  0  0  0
  151.3446  138.9948  157.1273 C   0  0  0  0  0  0  0  0  0  0  0  0
  151.0345  137.6774  156.5409 N   0  0  0  0  0  0  0  0  0  0  0  0
  151.5396  136.2663  157.4182 S   0  0  0  0  0  0  0  0  0  0  0  0
  151.6721  135.1810  156.4327 O   0  0  0  0  0  0  0  0  0  0  0  0
  152.7433  136.6697  158.1639 O   0  0  0  0  0  0  0  0  0  0  0  0
  150.2123  136.1162  158.3340 N   0  5  0  0  0  0  0  0  0  0  0  0
  148.9445  136.6361  157.8515 C   0  0  0  0  0  0  0  0  0  0  0  0
  148.2294  137.4195  158.9767 C   0  0  0  0  0  0  0  0  0  0  0  0
  147.7147  136.5659  160.1349 C   0  0  0  0  0  0  0  0  0  0  0  0
  147.7580  135.1543  160.0634 C   0  0  0  0  0  0  0  0  0  0  0  0
  147.2723  134.4067  161.1525 C   0  0  0  0  0  0  0  0  0  0  0  0
  146.7726  135.0919  162.2762 C   0  0  0  0  0  0  0  0  0  0  0  0
  146.7809  136.5007  162.2593 C   0  0  0  0  0  0  0  0  0  0  0  0
  147.2424  137.2282  161.2196 N   0  0  0  0  0  0  0  0  0  0  0  0
  151.2009  137.6543  155.0788 C   0  0  0  0  0  0  0  0  0  0  0  0
  150.4630  138.8269  154.4026 C   0  0  1  0  0  0  0  0  0  0  0  0
  148.9394  138.6226  154.3209 C   0  0  0  0  0  0  0  0  0  0  0  0
  150.8059  140.0649  155.0203 O   0  0  0  0  0  0  0  0  0  0  0  0
  150.7776  141.5931  157.9988 H   0  0  0  0  0  0  0  0  0  0  0  0
  150.3892  142.2793  156.4236 H   0  0  0  0  0  0  0  0  0  0  0  0
  152.0188  141.6937  156.7507 H   0  0  0  0  0  0  0  0  0  0  0  0
  149.4931  139.9818  156.6134 H   0  0  0  0  0  0  0  0  0  0  0  0
  152.4174  139.1717  157.0422 H   0  0  0  0  0  0  0  0  0  0  0  0
  151.1089  139.0054  158.1910 H   0  0  0  0  0  0  0  0  0  0  0  0
  149.0932  137.3005  156.9998 H   0  0  0  0  0  0  0  0  0  0  0  0
  148.2852  135.8430  157.4968 H   0  0  0  0  0  0  0  0  0  0  0  0
  148.8938  138.1892  159.3719 H   0  0  0  0  0  0  0  0  0  0  0  0
  147.3824  137.9570  158.5486 H   0  0  0  0  0  0  0  0  0  0  0  0
  148.1420  134.6578  159.1841 H   0  0  0  0  0  0  0  0  0  0  0  0
  147.2825  133.3271  161.1254 H   0  0  0  0  0  0  0  0  0  0  0  0
  146.3922  134.5515  163.1302 H   0  0  0  0  0  0  0  0  0  0  0  0
  146.4072  137.0586  163.1052 H   0  0  0  0  0  0  0  0  0  0  0  0
  152.2667  137.7075  154.8538 H   0  0  0  0  0  0  0  0  0  0  0  0
  150.8417  136.7084  154.6740 H   0  0  0  0  0  0  0  0  0  0  0  0
  150.8239  138.8948  153.3760 H   0  0  0  0  0  0  0  0  0  0  0  0
  148.6990  137.7508  153.7122 H   0  0  0  0  0  0  0  0  0  0  0  0
  148.4546  139.4865  153.8657 H   0  0  0  0  0  0  0  0  0  0  0  0
  148.4912  138.4622  155.3013 H   0  0  0  0  0  0  0  0  0  0  0  0
  1  2  1  0  0  0  0
  1 21  1  0  0  0  0
  1 22  1  0  0  0  0
  1 23  1  0  0  0  0
  2 20  1  0  0  0  0
  2  3  1  0  0  0  0
  2 24  1  0  0  0  0
  3  4  1  0  0  0  0
  3 25  1  0  0  0  0
  3 26  1  0  0  0  0
  4  5  1  0  0  0  0
  4 17  1  0  0  0  0
  5  6  2  0  0  0  0
  5  7  2  0  0  0  0
  5  8  1  0  0  0  0
  8  9  1  0  0  0  0
  9 10  1  0  0  0  0
  9 27  1  0  0  0  0
  9 28  1  0  0  0  0
 10 11  1  0  0  0  0
 10 29  1  0  0  0  0
 10 30  1  0  0  0  0
 11 16  1  0  0  0  0
 11 12  2  0  0  0  0
 12 13  1  0  0  0  0
 12 31  1  0  0  0  0
 13 14  2  0  0  0  0
 13 32  1  0  0  0  0
 14 15  1  0  0  0  0
 14 33  1  0  0  0  0
 15 16  2  0  0  0  0
 15 34  1  0  0  0  0
 17 18  1  0  0  0  0
 17 35  1  0  0  0  0
 17 36  1  0  0  0  0
 18 19  1  0  0  0  0
 18 20  1  0  0  0  0
 18 37  1  0  0  0  0
 19 38  1  0  0  0  0
 19 39  1  0  0  0  0
 19 40  1  0  0  0  0
M  CHG  1   8  -1
M  END
> <s_m_source_file>
AV-unprocessed.smi

> <i_m_source_file_index>
2100

> <i_lp_mmshare_version>
43012

> <i_f3d_flags>
0

> <s_epik_input>
W0NIM11bQ0BASF0xW0NIMl1OKFtDSDJdW0NASF0oTzEpW0NIM10pUyg9TykoPU8pW05IXVtDSDJdW0NIMl1jMltjSF1bY0hdW2NIXVtjSF1uMg==

> <s_epik_cmdline>
J2VwaWtfcHl0aG9uJywgJy1waCcsICc3LjAnLCAnLXRuJywgJzgnLCAnLW1hJywgJzIwMCcsICctbWV0YWxfYmluZGluZycsICctaW1hZScsICc8aW5maWxlLm1hZT4nLCAnLW9tYWUnLCAnPG91dGZpbGUubWFlPic=

> <r_epik_Ionization_Penalty>
1.27779

> <r_epik_Ionization_Penalty_Charging>
1.20871

> <r_epik_Ionization_Penalty_Neutral>
0.0690773

> <r_epik_State_Penalty>
1.64557

> <r_epik_Charging_Adjusted_Penalty>
2.85428

> <i_epik_Tot_Q>
-1

> <i_epik_Tot_abs_Q>
1

> <r_epik_Metal_State_Penalty>
0.643506

> <b_epik_Metal_Only>
0

> <s_lp_Force_Field>
OPLS_2005

> <r_lp_Energy>
11.2488

> <b_lp_Chiralities_Consistent>
1

> <s_lp_Variant>
AV-unprocessed.smi:2100-4

> <Gold.Version>
5.8.1

> <Gold.Id.Protein>
6NUR|6NUR_protein|mol2

> <Gold.PLP.Fitness>
48.9423

> <Gold.PLP.PLP>
-33.8019

> <Gold.PLP.part.hbond>
-5.0000

> <Gold.PLP.part.metal>
0.0000

> <Gold.PLP.part.buried>
-5.1761

> <Gold.PLP.part.nonpolar>
-25.1426

> <Gold.PLP.part.repulsive>
0.0516

> <Gold.PLP.ligand.clash>
0.0000

> <Gold.PLP.ligand.torsion>
1.5679

> <Gold.PLP.Chemscore.Hbond>
5.5840

> <Gold.PLP.Chemscore.CHOScore>
0.0000

> <Gold.PLP.Chemscore.Metal>
0.0000

> <Gold.Chemscore.Hbonds>
donor molecule, donor type, donor heavy atom, donor atom, acceptor molecule, acceptor atom, score
      P1  H  6896  6907       L1     8  1.76
      P1  H  6931  6943       L1    16  0.54
      P1  H  6934  6947       L1    16  1.00
      P1  H  7989  7998       L1    20  0.85
      P1  H 10752 10763       L1     6  1.00

> <Gold.PLP.Chemscore.Internal.Correction>
1.5243

> <Gold.Rescore>
     Score         DG    S(hbond)    S(metal)    S(lipo)     H(rot)  DE(clash)    DE(int)     intcor
     21.40     -23.07       3.72        0.00      76.49       1.47       0.01       1.66       ----

> <Gold.Chemscore.Fitness>
21.4004

> <Gold.Chemscore.DG>
-23.0748

> <Gold.Chemscore.ZeroCoef>
-5.4800

> <Gold.Chemscore.Hbond>
3.7176

> <Gold.Chemscore.Metal>
0.0000

> <Gold.Chemscore.Lipo>
76.4882

> <Gold.Chemscore.Internal_Hbond>
0.0000

> <Gold.Chemscore.DEClash>
0.0129

> <Gold.Chemscore.DEInternal>
1.6615

> <Gold.Chemscore.Rot>
1.4731

> <Gold.Chemscore.Internal.Correction>
   9.000000E+99

> <Gold.Chemscore.Hbonds>
donor molecule, donor type, donor heavy atom, donor atom, acceptor molecule, acceptor atom, score
      P1  H  6896  6907       L1     8  0.19
      P1  H  6931  6943       L1    16  0.11
      P1  H  6934  6947       L1    16  0.80
      P1  H  7989  7998       L1    20  0.15
      P1  H 10752 10763       L1     6  0.81

> <Gold.Chemscore.Hbond.Weighted>
-12.4169

> <Gold.Chemscore.Metal.Weighted>
-0.0000

> <Gold.Chemscore.Lipo.Weighted>
-8.9491

> <Gold.Chemscore.Internal_Hbond.Weighted>
0.0000

> <Gold.Chemscore.DEClash.Weighted>
0.0129

> <Gold.Chemscore.DEInternal.Weighted>
1.6615

> <Gold.Chemscore.Rot.Weighted>
3.7712

> <Gold.Chemscore.Internal.Correction.Weighted>
   9.000000E+99

> <Gold.Protein.RotatedTorsions>
[ 6907 6896 6895 6894 ] final  -44.11 input  -60.11 | X-H torsion
[ 7974 7965 7964 7962 ] final  -37.27 input  175.53 | X-H torsion
[ 8008 7997 7996 7995 ] final -144.06 input   59.86 | X-H torsion
[ 10167 10162 10161 10158 ] final  -51.36 input  -65.29 | X-H torsion
[ 10718 10713 10712 10709 ] final  -11.63 input   66.30 | X-H torsion
[ 10763 10752 10751 10750 ] final   98.48 input  -60.55 | X-H torsion
[ 11005 11000 10999 10996 ] final  -75.38 input  -57.11 | X-H torsion

> <Gold.Protein.ActiveResidues>
 VAL166  LYS551  ARG553  GLY616  TRP617  ASP618  TYR619  PRO620  LYS621  CYS622 
 ASP623  PHE694  ASN695  SER759  ASP760  ASP761  ALA762  ILE779  LEU786  VAL792 
 PHE793  MET794  SER795  GLU796  ALA797  LYS798  CYS799  TRP800  GLU811  SER814 

> <Gold.Protein.RotatedAtoms>
  150.9364  134.8776  159.7584 H   0  0  0  0  0  0  0  0  0  0  0  0  # atno 6907 bound_to 6896
  152.5061  134.4004  159.9424 H   0  0  0  0  0  0  0  0  0  0  0  0  # atno 6908 bound_to 6896
  151.4028  133.3712  159.2769 H   0  0  0  0  0  0  0  0  0  0  0  0  # atno 6909 bound_to 6896
  146.0589  140.6377  142.9006 H   0  0  0  0  0  0  0  0  0  0  0  0  # atno 7974 bound_to 7965
  155.5208  140.0591  157.2907 H   0  0  0  0  0  0  0  0  0  0  0  0  # atno 8008 bound_to 7997
  154.4518  140.1953  156.0442 H   0  0  0  0  0  0  0  0  0  0  0  0  # atno 8009 bound_to 7997
  156.0720  140.3259  155.7591 H   0  0  0  0  0  0  0  0  0  0  0  0  # atno 8010 bound_to 7997
  140.6592  143.2622  151.4493 H   0  0  0  0  0  0  0  0  0  0  0  0  # atno 10167 bound_to 10162
  156.6562  130.4969  149.6045 H   0  0  0  0  0  0  0  0  0  0  0  0  # atno 10718 bound_to 10713
  153.2896  135.4147  155.1154 H   0  0  0  0  0  0  0  0  0  0  0  0  # atno 10763 bound_to 10752
  154.8516  135.3515  154.6000 H   0  0  0  0  0  0  0  0  0  0  0  0  # atno 10764 bound_to 10752
  153.6422  135.7056  153.5295 H   0  0  0  0  0  0  0  0  0  0  0  0  # atno 10765 bound_to 10752
  141.1645  133.6944  156.7508 H   0  0  0  0  0  0  0  0  0  0  0  0  # atno 11005 bound_to 11000
  144.7163  140.4222  143.7041 LP  0  0  0  0  0  0  0  0  0  0  0  0  # atno 17320 bound_to 7965
  145.6595  139.1579  143.2816 LP  0  0  0  0  0  0  0  0  0  0  0  0  # atno 17321 bound_to 7965
  139.5821  144.1685  152.1982 LP  0  0  0  0  0  0  0  0  0  0  0  0  # atno 17342 bound_to 10162
  140.1014  144.5536  150.6986 LP  0  0  0  0  0  0  0  0  0  0  0  0  # atno 17343 bound_to 10162
  156.2046  130.6641  151.1204 LP  0  0  0  0  0  0  0  0  0  0  0  0  # atno 17370 bound_to 10713
  157.7124  131.0727  150.6450 LP  0  0  0  0  0  0  0  0  0  0  0  0  # atno 17371 bound_to 10713
  140.2605  134.8470  157.3754 LP  0  0  0  0  0  0  0  0  0  0  0  0  # atno 17394 bound_to 11000
  140.1615  134.4722  155.7891 LP  0  0  0  0  0  0  0  0  0  0  0  0  # atno 17395 bound_to 11000

$$$$
