AV-unprocessed.smi:1948|AV-procd|sdf|7874|dock5
  -GOLD-   2272010 23D 1   1.00000     0.00000
 Structure written by MMmdl.
 30 31  0  0  0  0  0  0  0  0  1 V2000
  145.3793  128.8476  152.0297 O   0  0  0  0  0  0  0  0  0  0  0  0
  146.4250  129.3425  151.6083 C   0  0  0  0  0  0  0  0  0  0  0  0
  147.6067  128.7065  151.5210 N   0  0  0  0  0  0  0  0  0  0  0  0
  147.9131  127.3658  151.8754 C   0  0  0  0  0  0  0  0  0  0  0  0
  147.4598  126.7673  152.9884 N   0  0  0  0  0  0  0  0  0  0  0  0
  147.9072  125.4564  153.0928 N   0  0  0  0  0  0  0  0  0  0  0  0
  148.6788  125.1182  152.0558 C   0  0  0  0  0  0  0  0  0  0  0  0
  148.9334  126.3675  150.8494 S   0  0  0  0  0  0  0  0  0  0  0  0
  146.5227  130.6089  151.1776 N   0  0  0  0  0  0  0  0  0  0  0  0
  145.4282  131.5747  151.1454 C   0  0  2  0  0  0  0  0  0  0  0  0
  145.2312  132.0864  149.7070 C   0  0  0  0  0  0  0  0  0  0  0  0
  144.1131  133.1411  149.6321 C   0  0  0  0  0  0  0  0  0  0  0  0
  144.3468  134.3099  150.6081 C   0  0  2  0  0  0  0  0  0  0  0  0
  145.4383  135.0949  150.1705 O   0  0  0  0  0  0  0  0  0  0  0  0
  144.5971  133.8090  152.0430 C   0  0  0  0  0  0  0  0  0  0  0  0
  145.7095  132.7475  152.1066 C   0  0  0  0  0  0  0  0  0  0  0  0
  148.3802  129.2465  151.1624 H   0  0  0  0  0  0  0  0  0  0  0  0
  149.1001  124.1254  152.0005 H   0  0  0  0  0  0  0  0  0  0  0  0
  147.4210  130.9322  150.8496 H   0  0  0  0  0  0  0  0  0  0  0  0
  144.5067  131.0775  151.4552 H   0  0  0  0  0  0  0  0  0  0  0  0
  146.1624  132.5164  149.3351 H   0  0  0  0  0  0  0  0  0  0  0  0
  144.9915  131.2542  149.0442 H   0  0  0  0  0  0  0  0  0  0  0  0
  144.0165  133.5138  148.6119 H   0  0  0  0  0  0  0  0  0  0  0  0
  143.1619  132.6640  149.8718 H   0  0  0  0  0  0  0  0  0  0  0  0
  143.4692  134.9573  150.6042 H   0  0  0  0  0  0  0  0  0  0  0  0
  145.5272  134.9910  149.2354 H   0  0  0  0  0  0  0  0  0  0  0  0
  144.8391  134.6453  152.6999 H   0  0  0  0  0  0  0  0  0  0  0  0
  143.6754  133.3749  152.4324 H   0  0  0  0  0  0  0  0  0  0  0  0
  145.8023  132.3818  153.1298 H   0  0  0  0  0  0  0  0  0  0  0  0
  146.6670  133.2077  151.8581 H   0  0  0  0  0  0  0  0  0  0  0  0
  1  2  2  0  0  0  0
  2  3  1  0  0  0  0
  2  9  1  0  0  0  0
  3  4  1  0  0  0  0
  3 17  1  0  0  0  0
  4  8  1  0  0  0  0
  4  5  2  0  0  0  0
  5  6  1  0  0  0  0
  6  7  2  0  0  0  0
  7  8  1  0  0  0  0
  7 18  1  0  0  0  0
  9 10  1  0  0  0  0
  9 19  1  0  0  0  0
 10 16  1  0  0  0  0
 10 11  1  0  0  0  0
 10 20  1  0  0  0  0
 11 12  1  0  0  0  0
 11 21  1  0  0  0  0
 11 22  1  0  0  0  0
 12 13  1  0  0  0  0
 12 23  1  0  0  0  0
 12 24  1  0  0  0  0
 13 14  1  0  0  0  0
 13 15  1  0  0  0  0
 13 25  1  0  0  0  0
 14 26  1  0  0  0  0
 15 16  1  0  0  0  0
 15 27  1  0  0  0  0
 15 28  1  0  0  0  0
 16 29  1  0  0  0  0
 16 30  1  0  0  0  0
M  END
> <s_m_source_file>
AV-unprocessed.smi

> <i_m_source_file_index>
1948

> <i_lp_mmshare_version>
43012

> <i_f3d_flags>
0

> <s_epik_input>
czFbY0hdbm5jMVtOSF1DKD1PKVtOSF1bQ0BASF0yW0NIMl1bQ0gyXVtDQEBIXShbT0hdKVtDSDJdW0NIMl0y

> <s_epik_cmdline>
J2VwaWtfcHl0aG9uJywgJy1waCcsICc3LjAnLCAnLXRuJywgJzgnLCAnLW1hJywgJzIwMCcsICctbWV0YWxfYmluZGluZycsICctaW1hZScsICc8aW5maWxlLm1hZT4nLCAnLW9tYWUnLCAnPG91dGZpbGUubWFlPic=

> <r_lp_tautomer_probability>
1

> <r_epik_Ionization_Penalty>
0.000336938

> <r_epik_Ionization_Penalty_Charging>
0

> <r_epik_Ionization_Penalty_Neutral>
0.000336938

> <r_epik_State_Penalty>
-0

> <r_epik_Charging_Adjusted_Penalty>
0

> <i_epik_Tot_Q>
0

> <i_epik_Tot_abs_Q>
0

> <r_epik_Metal_State_Penalty>
0.175756

> <b_epik_Metal_Only>
0

> <s_lp_Force_Field>
OPLS_2005

> <r_lp_Energy>
9.37087

> <b_lp_Chiralities_Consistent>
1

> <s_lp_Variant>
AV-unprocessed.smi:1948-2

> <Gold.Version>
5.8.1

> <Gold.Id.Protein>
6NUR|6NUR_protein|mol2

> <Gold.PLP.Fitness>
41.6063

> <Gold.PLP.PLP>
-33.9080

> <Gold.PLP.part.hbond>
-4.4959

> <Gold.PLP.part.metal>
0.0000

> <Gold.PLP.part.buried>
-7.1751

> <Gold.PLP.part.nonpolar>
-23.2075

> <Gold.PLP.part.repulsive>
0.2846

> <Gold.PLP.ligand.clash>
0.0000

> <Gold.PLP.ligand.torsion>
0.3523

> <Gold.PLP.Chemscore.Hbond>
2.8000

> <Gold.PLP.Chemscore.CHOScore>
0.0000

> <Gold.PLP.Chemscore.Metal>
0.0000

> <Gold.Chemscore.Hbonds>
donor molecule, donor type, donor heavy atom, donor atom, acceptor molecule, acceptor atom, score
      L1  H     3    17       P1 10747  0.79
      L1  H     9    19       P1 10747  1.00
      L1  H    14    26       P1  7921  1.00

> <Gold.PLP.Chemscore.Internal.Correction>
0.0030

> <Gold.Rescore>
     Score         DG    S(hbond)    S(metal)    S(lipo)     H(rot)  DE(clash)    DE(int)     intcor
     16.01     -16.65       2.42        0.00      60.20       1.55       0.17       0.47       ----

> <Gold.Chemscore.Fitness>
16.0130

> <Gold.Chemscore.DG>
-16.6518

> <Gold.Chemscore.ZeroCoef>
-5.4800

> <Gold.Chemscore.Hbond>
2.4207

> <Gold.Chemscore.Metal>
0.0000

> <Gold.Chemscore.Lipo>
60.2016

> <Gold.Chemscore.Internal_Hbond>
0.0000

> <Gold.Chemscore.DEClash>
0.1735

> <Gold.Chemscore.DEInternal>
0.4653

> <Gold.Chemscore.Rot>
1.5456

> <Gold.Chemscore.Internal.Correction>
   9.000000E+99

> <Gold.Chemscore.Hbonds>
donor molecule, donor type, donor heavy atom, donor atom, acceptor molecule, acceptor atom, score
      L1  H     3    17       P1 10747  0.11
      L1  H     9    19       P1 10747  0.99
      L1  H    14    26       P1  7921  1.00

> <Gold.Chemscore.Hbond.Weighted>
-8.0851

> <Gold.Chemscore.Metal.Weighted>
-0.0000

> <Gold.Chemscore.Lipo.Weighted>
-7.0436

> <Gold.Chemscore.Internal_Hbond.Weighted>
0.0000

> <Gold.Chemscore.DEClash.Weighted>
0.1735

> <Gold.Chemscore.DEInternal.Weighted>
0.4653

> <Gold.Chemscore.Rot.Weighted>
3.9568

> <Gold.Chemscore.Internal.Correction.Weighted>
   9.000000E+99

> <Gold.Protein.RotatedTorsions>
[ 6907 6896 6895 6894 ] final  159.91 input  -60.11 | X-H torsion
[ 7974 7965 7964 7962 ] final  -67.13 input  175.53 | X-H torsion
[ 8008 7997 7996 7995 ] final  -41.21 input   59.86 | X-H torsion
[ 10167 10162 10161 10158 ] final   27.61 input  -65.29 | X-H torsion
[ 10718 10713 10712 10709 ] final -137.42 input   66.30 | X-H torsion
[ 10763 10752 10751 10750 ] final  127.97 input  -60.55 | X-H torsion
[ 11005 11000 10999 10996 ] final  -88.36 input  -57.11 | X-H torsion

> <Gold.Protein.ActiveResidues>
 VAL166  LYS551  ARG553  GLY616  TRP617  ASP618  TYR619  PRO620  LYS621  CYS622 
 ASP623  PHE694  ASN695  SER759  ASP760  ASP761  ALA762  ILE779  LEU786  VAL792 
 PHE793  MET794  SER795  GLU796  ALA797  LYS798  CYS799  TRP800  GLU811  SER814 

> <Gold.Protein.RotatedAtoms>
  151.9786  133.3750  159.4098 H   0  0  0  0  0  0  0  0  0  0  0  0  # atno 6907 bound_to 6896
  150.6938  134.4063  159.5151 H   0  0  0  0  0  0  0  0  0  0  0  0  # atno 6908 bound_to 6896
  152.1779  134.8779  160.0579 H   0  0  0  0  0  0  0  0  0  0  0  0  # atno 6909 bound_to 6896
  145.7330  140.8988  143.0570 H   0  0  0  0  0  0  0  0  0  0  0  0  # atno 7974 bound_to 7965
  154.4006  140.1505  156.3153 H   0  0  0  0  0  0  0  0  0  0  0  0  # atno 8008 bound_to 7997
  155.8578  140.3455  155.5715 H   0  0  0  0  0  0  0  0  0  0  0  0  # atno 8009 bound_to 7997
  155.7913  140.0857  157.1998 H   0  0  0  0  0  0  0  0  0  0  0  0  # atno 8010 bound_to 7997
  140.4924  144.0446  150.6302 H   0  0  0  0  0  0  0  0  0  0  0  0  # atno 10167 bound_to 10162
  156.2880  130.7358  151.1376 H   0  0  0  0  0  0  0  0  0  0  0  0  # atno 10718 bound_to 10713
  153.7180  135.3258  155.3260 H   0  0  0  0  0  0  0  0  0  0  0  0  # atno 10763 bound_to 10752
  154.8365  135.4492  154.1246 H   0  0  0  0  0  0  0  0  0  0  0  0  # atno 10764 bound_to 10752
  153.2359  135.6965  153.7917 H   0  0  0  0  0  0  0  0  0  0  0  0  # atno 10765 bound_to 10752
  141.1603  133.7565  156.9440 H   0  0  0  0  0  0  0  0  0  0  0  0  # atno 11005 bound_to 11000
  144.6888  139.9357  143.7473 LP  0  0  0  0  0  0  0  0  0  0  0  0  # atno 17320 bound_to 7965
  146.0520  139.3520  143.0634 LP  0  0  0  0  0  0  0  0  0  0  0  0  # atno 17321 bound_to 7965
  140.3719  143.2850  152.0268 LP  0  0  0  0  0  0  0  0  0  0  0  0  # atno 17342 bound_to 10162
  139.4854  144.6223  151.7231 LP  0  0  0  0  0  0  0  0  0  0  0  0  # atno 17343 bound_to 10162
  157.7334  131.0591  150.5578 LP  0  0  0  0  0  0  0  0  0  0  0  0  # atno 17370 bound_to 10713
  156.5692  130.4275  149.6027 LP  0  0  0  0  0  0  0  0  0  0  0  0  # atno 17371 bound_to 10713
  140.1302  134.9360  157.2327 LP  0  0  0  0  0  0  0  0  0  0  0  0  # atno 17394 bound_to 11000
  140.2962  134.3184  155.7302 LP  0  0  0  0  0  0  0  0  0  0  0  0  # atno 17395 bound_to 11000

$$$$
