AV-unprocessed.smi:3025|AV-procd|sdf|11511|dock9
  -GOLD-   2272016453D 1   1.00000     0.00000
 Structure written by MMmdl.
 41 42  0  0  0  0  0  0  0  0  3 V2000
  153.4595  142.9577  163.0483 C   0  0  0  0  0  0  0  0  0  0  0  0
  152.8191  143.0405  161.6581 C   0  0  0  0  0  0  0  0  0  0  0  0
  153.5469  142.1664  160.6226 C   0  0  0  0  0  0  0  0  0  0  0  0
  152.8748  142.1385  159.2343 C   0  0  2  0  0  0  0  0  0  0  0  0
  151.9303  143.3385  159.0072 C   0  0  0  0  0  0  0  0  0  0  0  0
  151.2485  143.2803  157.6304 C   0  0  0  0  0  0  0  0  0  0  0  0
  150.4811  141.9574  157.4312 C   0  0  1  0  0  0  0  0  0  0  0  0
  149.8737  141.8768  156.0841 N   0  3  0  0  0  0  0  0  0  0  0  0
  149.0262  140.6910  155.8453 C   0  0  0  0  0  0  0  0  0  0  0  0
  149.3762  140.0282  154.5090 C   0  0  0  0  0  0  0  0  0  0  0  0
  150.5873  139.1329  154.6327 C   0  0  0  0  0  0  0  0  0  0  0  0
  150.5733  137.7855  154.5938 N   0  5  0  0  0  0  0  0  0  0  0  0
  151.8028  137.3177  154.6881 N   0  0  0  0  0  0  0  0  0  0  0  0
  152.5653  138.4142  154.7734 C   0  0  0  0  0  0  0  0  0  0  0  0
  151.8485  139.5429  154.7338 N   0  0  0  0  0  0  0  0  0  0  0  0
  151.4271  140.7632  157.6493 C   0  0  0  0  0  0  0  0  0  0  0  0
  152.1012  140.8205  159.0292 C   0  0  0  0  0  0  0  0  0  0  0  0
  152.9273  143.5904  163.7591 H   0  0  0  0  0  0  0  0  0  0  0  0
  154.4988  143.2869  163.0240 H   0  0  0  0  0  0  0  0  0  0  0  0
  153.4389  141.9370  163.4314 H   0  0  0  0  0  0  0  0  0  0  0  0
  151.7743  142.7413  161.7374 H   0  0  0  0  0  0  0  0  0  0  0  0
  152.8199  144.0795  161.3266 H   0  0  0  0  0  0  0  0  0  0  0  0
  154.5634  142.5467  160.5122 H   0  0  0  0  0  0  0  0  0  0  0  0
  153.6471  141.1496  161.0046 H   0  0  0  0  0  0  0  0  0  0  0  0
  153.6629  142.1779  158.4805 H   0  0  0  0  0  0  0  0  0  0  0  0
  151.1689  143.3614  159.7882 H   0  0  0  0  0  0  0  0  0  0  0  0
  152.4793  144.2764  159.0855 H   0  0  0  0  0  0  0  0  0  0  0  0
  150.5763  144.1329  157.5358 H   0  0  0  0  0  0  0  0  0  0  0  0
  152.0012  143.3927  156.8485 H   0  0  0  0  0  0  0  0  0  0  0  0
  149.6810  141.8931  158.1704 H   0  0  0  0  0  0  0  0  0  0  0  0
  149.3302  142.7115  155.9177 H   0  0  0  0  0  0  0  0  0  0  0  0
  149.1648  139.9775  156.6587 H   0  0  0  0  0  0  0  0  0  0  0  0
  147.9747  140.9787  155.8429 H   0  0  0  0  0  0  0  0  0  0  0  0
  148.5359  139.4337  154.1485 H   0  0  0  0  0  0  0  0  0  0  0  0
  149.5776  140.7854  153.7502 H   0  0  0  0  0  0  0  0  0  0  0  0
  153.6445  138.3895  154.8606 H   0  0  0  0  0  0  0  0  0  0  0  0
  150.8752  139.8272  157.5535 H   0  0  0  0  0  0  0  0  0  0  0  0
  152.1939  140.7496  156.8734 H   0  0  0  0  0  0  0  0  0  0  0  0
  152.7769  139.9709  159.1357 H   0  0  0  0  0  0  0  0  0  0  0  0
  151.3454  140.7110  159.8083 H   0  0  0  0  0  0  0  0  0  0  0  0
  150.6253  141.8444  155.4103 H   0  0  0  0  0  0  0  0  0  0  0  0
  1  2  1  0  0  0  0
  1 18  1  0  0  0  0
  1 19  1  0  0  0  0
  1 20  1  0  0  0  0
  2  3  1  0  0  0  0
  2 21  1  0  0  0  0
  2 22  1  0  0  0  0
  3  4  1  0  0  0  0
  3 23  1  0  0  0  0
  3 24  1  0  0  0  0
  4 17  1  0  0  0  0
  4  5  1  0  0  0  0
  4 25  1  0  0  0  0
  5  6  1  0  0  0  0
  5 26  1  0  0  0  0
  5 27  1  0  0  0  0
  6  7  1  0  0  0  0
  6 28  1  0  0  0  0
  6 29  1  0  0  0  0
  7  8  1  0  0  0  0
  7 16  1  0  0  0  0
  7 30  1  0  0  0  0
  8  9  1  0  0  0  0
  8 31  1  0  0  0  0
  8 41  1  0  0  0  0
  9 10  1  0  0  0  0
  9 32  1  0  0  0  0
  9 33  1  0  0  0  0
 10 34  1  0  0  0  0
 10 35  1  0  0  0  0
 10 11  1  0  0  0  0
 11 15  2  0  0  0  0
 11 12  1  0  0  0  0
 12 13  1  0  0  0  0
 13 14  2  0  0  0  0
 14 15  1  0  0  0  0
 14 36  1  0  0  0  0
 16 17  1  0  0  0  0
 16 37  1  0  0  0  0
 16 38  1  0  0  0  0
 17 39  1  0  0  0  0
 17 40  1  0  0  0  0
M  CHG  1   8   1
M  CHG  1  12  -1
M  END
> <s_m_source_file>
AV-unprocessed.smi

> <i_m_source_file_index>
3025

> <i_lp_mmshare_version>
43012

> <i_f3d_flags>
0

> <s_epik_input>
W0NIM11bQ0gyXVtDSDJdW0NAQEhdMVtDSDJdW0NIMl1bQ0BIXShbQ0gyXVtDSDJdMSlbTkhdW0NIMl1bQ0gyXWMybm5bY0hdW25IXTI=

> <s_epik_cmdline>
J2VwaWtfcHl0aG9uJywgJy1waCcsICc3LjAnLCAnLXRuJywgJzgnLCAnLW1hJywgJzIwMCcsICctbWV0YWxfYmluZGluZycsICctaW1hZScsICc8aW5maWxlLm1hZT4nLCAnLW9tYWUnLCAnPG91dGZpbGUubWFlPic=

> <r_lp_tautomer_probability>
0.948284

> <r_epik_Ionization_Penalty>
6.65342

> <r_epik_Ionization_Penalty_Charging>
6.65342

> <r_epik_Ionization_Penalty_Neutral>
1.40767e-13

> <r_epik_State_Penalty>
2.88894

> <r_epik_Charging_Adjusted_Penalty>
9.54236

> <i_epik_Tot_Q>
0

> <i_epik_Tot_abs_Q>
2

> <r_epik_Metal_State_Penalty>
0.664188

> <b_epik_Metal_Only>
1

> <s_lp_Force_Field>
OPLS_2005

> <r_lp_Energy>
6.5819

> <b_lp_Chiralities_Consistent>
1

> <s_lp_Variant>
AV-unprocessed.smi:3025-7

> <Gold.Version>
5.8.1

> <Gold.Id.Protein>
6NUR|6NUR_protein|mol2

> <Gold.PLP.Fitness>
51.5863

> <Gold.PLP.PLP>
-43.5092

> <Gold.PLP.part.hbond>
-3.0000

> <Gold.PLP.part.metal>
0.0000

> <Gold.PLP.part.buried>
-5.9787

> <Gold.PLP.part.nonpolar>
-34.7942

> <Gold.PLP.part.repulsive>
0.4962

> <Gold.PLP.ligand.clash>
0.0000

> <Gold.PLP.ligand.torsion>
1.1906

> <Gold.PLP.Chemscore.Hbond>
3.4738

> <Gold.PLP.Chemscore.CHOScore>
0.0000

> <Gold.PLP.Chemscore.Metal>
0.0000

> <Gold.Chemscore.Hbonds>
donor molecule, donor type, donor heavy atom, donor atom, acceptor molecule, acceptor atom, score
      L1  H     8    31       P1  8028  1.79
      P1  H  7989  7998       L1    15  0.70
      P1  H 10752 10764       L1    13  0.95

> <Gold.PLP.Chemscore.Internal.Correction>
0.0372

> <Gold.Rescore>
     Score         DG    S(hbond)    S(metal)    S(lipo)     H(rot)  DE(clash)    DE(int)     intcor
     14.90     -16.22       1.73        0.00      97.01       2.50       0.11       1.20       ----

> <Gold.Chemscore.Fitness>
14.9046

> <Gold.Chemscore.DG>
-16.2153

> <Gold.Chemscore.ZeroCoef>
-5.4800

> <Gold.Chemscore.Hbond>
1.7337

> <Gold.Chemscore.Metal>
0.0000

> <Gold.Chemscore.Lipo>
97.0064

> <Gold.Chemscore.Internal_Hbond>
0.0000

> <Gold.Chemscore.DEClash>
0.1124

> <Gold.Chemscore.DEInternal>
1.1983

> <Gold.Chemscore.Rot>
2.5019

> <Gold.Chemscore.Internal.Correction>
   9.000000E+99

> <Gold.Chemscore.Hbonds>
donor molecule, donor type, donor heavy atom, donor atom, acceptor molecule, acceptor atom, score
      L1  H     8    31       P1  8028  0.87
      P1  H  7989  7998       L1    15  0.07
      P1  H 10752 10764       L1    13  0.67

> <Gold.Chemscore.Hbond.Weighted>
-5.7905

> <Gold.Chemscore.Metal.Weighted>
-0.0000

> <Gold.Chemscore.Lipo.Weighted>
-11.3497

> <Gold.Chemscore.Internal_Hbond.Weighted>
0.0000

> <Gold.Chemscore.DEClash.Weighted>
0.1124

> <Gold.Chemscore.DEInternal.Weighted>
1.1983

> <Gold.Chemscore.Rot.Weighted>
6.4049

> <Gold.Chemscore.Internal.Correction.Weighted>
   9.000000E+99

> <Gold.Protein.RotatedTorsions>
[ 6907 6896 6895 6894 ] final   26.37 input  -60.11 | X-H torsion
[ 7974 7965 7964 7962 ] final -154.37 input  175.53 | X-H torsion
[ 8008 7997 7996 7995 ] final  109.37 input   59.86 | X-H torsion
[ 10167 10162 10161 10158 ] final -146.99 input  -65.29 | X-H torsion
[ 10718 10713 10712 10709 ] final  -98.22 input   66.30 | X-H torsion
[ 10763 10752 10751 10750 ] final  -75.89 input  -60.55 | X-H torsion
[ 11005 11000 10999 10996 ] final  100.89 input  -57.11 | X-H torsion

> <Gold.Protein.ActiveResidues>
 VAL166  LYS551  ARG553  GLY616  TRP617  ASP618  TYR619  PRO620  LYS621  CYS622 
 ASP623  PHE694  ASN695  SER759  ASP760  ASP761  ALA762  ILE779  LEU786  VAL792 
 PHE793  MET794  SER795  GLU796  ALA797  LYS798  CYS799  TRP800  GLU811  SER814 

> <Gold.Protein.RotatedAtoms>
  151.9864  135.0002  160.0559 H   0  0  0  0  0  0  0  0  0  0  0  0  # atno 6907 bound_to 6896
  152.1649  133.4601  159.4888 H   0  0  0  0  0  0  0  0  0  0  0  0  # atno 6908 bound_to 6896
  150.6893  134.1944  159.4340 H   0  0  0  0  0  0  0  0  0  0  0  0  # atno 6909 bound_to 6896
  144.7693  140.4397  143.5919 H   0  0  0  0  0  0  0  0  0  0  0  0  # atno 7974 bound_to 7965
  156.1974  140.3059  155.9455 H   0  0  0  0  0  0  0  0  0  0  0  0  # atno 8008 bound_to 7997
  155.3034  140.0447  157.3048 H   0  0  0  0  0  0  0  0  0  0  0  0  # atno 8009 bound_to 7997
  154.5527  140.2296  155.8469 H   0  0  0  0  0  0  0  0  0  0  0  0  # atno 8010 bound_to 7997
  139.7663  143.8303  152.2616 H   0  0  0  0  0  0  0  0  0  0  0  0  # atno 10167 bound_to 10162
  156.0102  130.5228  150.6490 H   0  0  0  0  0  0  0  0  0  0  0  0  # atno 10718 bound_to 10713
  154.4926  135.5816  153.6470 H   0  0  0  0  0  0  0  0  0  0  0  0  # atno 10763 bound_to 10752
  152.9865  135.6116  154.3106 H   0  0  0  0  0  0  0  0  0  0  0  0  # atno 10764 bound_to 10752
  154.3007  135.2847  155.2592 H   0  0  0  0  0  0  0  0  0  0  0  0  # atno 10765 bound_to 10752
  139.8772  134.9159  156.4823 H   0  0  0  0  0  0  0  0  0  0  0  0  # atno 11005 bound_to 11000
  145.6374  139.1545  143.2935 LP  0  0  0  0  0  0  0  0  0  0  0  0  # atno 17320 bound_to 7965
  146.1826  140.6473  142.9182 LP  0  0  0  0  0  0  0  0  0  0  0  0  # atno 17321 bound_to 7965
  139.8324  144.7247  150.9434 LP  0  0  0  0  0  0  0  0  0  0  0  0  # atno 17342 bound_to 10162
  140.7811  143.4058  151.1074 LP  0  0  0  0  0  0  0  0  0  0  0  0  # atno 17343 bound_to 10162
  157.4255  131.0842  151.1089 LP  0  0  0  0  0  0  0  0  0  0  0  0  # atno 17370 bound_to 10713
  157.1678  130.6254  149.5631 LP  0  0  0  0  0  0  0  0  0  0  0  0  # atno 17371 bound_to 10713
  140.8718  133.7983  155.9372 LP  0  0  0  0  0  0  0  0  0  0  0  0  # atno 17394 bound_to 11000
  140.8945  134.2455  157.5076 LP  0  0  0  0  0  0  0  0  0  0  0  0  # atno 17395 bound_to 11000

$$$$
