AV-unprocessed.smi:816|AV-procd|sdf|3827|dock3
  -GOLD-   22720 1263D 1   1.00000     0.00000
 Structure written by MMmdl.
 40 41  0  0  0  0  0  0  0  0  1 V2000
  150.2122  144.5480  159.7778 C   0  0  0  0  0  0  0  0  0  0  0  0
  151.1187  143.3700  159.5422 C   0  0  0  0  0  0  0  0  0  0  0  0
  150.8531  142.6295  158.5169 N   0  0  0  0  0  0  0  0  0  0  0  0
  151.6215  141.5234  158.2096 N   0  0  0  0  0  0  0  0  0  0  0  0
  151.1862  140.8120  157.0021 C   0  0  0  0  0  0  0  0  0  0  0  0
  149.9940  141.5164  156.3179 C   0  0  1  0  0  0  0  0  0  0  0  0
  150.4834  142.5129  155.4428 O   0  0  0  0  0  0  0  0  0  0  0  0
  149.1552  140.5462  155.4716 C   0  0  0  0  0  0  0  0  0  0  0  0
  147.8223  140.5374  155.9669 O   0  0  0  0  0  0  0  0  0  0  0  0
  146.9427  141.4875  155.4950 C   0  0  0  0  0  0  0  0  0  0  0  0
  147.1553  141.9602  154.1836 C   0  0  0  0  0  0  0  0  0  0  0  0
  146.3079  142.9343  153.6209 C   0  0  0  0  0  0  0  0  0  0  0  0
  145.2297  143.4474  154.3685 C   0  0  0  0  0  0  0  0  0  0  0  0
  144.3536  144.4532  153.7911 C   0  0  0  0  0  0  0  0  0  0  0  0
  143.6564  145.2540  153.3315 N   0  0  0  0  0  0  0  0  0  0  0  0
  145.0047  142.9805  155.6786 C   0  0  0  0  0  0  0  0  0  0  0  0
  145.8544  142.0073  156.2404 C   0  0  0  0  0  0  0  0  0  0  0  0
  152.7044  141.1067  158.9255 C   0  0  0  0  0  0  0  0  0  0  0  0
  153.3660  140.1157  158.6130 O   0  0  0  0  0  0  0  0  0  0  0  0
  152.9976  141.9478  160.0882 C   0  0  0  0  0  0  0  0  0  0  0  0
  154.1201  141.5420  160.8712 C   0  0  0  0  0  0  0  0  0  0  0  0
  155.0359  141.2331  161.5087 N   0  0  0  0  0  0  0  0  0  0  0  0
  152.2520  143.0377  160.3995 C   0  0  0  0  0  0  0  0  0  0  0  0
  152.5156  143.9439  161.5943 C   0  0  0  0  0  0  0  0  0  0  0  0
  149.7451  144.4874  160.7608 H   0  0  0  0  0  0  0  0  0  0  0  0
  149.4131  144.6005  159.0369 H   0  0  0  0  0  0  0  0  0  0  0  0
  150.7708  145.4825  159.7239 H   0  0  0  0  0  0  0  0  0  0  0  0
  152.0043  140.6510  156.2974 H   0  0  0  0  0  0  0  0  0  0  0  0
  150.8865  139.8072  157.3054 H   0  0  0  0  0  0  0  0  0  0  0  0
  149.3466  141.9900  157.0574 H   0  0  0  0  0  0  0  0  0  0  0  0
  150.0432  143.3268  155.6346 H   0  0  0  0  0  0  0  0  0  0  0  0
  149.1488  140.8760  154.4311 H   0  0  0  0  0  0  0  0  0  0  0  0
  149.5901  139.5458  155.5081 H   0  0  0  0  0  0  0  0  0  0  0  0
  147.9795  141.5732  153.6025 H   0  0  0  0  0  0  0  0  0  0  0  0
  146.4915  143.2840  152.6149 H   0  0  0  0  0  0  0  0  0  0  0  0
  144.1799  143.3655  156.2612 H   0  0  0  0  0  0  0  0  0  0  0  0
  145.6482  141.6756  157.2465 H   0  0  0  0  0  0  0  0  0  0  0  0
  153.4207  143.6639  162.1325 H   0  0  0  0  0  0  0  0  0  0  0  0
  151.6844  143.8968  162.2986 H   0  0  0  0  0  0  0  0  0  0  0  0
  152.6370  144.9791  161.2739 H   0  0  0  0  0  0  0  0  0  0  0  0
  1  2  1  0  0  0  0
  1 25  1  0  0  0  0
  1 26  1  0  0  0  0
  1 27  1  0  0  0  0
  2 23  1  0  0  0  0
  2  3  2  0  0  0  0
  3  4  1  0  0  0  0
  4  5  1  0  0  0  0
  4 18  1  0  0  0  0
  5  6  1  0  0  0  0
  5 28  1  0  0  0  0
  5 29  1  0  0  0  0
  6  7  1  0  0  0  0
  6  8  1  0  0  0  0
  6 30  1  0  0  0  0
  7 31  1  0  0  0  0
  8  9  1  0  0  0  0
  8 32  1  0  0  0  0
  8 33  1  0  0  0  0
  9 10  1  0  0  0  0
 10 17  1  0  0  0  0
 10 11  2  0  0  0  0
 11 12  1  0  0  0  0
 11 34  1  0  0  0  0
 12 13  2  0  0  0  0
 12 35  1  0  0  0  0
 13 14  1  0  0  0  0
 13 16  1  0  0  0  0
 14 15  3  0  0  0  0
 16 17  2  0  0  0  0
 16 36  1  0  0  0  0
 17 37  1  0  0  0  0
 18 19  2  0  0  0  0
 18 20  1  0  0  0  0
 20 21  1  0  0  0  0
 20 23  2  0  0  0  0
 21 22  3  0  0  0  0
 23 24  1  0  0  0  0
 24 38  1  0  0  0  0
 24 39  1  0  0  0  0
 24 40  1  0  0  0  0
M  END
> <s_m_source_file>
AV-unprocessed.smi

> <i_m_source_file_index>
816

> <i_lp_mmshare_version>
43012

> <i_f3d_flags>
0

> <s_epik_input>
TiNDYyhjMVtDSDNdKWMoPU8pbihuYzFbQ0gzXSlbQ0gyXVtDQEhdKFtPSF0pW0NIMl1PYzJbY0hdW2NIXWMoQyNOKVtjSF1bY0hdMg==

> <s_epik_cmdline>
J2VwaWtfcHl0aG9uJywgJy1waCcsICc3LjAnLCAnLXRuJywgJzgnLCAnLW1hJywgJzIwMCcsICctbWV0YWxfYmluZGluZycsICctaW1hZScsICc8aW5maWxlLm1hZT4nLCAnLW9tYWUnLCAnPG91dGZpbGUubWFlPic=

> <r_lp_tautomer_probability>
1

> <r_epik_Ionization_Penalty>
1.1732e-07

> <r_epik_Ionization_Penalty_Charging>
1.4567e-10

> <r_epik_Ionization_Penalty_Neutral>
1.17174e-07

> <r_epik_State_Penalty>
-0

> <r_epik_Charging_Adjusted_Penalty>
1.4567e-10

> <i_epik_Tot_Q>
0

> <i_epik_Tot_abs_Q>
0

> <r_epik_Metal_State_Penalty>
-0

> <b_epik_Metal_Only>
0

> <s_lp_Force_Field>
OPLS_2005

> <r_lp_Energy>
30.507

> <b_lp_Chiralities_Consistent>
1

> <s_lp_Variant>
AV-unprocessed.smi:816-2

> <Gold.Version>
5.8.1

> <Gold.Id.Protein>
6NUR|6NUR_protein|mol2

> <Gold.PLP.Fitness>
50.4566

> <Gold.PLP.PLP>
-47.5536

> <Gold.PLP.part.hbond>
-4.4709

> <Gold.PLP.part.metal>
0.0000

> <Gold.PLP.part.buried>
-4.2517

> <Gold.PLP.part.nonpolar>
-37.9018

> <Gold.PLP.part.repulsive>
0.2319

> <Gold.PLP.ligand.clash>
0.0000

> <Gold.PLP.ligand.torsion>
1.5748

> <Gold.PLP.Chemscore.Hbond>
2.0000

> <Gold.PLP.Chemscore.CHOScore>
0.0000

> <Gold.PLP.Chemscore.Metal>
0.0000

> <Gold.Chemscore.Hbonds>
donor molecule, donor type, donor heavy atom, donor atom, acceptor molecule, acceptor atom, score
      L1  H     7    31       P1  8028  1.00
      P1  H  7997  8010       L1    19  0.99

> <Gold.PLP.Chemscore.Internal.Correction>
0.0527

> <Gold.Rescore>
     Score         DG    S(hbond)    S(metal)    S(lipo)     H(rot)  DE(clash)    DE(int)     intcor
     13.29     -16.34       1.98        0.00      93.76       2.62       1.42       1.62       ----

> <Gold.Chemscore.Fitness>
13.2908

> <Gold.Chemscore.DG>
-16.3367

> <Gold.Chemscore.ZeroCoef>
-5.4800

> <Gold.Chemscore.Hbond>
1.9759

> <Gold.Chemscore.Metal>
0.0000

> <Gold.Chemscore.Lipo>
93.7602

> <Gold.Chemscore.Internal_Hbond>
0.0000

> <Gold.Chemscore.DEClash>
1.4242

> <Gold.Chemscore.DEInternal>
1.6217

> <Gold.Chemscore.Rot>
2.6222

> <Gold.Chemscore.Internal.Correction>
   9.000000E+99

> <Gold.Chemscore.Hbonds>
donor molecule, donor type, donor heavy atom, donor atom, acceptor molecule, acceptor atom, score
      L1  H     7    31       P1  8028  1.00
      P1  H  7997  8010       L1    19  0.91

> <Gold.Chemscore.Hbond.Weighted>
-6.5995

> <Gold.Chemscore.Metal.Weighted>
-0.0000

> <Gold.Chemscore.Lipo.Weighted>
-10.9699

> <Gold.Chemscore.Internal_Hbond.Weighted>
0.0000

> <Gold.Chemscore.DEClash.Weighted>
1.4242

> <Gold.Chemscore.DEInternal.Weighted>
1.6217

> <Gold.Chemscore.Rot.Weighted>
6.7127

> <Gold.Chemscore.Internal.Correction.Weighted>
   9.000000E+99

> <Gold.Protein.RotatedTorsions>
[ 6907 6896 6895 6894 ] final  -54.81 input  -60.11 | X-H torsion
[ 7974 7965 7964 7962 ] final -107.81 input  175.53 | X-H torsion
[ 8008 7997 7996 7995 ] final   30.80 input   59.86 | X-H torsion
[ 10167 10162 10161 10158 ] final  -46.00 input  -65.29 | X-H torsion
[ 10718 10713 10712 10709 ] final -155.41 input   66.30 | X-H torsion
[ 10763 10752 10751 10750 ] final   11.27 input  -60.55 | X-H torsion
[ 11005 11000 10999 10996 ] final -174.46 input  -57.11 | X-H torsion

> <Gold.Protein.ActiveResidues>
 VAL166  LYS551  ARG553  GLY616  TRP617  ASP618  TYR619  PRO620  LYS621  CYS622 
 ASP623  PHE694  ASN695  SER759  ASP760  ASP761  ALA762  ILE779  LEU786  VAL792 
 PHE793  MET794  SER795  GLU796  ALA797  LYS798  CYS799  TRP800  GLU811  SER814 

> <Gold.Protein.RotatedAtoms>
  150.8305  134.7556  159.6849 H   0  0  0  0  0  0  0  0  0  0  0  0  # atno 6907 bound_to 6896
  152.4410  134.5587  159.9897 H   0  0  0  0  0  0  0  0  0  0  0  0  # atno 6908 bound_to 6896
  151.5749  133.3347  159.3032 H   0  0  0  0  0  0  0  0  0  0  0  0  # atno 6909 bound_to 6896
  145.2007  140.9055  143.3371 H   0  0  0  0  0  0  0  0  0  0  0  0  # atno 7974 bound_to 7965
  155.0961  140.3225  155.4560 H   0  0  0  0  0  0  0  0  0  0  0  0  # atno 8008 bound_to 7997
  156.2729  140.2069  156.6035 H   0  0  0  0  0  0  0  0  0  0  0  0  # atno 8009 bound_to 7997
  154.6865  140.0521  157.0307 H   0  0  0  0  0  0  0  0  0  0  0  0  # atno 8010 bound_to 7997
  140.6835  143.2852  151.3720 H   0  0  0  0  0  0  0  0  0  0  0  0  # atno 10167 bound_to 10162
  156.5125  130.8441  151.2651 H   0  0  0  0  0  0  0  0  0  0  0  0  # atno 10718 bound_to 10713
  153.1943  135.6847  153.8312 H   0  0  0  0  0  0  0  0  0  0  0  0  # atno 10763 bound_to 10752
  153.7600  135.3211  155.3336 H   0  0  0  0  0  0  0  0  0  0  0  0  # atno 10764 bound_to 10752
  154.8135  135.4701  154.0680 H   0  0  0  0  0  0  0  0  0  0  0  0  # atno 10765 bound_to 10752
  140.4743  134.6135  157.4894 H   0  0  0  0  0  0  0  0  0  0  0  0  # atno 11005 bound_to 11000
  144.9950  139.3652  143.6196 LP  0  0  0  0  0  0  0  0  0  0  0  0  # atno 17320 bound_to 7965
  146.3418  139.9149  142.8775 LP  0  0  0  0  0  0  0  0  0  0  0  0  # atno 17321 bound_to 7965
  139.6175  144.0973  152.2360 LP  0  0  0  0  0  0  0  0  0  0  0  0  # atno 17342 bound_to 10162
  140.0407  144.6010  150.7414 LP  0  0  0  0  0  0  0  0  0  0  0  0  # atno 17343 bound_to 10162
  157.7448  130.9945  150.2709 LP  0  0  0  0  0  0  0  0  0  0  0  0  # atno 17370 bound_to 10713
  156.3227  130.3788  149.7561 LP  0  0  0  0  0  0  0  0  0  0  0  0  # atno 17371 bound_to 10713
  139.9866  134.7052  155.9764 LP  0  0  0  0  0  0  0  0  0  0  0  0  # atno 17394 bound_to 11000
  141.1562  133.6542  156.4169 LP  0  0  0  0  0  0  0  0  0  0  0  0  # atno 17395 bound_to 11000

$$$$
