AV-unprocessed.smi:100|AV-procd|sdf|912|dock2
  -GOLD-   2262017413D 1   1.00000     0.00000
 Structure written by MMmdl.
 31 33  0  0  0  0  0  0  0  0  1 V2000
  152.8371  139.6381  158.8771 N   0  0  0  0  0  0  0  0  0  0  0  0
  152.4026  139.6758  157.6096 C   0  0  0  0  0  0  0  0  0  0  0  0
  153.1413  139.0585  156.6589 N   0  0  0  0  0  0  0  0  0  0  0  0
  152.7331  139.0891  155.3867 C   0  0  0  0  0  0  0  0  0  0  0  0
  151.6429  139.6644  154.8732 N   0  0  0  0  0  0  0  0  0  0  0  0
  150.8906  140.2815  155.8330 C   0  0  0  0  0  0  0  0  0  0  0  0
  151.2096  140.3357  157.2193 C   0  0  0  0  0  0  0  0  0  0  0  0
  150.2429  141.0601  157.9010 N   0  0  0  0  0  0  0  0  0  0  0  0
  149.4050  141.4180  156.9663 C   0  0  0  0  0  0  0  0  0  0  0  0
  149.6961  140.9679  155.6945 N   0  0  0  0  0  0  0  0  0  0  0  0
  148.9293  141.2555  154.4308 C   0  0  1  0  0  0  0  0  0  0  0  0
  148.6074  140.0525  153.8008 O   0  0  0  0  0  0  0  0  0  0  0  0
  147.3312  139.6226  154.2501 C   0  0  2  0  0  0  0  0  0  0  0  0
  146.7800  138.5411  153.3095 C   0  0  0  0  0  0  0  0  0  0  0  0
  147.3323  138.6791  152.0177 O   0  0  0  0  0  0  0  0  0  0  0  0
  146.5580  140.9392  154.2450 C   0  0  1  0  0  0  0  0  0  0  0  0
  145.4834  140.8944  155.0333 F   0  0  0  0  0  0  0  0  0  0  0  0
  147.5839  141.9401  154.7617 C   0  0  2  0  0  0  0  0  0  0  0  0
  147.4338  143.1859  154.1124 O   0  0  0  0  0  0  0  0  0  0  0  0
  152.3052  140.0944  159.6043 H   0  0  0  0  0  0  0  0  0  0  0  0
  153.6951  139.1558  159.1018 H   0  0  0  0  0  0  0  0  0  0  0  0
  153.3702  138.5799  154.6787 H   0  0  0  0  0  0  0  0  0  0  0  0
  148.5385  142.0258  157.1836 H   0  0  0  0  0  0  0  0  0  0  0  0
  149.6163  141.8526  153.8296 H   0  0  0  0  0  0  0  0  0  0  0  0
  147.4280  139.2349  155.2664 H   0  0  0  0  0  0  0  0  0  0  0  0
  146.9918  137.5427  153.6931 H   0  0  0  0  0  0  0  0  0  0  0  0
  145.6964  138.6333  153.2309 H   0  0  0  0  0  0  0  0  0  0  0  0
  147.7264  137.8567  151.7700 H   0  0  0  0  0  0  0  0  0  0  0  0
  146.2307  141.1870  153.2339 H   0  0  0  0  0  0  0  0  0  0  0  0
  147.4711  142.0699  155.8385 H   0  0  0  0  0  0  0  0  0  0  0  0
  147.9196  143.8355  154.5974 H   0  0  0  0  0  0  0  0  0  0  0  0
  1  2  1  0  0  0  0
  1 20  1  0  0  0  0
  1 21  1  0  0  0  0
  2  7  1  0  0  0  0
  2  3  2  0  0  0  0
  3  4  1  0  0  0  0
  4  5  2  0  0  0  0
  4 22  1  0  0  0  0
  5  6  1  0  0  0  0
  6 10  1  0  0  0  0
  6  7  2  0  0  0  0
  7  8  1  0  0  0  0
  8  9  2  0  0  0  0
  9 10  1  0  0  0  0
  9 23  1  0  0  0  0
 10 11  1  0  0  0  0
 11 18  1  0  0  0  0
 11 12  1  0  0  0  0
 11 24  1  0  0  0  0
 12 13  1  0  0  0  0
 13 14  1  0  0  0  0
 13 16  1  0  0  0  0
 13 25  1  0  0  0  0
 14 15  1  0  0  0  0
 14 26  1  0  0  0  0
 14 27  1  0  0  0  0
 15 28  1  0  0  0  0
 16 17  1  0  0  0  0
 16 18  1  0  0  0  0
 16 29  1  0  0  0  0
 18 19  1  0  0  0  0
 18 30  1  0  0  0  0
 19 31  1  0  0  0  0
M  END
> <s_m_source_file>
AV-unprocessed.smi

> <i_m_source_file_index>
100

> <i_lp_mmshare_version>
43012

> <i_f3d_flags>
0

> <s_epik_input>
bjFbY0hdbmMoW05IMl0pYyhjMTIpbltjSF1uMltDQEBIXTNPW0NAQEhdKFtDSDJdW09IXSlbQ0BIXShGKVtDQEhdM1tPSF0=

> <s_epik_cmdline>
J2VwaWtfcHl0aG9uJywgJy1waCcsICc3LjAnLCAnLXRuJywgJzgnLCAnLW1hJywgJzIwMCcsICctbWV0YWxfYmluZGluZycsICctaW1hZScsICc8aW5maWxlLm1hZT4nLCAnLW9tYWUnLCAnPG91dGZpbGUubWFlPic=

> <r_lp_tautomer_probability>
1

> <r_epik_Ionization_Penalty>
0.000750324

> <r_epik_Ionization_Penalty_Charging>
0

> <r_epik_Ionization_Penalty_Neutral>
0.000750324

> <r_epik_State_Penalty>
-0

> <r_epik_Charging_Adjusted_Penalty>
0

> <i_epik_Tot_Q>
0

> <i_epik_Tot_abs_Q>
0

> <r_epik_Metal_State_Penalty>
-0

> <b_epik_Metal_Only>
0

> <s_epik_Chemistry_Notes>
This compound contains an acetal/aminal-like group ( X-CH(R)-Y where X, Y are N, S, or O) that may be acid/base labile, releasing an aldehyde.

> <s_lp_Force_Field>
OPLS_2005

> <r_lp_Energy>
30.8526

> <b_lp_Chiralities_Consistent>
1

> <s_lp_Variant>
AV-unprocessed.smi:100-16

> <Gold.Version>
5.8.1

> <Gold.Id.Protein>
6NUR|6NUR_protein|mol2

> <Gold.PLP.Fitness>
37.5516

> <Gold.PLP.PLP>
-26.7373

> <Gold.PLP.part.hbond>
-6.2999

> <Gold.PLP.part.metal>
0.0000

> <Gold.PLP.part.buried>
-1.0184

> <Gold.PLP.part.nonpolar>
-21.1281

> <Gold.PLP.part.repulsive>
2.3258

> <Gold.PLP.ligand.clash>
0.0000

> <Gold.PLP.ligand.torsion>
0.4716

> <Gold.PLP.Chemscore.Hbond>
3.9025

> <Gold.PLP.Chemscore.CHOScore>
0.0000

> <Gold.PLP.Chemscore.Metal>
0.0000

> <Gold.Chemscore.Hbonds>
donor molecule, donor type, donor heavy atom, donor atom, acceptor molecule, acceptor atom, score
      L1  H    15    28       P1  7948  1.00
      L1  H    19    31       P1  8028  1.00
      P1  H  7989  7998       L1     5  1.00
      P1  H  7997  8008       L1     3  0.85

> <Gold.PLP.Chemscore.Internal.Correction>
0.0500

> <Gold.Rescore>
     Score         DG    S(hbond)    S(metal)    S(lipo)     H(rot)  DE(clash)    DE(int)     intcor
      6.48      -7.54       2.25        0.00      23.31       3.19       0.58       0.49       ----

> <Gold.Chemscore.Fitness>
6.4778

> <Gold.Chemscore.DG>
-7.5435

> <Gold.Chemscore.ZeroCoef>
-5.4800

> <Gold.Chemscore.Hbond>
2.2464

> <Gold.Chemscore.Metal>
0.0000

> <Gold.Chemscore.Lipo>
23.3086

> <Gold.Chemscore.Internal_Hbond>
0.0000

> <Gold.Chemscore.DEClash>
0.5755

> <Gold.Chemscore.DEInternal>
0.4902

> <Gold.Chemscore.Rot>
3.1901

> <Gold.Chemscore.Internal.Correction>
   9.000000E+99

> <Gold.Chemscore.Hbonds>
donor molecule, donor type, donor heavy atom, donor atom, acceptor molecule, acceptor atom, score
      L1  H    15    28       P1  7948  0.96
      L1  H    19    31       P1  8028  0.39
      P1  H  7989  7998       L1     5  0.44
      P1  H  7997  8008       L1     3  0.05

> <Gold.Chemscore.Hbond.Weighted>
-7.5031

> <Gold.Chemscore.Metal.Weighted>
-0.0000

> <Gold.Chemscore.Lipo.Weighted>
-2.7271

> <Gold.Chemscore.Internal_Hbond.Weighted>
0.0000

> <Gold.Chemscore.DEClash.Weighted>
0.5755

> <Gold.Chemscore.DEInternal.Weighted>
0.4902

> <Gold.Chemscore.Rot.Weighted>
8.1667

> <Gold.Chemscore.Internal.Correction.Weighted>
   9.000000E+99

> <Gold.Protein.RotatedTorsions>
[ 6907 6896 6895 6894 ] final  -50.75 input  -60.11 | X-H torsion
[ 7974 7965 7964 7962 ] final  140.92 input  175.53 | X-H torsion
[ 8008 7997 7996 7995 ] final  -51.04 input   59.86 | X-H torsion
[ 10167 10162 10161 10158 ] final  112.33 input  -65.29 | X-H torsion
[ 10718 10713 10712 10709 ] final  108.96 input   66.30 | X-H torsion
[ 10763 10752 10751 10750 ] final   43.45 input  -60.55 | X-H torsion
[ 11005 11000 10999 10996 ] final  -12.32 input  -57.11 | X-H torsion

> <Gold.Protein.ActiveResidues>
 VAL166  LYS551  ARG553  GLY616  TRP617  ASP618  TYR619  PRO620  LYS621  CYS622 
 ASP623  PHE694  ASN695  SER759  ASP760  ASP761  ALA762  ILE779  LEU786  VAL792 
 PHE793  MET794  SER795  GLU796  ALA797  LYS798  CYS799  TRP800  GLU811  SER814 

> <Gold.Protein.RotatedAtoms>
  150.8677  134.8043  159.7130 H   0  0  0  0  0  0  0  0  0  0  0  0  # atno 6907 bound_to 6896
  152.4692  134.4998  159.9731 H   0  0  0  0  0  0  0  0  0  0  0  0  # atno 6908 bound_to 6896
  151.5091  133.3450  159.2917 H   0  0  0  0  0  0  0  0  0  0  0  0  # atno 6909 bound_to 6896
  144.9143  139.5252  143.5694 H   0  0  0  0  0  0  0  0  0  0  0  0  # atno 7974 bound_to 7965
  154.4074  140.1257  156.4764 H   0  0  0  0  0  0  0  0  0  0  0  0  # atno 8008 bound_to 7997
  155.7128  140.3493  155.4962 H   0  0  0  0  0  0  0  0  0  0  0  0  # atno 8009 bound_to 7997
  155.9285  140.1065  157.1141 H   0  0  0  0  0  0  0  0  0  0  0  0  # atno 8010 bound_to 7997
  139.6544  144.7129  151.1986 H   0  0  0  0  0  0  0  0  0  0  0  0  # atno 10167 bound_to 10162
  157.6563  131.0904  150.6382 H   0  0  0  0  0  0  0  0  0  0  0  0  # atno 10718 bound_to 10713
  152.9860  135.6101  154.3113 H   0  0  0  0  0  0  0  0  0  0  0  0  # atno 10763 bound_to 10752
  154.2829  135.2776  155.2691 H   0  0  0  0  0  0  0  0  0  0  0  0  # atno 10764 bound_to 10752
  154.5022  135.5864  153.6596 H   0  0  0  0  0  0  0  0  0  0  0  0  # atno 10765 bound_to 10752
  140.7645  133.8488  155.9153 H   0  0  0  0  0  0  0  0  0  0  0  0  # atno 11005 bound_to 11000
  146.3174  139.7973  142.8973 LP  0  0  0  0  0  0  0  0  0  0  0  0  # atno 17320 bound_to 7965
  145.3402  141.0286  143.3396 LP  0  0  0  0  0  0  0  0  0  0  0  0  # atno 17321 bound_to 7965
  140.7552  143.6097  150.8618 LP  0  0  0  0  0  0  0  0  0  0  0  0  # atno 17342 bound_to 10162
  139.9748  143.6016  152.2962 LP  0  0  0  0  0  0  0  0  0  0  0  0  # atno 17343 bound_to 10162
  156.6689  130.4533  149.5663 LP  0  0  0  0  0  0  0  0  0  0  0  0  # atno 17370 bound_to 10713
  156.2012  130.6621  151.1169 LP  0  0  0  0  0  0  0  0  0  0  0  0  # atno 17371 bound_to 10713
  140.9632  134.1628  157.4637 LP  0  0  0  0  0  0  0  0  0  0  0  0  # atno 17394 bound_to 11000
  139.8765  134.9952  156.5733 LP  0  0  0  0  0  0  0  0  0  0  0  0  # atno 17395 bound_to 11000

$$$$
