AV-unprocessed.smi:2655|AV-procd|sdf|10298|dock6
  -GOLD-   2272014313D 1   1.00000     0.00000
 Structure written by MMmdl.
 33 34  0  0  0  0  0  0  0  0  2 V2000
  154.4526  135.0978  161.8965 C   0  0  0  0  0  0  0  0  0  0  0  0
  154.6473  134.7752  160.4432 C   0  0  0  0  0  0  0  0  0  0  0  0
  154.7477  133.5036  160.0689 N   0  0  0  0  0  0  0  0  0  0  0  0
  154.9150  133.5624  158.7340 N   0  0  0  0  0  0  0  0  0  0  0  0
  154.9176  134.8550  158.2775 C   0  0  0  0  0  0  0  0  0  0  0  0
  155.0759  135.1353  156.9710 O   0  5  0  0  0  0  0  0  0  0  0  0
  154.7434  135.6863  159.3458 C   0  0  0  0  0  0  0  0  0  0  0  0
  154.6761  137.1884  159.3733 C   0  0  0  0  0  0  0  0  0  0  0  0
  155.5167  137.7632  160.5239 C   0  0  0  0  0  0  0  0  0  0  0  0
  154.8684  138.9169  161.1355 N   0  0  0  0  0  0  0  0  0  0  0  0
  154.4190  139.9904  160.4701 C   0  0  0  0  0  0  0  0  0  0  0  0
  154.4957  140.1127  159.2475 O   0  0  0  0  0  0  0  0  0  0  0  0
  153.8881  140.8936  161.3116 N   0  0  0  0  0  0  0  0  0  0  0  0
  153.3189  142.1565  161.0059 C   0  0  0  0  0  0  0  0  0  0  0  0
  153.3637  142.8205  159.7455 C   0  0  0  0  0  0  0  0  0  0  0  0
  152.6781  143.9779  159.9846 C   0  0  0  0  0  0  0  0  0  0  0  0
  152.3315  145.1467  159.1276 C   0  0  0  0  0  0  0  0  0  0  0  0
  152.2524  144.0185  161.2758 O   0  0  0  0  0  0  0  0  0  0  0  0
  152.6664  142.8479  161.9222 N   0  0  0  0  0  0  0  0  0  0  0  0
  154.9514  136.0300  162.1620 H   0  0  0  0  0  0  0  0  0  0  0  0
  154.8570  134.3146  162.5385 H   0  0  0  0  0  0  0  0  0  0  0  0
  153.3942  135.2088  162.1314 H   0  0  0  0  0  0  0  0  0  0  0  0
  155.0233  132.7337  158.1672 H   0  0  0  0  0  0  0  0  0  0  0  0
  153.6422  137.5205  159.4729 H   0  0  0  0  0  0  0  0  0  0  0  0
  155.0279  137.6024  158.4277 H   0  0  0  0  0  0  0  0  0  0  0  0
  155.7121  136.9972  161.2764 H   0  0  0  0  0  0  0  0  0  0  0  0
  156.4887  138.0835  160.1474 H   0  0  0  0  0  0  0  0  0  0  0  0
  154.7661  138.8986  162.1395 H   0  0  0  0  0  0  0  0  0  0  0  0
  153.8985  140.6515  162.2914 H   0  0  0  0  0  0  0  0  0  0  0  0
  153.8165  142.5156  158.8144 H   0  0  0  0  0  0  0  0  0  0  0  0
  152.5381  144.9350  158.0783 H   0  0  0  0  0  0  0  0  0  0  0  0
  152.9126  146.0225  159.4171 H   0  0  0  0  0  0  0  0  0  0  0  0
  151.2741  145.3951  159.2199 H   0  0  0  0  0  0  0  0  0  0  0  0
  1 20  1  0  0  0  0
  1 21  1  0  0  0  0
  1 22  1  0  0  0  0
  1  2  1  0  0  0  0
  2  7  1  0  0  0  0
  2  3  2  0  0  0  0
  3  4  1  0  0  0  0
  4 23  1  0  0  0  0
  4  5  1  0  0  0  0
  5  7  2  0  0  0  0
  5  6  1  0  0  0  0
  7  8  1  0  0  0  0
  8  9  1  0  0  0  0
  8 24  1  0  0  0  0
  8 25  1  0  0  0  0
  9 10  1  0  0  0  0
  9 26  1  0  0  0  0
  9 27  1  0  0  0  0
 10 11  1  0  0  0  0
 10 28  1  0  0  0  0
 11 12  2  0  0  0  0
 11 13  1  0  0  0  0
 13 14  1  0  0  0  0
 13 29  1  0  0  0  0
 14 19  2  0  0  0  0
 14 15  1  0  0  0  0
 15 16  2  0  0  0  0
 15 30  1  0  0  0  0
 16 17  1  0  0  0  0
 16 18  1  0  0  0  0
 17 31  1  0  0  0  0
 17 32  1  0  0  0  0
 17 33  1  0  0  0  0
 18 19  1  0  0  0  0
M  CHG  1   6  -1
M  END
> <s_m_source_file>
AV-unprocessed.smi

> <i_m_source_file_index>
2655

> <i_lp_mmshare_version>
43012

> <i_f3d_flags>
0

> <s_epik_input>
W0NIM11DMT1OW05IXUMoPU8pW0NASF0xW0NIMl1bQ0gyXVtOSF1DKD1PKVtOSF1jMltjSF1jKFtDSDNdKW9uMg==

> <s_epik_cmdline>
J2VwaWtfcHl0aG9uJywgJy1waCcsICc3LjAnLCAnLXRuJywgJzgnLCAnLW1hJywgJzIwMCcsICctbWV0YWxfYmluZGluZycsICctaW1hZScsICc8aW5maWxlLm1hZT4nLCAnLW9tYWUnLCAnPG91dGZpbGUubWFlPic=

> <r_lp_tautomer_probability>
0.99495

> <r_epik_Ionization_Penalty>
1.68606

> <r_epik_Ionization_Penalty_Charging>
0.00156442

> <r_epik_Ionization_Penalty_Neutral>
1.68449

> <r_epik_State_Penalty>
0.315845

> <r_epik_Charging_Adjusted_Penalty>
0.31741

> <i_epik_Tot_Q>
-1

> <i_epik_Tot_abs_Q>
1

> <r_epik_Metal_State_Penalty>
0.0445802

> <b_epik_Metal_Only>
0

> <s_lp_Force_Field>
OPLS_2005

> <r_lp_Energy>
-3.25288

> <b_lp_Chiralities_Consistent>
1

> <s_lp_Variant>
AV-unprocessed.smi:2655-1

> <Gold.Version>
5.8.1

> <Gold.Id.Protein>
6NUR|6NUR_protein|mol2

> <Gold.PLP.Fitness>
36.7243

> <Gold.PLP.PLP>
-28.7638

> <Gold.PLP.part.hbond>
-2.0000

> <Gold.PLP.part.metal>
0.0000

> <Gold.PLP.part.buried>
-5.4109

> <Gold.PLP.part.nonpolar>
-21.1104

> <Gold.PLP.part.repulsive>
0.3212

> <Gold.PLP.ligand.clash>
0.0000

> <Gold.PLP.ligand.torsion>
0.5122

> <Gold.PLP.Chemscore.Hbond>
2.9920

> <Gold.PLP.Chemscore.CHOScore>
0.0000

> <Gold.PLP.Chemscore.Metal>
0.0000

> <Gold.Chemscore.Hbonds>
donor molecule, donor type, donor heavy atom, donor atom, acceptor molecule, acceptor atom, score
      P1  H  6896  6908       L1     3  0.01
      P1  H  7997  8008       L1    12  0.98
      P1  H 10752 10764       L1     6  2.00

> <Gold.PLP.Chemscore.Internal.Correction>
0.0088

> <Gold.Rescore>
     Score         DG    S(hbond)    S(metal)    S(lipo)     H(rot)  DE(clash)    DE(int)     intcor
     13.84     -14.21       1.97        0.00      58.77       1.85       0.00       0.37       ----

> <Gold.Chemscore.Fitness>
13.8419

> <Gold.Chemscore.DG>
-14.2116

> <Gold.Chemscore.ZeroCoef>
-5.4800

> <Gold.Chemscore.Hbond>
1.9739

> <Gold.Chemscore.Metal>
0.0000

> <Gold.Chemscore.Lipo>
58.7657

> <Gold.Chemscore.Internal_Hbond>
0.0000

> <Gold.Chemscore.DEClash>
0.0000

> <Gold.Chemscore.DEInternal>
0.3697

> <Gold.Chemscore.Rot>
1.8504

> <Gold.Chemscore.Internal.Correction>
   9.000000E+99

> <Gold.Chemscore.Hbonds>
donor molecule, donor type, donor heavy atom, donor atom, acceptor molecule, acceptor atom, score
      P1  H  7997  8008       L1    12  0.90
      P1  H 10752 10764       L1     6  1.00

> <Gold.Chemscore.Hbond.Weighted>
-6.5930

> <Gold.Chemscore.Metal.Weighted>
-0.0000

> <Gold.Chemscore.Lipo.Weighted>
-6.8756

> <Gold.Chemscore.Internal_Hbond.Weighted>
0.0000

> <Gold.Chemscore.DEClash.Weighted>
0.0000

> <Gold.Chemscore.DEInternal.Weighted>
0.3697

> <Gold.Chemscore.Rot.Weighted>
4.7369

> <Gold.Chemscore.Internal.Correction.Weighted>
   9.000000E+99

> <Gold.Protein.RotatedTorsions>
[ 6907 6896 6895 6894 ] final   -4.44 input  -60.11 | X-H torsion
[ 7974 7965 7964 7962 ] final   38.13 input  175.53 | X-H torsion
[ 8008 7997 7996 7995 ] final -120.57 input   59.86 | X-H torsion
[ 10167 10162 10161 10158 ] final  149.14 input  -65.29 | X-H torsion
[ 10718 10713 10712 10709 ] final  -26.99 input   66.30 | X-H torsion
[ 10763 10752 10751 10750 ] final   34.70 input  -60.55 | X-H torsion
[ 11005 11000 10999 10996 ] final   65.31 input  -57.11 | X-H torsion

> <Gold.Protein.ActiveResidues>
 VAL166  LYS551  ARG553  GLY616  TRP617  ASP618  TYR619  PRO620  LYS621  CYS622 
 ASP623  PHE694  ASN695  SER759  ASP760  ASP761  ALA762  ILE779  LEU786  VAL792 
 PHE793  MET794  SER795  GLU796  ALA797  LYS798  CYS799  TRP800  GLU811  SER814 

> <Gold.Protein.RotatedAtoms>
  151.4976  135.1060  159.9819 H   0  0  0  0  0  0  0  0  0  0  0  0  # atno 6907 bound_to 6896
  152.4715  133.8037  159.6977 H   0  0  0  0  0  0  0  0  0  0  0  0  # atno 6908 bound_to 6896
  150.8727  133.7419  159.2982 H   0  0  0  0  0  0  0  0  0  0  0  0  # atno 6909 bound_to 6896
  146.1085  139.5809  142.9367 H   0  0  0  0  0  0  0  0  0  0  0  0  # atno 7974 bound_to 7965
  155.1339  140.0400  157.2781 H   0  0  0  0  0  0  0  0  0  0  0  0  # atno 8008 bound_to 7997
  154.6522  140.2572  155.7174 H   0  0  0  0  0  0  0  0  0  0  0  0  # atno 8009 bound_to 7997
  156.2582  140.2834  156.0961 H   0  0  0  0  0  0  0  0  0  0  0  0  # atno 8010 bound_to 7997
  139.4865  144.5625  151.7205 H   0  0  0  0  0  0  0  0  0  0  0  0  # atno 10167 bound_to 10162
  156.4440  130.4470  149.7034 H   0  0  0  0  0  0  0  0  0  0  0  0  # atno 10718 bound_to 10713
  153.0152  135.6353  154.1710 H   0  0  0  0  0  0  0  0  0  0  0  0  # atno 10763 bound_to 10752
  154.1449  135.2832  155.3152 H   0  0  0  0  0  0  0  0  0  0  0  0  # atno 10764 bound_to 10752
  154.6097  135.5560  153.7521 H   0  0  0  0  0  0  0  0  0  0  0  0  # atno 10765 bound_to 10752
  139.9902  134.6603  156.0104 H   0  0  0  0  0  0  0  0  0  0  0  0  # atno 11005 bound_to 11000
  145.5711  141.0394  143.2173 LP  0  0  0  0  0  0  0  0  0  0  0  0  # atno 17320 bound_to 7965
  144.7491  139.7240  143.7280 LP  0  0  0  0  0  0  0  0  0  0  0  0  # atno 17321 bound_to 7965
  140.5197  144.0898  150.6019 LP  0  0  0  0  0  0  0  0  0  0  0  0  # atno 17342 bound_to 10162
  140.3852  143.2781  152.0124 LP  0  0  0  0  0  0  0  0  0  0  0  0  # atno 17343 bound_to 10162
  156.3887  130.7616  151.2615 LP  0  0  0  0  0  0  0  0  0  0  0  0  # atno 17370 bound_to 10713
  157.7505  131.0274  150.4004 LP  0  0  0  0  0  0  0  0  0  0  0  0  # atno 17371 bound_to 10713
  141.1559  133.6543  156.4161 LP  0  0  0  0  0  0  0  0  0  0  0  0  # atno 17394 bound_to 11000
  140.4923  134.6564  157.5215 LP  0  0  0  0  0  0  0  0  0  0  0  0  # atno 17395 bound_to 11000

$$$$
