AV-unprocessed.smi:103|AV-procd|sdf|981|dock5
  -GOLD-   2262017543D 1   1.00000     0.00000
 Structure written by MMmdl.
 53 55  0  0  0  0  0  0  0  0  1 V2000
  144.2622  134.3780  151.4231 C   0  0  0  0  0  0  0  0  0  0  0  0
  144.0759  134.5858  152.9201 C   0  0  0  0  0  0  0  0  0  0  0  0
  143.0238  135.0329  153.3769 O   0  0  0  0  0  0  0  0  0  0  0  0
  145.1601  134.2226  153.6274 O   0  0  0  0  0  0  0  0  0  0  0  0
  145.2290  134.4683  155.0249 C   0  0  0  0  0  0  0  0  0  0  0  0
  145.8031  135.8697  155.2868 C   0  0  2  0  0  0  0  0  0  0  0  0
  147.1664  135.9351  154.8819 O   0  0  0  0  0  0  0  0  0  0  0  0
  147.9778  135.6871  155.9763 C   0  0  1  0  0  0  0  0  0  0  0  0
  149.3794  136.1548  155.6548 N   0  0  0  0  0  0  0  0  0  0  0  0
  150.5709  135.4542  155.7838 C   0  0  0  0  0  0  0  0  0  0  0  0
  150.8041  133.7728  156.3709 S   0  0  0  0  0  0  0  0  0  0  0  0
  150.2825  132.7607  154.9262 C   0  0  0  0  0  0  0  0  0  0  0  0
  152.2399  133.5820  156.6185 O   0  0  0  0  0  0  0  0  0  0  0  0
  149.8356  133.5651  157.4594 O   0  0  0  0  0  0  0  0  0  0  0  0
  151.6682  136.0977  155.4967 N   0  0  0  0  0  0  0  0  0  0  0  0
  151.2181  137.3539  155.1365 C   0  0  0  0  0  0  0  0  0  0  0  0
  151.8718  138.5401  154.7170 C   0  0  0  0  0  0  0  0  0  0  0  0
  153.2015  138.6313  154.5777 N   0  0  0  0  0  0  0  0  0  0  0  0
  151.1229  139.6333  154.4491 N   0  0  0  0  0  0  0  0  0  0  0  0
  149.7970  139.5676  154.5886 C   0  0  0  0  0  0  0  0  0  0  0  0
  149.0515  138.5291  154.9713 N   0  0  0  0  0  0  0  0  0  0  0  0
  149.7971  137.4147  155.2369 C   0  0  0  0  0  0  0  0  0  0  0  0
  147.2837  136.4110  157.1305 C   0  0  2  0  0  0  0  0  0  0  0  0
  147.6141  135.7927  158.3682 O   0  0  0  0  0  0  0  0  0  0  0  0
  147.2580  136.3701  159.5288 C   0  0  0  0  0  0  0  0  0  0  0  0
  147.7946  135.6181  160.7390 C   0  0  0  0  0  0  0  0  0  0  0  0
  146.5814  137.3908  159.6535 O   0  0  0  0  0  0  0  0  0  0  0  0
  145.8128  136.2060  156.7881 C   0  0  1  0  0  0  0  0  0  0  0  0
  145.0972  137.4039  157.0610 O   0  0  0  0  0  0  0  0  0  0  0  0
  143.8074  137.5184  156.7044 C   0  0  0  0  0  0  0  0  0  0  0  0
  143.1756  138.8035  157.2215 C   0  0  0  0  0  0  0  0  0  0  0  0
  143.1656  136.7083  156.0355 O   0  0  0  0  0  0  0  0  0  0  0  0
  143.9263  133.3804  151.1393 H   0  0  0  0  0  0  0  0  0  0  0  0
  145.3114  134.4830  151.1459 H   0  0  0  0  0  0  0  0  0  0  0  0
  143.6826  135.1110  150.8620 H   0  0  0  0  0  0  0  0  0  0  0  0
  144.2110  134.4173  155.4118 H   0  0  0  0  0  0  0  0  0  0  0  0
  145.8012  133.7122  155.5642 H   0  0  0  0  0  0  0  0  0  0  0  0
  145.2348  136.6099  154.7217 H   0  0  0  0  0  0  0  0  0  0  0  0
  148.0692  134.6154  156.1500 H   0  0  0  0  0  0  0  0  0  0  0  0
  150.3214  131.7057  155.1959 H   0  0  0  0  0  0  0  0  0  0  0  0
  150.9486  132.9347  154.0844 H   0  0  0  0  0  0  0  0  0  0  0  0
  149.2631  133.0253  154.6470 H   0  0  0  0  0  0  0  0  0  0  0  0
  153.7841  137.8302  154.7752 H   0  0  0  0  0  0  0  0  0  0  0  0
  153.6180  139.4988  154.2718 H   0  0  0  0  0  0  0  0  0  0  0  0
  149.2557  140.4741  154.3615 H   0  0  0  0  0  0  0  0  0  0  0  0
  147.5280  137.4726  157.0875 H   0  0  0  0  0  0  0  0  0  0  0  0
  148.8797  135.7093  160.7883 H   0  0  0  0  0  0  0  0  0  0  0  0
  147.5367  134.5609  160.6746 H   0  0  0  0  0  0  0  0  0  0  0  0
  147.3712  136.0213  161.6590 H   0  0  0  0  0  0  0  0  0  0  0  0
  145.4163  135.3696  157.3671 H   0  0  0  0  0  0  0  0  0  0  0  0
  143.1017  138.7763  158.3089 H   0  0  0  0  0  0  0  0  0  0  0  0
  142.1747  138.9318  156.8091 H   0  0  0  0  0  0  0  0  0  0  0  0
  143.7794  139.6652  156.9363 H   0  0  0  0  0  0  0  0  0  0  0  0
  1  2  1  0  0  0  0
  1 33  1  0  0  0  0
  1 34  1  0  0  0  0
  1 35  1  0  0  0  0
  2  3  2  0  0  0  0
  2  4  1  0  0  0  0
  4  5  1  0  0  0  0
  5  6  1  0  0  0  0
  5 36  1  0  0  0  0
  5 37  1  0  0  0  0
  6 28  1  0  0  0  0
  6  7  1  0  0  0  0
  6 38  1  0  0  0  0
  7  8  1  0  0  0  0
  8  9  1  0  0  0  0
  8 23  1  0  0  0  0
  8 39  1  0  0  0  0
  9 22  1  0  0  0  0
  9 10  1  0  0  0  0
 10 11  1  0  0  0  0
 10 15  2  0  0  0  0
 11 12  1  0  0  0  0
 11 13  2  0  0  0  0
 11 14  2  0  0  0  0
 12 40  1  0  0  0  0
 12 41  1  0  0  0  0
 12 42  1  0  0  0  0
 15 16  1  0  0  0  0
 16 22  2  0  0  0  0
 16 17  1  0  0  0  0
 17 18  1  0  0  0  0
 17 19  2  0  0  0  0
 18 43  1  0  0  0  0
 18 44  1  0  0  0  0
 19 20  1  0  0  0  0
 20 21  2  0  0  0  0
 20 45  1  0  0  0  0
 21 22  1  0  0  0  0
 23 24  1  0  0  0  0
 23 28  1  0  0  0  0
 23 46  1  0  0  0  0
 24 25  1  0  0  0  0
 25 26  1  0  0  0  0
 25 27  2  0  0  0  0
 26 47  1  0  0  0  0
 26 48  1  0  0  0  0
 26 49  1  0  0  0  0
 28 29  1  0  0  0  0
 28 50  1  0  0  0  0
 29 30  1  0  0  0  0
 30 31  1  0  0  0  0
 30 32  2  0  0  0  0
 31 51  1  0  0  0  0
 31 52  1  0  0  0  0
 31 53  1  0  0  0  0
M  END
> <s_m_source_file>
AV-unprocessed.smi

> <i_m_source_file_index>
103

> <i_lp_mmshare_version>
43012

> <i_f3d_flags>
0

> <s_epik_input>
W0NIM11DKD1PKU9bQ0gyXVtDQEBIXTFPW0NASF0oW0NAQEhdKE9DKD1PKVtDSDNdKVtDQEhdMU9DKD1PKVtDSDNdKW4oYyhuMilTKD1PKSg9TylbQ0gzXSljKGMyMyluW2NIXW5jM1tOSDJd

> <s_epik_cmdline>
J2VwaWtfcHl0aG9uJywgJy1waCcsICc3LjAnLCAnLXRuJywgJzgnLCAnLW1hJywgJzIwMCcsICctbWV0YWxfYmluZGluZycsICctaW1hZScsICc8aW5maWxlLm1hZT4nLCAnLW9tYWUnLCAnPG91dGZpbGUubWFlPic=

> <r_lp_tautomer_probability>
1

> <r_epik_Ionization_Penalty>
1.51338e-05

> <r_epik_Ionization_Penalty_Charging>
0

> <r_epik_Ionization_Penalty_Neutral>
1.51338e-05

> <r_epik_State_Penalty>
-0

> <r_epik_Charging_Adjusted_Penalty>
0

> <i_epik_Tot_Q>
0

> <i_epik_Tot_abs_Q>
0

> <r_epik_Metal_State_Penalty>
-0

> <b_epik_Metal_Only>
0

> <s_epik_Chemistry_Notes>
This compound has an ester and may undergo hydrolysis at high or low pH. This compound contains an acetal/aminal-like group ( X-CH(R)-Y where X, Y are N, S, or O) that may be acid/base labile, releasing an aldehyde.

> <s_lp_Force_Field>
OPLS_2005

> <r_lp_Energy>
16.7775

> <b_lp_Chiralities_Consistent>
1

> <s_lp_Variant>
AV-unprocessed.smi:103-5

> <Gold.Version>
5.8.1

> <Gold.Id.Protein>
6NUR|6NUR_protein|mol2

> <Gold.PLP.Fitness>
39.5736

> <Gold.PLP.PLP>
-28.4007

> <Gold.PLP.part.hbond>
-4.5247

> <Gold.PLP.part.metal>
0.0000

> <Gold.PLP.part.buried>
-6.0814

> <Gold.PLP.part.nonpolar>
-18.2494

> <Gold.PLP.part.repulsive>
0.7830

> <Gold.PLP.ligand.clash>
0.0000

> <Gold.PLP.ligand.torsion>
1.4833

> <Gold.PLP.Chemscore.Hbond>
3.9920

> <Gold.PLP.Chemscore.CHOScore>
0.0000

> <Gold.PLP.Chemscore.Metal>
0.0000

> <Gold.Chemscore.Hbonds>
donor molecule, donor type, donor heavy atom, donor atom, acceptor molecule, acceptor atom, score
      P1  H  6896  6909       L1    14  0.96
      P1  H  6934  6947       L1    27  0.73
      P1  H  7989  7998       L1    19  1.00
      P1  H 10752 10763       L1    15  1.00

> <Gold.PLP.Chemscore.Internal.Correction>
2.1634

> <Gold.Rescore>
     Score         DG    S(hbond)    S(metal)    S(lipo)     H(rot)  DE(clash)    DE(int)     intcor
      8.00      -9.48       3.63        0.00      23.59       4.25       0.09       1.40       ----

> <Gold.Chemscore.Fitness>
7.9958

> <Gold.Chemscore.DG>
-9.4832

> <Gold.Chemscore.ZeroCoef>
-5.4800

> <Gold.Chemscore.Hbond>
3.6262

> <Gold.Chemscore.Metal>
0.0000

> <Gold.Chemscore.Lipo>
23.5920

> <Gold.Chemscore.Internal_Hbond>
0.0000

> <Gold.Chemscore.DEClash>
0.0901

> <Gold.Chemscore.DEInternal>
1.3974

> <Gold.Chemscore.Rot>
4.2456

> <Gold.Chemscore.Internal.Correction>
   9.000000E+99

> <Gold.Chemscore.Hbonds>
donor molecule, donor type, donor heavy atom, donor atom, acceptor molecule, acceptor atom, score
      P1  H  6896  6909       L1    14  0.63
      P1  H  6934  6947       L1    27  0.70
      P1  H  7989  7998       L1    19  0.87
      P1  H 10752 10763       L1    15  0.95

> <Gold.Chemscore.Hbond.Weighted>
-12.1116

> <Gold.Chemscore.Metal.Weighted>
-0.0000

> <Gold.Chemscore.Lipo.Weighted>
-2.7603

> <Gold.Chemscore.Internal_Hbond.Weighted>
0.0000

> <Gold.Chemscore.DEClash.Weighted>
0.0901

> <Gold.Chemscore.DEInternal.Weighted>
1.3974

> <Gold.Chemscore.Rot.Weighted>
10.8687

> <Gold.Chemscore.Internal.Correction.Weighted>
   9.000000E+99

> <Gold.Protein.RotatedTorsions>
[ 6907 6896 6895 6894 ] final   -1.31 input  -60.11 | X-H torsion
[ 7974 7965 7964 7962 ] final -123.68 input  175.53 | X-H torsion
[ 8008 7997 7996 7995 ] final  -39.95 input   59.86 | X-H torsion
[ 10167 10162 10161 10158 ] final  -28.88 input  -65.29 | X-H torsion
[ 10718 10713 10712 10709 ] final  -16.18 input   66.30 | X-H torsion
[ 10763 10752 10751 10750 ] final   72.96 input  -60.55 | X-H torsion
[ 11005 11000 10999 10996 ] final  -48.34 input  -57.11 | X-H torsion

> <Gold.Protein.ActiveResidues>
 VAL166  LYS551  ARG553  GLY616  TRP617  ASP618  TYR619  PRO620  LYS621  CYS622 
 ASP623  PHE694  ASN695  SER759  ASP760  ASP761  ALA762  ILE779  LEU786  VAL792 
 PHE793  MET794  SER795  GLU796  ALA797  LYS798  CYS799  TRP800  GLU811  SER814 

> <Gold.Protein.RotatedAtoms>
  151.5482  135.1068  159.9942 H   0  0  0  0  0  0  0  0  0  0  0  0  # atno 6907 bound_to 6896
  152.4504  133.7613  159.6759 H   0  0  0  0  0  0  0  0  0  0  0  0  # atno 6908 bound_to 6896
  150.8430  133.7838  159.3078 H   0  0  0  0  0  0  0  0  0  0  0  0  # atno 6909 bound_to 6896
  145.0162  140.7948  143.4409 H   0  0  0  0  0  0  0  0  0  0  0  0  # atno 7974 bound_to 7965
  154.4017  140.1538  156.2948 H   0  0  0  0  0  0  0  0  0  0  0  0  # atno 8008 bound_to 7997
  155.8753  140.3446  155.5828 H   0  0  0  0  0  0  0  0  0  0  0  0  # atno 8009 bound_to 7997
  155.7728  140.0832  157.2090 H   0  0  0  0  0  0  0  0  0  0  0  0  # atno 8010 bound_to 7997
  140.7266  143.3974  151.1324 H   0  0  0  0  0  0  0  0  0  0  0  0  # atno 10167 bound_to 10162
  156.5912  130.4799  149.6279 H   0  0  0  0  0  0  0  0  0  0  0  0  # atno 10718 bound_to 10713
  153.0491  135.5080  154.7823 H   0  0  0  0  0  0  0  0  0  0  0  0  # atno 10763 bound_to 10752
  154.6699  135.2951  154.9758 H   0  0  0  0  0  0  0  0  0  0  0  0  # atno 10764 bound_to 10752
  154.0580  135.6695  153.4861 H   0  0  0  0  0  0  0  0  0  0  0  0  # atno 10765 bound_to 10752
  141.0695  133.6683  156.3427 H   0  0  0  0  0  0  0  0  0  0  0  0  # atno 11005 bound_to 11000
  145.1957  139.2278  143.5219 LP  0  0  0  0  0  0  0  0  0  0  0  0  # atno 17320 bound_to 7965
  146.3478  140.1763  142.8589 LP  0  0  0  0  0  0  0  0  0  0  0  0  # atno 17321 bound_to 7965
  139.7588  143.8666  152.3095 LP  0  0  0  0  0  0  0  0  0  0  0  0  # atno 17342 bound_to 10162
  139.8545  144.7148  150.9173 LP  0  0  0  0  0  0  0  0  0  0  0  0  # atno 17343 bound_to 10162
  156.2548  130.6928  151.1678 LP  0  0  0  0  0  0  0  0  0  0  0  0  # atno 17370 bound_to 10713
  157.7303  131.0617  150.5732 LP  0  0  0  0  0  0  0  0  0  0  0  0  # atno 17371 bound_to 10713
  140.5704  134.5846  157.5456 LP  0  0  0  0  0  0  0  0  0  0  0  0  # atno 17394 bound_to 11000
  139.9509  134.7619  156.0451 LP  0  0  0  0  0  0  0  0  0  0  0  0  # atno 17395 bound_to 11000

$$$$
