AV-unprocessed.smi:2164|AV-procd|sdf|8808|dock2
  -GOLD-   2272011593D 1   1.00000     0.00000
 Structure written by MMmdl.
 39 41  0  0  0  0  0  0  0  0  1 V2000
  152.3732  137.2161  160.6060 O   0  0  0  0  0  0  0  0  0  0  0  0
  153.0453  137.8208  161.4432 C   0  0  0  0  0  0  0  0  0  0  0  0
  153.3573  139.1215  161.2996 N   0  0  0  0  0  0  0  0  0  0  0  0
  152.9303  139.9884  160.2032 C   0  0  0  0  0  0  0  0  0  0  0  0
  153.5574  141.3933  160.2920 C   0  0  0  0  0  0  0  0  0  0  0  0
  152.8058  142.4459  159.4957 C   0  0  0  0  0  0  0  0  0  0  0  0
  153.2959  143.7645  159.3993 C   0  0  0  0  0  0  0  0  0  0  0  0
  152.5827  144.6977  158.6224 C   0  0  0  0  0  0  0  0  0  0  0  0
  151.4067  144.2708  157.9738 C   0  0  0  0  0  0  0  0  0  0  0  0
  150.9259  143.0120  158.0617 N   0  0  0  0  0  0  0  0  0  0  0  0
  151.6143  142.1243  158.8105 C   0  0  0  0  0  0  0  0  0  0  0  0
  153.5600  137.2242  162.6775 C   0  0  0  0  0  0  0  0  0  0  0  0
  153.5196  135.8881  162.8396 C   0  0  0  0  0  0  0  0  0  0  0  0
  153.9858  135.2342  163.9819 N   0  0  0  0  0  0  0  0  0  0  0  0
  153.7865  133.7930  164.0768 C   0  0  0  0  0  0  0  0  0  0  0  0
  155.0259  133.1278  164.6529 C   0  0  0  0  0  0  0  0  0  0  0  0
  155.2220  133.7865  166.3527 S   0  0  0  0  0  0  0  0  0  0  0  0
  154.0222  133.4228  167.1226 O   0  0  0  0  0  0  0  0  0  0  0  0
  156.5465  133.3829  166.8484 O   0  0  0  0  0  0  0  0  0  0  0  0
  155.2040  135.4363  166.0538 N   0  0  0  0  0  0  0  0  0  0  0  0
  154.6181  135.9625  165.0214 C   0  0  0  0  0  0  0  0  0  0  0  0
  154.6207  137.4090  164.8710 C   0  0  0  0  0  0  0  0  0  0  0  0
  154.1248  138.0074  163.7684 C   0  0  0  0  0  0  0  0  0  0  0  0
  153.9124  139.5521  162.0245 H   0  0  0  0  0  0  0  0  0  0  0  0
  153.2247  139.5176  159.2650 H   0  0  0  0  0  0  0  0  0  0  0  0
  151.8421  140.0649  160.1727 H   0  0  0  0  0  0  0  0  0  0  0  0
  153.6082  141.7064  161.3356 H   0  0  0  0  0  0  0  0  0  0  0  0
  154.5880  141.3573  159.9373 H   0  0  0  0  0  0  0  0  0  0  0  0
  154.2071  144.0538  159.9022 H   0  0  0  0  0  0  0  0  0  0  0  0
  152.9308  145.7150  158.5221 H   0  0  0  0  0  0  0  0  0  0  0  0
  150.8371  144.9593  157.3670 H   0  0  0  0  0  0  0  0  0  0  0  0
  151.2098  141.1236  158.8508 H   0  0  0  0  0  0  0  0  0  0  0  0
  153.1156  135.2277  162.0848 H   0  0  0  0  0  0  0  0  0  0  0  0
  152.9130  133.5899  164.6972 H   0  0  0  0  0  0  0  0  0  0  0  0
  153.5785  133.3678  163.0943 H   0  0  0  0  0  0  0  0  0  0  0  0
  154.9142  132.0451  164.7078 H   0  0  0  0  0  0  0  0  0  0  0  0
  155.9196  133.3546  164.0704 H   0  0  0  0  0  0  0  0  0  0  0  0
  155.0327  138.0474  165.6391 H   0  0  0  0  0  0  0  0  0  0  0  0
  154.1619  139.0858  163.7211 H   0  0  0  0  0  0  0  0  0  0  0  0
  1  2  2  0  0  0  0
  2  3  1  0  0  0  0
  2 12  1  0  0  0  0
  3  4  1  0  0  0  0
  3 24  1  0  0  0  0
  4  5  1  0  0  0  0
  4 25  1  0  0  0  0
  4 26  1  0  0  0  0
  5  6  1  0  0  0  0
  5 27  1  0  0  0  0
  5 28  1  0  0  0  0
  6 11  1  0  0  0  0
  6  7  2  0  0  0  0
  7  8  1  0  0  0  0
  7 29  1  0  0  0  0
  8  9  2  0  0  0  0
  8 30  1  0  0  0  0
  9 10  1  0  0  0  0
  9 31  1  0  0  0  0
 10 11  2  0  0  0  0
 11 32  1  0  0  0  0
 12 23  1  0  0  0  0
 12 13  2  0  0  0  0
 13 14  1  0  0  0  0
 13 33  1  0  0  0  0
 14 21  1  0  0  0  0
 14 15  1  0  0  0  0
 15 16  1  0  0  0  0
 15 34  1  0  0  0  0
 15 35  1  0  0  0  0
 16 17  1  0  0  0  0
 16 36  1  0  0  0  0
 16 37  1  0  0  0  0
 17 18  2  0  0  0  0
 17 19  2  0  0  0  0
 17 20  1  0  0  0  0
 20 21  2  0  0  0  0
 21 22  1  0  0  0  0
 22 23  2  0  0  0  0
 22 38  1  0  0  0  0
 23 39  1  0  0  0  0
M  END
> <s_m_source_file>
AV-unprocessed.smi

> <i_m_source_file_index>
2164

> <i_lp_mmshare_version>
43012

> <i_f3d_flags>
0

> <s_epik_input>
W0NIMl0xW0NIMl1TKD1PKSg9TylOPUMoTjEyKVtDSF09W0NIXUMoPVtDSF0yKUMoPU8pW05IXVtDSDJdW0NIMl1jM1tjSF1bY0hdW2NIXW5bY0hdMw==

> <s_epik_cmdline>
J2VwaWtfcHl0aG9uJywgJy1waCcsICc3LjAnLCAnLXRuJywgJzgnLCAnLW1hJywgJzIwMCcsICctbWV0YWxfYmluZGluZycsICctaW1hZScsICc8aW5maWxlLm1hZT4nLCAnLW9tYWUnLCAnPG91dGZpbGUubWFlPic=

> <r_epik_Ionization_Penalty>
0.0095026

> <r_epik_Ionization_Penalty_Charging>
4.80604e-09

> <r_epik_Ionization_Penalty_Neutral>
0.00950259

> <r_epik_State_Penalty>
0.0071398

> <r_epik_Charging_Adjusted_Penalty>
0.0071398

> <i_epik_Tot_Q>
0

> <i_epik_Tot_abs_Q>
0

> <r_epik_Metal_State_Penalty>
0.0838865

> <b_epik_Metal_Only>
0

> <s_lp_Force_Field>
OPLS_2005

> <r_lp_Energy>
19.9083

> <b_lp_Chiralities_Consistent>
1

> <s_lp_Variant>
AV-unprocessed.smi:2164-1

> <Gold.Version>
5.8.1

> <Gold.Id.Protein>
6NUR|6NUR_protein|mol2

> <Gold.PLP.Fitness>
45.6658

> <Gold.PLP.PLP>
-43.0086

> <Gold.PLP.part.hbond>
0.0000

> <Gold.PLP.part.metal>
0.0000

> <Gold.PLP.part.buried>
-6.0547

> <Gold.PLP.part.nonpolar>
-39.2273

> <Gold.PLP.part.repulsive>
1.1199

> <Gold.PLP.ligand.clash>
0.0000

> <Gold.PLP.ligand.torsion>
0.1770

> <Gold.PLP.Chemscore.Hbond>
0.0000

> <Gold.PLP.Chemscore.CHOScore>
1.0000

> <Gold.PLP.Chemscore.Metal>
0.0000

> <Gold.Chemscore.Hbonds>
donor molecule, donor type, donor heavy atom, donor atom, acceptor molecule, acceptor atom, score
      L1  C     9    31       P1  8028  0.93

> <Gold.PLP.Chemscore.Internal.Correction>
0.0113

> <Gold.Rescore>
     Score         DG    S(hbond)    S(metal)    S(lipo)     H(rot)  DE(clash)    DE(int)     intcor
     14.39     -14.98       0.00        0.00     113.30       1.47       0.02       0.57       ----

> <Gold.Chemscore.Fitness>
14.3899

> <Gold.Chemscore.DG>
-14.9784

> <Gold.Chemscore.ZeroCoef>
-5.4800

> <Gold.Chemscore.Hbond>
0.0000

> <Gold.Chemscore.Metal>
0.0000

> <Gold.Chemscore.Lipo>
113.3007

> <Gold.Chemscore.Internal_Hbond>
0.0000

> <Gold.Chemscore.DEClash>
0.0222

> <Gold.Chemscore.DEInternal>
0.5662

> <Gold.Chemscore.Rot>
1.4679

> <Gold.Chemscore.Internal.Correction>
   9.000000E+99

> <Gold.Chemscore.Hbond.Weighted>
-0.0000

> <Gold.Chemscore.Metal.Weighted>
-0.0000

> <Gold.Chemscore.Lipo.Weighted>
-13.2562

> <Gold.Chemscore.Internal_Hbond.Weighted>
0.0000

> <Gold.Chemscore.DEClash.Weighted>
0.0222

> <Gold.Chemscore.DEInternal.Weighted>
0.5662

> <Gold.Chemscore.Rot.Weighted>
3.7578

> <Gold.Chemscore.Internal.Correction.Weighted>
   9.000000E+99

> <Gold.Protein.RotatedTorsions>
[ 6907 6896 6895 6894 ] final  -36.38 input  -60.11 | X-H torsion
[ 7974 7965 7964 7962 ] final  -33.34 input  175.53 | X-H torsion
[ 8008 7997 7996 7995 ] final   94.06 input   59.86 | X-H torsion
[ 10167 10162 10161 10158 ] final  -34.34 input  -65.29 | X-H torsion
[ 10718 10713 10712 10709 ] final   25.60 input   66.30 | X-H torsion
[ 10763 10752 10751 10750 ] final   85.98 input  -60.55 | X-H torsion
[ 11005 11000 10999 10996 ] final   59.96 input  -57.11 | X-H torsion

> <Gold.Protein.ActiveResidues>
 VAL166  LYS551  ARG553  GLY616  TRP617  ASP618  TYR619  PRO620  LYS621  CYS622 
 ASP623  PHE694  ASN695  SER759  ASP760  ASP761  ALA762  ILE779  LEU786  VAL792 
 PHE793  MET794  SER795  GLU796  ALA797  LYS798  CYS799  TRP800  GLU811  SER814 

> <Gold.Protein.RotatedAtoms>
  151.0279  134.9518  159.8095 H   0  0  0  0  0  0  0  0  0  0  0  0  # atno 6907 bound_to 6896
  152.5339  134.2818  159.9020 H   0  0  0  0  0  0  0  0  0  0  0  0  # atno 6908 bound_to 6896
  151.2826  133.4160  159.2662 H   0  0  0  0  0  0  0  0  0  0  0  0  # atno 6909 bound_to 6896
  146.0918  140.5904  142.8861 H   0  0  0  0  0  0  0  0  0  0  0  0  # atno 7974 bound_to 7965
  156.0537  140.3305  155.7380 H   0  0  0  0  0  0  0  0  0  0  0  0  # atno 8008 bound_to 7997
  155.5562  140.0615  157.2856 H   0  0  0  0  0  0  0  0  0  0  0  0  # atno 8009 bound_to 7997
  154.4448  140.1885  156.0724 H   0  0  0  0  0  0  0  0  0  0  0  0  # atno 8010 bound_to 7997
  140.7187  143.3555  151.2069 H   0  0  0  0  0  0  0  0  0  0  0  0  # atno 10167 bound_to 10162
  157.1956  130.6866  149.6167 H   0  0  0  0  0  0  0  0  0  0  0  0  # atno 10718 bound_to 10713
  153.1527  135.4597  154.9659 H   0  0  0  0  0  0  0  0  0  0  0  0  # atno 10763 bound_to 10752
  154.7837  135.3197  154.7936 H   0  0  0  0  0  0  0  0  0  0  0  0  # atno 10764 bound_to 10752
  153.8439  135.6927  153.4854 H   0  0  0  0  0  0  0  0  0  0  0  0  # atno 10765 bound_to 10752
  140.0266  134.6073  155.9564 H   0  0  0  0  0  0  0  0  0  0  0  0  # atno 11005 bound_to 11000
  144.7366  140.4825  143.6899 LP  0  0  0  0  0  0  0  0  0  0  0  0  # atno 17320 bound_to 7965
  145.6024  139.1505  143.3122 LP  0  0  0  0  0  0  0  0  0  0  0  0  # atno 17321 bound_to 7965
  139.7095  143.9400  152.2941 LP  0  0  0  0  0  0  0  0  0  0  0  0  # atno 17342 bound_to 10162
  139.9120  144.6851  150.8552 LP  0  0  0  0  0  0  0  0  0  0  0  0  # atno 17343 bound_to 10162
  155.9706  130.4600  150.6056 LP  0  0  0  0  0  0  0  0  0  0  0  0  # atno 17370 bound_to 10713
  157.3818  131.0782  151.1470 LP  0  0  0  0  0  0  0  0  0  0  0  0  # atno 17371 bound_to 10713
  141.1806  133.6546  156.5006 LP  0  0  0  0  0  0  0  0  0  0  0  0  # atno 17394 bound_to 11000
  140.4296  134.7114  157.4934 LP  0  0  0  0  0  0  0  0  0  0  0  0  # atno 17395 bound_to 11000

$$$$
