AV-unprocessed.smi:1698|AV-procd|sdf|6813|dock7
  -GOLD-   22720 7593D 1   1.00000     0.00000
 Structure written by MMmdl.
 28 29  0  0  0  0  0  0  0  0  1 V2000
  146.3460  133.3836  153.3615 O   0  0  0  0  0  0  0  0  0  0  0  0
  147.1393  132.7465  152.6713 C   0  0  0  0  0  0  0  0  0  0  0  0
  146.8727  132.2822  151.4357 N   0  0  0  0  0  0  0  0  0  0  0  0
  145.6715  132.4281  150.6976 C   0  0  0  0  0  0  0  0  0  0  0  0
  145.4612  131.9188  149.3873 C   0  0  0  0  0  0  0  0  0  0  0  0
  144.2447  132.2061  148.9465 N   0  0  0  0  0  0  0  0  0  0  0  0
  143.6767  132.8935  149.9630 N   0  0  0  0  0  0  0  0  0  0  0  0
  144.5081  133.0528  151.0496 C   0  0  0  0  0  0  0  0  0  0  0  0
  148.3767  132.4614  153.1155 N   0  0  0  0  0  0  0  0  0  0  0  0
  148.9829  132.8139  154.4004 C   0  0  2  0  0  0  0  0  0  0  0  0
  150.0472  133.9129  154.2230 C   0  0  0  0  0  0  0  0  0  0  0  0
  150.8908  133.9951  155.5018 C   0  0  0  0  0  0  0  0  0  0  0  0
  150.9081  132.3047  156.2106 S   0  0  0  0  0  0  0  0  0  0  0  0
  152.2108  131.6728  155.9530 O   0  0  0  0  0  0  0  0  0  0  0  0
  150.3447  132.3530  157.5684 O   0  0  0  0  0  0  0  0  0  0  0  0
  149.6647  131.6052  155.0620 C   0  0  0  0  0  0  0  0  0  0  0  0
  142.7313  133.2438  149.9009 H   0  0  0  0  0  0  0  0  0  0  0  0
  147.6125  131.7744  150.9735 H   0  0  0  0  0  0  0  0  0  0  0  0
  146.1369  131.3626  148.7544 H   0  0  0  0  0  0  0  0  0  0  0  0
  144.2005  133.5795  151.9408 H   0  0  0  0  0  0  0  0  0  0  0  0
  148.9709  131.9491  152.4794 H   0  0  0  0  0  0  0  0  0  0  0  0
  148.2216  133.2045  155.0782 H   0  0  0  0  0  0  0  0  0  0  0  0
  150.7022  133.6470  153.3917 H   0  0  0  0  0  0  0  0  0  0  0  0
  149.5992  134.8761  153.9774 H   0  0  0  0  0  0  0  0  0  0  0  0
  151.9091  134.3380  155.3182 H   0  0  0  0  0  0  0  0  0  0  0  0
  150.4257  134.6594  156.2306 H   0  0  0  0  0  0  0  0  0  0  0  0
  148.9728  130.9618  155.6059 H   0  0  0  0  0  0  0  0  0  0  0  0
  150.1959  131.0002  154.3262 H   0  0  0  0  0  0  0  0  0  0  0  0
  1  2  2  0  0  0  0
  2  3  1  0  0  0  0
  2  9  1  0  0  0  0
  3  4  1  0  0  0  0
  3 18  1  0  0  0  0
  4  8  2  0  0  0  0
  4  5  1  0  0  0  0
  5  6  2  0  0  0  0
  5 19  1  0  0  0  0
  6  7  1  0  0  0  0
  7 17  1  0  0  0  0
  7  8  1  0  0  0  0
  8 20  1  0  0  0  0
  9 10  1  0  0  0  0
  9 21  1  0  0  0  0
 10 16  1  0  0  0  0
 10 11  1  0  0  0  0
 10 22  1  0  0  0  0
 11 12  1  0  0  0  0
 11 23  1  0  0  0  0
 11 24  1  0  0  0  0
 12 13  1  0  0  0  0
 12 25  1  0  0  0  0
 12 26  1  0  0  0  0
 13 14  2  0  0  0  0
 13 15  2  0  0  0  0
 13 16  1  0  0  0  0
 16 27  1  0  0  0  0
 16 28  1  0  0  0  0
M  END
> <s_m_source_file>
AV-unprocessed.smi

> <i_m_source_file_index>
1698

> <i_lp_mmshare_version>
43012

> <i_f3d_flags>
0

> <s_epik_input>
Tz1TMSg9TylbQ0gyXVtDSDJdW0NASF0oW0NIMl0xKVtOSF1DKD1PKVtOSF1jMltjSF1uW25IXVtjSF0y

> <s_epik_cmdline>
J2VwaWtfcHl0aG9uJywgJy1waCcsICc3LjAnLCAnLXRuJywgJzgnLCAnLW1hJywgJzIwMCcsICctbWV0YWxfYmluZGluZycsICctaW1hZScsICc8aW5maWxlLm1hZT4nLCAnLW9tYWUnLCAnPG91dGZpbGUubWFlPic=

> <r_lp_tautomer_probability>
1

> <r_epik_Ionization_Penalty>
3.85517e-05

> <r_epik_Ionization_Penalty_Charging>
0

> <r_epik_Ionization_Penalty_Neutral>
3.85517e-05

> <r_epik_State_Penalty>
-0

> <r_epik_Charging_Adjusted_Penalty>
0

> <i_epik_Tot_Q>
0

> <i_epik_Tot_abs_Q>
0

> <r_epik_Metal_State_Penalty>
-0

> <b_epik_Metal_Only>
0

> <s_lp_Force_Field>
OPLS_2005

> <r_lp_Energy>
17.454

> <b_lp_Chiralities_Consistent>
1

> <s_lp_Variant>
AV-unprocessed.smi:1698-1

> <Gold.Version>
5.8.1

> <Gold.Id.Protein>
6NUR|6NUR_protein|mol2

> <Gold.PLP.Fitness>
35.6179

> <Gold.PLP.PLP>
-26.2583

> <Gold.PLP.part.hbond>
-4.0000

> <Gold.PLP.part.metal>
0.0000

> <Gold.PLP.part.buried>
-5.9765

> <Gold.PLP.part.nonpolar>
-18.0025

> <Gold.PLP.part.repulsive>
0.4213

> <Gold.PLP.ligand.clash>
0.0000

> <Gold.PLP.ligand.torsion>
0.1292

> <Gold.PLP.Chemscore.Hbond>
3.2059

> <Gold.PLP.Chemscore.CHOScore>
0.0000

> <Gold.PLP.Chemscore.Metal>
0.0000

> <Gold.Chemscore.Hbonds>
donor molecule, donor type, donor heavy atom, donor atom, acceptor molecule, acceptor atom, score
      L1  H     3    18       P1 10747  1.00
      L1  H     7    17       P1 10186  0.78
      P1  H  6896  6909       L1    15  0.76
      P1  H 10785 10796       L1     6  0.17

> <Gold.PLP.Chemscore.Internal.Correction>
0.0002

> <Gold.Rescore>
     Score         DG    S(hbond)    S(metal)    S(lipo)     H(rot)  DE(clash)    DE(int)     intcor
     17.97     -19.31       3.13        0.00      50.64       1.00       0.04       1.30       ----

> <Gold.Chemscore.Fitness>
17.9691

> <Gold.Chemscore.DG>
-19.3124

> <Gold.Chemscore.ZeroCoef>
-5.4800

> <Gold.Chemscore.Hbond>
3.1341

> <Gold.Chemscore.Metal>
0.0000

> <Gold.Chemscore.Lipo>
50.6361

> <Gold.Chemscore.Internal_Hbond>
0.0000

> <Gold.Chemscore.DEClash>
0.0398

> <Gold.Chemscore.DEInternal>
1.3035

> <Gold.Chemscore.Rot>
1.0000

> <Gold.Chemscore.Internal.Correction>
   9.000000E+99

> <Gold.Chemscore.Hbonds>
donor molecule, donor type, donor heavy atom, donor atom, acceptor molecule, acceptor atom, score
      L1  H     3    18       P1 10747  1.00
      L1  H     7    17       P1 10186  0.77
      L1  H     9    21       P1 10747  0.05
      P1  H  6896  6909       L1    15  0.77
      P1  H 10785 10796       L1     6  0.06

> <Gold.Chemscore.Hbond.Weighted>
-10.4680

> <Gold.Chemscore.Metal.Weighted>
-0.0000

> <Gold.Chemscore.Lipo.Weighted>
-5.9244

> <Gold.Chemscore.Internal_Hbond.Weighted>
0.0000

> <Gold.Chemscore.DEClash.Weighted>
0.0398

> <Gold.Chemscore.DEInternal.Weighted>
1.3035

> <Gold.Chemscore.Rot.Weighted>
2.5600

> <Gold.Chemscore.Internal.Correction.Weighted>
   9.000000E+99

> <Gold.Protein.RotatedTorsions>
[ 6907 6896 6895 6894 ] final  -28.70 input  -60.11 | X-H torsion
[ 7974 7965 7964 7962 ] final  -98.36 input  175.53 | X-H torsion
[ 8008 7997 7996 7995 ] final -173.85 input   59.86 | X-H torsion
[ 10167 10162 10161 10158 ] final  128.89 input  -65.29 | X-H torsion
[ 10718 10713 10712 10709 ] final  -93.01 input   66.30 | X-H torsion
[ 10763 10752 10751 10750 ] final    0.39 input  -60.55 | X-H torsion
[ 11005 11000 10999 10996 ] final  142.87 input  -57.11 | X-H torsion

> <Gold.Protein.ActiveResidues>
 VAL166  LYS551  ARG553  GLY616  TRP617  ASP618  TYR619  PRO620  LYS621  CYS622 
 ASP623  PHE694  ASN695  SER759  ASP760  ASP761  ALA762  ILE779  LEU786  VAL792 
 PHE793  MET794  SER795  GLU796  ALA797  LYS798  CYS799  TRP800  GLU811  SER814 

> <Gold.Protein.RotatedAtoms>
  151.1293  135.0122  159.8574 H   0  0  0  0  0  0  0  0  0  0  0  0  # atno 6907 bound_to 6896
  152.5450  134.1629  159.8575 H   0  0  0  0  0  0  0  0  0  0  0  0  # atno 6908 bound_to 6896
  151.1694  133.4749  159.2627 H   0  0  0  0  0  0  0  0  0  0  0  0  # atno 6909 bound_to 6896
  145.3217  140.9423  143.2712 H   0  0  0  0  0  0  0  0  0  0  0  0  # atno 7974 bound_to 7965
  155.9627  140.1147  157.0882 H   0  0  0  0  0  0  0  0  0  0  0  0  # atno 8008 bound_to 7997
  154.4136  140.1179  156.5267 H   0  0  0  0  0  0  0  0  0  0  0  0  # atno 8009 bound_to 7997
  155.6700  140.3473  155.4817 H   0  0  0  0  0  0  0  0  0  0  0  0  # atno 8010 bound_to 7997
  139.5505  144.6809  151.4340 H   0  0  0  0  0  0  0  0  0  0  0  0  # atno 10167 bound_to 10162
  156.0008  130.5010  150.5712 H   0  0  0  0  0  0  0  0  0  0  0  0  # atno 10718 bound_to 10713
  153.3213  135.6969  153.7028 H   0  0  0  0  0  0  0  0  0  0  0  0  # atno 10763 bound_to 10752
  153.5867  135.3487  155.2896 H   0  0  0  0  0  0  0  0  0  0  0  0  # atno 10764 bound_to 10752
  154.8598  135.4308  154.2377 H   0  0  0  0  0  0  0  0  0  0  0  0  # atno 10765 bound_to 10752
  140.0510  134.9256  157.1016 H   0  0  0  0  0  0  0  0  0  0  0  0  # atno 11005 bound_to 11000
  144.8934  139.4744  143.6667 LP  0  0  0  0  0  0  0  0  0  0  0  0  # atno 17320 bound_to 7965
  146.3080  139.7646  142.9041 LP  0  0  0  0  0  0  0  0  0  0  0  0  # atno 17321 bound_to 7965
  140.6766  143.8177  150.7066 LP  0  0  0  0  0  0  0  0  0  0  0  0  # atno 17342 bound_to 10162
  140.1617  143.4270  152.2062 LP  0  0  0  0  0  0  0  0  0  0  0  0  # atno 17343 bound_to 10162
  157.3606  131.0749  151.1639 LP  0  0  0  0  0  0  0  0  0  0  0  0  # atno 17370 bound_to 10713
  157.2425  130.6576  149.5896 LP  0  0  0  0  0  0  0  0  0  0  0  0  # atno 17371 bound_to 10713
  140.3918  134.2176  155.7166 LP  0  0  0  0  0  0  0  0  0  0  0  0  # atno 17394 bound_to 11000
  141.1930  133.8160  157.0816 LP  0  0  0  0  0  0  0  0  0  0  0  0  # atno 17395 bound_to 11000

$$$$
