AV-unprocessed.smi:385|AV-procd|sdf|2472|dock1
  -GOLD-   2262022413D 1   1.00000     0.00000
 Structure written by MMmdl.
 38 39  0  0  0  0  0  0  0  0  3 V2000
  147.5019  141.8774  154.5219 O   0  0  0  0  0  0  0  0  0  0  0  0
  148.1614  140.8482  154.3764 C   0  0  0  0  0  0  0  0  0  0  0  0
  149.4141  140.7071  154.8361 N   0  0  0  0  0  0  0  0  0  0  0  0
  150.1641  141.7260  155.5659 C   0  0  0  0  0  0  0  0  0  0  0  0
  150.4133  141.3576  157.0433 C   0  0  0  0  0  0  0  0  0  0  0  0
  151.0999  142.4544  157.8388 C   0  0  0  0  0  0  0  0  0  0  0  0
  151.9765  142.1690  158.9087 C   0  0  0  0  0  0  0  0  0  0  0  0
  152.5881  143.2344  159.6015 C   0  0  0  0  0  0  0  0  0  0  0  0
  152.3110  144.5607  159.2107 C   0  0  0  0  0  0  0  0  0  0  0  0
  151.4266  144.7885  158.1364 C   0  0  0  0  0  0  0  0  0  0  0  0
  150.8601  143.7411  157.4977 N   0  3  0  0  0  0  0  0  0  0  0  0
  147.5562  139.6378  153.6538 C   0  0  0  0  0  0  0  0  0  0  0  0
  147.1666  139.9911  152.2032 C   0  0  0  0  0  0  0  0  0  0  0  0
  146.5118  138.7909  151.4985 C   0  0  0  0  0  0  0  0  0  0  0  0
  145.3404  138.3102  152.2629 N   0  3  0  0  0  0  0  0  0  0  0  0
  145.6760  137.9287  153.6521 C   0  0  0  0  0  0  0  0  0  0  0  0
  146.3153  139.1093  154.4034 C   0  0  0  0  0  0  0  0  0  0  0  0
  149.8852  139.8299  154.6670 H   0  0  0  0  0  0  0  0  0  0  0  0
  151.1215  141.8445  155.0580 H   0  0  0  0  0  0  0  0  0  0  0  0
  149.6579  142.6899  155.4942 H   0  0  0  0  0  0  0  0  0  0  0  0
  149.4667  141.1090  157.5244 H   0  0  0  0  0  0  0  0  0  0  0  0
  151.0211  140.4536  157.0989 H   0  0  0  0  0  0  0  0  0  0  0  0
  152.1807  141.1469  159.1937 H   0  0  0  0  0  0  0  0  0  0  0  0
  153.2614  143.0360  160.4227 H   0  0  0  0  0  0  0  0  0  0  0  0
  152.7688  145.3909  159.7287 H   0  0  0  0  0  0  0  0  0  0  0  0
  151.1567  145.7691  157.7717 H   0  0  0  0  0  0  0  0  0  0  0  0
  148.3030  138.8422  153.6237 H   0  0  0  0  0  0  0  0  0  0  0  0
  146.4746  140.8348  152.1908 H   0  0  0  0  0  0  0  0  0  0  0  0
  148.0478  140.3069  151.6431 H   0  0  0  0  0  0  0  0  0  0  0  0
  146.1911  139.0704  150.4946 H   0  0  0  0  0  0  0  0  0  0  0  0
  147.2292  137.9765  151.3888 H   0  0  0  0  0  0  0  0  0  0  0  0
  144.6502  139.0475  152.2897 H   0  0  0  0  0  0  0  0  0  0  0  0
  144.7681  137.6033  154.1606 H   0  0  0  0  0  0  0  0  0  0  0  0
  146.3557  137.0757  153.6366 H   0  0  0  0  0  0  0  0  0  0  0  0
  146.5900  138.7952  155.4114 H   0  0  0  0  0  0  0  0  0  0  0  0
  145.5757  139.9037  154.5189 H   0  0  0  0  0  0  0  0  0  0  0  0
  144.9444  137.5107  151.7891 H   0  0  0  0  0  0  0  0  0  0  0  0
  150.2229  143.9297  156.7233 H   0  0  0  0  0  0  0  0  0  0  0  0
  1  2  2  0  0  0  0
  2  3  1  0  0  0  0
  2 12  1  0  0  0  0
  3  4  1  0  0  0  0
  3 18  1  0  0  0  0
  4  5  1  0  0  0  0
  4 19  1  0  0  0  0
  4 20  1  0  0  0  0
  5  6  1  0  0  0  0
  5 21  1  0  0  0  0
  5 22  1  0  0  0  0
  6 11  1  0  0  0  0
  6  7  2  0  0  0  0
  7  8  1  0  0  0  0
  7 23  1  0  0  0  0
  8  9  2  0  0  0  0
  8 24  1  0  0  0  0
  9 10  1  0  0  0  0
  9 25  1  0  0  0  0
 10 11  2  0  0  0  0
 10 26  1  0  0  0  0
 11 38  1  0  0  0  0
 12 17  1  0  0  0  0
 12 13  1  0  0  0  0
 12 27  1  0  0  0  0
 13 14  1  0  0  0  0
 13 28  1  0  0  0  0
 13 29  1  0  0  0  0
 14 15  1  0  0  0  0
 14 30  1  0  0  0  0
 14 31  1  0  0  0  0
 15 16  1  0  0  0  0
 15 32  1  0  0  0  0
 15 37  1  0  0  0  0
 16 17  1  0  0  0  0
 16 33  1  0  0  0  0
 16 34  1  0  0  0  0
 17 35  1  0  0  0  0
 17 36  1  0  0  0  0
M  CHG  1  11   1
M  CHG  1  15   1
M  END
> <s_m_source_file>
AV-unprocessed.smi

> <i_m_source_file_index>
385

> <i_lp_mmshare_version>
43012

> <i_f3d_flags>
0

> <s_epik_input>
W0NIMl0xW0NIMl1bTkhdW0NIMl1bQ0gyXVtDSF0xQyg9TylbTkhdW0NIMl1bQ0gyXWMyW2NIXVtjSF1bY0hdW2NIXW4y

> <s_epik_cmdline>
J2VwaWtfcHl0aG9uJywgJy1waCcsICc3LjAnLCAnLXRuJywgJzgnLCAnLW1hJywgJzIwMCcsICctbWV0YWxfYmluZGluZycsICctaW1hZScsICc8aW5maWxlLm1hZT4nLCAnLW9tYWUnLCAnPG91dGZpbGUubWFlPic=

> <r_epik_Ionization_Penalty>
1.95053

> <r_epik_Ionization_Penalty_Charging>
1.95053

> <r_epik_Ionization_Penalty_Neutral>
3.30626e-08

> <r_epik_State_Penalty>
2.07441

> <r_epik_Charging_Adjusted_Penalty>
4.02494

> <i_epik_Tot_Q>
2

> <i_epik_Tot_abs_Q>
2

> <r_epik_Metal_State_Penalty>
2.09624

> <b_epik_Metal_Only>
0

> <s_lp_Force_Field>
OPLS_2005

> <r_lp_Energy>
22.1472

> <b_lp_Chiralities_Consistent>
1

> <s_lp_Variant>
AV-unprocessed.smi:385-2

> <Gold.Version>
5.8.1

> <Gold.Id.Protein>
6NUR|6NUR_protein|mol2

> <Gold.PLP.Fitness>
46.9925

> <Gold.PLP.PLP>
-35.7649

> <Gold.PLP.part.hbond>
-3.0000

> <Gold.PLP.part.metal>
0.0000

> <Gold.PLP.part.buried>
-0.1988

> <Gold.PLP.part.nonpolar>
-32.6191

> <Gold.PLP.part.repulsive>
0.3057

> <Gold.PLP.ligand.clash>
0.0000

> <Gold.PLP.ligand.torsion>
0.4167

> <Gold.PLP.Chemscore.Hbond>
4.0000

> <Gold.PLP.Chemscore.CHOScore>
0.0000

> <Gold.PLP.Chemscore.Metal>
0.0000

> <Gold.Chemscore.Hbonds>
donor molecule, donor type, donor heavy atom, donor atom, acceptor molecule, acceptor atom, score
      L1  H    11    38       P1  8028  2.00
      L1  H    15    32       P1 10175  2.00

> <Gold.PLP.Chemscore.Internal.Correction>
0.0610

> <Gold.Rescore>
     Score         DG    S(hbond)    S(metal)    S(lipo)     H(rot)  DE(clash)    DE(int)     intcor
     18.27     -20.38       2.04        0.00     105.77       1.67       1.69       0.43       ----

> <Gold.Chemscore.Fitness>
18.2721

> <Gold.Chemscore.DG>
-20.3849

> <Gold.Chemscore.ZeroCoef>
-5.4800

> <Gold.Chemscore.Hbond>
2.0382

> <Gold.Chemscore.Metal>
0.0000

> <Gold.Chemscore.Lipo>
105.7667

> <Gold.Chemscore.Internal_Hbond>
0.0000

> <Gold.Chemscore.DEClash>
1.6867

> <Gold.Chemscore.DEInternal>
0.4262

> <Gold.Chemscore.Rot>
1.6708

> <Gold.Chemscore.Internal.Correction>
   9.000000E+99

> <Gold.Chemscore.Hbonds>
donor molecule, donor type, donor heavy atom, donor atom, acceptor molecule, acceptor atom, score
      L1  H    11    38       P1  8028  1.00
      L1  H    15    32       P1 10175  1.00

> <Gold.Chemscore.Hbond.Weighted>
-6.8074

> <Gold.Chemscore.Metal.Weighted>
-0.0000

> <Gold.Chemscore.Lipo.Weighted>
-12.3747

> <Gold.Chemscore.Internal_Hbond.Weighted>
0.0000

> <Gold.Chemscore.DEClash.Weighted>
1.6867

> <Gold.Chemscore.DEInternal.Weighted>
0.4262

> <Gold.Chemscore.Rot.Weighted>
4.2772

> <Gold.Chemscore.Internal.Correction.Weighted>
   9.000000E+99

> <Gold.Protein.RotatedTorsions>
[ 6907 6896 6895 6894 ] final  102.67 input  -60.11 | X-H torsion
[ 7974 7965 7964 7962 ] final    7.19 input  175.53 | X-H torsion
[ 8008 7997 7996 7995 ] final   36.10 input   59.86 | X-H torsion
[ 10167 10162 10161 10158 ] final   59.94 input  -65.29 | X-H torsion
[ 10718 10713 10712 10709 ] final  154.72 input   66.30 | X-H torsion
[ 10763 10752 10751 10750 ] final  -20.02 input  -60.55 | X-H torsion
[ 11005 11000 10999 10996 ] final -174.39 input  -57.11 | X-H torsion

> <Gold.Protein.ActiveResidues>
 VAL166  LYS551  ARG553  GLY616  TRP617  ASP618  TYR619  PRO620  LYS621  CYS622 
 ASP623  PHE694  ASN695  SER759  ASP760  ASP761  ALA762  ILE779  LEU786  VAL792 
 PHE793  MET794  SER795  GLU796  ALA797  LYS798  CYS799  TRP800  GLU811  SER814 

> <Gold.Protein.RotatedAtoms>
  152.5317  133.9941  159.7864 H   0  0  0  0  0  0  0  0  0  0  0  0  # atno 6907 bound_to 6896
  151.0172  133.5902  159.2682 H   0  0  0  0  0  0  0  0  0  0  0  0  # atno 6908 bound_to 6896
  151.2955  135.0761  159.9273 H   0  0  0  0  0  0  0  0  0  0  0  0  # atno 6909 bound_to 6896
  146.2429  140.0120  142.8406 H   0  0  0  0  0  0  0  0  0  0  0  0  # atno 7974 bound_to 7965
  155.1819  140.3300  155.4373 H   0  0  0  0  0  0  0  0  0  0  0  0  # atno 8008 bound_to 7997
  156.2473  140.1925  156.6867 H   0  0  0  0  0  0  0  0  0  0  0  0  # atno 8009 bound_to 7997
  154.6265  140.0588  156.9666 H   0  0  0  0  0  0  0  0  0  0  0  0  # atno 8010 bound_to 7997
  140.1710  144.4276  150.6661 H   0  0  0  0  0  0  0  0  0  0  0  0  # atno 10167 bound_to 10162
  157.2279  131.0732  151.1871 H   0  0  0  0  0  0  0  0  0  0  0  0  # atno 10718 bound_to 10713
  153.6139  135.6995  153.5336 H   0  0  0  0  0  0  0  0  0  0  0  0  # atno 10763 bound_to 10752
  153.2994  135.4133  155.1238 H   0  0  0  0  0  0  0  0  0  0  0  0  # atno 10764 bound_to 10752
  154.8558  135.3645  154.5678 H   0  0  0  0  0  0  0  0  0  0  0  0  # atno 10765 bound_to 10752
  140.4750  134.6129  157.4897 H   0  0  0  0  0  0  0  0  0  0  0  0  # atno 11005 bound_to 11000
  145.1319  140.9522  143.4539 LP  0  0  0  0  0  0  0  0  0  0  0  0  # atno 17320 bound_to 7965
  145.0380  139.3284  143.5991 LP  0  0  0  0  0  0  0  0  0  0  0  0  # atno 17321 bound_to 7965
  140.6582  143.2244  151.5919 LP  0  0  0  0  0  0  0  0  0  0  0  0  # atno 17342 bound_to 10162
  139.5338  144.2840  152.1206 LP  0  0  0  0  0  0  0  0  0  0  0  0  # atno 17343 bound_to 10162
  157.3508  130.7081  149.6440 LP  0  0  0  0  0  0  0  0  0  0  0  0  # atno 17370 bound_to 10713
  155.9677  130.4253  150.4647 LP  0  0  0  0  0  0  0  0  0  0  0  0  # atno 17371 bound_to 10713
  139.9861  134.7059  155.9771 LP  0  0  0  0  0  0  0  0  0  0  0  0  # atno 17394 bound_to 11000
  141.1559  133.6543  156.4159 LP  0  0  0  0  0  0  0  0  0  0  0  0  # atno 17395 bound_to 11000

$$$$
