AV-unprocessed.smi:969|AV-procd|sdf|4290|dock2
  -GOLD-   22720 2193D 1   1.00000     0.00000
 Structure written by MMmdl.
 37 38  0  0  0  0  0  0  0  0  1 V2000
  154.1216  135.8272  164.0602 C   0  0  0  0  0  0  0  0  0  0  0  0
  154.3984  135.8553  162.5511 C   0  0  0  0  0  0  0  0  0  0  0  0
  155.8498  135.4637  162.2324 C   0  0  0  0  0  0  0  0  0  0  0  0
  154.1020  137.1859  162.0285 N   0  0  0  0  0  0  0  0  0  0  0  0
  154.7629  138.3121  162.3442 C   0  0  0  0  0  0  0  0  0  0  0  0
  155.6942  138.3523  163.1485 O   0  0  0  0  0  0  0  0  0  0  0  0
  154.2497  139.5670  161.6990 C   0  0  0  0  0  0  0  0  0  0  0  0
  153.6046  139.5478  160.4431 C   0  0  0  0  0  0  0  0  0  0  0  0
  153.1649  140.7607  159.8790 C   0  0  0  0  0  0  0  0  0  0  0  0
  153.3897  141.9703  160.5780 C   0  0  0  0  0  0  0  0  0  0  0  0
  152.9592  143.1985  160.0305 N   0  0  0  0  0  0  0  0  0  0  0  0
  152.0051  143.9527  160.8399 C   0  0  0  0  0  0  0  0  0  0  0  0
  151.8536  145.3837  160.2956 C   0  0  0  0  0  0  0  0  0  0  0  0
  151.4977  145.3409  158.9180 O   0  0  0  0  0  0  0  0  0  0  0  0
  152.4983  144.7014  158.1330 C   0  0  0  0  0  0  0  0  0  0  0  0
  152.6682  143.2455  158.5985 C   0  0  0  0  0  0  0  0  0  0  0  0
  154.0137  141.9863  161.7815 N   0  0  0  0  0  0  0  0  0  0  0  0
  154.4347  140.8214  162.3183 C   0  0  0  0  0  0  0  0  0  0  0  0
  154.3064  134.8353  164.4738 H   0  0  0  0  0  0  0  0  0  0  0  0
  153.0832  136.0834  164.2742 H   0  0  0  0  0  0  0  0  0  0  0  0
  154.7573  136.5340  164.5951 H   0  0  0  0  0  0  0  0  0  0  0  0
  153.7321  135.1315  162.0783 H   0  0  0  0  0  0  0  0  0  0  0  0
  156.0785  134.4683  162.6137 H   0  0  0  0  0  0  0  0  0  0  0  0
  156.5572  136.1625  162.6804 H   0  0  0  0  0  0  0  0  0  0  0  0
  156.0302  135.4509  161.1569 H   0  0  0  0  0  0  0  0  0  0  0  0
  153.3334  137.2566  161.3776 H   0  0  0  0  0  0  0  0  0  0  0  0
  153.4422  138.6223  159.9099 H   0  0  0  0  0  0  0  0  0  0  0  0
  152.6526  140.7468  158.9286 H   0  0  0  0  0  0  0  0  0  0  0  0
  151.0423  143.4409  160.8149 H   0  0  0  0  0  0  0  0  0  0  0  0
  152.3099  144.0025  161.8843 H   0  0  0  0  0  0  0  0  0  0  0  0
  151.0766  145.9138  160.8463 H   0  0  0  0  0  0  0  0  0  0  0  0
  152.7778  145.9489  160.4266 H   0  0  0  0  0  0  0  0  0  0  0  0
  152.1987  144.7279  157.0852 H   0  0  0  0  0  0  0  0  0  0  0  0
  153.4402  145.2472  158.2089 H   0  0  0  0  0  0  0  0  0  0  0  0
  153.4754  142.7781  158.0330 H   0  0  0  0  0  0  0  0  0  0  0  0
  151.7571  142.6807  158.3960 H   0  0  0  0  0  0  0  0  0  0  0  0
  154.9291  140.9006  163.2755 H   0  0  0  0  0  0  0  0  0  0  0  0
  1  2  1  0  0  0  0
  1 19  1  0  0  0  0
  1 20  1  0  0  0  0
  1 21  1  0  0  0  0
  2  3  1  0  0  0  0
  2  4  1  0  0  0  0
  2 22  1  0  0  0  0
  3 23  1  0  0  0  0
  3 24  1  0  0  0  0
  3 25  1  0  0  0  0
  4  5  1  0  0  0  0
  4 26  1  0  0  0  0
  5  6  2  0  0  0  0
  5  7  1  0  0  0  0
  7 18  1  0  0  0  0
  7  8  2  0  0  0  0
  8  9  1  0  0  0  0
  8 27  1  0  0  0  0
  9 10  2  0  0  0  0
  9 28  1  0  0  0  0
 10 11  1  0  0  0  0
 10 17  1  0  0  0  0
 11 16  1  0  0  0  0
 11 12  1  0  0  0  0
 12 13  1  0  0  0  0
 12 29  1  0  0  0  0
 12 30  1  0  0  0  0
 13 14  1  0  0  0  0
 13 31  1  0  0  0  0
 13 32  1  0  0  0  0
 14 15  1  0  0  0  0
 15 16  1  0  0  0  0
 15 33  1  0  0  0  0
 15 34  1  0  0  0  0
 16 35  1  0  0  0  0
 16 36  1  0  0  0  0
 17 18  2  0  0  0  0
 18 37  1  0  0  0  0
M  END
> <s_m_source_file>
AV-unprocessed.smi

> <i_m_source_file_index>
969

> <i_lp_mmshare_version>
43012

> <i_f3d_flags>
0

> <s_epik_input>
W0NIM11bQ0hdKFtDSDNdKVtOSF1DKD1PKWMxW2NIXVtjSF1jKG5bY0hdMSlOMltDSDJdW0NIMl1PW0NIMl1bQ0gyXTI=

> <s_epik_cmdline>
J2VwaWtfcHl0aG9uJywgJy1waCcsICc3LjAnLCAnLXRuJywgJzgnLCAnLW1hJywgJzIwMCcsICctbWV0YWxfYmluZGluZycsICctaW1hZScsICc8aW5maWxlLm1hZT4nLCAnLW9tYWUnLCAnPG91dGZpbGUubWFlPic=

> <r_lp_tautomer_probability>
1

> <r_epik_Ionization_Penalty>
1.69485e-05

> <r_epik_Ionization_Penalty_Charging>
0

> <r_epik_Ionization_Penalty_Neutral>
1.69485e-05

> <r_epik_State_Penalty>
-0

> <r_epik_Charging_Adjusted_Penalty>
0

> <i_epik_Tot_Q>
0

> <i_epik_Tot_abs_Q>
0

> <r_epik_Metal_State_Penalty>
-0

> <b_epik_Metal_Only>
0

> <s_lp_Force_Field>
OPLS_2005

> <r_lp_Energy>
18.964

> <b_lp_Chiralities_Consistent>
1

> <s_lp_Variant>
AV-unprocessed.smi:969-1

> <Gold.Version>
5.8.1

> <Gold.Id.Protein>
6NUR|6NUR_protein|mol2

> <Gold.PLP.Fitness>
38.6822

> <Gold.PLP.PLP>
-39.4634

> <Gold.PLP.part.hbond>
-1.3754

> <Gold.PLP.part.metal>
0.0000

> <Gold.PLP.part.buried>
-3.8934

> <Gold.PLP.part.nonpolar>
-33.9729

> <Gold.PLP.part.repulsive>
0.1496

> <Gold.PLP.ligand.clash>
0.0000

> <Gold.PLP.ligand.torsion>
0.5631

> <Gold.PLP.Chemscore.Hbond>
0.0000

> <Gold.PLP.Chemscore.CHOScore>
0.0000

> <Gold.PLP.Chemscore.Metal>
0.0000

> <Gold.PLP.Chemscore.Internal.Correction>
0.3449

> <Gold.Rescore>
     Score         DG    S(hbond)    S(metal)    S(lipo)     H(rot)  DE(clash)    DE(int)     intcor
     12.33     -14.30       0.00        0.00     101.12       1.18       0.08       1.89       ----

> <Gold.Chemscore.Fitness>
12.3342

> <Gold.Chemscore.DG>
-14.3033

> <Gold.Chemscore.ZeroCoef>
-5.4800

> <Gold.Chemscore.Hbond>
0.0000

> <Gold.Chemscore.Metal>
0.0000

> <Gold.Chemscore.Lipo>
101.1222

> <Gold.Chemscore.Internal_Hbond>
0.0000

> <Gold.Chemscore.DEClash>
0.0756

> <Gold.Chemscore.DEInternal>
1.8934

> <Gold.Chemscore.Rot>
1.1750

> <Gold.Chemscore.Internal.Correction>
   9.000000E+99

> <Gold.Chemscore.Hbond.Weighted>
-0.0000

> <Gold.Chemscore.Metal.Weighted>
-0.0000

> <Gold.Chemscore.Lipo.Weighted>
-11.8313

> <Gold.Chemscore.Internal_Hbond.Weighted>
0.0000

> <Gold.Chemscore.DEClash.Weighted>
0.0756

> <Gold.Chemscore.DEInternal.Weighted>
1.8934

> <Gold.Chemscore.Rot.Weighted>
3.0080

> <Gold.Chemscore.Internal.Correction.Weighted>
   9.000000E+99

> <Gold.Protein.RotatedTorsions>
[ 6907 6896 6895 6894 ] final  156.65 input  -60.11 | X-H torsion
[ 7974 7965 7964 7962 ] final   24.00 input  175.53 | X-H torsion
[ 8008 7997 7996 7995 ] final   24.39 input   59.86 | X-H torsion
[ 10167 10162 10161 10158 ] final  156.15 input  -65.29 | X-H torsion
[ 10718 10713 10712 10709 ] final   75.25 input   66.30 | X-H torsion
[ 10763 10752 10751 10750 ] final   68.86 input  -60.55 | X-H torsion
[ 11005 11000 10999 10996 ] final  -20.48 input  -57.11 | X-H torsion

> <Gold.Protein.ActiveResidues>
 VAL166  LYS551  ARG553  GLY616  TRP617  ASP618  TYR619  PRO620  LYS621  CYS622 
 ASP623  PHE694  ASN695  SER759  ASP760  ASP761  ALA762  ILE779  LEU786  VAL792 
 PHE793  MET794  SER795  GLU796  ALA797  LYS798  CYS799  TRP800  GLU811  SER814 

> <Gold.Protein.RotatedAtoms>
  152.0266  133.3920  159.4279 H   0  0  0  0  0  0  0  0  0  0  0  0  # atno 6907 bound_to 6896
  150.6885  134.3567  159.4942 H   0  0  0  0  0  0  0  0  0  0  0  0  # atno 6908 bound_to 6896
  152.1348  134.9107  160.0607 H   0  0  0  0  0  0  0  0  0  0  0  0  # atno 6909 bound_to 6896
  146.1958  139.7666  142.8798 H   0  0  0  0  0  0  0  0  0  0  0  0  # atno 7974 bound_to 7965
  154.9956  140.3119  155.4888 H   0  0  0  0  0  0  0  0  0  0  0  0  # atno 8008 bound_to 7997
  156.2933  140.2241  156.5004 H   0  0  0  0  0  0  0  0  0  0  0  0  # atno 8009 bound_to 7997
  154.7664  140.0455  157.1004 H   0  0  0  0  0  0  0  0  0  0  0  0  # atno 8010 bound_to 7997
  139.4821  144.5034  151.8134 H   0  0  0  0  0  0  0  0  0  0  0  0  # atno 10167 bound_to 10162
  157.6626  130.9717  150.1327 H   0  0  0  0  0  0  0  0  0  0  0  0  # atno 10718 bound_to 10713
  153.0257  135.5232  154.7199 H   0  0  0  0  0  0  0  0  0  0  0  0  # atno 10763 bound_to 10752
  154.6258  135.2894  155.0276 H   0  0  0  0  0  0  0  0  0  0  0  0  # atno 10764 bound_to 10752
  154.1247  135.6602  153.4962 H   0  0  0  0  0  0  0  0  0  0  0  0  # atno 10765 bound_to 10752
  140.8468  133.7886  155.9921 H   0  0  0  0  0  0  0  0  0  0  0  0  # atno 11005 bound_to 11000
  145.3647  141.0332  143.3265 LP  0  0  0  0  0  0  0  0  0  0  0  0  # atno 17320 bound_to 7965
  144.8578  139.5223  143.6826 LP  0  0  0  0  0  0  0  0  0  0  0  0  # atno 17321 bound_to 7965
  140.4530  144.1829  150.5899 LP  0  0  0  0  0  0  0  0  0  0  0  0  # atno 17342 bound_to 10162
  140.4565  143.2466  151.9278 LP  0  0  0  0  0  0  0  0  0  0  0  0  # atno 17343 bound_to 10162
  156.2169  130.3671  149.8602 LP  0  0  0  0  0  0  0  0  0  0  0  0  # atno 17370 bound_to 10713
  156.6465  130.8726  151.3523 LP  0  0  0  0  0  0  0  0  0  0  0  0  # atno 17371 bound_to 10713
  140.8834  134.2583  157.5132 LP  0  0  0  0  0  0  0  0  0  0  0  0  # atno 17394 bound_to 11000
  139.8703  134.9626  156.4435 LP  0  0  0  0  0  0  0  0  0  0  0  0  # atno 17395 bound_to 11000

$$$$
