AV-unprocessed.smi:1306|AV-procd|sdf|5435|dock7
  -GOLD-   22720 5 03D 1   1.00000     0.00000
 Structure written by MMmdl.
 38 39  0  0  0  0  0  0  0  0  2 V2000
  151.3456  135.4658  155.9325 O   0  0  0  0  0  0  0  0  0  0  0  0
  150.6517  135.9842  155.0564 C   0  0  0  0  0  0  0  0  0  0  0  0
  150.9012  137.4315  154.6111 C   0  0  0  0  0  0  0  0  0  0  0  0
  151.2523  138.3224  155.7287 N   0  0  0  0  0  0  0  0  0  0  0  0
  150.2896  138.5227  156.7335 C   0  0  0  0  0  0  0  0  0  0  0  0
  150.5257  139.3163  157.7956 C   0  0  0  0  0  0  0  0  0  0  0  0
  151.8213  139.9778  157.8885 C   0  0  0  0  0  0  0  0  0  0  0  0
  152.0531  140.7085  158.8496 O   0  0  0  0  0  0  0  0  0  0  0  0
  152.7235  139.7494  156.8898 N   0  5  0  0  0  0  0  0  0  0  0  0
  152.4703  138.9378  155.8164 C   0  0  0  0  0  0  0  0  0  0  0  0
  153.2999  138.7441  154.9269 O   0  0  0  0  0  0  0  0  0  0  0  0
  149.6328  135.3511  154.4591 N   0  0  0  0  0  0  0  0  0  0  0  0
  149.2429  133.9742  154.7323 C   0  0  0  0  0  0  0  0  0  0  0  0
  148.3441  133.4258  153.6161 C   0  0  0  0  0  0  0  0  0  0  0  0
  146.7389  134.2737  153.5555 S   0  0  0  0  0  0  0  0  0  0  0  0
  146.1452  133.7376  151.9256 C   0  0  0  0  0  0  0  0  0  0  0  0
  144.7901  134.3471  151.5694 C   0  0  0  0  0  0  0  0  0  0  0  0
  144.2411  133.4344  150.4709 C   0  0  0  0  0  0  0  0  0  0  0  0
  144.8444  132.0466  150.7347 C   0  0  0  0  0  0  0  0  0  0  0  0
  145.8940  132.2291  151.8403 C   0  0  0  0  0  0  0  0  0  0  0  0
  151.6864  137.4569  153.8528 H   0  0  0  0  0  0  0  0  0  0  0  0
  150.0035  137.7896  154.1056 H   0  0  0  0  0  0  0  0  0  0  0  0
  149.3595  137.9921  156.5921 H   0  0  0  0  0  0  0  0  0  0  0  0
  149.7765  139.4574  158.5605 H   0  0  0  0  0  0  0  0  0  0  0  0
  149.1129  135.8451  153.7484 H   0  0  0  0  0  0  0  0  0  0  0  0
  150.1321  133.3511  154.8403 H   0  0  0  0  0  0  0  0  0  0  0  0
  148.7095  133.9386  155.6833 H   0  0  0  0  0  0  0  0  0  0  0  0
  148.8367  133.5544  152.6522 H   0  0  0  0  0  0  0  0  0  0  0  0
  148.1863  132.3559  153.7528 H   0  0  0  0  0  0  0  0  0  0  0  0
  146.8737  134.0301  151.1678 H   0  0  0  0  0  0  0  0  0  0  0  0
  144.1267  134.3135  152.4348 H   0  0  0  0  0  0  0  0  0  0  0  0
  144.8681  135.3868  151.2501 H   0  0  0  0  0  0  0  0  0  0  0  0
  143.1510  133.4173  150.4615 H   0  0  0  0  0  0  0  0  0  0  0  0
  144.5708  133.7954  149.4959 H   0  0  0  0  0  0  0  0  0  0  0  0
  144.0800  131.3338  151.0458 H   0  0  0  0  0  0  0  0  0  0  0  0
  145.3019  131.6564  149.8250 H   0  0  0  0  0  0  0  0  0  0  0  0
  146.8062  131.6667  151.6393 H   0  0  0  0  0  0  0  0  0  0  0  0
  145.4865  131.8658  152.7848 H   0  0  0  0  0  0  0  0  0  0  0  0
  1  2  2  0  0  0  0
  2  3  1  0  0  0  0
  2 12  1  0  0  0  0
  3  4  1  0  0  0  0
  3 21  1  0  0  0  0
  3 22  1  0  0  0  0
  4 10  1  0  0  0  0
  4  5  1  0  0  0  0
  5  6  2  0  0  0  0
  5 23  1  0  0  0  0
  6  7  1  0  0  0  0
  6 24  1  0  0  0  0
  7  8  2  0  0  0  0
  7  9  1  0  0  0  0
  9 10  1  0  0  0  0
 10 11  2  0  0  0  0
 12 13  1  0  0  0  0
 12 25  1  0  0  0  0
 13 14  1  0  0  0  0
 13 26  1  0  0  0  0
 13 27  1  0  0  0  0
 14 15  1  0  0  0  0
 14 28  1  0  0  0  0
 14 29  1  0  0  0  0
 15 16  1  0  0  0  0
 16 20  1  0  0  0  0
 16 17  1  0  0  0  0
 16 30  1  0  0  0  0
 17 18  1  0  0  0  0
 17 31  1  0  0  0  0
 17 32  1  0  0  0  0
 18 19  1  0  0  0  0
 18 33  1  0  0  0  0
 18 34  1  0  0  0  0
 19 20  1  0  0  0  0
 19 35  1  0  0  0  0
 19 36  1  0  0  0  0
 20 37  1  0  0  0  0
 20 38  1  0  0  0  0
M  CHG  1   9  -1
M  END
> <s_m_source_file>
AV-unprocessed.smi

> <i_m_source_file_index>
1306

> <i_lp_mmshare_version>
43012

> <i_f3d_flags>
0

> <s_epik_input>
Tz1jMVtuSF1jKD1PKVtjSF1bY0hdbjFbQ0gyXUMoPU8pW05IXVtDSDJdW0NIMl1TW0NIXTJbQ0gyXVtDSDJdW0NIMl1bQ0gyXTI=

> <s_epik_cmdline>
J2VwaWtfcHl0aG9uJywgJy1waCcsICc3LjAnLCAnLXRuJywgJzgnLCAnLW1hJywgJzIwMCcsICctbWV0YWxfYmluZGluZycsICctaW1hZScsICc8aW5maWxlLm1hZT4nLCAnLW9tYWUnLCAnPG91dGZpbGUubWFlPic=

> <r_lp_tautomer_probability>
0.999537

> <r_epik_Ionization_Penalty>
3.06336

> <r_epik_Ionization_Penalty_Charging>
2.63481e-08

> <r_epik_Ionization_Penalty_Neutral>
3.06336

> <r_epik_State_Penalty>
3.06238

> <r_epik_Charging_Adjusted_Penalty>
3.06238

> <i_epik_Tot_Q>
-1

> <i_epik_Tot_abs_Q>
1

> <r_epik_Metal_State_Penalty>
0.458539

> <b_epik_Metal_Only>
1

> <s_lp_Force_Field>
OPLS_2005

> <r_lp_Energy>
29.7989

> <b_lp_Chiralities_Consistent>
1

> <s_lp_Variant>
AV-unprocessed.smi:1306-2

> <Gold.Version>
5.8.1

> <Gold.Id.Protein>
6NUR|6NUR_protein|mol2

> <Gold.PLP.Fitness>
45.8125

> <Gold.PLP.PLP>
-34.7058

> <Gold.PLP.part.hbond>
-4.3369

> <Gold.PLP.part.metal>
0.0000

> <Gold.PLP.part.buried>
-3.1703

> <Gold.PLP.part.nonpolar>
-26.8975

> <Gold.PLP.part.repulsive>
0.1006

> <Gold.PLP.ligand.clash>
0.0000

> <Gold.PLP.ligand.torsion>
0.4896

> <Gold.PLP.Chemscore.Hbond>
4.0000

> <Gold.PLP.Chemscore.CHOScore>
0.0000

> <Gold.PLP.Chemscore.Metal>
0.0000

> <Gold.Chemscore.Hbonds>
donor molecule, donor type, donor heavy atom, donor atom, acceptor molecule, acceptor atom, score
      L1  H    12    25       P1  7948  0.88
      P1  H  7997  8008       L1     9  1.80
      P1  H 10752 10764       L1     1  1.00

> <Gold.PLP.Chemscore.Internal.Correction>
0.0858

> <Gold.Rescore>
     Score         DG    S(hbond)    S(metal)    S(lipo)     H(rot)  DE(clash)    DE(int)     intcor
     14.00     -15.58       2.50        0.00      67.03       2.38       0.79       0.79       ----

> <Gold.Chemscore.Fitness>
14.0034

> <Gold.Chemscore.DG>
-15.5793

> <Gold.Chemscore.ZeroCoef>
-5.4800

> <Gold.Chemscore.Hbond>
2.4972

> <Gold.Chemscore.Metal>
0.0000

> <Gold.Chemscore.Lipo>
67.0340

> <Gold.Chemscore.Internal_Hbond>
0.0000

> <Gold.Chemscore.DEClash>
0.7907

> <Gold.Chemscore.DEInternal>
0.7852

> <Gold.Chemscore.Rot>
2.3767

> <Gold.Chemscore.Internal.Correction>
   9.000000E+99

> <Gold.Chemscore.Hbonds>
donor molecule, donor type, donor heavy atom, donor atom, acceptor molecule, acceptor atom, score
      L1  H    12    25       P1  7948  0.74
      P1  H  7997  8008       L1     9  0.18
      P1  H 10752 10764       L1     1  0.29

> <Gold.Chemscore.Hbond.Weighted>
-8.3407

> <Gold.Chemscore.Metal.Weighted>
-0.0000

> <Gold.Chemscore.Lipo.Weighted>
-7.8430

> <Gold.Chemscore.Internal_Hbond.Weighted>
0.0000

> <Gold.Chemscore.DEClash.Weighted>
0.7907

> <Gold.Chemscore.DEInternal.Weighted>
0.7852

> <Gold.Chemscore.Rot.Weighted>
6.0844

> <Gold.Chemscore.Internal.Correction.Weighted>
   9.000000E+99

> <Gold.Protein.RotatedTorsions>
[ 6907 6896 6895 6894 ] final  168.28 input  -60.11 | X-H torsion
[ 7974 7965 7964 7962 ] final   17.93 input  175.53 | X-H torsion
[ 8008 7997 7996 7995 ] final  -53.73 input   59.86 | X-H torsion
[ 10167 10162 10161 10158 ] final   25.08 input  -65.29 | X-H torsion
[ 10718 10713 10712 10709 ] final  -77.06 input   66.30 | X-H torsion
[ 10763 10752 10751 10750 ] final  -29.25 input  -60.55 | X-H torsion
[ 11005 11000 10999 10996 ] final -114.02 input  -57.11 | X-H torsion

> <Gold.Protein.ActiveResidues>
 VAL166  LYS551  ARG553  GLY616  TRP617  ASP618  TYR619  PRO620  LYS621  CYS622 
 ASP623  PHE694  ASN695  SER759  ASP760  ASP761  ALA762  ILE779  LEU786  VAL792 
 PHE793  MET794  SER795  GLU796  ALA797  LYS798  CYS799  TRP800  GLU811  SER814 

> <Gold.Protein.RotatedAtoms>
  151.8501  133.3438  159.3670 H   0  0  0  0  0  0  0  0  0  0  0  0  # atno 6907 bound_to 6896
  150.7209  134.5307  159.5708 H   0  0  0  0  0  0  0  0  0  0  0  0  # atno 6908 bound_to 6896
  152.2799  134.7841  160.0449 H   0  0  0  0  0  0  0  0  0  0  0  0  # atno 6909 bound_to 6896
  146.2202  139.8531  142.8619 H   0  0  0  0  0  0  0  0  0  0  0  0  # atno 7974 bound_to 7965
  154.4142  140.1193  156.5201 H   0  0  0  0  0  0  0  0  0  0  0  0  # atno 8008 bound_to 7997
  155.6711  140.3496  155.4799 H   0  0  0  0  0  0  0  0  0  0  0  0  # atno 8009 bound_to 7997
  155.9632  140.1127  157.0867 H   0  0  0  0  0  0  0  0  0  0  0  0  # atno 8010 bound_to 7997
  140.5135  144.0121  150.6383 H   0  0  0  0  0  0  0  0  0  0  0  0  # atno 10167 bound_to 10162
  156.0156  130.4481  150.3288 H   0  0  0  0  0  0  0  0  0  0  0  0  # atno 10718 bound_to 10713
  153.7615  135.6919  153.4924 H   0  0  0  0  0  0  0  0  0  0  0  0  # atno 10763 bound_to 10752
  153.1935  135.4462  155.0177 H   0  0  0  0  0  0  0  0  0  0  0  0  # atno 10764 bound_to 10752
  154.8151  135.3395  154.7130 H   0  0  0  0  0  0  0  0  0  0  0  0  # atno 10765 bound_to 10752
  141.0578  133.9584  157.2722 H   0  0  0  0  0  0  0  0  0  0  0  0  # atno 11005 bound_to 11000
  145.2781  141.0130  143.3733 LP  0  0  0  0  0  0  0  0  0  0  0  0  # atno 17320 bound_to 7965
  144.9171  139.4457  143.6559 LP  0  0  0  0  0  0  0  0  0  0  0  0  # atno 17321 bound_to 7965
  140.3450  143.2997  152.0548 LP  0  0  0  0  0  0  0  0  0  0  0  0  # atno 17342 bound_to 10162
  139.4903  144.6415  151.6867 LP  0  0  0  0  0  0  0  0  0  0  0  0  # atno 17343 bound_to 10162
  157.1386  131.0290  151.2937 LP  0  0  0  0  0  0  0  0  0  0  0  0  # atno 17370 bound_to 10713
  157.4490  130.7587  149.7135 LP  0  0  0  0  0  0  0  0  0  0  0  0  # atno 17371 bound_to 10713
  139.9405  135.0191  156.8694 LP  0  0  0  0  0  0  0  0  0  0  0  0  # atno 17394 bound_to 11000
  140.5929  134.0244  155.7507 LP  0  0  0  0  0  0  0  0  0  0  0  0  # atno 17395 bound_to 11000

$$$$
