AV-unprocessed.smi:72|AV-procd|sdf|680|dock6
  -GOLD-   2262016593D 1   1.00000     0.00000
 Structure written by MMmdl.
 29 30  0  0  0  0  0  0  0  0  1 V2000
  143.1375  132.9574  148.0319 N   0  0  0  0  0  0  0  0  0  0  0  0
  143.8150  132.8237  149.1151 C   0  0  0  0  0  0  0  0  0  0  0  0
  145.0162  132.1097  149.2383 N   0  0  0  0  0  0  0  0  0  0  0  0
  145.5924  132.0579  150.3999 C   0  0  0  0  0  0  0  0  0  0  0  0
  145.0317  132.7124  151.5739 N   0  0  0  0  0  0  0  0  0  0  0  0
  145.7066  132.6557  152.9318 C   0  0  1  0  0  0  0  0  0  0  0  0
  146.7808  131.7572  152.8883 O   0  0  0  0  0  0  0  0  0  0  0  0
  148.0046  132.4644  153.0512 C   0  0  2  0  0  0  0  0  0  0  0  0
  149.1166  131.5249  153.5521 C   0  0  0  0  0  0  0  0  0  0  0  0
  148.9266  131.1448  154.8994 O   0  0  0  0  0  0  0  0  0  0  0  0
  147.6277  133.6450  153.9467 C   0  0  1  0  0  0  0  0  0  0  0  0
  148.5715  134.6992  153.9073 O   0  0  0  0  0  0  0  0  0  0  0  0
  146.2553  134.0280  153.4003 C   0  0  1  0  0  0  0  0  0  0  0  0
  146.3391  134.9903  152.3589 O   0  0  0  0  0  0  0  0  0  0  0  0
  143.8258  133.4462  151.4617 C   0  0  0  0  0  0  0  0  0  0  0  0
  143.3230  134.0367  152.4173 O   0  0  0  0  0  0  0  0  0  0  0  0
  143.2652  133.4636  150.2332 N   0  0  0  0  0  0  0  0  0  0  0  0
  144.9651  132.2372  153.6144 H   0  0  0  0  0  0  0  0  0  0  0  0
  148.2887  132.8410  152.0670 H   0  0  0  0  0  0  0  0  0  0  0  0
  147.5089  133.3165  154.9797 H   0  0  0  0  0  0  0  0  0  0  0  0
  145.6129  134.4300  154.1843 H   0  0  0  0  0  0  0  0  0  0  0  0
  142.3141  133.5163  148.2052 H   0  0  0  0  0  0  0  0  0  0  0  0
  146.5288  131.5246  150.5629 H   0  0  0  0  0  0  0  0  0  0  0  0
  149.1773  130.6350  152.9252 H   0  0  0  0  0  0  0  0  0  0  0  0
  150.0805  132.0292  153.4829 H   0  0  0  0  0  0  0  0  0  0  0  0
  149.4419  131.7157  155.4488 H   0  0  0  0  0  0  0  0  0  0  0  0
  148.4842  135.1482  153.0806 H   0  0  0  0  0  0  0  0  0  0  0  0
  147.2171  135.3392  152.3446 H   0  0  0  0  0  0  0  0  0  0  0  0
  142.4022  133.9747  150.1184 H   0  0  0  0  0  0  0  0  0  0  0  0
  1  2  2  0  0  0  0
  1 22  1  0  0  0  0
  2 17  1  0  0  0  0
  2  3  1  0  0  0  0
  3  4  2  0  0  0  0
  4  5  1  0  0  0  0
  4 23  1  0  0  0  0
  5  6  1  0  0  0  0
  5 15  1  0  0  0  0
  6 18  1  0  0  0  0
  6 13  1  0  0  0  0
  6  7  1  0  0  0  0
  7  8  1  0  0  0  0
  8 19  1  0  0  0  0
  8  9  1  0  0  0  0
  8 11  1  0  0  0  0
  9 10  1  0  0  0  0
  9 24  1  0  0  0  0
  9 25  1  0  0  0  0
 10 26  1  0  0  0  0
 11 20  1  0  0  0  0
 11 12  1  0  0  0  0
 11 13  1  0  0  0  0
 12 27  1  0  0  0  0
 13 21  1  0  0  0  0
 13 14  1  0  0  0  0
 14 28  1  0  0  0  0
 15 16  2  0  0  0  0
 15 17  1  0  0  0  0
 17 29  1  0  0  0  0
M  END
> <s_m_source_file>
AV-unprocessed.smi

> <i_m_source_file_index>
72

> <i_lp_mmshare_version>
43012

> <i_f3d_flags>
0

> <s_epik_input>
W05IMl1jMW5bY0hdbihjKD1PKW4xKVtDQEBIXTJPW0NASF0oW0NIMl1bT0hdKVtDQEBIXShbT0hdKVtDQEhdMltPSF0=

> <s_epik_cmdline>
J2VwaWtfcHl0aG9uJywgJy1waCcsICc3LjAnLCAnLXRuJywgJzgnLCAnLW1hJywgJzIwMCcsICctbWV0YWxfYmluZGluZycsICctaW1hZScsICc8aW5maWxlLm1hZT4nLCAnLW9tYWUnLCAnPG91dGZpbGUubWFlPic=

> <r_lp_tautomer_probability>
7.17554e-07

> <r_epik_Ionization_Penalty>
0.0066451

> <r_epik_Ionization_Penalty_Charging>
0.00663793

> <r_epik_Ionization_Penalty_Neutral>
7.17052e-06

> <r_epik_State_Penalty>
0.419231

> <r_epik_Charging_Adjusted_Penalty>
0.425868

> <i_epik_Tot_Q>
0

> <i_epik_Tot_abs_Q>
0

> <r_epik_Metal_State_Penalty>
1.44144

> <b_epik_Metal_Only>
0

> <s_epik_Chemistry_Notes>
This compound contains an acetal/aminal-like group ( X-CH(R)-Y where X, Y are N, S, or O) that may be acid/base labile, releasing an aldehyde.

> <s_lp_Force_Field>
OPLS_2005

> <r_lp_Energy>
48.597

> <b_lp_Chiralities_Consistent>
1

> <s_lp_Variant>
AV-unprocessed.smi:72-18

> <Gold.Version>
5.8.1

> <Gold.Id.Protein>
6NUR|6NUR_protein|mol2

> <Gold.PLP.Fitness>
42.0403

> <Gold.PLP.PLP>
-27.4934

> <Gold.PLP.part.hbond>
-5.2176

> <Gold.PLP.part.metal>
0.0000

> <Gold.PLP.part.buried>
-5.8390

> <Gold.PLP.part.nonpolar>
-16.4692

> <Gold.PLP.part.repulsive>
0.5103

> <Gold.PLP.ligand.clash>
0.0000

> <Gold.PLP.ligand.torsion>
0.1827

> <Gold.PLP.Chemscore.Hbond>
3.9588

> <Gold.PLP.Chemscore.CHOScore>
0.9960

> <Gold.PLP.Chemscore.Metal>
0.0000

> <Gold.Chemscore.Hbonds>
donor molecule, donor type, donor heavy atom, donor atom, acceptor molecule, acceptor atom, score
      L1  H     1    22       P1 10186  0.94
      L1  H    12    27       P1  7948  1.00
      L1  H    14    28       P1  7948  1.00
      L1  H    17    29       P1 10186  1.00
      L1  C     4    23       P1 10747  0.96

> <Gold.PLP.Chemscore.Internal.Correction>
0.0482

> <Gold.Rescore>
     Score         DG    S(hbond)    S(metal)    S(lipo)     H(rot)  DE(clash)    DE(int)     intcor
      9.65      -9.99       3.86        0.00      17.18       4.06       0.00       0.33       ----

> <Gold.Chemscore.Fitness>
9.6545

> <Gold.Chemscore.DG>
-9.9861

> <Gold.Chemscore.ZeroCoef>
-5.4800

> <Gold.Chemscore.Hbond>
3.8591

> <Gold.Chemscore.Metal>
0.0000

> <Gold.Chemscore.Lipo>
17.1824

> <Gold.Chemscore.Internal_Hbond>
0.0000

> <Gold.Chemscore.DEClash>
0.0000

> <Gold.Chemscore.DEInternal>
0.3316

> <Gold.Chemscore.Rot>
4.0600

> <Gold.Chemscore.Internal.Correction>
   9.000000E+99

> <Gold.Chemscore.Hbonds>
donor molecule, donor type, donor heavy atom, donor atom, acceptor molecule, acceptor atom, score
      L1  H     1    22       P1 10186  0.86
      L1  H    12    27       P1  7948  0.84
      L1  H    14    28       P1  7948  0.97
      L1  H    17    29       P1 10186  0.95

> <Gold.Chemscore.Hbond.Weighted>
-12.8893

> <Gold.Chemscore.Metal.Weighted>
-0.0000

> <Gold.Chemscore.Lipo.Weighted>
-2.0103

> <Gold.Chemscore.Internal_Hbond.Weighted>
0.0000

> <Gold.Chemscore.DEClash.Weighted>
0.0000

> <Gold.Chemscore.DEInternal.Weighted>
0.3316

> <Gold.Chemscore.Rot.Weighted>
10.3936

> <Gold.Chemscore.Internal.Correction.Weighted>
   9.000000E+99

> <Gold.Protein.RotatedTorsions>
[ 6907 6896 6895 6894 ] final  162.11 input  -60.11 | X-H torsion
[ 7974 7965 7964 7962 ] final -148.27 input  175.53 | X-H torsion
[ 8008 7997 7996 7995 ] final   49.19 input   59.86 | X-H torsion
[ 10167 10162 10161 10158 ] final  -59.23 input  -65.29 | X-H torsion
[ 10718 10713 10712 10709 ] final   17.95 input   66.30 | X-H torsion
[ 10763 10752 10751 10750 ] final  147.29 input  -60.55 | X-H torsion
[ 11005 11000 10999 10996 ] final  -43.28 input  -57.11 | X-H torsion

> <Gold.Protein.ActiveResidues>
 VAL166  LYS551  ARG553  GLY616  TRP617  ASP618  TYR619  PRO620  LYS621  CYS622 
 ASP623  PHE694  ASN695  SER759  ASP760  ASP761  ALA762  ILE779  LEU786  VAL792 
 PHE793  MET794  SER795  GLU796  ALA797  LYS798  CYS799  TRP800  GLU811  SER814 

> <Gold.Protein.RotatedAtoms>
  151.9454  133.3650  159.3980 H   0  0  0  0  0  0  0  0  0  0  0  0  # atno 6907 bound_to 6896
  150.6990  134.4396  159.5295 H   0  0  0  0  0  0  0  0  0  0  0  0  # atno 6908 bound_to 6896
  152.2060  134.8545  160.0553 H   0  0  0  0  0  0  0  0  0  0  0  0  # atno 6909 bound_to 6896
  144.8040  140.5218  143.5688 H   0  0  0  0  0  0  0  0  0  0  0  0  # atno 7974 bound_to 7965
  155.3980  140.3436  155.4255 H   0  0  0  0  0  0  0  0  0  0  0  0  # atno 8008 bound_to 7997
  156.1519  140.1573  156.8787 H   0  0  0  0  0  0  0  0  0  0  0  0  # atno 8009 bound_to 7997
  154.5060  140.0802  156.7877 H   0  0  0  0  0  0  0  0  0  0  0  0  # atno 8010 bound_to 7997
  140.6148  143.2399  151.5623 H   0  0  0  0  0  0  0  0  0  0  0  0  # atno 10167 bound_to 10162
  157.0894  130.6421  149.5845 H   0  0  0  0  0  0  0  0  0  0  0  0  # atno 10718 bound_to 10713
  154.0359  135.2893  155.3362 H   0  0  0  0  0  0  0  0  0  0  0  0  # atno 10763 bound_to 10752
  154.6959  135.5208  153.8461 H   0  0  0  0  0  0  0  0  0  0  0  0  # atno 10764 bound_to 10752
  153.0620  135.6617  154.0568 H   0  0  0  0  0  0  0  0  0  0  0  0  # atno 10765 bound_to 10752
  141.0373  133.6794  156.2710 H   0  0  0  0  0  0  0  0  0  0  0  0  # atno 11005 bound_to 11000
  145.5483  139.1476  143.3408 LP  0  0  0  0  0  0  0  0  0  0  0  0  # atno 17320 bound_to 7965
  146.2328  140.5622  142.8968 LP  0  0  0  0  0  0  0  0  0  0  0  0  # atno 17321 bound_to 7965
  139.5390  144.2701  152.1311 LP  0  0  0  0  0  0  0  0  0  0  0  0  # atno 17342 bound_to 10162
  140.1908  144.4754  150.6480 LP  0  0  0  0  0  0  0  0  0  0  0  0  # atno 17343 bound_to 10162
  155.9902  130.4952  150.7247 LP  0  0  0  0  0  0  0  0  0  0  0  0  # atno 17370 bound_to 10713
  157.4734  131.0895  151.0617 LP  0  0  0  0  0  0  0  0  0  0  0  0  # atno 17371 bound_to 10713
  140.6299  134.5274  157.5558 LP  0  0  0  0  0  0  0  0  0  0  0  0  # atno 17394 bound_to 11000
  139.9250  134.8074  156.1097 LP  0  0  0  0  0  0  0  0  0  0  0  0  # atno 17395 bound_to 11000

$$$$
