AV-unprocessed.smi:2032|AV-procd|sdf|8248|dock10
  -GOLD-   2272010523D 1   1.00000     0.00000
 Structure written by MMmdl.
 41 42  0  0  0  0  0  0  0  0  2 V2000
  152.0553  144.3649  158.1573 C   0  0  0  0  0  0  0  0  0  0  0  0
  151.7774  142.9875  158.7681 C   0  0  1  0  0  0  0  0  0  0  0  0
  151.3187  141.9640  157.7117 C   0  0  0  0  0  0  0  0  0  0  0  0
  151.1163  140.6219  158.2677 N   0  0  0  0  0  0  0  0  0  0  0  0
  150.6958  139.6339  157.2458 C   0  0  1  0  0  0  0  0  0  0  0  0
  151.6651  139.5756  156.0374 C   0  0  0  0  0  0  0  0  0  0  0  0
  150.5123  138.1966  157.8165 C   0  0  0  0  0  0  0  0  0  0  0  0
  149.4917  138.1041  158.8580 N   0  0  0  0  0  0  0  0  0  0  0  0
  149.0204  136.9731  159.4023 C   0  0  0  0  0  0  0  0  0  0  0  0
  149.4468  135.8811  159.0195 O   0  0  0  0  0  0  0  0  0  0  0  0
  148.0875  137.1797  160.3596 N   0  5  0  0  0  0  0  0  0  0  0  0
  147.6039  136.1439  161.0645 C   0  0  0  0  0  0  0  0  0  0  0  0
  147.1873  135.0062  160.4966 N   0  0  0  0  0  0  0  0  0  0  0  0
  146.7113  134.0690  161.4154 C   0  0  0  0  0  0  0  0  0  0  0  0
  146.7583  134.5066  162.7124 C   0  0  0  0  0  0  0  0  0  0  0  0
  147.4075  136.1183  162.8194 S   0  0  0  0  0  0  0  0  0  0  0  0
  152.3522  140.2275  158.9523 C   0  0  0  0  0  0  0  0  0  0  0  0
  152.8110  141.2546  160.0051 C   0  0  1  0  0  0  0  0  0  0  0  0
  154.1452  140.8644  160.6501 C   0  0  0  0  0  0  0  0  0  0  0  0
  152.9725  142.5226  159.3824 O   0  0  0  0  0  0  0  0  0  0  0  0
  151.1614  144.7708  157.6832 H   0  0  0  0  0  0  0  0  0  0  0  0
  152.8398  144.3108  157.4019 H   0  0  0  0  0  0  0  0  0  0  0  0
  152.3764  145.0728  158.9217 H   0  0  0  0  0  0  0  0  0  0  0  0
  151.0050  143.0943  159.5318 H   0  0  0  0  0  0  0  0  0  0  0  0
  150.3928  142.3454  157.2860 H   0  0  0  0  0  0  0  0  0  0  0  0
  152.0477  141.9212  156.9009 H   0  0  0  0  0  0  0  0  0  0  0  0
  149.7263  139.9500  156.8578 H   0  0  0  0  0  0  0  0  0  0  0  0
  151.3764  138.8199  155.3079 H   0  0  0  0  0  0  0  0  0  0  0  0
  152.6817  139.3487  156.3594 H   0  0  0  0  0  0  0  0  0  0  0  0
  151.6878  140.5095  155.4782 H   0  0  0  0  0  0  0  0  0  0  0  0
  150.2364  137.5118  157.0142 H   0  0  0  0  0  0  0  0  0  0  0  0
  151.4335  137.8088  158.2494 H   0  0  0  0  0  0  0  0  0  0  0  0
  149.1133  138.9741  159.2021 H   0  0  0  0  0  0  0  0  0  0  0  0
  146.3548  133.1147  161.0572 H   0  0  0  0  0  0  0  0  0  0  0  0
  146.4517  133.9840  163.6060 H   0  0  0  0  0  0  0  0  0  0  0  0
  152.2169  139.2799  159.4702 H   0  0  0  0  0  0  0  0  0  0  0  0
  153.1462  140.0770  158.2192 H   0  0  0  0  0  0  0  0  0  0  0  0
  152.0552  141.3370  160.7882 H   0  0  0  0  0  0  0  0  0  0  0  0
  154.0720  139.8986  161.1506 H   0  0  0  0  0  0  0  0  0  0  0  0
  154.4486  141.6019  161.3935 H   0  0  0  0  0  0  0  0  0  0  0  0
  154.9387  140.7966  159.9051 H   0  0  0  0  0  0  0  0  0  0  0  0
  1  2  1  0  0  0  0
  1 21  1  0  0  0  0
  1 22  1  0  0  0  0
  1 23  1  0  0  0  0
  2 20  1  0  0  0  0
  2  3  1  0  0  0  0
  2 24  1  0  0  0  0
  3  4  1  0  0  0  0
  3 25  1  0  0  0  0
  3 26  1  0  0  0  0
  4  5  1  0  0  0  0
  4 17  1  0  0  0  0
  5  6  1  0  0  0  0
  5  7  1  0  0  0  0
  5 27  1  0  0  0  0
  6 28  1  0  0  0  0
  6 29  1  0  0  0  0
  6 30  1  0  0  0  0
  7  8  1  0  0  0  0
  7 31  1  0  0  0  0
  7 32  1  0  0  0  0
  8  9  1  0  0  0  0
  8 33  1  0  0  0  0
  9 10  2  0  0  0  0
  9 11  1  0  0  0  0
 11 12  1  0  0  0  0
 12 16  1  0  0  0  0
 12 13  2  0  0  0  0
 13 14  1  0  0  0  0
 14 15  2  0  0  0  0
 14 34  1  0  0  0  0
 15 16  1  0  0  0  0
 15 35  1  0  0  0  0
 17 18  1  0  0  0  0
 17 36  1  0  0  0  0
 17 37  1  0  0  0  0
 18 19  1  0  0  0  0
 18 20  1  0  0  0  0
 18 38  1  0  0  0  0
 19 39  1  0  0  0  0
 19 40  1  0  0  0  0
 19 41  1  0  0  0  0
M  CHG  1  11  -1
M  END
> <s_m_source_file>
AV-unprocessed.smi

> <i_m_source_file_index>
2032

> <i_lp_mmshare_version>
43012

> <i_f3d_flags>
0

> <s_epik_input>
W0NIM11bQ0BASF0xW0NIMl1OKFtDSDJdW0NASF0oTzEpW0NIM10pW0NASF0oW0NIM10pW0NIMl1bTkhdQyg9TylbTkhdYzJuW2NIXVtjSF1zMg==

> <s_epik_cmdline>
J2VwaWtfcHl0aG9uJywgJy1waCcsICc3LjAnLCAnLXRuJywgJzgnLCAnLW1hJywgJzIwMCcsICctbWV0YWxfYmluZGluZycsICctaW1hZScsICc8aW5maWxlLm1hZT4nLCAnLW9tYWUnLCAnPG91dGZpbGUubWFlPic=

> <r_lp_tautomer_probability>
0.999

> <r_epik_Ionization_Penalty>
7.22375

> <r_epik_Ionization_Penalty_Charging>
5.82415

> <r_epik_Ionization_Penalty_Neutral>
1.39959

> <r_epik_State_Penalty>
6.03347

> <r_epik_Charging_Adjusted_Penalty>
11.8576

> <i_epik_Tot_Q>
-1

> <i_epik_Tot_abs_Q>
1

> <r_epik_Metal_State_Penalty>
2.01024

> <b_epik_Metal_Only>
1

> <s_lp_Force_Field>
OPLS_2005

> <r_lp_Energy>
22.8045

> <b_lp_Chiralities_Consistent>
1

> <s_lp_Variant>
AV-unprocessed.smi:2032-18

> <Gold.Version>
5.8.1

> <Gold.Id.Protein>
6NUR|6NUR_protein|mol2

> <Gold.PLP.Fitness>
52.2495

> <Gold.PLP.PLP>
-42.4118

> <Gold.PLP.part.hbond>
-3.0000

> <Gold.PLP.part.metal>
0.0000

> <Gold.PLP.part.buried>
-6.3213

> <Gold.PLP.part.nonpolar>
-35.3250

> <Gold.PLP.part.repulsive>
0.2246

> <Gold.PLP.ligand.clash>
0.0000

> <Gold.PLP.ligand.torsion>
0.4827

> <Gold.PLP.Chemscore.Hbond>
3.5804

> <Gold.PLP.Chemscore.CHOScore>
0.0000

> <Gold.PLP.Chemscore.Metal>
0.0000

> <Gold.Chemscore.Hbonds>
donor molecule, donor type, donor heavy atom, donor atom, acceptor molecule, acceptor atom, score
      P1  H  6896  6908       L1    10  1.00
      P1  H  6931  6943       L1    11  1.19
      P1  H  6934  6947       L1    11  1.10

> <Gold.PLP.Chemscore.Internal.Correction>
0.0619

> <Gold.Rescore>
     Score         DG    S(hbond)    S(metal)    S(lipo)     H(rot)  DE(clash)    DE(int)     intcor
     17.10     -18.94       1.81        0.00      97.10       1.54       0.08       1.77       ----

> <Gold.Chemscore.Fitness>
17.0954

> <Gold.Chemscore.DG>
-18.9432

> <Gold.Chemscore.ZeroCoef>
-5.4800

> <Gold.Chemscore.Hbond>
1.8123

> <Gold.Chemscore.Metal>
0.0000

> <Gold.Chemscore.Lipo>
97.0984

> <Gold.Chemscore.Internal_Hbond>
0.0000

> <Gold.Chemscore.DEClash>
0.0756

> <Gold.Chemscore.DEInternal>
1.7722

> <Gold.Chemscore.Rot>
1.5431

> <Gold.Chemscore.Internal.Correction>
   9.000000E+99

> <Gold.Chemscore.Hbonds>
donor molecule, donor type, donor heavy atom, donor atom, acceptor molecule, acceptor atom, score
      P1  H  6896  6908       L1    10  1.00
      P1  H  6931  6943       L1    11  0.10
      P1  H  6934  6947       L1    11  0.47

> <Gold.Chemscore.Hbond.Weighted>
-6.0530

> <Gold.Chemscore.Metal.Weighted>
-0.0000

> <Gold.Chemscore.Lipo.Weighted>
-11.3605

> <Gold.Chemscore.Internal_Hbond.Weighted>
0.0000

> <Gold.Chemscore.DEClash.Weighted>
0.0756

> <Gold.Chemscore.DEInternal.Weighted>
1.7722

> <Gold.Chemscore.Rot.Weighted>
3.9503

> <Gold.Chemscore.Internal.Correction.Weighted>
   9.000000E+99

> <Gold.Protein.RotatedTorsions>
[ 6907 6896 6895 6894 ] final -178.32 input  -60.11 | X-H torsion
[ 7974 7965 7964 7962 ] final  158.62 input  175.53 | X-H torsion
[ 8008 7997 7996 7995 ] final  148.73 input   59.86 | X-H torsion
[ 10167 10162 10161 10158 ] final  -16.18 input  -65.29 | X-H torsion
[ 10718 10713 10712 10709 ] final  -89.98 input   66.30 | X-H torsion
[ 10763 10752 10751 10750 ] final  -15.97 input  -60.55 | X-H torsion
[ 11005 11000 10999 10996 ] final  -60.93 input  -57.11 | X-H torsion

> <Gold.Protein.ActiveResidues>
 VAL166  LYS551  ARG553  GLY616  TRP617  ASP618  TYR619  PRO620  LYS621  CYS622 
 ASP623  PHE694  ASN695  SER759  ASP760  ASP761  ALA762  ILE779  LEU786  VAL792 
 PHE793  MET794  SER795  GLU796  ALA797  LYS798  CYS799  TRP800  GLU811  SER814 

> <Gold.Protein.RotatedAtoms>
  151.6354  133.3329  159.3117 H   0  0  0  0  0  0  0  0  0  0  0  0  # atno 6907 bound_to 6896
  150.8035  134.7148  159.6634 H   0  0  0  0  0  0  0  0  0  0  0  0  # atno 6908 bound_to 6896
  152.4129  134.6097  160.0074 H   0  0  0  0  0  0  0  0  0  0  0  0  # atno 6909 bound_to 6896
  144.7835  139.7504  143.6250 H   0  0  0  0  0  0  0  0  0  0  0  0  # atno 7974 bound_to 7965
  156.2781  140.2121  156.5745 H   0  0  0  0  0  0  0  0  0  0  0  0  # atno 8008 bound_to 7997
  154.7108  140.0512  157.0571 H   0  0  0  0  0  0  0  0  0  0  0  0  # atno 8009 bound_to 7997
  155.0608  140.3166  155.4664 H   0  0  0  0  0  0  0  0  0  0  0  0  # atno 8010 bound_to 7997
  140.7230  143.5142  150.9712 H   0  0  0  0  0  0  0  0  0  0  0  0  # atno 10167 bound_to 10162
  155.9986  130.4892  150.5253 H   0  0  0  0  0  0  0  0  0  0  0  0  # atno 10718 bound_to 10713
  153.5514  135.7011  153.5590 H   0  0  0  0  0  0  0  0  0  0  0  0  # atno 10763 bound_to 10752
  153.3512  135.3994  155.1647 H   0  0  0  0  0  0  0  0  0  0  0  0  # atno 10764 bound_to 10752
  154.8661  135.3766  154.5025 H   0  0  0  0  0  0  0  0  0  0  0  0  # atno 10765 bound_to 10752
  141.1305  133.6626  156.5298 H   0  0  0  0  0  0  0  0  0  0  0  0  # atno 11005 bound_to 11000
  146.2056  139.5377  142.9715 LP  0  0  0  0  0  0  0  0  0  0  0  0  # atno 17320 bound_to 7965
  145.5985  141.0359  143.2031 LP  0  0  0  0  0  0  0  0  0  0  0  0  # atno 17321 bound_to 7965
  139.8857  143.7016  152.3151 LP  0  0  0  0  0  0  0  0  0  0  0  0  # atno 17342 bound_to 10162
  139.7314  144.7581  151.0796 LP  0  0  0  0  0  0  0  0  0  0  0  0  # atno 17343 bound_to 10162
  157.3209  131.0681  151.1932 LP  0  0  0  0  0  0  0  0  0  0  0  0  # atno 17370 bound_to 10713
  157.2846  130.6766  149.6083 LP  0  0  0  0  0  0  0  0  0  0  0  0  # atno 17371 bound_to 10713
  140.4225  134.7174  157.4898 LP  0  0  0  0  0  0  0  0  0  0  0  0  # atno 17394 bound_to 11000
  140.0350  134.6351  155.9056 LP  0  0  0  0  0  0  0  0  0  0  0  0  # atno 17395 bound_to 11000

$$$$
