AV-unprocessed.smi:27|AV-procd|sdf|188|dock1
  -GOLD-   2262015453D 1   1.00000     0.00000
 Structure written by MMmdl.
 53 56  0  0  0  0  0  0  0  0  1 V2000
  150.1629  138.1019  157.8142 O   0  0  0  0  0  0  0  0  0  0  0  0
  150.6499  137.6710  158.8608 C   0  0  0  0  0  0  0  0  0  0  0  0
  152.1691  137.6674  159.0883 C   0  0  0  0  0  0  0  0  0  0  0  0
  152.6880  138.9433  159.6271 N   0  0  0  0  0  0  0  0  0  0  0  0
  153.5057  138.9108  160.7838 C   0  0  0  0  0  0  0  0  0  0  0  0
  153.7928  137.8462  161.3333 O   0  0  0  0  0  0  0  0  0  0  0  0
  153.9657  140.2082  161.2660 C   0  0  0  0  0  0  0  0  0  0  0  0
  154.7568  140.2718  162.3505 F   0  0  0  0  0  0  0  0  0  0  0  0
  153.6116  141.3490  160.6390 C   0  0  0  0  0  0  0  0  0  0  0  0
  152.7990  141.3665  159.5192 N   0  0  0  0  0  0  0  0  0  0  0  0
  152.4079  142.6558  158.8276 C   0  0  1  0  0  0  0  0  0  0  0  0
  150.8921  142.9012  158.9531 C   0  0  0  0  0  0  0  0  0  0  0  0
  150.8257  144.3205  159.4809 C   0  0  0  0  0  0  0  0  0  0  0  0
  152.1220  144.4230  160.2705 C   0  0  0  0  0  0  0  0  0  0  0  0
  153.0500  143.7383  159.4391 O   0  0  0  0  0  0  0  0  0  0  0  0
  152.3204  140.1500  158.9863 C   0  0  0  0  0  0  0  0  0  0  0  0
  151.5938  140.1444  157.9899 O   0  0  0  0  0  0  0  0  0  0  0  0
  149.9111  137.1867  159.8701 N   0  0  0  0  0  0  0  0  0  0  0  0
  148.4508  137.0969  159.8878 C   0  0  0  0  0  0  0  0  0  0  0  0
  147.9309  136.1579  160.9723 C   0  0  0  0  0  0  0  0  0  0  0  0
  147.6898  134.7908  160.7034 C   0  0  0  0  0  0  0  0  0  0  0  0
  147.2025  133.9419  161.7158 C   0  0  0  0  0  0  0  0  0  0  0  0
  146.9496  134.4527  163.0030 C   0  0  0  0  0  0  0  0  0  0  0  0
  147.1817  135.8142  163.2766 C   0  0  0  0  0  0  0  0  0  0  0  0
  147.6683  136.6636  162.2641 C   0  0  0  0  0  0  0  0  0  0  0  0
  147.8935  136.7084  158.5240 C   0  0  0  0  0  0  0  0  0  0  0  0
  148.3311  135.5367  157.8650 C   0  0  0  0  0  0  0  0  0  0  0  0
  147.8023  135.1884  156.6070 C   0  0  0  0  0  0  0  0  0  0  0  0
  146.8307  136.0061  155.9998 C   0  0  0  0  0  0  0  0  0  0  0  0
  146.3845  137.1703  156.6536 C   0  0  0  0  0  0  0  0  0  0  0  0
  146.9120  137.5184  157.9122 C   0  0  0  0  0  0  0  0  0  0  0  0
  152.4153  136.8337  159.7480 H   0  0  0  0  0  0  0  0  0  0  0  0
  152.6616  137.4130  158.1484 H   0  0  0  0  0  0  0  0  0  0  0  0
  153.9889  142.2747  161.0451 H   0  0  0  0  0  0  0  0  0  0  0  0
  152.7620  142.5588  157.7998 H   0  0  0  0  0  0  0  0  0  0  0  0
  150.3939  142.7757  157.9914 H   0  0  0  0  0  0  0  0  0  0  0  0
  150.4549  142.2069  159.6726 H   0  0  0  0  0  0  0  0  0  0  0  0
  150.8355  145.0304  158.6526 H   0  0  0  0  0  0  0  0  0  0  0  0
  149.9395  144.5108  160.0865 H   0  0  0  0  0  0  0  0  0  0  0  0
  152.4277  145.4537  160.4502 H   0  0  0  0  0  0  0  0  0  0  0  0
  152.0317  143.9161  161.2322 H   0  0  0  0  0  0  0  0  0  0  0  0
  150.3945  136.8539  160.6916 H   0  0  0  0  0  0  0  0  0  0  0  0
  148.0678  138.0956  160.1078 H   0  0  0  0  0  0  0  0  0  0  0  0
  147.8734  134.3853  159.7194 H   0  0  0  0  0  0  0  0  0  0  0  0
  147.0216  132.8983  161.5042 H   0  0  0  0  0  0  0  0  0  0  0  0
  146.5765  133.8011  163.7793 H   0  0  0  0  0  0  0  0  0  0  0  0
  146.9855  136.2078  164.2629 H   0  0  0  0  0  0  0  0  0  0  0  0
  147.8403  137.7073  162.4832 H   0  0  0  0  0  0  0  0  0  0  0  0
  149.0698  134.8951  158.3223 H   0  0  0  0  0  0  0  0  0  0  0  0
  148.1412  134.2920  156.1091 H   0  0  0  0  0  0  0  0  0  0  0  0
  146.4256  135.7389  155.0348 H   0  0  0  0  0  0  0  0  0  0  0  0
  145.6364  137.7966  156.1904 H   0  0  0  0  0  0  0  0  0  0  0  0
  146.5601  138.4121  158.4065 H   0  0  0  0  0  0  0  0  0  0  0  0
  1  2  2  0  0  0  0
  2  3  1  0  0  0  0
  2 18  1  0  0  0  0
  3  4  1  0  0  0  0
  3 32  1  0  0  0  0
  3 33  1  0  0  0  0
  4 16  1  0  0  0  0
  4  5  1  0  0  0  0
  5  6  2  0  0  0  0
  5  7  1  0  0  0  0
  7  8  1  0  0  0  0
  7  9  2  0  0  0  0
  9 10  1  0  0  0  0
  9 34  1  0  0  0  0
 10 11  1  0  0  0  0
 10 16  1  0  0  0  0
 11 15  1  0  0  0  0
 11 12  1  0  0  0  0
 11 35  1  0  0  0  0
 12 13  1  0  0  0  0
 12 36  1  0  0  0  0
 12 37  1  0  0  0  0
 13 14  1  0  0  0  0
 13 38  1  0  0  0  0
 13 39  1  0  0  0  0
 14 15  1  0  0  0  0
 14 40  1  0  0  0  0
 14 41  1  0  0  0  0
 16 17  2  0  0  0  0
 18 19  1  0  0  0  0
 18 42  1  0  0  0  0
 19 20  1  0  0  0  0
 19 26  1  0  0  0  0
 19 43  1  0  0  0  0
 20 25  1  0  0  0  0
 20 21  2  0  0  0  0
 21 22  1  0  0  0  0
 21 44  1  0  0  0  0
 22 23  2  0  0  0  0
 22 45  1  0  0  0  0
 23 24  1  0  0  0  0
 23 46  1  0  0  0  0
 24 25  2  0  0  0  0
 24 47  1  0  0  0  0
 25 48  1  0  0  0  0
 26 31  1  0  0  0  0
 26 27  2  0  0  0  0
 27 28  1  0  0  0  0
 27 49  1  0  0  0  0
 28 29  2  0  0  0  0
 28 50  1  0  0  0  0
 29 30  1  0  0  0  0
 29 51  1  0  0  0  0
 30 31  2  0  0  0  0
 30 52  1  0  0  0  0
 31 53  1  0  0  0  0
M  END
> <s_m_source_file>
AV-unprocessed.smi

> <i_m_source_file_index>
27

> <i_lp_mmshare_version>
43012

> <i_f3d_flags>
0

> <s_epik_input>
W2NIXTFbY0hdW2NIXVtjSF1bY0hdYzFbQ0hdKGMyW2NIXVtjSF1bY0hdW2NIXVtjSF0yKVtOSF1DKD1PKVtDSDJdbjNjKD1PKWMoRilbY0hdbihjMz1PKVtDQEBIXTRbQ0gyXVtDSDJdW0NIMl1PNA==

> <s_epik_cmdline>
J2VwaWtfcHl0aG9uJywgJy1waCcsICc3LjAnLCAnLXRuJywgJzgnLCAnLW1hJywgJzIwMCcsICctbWV0YWxfYmluZGluZycsICctaW1hZScsICc8aW5maWxlLm1hZT4nLCAnLW9tYWUnLCAnPG91dGZpbGUubWFlPic=

> <r_lp_tautomer_probability>
1

> <r_epik_Ionization_Penalty>
5.29953e-08

> <r_epik_Ionization_Penalty_Charging>
3.6115e-09

> <r_epik_Ionization_Penalty_Neutral>
4.93838e-08

> <r_epik_State_Penalty>
-0

> <r_epik_Charging_Adjusted_Penalty>
3.6115e-09

> <i_epik_Tot_Q>
0

> <i_epik_Tot_abs_Q>
0

> <r_epik_Metal_State_Penalty>
-0

> <b_epik_Metal_Only>
0

> <s_epik_Chemistry_Notes>
This compound contains an acetal/aminal-like group ( X-CH(R)-Y where X, Y are N, S, or O) that may be acid/base labile, releasing an aldehyde.

> <s_lp_Force_Field>
OPLS_2005

> <r_lp_Energy>
31.2801

> <b_lp_Chiralities_Consistent>
1

> <s_lp_Variant>
AV-unprocessed.smi:27-2

> <Gold.Version>
5.8.1

> <Gold.Id.Protein>
6NUR|6NUR_protein|mol2

> <Gold.PLP.Fitness>
49.4946

> <Gold.PLP.PLP>
-52.5069

> <Gold.PLP.part.hbond>
0.0000

> <Gold.PLP.part.metal>
0.0000

> <Gold.PLP.part.buried>
-7.8920

> <Gold.PLP.part.nonpolar>
-45.5656

> <Gold.PLP.part.repulsive>
0.2252

> <Gold.PLP.ligand.clash>
0.0000

> <Gold.PLP.ligand.torsion>
1.6331

> <Gold.PLP.Chemscore.Hbond>
0.0000

> <Gold.PLP.Chemscore.CHOScore>
0.0000

> <Gold.PLP.Chemscore.Metal>
0.0000

> <Gold.PLP.Chemscore.Internal.Correction>
0.2540

> <Gold.Rescore>
     Score         DG    S(hbond)    S(metal)    S(lipo)     H(rot)  DE(clash)    DE(int)     intcor
      7.93     -13.91       0.00        0.00     119.42       2.16       0.58       5.40       ----

> <Gold.Chemscore.Fitness>
7.9329

> <Gold.Chemscore.DG>
-13.9115

> <Gold.Chemscore.ZeroCoef>
-5.4800

> <Gold.Chemscore.Hbond>
0.0000

> <Gold.Chemscore.Metal>
0.0000

> <Gold.Chemscore.Lipo>
119.4184

> <Gold.Chemscore.Internal_Hbond>
0.0000

> <Gold.Chemscore.DEClash>
0.5785

> <Gold.Chemscore.DEInternal>
5.4002

> <Gold.Chemscore.Rot>
2.1642

> <Gold.Chemscore.Internal.Correction>
   9.000000E+99

> <Gold.Chemscore.Hbond.Weighted>
-0.0000

> <Gold.Chemscore.Metal.Weighted>
-0.0000

> <Gold.Chemscore.Lipo.Weighted>
-13.9720

> <Gold.Chemscore.Internal_Hbond.Weighted>
0.0000

> <Gold.Chemscore.DEClash.Weighted>
0.5785

> <Gold.Chemscore.DEInternal.Weighted>
5.4002

> <Gold.Chemscore.Rot.Weighted>
5.5404

> <Gold.Chemscore.Internal.Correction.Weighted>
   9.000000E+99

> <Gold.Protein.RotatedTorsions>
[ 6907 6896 6895 6894 ] final  -60.01 input  -60.11 | X-H torsion
[ 7974 7965 7964 7962 ] final   46.22 input  175.53 | X-H torsion
[ 8008 7997 7996 7995 ] final  -90.46 input   59.86 | X-H torsion
[ 10167 10162 10161 10158 ] final -140.15 input  -65.29 | X-H torsion
[ 10718 10713 10712 10709 ] final -151.59 input   66.30 | X-H torsion
[ 10763 10752 10751 10750 ] final   56.90 input  -60.55 | X-H torsion
[ 11005 11000 10999 10996 ] final   64.87 input  -57.11 | X-H torsion

> <Gold.Protein.ActiveResidues>
 VAL166  LYS551  ARG553  GLY616  TRP617  ASP618  TYR619  PRO620  LYS621  CYS622 
 ASP623  PHE694  ASN695  SER759  ASP760  ASP761  ALA762  ILE779  LEU786  VAL792 
 PHE793  MET794  SER795  GLU796  ALA797  LYS798  CYS799  TRP800  GLU811  SER814 

> <Gold.Protein.RotatedAtoms>
  150.7888  134.6894  159.6487 H   0  0  0  0  0  0  0  0  0  0  0  0  # atno 6907 bound_to 6896
  152.3989  134.6316  160.0086 H   0  0  0  0  0  0  0  0  0  0  0  0  # atno 6908 bound_to 6896
  151.6593  133.3281  159.3206 H   0  0  0  0  0  0  0  0  0  0  0  0  # atno 6909 bound_to 6896
  146.0410  139.4880  142.9778 H   0  0  0  0  0  0  0  0  0  0  0  0  # atno 7974 bound_to 7965
  154.6989  140.0530  157.0438 H   0  0  0  0  0  0  0  0  0  0  0  0  # atno 8008 bound_to 7997
  155.0712  140.3200  155.4611 H   0  0  0  0  0  0  0  0  0  0  0  0  # atno 8009 bound_to 7997
  156.2753  140.2081  156.5840 H   0  0  0  0  0  0  0  0  0  0  0  0  # atno 8010 bound_to 7997
  139.8310  143.7447  152.2666 H   0  0  0  0  0  0  0  0  0  0  0  0  # atno 10167 bound_to 10162
  156.4612  130.8214  151.2445 H   0  0  0  0  0  0  0  0  0  0  0  0  # atno 10718 bound_to 10713
  152.9840  135.5660  154.5303 H   0  0  0  0  0  0  0  0  0  0  0  0  # atno 10763 bound_to 10752
  154.4776  135.2787  155.1597 H   0  0  0  0  0  0  0  0  0  0  0  0  # atno 10764 bound_to 10752
  154.3119  135.6286  153.5522 H   0  0  0  0  0  0  0  0  0  0  0  0  # atno 10765 bound_to 10752
  139.9931  134.6560  156.0057 H   0  0  0  0  0  0  0  0  0  0  0  0  # atno 11005 bound_to 11000
  145.6885  141.0171  143.1568 LP  0  0  0  0  0  0  0  0  0  0  0  0  # atno 17320 bound_to 7965
  144.7074  139.8504  143.7425 LP  0  0  0  0  0  0  0  0  0  0  0  0  # atno 17321 bound_to 7965
  139.7655  144.7493  151.0301 LP  0  0  0  0  0  0  0  0  0  0  0  0  # atno 17342 bound_to 10162
  140.7806  143.4703  151.0155 LP  0  0  0  0  0  0  0  0  0  0  0  0  # atno 17343 bound_to 10162
  157.7497  131.0106  150.3314 LP  0  0  0  0  0  0  0  0  0  0  0  0  # atno 17370 bound_to 10713
  156.3714  130.3864  149.7172 LP  0  0  0  0  0  0  0  0  0  0  0  0  # atno 17371 bound_to 10713
  141.1582  133.6541  156.4231 LP  0  0  0  0  0  0  0  0  0  0  0  0  # atno 17394 bound_to 11000
  140.4870  134.6611  157.5195 LP  0  0  0  0  0  0  0  0  0  0  0  0  # atno 17395 bound_to 11000

$$$$
