AV-unprocessed.smi:99|AV-procd|sdf|870|dock3
  -GOLD-   2262017333D 1   1.00000     0.00000
 Structure written by MMmdl.
 53 56  0  0  0  0  0  0  0  0  1 V2000
  147.7410  133.7021  153.9315 O   0  0  0  0  0  0  0  0  0  0  0  0
  146.6662  134.2117  153.6077 C   0  0  0  0  0  0  0  0  0  0  0  0
  146.1136  135.2581  154.2517 O   0  0  0  0  0  0  0  0  0  0  0  0
  146.8276  135.9066  155.2908 C   0  0  0  0  0  0  0  0  0  0  0  0
  148.1313  136.4867  154.7262 C   0  0  1  0  0  0  0  0  0  0  0  0
  148.1351  137.9042  154.7999 O   0  0  0  0  0  0  0  0  0  0  0  0
  149.4505  138.3487  154.6943 C   0  0  1  0  0  0  0  0  0  0  0  0
  149.5885  139.5707  155.5743 N   0  0  0  0  0  0  0  0  0  0  0  0
  149.7733  139.4296  156.9427 C   0  0  0  0  0  0  0  0  0  0  0  0
  149.8679  140.4798  157.7914 C   0  0  0  0  0  0  0  0  0  0  0  0
  149.7670  141.8458  157.2900 C   0  0  0  0  0  0  0  0  0  0  0  0
  149.8454  142.8614  157.9778 O   0  0  0  0  0  0  0  0  0  0  0  0
  149.5621  141.9429  155.9107 N   0  0  0  0  0  0  0  0  0  0  0  0
  149.4586  140.8672  155.0266 C   0  0  0  0  0  0  0  0  0  0  0  0
  149.2720  141.0791  153.8294 O   0  0  0  0  0  0  0  0  0  0  0  0
  150.3788  137.2083  155.1534 C   0  0  2  0  0  0  0  0  0  0  0  0
  151.2581  136.7858  154.1307 O   0  0  0  0  0  0  0  0  0  0  0  0
  149.4016  136.0807  155.4832 C   0  0  1  0  0  0  0  0  0  0  0  0
  149.1481  136.0282  156.8829 O   0  0  0  0  0  0  0  0  0  0  0  0
  148.7280  134.8915  157.4753 C   0  0  0  0  0  0  0  0  0  0  0  0
  148.5940  133.8200  156.8818 O   0  0  0  0  0  0  0  0  0  0  0  0
  148.4546  135.0701  158.9300 C   0  0  0  0  0  0  0  0  0  0  0  0
  148.1526  133.9385  159.7228 C   0  0  0  0  0  0  0  0  0  0  0  0
  147.8942  134.0766  161.1005 C   0  0  0  0  0  0  0  0  0  0  0  0
  147.9350  135.3479  161.7020 C   0  0  0  0  0  0  0  0  0  0  0  0
  148.2343  136.4815  160.9242 C   0  0  0  0  0  0  0  0  0  0  0  0
  148.4927  136.3457  159.5464 C   0  0  0  0  0  0  0  0  0  0  0  0
  145.8420  133.7347  152.4598 C   0  0  0  0  0  0  0  0  0  0  0  0
  146.0699  132.4417  151.9333 C   0  0  0  0  0  0  0  0  0  0  0  0
  145.3084  131.9637  150.8492 C   0  0  0  0  0  0  0  0  0  0  0  0
  144.3093  132.7732  150.2782 C   0  0  0  0  0  0  0  0  0  0  0  0
  144.0721  134.0609  150.7932 C   0  0  0  0  0  0  0  0  0  0  0  0
  144.8327  134.5406  151.8776 C   0  0  0  0  0  0  0  0  0  0  0  0
  149.4793  142.8706  155.5210 H   0  0  0  0  0  0  0  0  0  0  0  0
  146.2208  136.6938  155.7408 H   0  0  0  0  0  0  0  0  0  0  0  0
  147.0535  135.1773  156.0700 H   0  0  0  0  0  0  0  0  0  0  0  0
  148.2448  136.1972  153.6797 H   0  0  0  0  0  0  0  0  0  0  0  0
  149.6277  138.6430  153.6592 H   0  0  0  0  0  0  0  0  0  0  0  0
  149.8400  138.4388  157.3638 H   0  0  0  0  0  0  0  0  0  0  0  0
  150.0139  140.3076  158.8481 H   0  0  0  0  0  0  0  0  0  0  0  0
  150.9756  137.5086  156.0157 H   0  0  0  0  0  0  0  0  0  0  0  0
  150.7694  136.7047  153.3261 H   0  0  0  0  0  0  0  0  0  0  0  0
  149.7548  135.1074  155.1377 H   0  0  0  0  0  0  0  0  0  0  0  0
  148.1157  132.9521  159.2832 H   0  0  0  0  0  0  0  0  0  0  0  0
  147.6644  133.2054  161.6960 H   0  0  0  0  0  0  0  0  0  0  0  0
  147.7357  135.4536  162.7584 H   0  0  0  0  0  0  0  0  0  0  0  0
  148.2655  137.4580  161.3848 H   0  0  0  0  0  0  0  0  0  0  0  0
  148.7185  137.2372  158.9795 H   0  0  0  0  0  0  0  0  0  0  0  0
  146.8320  131.8020  152.3547 H   0  0  0  0  0  0  0  0  0  0  0  0
  145.4918  130.9747  150.4558 H   0  0  0  0  0  0  0  0  0  0  0  0
  143.7255  132.4070  149.4466 H   0  0  0  0  0  0  0  0  0  0  0  0
  143.3052  134.6830  150.3560 H   0  0  0  0  0  0  0  0  0  0  0  0
  144.6244  135.5335  152.2483 H   0  0  0  0  0  0  0  0  0  0  0  0
  1  2  2  0  0  0  0
  2  3  1  0  0  0  0
  2 28  1  0  0  0  0
  3  4  1  0  0  0  0
  4  5  1  0  0  0  0
  4 35  1  0  0  0  0
  4 36  1  0  0  0  0
  5 18  1  0  0  0  0
  5  6  1  0  0  0  0
  5 37  1  0  0  0  0
  6  7  1  0  0  0  0
  7  8  1  0  0  0  0
  7 16  1  0  0  0  0
  7 38  1  0  0  0  0
  8 14  1  0  0  0  0
  8  9  1  0  0  0  0
  9 10  2  0  0  0  0
  9 39  1  0  0  0  0
 10 11  1  0  0  0  0
 10 40  1  0  0  0  0
 11 12  2  0  0  0  0
 11 13  1  0  0  0  0
 13 34  1  0  0  0  0
 13 14  1  0  0  0  0
 14 15  2  0  0  0  0
 16 17  1  0  0  0  0
 16 18  1  0  0  0  0
 16 41  1  0  0  0  0
 17 42  1  0  0  0  0
 18 19  1  0  0  0  0
 18 43  1  0  0  0  0
 19 20  1  0  0  0  0
 20 21  2  0  0  0  0
 20 22  1  0  0  0  0
 22 27  1  0  0  0  0
 22 23  2  0  0  0  0
 23 24  1  0  0  0  0
 23 44  1  0  0  0  0
 24 25  2  0  0  0  0
 24 45  1  0  0  0  0
 25 26  1  0  0  0  0
 25 46  1  0  0  0  0
 26 27  2  0  0  0  0
 26 47  1  0  0  0  0
 27 48  1  0  0  0  0
 28 33  1  0  0  0  0
 28 29  2  0  0  0  0
 29 30  1  0  0  0  0
 29 49  1  0  0  0  0
 30 31  2  0  0  0  0
 30 50  1  0  0  0  0
 31 32  1  0  0  0  0
 31 51  1  0  0  0  0
 32 33  2  0  0  0  0
 32 52  1  0  0  0  0
 33 53  1  0  0  0  0
M  END
> <s_m_source_file>
AV-unprocessed.smi

> <i_m_source_file_index>
99

> <i_lp_mmshare_version>
43012

> <i_f3d_flags>
0

> <s_epik_input>
W2NIXTFbY0hdW2NIXVtjSF1bY0hdYzFDKD1PKU9bQ0gyXVtDQEBIXTJPW0NAQEhdKG4zW2NIXVtjSF1jKD1PKVtuSF1jMz1PKVtDQEBIXShbT0hdKVtDQEhdMk9DKD1PKWM0W2NIXVtjSF1bY0hdW2NIXVtjSF00

> <s_epik_cmdline>
J2VwaWtfcHl0aG9uJywgJy1waCcsICc3LjAnLCAnLXRuJywgJzgnLCAnLW1hJywgJzIwMCcsICctbWV0YWxfYmluZGluZycsICctaW1hZScsICc8aW5maWxlLm1hZT4nLCAnLW9tYWUnLCAnPG91dGZpbGUubWFlPic=

> <r_lp_tautomer_probability>
1

> <r_epik_Ionization_Penalty>
0.00454555

> <r_epik_Ionization_Penalty_Charging>
0.0045191

> <r_epik_Ionization_Penalty_Neutral>
2.64449e-05

> <r_epik_State_Penalty>
-0

> <r_epik_Charging_Adjusted_Penalty>
0.0045191

> <i_epik_Tot_Q>
0

> <i_epik_Tot_abs_Q>
0

> <r_epik_Metal_State_Penalty>
1.27877

> <b_epik_Metal_Only>
0

> <s_epik_Chemistry_Notes>
This compound has an ester and may undergo hydrolysis at high or low pH. This compound contains an acetal/aminal-like group ( X-CH(R)-Y where X, Y are N, S, or O) that may be acid/base labile, releasing an aldehyde.

> <s_lp_Force_Field>
OPLS_2005

> <r_lp_Energy>
31.5911

> <b_lp_Chiralities_Consistent>
1

> <s_lp_Variant>
AV-unprocessed.smi:99-6

> <Gold.Version>
5.8.1

> <Gold.Id.Protein>
6NUR|6NUR_protein|mol2

> <Gold.PLP.Fitness>
49.4018

> <Gold.PLP.PLP>
-41.0463

> <Gold.PLP.part.hbond>
-5.0000

> <Gold.PLP.part.metal>
0.0000

> <Gold.PLP.part.buried>
-5.0388

> <Gold.PLP.part.nonpolar>
-32.5230

> <Gold.PLP.part.repulsive>
2.1455

> <Gold.PLP.ligand.clash>
0.0000

> <Gold.PLP.ligand.torsion>
1.9067

> <Gold.PLP.Chemscore.Hbond>
3.8314

> <Gold.PLP.Chemscore.CHOScore>
0.0000

> <Gold.PLP.Chemscore.Metal>
0.0000

> <Gold.Chemscore.Hbonds>
donor molecule, donor type, donor heavy atom, donor atom, acceptor molecule, acceptor atom, score
      L1  H    13    34       P1  8028  1.00
      L1  H    17    42       P1  7949  0.49
      P1  H  7989  7998       L1    15  0.03
      P1  H  8011  8017       L1    15  0.83
      P1  H 10752 10763       L1    17  1.00

> <Gold.PLP.Chemscore.Internal.Correction>
0.6747

> <Gold.Rescore>
     Score         DG    S(hbond)    S(metal)    S(lipo)     H(rot)  DE(clash)    DE(int)     intcor
     13.39     -17.06       2.85        0.00      87.40       3.19       0.67       3.00       ----

> <Gold.Chemscore.Fitness>
13.3903

> <Gold.Chemscore.DG>
-17.0612

> <Gold.Chemscore.ZeroCoef>
-5.4800

> <Gold.Chemscore.Hbond>
2.8509

> <Gold.Chemscore.Metal>
0.0000

> <Gold.Chemscore.Lipo>
87.4033

> <Gold.Chemscore.Internal_Hbond>
0.0000

> <Gold.Chemscore.DEClash>
0.6675

> <Gold.Chemscore.DEInternal>
3.0034

> <Gold.Chemscore.Rot>
3.1903

> <Gold.Chemscore.Internal.Correction>
   9.000000E+99

> <Gold.Chemscore.Hbonds>
donor molecule, donor type, donor heavy atom, donor atom, acceptor molecule, acceptor atom, score
      L1  H    13    34       P1  8028  0.95
      L1  H    17    42       P1  7949  0.05
      P1  H  8011  8017       L1    15  0.78
      P1  H 10752 10763       L1    17  0.87

> <Gold.Chemscore.Hbond.Weighted>
-9.5221

> <Gold.Chemscore.Metal.Weighted>
-0.0000

> <Gold.Chemscore.Lipo.Weighted>
-10.2262

> <Gold.Chemscore.Internal_Hbond.Weighted>
0.0000

> <Gold.Chemscore.DEClash.Weighted>
0.6675

> <Gold.Chemscore.DEInternal.Weighted>
3.0034

> <Gold.Chemscore.Rot.Weighted>
8.1671

> <Gold.Chemscore.Internal.Correction.Weighted>
   9.000000E+99

> <Gold.Protein.RotatedTorsions>
[ 6907 6896 6895 6894 ] final  108.67 input  -60.11 | X-H torsion
[ 7974 7965 7964 7962 ] final   90.08 input  175.53 | X-H torsion
[ 8008 7997 7996 7995 ] final -143.08 input   59.86 | X-H torsion
[ 10167 10162 10161 10158 ] final  -77.74 input  -65.29 | X-H torsion
[ 10718 10713 10712 10709 ] final  -18.84 input   66.30 | X-H torsion
[ 10763 10752 10751 10750 ] final   42.10 input  -60.55 | X-H torsion
[ 11005 11000 10999 10996 ] final   79.68 input  -57.11 | X-H torsion

> <Gold.Protein.ActiveResidues>
 VAL166  LYS551  ARG553  GLY616  TRP617  ASP618  TYR619  PRO620  LYS621  CYS622 
 ASP623  PHE694  ASN695  SER759  ASP760  ASP761  ALA762  ILE779  LEU786  VAL792 
 PHE793  MET794  SER795  GLU796  ALA797  LYS798  CYS799  TRP800  GLU811  SER814 

> <Gold.Protein.RotatedAtoms>
  152.5102  133.9055  159.7461 H   0  0  0  0  0  0  0  0  0  0  0  0  # atno 6907 bound_to 6896
  150.9460  133.6593  159.2788 H   0  0  0  0  0  0  0  0  0  0  0  0  # atno 6908 bound_to 6896
  151.3888  135.0957  159.9572 H   0  0  0  0  0  0  0  0  0  0  0  0  # atno 6909 bound_to 6896
  145.5238  139.2280  143.2657 H   0  0  0  0  0  0  0  0  0  0  0  0  # atno 7974 bound_to 7965
  155.5047  140.0578  157.2933 H   0  0  0  0  0  0  0  0  0  0  0  0  # atno 8008 bound_to 7997
  154.4574  140.1979  156.0290 H   0  0  0  0  0  0  0  0  0  0  0  0  # atno 8009 bound_to 7997
  156.0825  140.3245  155.7716 H   0  0  0  0  0  0  0  0  0  0  0  0  # atno 8010 bound_to 7997
  140.4744  143.2418  151.8156 H   0  0  0  0  0  0  0  0  0  0  0  0  # atno 10167 bound_to 10162
  156.5540  130.4709  149.6438 H   0  0  0  0  0  0  0  0  0  0  0  0  # atno 10718 bound_to 10713
  152.9891  135.6142  154.2894 H   0  0  0  0  0  0  0  0  0  0  0  0  # atno 10763 bound_to 10752
  154.2620  135.2782  155.2776 H   0  0  0  0  0  0  0  0  0  0  0  0  # atno 10764 bound_to 10752
  154.5197  135.5818  153.6728 H   0  0  0  0  0  0  0  0  0  0  0  0  # atno 10765 bound_to 10752
  139.9163  134.7861  156.1810 H   0  0  0  0  0  0  0  0  0  0  0  0  # atno 11005 bound_to 11000
  146.2089  140.6051  142.9068 LP  0  0  0  0  0  0  0  0  0  0  0  0  # atno 17320 bound_to 7965
  144.7662  140.5535  143.6701 LP  0  0  0  0  0  0  0  0  0  0  0  0  # atno 17321 bound_to 7965
  139.4823  144.4852  151.9256 LP  0  0  0  0  0  0  0  0  0  0  0  0  # atno 17342 bound_to 10162
  140.3937  144.2583  150.5897 LP  0  0  0  0  0  0  0  0  0  0  0  0  # atno 17343 bound_to 10162
  156.2859  130.7097  151.1933 LP  0  0  0  0  0  0  0  0  0  0  0  0  # atno 17370 bound_to 10713
  157.7382  131.0543  150.5310 LP  0  0  0  0  0  0  0  0  0  0  0  0  # atno 17371 bound_to 10713
  141.0642  133.6827  156.2012 LP  0  0  0  0  0  0  0  0  0  0  0  0  # atno 17394 bound_to 11000
  140.6612  134.4966  157.5583 LP  0  0  0  0  0  0  0  0  0  0  0  0  # atno 17395 bound_to 11000

$$$$
