AV-unprocessed.smi:1403|AV-procd|sdf|5700|dock5
  -GOLD-   22720 5333D 1   1.00000     0.00000
 Structure written by MMmdl.
 36 37  0  0  0  0  0  0  0  0  1 V2000
  153.4711  140.6858  160.4533 C   0  0  0  0  0  0  0  0  0  0  0  0
  153.2776  141.6735  159.2926 C   0  0  1  0  0  0  0  0  0  0  0  0
  152.1213  141.2475  158.5082 N   0  0  0  0  0  0  0  0  0  0  0  0
  152.1130  140.2652  157.5939 C   0  0  0  0  0  0  0  0  0  0  0  0
  153.0972  139.5698  157.3384 O   0  0  0  0  0  0  0  0  0  0  0  0
  150.7783  140.0303  156.8721 C   0  0  0  0  0  0  0  0  0  0  0  0
  150.6673  138.6829  156.2942 N   0  0  0  0  0  0  0  0  0  0  0  0
  150.8214  137.5614  157.0967 C   0  0  0  0  0  0  0  0  0  0  0  0
  150.7461  136.2931  156.6282 C   0  0  0  0  0  0  0  0  0  0  0  0
  150.4920  136.0420  155.2137 C   0  0  0  0  0  0  0  0  0  0  0  0
  150.4052  134.9312  154.6951 O   0  0  0  0  0  0  0  0  0  0  0  0
  150.3446  137.1954  154.4386 N   0  0  0  0  0  0  0  0  0  0  0  0
  150.4222  138.5051  154.9148 C   0  0  0  0  0  0  0  0  0  0  0  0
  150.2807  139.4531  154.1431 O   0  0  0  0  0  0  0  0  0  0  0  0
  153.0677  143.1217  159.7814 C   0  0  1  0  0  0  0  0  0  0  0  0
  152.6906  144.1216  158.6864 C   0  0  0  0  0  0  0  0  0  0  0  0
  151.9252  145.2052  159.4313 C   0  0  0  0  0  0  0  0  0  0  0  0
  151.6246  144.5808  160.7959 C   0  0  0  0  0  0  0  0  0  0  0  0
  151.9465  143.2064  160.6480 O   0  0  0  0  0  0  0  0  0  0  0  0
  150.1704  137.0712  153.4519 H   0  0  0  0  0  0  0  0  0  0  0  0
  154.3555  140.9316  161.0413 H   0  0  0  0  0  0  0  0  0  0  0  0
  153.6020  139.6687  160.0830 H   0  0  0  0  0  0  0  0  0  0  0  0
  152.6123  140.6884  161.1252 H   0  0  0  0  0  0  0  0  0  0  0  0
  154.1768  141.6368  158.6748 H   0  0  0  0  0  0  0  0  0  0  0  0
  151.2641  141.7602  158.6536 H   0  0  0  0  0  0  0  0  0  0  0  0
  149.9720  140.2060  157.5858 H   0  0  0  0  0  0  0  0  0  0  0  0
  150.6419  140.7825  156.0923 H   0  0  0  0  0  0  0  0  0  0  0  0
  151.0157  137.6994  158.1507 H   0  0  0  0  0  0  0  0  0  0  0  0
  150.8761  135.4599  157.3038 H   0  0  0  0  0  0  0  0  0  0  0  0
  153.9518  143.4752  160.3160 H   0  0  0  0  0  0  0  0  0  0  0  0
  153.5604  144.5096  158.1556 H   0  0  0  0  0  0  0  0  0  0  0  0
  152.0329  143.6506  157.9544 H   0  0  0  0  0  0  0  0  0  0  0  0
  152.5196  146.1122  159.5449 H   0  0  0  0  0  0  0  0  0  0  0  0
  151.0098  145.4670  158.8996 H   0  0  0  0  0  0  0  0  0  0  0  0
  152.2618  145.0164  161.5669 H   0  0  0  0  0  0  0  0  0  0  0  0
  150.5854  144.7117  161.0982 H   0  0  0  0  0  0  0  0  0  0  0  0
  1  2  1  0  0  0  0
  1 21  1  0  0  0  0
  1 22  1  0  0  0  0
  1 23  1  0  0  0  0
  2  3  1  0  0  0  0
  2 15  1  0  0  0  0
  2 24  1  0  0  0  0
  3  4  1  0  0  0  0
  3 25  1  0  0  0  0
  4  5  2  0  0  0  0
  4  6  1  0  0  0  0
  6  7  1  0  0  0  0
  6 26  1  0  0  0  0
  6 27  1  0  0  0  0
  7 13  1  0  0  0  0
  7  8  1  0  0  0  0
  8  9  2  0  0  0  0
  8 28  1  0  0  0  0
  9 10  1  0  0  0  0
  9 29  1  0  0  0  0
 10 11  2  0  0  0  0
 10 12  1  0  0  0  0
 12 20  1  0  0  0  0
 12 13  1  0  0  0  0
 13 14  2  0  0  0  0
 15 19  1  0  0  0  0
 15 16  1  0  0  0  0
 15 30  1  0  0  0  0
 16 17  1  0  0  0  0
 16 31  1  0  0  0  0
 16 32  1  0  0  0  0
 17 18  1  0  0  0  0
 17 33  1  0  0  0  0
 17 34  1  0  0  0  0
 18 19  1  0  0  0  0
 18 35  1  0  0  0  0
 18 36  1  0  0  0  0
M  END
> <s_m_source_file>
AV-unprocessed.smi

> <i_m_source_file_index>
1403

> <i_lp_mmshare_version>
43012

> <i_f3d_flags>
0

> <s_epik_input>
TzFbQ0gyXVtDSDJdW0NIMl1bQ0BIXTFbQ0BIXShbQ0gzXSlbTkhdQyg9TylbQ0gyXW4yW2NIXVtjSF1jKD1PKVtuSF1jMj1P

> <s_epik_cmdline>
J2VwaWtfcHl0aG9uJywgJy1waCcsICc3LjAnLCAnLXRuJywgJzgnLCAnLW1hJywgJzIwMCcsICctbWV0YWxfYmluZGluZycsICctaW1hZScsICc8aW5maWxlLm1hZT4nLCAnLW9tYWUnLCAnPG91dGZpbGUubWFlPic=

> <r_lp_tautomer_probability>
0.999537

> <r_epik_Ionization_Penalty>
0.00331407

> <r_epik_Ionization_Penalty_Charging>
0.00331405

> <r_epik_Ionization_Penalty_Neutral>
2.30132e-08

> <r_epik_State_Penalty>
0.00234266

> <r_epik_Charging_Adjusted_Penalty>
0.00565671

> <i_epik_Tot_Q>
0

> <i_epik_Tot_abs_Q>
0

> <r_epik_Metal_State_Penalty>
0.365604

> <b_epik_Metal_Only>
0

> <s_lp_Force_Field>
OPLS_2005

> <r_lp_Energy>
17.8488

> <b_lp_Chiralities_Consistent>
1

> <s_lp_Variant>
AV-unprocessed.smi:1403-4

> <Gold.Version>
5.8.1

> <Gold.Id.Protein>
6NUR|6NUR_protein|mol2

> <Gold.PLP.Fitness>
42.7287

> <Gold.PLP.PLP>
-35.0727

> <Gold.PLP.part.hbond>
-3.0000

> <Gold.PLP.part.metal>
0.0000

> <Gold.PLP.part.buried>
-6.8300

> <Gold.PLP.part.nonpolar>
-27.1258

> <Gold.PLP.part.repulsive>
1.3516

> <Gold.PLP.ligand.clash>
0.0000

> <Gold.PLP.ligand.torsion>
0.6477

> <Gold.PLP.Chemscore.Hbond>
2.9750

> <Gold.PLP.Chemscore.CHOScore>
0.0000

> <Gold.PLP.Chemscore.Metal>
0.0000

> <Gold.Chemscore.Hbonds>
donor molecule, donor type, donor heavy atom, donor atom, acceptor molecule, acceptor atom, score
      L1  H    12    20       P1  7948  0.65
      P1  H  7989  7998       L1    14  0.94
      P1  H  7997  8009       L1     5  1.00

> <Gold.PLP.Chemscore.Internal.Correction>
0.0264

> <Gold.Rescore>
     Score         DG    S(hbond)    S(metal)    S(lipo)     H(rot)  DE(clash)    DE(int)     intcor
     17.52     -18.38       2.61        0.00      80.26       2.04       0.22       0.64       ----

> <Gold.Chemscore.Fitness>
17.5209

> <Gold.Chemscore.DG>
-18.3828

> <Gold.Chemscore.ZeroCoef>
-5.4800

> <Gold.Chemscore.Hbond>
2.6146

> <Gold.Chemscore.Metal>
0.0000

> <Gold.Chemscore.Lipo>
80.2647

> <Gold.Chemscore.Internal_Hbond>
0.0000

> <Gold.Chemscore.DEClash>
0.2208

> <Gold.Chemscore.DEInternal>
0.6411

> <Gold.Chemscore.Rot>
2.0395

> <Gold.Chemscore.Internal.Correction>
   9.000000E+99

> <Gold.Chemscore.Hbonds>
donor molecule, donor type, donor heavy atom, donor atom, acceptor molecule, acceptor atom, score
      L1  H    12    20       P1  7948  0.11
      P1  H  7989  7998       L1    14  0.89
      P1  H  7997  8009       L1     5  0.94

> <Gold.Chemscore.Hbond.Weighted>
-8.7329

> <Gold.Chemscore.Metal.Weighted>
-0.0000

> <Gold.Chemscore.Lipo.Weighted>
-9.3910

> <Gold.Chemscore.Internal_Hbond.Weighted>
0.0000

> <Gold.Chemscore.DEClash.Weighted>
0.2208

> <Gold.Chemscore.DEInternal.Weighted>
0.6411

> <Gold.Chemscore.Rot.Weighted>
5.2211

> <Gold.Chemscore.Internal.Correction.Weighted>
   9.000000E+99

> <Gold.Protein.RotatedTorsions>
[ 6907 6896 6895 6894 ] final   82.13 input  -60.11 | X-H torsion
[ 7974 7965 7964 7962 ] final   12.51 input  175.53 | X-H torsion
[ 8008 7997 7996 7995 ] final  162.39 input   59.86 | X-H torsion
[ 10167 10162 10161 10158 ] final  178.18 input  -65.29 | X-H torsion
[ 10718 10713 10712 10709 ] final  -50.69 input   66.30 | X-H torsion
[ 10763 10752 10751 10750 ] final  103.04 input  -60.55 | X-H torsion
[ 11005 11000 10999 10996 ] final  -91.39 input  -57.11 | X-H torsion

> <Gold.Protein.ActiveResidues>
 VAL166  LYS551  ARG553  GLY616  TRP617  ASP618  TYR619  PRO620  LYS621  CYS622 
 ASP623  PHE694  ASN695  SER759  ASP760  ASP761  ALA762  ILE779  LEU786  VAL792 
 PHE793  MET794  SER795  GLU796  ALA797  LYS798  CYS799  TRP800  GLU811  SER814 

> <Gold.Protein.RotatedAtoms>
  152.5290  134.3097  159.9108 H   0  0  0  0  0  0  0  0  0  0  0  0  # atno 6907 bound_to 6896
  151.3047  133.4100  159.2650 H   0  0  0  0  0  0  0  0  0  0  0  0  # atno 6908 bound_to 6896
  151.0089  134.9398  159.8053 H   0  0  0  0  0  0  0  0  0  0  0  0  # atno 6909 bound_to 6896
  146.2350  139.9326  142.8494 H   0  0  0  0  0  0  0  0  0  0  0  0  # atno 7974 bound_to 7965
  156.2035  140.1751  156.7850 H   0  0  0  0  0  0  0  0  0  0  0  0  # atno 8008 bound_to 7997
  154.5623  140.0697  156.8868 H   0  0  0  0  0  0  0  0  0  0  0  0  # atno 8009 bound_to 7997
  155.2825  140.3350  155.4260 H   0  0  0  0  0  0  0  0  0  0  0  0  # atno 8010 bound_to 7997
  139.5283  144.2710  152.0628 H   0  0  0  0  0  0  0  0  0  0  0  0  # atno 10167 bound_to 10162
  156.1777  130.4150  149.9552 H   0  0  0  0  0  0  0  0  0  0  0  0  # atno 10718 bound_to 10713
  153.3475  135.3990  155.1620 H   0  0  0  0  0  0  0  0  0  0  0  0  # atno 10763 bound_to 10752
  154.8656  135.3648  154.5265 H   0  0  0  0  0  0  0  0  0  0  0  0  # atno 10764 bound_to 10752
  153.5714  135.7079  153.5563 H   0  0  0  0  0  0  0  0  0  0  0  0  # atno 10765 bound_to 10752
  141.1546  133.7753  156.9873 H   0  0  0  0  0  0  0  0  0  0  0  0  # atno 11005 bound_to 11000
  145.2029  140.9862  143.4145 LP  0  0  0  0  0  0  0  0  0  0  0  0  # atno 17320 bound_to 7965
  144.9758  139.3834  143.6286 LP  0  0  0  0  0  0  0  0  0  0  0  0  # atno 17321 bound_to 7965
  140.2170  144.4505  150.6359 LP  0  0  0  0  0  0  0  0  0  0  0  0  # atno 17342 bound_to 10162
  140.6443  143.2210  151.6220 LP  0  0  0  0  0  0  0  0  0  0  0  0  # atno 17343 bound_to 10162
  156.7332  130.9051  151.3627 LP  0  0  0  0  0  0  0  0  0  0  0  0  # atno 17370 bound_to 10713
  157.6847  130.9174  150.0356 LP  0  0  0  0  0  0  0  0  0  0  0  0  # atno 17371 bound_to 10713
  140.1026  134.9526  157.1946 LP  0  0  0  0  0  0  0  0  0  0  0  0  # atno 17394 bound_to 11000
  140.3298  134.2822  155.7230 LP  0  0  0  0  0  0  0  0  0  0  0  0  # atno 17395 bound_to 11000

$$$$
