AV-unprocessed.smi:1982|AV-procd|sdf|8025|dock3
  -GOLD-   2272010223D 1   1.00000     0.00000
 Structure written by MMmdl.
 36 37  0  0  0  0  0  0  0  0  1 V2000
  151.5229  144.5373  159.4742 C   0  0  0  0  0  0  0  0  0  0  0  0
  152.2293  143.2182  159.1106 C   0  0  1  0  0  0  0  0  0  0  0  0
  152.5868  142.4540  160.4010 C   0  0  0  0  0  0  0  0  0  0  0  0
  153.3304  141.1482  160.1021 C   0  0  0  0  0  0  0  0  0  0  0  0
  152.4966  140.2528  159.1809 C   0  0  0  0  0  0  0  0  0  0  0  0
  152.1267  140.9775  157.8743 C   0  0  1  0  0  0  0  0  0  0  0  0
  151.2908  140.0821  157.0735 N   0  0  0  0  0  0  0  0  0  0  0  0
  151.5651  139.6406  155.8357 C   0  0  0  0  0  0  0  0  0  0  0  0
  152.5777  139.9602  155.2111 O   0  0  0  0  0  0  0  0  0  0  0  0
  150.5216  138.6968  155.2255 C   0  0  0  0  0  0  0  0  0  0  0  0
  150.8036  137.2963  155.4895 N   0  0  0  0  0  0  0  0  0  0  0  0
  150.2182  136.1835  155.0416 C   0  0  0  0  0  0  0  0  0  0  0  0
  150.7947  135.0965  155.5316 N   0  0  0  0  0  0  0  0  0  0  0  0
  151.8011  135.6086  156.3334 N   0  0  0  0  0  0  0  0  0  0  0  0
  151.8107  136.9132  156.3131 N   0  0  0  0  0  0  0  0  0  0  0  0
  151.4017  142.3257  158.1416 C   0  0  2  0  0  0  0  0  0  0  0  0
  151.0803  143.0545  156.8183 C   0  0  0  0  0  0  0  0  0  0  0  0
  150.5338  144.3548  159.8953 H   0  0  0  0  0  0  0  0  0  0  0  0
  151.4073  145.1899  158.6095 H   0  0  0  0  0  0  0  0  0  0  0  0
  152.0979  145.0977  160.2121 H   0  0  0  0  0  0  0  0  0  0  0  0
  153.1656  143.4766  158.6134 H   0  0  0  0  0  0  0  0  0  0  0  0
  153.2052  143.0788  161.0462 H   0  0  0  0  0  0  0  0  0  0  0  0
  151.6789  142.2351  160.9648 H   0  0  0  0  0  0  0  0  0  0  0  0
  154.2913  141.3677  159.6349 H   0  0  0  0  0  0  0  0  0  0  0  0
  153.5490  140.6232  161.0324 H   0  0  0  0  0  0  0  0  0  0  0  0
  153.0531  139.3419  158.9573 H   0  0  0  0  0  0  0  0  0  0  0  0
  151.5909  139.9411  159.7034 H   0  0  0  0  0  0  0  0  0  0  0  0
  153.0565  141.1970  157.3462 H   0  0  0  0  0  0  0  0  0  0  0  0
  150.4336  139.7659  157.5034 H   0  0  0  0  0  0  0  0  0  0  0  0
  149.5342  138.9433  155.6189 H   0  0  0  0  0  0  0  0  0  0  0  0
  150.4857  138.8426  154.1452 H   0  0  0  0  0  0  0  0  0  0  0  0
  149.3792  136.1705  154.3617 H   0  0  0  0  0  0  0  0  0  0  0  0
  150.4520  142.1014  158.6299 H   0  0  0  0  0  0  0  0  0  0  0  0
  151.9927  143.3421  156.2956 H   0  0  0  0  0  0  0  0  0  0  0  0
  150.4895  143.9545  156.9818 H   0  0  0  0  0  0  0  0  0  0  0  0
  150.4970  142.4304  156.1417 H   0  0  0  0  0  0  0  0  0  0  0  0
  1  2  1  0  0  0  0
  1 18  1  0  0  0  0
  1 19  1  0  0  0  0
  1 20  1  0  0  0  0
  2 16  1  0  0  0  0
  2  3  1  0  0  0  0
  2 21  1  0  0  0  0
  3  4  1  0  0  0  0
  3 22  1  0  0  0  0
  3 23  1  0  0  0  0
  4  5  1  0  0  0  0
  4 24  1  0  0  0  0
  4 25  1  0  0  0  0
  5  6  1  0  0  0  0
  5 26  1  0  0  0  0
  5 27  1  0  0  0  0
  6  7  1  0  0  0  0
  6 16  1  0  0  0  0
  6 28  1  0  0  0  0
  7  8  1  0  0  0  0
  7 29  1  0  0  0  0
  8  9  2  0  0  0  0
  8 10  1  0  0  0  0
 10 11  1  0  0  0  0
 10 30  1  0  0  0  0
 10 31  1  0  0  0  0
 11 15  1  0  0  0  0
 11 12  1  0  0  0  0
 12 13  2  0  0  0  0
 12 32  1  0  0  0  0
 13 14  1  0  0  0  0
 14 15  2  0  0  0  0
 16 17  1  0  0  0  0
 16 33  1  0  0  0  0
 17 34  1  0  0  0  0
 17 35  1  0  0  0  0
 17 36  1  0  0  0  0
M  END
> <s_m_source_file>
AV-unprocessed.smi

> <i_m_source_file_index>
1982

> <i_lp_mmshare_version>
43012

> <i_f3d_flags>
0

> <s_epik_input>
W0NIM11bQ0BASF0xW0NIMl1bQ0gyXVtDSDJdW0NASF0oW0NASF0xW0NIM10pW05IXUMoPU8pW0NIMl1uMltjSF1ubm4y

> <s_epik_cmdline>
J2VwaWtfcHl0aG9uJywgJy1waCcsICc3LjAnLCAnLXRuJywgJzgnLCAnLW1hJywgJzIwMCcsICctbWV0YWxfYmluZGluZycsICctaW1hZScsICc8aW5maWxlLm1hZT4nLCAnLW9tYWUnLCAnPG91dGZpbGUubWFlPic=

> <r_lp_tautomer_probability>
1

> <r_epik_Ionization_Penalty>
5.03816e-07

> <r_epik_Ionization_Penalty_Charging>
0

> <r_epik_Ionization_Penalty_Neutral>
5.03816e-07

> <r_epik_State_Penalty>
-0

> <r_epik_Charging_Adjusted_Penalty>
0

> <i_epik_Tot_Q>
0

> <i_epik_Tot_abs_Q>
0

> <r_epik_Metal_State_Penalty>
-0

> <b_epik_Metal_Only>
0

> <s_lp_Force_Field>
OPLS_2005

> <r_lp_Energy>
14.7566

> <b_lp_Chiralities_Consistent>
1

> <s_lp_Variant>
AV-unprocessed.smi:1982-6

> <Gold.Version>
5.8.1

> <Gold.Id.Protein>
6NUR|6NUR_protein|mol2

> <Gold.PLP.Fitness>
42.2347

> <Gold.PLP.PLP>
-32.7035

> <Gold.PLP.part.hbond>
-4.6162

> <Gold.PLP.part.metal>
0.0000

> <Gold.PLP.part.buried>
-0.9932

> <Gold.PLP.part.nonpolar>
-27.6526

> <Gold.PLP.part.repulsive>
0.2040

> <Gold.PLP.ligand.clash>
0.0000

> <Gold.PLP.ligand.torsion>
0.4252

> <Gold.PLP.Chemscore.Hbond>
2.4584

> <Gold.PLP.Chemscore.CHOScore>
1.0000

> <Gold.PLP.Chemscore.Metal>
0.0000

> <Gold.Chemscore.Hbonds>
donor molecule, donor type, donor heavy atom, donor atom, acceptor molecule, acceptor atom, score
      P1  H  7989  7998       L1     9  0.42
      P1  H  7997  8010       L1     9  0.93
      P1  H 10752 10763       L1    14  0.80
      L1  C    12    32       P1  7948  1.00

> <Gold.PLP.Chemscore.Internal.Correction>
0.0064

> <Gold.Rescore>
     Score         DG    S(hbond)    S(metal)    S(lipo)     H(rot)  DE(clash)    DE(int)     intcor
     13.57     -14.40       1.17        0.00      84.44       1.91       0.41       0.42       ----

> <Gold.Chemscore.Fitness>
13.5748

> <Gold.Chemscore.DG>
-14.4029

> <Gold.Chemscore.ZeroCoef>
-5.4800

> <Gold.Chemscore.Hbond>
1.1743

> <Gold.Chemscore.Metal>
0.0000

> <Gold.Chemscore.Lipo>
84.4415

> <Gold.Chemscore.Internal_Hbond>
0.0000

> <Gold.Chemscore.DEClash>
0.4128

> <Gold.Chemscore.DEInternal>
0.4153

> <Gold.Chemscore.Rot>
1.9058

> <Gold.Chemscore.Internal.Correction>
   9.000000E+99

> <Gold.Chemscore.Hbonds>
donor molecule, donor type, donor heavy atom, donor atom, acceptor molecule, acceptor atom, score
      P1  H  7989  7998       L1     9  0.11
      P1  H  7997  8010       L1     9  0.85
      P1  H 10752 10763       L1    14  0.04

> <Gold.Chemscore.Hbond.Weighted>
-3.9221

> <Gold.Chemscore.Metal.Weighted>
-0.0000

> <Gold.Chemscore.Lipo.Weighted>
-9.8797

> <Gold.Chemscore.Internal_Hbond.Weighted>
0.0000

> <Gold.Chemscore.DEClash.Weighted>
0.4128

> <Gold.Chemscore.DEInternal.Weighted>
0.4153

> <Gold.Chemscore.Rot.Weighted>
4.8788

> <Gold.Chemscore.Internal.Correction.Weighted>
   9.000000E+99

> <Gold.Protein.RotatedTorsions>
[ 6907 6896 6895 6894 ] final   24.96 input  -60.11 | X-H torsion
[ 7974 7965 7964 7962 ] final   73.56 input  175.53 | X-H torsion
[ 8008 7997 7996 7995 ] final  115.87 input   59.86 | X-H torsion
[ 10167 10162 10161 10158 ] final  114.91 input  -65.29 | X-H torsion
[ 10718 10713 10712 10709 ] final   44.80 input   66.30 | X-H torsion
[ 10763 10752 10751 10750 ] final  109.01 input  -60.55 | X-H torsion
[ 11005 11000 10999 10996 ] final   86.72 input  -57.11 | X-H torsion

> <Gold.Protein.ActiveResidues>
 VAL166  LYS551  ARG553  GLY616  TRP617  ASP618  TYR619  PRO620  LYS621  CYS622 
 ASP623  PHE694  ASN695  SER759  ASP760  ASP761  ALA762  ILE779  LEU786  VAL792 
 PHE793  MET794  SER795  GLU796  ALA797  LYS798  CYS799  TRP800  GLU811  SER814 

> <Gold.Protein.RotatedAtoms>
  151.9653  135.0103  160.0549 H   0  0  0  0  0  0  0  0  0  0  0  0  # atno 6907 bound_to 6896
  152.1832  133.4717  159.4977 H   0  0  0  0  0  0  0  0  0  0  0  0  # atno 6908 bound_to 6896
  150.6921  134.1725  159.4260 H   0  0  0  0  0  0  0  0  0  0  0  0  # atno 6909 bound_to 6896
  145.7393  139.2714  143.1495 H   0  0  0  0  0  0  0  0  0  0  0  0  # atno 7974 bound_to 7965
  156.2407  140.2929  156.0435 H   0  0  0  0  0  0  0  0  0  0  0  0  # atno 8008 bound_to 7997
  155.1960  140.0408  157.2926 H   0  0  0  0  0  0  0  0  0  0  0  0  # atno 8009 bound_to 7997
  154.6162  140.2464  155.7613 H   0  0  0  0  0  0  0  0  0  0  0  0  # atno 8010 bound_to 7997
  139.6354  144.7119  151.2345 H   0  0  0  0  0  0  0  0  0  0  0  0  # atno 10167 bound_to 10162
  157.4307  130.8023  149.7600 H   0  0  0  0  0  0  0  0  0  0  0  0  # atno 10718 bound_to 10713
  153.4287  135.3794  155.2157 H   0  0  0  0  0  0  0  0  0  0  0  0  # atno 10763 bound_to 10752
  154.8749  135.3835  154.4295 H   0  0  0  0  0  0  0  0  0  0  0  0  # atno 10764 bound_to 10752
  153.4824  135.7088  153.5993 H   0  0  0  0  0  0  0  0  0  0  0  0  # atno 10765 bound_to 10752
  139.8937  134.8374  156.2759 H   0  0  0  0  0  0  0  0  0  0  0  0  # atno 11005 bound_to 11000
  146.0463  140.8115  142.9804 LP  0  0  0  0  0  0  0  0  0  0  0  0  # atno 17320 bound_to 7965
  144.6874  140.2985  143.7267 LP  0  0  0  0  0  0  0  0  0  0  0  0  # atno 17321 bound_to 7965
  140.7462  143.6405  150.8339 LP  0  0  0  0  0  0  0  0  0  0  0  0  # atno 17342 bound_to 10162
  140.0035  143.5718  152.2866 LP  0  0  0  0  0  0  0  0  0  0  0  0  # atno 17343 bound_to 10162
  155.9912  130.3939  150.2994 LP  0  0  0  0  0  0  0  0  0  0  0  0  # atno 17370 bound_to 10713
  157.1151  131.0232  151.3032 LP  0  0  0  0  0  0  0  0  0  0  0  0  # atno 17371 bound_to 10713
  141.0070  133.7118  156.1051 LP  0  0  0  0  0  0  0  0  0  0  0  0  # atno 17394 bound_to 11000
  140.7420  134.4140  157.5553 LP  0  0  0  0  0  0  0  0  0  0  0  0  # atno 17395 bound_to 11000

$$$$
