AV-unprocessed.smi:2519|AV-procd|sdf|9904|dock9
  -GOLD-   2272013543D 1   1.00000     0.00000
 Structure written by MMmdl.
 43 44  0  0  0  0  0  0  0  0  1 V2000
  140.8392  146.1767  155.1471 C   0  0  0  0  0  0  0  0  0  0  0  0
  141.7100  145.7162  156.2171 N   0  0  0  0  0  0  0  0  0  0  0  0
  141.2945  145.4048  157.4559 C   0  0  0  0  0  0  0  0  0  0  0  0
  140.1170  145.4866  157.8087 O   0  0  0  0  0  0  0  0  0  0  0  0
  142.3652  144.9630  158.4196 C   0  0  0  0  0  0  0  0  0  0  0  0
  142.0543  144.7720  159.7844 C   0  0  0  0  0  0  0  0  0  0  0  0
  143.0733  144.3530  160.6579 C   0  0  0  0  0  0  0  0  0  0  0  0
  144.3653  144.1391  160.1434 C   0  0  0  0  0  0  0  0  0  0  0  0
  144.6050  144.3499  158.7687 C   0  0  0  0  0  0  0  0  0  0  0  0
  145.9393  144.1151  158.3455 N   0  0  0  0  0  0  0  0  0  0  0  0
  146.7809  143.1366  158.7354 C   0  0  0  0  0  0  0  0  0  0  0  0
  146.5211  142.2866  159.5856 O   0  0  0  0  0  0  0  0  0  0  0  0
  147.9714  143.1487  158.1072 N   0  0  0  0  0  0  0  0  0  0  0  0
  149.1063  142.2401  158.2858 C   0  0  1  0  0  0  0  0  0  0  0  0
  149.4796  141.6192  156.9278 C   0  0  0  0  0  0  0  0  0  0  0  0
  150.7016  140.6970  157.0514 C   0  0  0  0  0  0  0  0  0  0  0  0
  151.9004  141.4400  157.6617 C   0  0  0  0  0  0  0  0  0  0  0  0
  151.5480  142.0604  159.0301 C   0  0  1  0  0  0  0  0  0  0  0  0
  152.7490  142.7934  159.6621 C   0  0  0  0  0  0  0  0  0  0  0  0
  153.8002  141.9798  159.7666 F   0  0  0  0  0  0  0  0  0  0  0  0
  153.0885  143.8425  158.9128 F   0  0  0  0  0  0  0  0  0  0  0  0
  152.4252  143.2380  160.8762 F   0  0  0  0  0  0  0  0  0  0  0  0
  150.3175  142.9820  158.8919 C   0  0  0  0  0  0  0  0  0  0  0  0
  143.6137  144.7512  157.9367 N   0  0  0  0  0  0  0  0  0  0  0  0
  141.4189  146.3317  154.2370 H   0  0  0  0  0  0  0  0  0  0  0  0
  140.3633  147.1212  155.4140 H   0  0  0  0  0  0  0  0  0  0  0  0
  140.0618  145.4414  154.9352 H   0  0  0  0  0  0  0  0  0  0  0  0
  142.6949  145.6236  156.0111 H   0  0  0  0  0  0  0  0  0  0  0  0
  141.0567  144.9417  160.1630 H   0  0  0  0  0  0  0  0  0  0  0  0
  142.8678  144.1983  161.7068 H   0  0  0  0  0  0  0  0  0  0  0  0
  145.1607  143.8191  160.8010 H   0  0  0  0  0  0  0  0  0  0  0  0
  146.2888  144.7490  157.6424 H   0  0  0  0  0  0  0  0  0  0  0  0
  148.1018  143.8747  157.4173 H   0  0  0  0  0  0  0  0  0  0  0  0
  148.8143  141.4265  158.9525 H   0  0  0  0  0  0  0  0  0  0  0  0
  148.6349  141.0567  156.5279 H   0  0  0  0  0  0  0  0  0  0  0  0
  149.6952  142.4081  156.2055 H   0  0  0  0  0  0  0  0  0  0  0  0
  150.4493  139.8359  157.6715 H   0  0  0  0  0  0  0  0  0  0  0  0
  150.9691  140.3030  156.0706 H   0  0  0  0  0  0  0  0  0  0  0  0
  152.7379  140.7499  157.7661 H   0  0  0  0  0  0  0  0  0  0  0  0
  152.2299  142.2213  156.9756 H   0  0  0  0  0  0  0  0  0  0  0  0
  151.2758  141.2449  159.7023 H   0  0  0  0  0  0  0  0  0  0  0  0
  150.5716  143.8389  158.2664 H   0  0  0  0  0  0  0  0  0  0  0  0
  150.0549  143.3867  159.8696 H   0  0  0  0  0  0  0  0  0  0  0  0
  1  2  1  0  0  0  0
  1 25  1  0  0  0  0
  1 26  1  0  0  0  0
  1 27  1  0  0  0  0
  2  3  1  0  0  0  0
  2 28  1  0  0  0  0
  3  4  2  0  0  0  0
  3  5  1  0  0  0  0
  5 24  1  0  0  0  0
  5  6  2  0  0  0  0
  6  7  1  0  0  0  0
  6 29  1  0  0  0  0
  7  8  2  0  0  0  0
  7 30  1  0  0  0  0
  8  9  1  0  0  0  0
  8 31  1  0  0  0  0
  9 10  1  0  0  0  0
  9 24  2  0  0  0  0
 10 11  1  0  0  0  0
 10 32  1  0  0  0  0
 11 12  2  0  0  0  0
 11 13  1  0  0  0  0
 13 14  1  0  0  0  0
 13 33  1  0  0  0  0
 14 23  1  0  0  0  0
 14 15  1  0  0  0  0
 14 34  1  0  0  0  0
 15 16  1  0  0  0  0
 15 35  1  0  0  0  0
 15 36  1  0  0  0  0
 16 17  1  0  0  0  0
 16 37  1  0  0  0  0
 16 38  1  0  0  0  0
 17 18  1  0  0  0  0
 17 39  1  0  0  0  0
 17 40  1  0  0  0  0
 18 19  1  0  0  0  0
 18 23  1  0  0  0  0
 18 41  1  0  0  0  0
 19 20  1  0  0  0  0
 19 21  1  0  0  0  0
 19 22  1  0  0  0  0
 23 42  1  0  0  0  0
 23 43  1  0  0  0  0
M  END
> <s_m_source_file>
AV-unprocessed.smi

> <i_m_source_file_index>
2519

> <i_lp_mmshare_version>
43012

> <i_f3d_flags>
0

> <s_epik_input>
W0NIM11bTkhdQyg9TyljMVtjSF1bY0hdW2NIXWMobjEpW05IXUMoPU8pW05IXVtDQEBIXTJbQ0gyXVtDSDJdW0NIMl1bQ0BASF0oQyhGKShGKUYpW0NIMl0y

> <s_epik_cmdline>
J2VwaWtfcHl0aG9uJywgJy1waCcsICc3LjAnLCAnLXRuJywgJzgnLCAnLW1hJywgJzIwMCcsICctbWV0YWxfYmluZGluZycsICctaW1hZScsICc8aW5maWxlLm1hZT4nLCAnLW9tYWUnLCAnPG91dGZpbGUubWFlPic=

> <r_lp_tautomer_probability>
1

> <r_epik_Ionization_Penalty>
3.74915e-05

> <r_epik_Ionization_Penalty_Charging>
0

> <r_epik_Ionization_Penalty_Neutral>
3.74915e-05

> <r_epik_State_Penalty>
-0

> <r_epik_Charging_Adjusted_Penalty>
0

> <i_epik_Tot_Q>
0

> <i_epik_Tot_abs_Q>
0

> <r_epik_Metal_State_Penalty>
-0

> <b_epik_Metal_Only>
0

> <s_lp_Force_Field>
OPLS_2005

> <r_lp_Energy>
27.1439

> <b_lp_Chiralities_Consistent>
1

> <s_lp_Variant>
AV-unprocessed.smi:2519-2

> <Gold.Version>
5.8.1

> <Gold.Id.Protein>
6NUR|6NUR_protein|mol2

> <Gold.PLP.Fitness>
40.5333

> <Gold.PLP.PLP>
-35.4389

> <Gold.PLP.part.hbond>
-4.0000

> <Gold.PLP.part.metal>
0.0000

> <Gold.PLP.part.buried>
-5.1001

> <Gold.PLP.part.nonpolar>
-25.9780

> <Gold.PLP.part.repulsive>
0.1742

> <Gold.PLP.ligand.clash>
0.0000

> <Gold.PLP.ligand.torsion>
0.3714

> <Gold.PLP.Chemscore.Hbond>
1.9376

> <Gold.PLP.Chemscore.CHOScore>
0.0000

> <Gold.PLP.Chemscore.Metal>
0.0000

> <Gold.Chemscore.Hbonds>
donor molecule, donor type, donor heavy atom, donor atom, acceptor molecule, acceptor atom, score
      L1  H    10    32       P1  8029  0.79
      P1  H  6934  6946       L1    12  1.00

> <Gold.PLP.Chemscore.Internal.Correction>
0.0244

> <Gold.Rescore>
     Score         DG    S(hbond)    S(metal)    S(lipo)     H(rot)  DE(clash)    DE(int)     intcor
     17.39     -19.21       2.22        0.00      75.94       1.00       0.21       1.61       ----

> <Gold.Chemscore.Fitness>
17.3942

> <Gold.Chemscore.DG>
-19.2132

> <Gold.Chemscore.ZeroCoef>
-5.4800

> <Gold.Chemscore.Hbond>
2.2181

> <Gold.Chemscore.Metal>
0.0000

> <Gold.Chemscore.Lipo>
75.9377

> <Gold.Chemscore.Internal_Hbond>
0.0000

> <Gold.Chemscore.DEClash>
0.2090

> <Gold.Chemscore.DEInternal>
1.6100

> <Gold.Chemscore.Rot>
1.0000

> <Gold.Chemscore.Internal.Correction>
   9.000000E+99

> <Gold.Chemscore.Hbonds>
donor molecule, donor type, donor heavy atom, donor atom, acceptor molecule, acceptor atom, score
      L1  H    10    32       P1  8029  0.17
      P1  H  6934  6946       L1    12  0.98

> <Gold.Chemscore.Hbond.Weighted>
-7.4085

> <Gold.Chemscore.Metal.Weighted>
-0.0000

> <Gold.Chemscore.Lipo.Weighted>
-8.8847

> <Gold.Chemscore.Internal_Hbond.Weighted>
0.0000

> <Gold.Chemscore.DEClash.Weighted>
0.2090

> <Gold.Chemscore.DEInternal.Weighted>
1.6100

> <Gold.Chemscore.Rot.Weighted>
2.5600

> <Gold.Chemscore.Internal.Correction.Weighted>
   9.000000E+99

> <Gold.Protein.RotatedTorsions>
[ 6907 6896 6895 6894 ] final   54.48 input  -60.11 | X-H torsion
[ 7974 7965 7964 7962 ] final   36.65 input  175.53 | X-H torsion
[ 8008 7997 7996 7995 ] final -133.35 input   59.86 | X-H torsion
[ 10167 10162 10161 10158 ] final  134.40 input  -65.29 | X-H torsion
[ 10718 10713 10712 10709 ] final   22.03 input   66.30 | X-H torsion
[ 10763 10752 10751 10750 ] final  145.23 input  -60.55 | X-H torsion
[ 11005 11000 10999 10996 ] final  -11.14 input  -57.11 | X-H torsion

> <Gold.Protein.ActiveResidues>
 VAL166  LYS551  ARG553  GLY616  TRP617  ASP618  TYR619  PRO620  LYS621  CYS622 
 ASP623  PHE694  ASN695  SER759  ASP760  ASP761  ALA762  ILE779  LEU786  VAL792 
 PHE793  MET794  SER795  GLU796  ALA797  LYS798  CYS799  TRP800  GLU811  SER814 

> <Gold.Protein.RotatedAtoms>
  152.3443  134.7092  160.0254 H   0  0  0  0  0  0  0  0  0  0  0  0  # atno 6907 bound_to 6896
  151.7467  133.3319  159.3388 H   0  0  0  0  0  0  0  0  0  0  0  0  # atno 6908 bound_to 6896
  150.7499  134.6162  159.6157 H   0  0  0  0  0  0  0  0  0  0  0  0  # atno 6909 bound_to 6896
  146.1195  139.5991  142.9299 H   0  0  0  0  0  0  0  0  0  0  0  0  # atno 7974 bound_to 7965
  155.3440  140.0473  157.3045 H   0  0  0  0  0  0  0  0  0  0  0  0  # atno 8008 bound_to 7997
  154.5262  140.2242  155.8851 H   0  0  0  0  0  0  0  0  0  0  0  0  # atno 8009 bound_to 7997
  156.1741  140.3089  155.9034 H   0  0  0  0  0  0  0  0  0  0  0  0  # atno 8010 bound_to 7997
  139.5258  144.6569  151.5134 H   0  0  0  0  0  0  0  0  0  0  0  0  # atno 10167 bound_to 10162
  157.1467  130.6656  149.5998 H   0  0  0  0  0  0  0  0  0  0  0  0  # atno 10718 bound_to 10713
  154.0019  135.2922  155.3402 H   0  0  0  0  0  0  0  0  0  0  0  0  # atno 10763 bound_to 10752
  154.7154  135.5132  153.8733 H   0  0  0  0  0  0  0  0  0  0  0  0  # atno 10764 bound_to 10752
  153.0762  135.6664  154.0260 H   0  0  0  0  0  0  0  0  0  0  0  0  # atno 10765 bound_to 10752
  140.7521  133.8583  155.9054 H   0  0  0  0  0  0  0  0  0  0  0  0  # atno 11005 bound_to 11000
  145.5495  141.0414  143.2286 LP  0  0  0  0  0  0  0  0  0  0  0  0  # atno 17320 bound_to 7965
  144.7584  139.7017  143.7244 LP  0  0  0  0  0  0  0  0  0  0  0  0  # atno 17321 bound_to 7965
  140.6399  143.8910  150.6681 LP  0  0  0  0  0  0  0  0  0  0  0  0  # atno 17342 bound_to 10162
  140.2241  143.3786  152.1619 LP  0  0  0  0  0  0  0  0  0  0  0  0  # atno 17343 bound_to 10162
  155.9778  130.4759  150.6617 LP  0  0  0  0  0  0  0  0  0  0  0  0  # atno 17370 bound_to 10713
  157.4258  131.0843  151.1087 LP  0  0  0  0  0  0  0  0  0  0  0  0  # atno 17371 bound_to 10713
  140.9741  134.1493  157.4551 LP  0  0  0  0  0  0  0  0  0  0  0  0  # atno 17394 bound_to 11000
  139.8785  134.9988  156.5922 LP  0  0  0  0  0  0  0  0  0  0  0  0  # atno 17395 bound_to 11000

$$$$
