AV-unprocessed.smi:818|AV-procd|sdf|3832|dock9
  -GOLD-   22720 1273D 1   1.00000     0.00000
 Structure written by MMmdl.
 44 45  0  0  0  0  0  0  0  0  1 V2000
  144.0680  132.7164  149.2030 C   0  0  0  0  0  0  0  0  0  0  0  0
  144.7751  132.8511  150.5565 C   0  0  0  0  0  0  0  0  0  0  0  0
  144.9317  134.2396  150.9423 N   0  0  0  0  0  0  0  0  0  0  0  0
  146.1027  134.9370  151.1636 C   0  0  0  0  0  0  0  0  0  0  0  0
  145.7195  136.2063  151.4931 C   0  0  0  0  0  0  0  0  0  0  0  0
  146.5186  137.3324  151.8140 N   0  0  0  0  0  0  0  0  0  0  0  0
  146.4083  138.1304  152.8886 C   0  0  0  0  0  0  0  0  0  0  0  0
  145.5640  138.0102  153.7769 O   0  0  0  0  0  0  0  0  0  0  0  0
  147.3454  139.0901  152.8814 N   0  0  0  0  0  0  0  0  0  0  0  0
  147.5230  140.1014  153.9224 C   0  0  2  0  0  0  0  0  0  0  0  0
  146.9662  141.4337  153.3937 C   0  0  0  0  0  0  0  0  0  0  0  0
  149.0148  140.2962  154.2370 C   0  0  0  0  0  0  0  0  0  0  0  0
  149.5277  141.4151  154.1798 O   0  0  0  0  0  0  0  0  0  0  0  0
  149.6958  139.1926  154.5805 N   0  0  0  0  0  0  0  0  0  0  0  0
  151.1175  139.1545  154.9099 C   0  0  0  0  0  0  0  0  0  0  0  0
  151.5494  137.7609  155.4136 C   0  0  0  0  0  0  0  0  0  0  0  0
  152.3217  137.9994  156.7123 C   0  0  0  0  0  0  0  0  0  0  0  0
  151.7156  139.2775  157.2825 C   0  0  0  0  0  0  0  0  0  0  0  0
  151.4354  140.1384  156.0505 C   0  0  0  0  0  0  0  0  0  0  0  0
  144.3011  136.2058  151.4517 C   0  0  0  0  0  0  0  0  0  0  0  0
  143.8318  135.0133  151.1178 N   0  0  0  0  0  0  0  0  0  0  0  0
  143.9599  131.6679  148.9253 H   0  0  0  0  0  0  0  0  0  0  0  0
  144.6321  133.2138  148.4134 H   0  0  0  0  0  0  0  0  0  0  0  0
  143.0710  133.1573  149.2321 H   0  0  0  0  0  0  0  0  0  0  0  0
  144.2134  132.3299  151.3330 H   0  0  0  0  0  0  0  0  0  0  0  0
  145.7616  132.3880  150.5138 H   0  0  0  0  0  0  0  0  0  0  0  0
  147.0734  134.4739  151.0645 H   0  0  0  0  0  0  0  0  0  0  0  0
  147.2587  137.5465  151.1617 H   0  0  0  0  0  0  0  0  0  0  0  0
  148.0021  139.1084  152.1151 H   0  0  0  0  0  0  0  0  0  0  0  0
  146.9799  139.8089  154.8234 H   0  0  0  0  0  0  0  0  0  0  0  0
  147.0699  142.2281  154.1341 H   0  0  0  0  0  0  0  0  0  0  0  0
  145.9045  141.3462  153.1603 H   0  0  0  0  0  0  0  0  0  0  0  0
  147.4772  141.7567  152.4853 H   0  0  0  0  0  0  0  0  0  0  0  0
  149.1971  138.3151  154.6040 H   0  0  0  0  0  0  0  0  0  0  0  0
  151.6999  139.4365  154.0306 H   0  0  0  0  0  0  0  0  0  0  0  0
  150.6770  137.1415  155.6294 H   0  0  0  0  0  0  0  0  0  0  0  0
  152.1480  137.2247  154.6763 H   0  0  0  0  0  0  0  0  0  0  0  0
  152.2534  137.1575  157.4019 H   0  0  0  0  0  0  0  0  0  0  0  0
  153.3768  138.1627  156.4884 H   0  0  0  0  0  0  0  0  0  0  0  0
  150.7788  139.0453  157.7910 H   0  0  0  0  0  0  0  0  0  0  0  0
  152.3722  139.7712  157.9996 H   0  0  0  0  0  0  0  0  0  0  0  0
  152.3346  140.7015  155.7967 H   0  0  0  0  0  0  0  0  0  0  0  0
  150.6432  140.8668  156.2302 H   0  0  0  0  0  0  0  0  0  0  0  0
  143.6109  137.0134  151.6471 H   0  0  0  0  0  0  0  0  0  0  0  0
  1  2  1  0  0  0  0
  1 22  1  0  0  0  0
  1 23  1  0  0  0  0
  1 24  1  0  0  0  0
  2  3  1  0  0  0  0
  2 25  1  0  0  0  0
  2 26  1  0  0  0  0
  3 21  1  0  0  0  0
  3  4  1  0  0  0  0
  4  5  2  0  0  0  0
  4 27  1  0  0  0  0
  5  6  1  0  0  0  0
  5 20  1  0  0  0  0
  6  7  1  0  0  0  0
  6 28  1  0  0  0  0
  7  8  2  0  0  0  0
  7  9  1  0  0  0  0
  9 10  1  0  0  0  0
  9 29  1  0  0  0  0
 10 11  1  0  0  0  0
 10 12  1  0  0  0  0
 10 30  1  0  0  0  0
 11 31  1  0  0  0  0
 11 32  1  0  0  0  0
 11 33  1  0  0  0  0
 12 13  2  0  0  0  0
 12 14  1  0  0  0  0
 14 15  1  0  0  0  0
 14 34  1  0  0  0  0
 15 19  1  0  0  0  0
 15 16  1  0  0  0  0
 15 35  1  0  0  0  0
 16 17  1  0  0  0  0
 16 36  1  0  0  0  0
 16 37  1  0  0  0  0
 17 18  1  0  0  0  0
 17 38  1  0  0  0  0
 17 39  1  0  0  0  0
 18 19  1  0  0  0  0
 18 40  1  0  0  0  0
 18 41  1  0  0  0  0
 19 42  1  0  0  0  0
 19 43  1  0  0  0  0
 20 21  2  0  0  0  0
 20 44  1  0  0  0  0
M  END
> <s_m_source_file>
AV-unprocessed.smi

> <i_m_source_file_index>
818

> <i_lp_mmshare_version>
43012

> <i_f3d_flags>
0

> <s_epik_input>
W0NIM11bQ0gyXW4xW2NIXWMoW2NIXW4xKVtOSF1DKD1PKVtOSF1bQ0BIXShbQ0gzXSlDKD1PKVtOSF1bQ0hdMltDSDJdW0NIMl1bQ0gyXVtDSDJdMg==

> <s_epik_cmdline>
J2VwaWtfcHl0aG9uJywgJy1waCcsICc3LjAnLCAnLXRuJywgJzgnLCAnLW1hJywgJzIwMCcsICctbWV0YWxfYmluZGluZycsICctaW1hZScsICc8aW5maWxlLm1hZT4nLCAnLW9tYWUnLCAnPG91dGZpbGUubWFlPic=

> <r_lp_tautomer_probability>
1

> <r_epik_Ionization_Penalty>
0.00015627

> <r_epik_Ionization_Penalty_Charging>
0

> <r_epik_Ionization_Penalty_Neutral>
0.00015627

> <r_epik_State_Penalty>
-0

> <r_epik_Charging_Adjusted_Penalty>
0

> <i_epik_Tot_Q>
0

> <i_epik_Tot_abs_Q>
0

> <r_epik_Metal_State_Penalty>
-0

> <b_epik_Metal_Only>
0

> <s_lp_Force_Field>
OPLS_2005

> <r_lp_Energy>
21.5062

> <b_lp_Chiralities_Consistent>
1

> <s_lp_Variant>
AV-unprocessed.smi:818-1

> <Gold.Version>
5.8.1

> <Gold.Id.Protein>
6NUR|6NUR_protein|mol2

> <Gold.PLP.Fitness>
43.3916

> <Gold.PLP.PLP>
-36.9507

> <Gold.PLP.part.hbond>
-4.0000

> <Gold.PLP.part.metal>
0.0000

> <Gold.PLP.part.buried>
-1.6086

> <Gold.PLP.part.nonpolar>
-30.4406

> <Gold.PLP.part.repulsive>
0.7613

> <Gold.PLP.ligand.clash>
0.0000

> <Gold.PLP.ligand.torsion>
0.7888

> <Gold.PLP.Chemscore.Hbond>
1.8089

> <Gold.PLP.Chemscore.CHOScore>
0.8566

> <Gold.PLP.Chemscore.Metal>
0.0000

> <Gold.Chemscore.Hbonds>
donor molecule, donor type, donor heavy atom, donor atom, acceptor molecule, acceptor atom, score
      L1  H     6    28       P1  7948  0.05
      L1  H     9    29       P1  7957  0.93
      P1  H  7989  7998       L1    13  0.14
      P1  H  8011  8017       L1    13  0.52
      L1  C     4    27       P1  7948  0.45
      L1  C    20    44       P1 10171  0.53

> <Gold.PLP.Chemscore.Internal.Correction>
0.0221

> <Gold.Rescore>
     Score         DG    S(hbond)    S(metal)    S(lipo)     H(rot)  DE(clash)    DE(int)     intcor
     14.51     -16.10       1.62        0.00      81.49       1.68       0.29       1.30       ----

> <Gold.Chemscore.Fitness>
14.5113

> <Gold.Chemscore.DG>
-16.1015

> <Gold.Chemscore.ZeroCoef>
-5.4800

> <Gold.Chemscore.Hbond>
1.6152

> <Gold.Chemscore.Metal>
0.0000

> <Gold.Chemscore.Lipo>
81.4949

> <Gold.Chemscore.Internal_Hbond>
0.0000

> <Gold.Chemscore.DEClash>
0.2891

> <Gold.Chemscore.DEInternal>
1.3010

> <Gold.Chemscore.Rot>
1.6828

> <Gold.Chemscore.Internal.Correction>
   9.000000E+99

> <Gold.Chemscore.Hbonds>
donor molecule, donor type, donor heavy atom, donor atom, acceptor molecule, acceptor atom, score
      L1  H     6    28       P1  7948  0.06
      L1  H     9    29       P1  7957  0.83
      P1  H  7989  7998       L1    13  0.04
      P1  H  8011  8017       L1    13  0.51

> <Gold.Chemscore.Hbond.Weighted>
-5.3946

> <Gold.Chemscore.Metal.Weighted>
-0.0000

> <Gold.Chemscore.Lipo.Weighted>
-9.5349

> <Gold.Chemscore.Internal_Hbond.Weighted>
0.0000

> <Gold.Chemscore.DEClash.Weighted>
0.2891

> <Gold.Chemscore.DEInternal.Weighted>
1.3010

> <Gold.Chemscore.Rot.Weighted>
4.3081

> <Gold.Chemscore.Internal.Correction.Weighted>
   9.000000E+99

> <Gold.Protein.RotatedTorsions>
[ 6907 6896 6895 6894 ] final   74.00 input  -60.11 | X-H torsion
[ 7974 7965 7964 7962 ] final  -20.82 input  175.53 | X-H torsion
[ 8008 7997 7996 7995 ] final   94.40 input   59.86 | X-H torsion
[ 10167 10162 10161 10158 ] final    6.16 input  -65.29 | X-H torsion
[ 10718 10713 10712 10709 ] final   39.66 input   66.30 | X-H torsion
[ 10763 10752 10751 10750 ] final -176.46 input  -60.55 | X-H torsion
[ 11005 11000 10999 10996 ] final   32.93 input  -57.11 | X-H torsion

> <Gold.Protein.ActiveResidues>
 VAL166  LYS551  ARG553  GLY616  TRP617  ASP618  TYR619  PRO620  LYS621  CYS622 
 ASP623  PHE694  ASN695  SER759  ASP760  ASP761  ALA762  ILE779  LEU786  VAL792 
 PHE793  MET794  SER795  GLU796  ALA797  LYS798  CYS799  TRP800  GLU811  SER814 

> <Gold.Protein.RotatedAtoms>
  152.4953  134.4337  159.9520 H   0  0  0  0  0  0  0  0  0  0  0  0  # atno 6907 bound_to 6896
  151.4317  133.3662  159.2777 H   0  0  0  0  0  0  0  0  0  0  0  0  # atno 6908 bound_to 6896
  150.9150  134.8590  159.7510 H   0  0  0  0  0  0  0  0  0  0  0  0  # atno 6909 bound_to 6896
  146.1767  140.4255  142.8510 H   0  0  0  0  0  0  0  0  0  0  0  0  # atno 7974 bound_to 7965
  156.0575  140.3300  155.7422 H   0  0  0  0  0  0  0  0  0  0  0  0  # atno 8008 bound_to 7997
  155.5506  140.0610  157.2868 H   0  0  0  0  0  0  0  0  0  0  0  0  # atno 8009 bound_to 7997
  154.4465  140.1895  156.0671 H   0  0  0  0  0  0  0  0  0  0  0  0  # atno 8010 bound_to 7997
  140.6443  143.7700  150.7475 H   0  0  0  0  0  0  0  0  0  0  0  0  # atno 10167 bound_to 10162
  157.3731  130.7712  149.7135 H   0  0  0  0  0  0  0  0  0  0  0  0  # atno 10718 bound_to 10713
  154.5721  135.2829  155.0817 H   0  0  0  0  0  0  0  0  0  0  0  0  # atno 10763 bound_to 10752
  154.2185  135.6395  153.5141 H   0  0  0  0  0  0  0  0  0  0  0  0  # atno 10764 bound_to 10752
  153.0061  135.5509  154.6348 H   0  0  0  0  0  0  0  0  0  0  0  0  # atno 10765 bound_to 10752
  140.2683  134.3112  155.7835 H   0  0  0  0  0  0  0  0  0  0  0  0  # atno 11005 bound_to 11000
  144.8248  140.6610  143.6329 LP  0  0  0  0  0  0  0  0  0  0  0  0  # atno 17320 bound_to 7965
  145.4191  139.1567  143.4084 LP  0  0  0  0  0  0  0  0  0  0  0  0  # atno 17321 bound_to 7965
  140.1338  143.4502  152.2238 LP  0  0  0  0  0  0  0  0  0  0  0  0  # atno 17342 bound_to 10162
  139.5653  144.7431  151.4040 LP  0  0  0  0  0  0  0  0  0  0  0  0  # atno 17343 bound_to 10162
  155.9760  130.4082  150.3812 LP  0  0  0  0  0  0  0  0  0  0  0  0  # atno 17370 bound_to 10713
  157.1906  131.0414  151.2702 LP  0  0  0  0  0  0  0  0  0  0  0  0  # atno 17371 bound_to 10713
  141.2181  133.7451  156.9295 LP  0  0  0  0  0  0  0  0  0  0  0  0  # atno 17394 bound_to 11000
  140.1397  134.9301  157.2450 LP  0  0  0  0  0  0  0  0  0  0  0  0  # atno 17395 bound_to 11000

$$$$
