AV-unprocessed.smi:203|AV-procd|sdf|1592|dock7
  -GOLD-   2262019493D 1   1.00000     0.00000
 Structure written by MMmdl.
 57 61  0  0  0  0  0  0  0  0  1 V2000
  152.5903  136.4155  159.0896 O   0  0  0  0  0  0  0  0  0  0  0  0
  152.3366  137.5094  158.5908 C   0  0  0  0  0  0  0  0  0  0  0  0
  151.7060  138.6571  159.3630 C   0  0  0  0  0  0  0  0  0  0  0  0
  151.3307  139.6475  158.2452 C   0  0  1  0  0  0  0  0  0  0  0  0
  151.3516  141.1629  158.6179 C   0  0  1  0  0  0  0  0  0  0  0  0
  152.5447  141.5506  159.5319 C   0  0  0  0  0  0  0  0  0  0  0  0
  152.5358  143.0458  159.8766 C   0  0  0  0  0  0  0  0  0  0  0  0
  152.5231  143.8772  158.5902 C   0  0  0  0  0  0  0  0  0  0  0  0
  151.3273  143.4810  157.7156 C   0  0  0  0  0  0  0  0  0  0  0  0
  151.3236  142.0451  157.4360 N   0  0  0  0  0  0  0  0  0  0  0  0
  150.4037  141.7662  156.4848 C   0  0  0  0  0  0  0  0  0  0  0  0
  150.8600  141.2529  155.3159 N   0  0  0  0  0  0  0  0  0  0  0  0
  150.0002  140.9573  154.3364 C   0  0  0  0  0  0  0  0  0  0  0  0
  148.6731  141.0999  154.3182 N   0  0  0  0  0  0  0  0  0  0  0  0
  148.2145  141.6259  155.4903 C   0  0  0  0  0  0  0  0  0  0  0  0
  149.0038  141.9884  156.6172 C   0  0  0  0  0  0  0  0  0  0  0  0
  148.1905  142.4991  157.6219 N   0  0  0  0  0  0  0  0  0  0  0  0
  146.9888  142.4465  157.1157 C   0  0  0  0  0  0  0  0  0  0  0  0
  146.9128  141.9407  155.8383 N   0  0  0  0  0  0  0  0  0  0  0  0
  145.7131  141.7915  155.0357 C   0  0  0  0  0  0  0  0  0  0  0  0
  144.7261  142.9656  155.2074 C   0  0  2  0  0  0  0  0  0  0  0  0
  143.5108  142.5845  154.5944 O   0  0  0  0  0  0  0  0  0  0  0  0
  145.2095  144.2974  154.5909 C   0  0  1  0  0  0  0  0  0  0  0  0
  145.8011  144.1765  153.1857 C   0  0  0  0  0  0  0  0  0  0  0  0
  145.6559  145.5801  152.6200 C   0  0  0  0  0  0  0  0  0  0  0  0
  144.5865  146.2245  153.5059 C   0  0  0  0  0  0  0  0  0  0  0  0
  144.1218  145.1767  154.3445 O   0  0  0  0  0  0  0  0  0  0  0  0
  152.1900  139.2292  157.0348 C   0  0  0  0  0  0  0  0  0  0  0  0
  152.5665  137.8599  157.3257 N   0  0  0  0  0  0  0  0  0  0  0  0
  150.8346  138.3277  159.9297 H   0  0  0  0  0  0  0  0  0  0  0  0
  152.4426  139.0459  160.0627 H   0  0  0  0  0  0  0  0  0  0  0  0
  150.3032  139.3794  157.9949 H   0  0  0  0  0  0  0  0  0  0  0  0
  150.4447  141.3658  159.1884 H   0  0  0  0  0  0  0  0  0  0  0  0
  152.5271  140.9869  160.4626 H   0  0  0  0  0  0  0  0  0  0  0  0
  153.4916  141.3142  159.0479 H   0  0  0  0  0  0  0  0  0  0  0  0
  151.6582  143.2814  160.4799 H   0  0  0  0  0  0  0  0  0  0  0  0
  153.4086  143.2985  160.4795 H   0  0  0  0  0  0  0  0  0  0  0  0
  152.4770  144.9400  158.8287 H   0  0  0  0  0  0  0  0  0  0  0  0
  153.4510  143.7204  158.0385 H   0  0  0  0  0  0  0  0  0  0  0  0
  150.3979  143.7528  158.2184 H   0  0  0  0  0  0  0  0  0  0  0  0
  151.3589  144.0450  156.7817 H   0  0  0  0  0  0  0  0  0  0  0  0
  150.4386  140.5489  153.4378 H   0  0  0  0  0  0  0  0  0  0  0  0
  146.1196  142.7861  157.6600 H   0  0  0  0  0  0  0  0  0  0  0  0
  146.0054  141.6909  153.9895 H   0  0  0  0  0  0  0  0  0  0  0  0
  145.2348  140.8519  155.3154 H   0  0  0  0  0  0  0  0  0  0  0  0
  144.5234  143.1159  156.2686 H   0  0  0  0  0  0  0  0  0  0  0  0
  143.6913  141.8975  153.9712 H   0  0  0  0  0  0  0  0  0  0  0  0
  145.9262  144.7864  155.2537 H   0  0  0  0  0  0  0  0  0  0  0  0
  146.8339  143.8268  153.1887 H   0  0  0  0  0  0  0  0  0  0  0  0
  145.2106  143.4789  152.5897 H   0  0  0  0  0  0  0  0  0  0  0  0
  146.5929  146.1331  152.6944 H   0  0  0  0  0  0  0  0  0  0  0  0
  145.3601  145.5559  151.5708 H   0  0  0  0  0  0  0  0  0  0  0  0
  145.0195  147.0141  154.1216 H   0  0  0  0  0  0  0  0  0  0  0  0
  143.7656  146.6517  152.9295 H   0  0  0  0  0  0  0  0  0  0  0  0
  151.6340  139.2931  156.0989 H   0  0  0  0  0  0  0  0  0  0  0  0
  153.0960  139.8239  156.9302 H   0  0  0  0  0  0  0  0  0  0  0  0
  152.9829  137.2515  156.6356 H   0  0  0  0  0  0  0  0  0  0  0  0
  1  2  2  0  0  0  0
  2 29  1  0  0  0  0
  2  3  1  0  0  0  0
  3  4  1  0  0  0  0
  3 30  1  0  0  0  0
  3 31  1  0  0  0  0
  4  5  1  0  0  0  0
  4 28  1  0  0  0  0
  4 32  1  0  0  0  0
  5 10  1  0  0  0  0
  5  6  1  0  0  0  0
  5 33  1  0  0  0  0
  6  7  1  0  0  0  0
  6 34  1  0  0  0  0
  6 35  1  0  0  0  0
  7  8  1  0  0  0  0
  7 36  1  0  0  0  0
  7 37  1  0  0  0  0
  8  9  1  0  0  0  0
  8 38  1  0  0  0  0
  8 39  1  0  0  0  0
  9 10  1  0  0  0  0
  9 40  1  0  0  0  0
  9 41  1  0  0  0  0
 10 11  1  0  0  0  0
 11 16  1  0  0  0  0
 11 12  2  0  0  0  0
 12 13  1  0  0  0  0
 13 14  2  0  0  0  0
 13 42  1  0  0  0  0
 14 15  1  0  0  0  0
 15 19  1  0  0  0  0
 15 16  2  0  0  0  0
 16 17  1  0  0  0  0
 17 18  2  0  0  0  0
 18 19  1  0  0  0  0
 18 43  1  0  0  0  0
 19 20  1  0  0  0  0
 20 21  1  0  0  0  0
 20 44  1  0  0  0  0
 20 45  1  0  0  0  0
 21 22  1  0  0  0  0
 21 23  1  0  0  0  0
 21 46  1  0  0  0  0
 22 47  1  0  0  0  0
 23 27  1  0  0  0  0
 23 24  1  0  0  0  0
 23 48  1  0  0  0  0
 24 25  1  0  0  0  0
 24 49  1  0  0  0  0
 24 50  1  0  0  0  0
 25 26  1  0  0  0  0
 25 51  1  0  0  0  0
 25 52  1  0  0  0  0
 26 27  1  0  0  0  0
 26 53  1  0  0  0  0
 26 54  1  0  0  0  0
 28 29  1  0  0  0  0
 28 55  1  0  0  0  0
 28 56  1  0  0  0  0
 29 57  1  0  0  0  0
M  END
> <s_m_source_file>
AV-unprocessed.smi

> <i_m_source_file_index>
203

> <i_lp_mmshare_version>
43012

> <i_f3d_flags>
0

> <s_epik_input>
Tz1DMVtDSDJdW0NASF0oW0NIMl1bTkhdMSlbQ0BASF0yW0NIMl1bQ0gyXVtDSDJdW0NIMl1OMmMobltjSF1uMyljKGMzNCluW2NIXW40W0NIMl1bQ0BIXShbT0hdKVtDQEBIXTVbQ0gyXVtDSDJdW0NIMl1PNQ==

> <s_epik_cmdline>
J2VwaWtfcHl0aG9uJywgJy1waCcsICc3LjAnLCAnLXRuJywgJzgnLCAnLW1hJywgJzIwMCcsICctbWV0YWxfYmluZGluZycsICctaW1hZScsICc8aW5maWxlLm1hZT4nLCAnLW9tYWUnLCAnPG91dGZpbGUubWFlPic=

> <r_lp_tautomer_probability>
1

> <r_epik_Ionization_Penalty>
0.00175146

> <r_epik_Ionization_Penalty_Charging>
0

> <r_epik_Ionization_Penalty_Neutral>
0.00175146

> <r_epik_State_Penalty>
0.00109045

> <r_epik_Charging_Adjusted_Penalty>
0.00109045

> <i_epik_Tot_Q>
0

> <i_epik_Tot_abs_Q>
0

> <r_epik_Metal_State_Penalty>
-0

> <b_epik_Metal_Only>
0

> <s_lp_Force_Field>
OPLS_2005

> <r_lp_Energy>
55.4973

> <b_lp_Chiralities_Consistent>
1

> <s_lp_Variant>
AV-unprocessed.smi:203-11

> <Gold.Version>
5.8.1

> <Gold.Id.Protein>
6NUR|6NUR_protein|mol2

> <Gold.PLP.Fitness>
53.2126

> <Gold.PLP.PLP>
-46.3419

> <Gold.PLP.part.hbond>
-4.0000

> <Gold.PLP.part.metal>
0.0000

> <Gold.PLP.part.buried>
-2.6775

> <Gold.PLP.part.nonpolar>
-40.6100

> <Gold.PLP.part.repulsive>
0.6181

> <Gold.PLP.ligand.clash>
0.0000

> <Gold.PLP.ligand.torsion>
1.1812

> <Gold.PLP.Chemscore.Hbond>
1.9760

> <Gold.PLP.Chemscore.CHOScore>
1.0000

> <Gold.PLP.Chemscore.Metal>
0.0000

> <Gold.Chemscore.Hbonds>
donor molecule, donor type, donor heavy atom, donor atom, acceptor molecule, acceptor atom, score
      L1  H    22    47       P1 10175  0.25
      P1  H  6896  6909       L1     1  0.82
      L1  C    13    42       P1  7957  1.00

> <Gold.PLP.Chemscore.Internal.Correction>
0.3051

> <Gold.Rescore>
     Score         DG    S(hbond)    S(metal)    S(lipo)     H(rot)  DE(clash)    DE(int)     intcor
     14.09     -16.63       1.74        0.00     105.05       2.72       0.76       1.79       ----

> <Gold.Chemscore.Fitness>
14.0864

> <Gold.Chemscore.DG>
-16.6321

> <Gold.Chemscore.ZeroCoef>
-5.4800

> <Gold.Chemscore.Hbond>
1.7415

> <Gold.Chemscore.Metal>
0.0000

> <Gold.Chemscore.Lipo>
105.0538

> <Gold.Chemscore.Internal_Hbond>
0.0000

> <Gold.Chemscore.DEClash>
0.7587

> <Gold.Chemscore.DEInternal>
1.7869

> <Gold.Chemscore.Rot>
2.7171

> <Gold.Chemscore.Internal.Correction>
   9.000000E+99

> <Gold.Chemscore.Hbonds>
donor molecule, donor type, donor heavy atom, donor atom, acceptor molecule, acceptor atom, score
      P1  H  6896  6909       L1     1  0.81

> <Gold.Chemscore.Hbond.Weighted>
-5.8165

> <Gold.Chemscore.Metal.Weighted>
-0.0000

> <Gold.Chemscore.Lipo.Weighted>
-12.2913

> <Gold.Chemscore.Internal_Hbond.Weighted>
0.0000

> <Gold.Chemscore.DEClash.Weighted>
0.7587

> <Gold.Chemscore.DEInternal.Weighted>
1.7869

> <Gold.Chemscore.Rot.Weighted>
6.9557

> <Gold.Chemscore.Internal.Correction.Weighted>
   9.000000E+99

> <Gold.Protein.RotatedTorsions>
[ 6907 6896 6895 6894 ] final  151.33 input  -60.11 | X-H torsion
[ 7974 7965 7964 7962 ] final  177.56 input  175.53 | X-H torsion
[ 8008 7997 7996 7995 ] final  101.81 input   59.86 | X-H torsion
[ 10167 10162 10161 10158 ] final -137.65 input  -65.29 | X-H torsion
[ 10718 10713 10712 10709 ] final  136.44 input   66.30 | X-H torsion
[ 10763 10752 10751 10750 ] final   -7.26 input  -60.55 | X-H torsion
[ 11005 11000 10999 10996 ] final   85.86 input  -57.11 | X-H torsion

> <Gold.Protein.ActiveResidues>
 VAL166  LYS551  ARG553  GLY616  TRP617  ASP618  TYR619  PRO620  LYS621  CYS622 
 ASP623  PHE694  ASN695  SER759  ASP760  ASP761  ALA762  ILE779  LEU786  VAL792 
 PHE793  MET794  SER795  GLU796  ALA797  LYS798  CYS799  TRP800  GLU811  SER814 

> <Gold.Protein.RotatedAtoms>
  152.1021  133.4255  159.4591 H   0  0  0  0  0  0  0  0  0  0  0  0  # atno 6907 bound_to 6896
  150.6864  134.2748  159.4612 H   0  0  0  0  0  0  0  0  0  0  0  0  # atno 6908 bound_to 6896
  152.0609  134.9594  160.0625 H   0  0  0  0  0  0  0  0  0  0  0  0  # atno 6909 bound_to 6896
  144.7167  140.0265  143.6439 H   0  0  0  0  0  0  0  0  0  0  0  0  # atno 7974 bound_to 7965
  156.1334  140.3191  155.8384 H   0  0  0  0  0  0  0  0  0  0  0  0  # atno 8008 bound_to 7997
  155.4289  140.0517  157.3037 H   0  0  0  0  0  0  0  0  0  0  0  0  # atno 8009 bound_to 7997
  154.4917  140.2095  155.9546 H   0  0  0  0  0  0  0  0  0  0  0  0  # atno 8010 bound_to 7997
  139.8556  143.7142  152.2654 H   0  0  0  0  0  0  0  0  0  0  0  0  # atno 10167 bound_to 10162
  157.4466  131.1062  151.0082 H   0  0  0  0  0  0  0  0  0  0  0  0  # atno 10718 bound_to 10713
  153.4239  135.7010  153.6276 H   0  0  0  0  0  0  0  0  0  0  0  0  # atno 10763 bound_to 10752
  153.4719  135.3713  155.2395 H   0  0  0  0  0  0  0  0  0  0  0  0  # atno 10764 bound_to 10752
  154.8723  135.4045  154.3612 H   0  0  0  0  0  0  0  0  0  0  0  0  # atno 10765 bound_to 10752
  139.8960  134.8315  156.2640 H   0  0  0  0  0  0  0  0  0  0  0  0  # atno 11005 bound_to 11000
  146.0137  139.3192  143.0854 LP  0  0  0  0  0  0  0  0  0  0  0  0  # atno 17320 bound_to 7965
  145.8651  140.9453  143.0680 LP  0  0  0  0  0  0  0  0  0  0  0  0  # atno 17321 bound_to 7965
  139.7423  144.7556  151.0634 LP  0  0  0  0  0  0  0  0  0  0  0  0  # atno 17342 bound_to 10162
  140.7782  143.4958  150.9834 LP  0  0  0  0  0  0  0  0  0  0  0  0  # atno 17343 bound_to 10162
  157.0927  130.5949  149.5443 LP  0  0  0  0  0  0  0  0  0  0  0  0  # atno 17370 bound_to 10713
  155.9970  130.5040  150.7517 LP  0  0  0  0  0  0  0  0  0  0  0  0  # atno 17371 bound_to 10713
  141.0144  133.7077  156.1164 LP  0  0  0  0  0  0  0  0  0  0  0  0  # atno 17394 bound_to 11000
  140.7322  134.4242  157.5564 LP  0  0  0  0  0  0  0  0  0  0  0  0  # atno 17395 bound_to 11000

$$$$
