AV-unprocessed.smi:89|AV-procd|sdf|828|dock1
  -GOLD-   2262017243D 1   1.00000     0.00000
 Structure written by MMmdl.
 54 56  0  0  0  0  0  0  0  0  1 V2000
  151.1483  136.0479  156.4355 C   0  0  0  0  0  0  0  0  0  0  0  0
  150.0247  135.6578  155.4607 C   0  0  0  0  0  0  0  0  0  0  0  0
  148.7000  135.6067  156.0834 N   0  0  0  0  0  0  0  0  0  0  0  0
  147.7289  135.0238  155.3342 C   0  0  0  0  0  0  0  0  0  0  0  0
  146.4563  135.4552  155.5201 N   0  0  0  0  0  0  0  0  0  0  0  0
  145.4517  134.9134  154.8267 C   0  0  0  0  0  0  0  0  0  0  0  0
  145.4973  133.9415  153.9140 N   0  0  0  0  0  0  0  0  0  0  0  0
  146.7733  133.4968  153.7283 C   0  0  0  0  0  0  0  0  0  0  0  0
  147.9388  133.9739  154.3929 C   0  0  0  0  0  0  0  0  0  0  0  0
  149.0537  133.2750  153.9443 N   0  0  0  0  0  0  0  0  0  0  0  0
  148.5759  132.4367  153.0660 C   0  0  0  0  0  0  0  0  0  0  0  0
  147.2159  132.5083  152.8670 N   0  0  0  0  0  0  0  0  0  0  0  0
  146.4232  131.6979  151.9553 C   0  0  0  0  0  0  0  0  0  0  0  0
  145.8461  132.4842  150.7510 C   0  0  2  0  0  0  0  0  0  0  0  0
  146.8848  132.7349  149.8217 O   0  0  0  0  0  0  0  0  0  0  0  0
  145.1796  133.8082  151.1277 C   0  0  0  0  0  0  0  0  0  0  0  0
  143.7129  133.4220  151.2415 C   0  0  0  0  0  0  0  0  0  0  0  0
  143.5485  132.5385  150.1462 O   0  0  0  0  0  0  0  0  0  0  0  0
  144.7025  131.7087  150.0649 C   0  0  0  0  0  0  0  0  0  0  0  0
  148.2994  136.7878  156.8651 C   0  0  1  0  0  0  0  0  0  0  0  0
  147.8324  137.9625  155.9845 C   0  0  0  0  0  0  0  0  0  0  0  0
  147.2737  136.4835  157.9791 C   0  0  0  0  0  0  0  0  0  0  0  0
  148.0972  135.9230  159.5342 S   0  0  0  0  0  0  0  0  0  0  0  0
  149.5338  135.7350  159.2820 O   0  0  0  0  0  0  0  0  0  0  0  0
  147.6731  136.8074  160.6302 O   0  0  0  0  0  0  0  0  0  0  0  0
  147.3339  134.2673  159.7926 C   0  0  0  0  0  0  0  0  0  0  0  0
  147.7679  133.6684  161.1337 C   0  0  0  0  0  0  0  0  0  0  0  0
  152.0957  136.1479  155.9061 H   0  0  0  0  0  0  0  0  0  0  0  0
  151.2903  135.3005  157.2165 H   0  0  0  0  0  0  0  0  0  0  0  0
  150.9351  137.0026  156.9169 H   0  0  0  0  0  0  0  0  0  0  0  0
  149.9969  136.3961  154.6586 H   0  0  0  0  0  0  0  0  0  0  0  0
  150.2579  134.7064  154.9837 H   0  0  0  0  0  0  0  0  0  0  0  0
  144.4714  135.3159  155.0348 H   0  0  0  0  0  0  0  0  0  0  0  0
  149.2070  131.7411  152.5321 H   0  0  0  0  0  0  0  0  0  0  0  0
  147.0486  130.8766  151.6026 H   0  0  0  0  0  0  0  0  0  0  0  0
  145.6146  131.2383  152.5249 H   0  0  0  0  0  0  0  0  0  0  0  0
  147.6186  132.1794  150.0366 H   0  0  0  0  0  0  0  0  0  0  0  0
  145.5662  134.2731  152.0332 H   0  0  0  0  0  0  0  0  0  0  0  0
  145.2850  134.5357  150.3212 H   0  0  0  0  0  0  0  0  0  0  0  0
  143.5149  132.8976  152.1778 H   0  0  0  0  0  0  0  0  0  0  0  0
  143.0426  134.2790  151.1729 H   0  0  0  0  0  0  0  0  0  0  0  0
  144.9123  131.4712  149.0211 H   0  0  0  0  0  0  0  0  0  0  0  0
  144.4948  130.7679  150.5764 H   0  0  0  0  0  0  0  0  0  0  0  0
  149.2012  137.1353  157.3707 H   0  0  0  0  0  0  0  0  0  0  0  0
  147.6695  138.8573  156.5857 H   0  0  0  0  0  0  0  0  0  0  0  0
  146.8938  137.7385  155.4776 H   0  0  0  0  0  0  0  0  0  0  0  0
  148.5731  138.2155  155.2261 H   0  0  0  0  0  0  0  0  0  0  0  0
  146.7237  137.3900  158.2318 H   0  0  0  0  0  0  0  0  0  0  0  0
  146.5317  135.7454  157.6779 H   0  0  0  0  0  0  0  0  0  0  0  0
  146.2503  134.3796  159.7526 H   0  0  0  0  0  0  0  0  0  0  0  0
  147.6337  133.6203  158.9678 H   0  0  0  0  0  0  0  0  0  0  0  0
  147.3150  132.6887  161.2871 H   0  0  0  0  0  0  0  0  0  0  0  0
  147.4693  134.3082  161.9645 H   0  0  0  0  0  0  0  0  0  0  0  0
  148.8503  133.5465  161.1771 H   0  0  0  0  0  0  0  0  0  0  0  0
  1  2  1  0  0  0  0
  1 28  1  0  0  0  0
  1 29  1  0  0  0  0
  1 30  1  0  0  0  0
  2  3  1  0  0  0  0
  2 31  1  0  0  0  0
  2 32  1  0  0  0  0
  3  4  1  0  0  0  0
  3 20  1  0  0  0  0
  4  9  1  0  0  0  0
  4  5  2  0  0  0  0
  5  6  1  0  0  0  0
  6  7  2  0  0  0  0
  6 33  1  0  0  0  0
  7  8  1  0  0  0  0
  8 12  1  0  0  0  0
  8  9  2  0  0  0  0
  9 10  1  0  0  0  0
 10 11  2  0  0  0  0
 11 12  1  0  0  0  0
 11 34  1  0  0  0  0
 12 13  1  0  0  0  0
 13 14  1  0  0  0  0
 13 35  1  0  0  0  0
 13 36  1  0  0  0  0
 14 19  1  0  0  0  0
 14 15  1  0  0  0  0
 14 16  1  0  0  0  0
 15 37  1  0  0  0  0
 16 17  1  0  0  0  0
 16 38  1  0  0  0  0
 16 39  1  0  0  0  0
 17 18  1  0  0  0  0
 17 40  1  0  0  0  0
 17 41  1  0  0  0  0
 18 19  1  0  0  0  0
 19 42  1  0  0  0  0
 19 43  1  0  0  0  0
 20 21  1  0  0  0  0
 20 22  1  0  0  0  0
 20 44  1  0  0  0  0
 21 45  1  0  0  0  0
 21 46  1  0  0  0  0
 21 47  1  0  0  0  0
 22 23  1  0  0  0  0
 22 48  1  0  0  0  0
 22 49  1  0  0  0  0
 23 24  2  0  0  0  0
 23 25  2  0  0  0  0
 23 26  1  0  0  0  0
 26 27  1  0  0  0  0
 26 50  1  0  0  0  0
 26 51  1  0  0  0  0
 27 52  1  0  0  0  0
 27 53  1  0  0  0  0
 27 54  1  0  0  0  0
M  END
> <s_m_source_file>
AV-unprocessed.smi

> <i_m_source_file_index>
89

> <i_lp_mmshare_version>
43012

> <i_f3d_flags>
0

> <s_epik_input>
W0NIM11bQ0gyXVMoPU8pKD1PKVtDSDJdW0NAQEhdKFtDSDNdKU4oW0NIMl1bQ0gzXSljKG5bY0hdbjEpYyhjMTIpbltjSF1uMltDSDJdW0NAQF0zKFtPSF0pW0NIMl1bQ0gyXU9bQ0gyXTM=

> <s_epik_cmdline>
J2VwaWtfcHl0aG9uJywgJy1waCcsICc3LjAnLCAnLXRuJywgJzgnLCAnLW1hJywgJzIwMCcsICctbWV0YWxfYmluZGluZycsICctaW1hZScsICc8aW5maWxlLm1hZT4nLCAnLW9tYWUnLCAnPG91dGZpbGUubWFlPic=

> <r_lp_tautomer_probability>
1

> <r_epik_Ionization_Penalty>
0.00103773

> <r_epik_Ionization_Penalty_Charging>
0

> <r_epik_Ionization_Penalty_Neutral>
0.00103773

> <r_epik_State_Penalty>
0.000558914

> <r_epik_Charging_Adjusted_Penalty>
0.000558914

> <i_epik_Tot_Q>
0

> <i_epik_Tot_abs_Q>
0

> <r_epik_Metal_State_Penalty>
-0

> <b_epik_Metal_Only>
0

> <s_lp_Force_Field>
OPLS_2005

> <r_lp_Energy>
26.3804

> <b_lp_Chiralities_Consistent>
1

> <s_lp_Variant>
AV-unprocessed.smi:89-4

> <Gold.Version>
5.8.1

> <Gold.Id.Protein>
6NUR|6NUR_protein|mol2

> <Gold.PLP.Fitness>
44.7195

> <Gold.PLP.PLP>
-32.8891

> <Gold.PLP.part.hbond>
-5.3914

> <Gold.PLP.part.metal>
0.0000

> <Gold.PLP.part.buried>
-5.8563

> <Gold.PLP.part.nonpolar>
-23.5007

> <Gold.PLP.part.repulsive>
0.5162

> <Gold.PLP.ligand.clash>
0.0000

> <Gold.PLP.ligand.torsion>
1.4678

> <Gold.PLP.Chemscore.Hbond>
3.5094

> <Gold.PLP.Chemscore.CHOScore>
0.9278

> <Gold.PLP.Chemscore.Metal>
0.0000

> <Gold.Chemscore.Hbonds>
donor molecule, donor type, donor heavy atom, donor atom, acceptor molecule, acceptor atom, score
      L1  H    15    37       P1 10747  1.00
      P1  H  6896  6908       L1    24  1.00
      P1  H  6931  6943       L1    25  0.18
      P1  H  6934  6947       L1    25  0.35
      L1  C    11    34       P1 10747  1.00

> <Gold.PLP.Chemscore.Internal.Correction>
1.4544

> <Gold.Rescore>
     Score         DG    S(hbond)    S(metal)    S(lipo)     H(rot)  DE(clash)    DE(int)     intcor
      9.75     -16.23       3.66        0.00      62.93       3.45       0.03       6.45       ----

> <Gold.Chemscore.Fitness>
9.7486

> <Gold.Chemscore.DG>
-16.2268

> <Gold.Chemscore.ZeroCoef>
-5.4800

> <Gold.Chemscore.Hbond>
3.6594

> <Gold.Chemscore.Metal>
0.0000

> <Gold.Chemscore.Lipo>
62.9283

> <Gold.Chemscore.Internal_Hbond>
0.0000

> <Gold.Chemscore.DEClash>
0.0327

> <Gold.Chemscore.DEInternal>
6.4454

> <Gold.Chemscore.Rot>
3.4524

> <Gold.Chemscore.Internal.Correction>
   9.000000E+99

> <Gold.Chemscore.Hbonds>
donor molecule, donor type, donor heavy atom, donor atom, acceptor molecule, acceptor atom, score
      L1  H    15    37       P1 10747  1.00
      P1  H  6896  6908       L1    24  0.99
      P1  H  6931  6943       L1    25  0.18
      P1  H  6934  6947       L1    25  0.35

> <Gold.Chemscore.Hbond.Weighted>
-12.2224

> <Gold.Chemscore.Metal.Weighted>
-0.0000

> <Gold.Chemscore.Lipo.Weighted>
-7.3626

> <Gold.Chemscore.Internal_Hbond.Weighted>
0.0000

> <Gold.Chemscore.DEClash.Weighted>
0.0327

> <Gold.Chemscore.DEInternal.Weighted>
6.4454

> <Gold.Chemscore.Rot.Weighted>
8.8382

> <Gold.Chemscore.Internal.Correction.Weighted>
   9.000000E+99

> <Gold.Protein.RotatedTorsions>
[ 6907 6896 6895 6894 ] final  179.07 input  -60.11 | X-H torsion
[ 7974 7965 7964 7962 ] final   80.00 input  175.53 | X-H torsion
[ 8008 7997 7996 7995 ] final -136.85 input   59.86 | X-H torsion
[ 10167 10162 10161 10158 ] final -103.63 input  -65.29 | X-H torsion
[ 10718 10713 10712 10709 ] final  109.14 input   66.30 | X-H torsion
[ 10763 10752 10751 10750 ] final  -31.96 input  -60.55 | X-H torsion
[ 11005 11000 10999 10996 ] final -162.07 input  -57.11 | X-H torsion

> <Gold.Protein.ActiveResidues>
 VAL166  LYS551  ARG553  GLY616  TRP617  ASP618  TYR619  PRO620  LYS621  CYS622 
 ASP623  PHE694  ASN695  SER759  ASP760  ASP761  ALA762  ILE779  LEU786  VAL792 
 PHE793  MET794  SER795  GLU796  ALA797  LYS798  CYS799  TRP800  GLU811  SER814 

> <Gold.Protein.RotatedAtoms>
  151.6776  133.3312  159.3211 H   0  0  0  0  0  0  0  0  0  0  0  0  # atno 6907 bound_to 6896
  150.7838  134.6808  159.6452 H   0  0  0  0  0  0  0  0  0  0  0  0  # atno 6908 bound_to 6896
  152.3902  134.6457  160.0162 H   0  0  0  0  0  0  0  0  0  0  0  0  # atno 6909 bound_to 6896
  145.6569  139.2461  143.1945 H   0  0  0  0  0  0  0  0  0  0  0  0  # atno 7974 bound_to 7965
  155.4021  140.0506  157.3036 H   0  0  0  0  0  0  0  0  0  0  0  0  # atno 8008 bound_to 7997
  154.4986  140.2148  155.9355 H   0  0  0  0  0  0  0  0  0  0  0  0  # atno 8009 bound_to 7997
  156.1437  140.3149  155.8542 H   0  0  0  0  0  0  0  0  0  0  0  0  # atno 8010 bound_to 7997
  140.2180  143.3697  152.0994 H   0  0  0  0  0  0  0  0  0  0  0  0  # atno 10167 bound_to 10162
  157.6555  131.0908  150.6410 H   0  0  0  0  0  0  0  0  0  0  0  0  # atno 10718 bound_to 10713
  153.8059  135.6886  153.4848 H   0  0  0  0  0  0  0  0  0  0  0  0  # atno 10763 bound_to 10752
  153.1659  135.4561  154.9834 H   0  0  0  0  0  0  0  0  0  0  0  0  # atno 10764 bound_to 10752
  154.7987  135.3329  154.7544 H   0  0  0  0  0  0  0  0  0  0  0  0  # atno 10765 bound_to 10752
  140.6134  134.4826  157.5217 H   0  0  0  0  0  0  0  0  0  0  0  0  # atno 11005 bound_to 11000
  146.1158  140.7372  142.9481 LP  0  0  0  0  0  0  0  0  0  0  0  0  # atno 17320 bound_to 7965
  144.7103  140.4012  143.7086 LP  0  0  0  0  0  0  0  0  0  0  0  0  # atno 17321 bound_to 7965
  139.5155  144.6963  151.5620 LP  0  0  0  0  0  0  0  0  0  0  0  0  # atno 17342 bound_to 10162
  140.6276  143.9139  150.6577 LP  0  0  0  0  0  0  0  0  0  0  0  0  # atno 17343 bound_to 10162
  156.6717  130.4541  149.5655 LP  0  0  0  0  0  0  0  0  0  0  0  0  # atno 17370 bound_to 10713
  156.1993  130.6609  151.1149 LP  0  0  0  0  0  0  0  0  0  0  0  0  # atno 17371 bound_to 10713
  139.9183  134.8201  156.1294 LP  0  0  0  0  0  0  0  0  0  0  0  0  # atno 17394 bound_to 11000
  141.0792  133.6761  156.2301 LP  0  0  0  0  0  0  0  0  0  0  0  0  # atno 17395 bound_to 11000

$$$$
