AV-unprocessed.smi:2775|AV-procd|sdf|10693|dock8
  -GOLD-   2272015133D 1   1.00000     0.00000
 Structure written by MMmdl.
 42 45  0  0  0  0  0  0  0  0  1 V2000
  146.9385  129.8739  153.1049 C   0  0  0  0  0  0  0  0  0  0  0  0
  148.0116  130.7165  153.7683 C   0  0  0  0  0  0  0  0  0  0  0  0
  148.9313  130.0351  154.4855 N   0  0  0  0  0  0  0  0  0  0  0  0
  149.9113  130.7371  155.0904 C   0  0  0  0  0  0  0  0  0  0  0  0
  150.0203  132.1388  155.0167 C   0  0  0  0  0  0  0  0  0  0  0  0
  149.0502  132.8573  154.2775 C   0  0  0  0  0  0  0  0  0  0  0  0
  149.0592  134.2700  154.1169 N   0  0  0  0  0  0  0  0  0  0  0  0
  149.5189  135.2320  154.9401 C   0  0  0  0  0  0  0  0  0  0  0  0
  150.0341  135.0363  156.0384 O   0  0  0  0  0  0  0  0  0  0  0  0
  149.3562  136.4770  154.4589 N   0  0  0  0  0  0  0  0  0  0  0  0
  149.7448  137.7337  155.1018 C   0  0  1  0  0  0  0  0  0  0  0  0
  150.9784  138.3758  154.4401 C   0  0  2  0  0  0  0  0  0  0  0  0
  152.2511  138.5340  155.2272 C   0  0  0  0  0  0  0  0  0  0  0  0
  152.1717  139.9821  155.7192 C   0  0  0  0  0  0  0  0  0  0  0  0
  150.7835  140.3035  155.6736 O   0  0  0  0  0  0  0  0  0  0  0  0
  150.2439  139.7108  154.4963 C   0  0  2  0  0  0  0  0  0  0  0  0
  148.9162  138.9653  154.6779 C   0  0  0  0  0  0  0  0  0  0  0  0
  147.8901  138.9301  153.5291 C   0  0  0  0  0  0  0  0  0  0  0  0
  146.7748  138.9961  154.5760 C   0  0  0  0  0  0  0  0  0  0  0  0
  147.8057  139.5294  155.5753 C   0  0  0  0  0  0  0  0  0  0  0  0
  148.0283  132.1240  153.6296 C   0  0  0  0  0  0  0  0  0  0  0  0
  146.8192  132.9336  152.6887 Cl  0  0  0  0  0  0  0  0  0  0  0  0
  145.9515  130.1669  153.4630 H   0  0  0  0  0  0  0  0  0  0  0  0
  147.0724  128.8122  153.3167 H   0  0  0  0  0  0  0  0  0  0  0  0
  146.9675  130.0081  152.0234 H   0  0  0  0  0  0  0  0  0  0  0  0
  150.6365  130.1624  155.6475 H   0  0  0  0  0  0  0  0  0  0  0  0
  150.8449  132.6225  155.5158 H   0  0  0  0  0  0  0  0  0  0  0  0
  148.6111  134.6014  153.2750 H   0  0  0  0  0  0  0  0  0  0  0  0
  148.9185  136.5602  153.5525 H   0  0  0  0  0  0  0  0  0  0  0  0
  149.8642  137.6725  156.1858 H   0  0  0  0  0  0  0  0  0  0  0  0
  151.1193  138.0460  153.4089 H   0  0  0  0  0  0  0  0  0  0  0  0
  152.2783  137.8400  156.0678 H   0  0  0  0  0  0  0  0  0  0  0  0
  153.1425  138.3635  154.6232 H   0  0  0  0  0  0  0  0  0  0  0  0
  152.5804  140.1095  156.7217 H   0  0  0  0  0  0  0  0  0  0  0  0
  152.7116  140.6462  155.0426 H   0  0  0  0  0  0  0  0  0  0  0  0
  150.3458  140.3192  153.5965 H   0  0  0  0  0  0  0  0  0  0  0  0
  147.9261  139.8271  152.9091 H   0  0  0  0  0  0  0  0  0  0  0  0
  147.8851  138.0292  152.9159 H   0  0  0  0  0  0  0  0  0  0  0  0
  145.9695  139.6919  154.3389 H   0  0  0  0  0  0  0  0  0  0  0  0
  146.3895  138.0128  154.8473 H   0  0  0  0  0  0  0  0  0  0  0  0
  147.7477  139.0823  156.5680 H   0  0  0  0  0  0  0  0  0  0  0  0
  147.8191  140.6192  155.6247 H   0  0  0  0  0  0  0  0  0  0  0  0
  1  2  1  0  0  0  0
  1 23  1  0  0  0  0
  1 24  1  0  0  0  0
  1 25  1  0  0  0  0
  2 21  1  0  0  0  0
  2  3  2  0  0  0  0
  3  4  1  0  0  0  0
  4  5  2  0  0  0  0
  4 26  1  0  0  0  0
  5  6  1  0  0  0  0
  5 27  1  0  0  0  0
  6  7  1  0  0  0  0
  6 21  2  0  0  0  0
  7  8  1  0  0  0  0
  7 28  1  0  0  0  0
  8  9  2  0  0  0  0
  8 10  1  0  0  0  0
 10 11  1  0  0  0  0
 10 29  1  0  0  0  0
 11 17  1  0  0  0  0
 11 12  1  0  0  0  0
 11 30  1  0  0  0  0
 12 16  1  0  0  0  0
 12 13  1  0  0  0  0
 12 31  1  0  0  0  0
 13 14  1  0  0  0  0
 13 32  1  0  0  0  0
 13 33  1  0  0  0  0
 14 15  1  0  0  0  0
 14 34  1  0  0  0  0
 14 35  1  0  0  0  0
 15 16  1  0  0  0  0
 16 17  1  0  0  0  0
 16 36  1  0  0  0  0
 17 20  1  0  0  0  0
 17 18  1  0  0  0  0
 18 19  1  0  0  0  0
 18 37  1  0  0  0  0
 18 38  1  0  0  0  0
 19 20  1  0  0  0  0
 19 39  1  0  0  0  0
 19 40  1  0  0  0  0
 20 41  1  0  0  0  0
 20 42  1  0  0  0  0
 21 22  1  0  0  0  0
M  END
> <s_m_source_file>
AV-unprocessed.smi

> <i_m_source_file_index>
2775

> <i_lp_mmshare_version>
43012

> <i_f3d_flags>
0

> <s_epik_input>
W0NIM11jMW5bY0hdW2NIXWMoYzFDbClbTkhdQyg9TylbTkhdW0NAQEhdMltDQEhdKFtDSDJdW0NIMl1PMylbQ0BASF0zQzI0W0NIMl1bQ0gyXVtDSDJdNA==

> <s_epik_cmdline>
J2VwaWtfcHl0aG9uJywgJy1waCcsICc3LjAnLCAnLXRuJywgJzgnLCAnLW1hJywgJzIwMCcsICctbWV0YWxfYmluZGluZycsICctaW1hZScsICc8aW5maWxlLm1hZT4nLCAnLW9tYWUnLCAnPG91dGZpbGUubWFlPic=

> <r_epik_Ionization_Penalty>
0.01026

> <r_epik_Ionization_Penalty_Charging>
0

> <r_epik_Ionization_Penalty_Neutral>
0.01026

> <r_epik_State_Penalty>
0.00780685

> <r_epik_Charging_Adjusted_Penalty>
0.00780685

> <i_epik_Tot_Q>
0

> <i_epik_Tot_abs_Q>
0

> <r_epik_Metal_State_Penalty>
0.00767411

> <b_epik_Metal_Only>
0

> <s_lp_Force_Field>
OPLS_2005

> <r_lp_Energy>
55.7344

> <b_lp_Chiralities_Consistent>
1

> <s_lp_Variant>
AV-unprocessed.smi:2775-6

> <Gold.Version>
5.8.1

> <Gold.Id.Protein>
6NUR|6NUR_protein|mol2

> <Gold.PLP.Fitness>
38.6750

> <Gold.PLP.PLP>
-34.2230

> <Gold.PLP.part.hbond>
-2.0000

> <Gold.PLP.part.metal>
0.0000

> <Gold.PLP.part.buried>
-0.9133

> <Gold.PLP.part.nonpolar>
-30.9367

> <Gold.PLP.part.repulsive>
0.1507

> <Gold.PLP.ligand.clash>
0.0000

> <Gold.PLP.ligand.torsion>
0.4354

> <Gold.PLP.Chemscore.Hbond>
1.7096

> <Gold.PLP.Chemscore.CHOScore>
0.0000

> <Gold.PLP.Chemscore.Metal>
0.0000

> <Gold.Chemscore.Hbonds>
donor molecule, donor type, donor heavy atom, donor atom, acceptor molecule, acceptor atom, score
      L1  H     7    28       P1  7948  0.50
      L1  H    10    29       P1  7948  0.96

> <Gold.PLP.Chemscore.Internal.Correction>
0.1940

> <Gold.Rescore>
     Score         DG    S(hbond)    S(metal)    S(lipo)     H(rot)  DE(clash)    DE(int)     intcor
     16.07     -16.67       1.08        0.00      86.78       1.00       0.11       0.49       ----

> <Gold.Chemscore.Fitness>
16.0652

> <Gold.Chemscore.DG>
-16.6697

> <Gold.Chemscore.ZeroCoef>
-5.4800

> <Gold.Chemscore.Hbond>
1.0767

> <Gold.Chemscore.Metal>
0.0000

> <Gold.Chemscore.Lipo>
86.7837

> <Gold.Chemscore.Internal_Hbond>
0.0000

> <Gold.Chemscore.DEClash>
0.1096

> <Gold.Chemscore.DEInternal>
0.4950

> <Gold.Chemscore.Rot>
1.0000

> <Gold.Chemscore.Internal.Correction>
   9.000000E+99

> <Gold.Chemscore.Hbonds>
donor molecule, donor type, donor heavy atom, donor atom, acceptor molecule, acceptor atom, score
      L1  H     7    28       P1  7948  0.18
      L1  H    10    29       P1  7948  0.92

> <Gold.Chemscore.Hbond.Weighted>
-3.5961

> <Gold.Chemscore.Metal.Weighted>
-0.0000

> <Gold.Chemscore.Lipo.Weighted>
-10.1537

> <Gold.Chemscore.Internal_Hbond.Weighted>
0.0000

> <Gold.Chemscore.DEClash.Weighted>
0.1096

> <Gold.Chemscore.DEInternal.Weighted>
0.4950

> <Gold.Chemscore.Rot.Weighted>
2.5600

> <Gold.Chemscore.Internal.Correction.Weighted>
   9.000000E+99

> <Gold.Protein.RotatedTorsions>
[ 6907 6896 6895 6894 ] final  117.07 input  -60.11 | X-H torsion
[ 7974 7965 7964 7962 ] final  129.39 input  175.53 | X-H torsion
[ 8008 7997 7996 7995 ] final  119.82 input   59.86 | X-H torsion
[ 10167 10162 10161 10158 ] final   64.75 input  -65.29 | X-H torsion
[ 10718 10713 10712 10709 ] final  158.03 input   66.30 | X-H torsion
[ 10763 10752 10751 10750 ] final -131.97 input  -60.55 | X-H torsion
[ 11005 11000 10999 10996 ] final  -20.84 input  -57.11 | X-H torsion

> <Gold.Protein.ActiveResidues>
 VAL166  LYS551  ARG553  GLY616  TRP617  ASP618  TYR619  PRO620  LYS621  CYS622 
 ASP623  PHE694  ASN695  SER759  ASP760  ASP761  ALA762  ILE779  LEU786  VAL792 
 PHE793  MET794  SER795  GLU796  ALA797  LYS798  CYS799  TRP800  GLU811  SER814 

> <Gold.Protein.RotatedAtoms>
  152.4636  133.7875  159.6883 H   0  0  0  0  0  0  0  0  0  0  0  0  # atno 6907 bound_to 6896
  150.8591  133.7661  159.3005 H   0  0  0  0  0  0  0  0  0  0  0  0  # atno 6908 bound_to 6896
  151.5232  135.1070  159.9935 H   0  0  0  0  0  0  0  0  0  0  0  0  # atno 6909 bound_to 6896
  145.0292  139.4062  143.5158 H   0  0  0  0  0  0  0  0  0  0  0  0  # atno 7974 bound_to 7965
  156.2614  140.2844  156.1051 H   0  0  0  0  0  0  0  0  0  0  0  0  # atno 8008 bound_to 7997
  155.1317  140.0394  157.2794 H   0  0  0  0  0  0  0  0  0  0  0  0  # atno 8009 bound_to 7997
  154.6594  140.2563  155.7131 H   0  0  0  0  0  0  0  0  0  0  0  0  # atno 8010 bound_to 7997
  140.1188  144.4750  150.6933 H   0  0  0  0  0  0  0  0  0  0  0  0  # atno 10167 bound_to 10162
  157.1835  131.0638  151.2119 H   0  0  0  0  0  0  0  0  0  0  0  0  # atno 10718 bound_to 10713
  154.8747  135.3813  154.4333 H   0  0  0  0  0  0  0  0  0  0  0  0  # atno 10763 bound_to 10752
  153.5025  135.7030  153.5829 H   0  0  0  0  0  0  0  0  0  0  0  0  # atno 10764 bound_to 10752
  153.4155  135.3914  155.2044 H   0  0  0  0  0  0  0  0  0  0  0  0  # atno 10765 bound_to 10752
  140.8504  133.7861  155.9959 H   0  0  0  0  0  0  0  0  0  0  0  0  # atno 11005 bound_to 11000
  146.3496  139.9832  142.8693 LP  0  0  0  0  0  0  0  0  0  0  0  0  # atno 17320 bound_to 7965
  145.1793  140.9759  143.4275 LP  0  0  0  0  0  0  0  0  0  0  0  0  # atno 17321 bound_to 7965
  140.6884  143.2362  151.5198 LP  0  0  0  0  0  0  0  0  0  0  0  0  # atno 17342 bound_to 10162
  139.5580  144.2228  152.1644 LP  0  0  0  0  0  0  0  0  0  0  0  0  # atno 17343 bound_to 10162
  157.3930  130.7292  149.6711 LP  0  0  0  0  0  0  0  0  0  0  0  0  # atno 17370 bound_to 10713
  155.9721  130.4141  150.4117 LP  0  0  0  0  0  0  0  0  0  0  0  0  # atno 17371 bound_to 10713
  140.8797  134.2627  157.5150 LP  0  0  0  0  0  0  0  0  0  0  0  0  # atno 17394 bound_to 11000
  139.8704  134.9609  156.4378 LP  0  0  0  0  0  0  0  0  0  0  0  0  # atno 17395 bound_to 11000

$$$$
