AV-unprocessed.smi:261|AV-procd|sdf|1990|dock2
  -GOLD-   2262021173D 1   1.00000     0.00000
 Structure written by MMmdl.
 51 54  0  0  0  0  0  0  0  0  1 V2000
  153.4229  130.5081  159.9313 C   0  0  0  0  0  0  0  0  0  0  0  0
  154.0377  130.4127  161.2060 O   0  0  0  0  0  0  0  0  0  0  0  0
  155.2217  131.1904  161.3373 C   0  0  2  0  0  0  0  0  0  0  0  0
  155.7448  131.2117  162.7800 C   0  0  0  0  0  0  0  0  0  0  0  0
  154.9227  132.3027  163.4853 C   0  0  2  0  0  0  0  0  0  0  0  0
  153.6646  131.7173  164.1621 C   0  0  0  0  0  0  0  0  0  0  0  0
  152.8200  132.5471  164.7839 N   0  0  0  0  0  0  0  0  0  0  0  0
  153.4656  130.5051  164.1296 O   0  0  0  0  0  0  0  0  0  0  0  0
  154.6402  133.2479  162.4039 N   0  0  0  0  0  0  0  0  0  0  0  0
  154.3225  134.5624  162.5698 C   0  0  0  0  0  0  0  0  0  0  0  0
  154.2300  135.0353  163.8413 N   0  0  0  0  0  0  0  0  0  0  0  0
  153.9257  136.3140  164.0766 C   0  0  0  0  0  0  0  0  0  0  0  0
  153.6782  137.2858  163.1991 N   0  0  0  0  0  0  0  0  0  0  0  0
  153.7684  136.8266  161.9192 C   0  0  0  0  0  0  0  0  0  0  0  0
  154.0820  135.4956  161.5146 C   0  0  0  0  0  0  0  0  0  0  0  0
  154.0796  135.4277  160.1247 N   0  0  0  0  0  0  0  0  0  0  0  0
  153.7825  136.6358  159.7347 C   0  0  0  0  0  0  0  0  0  0  0  0
  153.5719  137.5386  160.7497 N   0  0  0  0  0  0  0  0  0  0  0  0
  153.2178  138.9392  160.6092 C   0  0  0  0  0  0  0  0  0  0  0  0
  154.4176  139.8326  160.2284 C   0  0  1  0  0  0  0  0  0  0  0  0
  154.8020  139.4802  158.9145 O   0  0  0  0  0  0  0  0  0  0  0  0
  154.1278  141.3494  160.2815 C   0  0  2  0  0  0  0  0  0  0  0  0
  153.5196  141.8340  161.5996 C   0  0  0  0  0  0  0  0  0  0  0  0
  152.7868  143.1092  161.2138 C   0  0  0  0  0  0  0  0  0  0  0  0
  152.6742  143.0246  159.6903 C   0  0  0  0  0  0  0  0  0  0  0  0
  153.1078  141.7131  159.3629 O   0  0  0  0  0  0  0  0  0  0  0  0
  154.8579  132.6571  161.0865 C   0  0  0  0  0  0  0  0  0  0  0  0
  155.9770  130.8513  160.6262 H   0  0  0  0  0  0  0  0  0  0  0  0
  155.5490  132.7628  164.2495 H   0  0  0  0  0  0  0  0  0  0  0  0
  152.5178  129.9011  159.9201 H   0  0  0  0  0  0  0  0  0  0  0  0
  154.0745  130.1461  159.1364 H   0  0  0  0  0  0  0  0  0  0  0  0
  153.1375  131.5369  159.7083 H   0  0  0  0  0  0  0  0  0  0  0  0
  155.7044  130.2420  163.2764 H   0  0  0  0  0  0  0  0  0  0  0  0
  156.7934  131.5121  162.7708 H   0  0  0  0  0  0  0  0  0  0  0  0
  151.9989  132.1775  165.2406 H   0  0  0  0  0  0  0  0  0  0  0  0
  153.0129  133.5378  164.8035 H   0  0  0  0  0  0  0  0  0  0  0  0
  153.8731  136.5986  165.1171 H   0  0  0  0  0  0  0  0  0  0  0  0
  153.6990  136.8990  158.6903 H   0  0  0  0  0  0  0  0  0  0  0  0
  152.4353  139.0156  159.8531 H   0  0  0  0  0  0  0  0  0  0  0  0
  152.7780  139.2780  161.5484 H   0  0  0  0  0  0  0  0  0  0  0  0
  155.2594  139.6071  160.8845 H   0  0  0  0  0  0  0  0  0  0  0  0
  154.4729  138.6145  158.7270 H   0  0  0  0  0  0  0  0  0  0  0  0
  155.0320  141.9193  160.0580 H   0  0  0  0  0  0  0  0  0  0  0  0
  152.8027  141.1015  161.9735 H   0  0  0  0  0  0  0  0  0  0  0  0
  154.2685  141.9959  162.3751 H   0  0  0  0  0  0  0  0  0  0  0  0
  151.8079  143.1567  161.6916 H   0  0  0  0  0  0  0  0  0  0  0  0
  153.3486  143.9964  161.5073 H   0  0  0  0  0  0  0  0  0  0  0  0
  151.6595  143.2009  159.3334 H   0  0  0  0  0  0  0  0  0  0  0  0
  153.3344  143.7507  159.2144 H   0  0  0  0  0  0  0  0  0  0  0  0
  155.6911  133.1705  160.6042 H   0  0  0  0  0  0  0  0  0  0  0  0
  153.9821  132.7545  160.4431 H   0  0  0  0  0  0  0  0  0  0  0  0
  1  2  1  0  0  0  0
  1 30  1  0  0  0  0
  1 31  1  0  0  0  0
  1 32  1  0  0  0  0
  2  3  1  0  0  0  0
  3 28  1  0  0  0  0
  3 27  1  0  0  0  0
  3  4  1  0  0  0  0
  4  5  1  0  0  0  0
  4 33  1  0  0  0  0
  4 34  1  0  0  0  0
  5 29  1  0  0  0  0
  5  6  1  0  0  0  0
  5  9  1  0  0  0  0
  6  7  1  0  0  0  0
  6  8  2  0  0  0  0
  7 35  1  0  0  0  0
  7 36  1  0  0  0  0
  9 10  1  0  0  0  0
  9 27  1  0  0  0  0
 10 15  1  0  0  0  0
 10 11  2  0  0  0  0
 11 12  1  0  0  0  0
 12 13  2  0  0  0  0
 12 37  1  0  0  0  0
 13 14  1  0  0  0  0
 14 18  1  0  0  0  0
 14 15  2  0  0  0  0
 15 16  1  0  0  0  0
 16 17  2  0  0  0  0
 17 18  1  0  0  0  0
 17 38  1  0  0  0  0
 18 19  1  0  0  0  0
 19 20  1  0  0  0  0
 19 39  1  0  0  0  0
 19 40  1  0  0  0  0
 20 21  1  0  0  0  0
 20 22  1  0  0  0  0
 20 41  1  0  0  0  0
 21 42  1  0  0  0  0
 22 26  1  0  0  0  0
 22 23  1  0  0  0  0
 22 43  1  0  0  0  0
 23 24  1  0  0  0  0
 23 44  1  0  0  0  0
 23 45  1  0  0  0  0
 24 25  1  0  0  0  0
 24 46  1  0  0  0  0
 24 47  1  0  0  0  0
 25 26  1  0  0  0  0
 25 48  1  0  0  0  0
 25 49  1  0  0  0  0
 27 50  1  0  0  0  0
 27 51  1  0  0  0  0
M  END
> <s_m_source_file>
AV-unprocessed.smi

> <i_m_source_file_index>
261

> <i_lp_mmshare_version>
43012

> <i_f3d_flags>
0

> <s_epik_input>
W0NIM11PW0NASF0xW0NIMl1bQ0BASF0oQyg9TylbTkgyXSlOKFtDSDJdMSljKG5bY0hdbjIpYyhjMjMpbltjSF1uM1tDSDJdW0NASF0oW09IXSlbQ0BASF00W0NIMl1bQ0gyXVtDSDJdTzQ=

> <s_epik_cmdline>
J2VwaWtfcHl0aG9uJywgJy1waCcsICc3LjAnLCAnLXRuJywgJzgnLCAnLW1hJywgJzIwMCcsICctbWV0YWxfYmluZGluZycsICctaW1hZScsICc8aW5maWxlLm1hZT4nLCAnLW9tYWUnLCAnPG91dGZpbGUubWFlPic=

> <r_lp_tautomer_probability>
1

> <r_epik_Ionization_Penalty>
0.000713824

> <r_epik_Ionization_Penalty_Charging>
0

> <r_epik_Ionization_Penalty_Neutral>
0.000713824

> <r_epik_State_Penalty>
0.000402132

> <r_epik_Charging_Adjusted_Penalty>
0.000402132

> <i_epik_Tot_Q>
0

> <i_epik_Tot_abs_Q>
0

> <r_epik_Metal_State_Penalty>
-0

> <b_epik_Metal_Only>
0

> <s_lp_Force_Field>
OPLS_2005

> <r_lp_Energy>
44.1373

> <b_lp_Chiralities_Consistent>
1

> <s_lp_Variant>
AV-unprocessed.smi:261-8

> <Gold.Version>
5.8.1

> <Gold.Id.Protein>
6NUR|6NUR_protein|mol2

> <Gold.PLP.Fitness>
44.2077

> <Gold.PLP.PLP>
-38.7561

> <Gold.PLP.part.hbond>
-2.0000

> <Gold.PLP.part.metal>
0.0000

> <Gold.PLP.part.buried>
-5.5749

> <Gold.PLP.part.nonpolar>
-31.9831

> <Gold.PLP.part.repulsive>
0.1073

> <Gold.PLP.ligand.clash>
0.0000

> <Gold.PLP.ligand.torsion>
0.3363

> <Gold.PLP.Chemscore.Hbond>
1.9913

> <Gold.PLP.Chemscore.CHOScore>
0.0000

> <Gold.PLP.Chemscore.Metal>
0.0000

> <Gold.Chemscore.Hbonds>
donor molecule, donor type, donor heavy atom, donor atom, acceptor molecule, acceptor atom, score
      P1  H  6896  6908       L1    16  0.85
      P1  H  7997  8008       L1    21  1.00

> <Gold.PLP.Chemscore.Internal.Correction>
0.1504

> <Gold.Rescore>
     Score         DG    S(hbond)    S(metal)    S(lipo)     H(rot)  DE(clash)    DE(int)     intcor
      8.37     -10.85       1.30        0.00      78.31       3.18       0.18       2.30       ----

> <Gold.Chemscore.Fitness>
8.3715

> <Gold.Chemscore.DG>
-10.8525

> <Gold.Chemscore.ZeroCoef>
-5.4800

> <Gold.Chemscore.Hbond>
1.3049

> <Gold.Chemscore.Metal>
0.0000

> <Gold.Chemscore.Lipo>
78.3148

> <Gold.Chemscore.Internal_Hbond>
0.0000

> <Gold.Chemscore.DEClash>
0.1842

> <Gold.Chemscore.DEInternal>
2.2968

> <Gold.Chemscore.Rot>
3.1831

> <Gold.Chemscore.Internal.Correction>
   9.000000E+99

> <Gold.Chemscore.Hbonds>
donor molecule, donor type, donor heavy atom, donor atom, acceptor molecule, acceptor atom, score
      P1  H  6896  6908       L1    16  0.08
      P1  H  7997  8008       L1    21  0.30

> <Gold.Chemscore.Hbond.Weighted>
-4.3583

> <Gold.Chemscore.Metal.Weighted>
-0.0000

> <Gold.Chemscore.Lipo.Weighted>
-9.1628

> <Gold.Chemscore.Internal_Hbond.Weighted>
0.0000

> <Gold.Chemscore.DEClash.Weighted>
0.1842

> <Gold.Chemscore.DEInternal.Weighted>
2.2968

> <Gold.Chemscore.Rot.Weighted>
8.1486

> <Gold.Chemscore.Internal.Correction.Weighted>
   9.000000E+99

> <Gold.Protein.RotatedTorsions>
[ 6907 6896 6895 6894 ] final  -44.66 input  -60.11 | X-H torsion
[ 7974 7965 7964 7962 ] final   54.37 input  175.53 | X-H torsion
[ 8008 7997 7996 7995 ] final -124.21 input   59.86 | X-H torsion
[ 10167 10162 10161 10158 ] final  135.93 input  -65.29 | X-H torsion
[ 10718 10713 10712 10709 ] final  -57.38 input   66.30 | X-H torsion
[ 10763 10752 10751 10750 ] final -175.06 input  -60.55 | X-H torsion
[ 11005 11000 10999 10996 ] final  119.05 input  -57.11 | X-H torsion

> <Gold.Protein.ActiveResidues>
 VAL166  LYS551  ARG553  GLY616  TRP617  ASP618  TYR619  PRO620  LYS621  CYS622 
 ASP623  PHE694  ASN695  SER759  ASP760  ASP761  ALA762  ILE779  LEU786  VAL792 
 PHE793  MET794  SER795  GLU796  ALA797  LYS798  CYS799  TRP800  GLU811  SER814 

> <Gold.Protein.RotatedAtoms>
  150.9304  134.8719  159.7546 H   0  0  0  0  0  0  0  0  0  0  0  0  # atno 6907 bound_to 6896
  152.5035  134.4088  159.9451 H   0  0  0  0  0  0  0  0  0  0  0  0  # atno 6908 bound_to 6896
  151.4115  133.3686  159.2779 H   0  0  0  0  0  0  0  0  0  0  0  0  # atno 6909 bound_to 6896
  145.9616  139.4064  143.0245 H   0  0  0  0  0  0  0  0  0  0  0  0  # atno 7974 bound_to 7965
  155.1931  140.0414  157.2904 H   0  0  0  0  0  0  0  0  0  0  0  0  # atno 8008 bound_to 7997
  154.6125  140.2480  155.7623 H   0  0  0  0  0  0  0  0  0  0  0  0  # atno 8009 bound_to 7997
  156.2387  140.2912  156.0394 H   0  0  0  0  0  0  0  0  0  0  0  0  # atno 8010 bound_to 7997
  139.5199  144.6491  151.5353 H   0  0  0  0  0  0  0  0  0  0  0  0  # atno 10167 bound_to 10162
  156.1215  130.4166  150.0433 H   0  0  0  0  0  0  0  0  0  0  0  0  # atno 10718 bound_to 10713
  154.5889  135.2843  155.0656 H   0  0  0  0  0  0  0  0  0  0  0  0  # atno 10763 bound_to 10752
  154.1964  135.6432  153.5078 H   0  0  0  0  0  0  0  0  0  0  0  0  # atno 10764 bound_to 10752
  153.0114  135.5458  154.6568 H   0  0  0  0  0  0  0  0  0  0  0  0  # atno 10765 bound_to 10752
  139.9132  134.9625  156.7597 H   0  0  0  0  0  0  0  0  0  0  0  0  # atno 11005 bound_to 11000
  145.8032  140.9761  143.0988 LP  0  0  0  0  0  0  0  0  0  0  0  0  # atno 17320 bound_to 7965
  144.6816  139.9828  143.7483 LP  0  0  0  0  0  0  0  0  0  0  0  0  # atno 17321 bound_to 7965
  140.6289  143.9115  150.6588 LP  0  0  0  0  0  0  0  0  0  0  0  0  # atno 17342 bound_to 10162
  140.2413  143.3662  152.1484 LP  0  0  0  0  0  0  0  0  0  0  0  0  # atno 17343 bound_to 10162
  156.8370  130.9412  151.3634 LP  0  0  0  0  0  0  0  0  0  0  0  0  # atno 17370 bound_to 10713
  157.6398  130.8796  149.9427 LP  0  0  0  0  0  0  0  0  0  0  0  0  # atno 17371 bound_to 10713
  140.6707  133.9562  155.7855 LP  0  0  0  0  0  0  0  0  0  0  0  0  # atno 17394 bound_to 11000
  141.0579  134.0389  157.3698 LP  0  0  0  0  0  0  0  0  0  0  0  0  # atno 17395 bound_to 11000

$$$$
