AV-unprocessed.smi:3113|AV-procd|sdf|11854|dock2
  -GOLD-   2272017233D 1   1.00000     0.00000
 Structure written by MMmdl.
 34 35  0  0  0  0  0  0  0  0  1 V2000
  150.9868  137.7434  154.6011 C   0  0  0  0  0  0  0  0  0  0  0  0
  151.8123  138.8371  154.9847 C   0  0  0  0  0  0  0  0  0  0  0  0
  151.1765  139.9968  154.9393 N   0  0  0  0  0  0  0  0  0  0  0  0
  149.9295  139.6831  154.5257 N   0  0  0  0  0  0  0  0  0  0  0  0
  148.9422  140.7312  154.3552 C   0  0  0  0  0  0  0  0  0  0  0  0
  148.6022  141.4065  155.6911 C   0  0  0  0  0  0  0  0  0  0  0  0
  149.7037  142.2447  156.1510 N   0  0  0  0  0  0  0  0  0  0  0  0
  150.2624  141.8112  157.4274 C   0  0  0  0  0  0  0  0  0  0  0  0
  151.2274  142.8616  157.9956 C   0  0  2  0  0  0  0  0  0  0  0  0
  151.9067  142.3677  159.2875 C   0  0  0  0  0  0  0  0  0  0  0  0
  152.7942  143.4659  159.8845 C   0  0  0  0  0  0  0  0  0  0  0  0
  151.9784  144.7511  160.0595 C   0  0  0  0  0  0  0  0  0  0  0  0
  151.2821  145.1252  158.7414 C   0  0  0  0  0  0  0  0  0  0  0  0
  150.4777  144.0387  158.2924 O   0  0  0  0  0  0  0  0  0  0  0  0
  149.7861  138.3280  154.3152 C   0  0  0  0  0  0  0  0  0  0  0  0
  151.2376  136.6945  154.5449 H   0  0  0  0  0  0  0  0  0  0  0  0
  152.8475  138.8228  155.2922 H   0  0  0  0  0  0  0  0  0  0  0  0
  149.3331  141.4633  153.6474 H   0  0  0  0  0  0  0  0  0  0  0  0
  148.0481  140.2983  153.9035 H   0  0  0  0  0  0  0  0  0  0  0  0
  147.7007  142.0097  155.5750 H   0  0  0  0  0  0  0  0  0  0  0  0
  148.3766  140.6456  156.4393 H   0  0  0  0  0  0  0  0  0  0  0  0
  149.3919  143.2077  156.2286 H   0  0  0  0  0  0  0  0  0  0  0  0
  149.4675  141.6113  158.1471 H   0  0  0  0  0  0  0  0  0  0  0  0
  150.7957  140.8708  157.2829 H   0  0  0  0  0  0  0  0  0  0  0  0
  151.9937  143.0896  157.2518 H   0  0  0  0  0  0  0  0  0  0  0  0
  151.1476  142.0764  160.0149 H   0  0  0  0  0  0  0  0  0  0  0  0
  152.5037  141.4778  159.0851 H   0  0  0  0  0  0  0  0  0  0  0  0
  153.2088  143.1437  160.8399 H   0  0  0  0  0  0  0  0  0  0  0  0
  153.6401  143.6544  159.2221 H   0  0  0  0  0  0  0  0  0  0  0  0
  151.2287  144.6060  160.8382 H   0  0  0  0  0  0  0  0  0  0  0  0
  152.6228  145.5652  160.3919 H   0  0  0  0  0  0  0  0  0  0  0  0
  150.6450  145.9973  158.8888 H   0  0  0  0  0  0  0  0  0  0  0  0
  152.0129  145.3908  157.9761 H   0  0  0  0  0  0  0  0  0  0  0  0
  148.8531  137.8977  153.9819 H   0  0  0  0  0  0  0  0  0  0  0  0
  1 15  2  0  0  0  0
  1  2  1  0  0  0  0
  1 16  1  0  0  0  0
  2  3  2  0  0  0  0
  2 17  1  0  0  0  0
  3  4  1  0  0  0  0
  4  5  1  0  0  0  0
  4 15  1  0  0  0  0
  5  6  1  0  0  0  0
  5 18  1  0  0  0  0
  5 19  1  0  0  0  0
  6  7  1  0  0  0  0
  6 20  1  0  0  0  0
  6 21  1  0  0  0  0
  7  8  1  0  0  0  0
  7 22  1  0  0  0  0
  8  9  1  0  0  0  0
  8 23  1  0  0  0  0
  8 24  1  0  0  0  0
  9 14  1  0  0  0  0
  9 10  1  0  0  0  0
  9 25  1  0  0  0  0
 10 11  1  0  0  0  0
 10 26  1  0  0  0  0
 10 27  1  0  0  0  0
 11 12  1  0  0  0  0
 11 28  1  0  0  0  0
 11 29  1  0  0  0  0
 12 13  1  0  0  0  0
 12 30  1  0  0  0  0
 12 31  1  0  0  0  0
 13 14  1  0  0  0  0
 13 32  1  0  0  0  0
 13 33  1  0  0  0  0
 15 34  1  0  0  0  0
M  END
> <s_m_source_file>
AV-unprocessed.smi

> <i_m_source_file_index>
3113

> <i_lp_mmshare_version>
43012

> <i_f3d_flags>
0

> <s_epik_input>
W2NIXTFbY0hdW2NIXW5uMVtDSDJdW0NIMl1bTkhdW0NIMl1bQ0BASF0yW0NIMl1bQ0gyXVtDSDJdW0NIMl1PMg==

> <s_epik_cmdline>
J2VwaWtfcHl0aG9uJywgJy1waCcsICc3LjAnLCAnLXRuJywgJzgnLCAnLW1hJywgJzIwMCcsICctbWV0YWxfYmluZGluZycsICctaW1hZScsICc8aW5maWxlLm1hZT4nLCAnLW9tYWUnLCAnPG91dGZpbGUubWFlPic=

> <r_lp_tautomer_probability>
1

> <r_epik_Ionization_Penalty>
2.521

> <r_epik_Ionization_Penalty_Charging>
0

> <r_epik_Ionization_Penalty_Neutral>
2.521

> <r_epik_State_Penalty>
2.68614

> <r_epik_Charging_Adjusted_Penalty>
2.68614

> <i_epik_Tot_Q>
0

> <i_epik_Tot_abs_Q>
0

> <r_epik_Metal_State_Penalty>
2.68493

> <b_epik_Metal_Only>
0

> <s_lp_Force_Field>
OPLS_2005

> <r_lp_Energy>
11.6104

> <b_lp_Chiralities_Consistent>
1

> <s_lp_Variant>
AV-unprocessed.smi:3113-3

> <Gold.Version>
5.8.1

> <Gold.Id.Protein>
6NUR|6NUR_protein|mol2

> <Gold.PLP.Fitness>
44.3097

> <Gold.PLP.PLP>
-37.7217

> <Gold.PLP.part.hbond>
-1.9527

> <Gold.PLP.part.metal>
0.0000

> <Gold.PLP.part.buried>
-2.9525

> <Gold.PLP.part.nonpolar>
-33.2737

> <Gold.PLP.part.repulsive>
0.2517

> <Gold.PLP.ligand.clash>
0.0000

> <Gold.PLP.ligand.torsion>
0.4706

> <Gold.PLP.Chemscore.Hbond>
1.7500

> <Gold.PLP.Chemscore.CHOScore>
0.7515

> <Gold.PLP.Chemscore.Metal>
0.0000

> <Gold.Chemscore.Hbonds>
donor molecule, donor type, donor heavy atom, donor atom, acceptor molecule, acceptor atom, score
      L1  H     7    22       P1  8028  1.00
      P1  H  7989  7998       L1     3  0.80
      L1  C    15    34       P1  7948  0.45

> <Gold.PLP.Chemscore.Internal.Correction>
0.0246

> <Gold.Rescore>
     Score         DG    S(hbond)    S(metal)    S(lipo)     H(rot)  DE(clash)    DE(int)     intcor
     18.42     -19.11       1.91        0.00      97.47       1.62       0.02       0.67       ----

> <Gold.Chemscore.Fitness>
18.4226

> <Gold.Chemscore.DG>
-19.1085

> <Gold.Chemscore.ZeroCoef>
-5.4800

> <Gold.Chemscore.Hbond>
1.9086

> <Gold.Chemscore.Metal>
0.0000

> <Gold.Chemscore.Lipo>
97.4731

> <Gold.Chemscore.Internal_Hbond>
0.0000

> <Gold.Chemscore.DEClash>
0.0201

> <Gold.Chemscore.DEInternal>
0.6658

> <Gold.Chemscore.Rot>
1.6213

> <Gold.Chemscore.Internal.Correction>
   9.000000E+99

> <Gold.Chemscore.Hbonds>
donor molecule, donor type, donor heavy atom, donor atom, acceptor molecule, acceptor atom, score
      L1  H     7    22       P1  8028  0.98
      P1  H  7989  7998       L1     3  0.09

> <Gold.Chemscore.Hbond.Weighted>
-6.3747

> <Gold.Chemscore.Metal.Weighted>
-0.0000

> <Gold.Chemscore.Lipo.Weighted>
-11.4044

> <Gold.Chemscore.Internal_Hbond.Weighted>
0.0000

> <Gold.Chemscore.DEClash.Weighted>
0.0201

> <Gold.Chemscore.DEInternal.Weighted>
0.6658

> <Gold.Chemscore.Rot.Weighted>
4.1505

> <Gold.Chemscore.Internal.Correction.Weighted>
   9.000000E+99

> <Gold.Protein.RotatedTorsions>
[ 6907 6896 6895 6894 ] final -112.21 input  -60.11 | X-H torsion
[ 7974 7965 7964 7962 ] final  -49.19 input  175.53 | X-H torsion
[ 8008 7997 7996 7995 ] final  -77.36 input   59.86 | X-H torsion
[ 10167 10162 10161 10158 ] final  104.82 input  -65.29 | X-H torsion
[ 10718 10713 10712 10709 ] final -175.99 input   66.30 | X-H torsion
[ 10763 10752 10751 10750 ] final  -99.08 input  -60.55 | X-H torsion
[ 11005 11000 10999 10996 ] final -124.56 input  -57.11 | X-H torsion

> <Gold.Protein.ActiveResidues>
 VAL166  LYS551  ARG553  GLY616  TRP617  ASP618  TYR619  PRO620  LYS621  CYS622 
 ASP623  PHE694  ASN695  SER759  ASP760  ASP761  ALA762  ILE779  LEU786  VAL792 
 PHE793  MET794  SER795  GLU796  ALA797  LYS798  CYS799  TRP800  GLU811  SER814 

> <Gold.Protein.RotatedAtoms>
  150.7743  133.9123  159.3372 H   0  0  0  0  0  0  0  0  0  0  0  0  # atno 6907 bound_to 6896
  151.7002  135.0929  160.0259 H   0  0  0  0  0  0  0  0  0  0  0  0  # atno 6908 bound_to 6896
  152.3772  133.6459  159.6169 H   0  0  0  0  0  0  0  0  0  0  0  0  # atno 6909 bound_to 6896
  145.9432  140.7643  142.9542 H   0  0  0  0  0  0  0  0  0  0  0  0  # atno 7974 bound_to 7965
  154.5589  140.0712  156.8787 H   0  0  0  0  0  0  0  0  0  0  0  0  # atno 8008 bound_to 7997
  155.2849  140.3374  155.4238 H   0  0  0  0  0  0  0  0  0  0  0  0  # atno 8009 bound_to 7997
  156.2025  140.1727  156.7854 H   0  0  0  0  0  0  0  0  0  0  0  0  # atno 8010 bound_to 7997
  139.7145  144.7071  151.0973 H   0  0  0  0  0  0  0  0  0  0  0  0  # atno 10167 bound_to 10162
  156.8081  130.9576  151.3117 H   0  0  0  0  0  0  0  0  0  0  0  0  # atno 10718 bound_to 10713
  154.7468  135.4985  153.9218 H   0  0  0  0  0  0  0  0  0  0  0  0  # atno 10763 bound_to 10752
  153.1100  135.6707  153.9525 H   0  0  0  0  0  0  0  0  0  0  0  0  # atno 10764 bound_to 10752
  153.9287  135.3080  155.3425 H   0  0  0  0  0  0  0  0  0  0  0  0  # atno 10765 bound_to 10752
  140.9832  134.0644  157.3741 H   0  0  0  0  0  0  0  0  0  0  0  0  # atno 11005 bound_to 11000
  144.6782  140.2314  143.7355 LP  0  0  0  0  0  0  0  0  0  0  0  0  # atno 17320 bound_to 7965
  145.8272  139.2069  143.1904 LP  0  0  0  0  0  0  0  0  0  0  0  0  # atno 17321 bound_to 7965
  140.7740  143.5248  150.9493 LP  0  0  0  0  0  0  0  0  0  0  0  0  # atno 17342 bound_to 10162
  139.8934  143.6925  152.3142 LP  0  0  0  0  0  0  0  0  0  0  0  0  # atno 17343 bound_to 10162
  157.6520  130.8892  149.9652 LP  0  0  0  0  0  0  0  0  0  0  0  0  # atno 17370 bound_to 10713
  156.1061  130.3652  150.0131 LP  0  0  0  0  0  0  0  0  0  0  0  0  # atno 17371 bound_to 10713
  139.8959  135.0143  156.7024 LP  0  0  0  0  0  0  0  0  0  0  0  0  # atno 17394 bound_to 11000
  140.7155  133.9186  155.8112 LP  0  0  0  0  0  0  0  0  0  0  0  0  # atno 17395 bound_to 11000

$$$$
