AV-unprocessed.smi:2718|AV-procd|sdf|10492|dock2
  -GOLD-   2272014543D 1   1.00000     0.00000
 Structure written by MMmdl.
 47 48  0  0  0  0  0  0  0  0  1 V2000
  153.7270  141.6913  160.4215 C   0  0  0  0  0  0  0  0  0  0  0  0
  152.5079  142.0135  159.5803 C   0  0  0  0  0  0  0  0  0  0  0  0
  152.1924  143.4941  159.4618 C   0  0  0  0  0  0  0  0  0  0  0  0
  151.7749  141.0454  158.9972 C   0  0  0  0  0  0  0  0  0  0  0  0
  150.5574  141.2290  158.1554 C   0  0  2  0  0  0  0  0  0  0  0  0
  149.6746  140.0942  157.6443 C   0  0  2  0  0  0  0  0  0  0  0  0
  149.9928  138.6572  157.9519 C   0  0  0  0  0  0  0  0  0  0  0  0
  151.0324  138.0867  157.6217 O   0  0  0  0  0  0  0  0  0  0  0  0
  149.0225  138.0381  158.6405 N   0  0  0  0  0  0  0  0  0  0  0  0
  149.0527  136.6494  159.0926 C   0  0  0  0  0  0  0  0  0  0  0  0
  148.0319  136.3451  160.2129 C   0  0  1  0  0  0  0  0  0  0  0  0
  146.6692  136.9945  159.9321 C   0  0  0  0  0  0  0  0  0  0  0  0
  147.8954  134.8727  160.4966 C   0  0  0  0  0  0  0  0  0  0  0  0
  148.3391  133.9162  159.6696 N   0  0  0  0  0  0  0  0  0  0  0  0
  148.0318  132.7187  160.2830 N   0  0  0  0  0  0  0  0  0  0  0  0
  147.4275  133.0689  161.4170 C   0  0  0  0  0  0  0  0  0  0  0  0
  147.3072  134.3905  161.6121 N   0  0  0  0  0  0  0  0  0  0  0  0
  146.6987  135.0825  162.7308 C   0  0  0  0  0  0  0  0  0  0  0  0
  150.5371  140.8942  156.6723 C   0  0  0  0  0  0  0  0  0  0  0  0
  149.8244  141.8329  155.7139 C   0  0  0  0  0  0  0  0  0  0  0  0
  151.7725  140.3266  155.9774 C   0  0  0  0  0  0  0  0  0  0  0  0
  154.6144  142.1630  159.9988 H   0  0  0  0  0  0  0  0  0  0  0  0
  153.9064  140.6171  160.4740 H   0  0  0  0  0  0  0  0  0  0  0  0
  153.5918  142.0617  161.4380 H   0  0  0  0  0  0  0  0  0  0  0  0
  151.9692  143.9078  160.4454 H   0  0  0  0  0  0  0  0  0  0  0  0
  151.3379  143.6883  158.8143 H   0  0  0  0  0  0  0  0  0  0  0  0
  153.0492  144.0293  159.0524 H   0  0  0  0  0  0  0  0  0  0  0  0
  152.0869  140.0203  159.1330 H   0  0  0  0  0  0  0  0  0  0  0  0
  150.0338  142.1375  158.4474 H   0  0  0  0  0  0  0  0  0  0  0  0
  148.6086  140.3158  157.6121 H   0  0  0  0  0  0  0  0  0  0  0  0
  148.1966  138.5711  158.8732 H   0  0  0  0  0  0  0  0  0  0  0  0
  148.9043  135.9783  158.2451 H   0  0  0  0  0  0  0  0  0  0  0  0
  150.0618  136.4597  159.4599 H   0  0  0  0  0  0  0  0  0  0  0  0
  148.4103  136.8258  161.1144 H   0  0  0  0  0  0  0  0  0  0  0  0
  145.9838  136.8425  160.7664 H   0  0  0  0  0  0  0  0  0  0  0  0
  146.2052  136.5750  159.0388 H   0  0  0  0  0  0  0  0  0  0  0  0
  146.7707  138.0694  159.7800 H   0  0  0  0  0  0  0  0  0  0  0  0
  147.0599  132.3394  162.1238 H   0  0  0  0  0  0  0  0  0  0  0  0
  146.3825  134.3659  163.4893 H   0  0  0  0  0  0  0  0  0  0  0  0
  145.8293  135.6430  162.3867 H   0  0  0  0  0  0  0  0  0  0  0  0
  147.4164  135.7717  163.1752 H   0  0  0  0  0  0  0  0  0  0  0  0
  149.5120  141.2954  154.8180 H   0  0  0  0  0  0  0  0  0  0  0  0
  150.4836  142.6501  155.4195 H   0  0  0  0  0  0  0  0  0  0  0  0
  148.9376  142.2639  156.1798 H   0  0  0  0  0  0  0  0  0  0  0  0
  151.4762  139.7137  155.1261 H   0  0  0  0  0  0  0  0  0  0  0  0
  152.3843  139.7194  156.6413 H   0  0  0  0  0  0  0  0  0  0  0  0
  152.4014  141.1382  155.6102 H   0  0  0  0  0  0  0  0  0  0  0  0
  1  2  1  0  0  0  0
  1 22  1  0  0  0  0
  1 23  1  0  0  0  0
  1 24  1  0  0  0  0
  2  3  1  0  0  0  0
  2  4  2  0  0  0  0
  3 25  1  0  0  0  0
  3 26  1  0  0  0  0
  3 27  1  0  0  0  0
  4  5  1  0  0  0  0
  4 28  1  0  0  0  0
  5 19  1  0  0  0  0
  5  6  1  0  0  0  0
  5 29  1  0  0  0  0
  6  7  1  0  0  0  0
  6 19  1  0  0  0  0
  6 30  1  0  0  0  0
  7  8  2  0  0  0  0
  7  9  1  0  0  0  0
  9 10  1  0  0  0  0
  9 31  1  0  0  0  0
 10 11  1  0  0  0  0
 10 32  1  0  0  0  0
 10 33  1  0  0  0  0
 11 12  1  0  0  0  0
 11 13  1  0  0  0  0
 11 34  1  0  0  0  0
 12 35  1  0  0  0  0
 12 36  1  0  0  0  0
 12 37  1  0  0  0  0
 13 17  1  0  0  0  0
 13 14  2  0  0  0  0
 14 15  1  0  0  0  0
 15 16  2  0  0  0  0
 16 17  1  0  0  0  0
 16 38  1  0  0  0  0
 17 18  1  0  0  0  0
 18 39  1  0  0  0  0
 18 40  1  0  0  0  0
 18 41  1  0  0  0  0
 19 20  1  0  0  0  0
 19 21  1  0  0  0  0
 20 42  1  0  0  0  0
 20 43  1  0  0  0  0
 20 44  1  0  0  0  0
 21 45  1  0  0  0  0
 21 46  1  0  0  0  0
 21 47  1  0  0  0  0
M  END
> <s_m_source_file>
AV-unprocessed.smi

> <i_m_source_file_index>
2718

> <i_lp_mmshare_version>
43012

> <i_f3d_flags>
0

> <s_epik_input>
W0NIM11DKFtDSDNdKT1bQ0hdW0NAQEhdKEMxKFtDSDNdKVtDSDNdKVtDQEhdMUMoPU8pW05IXVtDSDJdW0NASF0oW0NIM10pYzJubltjSF1uMltDSDNd

> <s_epik_cmdline>
J2VwaWtfcHl0aG9uJywgJy1waCcsICc3LjAnLCAnLXRuJywgJzgnLCAnLW1hJywgJzIwMCcsICctbWV0YWxfYmluZGluZycsICctaW1hZScsICc8aW5maWxlLm1hZT4nLCAnLW9tYWUnLCAnPG91dGZpbGUubWFlPic=

> <r_lp_tautomer_probability>
1

> <r_epik_Ionization_Penalty>
0.000449586

> <r_epik_Ionization_Penalty_Charging>
0

> <r_epik_Ionization_Penalty_Neutral>
0.000449586

> <r_epik_State_Penalty>
0.000243372

> <r_epik_Charging_Adjusted_Penalty>
0.000243372

> <i_epik_Tot_Q>
0

> <i_epik_Tot_abs_Q>
0

> <r_epik_Metal_State_Penalty>
-0

> <b_epik_Metal_Only>
0

> <s_lp_Force_Field>
OPLS_2005

> <r_lp_Energy>
15.6704

> <b_lp_Chiralities_Consistent>
1

> <s_lp_Variant>
AV-unprocessed.smi:2718-7

> <Gold.Version>
5.8.1

> <Gold.Id.Protein>
6NUR|6NUR_protein|mol2

> <Gold.PLP.Fitness>
39.2562

> <Gold.PLP.PLP>
-39.0035

> <Gold.PLP.part.hbond>
-0.9804

> <Gold.PLP.part.metal>
0.0000

> <Gold.PLP.part.buried>
-2.8882

> <Gold.PLP.part.nonpolar>
-35.1821

> <Gold.PLP.part.repulsive>
0.1794

> <Gold.PLP.ligand.clash>
0.0000

> <Gold.PLP.ligand.torsion>
0.6463

> <Gold.PLP.Chemscore.Hbond>
0.4033

> <Gold.PLP.Chemscore.CHOScore>
0.0000

> <Gold.PLP.Chemscore.Metal>
0.0000

> <Gold.Chemscore.Hbonds>
donor molecule, donor type, donor heavy atom, donor atom, acceptor molecule, acceptor atom, score
      P1  H  6896  6907       L1    14  0.23

> <Gold.PLP.Chemscore.Internal.Correction>
0.3354

> <Gold.Rescore>
     Score         DG    S(hbond)    S(metal)    S(lipo)     H(rot)  DE(clash)    DE(int)     intcor
     11.10     -13.23       0.71        0.00      88.60       1.95       0.28       1.85       ----

> <Gold.Chemscore.Fitness>
11.0961

> <Gold.Chemscore.DG>
-13.2250

> <Gold.Chemscore.ZeroCoef>
-5.4800

> <Gold.Chemscore.Hbond>
0.7123

> <Gold.Chemscore.Metal>
0.0000

> <Gold.Chemscore.Lipo>
88.6016

> <Gold.Chemscore.Internal_Hbond>
0.0000

> <Gold.Chemscore.DEClash>
0.2753

> <Gold.Chemscore.DEInternal>
1.8537

> <Gold.Chemscore.Rot>
1.9533

> <Gold.Chemscore.Internal.Correction>
   9.000000E+99

> <Gold.Chemscore.Hbonds>
donor molecule, donor type, donor heavy atom, donor atom, acceptor molecule, acceptor atom, score
      P1  H  6896  6907       L1    14  0.12

> <Gold.Chemscore.Hbond.Weighted>
-2.3792

> <Gold.Chemscore.Metal.Weighted>
-0.0000

> <Gold.Chemscore.Lipo.Weighted>
-10.3664

> <Gold.Chemscore.Internal_Hbond.Weighted>
0.0000

> <Gold.Chemscore.DEClash.Weighted>
0.2753

> <Gold.Chemscore.DEInternal.Weighted>
1.8537

> <Gold.Chemscore.Rot.Weighted>
5.0005

> <Gold.Chemscore.Internal.Correction.Weighted>
   9.000000E+99

> <Gold.Protein.RotatedTorsions>
[ 6907 6896 6895 6894 ] final  -94.42 input  -60.11 | X-H torsion
[ 7974 7965 7964 7962 ] final  138.60 input  175.53 | X-H torsion
[ 8008 7997 7996 7995 ] final   51.03 input   59.86 | X-H torsion
[ 10167 10162 10161 10158 ] final  -55.84 input  -65.29 | X-H torsion
[ 10718 10713 10712 10709 ] final   69.55 input   66.30 | X-H torsion
[ 10763 10752 10751 10750 ] final  -42.01 input  -60.55 | X-H torsion
[ 11005 11000 10999 10996 ] final   47.74 input  -57.11 | X-H torsion

> <Gold.Protein.ActiveResidues>
 VAL166  LYS551  ARG553  GLY616  TRP617  ASP618  TYR619  PRO620  LYS621  CYS622 
 ASP623  PHE694  ASN695  SER759  ASP760  ASP761  ALA762  ILE779  LEU786  VAL792 
 PHE793  MET794  SER795  GLU796  ALA797  LYS798  CYS799  TRP800  GLU811  SER814 

> <Gold.Protein.RotatedAtoms>
  150.6941  134.1815  159.4250 H   0  0  0  0  0  0  0  0  0  0  0  0  # atno 6907 bound_to 6896
  151.9790  135.0036  160.0566 H   0  0  0  0  0  0  0  0  0  0  0  0  # atno 6908 bound_to 6896
  152.1773  133.4648  159.4976 H   0  0  0  0  0  0  0  0  0  0  0  0  # atno 6909 bound_to 6896
  144.9358  139.4991  143.5596 H   0  0  0  0  0  0  0  0  0  0  0  0  # atno 7974 bound_to 7965
  155.4285  140.3449  155.4278 H   0  0  0  0  0  0  0  0  0  0  0  0  # atno 8008 bound_to 7997
  156.1351  140.1525  156.9038 H   0  0  0  0  0  0  0  0  0  0  0  0  # atno 8009 bound_to 7997
  154.4925  140.0837  156.7605 H   0  0  0  0  0  0  0  0  0  0  0  0  # atno 8010 bound_to 7997
  140.6352  143.2478  151.5137 H   0  0  0  0  0  0  0  0  0  0  0  0  # atno 10167 bound_to 10162
  157.6352  130.9431  150.0528 H   0  0  0  0  0  0  0  0  0  0  0  0  # atno 10718 bound_to 10713
  153.9720  135.6727  153.4747 H   0  0  0  0  0  0  0  0  0  0  0  0  # atno 10763 bound_to 10752
  153.0788  135.4934  154.8457 H   0  0  0  0  0  0  0  0  0  0  0  0  # atno 10764 bound_to 10752
  154.7213  135.3118  154.9003 H   0  0  0  0  0  0  0  0  0  0  0  0  # atno 10765 bound_to 10752
  140.1252  134.4777  155.8565 H   0  0  0  0  0  0  0  0  0  0  0  0  # atno 11005 bound_to 11000
  146.3266  139.8341  142.8903 LP  0  0  0  0  0  0  0  0  0  0  0  0  # atno 17320 bound_to 7965
  145.3070  141.0209  143.3576 LP  0  0  0  0  0  0  0  0  0  0  0  0  # atno 17321 bound_to 7965
  139.5563  144.2268  152.1617 LP  0  0  0  0  0  0  0  0  0  0  0  0  # atno 17342 bound_to 10162
  140.1523  144.5103  150.6680 LP  0  0  0  0  0  0  0  0  0  0  0  0  # atno 17343 bound_to 10162
  156.1585  130.3643  149.9334 LP  0  0  0  0  0  0  0  0  0  0  0  0  # atno 17370 bound_to 10713
  156.7337  130.9053  151.3627 LP  0  0  0  0  0  0  0  0  0  0  0  0  # atno 17371 bound_to 10713
  141.2160  133.6775  156.6964 LP  0  0  0  0  0  0  0  0  0  0  0  0  # atno 17394 bound_to 11000
  140.2913  134.8238  157.4019 LP  0  0  0  0  0  0  0  0  0  0  0  0  # atno 17395 bound_to 11000

$$$$
