AV-unprocessed.smi:2136|AV-procd|sdf|8703|dock10
  -GOLD-   2272011463D 1   1.00000     0.00000
 Structure written by MMmdl.
 42 43  0  0  0  0  0  0  0  0  1 V2000
  154.1027  139.3515  159.5575 C   0  0  0  0  0  0  0  0  0  0  0  0
  152.5886  139.5333  158.5276 S   0  0  0  0  0  0  0  0  0  0  0  0
  152.9638  139.3164  157.1226 O   0  0  0  0  0  0  0  0  0  0  0  0
  151.5309  138.6993  159.1192 O   0  0  0  0  0  0  0  0  0  0  0  0
  152.1483  141.2142  158.7711 N   0  0  0  0  0  0  0  0  0  0  0  0
  152.9883  141.9241  159.7674 C   0  0  0  0  0  0  0  0  0  0  0  0
  152.4257  143.2919  160.1714 C   0  0  0  0  0  0  0  0  0  0  0  0
  152.2193  144.1690  158.9430 C   0  0  0  0  0  0  0  0  0  0  0  0
  151.2420  143.4578  158.0129 C   0  0  0  0  0  0  0  0  0  0  0  0
  151.7314  142.0485  157.5964 C   0  0  2  0  0  0  0  0  0  0  0  0
  150.6682  141.4461  156.6660 C   0  0  0  0  0  0  0  0  0  0  0  0
  150.9836  141.0735  155.5360 O   0  0  0  0  0  0  0  0  0  0  0  0
  149.4180  141.3577  157.1489 N   0  0  0  0  0  0  0  0  0  0  0  0
  148.2798  140.8035  156.4280 C   0  0  0  0  0  0  0  0  0  0  0  0
  148.1057  141.4644  155.0511 C   0  0  0  0  0  0  0  0  0  0  0  0
  146.8195  142.2608  154.9616 C   0  0  0  0  0  0  0  0  0  0  0  0
  146.5135  143.0195  153.8132 C   0  0  0  0  0  0  0  0  0  0  0  0
  145.3077  143.7463  153.7828 C   0  0  0  0  0  0  0  0  0  0  0  0
  144.4579  143.6828  154.9054 C   0  0  0  0  0  0  0  0  0  0  0  0
  144.7412  142.9599  156.0103 N   0  0  0  0  0  0  0  0  0  0  0  0
  145.8993  142.2657  156.0313 C   0  0  0  0  0  0  0  0  0  0  0  0
  154.4433  138.3173  159.5160 H   0  0  0  0  0  0  0  0  0  0  0  0
  153.8814  139.6154  160.5909 H   0  0  0  0  0  0  0  0  0  0  0  0
  154.8884  140.0017  159.1735 H   0  0  0  0  0  0  0  0  0  0  0  0
  153.0874  141.3167  160.6667 H   0  0  0  0  0  0  0  0  0  0  0  0
  153.9920  142.0456  159.3588 H   0  0  0  0  0  0  0  0  0  0  0  0
  151.4822  143.1627  160.7033 H   0  0  0  0  0  0  0  0  0  0  0  0
  153.1087  143.7814  160.8662 H   0  0  0  0  0  0  0  0  0  0  0  0
  151.8241  145.1427  159.2342 H   0  0  0  0  0  0  0  0  0  0  0  0
  153.1684  144.3469  158.4356 H   0  0  0  0  0  0  0  0  0  0  0  0
  150.2738  143.3875  158.5119 H   0  0  0  0  0  0  0  0  0  0  0  0
  151.0811  144.0746  157.1272 H   0  0  0  0  0  0  0  0  0  0  0  0
  152.6268  142.1917  156.9896 H   0  0  0  0  0  0  0  0  0  0  0  0
  149.2511  141.6790  158.0915 H   0  0  0  0  0  0  0  0  0  0  0  0
  148.3963  139.7231  156.3256 H   0  0  0  0  0  0  0  0  0  0  0  0
  147.3868  140.9634  157.0330 H   0  0  0  0  0  0  0  0  0  0  0  0
  148.9504  142.1222  154.8414 H   0  0  0  0  0  0  0  0  0  0  0  0
  148.1018  140.7089  154.2643 H   0  0  0  0  0  0  0  0  0  0  0  0
  147.1897  143.0468  152.9713 H   0  0  0  0  0  0  0  0  0  0  0  0
  145.0404  144.3386  152.9203 H   0  0  0  0  0  0  0  0  0  0  0  0
  143.5256  144.2277  154.9163 H   0  0  0  0  0  0  0  0  0  0  0  0
  146.0986  141.6991  156.9291 H   0  0  0  0  0  0  0  0  0  0  0  0
  1  2  1  0  0  0  0
  1 22  1  0  0  0  0
  1 23  1  0  0  0  0
  1 24  1  0  0  0  0
  2  3  2  0  0  0  0
  2  4  2  0  0  0  0
  2  5  1  0  0  0  0
  5 10  1  0  0  0  0
  5  6  1  0  0  0  0
  6  7  1  0  0  0  0
  6 25  1  0  0  0  0
  6 26  1  0  0  0  0
  7  8  1  0  0  0  0
  7 27  1  0  0  0  0
  7 28  1  0  0  0  0
  8  9  1  0  0  0  0
  8 29  1  0  0  0  0
  8 30  1  0  0  0  0
  9 10  1  0  0  0  0
  9 31  1  0  0  0  0
  9 32  1  0  0  0  0
 10 11  1  0  0  0  0
 10 33  1  0  0  0  0
 11 12  2  0  0  0  0
 11 13  1  0  0  0  0
 13 14  1  0  0  0  0
 13 34  1  0  0  0  0
 14 15  1  0  0  0  0
 14 35  1  0  0  0  0
 14 36  1  0  0  0  0
 15 16  1  0  0  0  0
 15 37  1  0  0  0  0
 15 38  1  0  0  0  0
 16 21  1  0  0  0  0
 16 17  2  0  0  0  0
 17 18  1  0  0  0  0
 17 39  1  0  0  0  0
 18 19  2  0  0  0  0
 18 40  1  0  0  0  0
 19 20  1  0  0  0  0
 19 41  1  0  0  0  0
 20 21  2  0  0  0  0
 21 42  1  0  0  0  0
M  END
> <s_m_source_file>
AV-unprocessed.smi

> <i_m_source_file_index>
2136

> <i_lp_mmshare_version>
43012

> <i_f3d_flags>
0

> <s_epik_input>
W0NIM11TKD1PKSg9TylOMVtDSDJdW0NIMl1bQ0gyXVtDSDJdW0NASF0xQyg9TylbTkhdW0NIMl1bQ0gyXWMyW2NIXVtjSF1bY0hdbltjSF0y

> <s_epik_cmdline>
J2VwaWtfcHl0aG9uJywgJy1waCcsICc3LjAnLCAnLXRuJywgJzgnLCAnLW1hJywgJzIwMCcsICctbWV0YWxfYmluZGluZycsICctaW1hZScsICc8aW5maWxlLm1hZT4nLCAnLW9tYWUnLCAnPG91dGZpbGUubWFlPic=

> <r_epik_Ionization_Penalty>
0.0126915

> <r_epik_Ionization_Penalty_Charging>
0

> <r_epik_Ionization_Penalty_Neutral>
0.0126915

> <r_epik_State_Penalty>
0.0098379

> <r_epik_Charging_Adjusted_Penalty>
0.0098379

> <i_epik_Tot_Q>
0

> <i_epik_Tot_abs_Q>
0

> <r_epik_Metal_State_Penalty>
0.00962913

> <b_epik_Metal_Only>
0

> <s_lp_Force_Field>
OPLS_2005

> <r_lp_Energy>
2.71494

> <b_lp_Chiralities_Consistent>
1

> <s_lp_Variant>
AV-unprocessed.smi:2136-2

> <Gold.Version>
5.8.1

> <Gold.Id.Protein>
6NUR|6NUR_protein|mol2

> <Gold.PLP.Fitness>
42.6493

> <Gold.PLP.PLP>
-39.2897

> <Gold.PLP.part.hbond>
-2.0000

> <Gold.PLP.part.metal>
0.0000

> <Gold.PLP.part.buried>
-5.0975

> <Gold.PLP.part.nonpolar>
-31.3761

> <Gold.PLP.part.repulsive>
0.2100

> <Gold.PLP.ligand.clash>
0.0000

> <Gold.PLP.ligand.torsion>
0.8988

> <Gold.PLP.Chemscore.Hbond>
1.4690

> <Gold.PLP.Chemscore.CHOScore>
0.0000

> <Gold.PLP.Chemscore.Metal>
0.0000

> <Gold.Chemscore.Hbonds>
donor molecule, donor type, donor heavy atom, donor atom, acceptor molecule, acceptor atom, score
      P1  H  7989  7998       L1    12  0.49
      P1  H  7997  8009       L1     3  1.00

> <Gold.PLP.Chemscore.Internal.Correction>
0.7502

> <Gold.Rescore>
     Score         DG    S(hbond)    S(metal)    S(lipo)     H(rot)  DE(clash)    DE(int)     intcor
     15.90     -16.89       1.50        0.00      95.08       1.84       0.06       0.93       ----

> <Gold.Chemscore.Fitness>
15.8991

> <Gold.Chemscore.DG>
-16.8914

> <Gold.Chemscore.ZeroCoef>
-5.4800

> <Gold.Chemscore.Hbond>
1.4977

> <Gold.Chemscore.Metal>
0.0000

> <Gold.Chemscore.Lipo>
95.0805

> <Gold.Chemscore.Internal_Hbond>
0.0000

> <Gold.Chemscore.DEClash>
0.0630

> <Gold.Chemscore.DEInternal>
0.9293

> <Gold.Chemscore.Rot>
1.8419

> <Gold.Chemscore.Internal.Correction>
   9.000000E+99

> <Gold.Chemscore.Hbonds>
donor molecule, donor type, donor heavy atom, donor atom, acceptor molecule, acceptor atom, score
      P1  H  7989  7998       L1    12  0.47
      P1  H  7997  8009       L1     3  0.74

> <Gold.Chemscore.Hbond.Weighted>
-5.0023

> <Gold.Chemscore.Metal.Weighted>
-0.0000

> <Gold.Chemscore.Lipo.Weighted>
-11.1244

> <Gold.Chemscore.Internal_Hbond.Weighted>
0.0000

> <Gold.Chemscore.DEClash.Weighted>
0.0630

> <Gold.Chemscore.DEInternal.Weighted>
0.9293

> <Gold.Chemscore.Rot.Weighted>
4.7153

> <Gold.Chemscore.Internal.Correction.Weighted>
   9.000000E+99

> <Gold.Protein.RotatedTorsions>
[ 6907 6896 6895 6894 ] final   54.55 input  -60.11 | X-H torsion
[ 7974 7965 7964 7962 ] final -118.80 input  175.53 | X-H torsion
[ 8008 7997 7996 7995 ] final  169.91 input   59.86 | X-H torsion
[ 10167 10162 10161 10158 ] final  127.37 input  -65.29 | X-H torsion
[ 10718 10713 10712 10709 ] final  -67.32 input   66.30 | X-H torsion
[ 10763 10752 10751 10750 ] final -106.53 input  -60.55 | X-H torsion
[ 11005 11000 10999 10996 ] final  -51.93 input  -57.11 | X-H torsion

> <Gold.Protein.ActiveResidues>
 VAL166  LYS551  ARG553  GLY616  TRP617  ASP618  TYR619  PRO620  LYS621  CYS622 
 ASP623  PHE694  ASN695  SER759  ASP760  ASP761  ALA762  ILE779  LEU786  VAL792 
 PHE793  MET794  SER795  GLU796  ALA797  LYS798  CYS799  TRP800  GLU811  SER814 

> <Gold.Protein.RotatedAtoms>
  152.3450  134.7083  160.0252 H   0  0  0  0  0  0  0  0  0  0  0  0  # atno 6907 bound_to 6896
  151.7456  133.3319  159.3385 H   0  0  0  0  0  0  0  0  0  0  0  0  # atno 6908 bound_to 6896
  150.7503  134.6172  159.6161 H   0  0  0  0  0  0  0  0  0  0  0  0  # atno 6909 bound_to 6896
  145.0697  140.8350  143.4103 H   0  0  0  0  0  0  0  0  0  0  0  0  # atno 7974 bound_to 7965
  156.1414  140.1552  156.8914 H   0  0  0  0  0  0  0  0  0  0  0  0  # atno 8008 bound_to 7997
  154.4991  140.0830  156.7798 H   0  0  0  0  0  0  0  0  0  0  0  0  # atno 8009 bound_to 7997
  155.4070  140.3417  155.4263 H   0  0  0  0  0  0  0  0  0  0  0  0  # atno 8010 bound_to 7997
  139.5582  144.6863  151.4121 H   0  0  0  0  0  0  0  0  0  0  0  0  # atno 10167 bound_to 10162
  156.0564  130.4276  150.1837 H   0  0  0  0  0  0  0  0  0  0  0  0  # atno 10718 bound_to 10713
  154.8018  135.4708  154.0294 H   0  0  0  0  0  0  0  0  0  0  0  0  # atno 10763 bound_to 10752
  153.1794  135.6838  153.8506 H   0  0  0  0  0  0  0  0  0  0  0  0  # atno 10764 bound_to 10752
  153.8062  135.3223  155.3373 H   0  0  0  0  0  0  0  0  0  0  0  0  # atno 10765 bound_to 10752
  141.0897  133.6635  156.3949 H   0  0  0  0  0  0  0  0  0  0  0  0  # atno 11005 bound_to 11000
  145.1307  139.2634  143.5541 LP  0  0  0  0  0  0  0  0  0  0  0  0  # atno 17320 bound_to 7965
  146.3528  140.0957  142.8610 LP  0  0  0  0  0  0  0  0  0  0  0  0  # atno 17321 bound_to 7965
  140.6858  143.7977  150.7184 LP  0  0  0  0  0  0  0  0  0  0  0  0  # atno 17342 bound_to 10162
  140.1444  143.4412  152.2172 LP  0  0  0  0  0  0  0  0  0  0  0  0  # atno 17343 bound_to 10162
  156.9912  130.9894  151.3414 LP  0  0  0  0  0  0  0  0  0  0  0  0  # atno 17370 bound_to 10713
  157.5537  130.8199  149.8178 LP  0  0  0  0  0  0  0  0  0  0  0  0  # atno 17371 bound_to 10713
  140.5280  134.6240  157.5340 LP  0  0  0  0  0  0  0  0  0  0  0  0  # atno 17394 bound_to 11000
  139.9721  134.7276  156.0021 LP  0  0  0  0  0  0  0  0  0  0  0  0  # atno 17395 bound_to 11000

$$$$
