AV-unprocessed.smi:2973|AV-procd|sdf|11337|dock2
  -GOLD-   2272016243D 1   1.00000     0.00000
 Structure written by MMmdl.
 49 51  0  0  0  0  0  0  0  0  1 V2000
  145.3562  130.3409  151.6396 C   0  0  0  0  0  0  0  0  0  0  0  0
  144.6949  131.7202  151.4327 C   0  0  2  0  0  0  0  0  0  0  0  0
  144.5879  132.0533  149.9288 C   0  0  0  0  0  0  0  0  0  0  0  0
  143.8471  133.3785  149.6918 C   0  0  0  0  0  0  0  0  0  0  0  0
  144.5132  134.5371  150.4469 C   0  0  0  0  0  0  0  0  0  0  0  0
  144.6293  134.2276  151.9501 C   0  0  0  0  0  0  0  0  0  0  0  0
  145.3486  132.8860  152.2411 C   0  0  1  0  0  0  0  0  0  0  0  0
  145.3160  132.6161  153.6681 N   0  0  0  0  0  0  0  0  0  0  0  0
  146.5316  132.5772  154.2270 C   0  0  0  0  0  0  0  0  0  0  0  0
  146.7586  132.3591  155.4160 O   0  0  0  0  0  0  0  0  0  0  0  0
  147.4450  132.8082  153.2677 N   0  0  0  0  0  0  0  0  0  0  0  0
  148.8961  132.7981  153.4936 C   0  0  0  0  0  0  0  0  0  0  0  0
  149.3443  133.7618  154.6021 C   0  0  0  0  0  0  0  0  0  0  0  0
  149.8097  133.3394  155.6620 O   0  0  0  0  0  0  0  0  0  0  0  0
  149.2022  135.0678  154.3323 N   0  0  0  0  0  0  0  0  0  0  0  0
  149.5383  136.1550  155.2441 C   0  0  0  0  0  0  0  0  0  0  0  0
  149.4317  137.5287  154.5617 C   0  0  0  0  0  0  0  0  0  0  0  0
  150.2670  138.5801  155.2671 C   0  0  0  0  0  0  0  0  0  0  0  0
  151.4309  139.1004  154.6616 C   0  0  0  0  0  0  0  0  0  0  0  0
  152.1614  140.0877  155.3507 C   0  0  0  0  0  0  0  0  0  0  0  0
  151.7022  140.5151  156.6116 C   0  0  0  0  0  0  0  0  0  0  0  0
  150.5280  139.9334  157.1296 C   0  0  0  0  0  0  0  0  0  0  0  0
  149.8199  138.9865  156.4770 N   0  0  0  0  0  0  0  0  0  0  0  0
  146.8660  132.9969  152.0739 C   0  0  0  0  0  0  0  0  0  0  0  0
  147.4380  133.2142  151.0054 O   0  0  0  0  0  0  0  0  0  0  0  0
  146.3772  130.3193  151.2580 H   0  0  0  0  0  0  0  0  0  0  0  0
  144.7989  129.5626  151.1181 H   0  0  0  0  0  0  0  0  0  0  0  0
  145.3876  130.0617  152.6926 H   0  0  0  0  0  0  0  0  0  0  0  0
  143.6730  131.6199  151.8025 H   0  0  0  0  0  0  0  0  0  0  0  0
  145.5792  132.1003  149.4777 H   0  0  0  0  0  0  0  0  0  0  0  0
  144.0597  131.2524  149.4101 H   0  0  0  0  0  0  0  0  0  0  0  0
  143.8154  133.6007  148.6249 H   0  0  0  0  0  0  0  0  0  0  0  0
  142.8108  133.2796  150.0172 H   0  0  0  0  0  0  0  0  0  0  0  0
  145.4983  134.7339  150.0239 H   0  0  0  0  0  0  0  0  0  0  0  0
  143.9349  135.4501  150.3038 H   0  0  0  0  0  0  0  0  0  0  0  0
  145.1419  135.0521  152.4482 H   0  0  0  0  0  0  0  0  0  0  0  0
  143.6274  134.1983  152.3807 H   0  0  0  0  0  0  0  0  0  0  0  0
  144.4550  132.4685  154.1747 H   0  0  0  0  0  0  0  0  0  0  0  0
  149.2347  131.7931  153.7507 H   0  0  0  0  0  0  0  0  0  0  0  0
  149.4103  133.0557  152.5658 H   0  0  0  0  0  0  0  0  0  0  0  0
  148.8165  135.3271  153.4357 H   0  0  0  0  0  0  0  0  0  0  0  0
  148.8505  136.1084  156.0889 H   0  0  0  0  0  0  0  0  0  0  0  0
  150.5397  136.0050  155.6514 H   0  0  0  0  0  0  0  0  0  0  0  0
  149.7552  137.4616  153.5220 H   0  0  0  0  0  0  0  0  0  0  0  0
  148.3907  137.8545  154.5378 H   0  0  0  0  0  0  0  0  0  0  0  0
  151.7552  138.7558  153.6905 H   0  0  0  0  0  0  0  0  0  0  0  0
  153.0563  140.5105  154.9185 H   0  0  0  0  0  0  0  0  0  0  0  0
  152.2358  141.2709  157.1685 H   0  0  0  0  0  0  0  0  0  0  0  0
  150.1464  140.2383  158.0929 H   0  0  0  0  0  0  0  0  0  0  0  0
  1  2  1  0  0  0  0
  1 26  1  0  0  0  0
  1 27  1  0  0  0  0
  1 28  1  0  0  0  0
  2  7  1  0  0  0  0
  2  3  1  0  0  0  0
  2 29  1  0  0  0  0
  3  4  1  0  0  0  0
  3 30  1  0  0  0  0
  3 31  1  0  0  0  0
  4  5  1  0  0  0  0
  4 32  1  0  0  0  0
  4 33  1  0  0  0  0
  5  6  1  0  0  0  0
  5 34  1  0  0  0  0
  5 35  1  0  0  0  0
  6  7  1  0  0  0  0
  6 36  1  0  0  0  0
  6 37  1  0  0  0  0
  7 24  1  0  0  0  0
  7  8  1  0  0  0  0
  8  9  1  0  0  0  0
  8 38  1  0  0  0  0
  9 10  2  0  0  0  0
  9 11  1  0  0  0  0
 11 12  1  0  0  0  0
 11 24  1  0  0  0  0
 12 13  1  0  0  0  0
 12 39  1  0  0  0  0
 12 40  1  0  0  0  0
 13 14  2  0  0  0  0
 13 15  1  0  0  0  0
 15 16  1  0  0  0  0
 15 41  1  0  0  0  0
 16 17  1  0  0  0  0
 16 42  1  0  0  0  0
 16 43  1  0  0  0  0
 17 18  1  0  0  0  0
 17 44  1  0  0  0  0
 17 45  1  0  0  0  0
 18 23  1  0  0  0  0
 18 19  2  0  0  0  0
 19 20  1  0  0  0  0
 19 46  1  0  0  0  0
 20 21  2  0  0  0  0
 20 47  1  0  0  0  0
 21 22  1  0  0  0  0
 21 48  1  0  0  0  0
 22 23  2  0  0  0  0
 22 49  1  0  0  0  0
 24 25  2  0  0  0  0
M  END
> <s_m_source_file>
AV-unprocessed.smi

> <i_m_source_file_index>
2973

> <i_lp_mmshare_version>
43012

> <i_f3d_flags>
0

> <s_epik_input>
W0NIMl0xW0NIMl1bQ0gyXVtDSDJdW0NAQEhdKFtDSDNdKVtDQF0xMltOSF1DKD1PKU4oQzI9TylbQ0gyXUMoPU8pW05IXVtDSDJdW0NIMl1jM1tjSF1bY0hdW2NIXVtjSF1uMw==

> <s_epik_cmdline>
J2VwaWtfcHl0aG9uJywgJy1waCcsICc3LjAnLCAnLXRuJywgJzgnLCAnLW1hJywgJzIwMCcsICctbWV0YWxfYmluZGluZycsICctaW1hZScsICc8aW5maWxlLm1hZT4nLCAnLW9tYWUnLCAnPG91dGZpbGUubWFlPic=

> <r_lp_tautomer_probability>
1

> <r_epik_Ionization_Penalty>
0.0245152

> <r_epik_Ionization_Penalty_Charging>
0

> <r_epik_Ionization_Penalty_Neutral>
0.0245152

> <r_epik_State_Penalty>
0.0198648

> <r_epik_Charging_Adjusted_Penalty>
0.0198648

> <i_epik_Tot_Q>
0

> <i_epik_Tot_abs_Q>
0

> <r_epik_Metal_State_Penalty>
0.0400162

> <b_epik_Metal_Only>
0

> <s_lp_Force_Field>
OPLS_2005

> <r_lp_Energy>
16.1581

> <b_lp_Chiralities_Consistent>
1

> <s_lp_Variant>
AV-unprocessed.smi:2973-1

> <Gold.Version>
5.8.1

> <Gold.Id.Protein>
6NUR|6NUR_protein|mol2

> <Gold.PLP.Fitness>
42.4289

> <Gold.PLP.PLP>
-37.0412

> <Gold.PLP.part.hbond>
-2.0000

> <Gold.PLP.part.metal>
0.0000

> <Gold.PLP.part.buried>
-0.8262

> <Gold.PLP.part.nonpolar>
-35.2132

> <Gold.PLP.part.repulsive>
1.7716

> <Gold.PLP.ligand.clash>
0.0000

> <Gold.PLP.ligand.torsion>
0.3374

> <Gold.PLP.Chemscore.Hbond>
2.0000

> <Gold.PLP.Chemscore.CHOScore>
0.0000

> <Gold.PLP.Chemscore.Metal>
0.0000

> <Gold.Chemscore.Hbonds>
donor molecule, donor type, donor heavy atom, donor atom, acceptor molecule, acceptor atom, score
      L1  H     8    38       P1 10957  1.00
      L1  H    15    41       P1  7948  0.99

> <Gold.PLP.Chemscore.Internal.Correction>
0.0626

> <Gold.Rescore>
     Score         DG    S(hbond)    S(metal)    S(lipo)     H(rot)  DE(clash)    DE(int)     intcor
     15.12     -17.57       1.73        0.00      94.66       1.86       1.44       1.02       ----

> <Gold.Chemscore.Fitness>
15.1193

> <Gold.Chemscore.DG>
-17.5703

> <Gold.Chemscore.ZeroCoef>
-5.4800

> <Gold.Chemscore.Hbond>
1.7259

> <Gold.Chemscore.Metal>
0.0000

> <Gold.Chemscore.Lipo>
94.6632

> <Gold.Chemscore.Internal_Hbond>
0.0000

> <Gold.Chemscore.DEClash>
1.4351

> <Gold.Chemscore.DEInternal>
1.0158

> <Gold.Chemscore.Rot>
1.8553

> <Gold.Chemscore.Internal.Correction>
   9.000000E+99

> <Gold.Chemscore.Hbonds>
donor molecule, donor type, donor heavy atom, donor atom, acceptor molecule, acceptor atom, score
      L1  H     8    38       P1 10957  0.58
      L1  H    15    41       P1  7948  0.73

> <Gold.Chemscore.Hbond.Weighted>
-5.7644

> <Gold.Chemscore.Metal.Weighted>
-0.0000

> <Gold.Chemscore.Lipo.Weighted>
-11.0756

> <Gold.Chemscore.Internal_Hbond.Weighted>
0.0000

> <Gold.Chemscore.DEClash.Weighted>
1.4351

> <Gold.Chemscore.DEInternal.Weighted>
1.0158

> <Gold.Chemscore.Rot.Weighted>
4.7497

> <Gold.Chemscore.Internal.Correction.Weighted>
   9.000000E+99

> <Gold.Protein.RotatedTorsions>
[ 6907 6896 6895 6894 ] final  176.68 input  -60.11 | X-H torsion
[ 7974 7965 7964 7962 ] final  114.88 input  175.53 | X-H torsion
[ 8008 7997 7996 7995 ] final -167.02 input   59.86 | X-H torsion
[ 10167 10162 10161 10158 ] final -135.66 input  -65.29 | X-H torsion
[ 10718 10713 10712 10709 ] final  150.56 input   66.30 | X-H torsion
[ 10763 10752 10751 10750 ] final   40.27 input  -60.55 | X-H torsion
[ 11005 11000 10999 10996 ] final  170.11 input  -57.11 | X-H torsion

> <Gold.Protein.ActiveResidues>
 VAL166  LYS551  ARG553  GLY616  TRP617  ASP618  TYR619  PRO620  LYS621  CYS622 
 ASP623  PHE694  ASN695  SER759  ASP760  ASP761  ALA762  ILE779  LEU786  VAL792 
 PHE793  MET794  SER795  GLU796  ALA797  LYS798  CYS799  TRP800  GLU811  SER814 

> <Gold.Protein.RotatedAtoms>
  151.7163  133.3313  159.3303 H   0  0  0  0  0  0  0  0  0  0  0  0  # atno 6907 bound_to 6896
  150.7672  134.6488  159.6286 H   0  0  0  0  0  0  0  0  0  0  0  0  # atno 6908 bound_to 6896
  152.3680  134.6778  160.0237 H   0  0  0  0  0  0  0  0  0  0  0  0  # atno 6909 bound_to 6896
  145.1989  139.2962  143.4329 H   0  0  0  0  0  0  0  0  0  0  0  0  # atno 7974 bound_to 7965
  155.8719  140.0995  157.1544 H   0  0  0  0  0  0  0  0  0  0  0  0  # atno 8008 bound_to 7997
  154.3998  140.1345  156.4152 H   0  0  0  0  0  0  0  0  0  0  0  0  # atno 8009 bound_to 7997
  155.7740  140.3460  155.5264 H   0  0  0  0  0  0  0  0  0  0  0  0  # atno 8010 bound_to 7997
  139.8756  143.6903  152.2634 H   0  0  0  0  0  0  0  0  0  0  0  0  # atno 10167 bound_to 10162
  157.2819  131.0837  151.1525 H   0  0  0  0  0  0  0  0  0  0  0  0  # atno 10718 bound_to 10713
  152.9941  135.6196  154.2600 H   0  0  0  0  0  0  0  0  0  0  0  0  # atno 10763 bound_to 10752
  154.2336  135.2791  155.2882 H   0  0  0  0  0  0  0  0  0  0  0  0  # atno 10764 bound_to 10752
  154.5428  135.5756  153.6912 H   0  0  0  0  0  0  0  0  0  0  0  0  # atno 10765 bound_to 10752
  140.3048  134.7565  157.3945 H   0  0  0  0  0  0  0  0  0  0  0  0  # atno 11005 bound_to 11000
  146.3421  140.2227  142.8591 LP  0  0  0  0  0  0  0  0  0  0  0  0  # atno 17320 bound_to 7965
  144.9967  140.8596  143.5306 LP  0  0  0  0  0  0  0  0  0  0  0  0  # atno 17321 bound_to 7965
  139.7243  144.7596  151.0904 LP  0  0  0  0  0  0  0  0  0  0  0  0  # atno 17342 bound_to 10162
  140.7753  143.5168  150.9585 LP  0  0  0  0  0  0  0  0  0  0  0  0  # atno 17343 bound_to 10162
  157.2956  130.6817  149.6137 LP  0  0  0  0  0  0  0  0  0  0  0  0  # atno 17370 bound_to 10713
  155.9664  130.4407  150.5312 LP  0  0  0  0  0  0  0  0  0  0  0  0  # atno 17371 bound_to 10713
  140.1077  134.5388  155.8295 LP  0  0  0  0  0  0  0  0  0  0  0  0  # atno 17394 bound_to 11000
  141.2120  133.6714  156.6629 LP  0  0  0  0  0  0  0  0  0  0  0  0  # atno 17395 bound_to 11000

$$$$
