AV-unprocessed.smi:2026|AV-procd|sdf|8201|dock2
  -GOLD-   2272010453D 1   1.00000     0.00000
 Structure written by MMmdl.
 46 48  0  0  0  0  0  0  0  0  1 V2000
  152.2249  142.9654  160.5185 C   0  0  0  0  0  0  0  0  0  0  0  0
  151.8971  142.2177  159.2384 C   0  0  0  0  0  0  0  0  0  0  0  0
  152.6943  141.1116  158.8647 C   0  0  0  0  0  0  0  0  0  0  0  0
  152.4204  140.3877  157.6832 C   0  0  0  0  0  0  0  0  0  0  0  0
  153.0553  139.2878  157.1304 N   0  0  0  0  0  0  0  0  0  0  0  0
  152.3309  139.0822  156.0332 C   0  0  0  0  0  0  0  0  0  0  0  0
  151.3017  139.9215  155.8105 N   0  0  0  0  0  0  0  0  0  0  0  0
  150.3742  139.9151  154.6962 C   0  0  0  0  0  0  0  0  0  0  0  0
  149.7542  138.5209  154.4715 C   0  0  2  0  0  0  0  0  0  0  0  0
  148.6452  138.6346  153.6030 O   0  0  0  0  0  0  0  0  0  0  0  0
  149.2967  137.8250  155.7704 C   0  0  0  0  0  0  0  0  0  0  0  0
  149.0633  136.3876  155.5812 N   0  0  0  0  0  0  0  0  0  0  0  0
  147.8753  135.7785  155.7471 C   0  0  0  0  0  0  0  0  0  0  0  0
  146.8149  136.3148  156.0649 O   0  0  0  0  0  0  0  0  0  0  0  0
  148.0376  134.4689  155.5171 N   0  0  0  0  0  0  0  0  0  0  0  0
  149.4038  134.1195  155.1787 C   0  0  0  0  0  0  0  0  0  0  0  0
  150.0077  133.1795  156.2379 C   0  0  0  0  0  0  0  0  0  0  0  0
  149.4847  133.5300  153.7593 C   0  0  0  0  0  0  0  0  0  0  0  0
  150.0183  135.5087  155.2466 C   0  0  0  0  0  0  0  0  0  0  0  0
  151.2071  135.7465  155.0325 O   0  0  0  0  0  0  0  0  0  0  0  0
  151.3203  140.8070  156.8806 C   0  0  0  0  0  0  0  0  0  0  0  0
  150.5208  141.9054  157.2403 C   0  0  0  0  0  0  0  0  0  0  0  0
  150.8074  142.6173  158.4231 C   0  0  0  0  0  0  0  0  0  0  0  0
  149.9351  143.8011  158.8023 C   0  0  0  0  0  0  0  0  0  0  0  0
  153.0383  142.4855  161.0633 H   0  0  0  0  0  0  0  0  0  0  0  0
  151.3569  142.9978  161.1773 H   0  0  0  0  0  0  0  0  0  0  0  0
  152.5277  143.9883  160.2936 H   0  0  0  0  0  0  0  0  0  0  0  0
  153.5249  140.8081  159.4850 H   0  0  0  0  0  0  0  0  0  0  0  0
  152.5608  138.2752  155.3529 H   0  0  0  0  0  0  0  0  0  0  0  0
  149.6014  140.6503  154.9192 H   0  0  0  0  0  0  0  0  0  0  0  0
  150.8856  140.2644  153.7982 H   0  0  0  0  0  0  0  0  0  0  0  0
  150.4806  137.8816  153.9688 H   0  0  0  0  0  0  0  0  0  0  0  0
  148.6773  137.9257  152.9791 H   0  0  0  0  0  0  0  0  0  0  0  0
  150.0267  137.9988  156.5629 H   0  0  0  0  0  0  0  0  0  0  0  0
  148.3688  138.2793  156.1232 H   0  0  0  0  0  0  0  0  0  0  0  0
  147.2979  133.7846  155.5807 H   0  0  0  0  0  0  0  0  0  0  0  0
  151.0465  132.9397  156.0081 H   0  0  0  0  0  0  0  0  0  0  0  0
  149.4569  132.2398  156.2872 H   0  0  0  0  0  0  0  0  0  0  0  0
  149.9855  133.6244  157.2337 H   0  0  0  0  0  0  0  0  0  0  0  0
  150.5103  133.2657  153.4987 H   0  0  0  0  0  0  0  0  0  0  0  0
  149.1248  134.2337  153.0072 H   0  0  0  0  0  0  0  0  0  0  0  0
  148.8819  132.6252  153.6768 H   0  0  0  0  0  0  0  0  0  0  0  0
  149.6911  142.1931  156.6119 H   0  0  0  0  0  0  0  0  0  0  0  0
  149.1899  144.0081  158.0331 H   0  0  0  0  0  0  0  0  0  0  0  0
  150.5398  144.6990  158.9309 H   0  0  0  0  0  0  0  0  0  0  0  0
  149.4077  143.6012  159.7351 H   0  0  0  0  0  0  0  0  0  0  0  0
  1  2  1  0  0  0  0
  1 25  1  0  0  0  0
  1 26  1  0  0  0  0
  1 27  1  0  0  0  0
  2 23  1  0  0  0  0
  2  3  2  0  0  0  0
  3  4  1  0  0  0  0
  3 28  1  0  0  0  0
  4 21  2  0  0  0  0
  4  5  1  0  0  0  0
  5  6  2  0  0  0  0
  6  7  1  0  0  0  0
  6 29  1  0  0  0  0
  7  8  1  0  0  0  0
  7 21  1  0  0  0  0
  8  9  1  0  0  0  0
  8 30  1  0  0  0  0
  8 31  1  0  0  0  0
  9 10  1  0  0  0  0
  9 11  1  0  0  0  0
  9 32  1  0  0  0  0
 10 33  1  0  0  0  0
 11 12  1  0  0  0  0
 11 34  1  0  0  0  0
 11 35  1  0  0  0  0
 12 19  1  0  0  0  0
 12 13  1  0  0  0  0
 13 14  2  0  0  0  0
 13 15  1  0  0  0  0
 15 16  1  0  0  0  0
 15 36  1  0  0  0  0
 16 17  1  0  0  0  0
 16 18  1  0  0  0  0
 16 19  1  0  0  0  0
 17 37  1  0  0  0  0
 17 38  1  0  0  0  0
 17 39  1  0  0  0  0
 18 40  1  0  0  0  0
 18 41  1  0  0  0  0
 18 42  1  0  0  0  0
 19 20  2  0  0  0  0
 21 22  1  0  0  0  0
 22 23  2  0  0  0  0
 22 43  1  0  0  0  0
 23 24  1  0  0  0  0
 24 44  1  0  0  0  0
 24 45  1  0  0  0  0
 24 46  1  0  0  0  0
M  END
> <s_m_source_file>
AV-unprocessed.smi

> <i_m_source_file_index>
2026

> <i_lp_mmshare_version>
43012

> <i_f3d_flags>
0

> <s_epik_input>
W0NIM11jKFtjSF0xKWMoW0NIM10pW2NIXWMoYzEyKW4oW2NIXW4yKVtDSDJdW0NASF0oW09IXSlbQ0gyXU4oQzM9TylDKD1PKVtOSF1DMyhbQ0gzXSlbQ0gzXQ==

> <s_epik_cmdline>
J2VwaWtfcHl0aG9uJywgJy1waCcsICc3LjAnLCAnLXRuJywgJzgnLCAnLW1hJywgJzIwMCcsICctbWV0YWxfYmluZGluZycsICctaW1hZScsICc8aW5maWxlLm1hZT4nLCAnLW9tYWUnLCAnPG91dGZpbGUubWFlPic=

> <r_lp_tautomer_probability>
1

> <r_epik_Ionization_Penalty>
0.103994

> <r_epik_Ionization_Penalty_Charging>
0

> <r_epik_Ionization_Penalty_Neutral>
0.103994

> <r_epik_State_Penalty>
0.0938482

> <r_epik_Charging_Adjusted_Penalty>
0.0938482

> <i_epik_Tot_Q>
0

> <i_epik_Tot_abs_Q>
0

> <r_epik_Metal_State_Penalty>
0.106997

> <b_epik_Metal_Only>
0

> <s_lp_Force_Field>
OPLS_2005

> <r_lp_Energy>
21.0149

> <b_lp_Chiralities_Consistent>
1

> <s_lp_Variant>
AV-unprocessed.smi:2026-1

> <Gold.Version>
5.8.1

> <Gold.Id.Protein>
6NUR|6NUR_protein|mol2

> <Gold.PLP.Fitness>
46.2910

> <Gold.PLP.PLP>
-37.9921

> <Gold.PLP.part.hbond>
-4.0000

> <Gold.PLP.part.metal>
0.0000

> <Gold.PLP.part.buried>
-2.4367

> <Gold.PLP.part.nonpolar>
-32.7185

> <Gold.PLP.part.repulsive>
0.1478

> <Gold.PLP.ligand.clash>
0.0000

> <Gold.PLP.ligand.torsion>
0.2991

> <Gold.PLP.Chemscore.Hbond>
2.9500

> <Gold.PLP.Chemscore.CHOScore>
0.0000

> <Gold.PLP.Chemscore.Metal>
0.0000

> <Gold.Chemscore.Hbonds>
donor molecule, donor type, donor heavy atom, donor atom, acceptor molecule, acceptor atom, score
      L1  H    10    33       P1  7948  1.00
      P1  H  7997  8009       L1     5  0.81
      P1  H 10752 10763       L1    20  1.00

> <Gold.PLP.Chemscore.Internal.Correction>
0.0471

> <Gold.Rescore>
     Score         DG    S(hbond)    S(metal)    S(lipo)     H(rot)  DE(clash)    DE(int)     intcor
     16.39     -17.05       1.99        0.00      95.24       2.44       0.26       0.41       ----

> <Gold.Chemscore.Fitness>
16.3853

> <Gold.Chemscore.DG>
-17.0478

> <Gold.Chemscore.ZeroCoef>
-5.4800

> <Gold.Chemscore.Hbond>
1.9940

> <Gold.Chemscore.Metal>
0.0000

> <Gold.Chemscore.Lipo>
95.2439

> <Gold.Chemscore.Internal_Hbond>
0.0000

> <Gold.Chemscore.DEClash>
0.2560

> <Gold.Chemscore.DEInternal>
0.4065

> <Gold.Chemscore.Rot>
2.4358

> <Gold.Chemscore.Internal.Correction>
   9.000000E+99

> <Gold.Chemscore.Hbonds>
donor molecule, donor type, donor heavy atom, donor atom, acceptor molecule, acceptor atom, score
      L1  H    10    33       P1  7948  0.93
      P1  H  7997  8009       L1     5  0.03
      P1  H 10752 10763       L1    20  0.96

> <Gold.Chemscore.Hbond.Weighted>
-6.6599

> <Gold.Chemscore.Metal.Weighted>
-0.0000

> <Gold.Chemscore.Lipo.Weighted>
-11.1435

> <Gold.Chemscore.Internal_Hbond.Weighted>
0.0000

> <Gold.Chemscore.DEClash.Weighted>
0.2560

> <Gold.Chemscore.DEInternal.Weighted>
0.4065

> <Gold.Chemscore.Rot.Weighted>
6.2357

> <Gold.Chemscore.Internal.Correction.Weighted>
   9.000000E+99

> <Gold.Protein.RotatedTorsions>
[ 6907 6896 6895 6894 ] final  -14.73 input  -60.11 | X-H torsion
[ 7974 7965 7964 7962 ] final -145.20 input  175.53 | X-H torsion
[ 8008 7997 7996 7995 ] final -165.42 input   59.86 | X-H torsion
[ 10167 10162 10161 10158 ] final -155.77 input  -65.29 | X-H torsion
[ 10718 10713 10712 10709 ] final   54.87 input   66.30 | X-H torsion
[ 10763 10752 10751 10750 ] final   77.38 input  -60.55 | X-H torsion
[ 11005 11000 10999 10996 ] final -179.92 input  -57.11 | X-H torsion

> <Gold.Protein.ActiveResidues>
 VAL166  LYS551  ARG553  GLY616  TRP617  ASP618  TYR619  PRO620  LYS621  CYS622 
 ASP623  PHE694  ASN695  SER759  ASP760  ASP761  ALA762  ILE779  LEU786  VAL792 
 PHE793  MET794  SER795  GLU796  ALA797  LYS798  CYS799  TRP800  GLU811  SER814 

> <Gold.Protein.RotatedAtoms>
  151.3349  135.0850  159.9351 H   0  0  0  0  0  0  0  0  0  0  0  0  # atno 6907 bound_to 6896
  152.5225  133.9505  159.7680 H   0  0  0  0  0  0  0  0  0  0  0  0  # atno 6908 bound_to 6896
  150.9851  133.6153  159.2746 H   0  0  0  0  0  0  0  0  0  0  0  0  # atno 6909 bound_to 6896
  144.8244  140.5613  143.5557 H   0  0  0  0  0  0  0  0  0  0  0  0  # atno 7974 bound_to 7965
  155.8495  140.0961  157.1683 H   0  0  0  0  0  0  0  0  0  0  0  0  # atno 8008 bound_to 7997
  154.3985  140.1386  156.3889 H   0  0  0  0  0  0  0  0  0  0  0  0  # atno 8009 bound_to 7997
  155.7976  140.3454  155.5387 H   0  0  0  0  0  0  0  0  0  0  0  0  # atno 8010 bound_to 7997
  139.6904  143.9431  152.2382 H   0  0  0  0  0  0  0  0  0  0  0  0  # atno 10167 bound_to 10162
  157.5295  130.8620  149.8667 H   0  0  0  0  0  0  0  0  0  0  0  0  # atno 10718 bound_to 10713
  153.0794  135.4916  154.8473 H   0  0  0  0  0  0  0  0  0  0  0  0  # atno 10763 bound_to 10752
  154.7131  135.3024  154.9168 H   0  0  0  0  0  0  0  0  0  0  0  0  # atno 10764 bound_to 10752
  153.9855  135.6784  153.4805 H   0  0  0  0  0  0  0  0  0  0  0  0  # atno 10765 bound_to 10752
  140.4133  134.6672  157.4625 H   0  0  0  0  0  0  0  0  0  0  0  0  # atno 11005 bound_to 11000
  145.5034  139.1482  143.3645 LP  0  0  0  0  0  0  0  0  0  0  0  0  # atno 17320 bound_to 7965
  146.2549  140.5174  142.8878 LP  0  0  0  0  0  0  0  0  0  0  0  0  # atno 17321 bound_to 7965
  139.9245  144.6779  150.8427 LP  0  0  0  0  0  0  0  0  0  0  0  0  # atno 17342 bound_to 10162
  140.7681  143.3351  151.2325 LP  0  0  0  0  0  0  0  0  0  0  0  0  # atno 17343 bound_to 10162
  156.0412  130.3738  150.1432 LP  0  0  0  0  0  0  0  0  0  0  0  0  # atno 17370 bound_to 10713
  156.9617  130.9807  151.3477 LP  0  0  0  0  0  0  0  0  0  0  0  0  # atno 17371 bound_to 10713
  140.0252  134.6487  155.9183 LP  0  0  0  0  0  0  0  0  0  0  0  0  # atno 17394 bound_to 11000
  141.1813  133.6547  156.5031 LP  0  0  0  0  0  0  0  0  0  0  0  0  # atno 17395 bound_to 11000

$$$$
