AV-unprocessed.smi:1593|AV-procd|sdf|6410|dock5
  -GOLD-   22720 7 43D 1   1.00000     0.00000
 Structure written by MMmdl.
 37 38  0  0  0  0  0  0  0  0  2 V2000
  152.4569  140.5419  158.0452 C   0  0  0  0  0  0  0  0  0  0  0  0
  151.9538  140.1301  156.7043 C   0  0  0  0  0  0  0  0  0  0  0  0
  150.7232  140.1901  156.1129 C   0  0  0  0  0  0  0  0  0  0  0  0
  150.9572  139.6258  154.8309 C   0  0  0  0  0  0  0  0  0  0  0  0
  149.9064  139.5040  153.8862 N   0  0  0  0  0  0  0  0  0  0  0  0
  148.6423  139.1104  154.1168 C   0  0  0  0  0  0  0  0  0  0  0  0
  148.1850  138.7965  155.2162 O   0  0  0  0  0  0  0  0  0  0  0  0
  147.9196  139.0948  152.9874 N   0  0  0  0  0  0  0  0  0  0  0  0
  146.5120  138.7214  152.9080 C   0  0  0  0  0  0  0  0  0  0  0  0
  146.2048  137.9401  151.6158 C   0  0  0  0  0  0  0  0  0  0  0  0
  146.3173  136.4723  151.8024 N   0  3  0  0  0  0  0  0  0  0  0  0
  145.8656  136.0393  153.1465 C   0  0  0  0  0  0  0  0  0  0  0  0
  146.0407  134.5203  153.3127 C   0  0  0  0  0  0  0  0  0  0  0  0
  145.3275  133.8423  152.2865 O   0  0  0  0  0  0  0  0  0  0  0  0
  145.8105  134.1796  150.9922 C   0  0  0  0  0  0  0  0  0  0  0  0
  145.6271  135.6871  150.7483 C   0  0  0  0  0  0  0  0  0  0  0  0
  152.2162  139.2546  154.6554 N   0  0  0  0  0  0  0  0  0  0  0  0
  152.8613  139.5757  155.8555 O   0  0  0  0  0  0  0  0  0  0  0  0
  151.6539  140.9620  158.6512 H   0  0  0  0  0  0  0  0  0  0  0  0
  153.2379  141.2960  157.9491 H   0  0  0  0  0  0  0  0  0  0  0  0
  152.8735  139.6882  158.5800 H   0  0  0  0  0  0  0  0  0  0  0  0
  149.8062  140.5765  156.5325 H   0  0  0  0  0  0  0  0  0  0  0  0
  150.1459  139.7355  152.9335 H   0  0  0  0  0  0  0  0  0  0  0  0
  148.3708  139.3683  152.1263 H   0  0  0  0  0  0  0  0  0  0  0  0
  146.2461  138.1471  153.7959 H   0  0  0  0  0  0  0  0  0  0  0  0
  145.9173  139.6346  152.9400 H   0  0  0  0  0  0  0  0  0  0  0  0
  145.1868  138.1842  151.3080 H   0  0  0  0  0  0  0  0  0  0  0  0
  146.8561  138.2539  150.7987 H   0  0  0  0  0  0  0  0  0  0  0  0
  146.4380  136.5587  153.9158 H   0  0  0  0  0  0  0  0  0  0  0  0
  144.8182  136.3121  153.2856 H   0  0  0  0  0  0  0  0  0  0  0  0
  147.0959  134.2436  153.2845 H   0  0  0  0  0  0  0  0  0  0  0  0
  145.6541  134.2022  154.2810 H   0  0  0  0  0  0  0  0  0  0  0  0
  146.8591  133.8932  150.8957 H   0  0  0  0  0  0  0  0  0  0  0  0
  145.2551  133.6083  150.2479 H   0  0  0  0  0  0  0  0  0  0  0  0
  144.5644  135.9349  150.7430 H   0  0  0  0  0  0  0  0  0  0  0  0
  146.0176  135.9405  149.7633 H   0  0  0  0  0  0  0  0  0  0  0  0
  147.3002  136.2463  151.7472 H   0  0  0  0  0  0  0  0  0  0  0  0
  1  2  1  0  0  0  0
  1 19  1  0  0  0  0
  1 20  1  0  0  0  0
  1 21  1  0  0  0  0
  2 18  1  0  0  0  0
  2  3  2  0  0  0  0
  3  4  1  0  0  0  0
  3 22  1  0  0  0  0
  4  5  1  0  0  0  0
  4 17  2  0  0  0  0
  5  6  1  0  0  0  0
  5 23  1  0  0  0  0
  6  7  2  0  0  0  0
  6  8  1  0  0  0  0
  8  9  1  0  0  0  0
  8 24  1  0  0  0  0
  9 10  1  0  0  0  0
  9 25  1  0  0  0  0
  9 26  1  0  0  0  0
 10 11  1  0  0  0  0
 10 27  1  0  0  0  0
 10 28  1  0  0  0  0
 11 16  1  0  0  0  0
 11 12  1  0  0  0  0
 11 37  1  0  0  0  0
 12 13  1  0  0  0  0
 12 29  1  0  0  0  0
 12 30  1  0  0  0  0
 13 14  1  0  0  0  0
 13 31  1  0  0  0  0
 13 32  1  0  0  0  0
 14 15  1  0  0  0  0
 15 16  1  0  0  0  0
 15 33  1  0  0  0  0
 15 34  1  0  0  0  0
 16 35  1  0  0  0  0
 16 36  1  0  0  0  0
 17 18  1  0  0  0  0
M  CHG  1  11   1
M  END
> <s_m_source_file>
AV-unprocessed.smi

> <i_m_source_file_index>
1593

> <i_lp_mmshare_version>
43012

> <i_f3d_flags>
0

> <s_epik_input>
W0NIM11jMVtjSF1jKG5vMSlbTkhdQyg9TylbTkhdW0NIMl1bQ0gyXU4yW0NIMl1bQ0gyXU9bQ0gyXVtDSDJdMg==

> <s_epik_cmdline>
J2VwaWtfcHl0aG9uJywgJy1waCcsICc3LjAnLCAnLXRuJywgJzgnLCAnLW1hJywgJzIwMCcsICctbWV0YWxfYmluZGluZycsICctaW1hZScsICc8aW5maWxlLm1hZT4nLCAnLW9tYWUnLCAnPG91dGZpbGUubWFlPic=

> <r_epik_Ionization_Penalty>
0.707076

> <r_epik_Ionization_Penalty_Charging>
0.707039

> <r_epik_Ionization_Penalty_Neutral>
3.67886e-05

> <r_epik_State_Penalty>
0.730276

> <r_epik_Charging_Adjusted_Penalty>
1.43732

> <i_epik_Tot_Q>
1

> <i_epik_Tot_abs_Q>
1

> <r_epik_Metal_State_Penalty>
0.743216

> <b_epik_Metal_Only>
0

> <s_lp_Force_Field>
OPLS_2005

> <r_lp_Energy>
12.0314

> <b_lp_Chiralities_Consistent>
1

> <s_lp_Variant>
AV-unprocessed.smi:1593-2

> <Gold.Version>
5.8.1

> <Gold.Id.Protein>
6NUR|6NUR_protein|mol2

> <Gold.PLP.Fitness>
41.6271

> <Gold.PLP.PLP>
-28.4615

> <Gold.PLP.part.hbond>
-5.3141

> <Gold.PLP.part.metal>
0.0000

> <Gold.PLP.part.buried>
-0.6192

> <Gold.PLP.part.nonpolar>
-22.4535

> <Gold.PLP.part.repulsive>
0.4533

> <Gold.PLP.ligand.clash>
0.0000

> <Gold.PLP.ligand.torsion>
0.9231

> <Gold.PLP.Chemscore.Hbond>
5.0000

> <Gold.PLP.Chemscore.CHOScore>
0.0000

> <Gold.PLP.Chemscore.Metal>
0.0000

> <Gold.Chemscore.Hbonds>
donor molecule, donor type, donor heavy atom, donor atom, acceptor molecule, acceptor atom, score
      L1  H     5    23       P1  7957  1.00
      L1  H     8    24       P1  7957  1.00
      L1  H    11    37       P1  7948  2.00
      P1  H  7997  8009       L1    18  1.00

> <Gold.PLP.Chemscore.Internal.Correction>
0.0117

> <Gold.Rescore>
     Score         DG    S(hbond)    S(metal)    S(lipo)     H(rot)  DE(clash)    DE(int)     intcor
     19.22     -20.36       3.88        0.00      52.67       1.65       0.28       0.86       ----

> <Gold.Chemscore.Fitness>
19.2218

> <Gold.Chemscore.DG>
-20.3622

> <Gold.Chemscore.ZeroCoef>
-5.4800

> <Gold.Chemscore.Hbond>
3.8767

> <Gold.Chemscore.Metal>
0.0000

> <Gold.Chemscore.Lipo>
52.6684

> <Gold.Chemscore.Internal_Hbond>
0.0000

> <Gold.Chemscore.DEClash>
0.2812

> <Gold.Chemscore.DEInternal>
0.8592

> <Gold.Chemscore.Rot>
1.6516

> <Gold.Chemscore.Internal.Correction>
   9.000000E+99

> <Gold.Chemscore.Hbonds>
donor molecule, donor type, donor heavy atom, donor atom, acceptor molecule, acceptor atom, score
      L1  H     5    23       P1  7957  0.94
      L1  H     8    24       P1  7957  0.99
      L1  H    11    37       P1  7948  0.99
      P1  H  7997  8009       L1    18  0.91

> <Gold.Chemscore.Hbond.Weighted>
-12.9481

> <Gold.Chemscore.Metal.Weighted>
-0.0000

> <Gold.Chemscore.Lipo.Weighted>
-6.1622

> <Gold.Chemscore.Internal_Hbond.Weighted>
0.0000

> <Gold.Chemscore.DEClash.Weighted>
0.2812

> <Gold.Chemscore.DEInternal.Weighted>
0.8592

> <Gold.Chemscore.Rot.Weighted>
4.2281

> <Gold.Chemscore.Internal.Correction.Weighted>
   9.000000E+99

> <Gold.Protein.RotatedTorsions>
[ 6907 6896 6895 6894 ] final  -33.73 input  -60.11 | X-H torsion
[ 7974 7965 7964 7962 ] final    6.21 input  175.53 | X-H torsion
[ 8008 7997 7996 7995 ] final -137.89 input   59.86 | X-H torsion
[ 10167 10162 10161 10158 ] final -112.02 input  -65.29 | X-H torsion
[ 10718 10713 10712 10709 ] final -174.25 input   66.30 | X-H torsion
[ 10763 10752 10751 10750 ] final  162.85 input  -60.55 | X-H torsion
[ 11005 11000 10999 10996 ] final  162.08 input  -57.11 | X-H torsion

> <Gold.Protein.ActiveResidues>
 VAL166  LYS551  ARG553  GLY616  TRP617  ASP618  TYR619  PRO620  LYS621  CYS622 
 ASP623  PHE694  ASN695  SER759  ASP760  ASP761  ALA762  ILE779  LEU786  VAL792 
 PHE793  MET794  SER795  GLU796  ALA797  LYS798  CYS799  TRP800  GLU811  SER814 

> <Gold.Protein.RotatedAtoms>
  151.0617  134.9741  159.8263 H   0  0  0  0  0  0  0  0  0  0  0  0  # atno 6907 bound_to 6896
  152.5396  134.2409  159.8871 H   0  0  0  0  0  0  0  0  0  0  0  0  # atno 6908 bound_to 6896
  151.2429  133.4347  159.2642 H   0  0  0  0  0  0  0  0  0  0  0  0  # atno 6909 bound_to 6896
  146.2436  140.0268  142.8393 H   0  0  0  0  0  0  0  0  0  0  0  0  # atno 7974 bound_to 7965
  155.4194  140.0517  157.3026 H   0  0  0  0  0  0  0  0  0  0  0  0  # atno 8008 bound_to 7997
  154.4910  140.2120  155.9509 H   0  0  0  0  0  0  0  0  0  0  0  0  # atno 8009 bound_to 7997
  156.1341  140.3166  155.8399 H   0  0  0  0  0  0  0  0  0  0  0  0  # atno 8010 bound_to 7997
  140.1273  143.4391  152.1651 H   0  0  0  0  0  0  0  0  0  0  0  0  # atno 10167 bound_to 10162
  156.7823  130.9488  151.3120 H   0  0  0  0  0  0  0  0  0  0  0  0  # atno 10718 bound_to 10713
  154.2847  135.2762  155.2682 H   0  0  0  0  0  0  0  0  0  0  0  0  # atno 10763 bound_to 10752
  154.5187  135.5762  153.6667 H   0  0  0  0  0  0  0  0  0  0  0  0  # atno 10764 bound_to 10752
  152.9923  135.6199  154.3008 H   0  0  0  0  0  0  0  0  0  0  0  0  # atno 10765 bound_to 10752
  140.2222  134.8187  157.3232 H   0  0  0  0  0  0  0  0  0  0  0  0  # atno 11005 bound_to 11000
  145.1191  140.9451  143.4611 LP  0  0  0  0  0  0  0  0  0  0  0  0  # atno 17320 bound_to 7965
  145.0499  139.3190  143.5934 LP  0  0  0  0  0  0  0  0  0  0  0  0  # atno 17321 bound_to 7965
  139.5538  144.7357  151.4356 LP  0  0  0  0  0  0  0  0  0  0  0  0  # atno 17342 bound_to 10162
  140.6837  143.8022  150.7157 LP  0  0  0  0  0  0  0  0  0  0  0  0  # atno 17343 bound_to 10162
  157.6640  130.8991  149.9892 LP  0  0  0  0  0  0  0  0  0  0  0  0  # atno 17370 bound_to 10713
  156.1210  130.3646  149.9887 LP  0  0  0  0  0  0  0  0  0  0  0  0  # atno 17371 bound_to 10713
  140.1838  134.4457  155.7756 LP  0  0  0  0  0  0  0  0  0  0  0  0  # atno 17394 bound_to 11000
  141.2222  133.6995  156.7912 LP  0  0  0  0  0  0  0  0  0  0  0  0  # atno 17395 bound_to 11000

$$$$
