AV-unprocessed.smi:1213|AV-procd|sdf|5086|dock4
  -GOLD-   22720 4133D 1   1.00000     0.00000
 Structure written by MMmdl.
 37 38  0  0  0  0  0  0  0  0  2 V2000
  144.9565  138.1753  152.2080 N   0  0  0  0  0  0  0  0  0  0  0  0
  146.2612  138.2217  152.4871 C   0  0  0  0  0  0  0  0  0  0  0  0
  147.1104  138.4176  151.6194 O   0  0  0  0  0  0  0  0  0  0  0  0
  146.6631  137.9975  153.9491 C   0  0  0  0  0  0  0  0  0  0  0  0
  148.1285  137.8345  154.1335 N   0  3  2  0  0  0  0  0  0  0  0  0
  148.4617  137.0127  155.3248 C   0  0  0  0  0  0  0  0  0  0  0  0
  149.9744  136.7367  155.4085 C   0  0  0  0  0  0  0  0  0  0  0  0
  150.8033  138.0329  155.3882 C   0  0  2  0  0  0  0  0  0  0  0  0
  150.6600  138.7538  156.6530 N   0  0  0  0  0  0  0  0  0  0  0  0
  151.6527  139.3794  157.3030 C   0  0  0  0  0  0  0  0  0  0  0  0
  152.8126  139.4168  156.8922 O   0  0  0  0  0  0  0  0  0  0  0  0
  151.2101  139.9493  158.4376 N   0  0  0  0  0  0  0  0  0  0  0  0
  151.9476  140.7126  159.3806 C   0  0  0  0  0  0  0  0  0  0  0  0
  151.4866  141.8132  159.9860 N   0  0  0  0  0  0  0  0  0  0  0  0
  152.4243  142.3596  160.8659 C   0  0  0  0  0  0  0  0  0  0  0  0
  153.6018  141.6561  160.9195 C   0  0  0  0  0  0  0  0  0  0  0  0
  153.5804  140.2724  159.8592 S   0  0  0  0  0  0  0  0  0  0  0  0
  150.3846  138.8982  154.1825 C   0  0  0  0  0  0  0  0  0  0  0  0
  148.8639  139.1274  154.1389 C   0  0  0  0  0  0  0  0  0  0  0  0
  144.6429  138.3115  151.2571 H   0  0  0  0  0  0  0  0  0  0  0  0
  144.2848  137.9994  152.9413 H   0  0  0  0  0  0  0  0  0  0  0  0
  146.2944  138.8108  154.5766 H   0  0  0  0  0  0  0  0  0  0  0  0
  146.1497  137.0923  154.2762 H   0  0  0  0  0  0  0  0  0  0  0  0
  148.1157  137.5200  156.2266 H   0  0  0  0  0  0  0  0  0  0  0  0
  147.9308  136.0613  155.2747 H   0  0  0  0  0  0  0  0  0  0  0  0
  150.2016  136.1551  156.3031 H   0  0  0  0  0  0  0  0  0  0  0  0
  150.2672  136.1140  154.5619 H   0  0  0  0  0  0  0  0  0  0  0  0
  151.8541  137.7592  155.2765 H   0  0  0  0  0  0  0  0  0  0  0  0
  149.7404  138.7680  157.0694 H   0  0  0  0  0  0  0  0  0  0  0  0
  150.2307  139.8306  158.6497 H   0  0  0  0  0  0  0  0  0  0  0  0
  152.1695  143.2532  161.4161 H   0  0  0  0  0  0  0  0  0  0  0  0
  154.4768  141.8675  161.5160 H   0  0  0  0  0  0  0  0  0  0  0  0
  150.9068  139.8555  154.1937 H   0  0  0  0  0  0  0  0  0  0  0  0
  150.6940  138.4005  153.2624 H   0  0  0  0  0  0  0  0  0  0  0  0
  148.6180  139.7040  153.2469 H   0  0  0  0  0  0  0  0  0  0  0  0
  148.5472  139.7261  154.9944 H   0  0  0  0  0  0  0  0  0  0  0  0
  148.4538  137.3150  153.3302 H   0  0  0  0  0  0  0  0  0  0  0  0
  1  2  1  0  0  0  0
  1 20  1  0  0  0  0
  1 21  1  0  0  0  0
  2  3  2  0  0  0  0
  2  4  1  0  0  0  0
  4  5  1  0  0  0  0
  4 22  1  0  0  0  0
  4 23  1  0  0  0  0
  5 19  1  0  0  0  0
  5  6  1  0  0  0  0
  5 37  1  0  0  0  0
  6  7  1  0  0  0  0
  6 24  1  0  0  0  0
  6 25  1  0  0  0  0
  7  8  1  0  0  0  0
  7 26  1  0  0  0  0
  7 27  1  0  0  0  0
  8  9  1  0  0  0  0
  8 18  1  0  0  0  0
  8 28  1  0  0  0  0
  9 10  1  0  0  0  0
  9 29  1  0  0  0  0
 10 11  2  0  0  0  0
 10 12  1  0  0  0  0
 12 13  1  0  0  0  0
 12 30  1  0  0  0  0
 13 17  1  0  0  0  0
 13 14  2  0  0  0  0
 14 15  1  0  0  0  0
 15 16  2  0  0  0  0
 15 31  1  0  0  0  0
 16 17  1  0  0  0  0
 16 32  1  0  0  0  0
 18 19  1  0  0  0  0
 18 33  1  0  0  0  0
 18 34  1  0  0  0  0
 19 35  1  0  0  0  0
 19 36  1  0  0  0  0
M  CHG  1   5   1
M  END
> <s_m_source_file>
AV-unprocessed.smi

> <i_m_source_file_index>
1213

> <i_lp_mmshare_version>
43012

> <i_f3d_flags>
0

> <s_epik_input>
W05IMl1DKD1PKVtDSDJdTjFbQ0gyXVtDSDJdW0NIXShbQ0gyXVtDSDJdMSlbTkhdQyg9TylbTkhdYzJuW2NIXVtjSF1zMg==

> <s_epik_cmdline>
J2VwaWtfcHl0aG9uJywgJy1waCcsICc3LjAnLCAnLXRuJywgJzgnLCAnLW1hJywgJzIwMCcsICctbWV0YWxfYmluZGluZycsICctaW1hZScsICc8aW5maWxlLm1hZT4nLCAnLW9tYWUnLCAnPG91dGZpbGUubWFlPic=

> <r_lp_tautomer_probability>
0.999

> <r_epik_Ionization_Penalty>
0.86253

> <r_epik_Ionization_Penalty_Charging>
0.862349

> <r_epik_Ionization_Penalty_Neutral>
0.000180085

> <r_epik_State_Penalty>
0.898939

> <r_epik_Charging_Adjusted_Penalty>
1.76129

> <i_epik_Tot_Q>
1

> <i_epik_Tot_abs_Q>
1

> <r_epik_Metal_State_Penalty>
0.948529

> <b_epik_Metal_Only>
0

> <s_lp_Force_Field>
OPLS_2005

> <r_lp_Energy>
11.1317

> <b_lp_Chiralities_Consistent>
1

> <s_lp_Variant>
AV-unprocessed.smi:1213-3

> <Gold.Version>
5.8.1

> <Gold.Id.Protein>
6NUR|6NUR_protein|mol2

> <Gold.PLP.Fitness>
42.8197

> <Gold.PLP.PLP>
-29.6830

> <Gold.PLP.part.hbond>
-5.8385

> <Gold.PLP.part.metal>
0.0000

> <Gold.PLP.part.buried>
-4.4786

> <Gold.PLP.part.nonpolar>
-22.5177

> <Gold.PLP.part.repulsive>
3.3169

> <Gold.PLP.ligand.clash>
0.0000

> <Gold.PLP.ligand.torsion>
0.9483

> <Gold.PLP.Chemscore.Hbond>
5.0000

> <Gold.PLP.Chemscore.CHOScore>
0.0000

> <Gold.PLP.Chemscore.Metal>
0.0000

> <Gold.Chemscore.Hbonds>
donor molecule, donor type, donor heavy atom, donor atom, acceptor molecule, acceptor atom, score
      L1  H     1    20       P1 10171  1.00
      L1  H     5    37       P1  7948  2.00
      P1  H  7954  7966       L1     3  0.84
      P1  H  7997  8010       L1    11  1.00

> <Gold.PLP.Chemscore.Internal.Correction>
0.0334

> <Gold.Rescore>
     Score         DG    S(hbond)    S(metal)    S(lipo)     H(rot)  DE(clash)    DE(int)     intcor
     18.02     -20.50       3.97        0.00      60.09       2.06       1.60       0.89       ----

> <Gold.Chemscore.Fitness>
18.0173

> <Gold.Chemscore.DG>
-20.5039

> <Gold.Chemscore.ZeroCoef>
-5.4800

> <Gold.Chemscore.Hbond>
3.9746

> <Gold.Chemscore.Metal>
0.0000

> <Gold.Chemscore.Lipo>
60.0880

> <Gold.Chemscore.Internal_Hbond>
0.0000

> <Gold.Chemscore.DEClash>
1.5973

> <Gold.Chemscore.DEInternal>
0.8893

> <Gold.Chemscore.Rot>
2.0631

> <Gold.Chemscore.Internal.Correction>
   9.000000E+99

> <Gold.Chemscore.Hbonds>
donor molecule, donor type, donor heavy atom, donor atom, acceptor molecule, acceptor atom, score
      L1  H     1    20       P1 10171  1.00
      L1  H     5    37       P1  7948  1.00
      P1  H  7954  7966       L1     3  0.82
      P1  H  7997  8010       L1    11  1.00

> <Gold.Chemscore.Hbond.Weighted>
-13.2752

> <Gold.Chemscore.Metal.Weighted>
-0.0000

> <Gold.Chemscore.Lipo.Weighted>
-7.0303

> <Gold.Chemscore.Internal_Hbond.Weighted>
0.0000

> <Gold.Chemscore.DEClash.Weighted>
1.5973

> <Gold.Chemscore.DEInternal.Weighted>
0.8893

> <Gold.Chemscore.Rot.Weighted>
5.2816

> <Gold.Chemscore.Internal.Correction.Weighted>
   9.000000E+99

> <Gold.Protein.RotatedTorsions>
[ 6907 6896 6895 6894 ] final  -55.01 input  -60.11 | X-H torsion
[ 7974 7965 7964 7962 ] final  179.44 input  175.53 | X-H torsion
[ 8008 7997 7996 7995 ] final   63.43 input   59.86 | X-H torsion
[ 10167 10162 10161 10158 ] final -163.52 input  -65.29 | X-H torsion
[ 10718 10713 10712 10709 ] final -170.37 input   66.30 | X-H torsion
[ 10763 10752 10751 10750 ] final   17.78 input  -60.55 | X-H torsion
[ 11005 11000 10999 10996 ] final  -48.77 input  -57.11 | X-H torsion

> <Gold.Protein.ActiveResidues>
 VAL166  LYS551  ARG553  GLY616  TRP617  ASP618  TYR619  PRO620  LYS621  CYS622 
 ASP623  PHE694  ASN695  SER759  ASP760  ASP761  ALA762  ILE779  LEU786  VAL792 
 PHE793  MET794  SER795  GLU796  ALA797  LYS798  CYS799  TRP800  GLU811  SER814 

> <Gold.Protein.RotatedAtoms>
  150.8288  134.7532  159.6835 H   0  0  0  0  0  0  0  0  0  0  0  0  # atno 6907 bound_to 6896
  152.4396  134.5615  159.9905 H   0  0  0  0  0  0  0  0  0  0  0  0  # atno 6908 bound_to 6896
  151.5780  133.3343  159.3038 H   0  0  0  0  0  0  0  0  0  0  0  0  # atno 6909 bound_to 6896
  144.7145  140.0549  143.6434 H   0  0  0  0  0  0  0  0  0  0  0  0  # atno 7974 bound_to 7965
  155.6300  140.3496  155.4680 H   0  0  0  0  0  0  0  0  0  0  0  0  # atno 8008 bound_to 7997
  156.0010  140.1213  157.0571 H   0  0  0  0  0  0  0  0  0  0  0  0  # atno 8009 bound_to 7997
  154.4249  140.1100  156.5683 H   0  0  0  0  0  0  0  0  0  0  0  0  # atno 8010 bound_to 7997
  139.6314  144.0431  152.2019 H   0  0  0  0  0  0  0  0  0  0  0  0  # atno 10167 bound_to 10162
  156.7252  130.9285  151.3100 H   0  0  0  0  0  0  0  0  0  0  0  0  # atno 10718 bound_to 10713
  153.1308  135.6740  153.9181 H   0  0  0  0  0  0  0  0  0  0  0  0  # atno 10763 bound_to 10752
  153.8668  135.3074  155.3441 H   0  0  0  0  0  0  0  0  0  0  0  0  # atno 10764 bound_to 10752
  154.7705  135.4941  153.9722 H   0  0  0  0  0  0  0  0  0  0  0  0  # atno 10765 bound_to 10752
  141.0720  133.6676  156.3490 H   0  0  0  0  0  0  0  0  0  0  0  0  # atno 11005 bound_to 11000
  145.9913  139.3017  143.0983 LP  0  0  0  0  0  0  0  0  0  0  0  0  # atno 17320 bound_to 7965
  145.8900  140.9310  143.0557 LP  0  0  0  0  0  0  0  0  0  0  0  0  # atno 17321 bound_to 7965
  140.0098  144.6232  150.7657 LP  0  0  0  0  0  0  0  0  0  0  0  0  # atno 17342 bound_to 10162
  140.7441  143.2856  151.3473 LP  0  0  0  0  0  0  0  0  0  0  0  0  # atno 17343 bound_to 10162
  157.6881  130.9206  150.0441 LP  0  0  0  0  0  0  0  0  0  0  0  0  # atno 17370 bound_to 10713
  156.1567  130.3643  149.9359 LP  0  0  0  0  0  0  0  0  0  0  0  0  # atno 17371 bound_to 10713
  140.5652  134.5894  157.5444 LP  0  0  0  0  0  0  0  0  0  0  0  0  # atno 17394 bound_to 11000
  139.9533  134.7578  156.0398 LP  0  0  0  0  0  0  0  0  0  0  0  0  # atno 17395 bound_to 11000

$$$$
