AV-unprocessed.smi:1817|AV-procd|sdf|7372|dock1
  -GOLD-   22720 9 33D 1   1.00000     0.00000
 Structure written by MMmdl.
 42 43  0  0  0  0  0  0  0  0  1 V2000
  153.4318  142.0898  161.1354 C   0  0  0  0  0  0  0  0  0  0  0  0
  152.3072  142.8328  160.4002 C   0  0  0  0  0  0  0  0  0  0  0  0
  151.5866  142.0358  159.4091 N   0  0  0  0  0  0  0  0  0  0  0  0
  152.5096  141.4539  158.4378 C   0  0  0  0  0  0  0  0  0  0  0  0
  151.7736  140.5950  157.3934 C   0  0  0  0  0  0  0  0  0  0  0  0
  150.7727  141.3690  156.6465 N   0  0  0  0  0  0  0  0  0  0  0  0
  150.0679  140.5566  155.6310 C   0  0  2  0  0  0  0  0  0  0  0  0
  151.0189  139.7296  154.7364 C   0  0  0  0  0  0  0  0  0  0  0  0
  149.1202  141.3761  154.7161 C   0  0  0  0  0  0  0  0  0  0  0  0
  148.5922  140.5832  153.6074 N   0  0  0  0  0  0  0  0  0  0  0  0
  147.6939  139.5936  153.7106 C   0  0  0  0  0  0  0  0  0  0  0  0
  147.1861  139.2437  154.7759 O   0  0  0  0  0  0  0  0  0  0  0  0
  147.4368  139.0466  152.5115 N   0  0  0  0  0  0  0  0  0  0  0  0
  146.5505  137.9822  152.2107 C   0  0  0  0  0  0  0  0  0  0  0  0
  146.5540  137.4943  150.9645 N   0  0  0  0  0  0  0  0  0  0  0  0
  145.6401  136.4592  150.8080 N   0  0  0  0  0  0  0  0  0  0  0  0
  144.9824  136.2069  151.9438 C   0  0  0  0  0  0  0  0  0  0  0  0
  145.4130  137.2084  153.3186 S   0  0  0  0  0  0  0  0  0  0  0  0
  149.8554  141.9634  157.6289 C   0  0  0  0  0  0  0  0  0  0  0  0
  150.5952  142.8201  158.6729 C   0  0  0  0  0  0  0  0  0  0  0  0
  153.9861  142.7749  161.7770 H   0  0  0  0  0  0  0  0  0  0  0  0
  154.1397  141.6517  160.4311 H   0  0  0  0  0  0  0  0  0  0  0  0
  153.0478  141.2923  161.7708 H   0  0  0  0  0  0  0  0  0  0  0  0
  151.6059  143.2437  161.1281 H   0  0  0  0  0  0  0  0  0  0  0  0
  152.7570  143.6914  159.9002 H   0  0  0  0  0  0  0  0  0  0  0  0
  153.0688  142.2433  157.9326 H   0  0  0  0  0  0  0  0  0  0  0  0
  153.2442  140.8347  158.9539 H   0  0  0  0  0  0  0  0  0  0  0  0
  152.5262  140.1926  156.7172 H   0  0  0  0  0  0  0  0  0  0  0  0
  151.3003  139.7423  157.8830 H   0  0  0  0  0  0  0  0  0  0  0  0
  149.4382  139.8365  156.1560 H   0  0  0  0  0  0  0  0  0  0  0  0
  150.4766  139.2446  153.9244 H   0  0  0  0  0  0  0  0  0  0  0  0
  151.5108  138.9312  155.2910 H   0  0  0  0  0  0  0  0  0  0  0  0
  151.7923  140.3541  154.2884 H   0  0  0  0  0  0  0  0  0  0  0  0
  148.3090  141.8072  155.3051 H   0  0  0  0  0  0  0  0  0  0  0  0
  149.6371  142.2393  154.2986 H   0  0  0  0  0  0  0  0  0  0  0  0
  148.9609  140.7933  152.6913 H   0  0  0  0  0  0  0  0  0  0  0  0
  147.9326  139.4342  151.7222 H   0  0  0  0  0  0  0  0  0  0  0  0
  144.2379  135.4251  151.9719 H   0  0  0  0  0  0  0  0  0  0  0  0
  149.1318  142.6091  157.1343 H   0  0  0  0  0  0  0  0  0  0  0  0
  149.2862  141.1799  158.1315 H   0  0  0  0  0  0  0  0  0  0  0  0
  149.8602  143.2377  159.3601 H   0  0  0  0  0  0  0  0  0  0  0  0
  151.0770  143.6654  158.1787 H   0  0  0  0  0  0  0  0  0  0  0  0
  1  2  1  0  0  0  0
  1 21  1  0  0  0  0
  1 22  1  0  0  0  0
  1 23  1  0  0  0  0
  2  3  1  0  0  0  0
  2 24  1  0  0  0  0
  2 25  1  0  0  0  0
  3 20  1  0  0  0  0
  3  4  1  0  0  0  0
  4  5  1  0  0  0  0
  4 26  1  0  0  0  0
  4 27  1  0  0  0  0
  5  6  1  0  0  0  0
  5 28  1  0  0  0  0
  5 29  1  0  0  0  0
  6  7  1  0  0  0  0
  6 19  1  0  0  0  0
  7  8  1  0  0  0  0
  7  9  1  0  0  0  0
  7 30  1  0  0  0  0
  8 31  1  0  0  0  0
  8 32  1  0  0  0  0
  8 33  1  0  0  0  0
  9 10  1  0  0  0  0
  9 34  1  0  0  0  0
  9 35  1  0  0  0  0
 10 11  1  0  0  0  0
 10 36  1  0  0  0  0
 11 12  2  0  0  0  0
 11 13  1  0  0  0  0
 13 14  1  0  0  0  0
 13 37  1  0  0  0  0
 14 18  1  0  0  0  0
 14 15  2  0  0  0  0
 15 16  1  0  0  0  0
 16 17  2  0  0  0  0
 17 18  1  0  0  0  0
 17 38  1  0  0  0  0
 19 20  1  0  0  0  0
 19 39  1  0  0  0  0
 19 40  1  0  0  0  0
 20 41  1  0  0  0  0
 20 42  1  0  0  0  0
M  END
> <s_m_source_file>
AV-unprocessed.smi

> <i_m_source_file_index>
1817

> <i_lp_mmshare_version>
43012

> <i_f3d_flags>
0

> <s_epik_input>
W0NIM11bQ0gyXU4xW0NIMl1bQ0gyXU4oW0NIMl1bQ0gyXTEpW0NASF0oW0NIM10pW0NIMl1bTkhdQyg9TylbTkhdYzJubltjSF1zMg==

> <s_epik_cmdline>
J2VwaWtfcHl0aG9uJywgJy1waCcsICc3LjAnLCAnLXRuJywgJzgnLCAnLW1hJywgJzIwMCcsICctbWV0YWxfYmluZGluZycsICctaW1hZScsICc8aW5maWxlLm1hZT4nLCAnLW9tYWUnLCAnPG91dGZpbGUubWFlPic=

> <r_lp_tautomer_probability>
1

> <r_epik_Ionization_Penalty>
2.44129

> <r_epik_Ionization_Penalty_Charging>
0

> <r_epik_Ionization_Penalty_Neutral>
2.44129

> <r_epik_State_Penalty>
1.7682

> <r_epik_Charging_Adjusted_Penalty>
1.7682

> <i_epik_Tot_Q>
0

> <i_epik_Tot_abs_Q>
0

> <r_epik_Metal_State_Penalty>
2.10306

> <b_epik_Metal_Only>
0

> <s_lp_Force_Field>
OPLS_2005

> <r_lp_Energy>
42.0041

> <b_lp_Chiralities_Consistent>
1

> <s_lp_Variant>
AV-unprocessed.smi:1817-5

> <Gold.Version>
5.8.1

> <Gold.Id.Protein>
6NUR|6NUR_protein|mol2

> <Gold.PLP.Fitness>
40.0937

> <Gold.PLP.PLP>
-31.5615

> <Gold.PLP.part.hbond>
-3.4436

> <Gold.PLP.part.metal>
0.0000

> <Gold.PLP.part.buried>
-4.4034

> <Gold.PLP.part.nonpolar>
-28.4272

> <Gold.PLP.part.repulsive>
4.5868

> <Gold.PLP.ligand.clash>
0.0000

> <Gold.PLP.ligand.torsion>
0.2281

> <Gold.PLP.Chemscore.Hbond>
2.9760

> <Gold.PLP.Chemscore.CHOScore>
0.0000

> <Gold.PLP.Chemscore.Metal>
0.0000

> <Gold.Chemscore.Hbonds>
donor molecule, donor type, donor heavy atom, donor atom, acceptor molecule, acceptor atom, score
      L1  H    10    36       P1  7957  0.90
      L1  H    13    37       P1  7957  0.90
      P1  H  7954  7966       L1    15  1.00

> <Gold.PLP.Chemscore.Internal.Correction>
0.0604

> <Gold.Rescore>
     Score         DG    S(hbond)    S(metal)    S(lipo)     H(rot)  DE(clash)    DE(int)     intcor
     16.39     -19.20       2.79        0.00      78.73       1.87       1.91       0.91       ----

> <Gold.Chemscore.Fitness>
16.3896

> <Gold.Chemscore.DG>
-19.2024

> <Gold.Chemscore.ZeroCoef>
-5.4800

> <Gold.Chemscore.Hbond>
2.7864

> <Gold.Chemscore.Metal>
0.0000

> <Gold.Chemscore.Lipo>
78.7307

> <Gold.Chemscore.Internal_Hbond>
0.0000

> <Gold.Chemscore.DEClash>
1.9060

> <Gold.Chemscore.DEInternal>
0.9068

> <Gold.Chemscore.Rot>
1.8733

> <Gold.Chemscore.Internal.Correction>
   9.000000E+99

> <Gold.Chemscore.Hbonds>
donor molecule, donor type, donor heavy atom, donor atom, acceptor molecule, acceptor atom, score
      L1  H    10    36       P1  7957  0.87
      L1  H    13    37       P1  7957  0.88
      P1  H  7954  7966       L1    15  0.92

> <Gold.Chemscore.Hbond.Weighted>
-9.3066

> <Gold.Chemscore.Metal.Weighted>
-0.0000

> <Gold.Chemscore.Lipo.Weighted>
-9.2115

> <Gold.Chemscore.Internal_Hbond.Weighted>
0.0000

> <Gold.Chemscore.DEClash.Weighted>
1.9060

> <Gold.Chemscore.DEInternal.Weighted>
0.9068

> <Gold.Chemscore.Rot.Weighted>
4.7957

> <Gold.Chemscore.Internal.Correction.Weighted>
   9.000000E+99

> <Gold.Protein.RotatedTorsions>
[ 6907 6896 6895 6894 ] final  145.19 input  -60.11 | X-H torsion
[ 7974 7965 7964 7962 ] final -167.11 input  175.53 | X-H torsion
[ 8008 7997 7996 7995 ] final -171.36 input   59.86 | X-H torsion
[ 10167 10162 10161 10158 ] final  -49.73 input  -65.29 | X-H torsion
[ 10718 10713 10712 10709 ] final   63.27 input   66.30 | X-H torsion
[ 10763 10752 10751 10750 ] final -169.34 input  -60.55 | X-H torsion
[ 11005 11000 10999 10996 ] final   68.50 input  -57.11 | X-H torsion

> <Gold.Protein.ActiveResidues>
 VAL166  LYS551  ARG553  GLY616  TRP617  ASP618  TYR619  PRO620  LYS621  CYS622 
 ASP623  PHE694  ASN695  SER759  ASP760  ASP761  ALA762  ILE779  LEU786  VAL792 
 PHE793  MET794  SER795  GLU796  ALA797  LYS798  CYS799  TRP800  GLU811  SER814 

> <Gold.Protein.RotatedAtoms>
  152.1841  133.4727  159.4973 H   0  0  0  0  0  0  0  0  0  0  0  0  # atno 6907 bound_to 6896
  150.6939  134.1796  159.4252 H   0  0  0  0  0  0  0  0  0  0  0  0  # atno 6908 bound_to 6896
  151.9708  135.0077  160.0603 H   0  0  0  0  0  0  0  0  0  0  0  0  # atno 6909 bound_to 6896
  144.7230  140.2567  143.6271 H   0  0  0  0  0  0  0  0  0  0  0  0  # atno 7974 bound_to 7965
  155.9305  140.1090  157.1136 H   0  0  0  0  0  0  0  0  0  0  0  0  # atno 8008 bound_to 7997
  154.4070  140.1238  156.4862 H   0  0  0  0  0  0  0  0  0  0  0  0  # atno 8009 bound_to 7997
  155.7086  140.3471  155.4966 H   0  0  0  0  0  0  0  0  0  0  0  0  # atno 8010 bound_to 7997
  140.6671  143.2686  151.4258 H   0  0  0  0  0  0  0  0  0  0  0  0  # atno 10167 bound_to 10162
  157.5960  130.9096  149.9695 H   0  0  0  0  0  0  0  0  0  0  0  0  # atno 10718 bound_to 10713
  154.6533  135.2914  154.9959 H   0  0  0  0  0  0  0  0  0  0  0  0  # atno 10763 bound_to 10752
  154.1044  135.6572  153.4878 H   0  0  0  0  0  0  0  0  0  0  0  0  # atno 10764 bound_to 10752
  153.0388  135.5250  154.7451 H   0  0  0  0  0  0  0  0  0  0  0  0  # atno 10765 bound_to 10752
  139.9708  134.6904  156.0452 H   0  0  0  0  0  0  0  0  0  0  0  0  # atno 11005 bound_to 11000
  145.8175  139.2029  143.1957 LP  0  0  0  0  0  0  0  0  0  0  0  0  # atno 17320 bound_to 7965
  146.0542  140.8037  142.9766 LP  0  0  0  0  0  0  0  0  0  0  0  0  # atno 17321 bound_to 7965
  139.5924  144.1470  152.2104 LP  0  0  0  0  0  0  0  0  0  0  0  0  # atno 17342 bound_to 10162
  140.0829  144.5685  150.7109 LP  0  0  0  0  0  0  0  0  0  0  0  0  # atno 17343 bound_to 10162
  156.1022  130.3655  150.0197 LP  0  0  0  0  0  0  0  0  0  0  0  0  # atno 17370 bound_to 10713
  156.8310  130.9392  151.3637 LP  0  0  0  0  0  0  0  0  0  0  0  0  # atno 17371 bound_to 10713
  141.1387  133.6569  156.3667 LP  0  0  0  0  0  0  0  0  0  0  0  0  # atno 17394 bound_to 11000
  140.5298  134.6223  157.5346 LP  0  0  0  0  0  0  0  0  0  0  0  0  # atno 17395 bound_to 11000

$$$$
