AV-unprocessed.smi:3226|AV-procd|sdf|12314|dock6
  -GOLD-   2272018163D 1   1.00000     0.00000
 Structure written by MMmdl.
 41 43  0  0  0  0  0  0  0  0  2 V2000
  149.7423  136.6006  155.8612 C   0  0  0  0  0  0  0  0  0  0  0  0
  150.4619  136.9825  154.5630 C   0  0  0  0  0  0  0  0  0  0  0  0
  151.5203  138.0206  154.7753 C   0  0  0  0  0  0  0  0  0  0  0  0
  152.8183  137.8066  154.5286 N   0  0  0  0  0  0  0  0  0  0  0  0
  153.4545  138.9972  154.8165 N   0  0  0  0  0  0  0  0  0  0  0  0
  152.4760  139.8153  155.1989 C   0  0  0  0  0  0  0  0  0  0  0  0
  151.2485  139.2729  155.2008 N   0  0  0  0  0  0  0  0  0  0  0  0
  149.9878  139.8995  155.5607 C   0  0  0  0  0  0  0  0  0  0  0  0
  149.9456  141.3911  155.1905 C   0  0  0  0  0  0  0  0  0  0  0  0
  149.8308  142.2496  156.3870 N   0  3  0  0  0  0  0  0  0  0  0  0
  151.1135  142.4974  157.0735 C   0  0  0  0  0  0  0  0  0  0  0  0
  151.0893  143.8372  157.8329 C   0  0  1  0  0  0  0  0  0  0  0  0
  150.2430  143.8280  159.1442 C   0  0  0  0  0  0  0  0  0  0  0  0
  151.2371  144.3568  160.2038 C   0  0  1  0  0  0  0  0  0  0  0  0
  152.3028  143.3001  160.3982 C   0  0  0  0  0  0  0  0  0  0  0  0
  153.0435  143.2757  159.2890 C   0  0  0  0  0  0  0  0  0  0  0  0
  152.4750  144.3153  158.3427 C   0  0  2  0  0  0  0  0  0  0  0  0
  152.0174  145.3690  159.3585 C   0  0  0  0  0  0  0  0  0  0  0  0
  148.9757  135.8484  155.6742 H   0  0  0  0  0  0  0  0  0  0  0  0
  149.2565  137.4670  156.3112 H   0  0  0  0  0  0  0  0  0  0  0  0
  150.4395  136.1905  156.5923 H   0  0  0  0  0  0  0  0  0  0  0  0
  150.8998  136.0968  154.1034 H   0  0  0  0  0  0  0  0  0  0  0  0
  149.7370  137.3689  153.8456 H   0  0  0  0  0  0  0  0  0  0  0  0
  152.6608  140.8392  155.4889 H   0  0  0  0  0  0  0  0  0  0  0  0
  149.1763  139.3618  155.0683 H   0  0  0  0  0  0  0  0  0  0  0  0
  149.8317  139.7751  156.6325 H   0  0  0  0  0  0  0  0  0  0  0  0
  150.8591  141.6537  154.6556 H   0  0  0  0  0  0  0  0  0  0  0  0
  149.1131  141.5944  154.5157 H   0  0  0  0  0  0  0  0  0  0  0  0
  149.4374  143.1376  156.1095 H   0  0  0  0  0  0  0  0  0  0  0  0
  151.3217  141.6696  157.7524 H   0  0  0  0  0  0  0  0  0  0  0  0
  151.9122  142.5122  156.3309 H   0  0  0  0  0  0  0  0  0  0  0  0
  150.6937  144.6037  157.1638 H   0  0  0  0  0  0  0  0  0  0  0  0
  149.3809  144.4898  159.0503 H   0  0  0  0  0  0  0  0  0  0  0  0
  149.8717  142.8357  159.4043 H   0  0  0  0  0  0  0  0  0  0  0  0
  150.8031  144.7468  161.1249 H   0  0  0  0  0  0  0  0  0  0  0  0
  152.3991  142.6744  161.2734 H   0  0  0  0  0  0  0  0  0  0  0  0
  153.8751  142.6248  159.0629 H   0  0  0  0  0  0  0  0  0  0  0  0
  153.1709  144.6747  157.5842 H   0  0  0  0  0  0  0  0  0  0  0  0
  151.3978  146.1600  158.9313 H   0  0  0  0  0  0  0  0  0  0  0  0
  152.8471  145.8272  159.9010 H   0  0  0  0  0  0  0  0  0  0  0  0
  149.2013  141.8074  157.0416 H   0  0  0  0  0  0  0  0  0  0  0  0
  1  2  1  0  0  0  0
  1 19  1  0  0  0  0
  1 20  1  0  0  0  0
  1 21  1  0  0  0  0
  2  3  1  0  0  0  0
  2 22  1  0  0  0  0
  2 23  1  0  0  0  0
  3  7  1  0  0  0  0
  3  4  2  0  0  0  0
  4  5  1  0  0  0  0
  5  6  2  0  0  0  0
  6  7  1  0  0  0  0
  6 24  1  0  0  0  0
  7  8  1  0  0  0  0
  8  9  1  0  0  0  0
  8 25  1  0  0  0  0
  8 26  1  0  0  0  0
  9 10  1  0  0  0  0
  9 27  1  0  0  0  0
  9 28  1  0  0  0  0
 10 11  1  0  0  0  0
 10 29  1  0  0  0  0
 10 41  1  0  0  0  0
 11 12  1  0  0  0  0
 11 30  1  0  0  0  0
 11 31  1  0  0  0  0
 12 17  1  0  0  0  0
 12 13  1  0  0  0  0
 12 32  1  0  0  0  0
 13 14  1  0  0  0  0
 13 33  1  0  0  0  0
 13 34  1  0  0  0  0
 14 18  1  0  0  0  0
 14 15  1  0  0  0  0
 14 35  1  0  0  0  0
 15 16  2  0  0  0  0
 15 36  1  0  0  0  0
 16 17  1  0  0  0  0
 16 37  1  0  0  0  0
 17 18  1  0  0  0  0
 17 38  1  0  0  0  0
 18 39  1  0  0  0  0
 18 40  1  0  0  0  0
M  CHG  1  10   1
M  END
> <s_m_source_file>
AV-unprocessed.smi

> <i_m_source_file_index>
3226

> <i_lp_mmshare_version>
43012

> <i_f3d_flags>
0

> <s_epik_input>
W0NIM11bQ0gyXWMxbm5bY0hdbjFbQ0gyXVtDSDJdW05IXVtDSDJdW0NASF0oW0NIMl1bQ0BASF0yMylbQ0BASF0oW0NIMl0zKVtDSF09W0NIXTI=

> <s_epik_cmdline>
J2VwaWtfcHl0aG9uJywgJy1waCcsICc3LjAnLCAnLXRuJywgJzgnLCAnLW1hJywgJzIwMCcsICctbWV0YWxfYmluZGluZycsICctaW1hZScsICc8aW5maWxlLm1hZT4nLCAnLW9tYWUnLCAnPG91dGZpbGUubWFlPic=

> <r_lp_tautomer_probability>
1

> <r_epik_Ionization_Penalty>
0.00175008

> <r_epik_Ionization_Penalty_Charging>
0.00173932

> <r_epik_Ionization_Penalty_Neutral>
1.07546e-05

> <r_epik_State_Penalty>
-0

> <r_epik_Charging_Adjusted_Penalty>
0.00173932

> <i_epik_Tot_Q>
1

> <i_epik_Tot_abs_Q>
1

> <r_epik_Metal_State_Penalty>
-0

> <b_epik_Metal_Only>
0

> <s_lp_Force_Field>
OPLS_2005

> <r_lp_Energy>
65.2823

> <b_lp_Chiralities_Consistent>
1

> <s_lp_Variant>
AV-unprocessed.smi:3226-2

> <Gold.Version>
5.8.1

> <Gold.Id.Protein>
6NUR|6NUR_protein|mol2

> <Gold.PLP.Fitness>
50.8565

> <Gold.PLP.PLP>
-44.5812

> <Gold.PLP.part.hbond>
-3.0000

> <Gold.PLP.part.metal>
0.0000

> <Gold.PLP.part.buried>
-2.2595

> <Gold.PLP.part.nonpolar>
-40.3393

> <Gold.PLP.part.repulsive>
0.1293

> <Gold.PLP.ligand.clash>
0.0000

> <Gold.PLP.ligand.torsion>
1.0886

> <Gold.PLP.Chemscore.Hbond>
2.8035

> <Gold.PLP.Chemscore.CHOScore>
0.0000

> <Gold.PLP.Chemscore.Metal>
0.0000

> <Gold.Chemscore.Hbonds>
donor molecule, donor type, donor heavy atom, donor atom, acceptor molecule, acceptor atom, score
      L1  H    10    29       P1  8028  2.00
      P1  H  7997  8010       L1     5  0.42
      P1  H 10752 10764       L1     4  0.30

> <Gold.PLP.Chemscore.Internal.Correction>
0.0423

> <Gold.Rescore>
     Score         DG    S(hbond)    S(metal)    S(lipo)     H(rot)  DE(clash)    DE(int)     intcor
     18.13     -19.28       1.77        0.00     112.56       2.06       0.05       1.10       ----

> <Gold.Chemscore.Fitness>
18.1290

> <Gold.Chemscore.DG>
-19.2774

> <Gold.Chemscore.ZeroCoef>
-5.4800

> <Gold.Chemscore.Hbond>
1.7686

> <Gold.Chemscore.Metal>
0.0000

> <Gold.Chemscore.Lipo>
112.5626

> <Gold.Chemscore.Internal_Hbond>
0.0000

> <Gold.Chemscore.DEClash>
0.0482

> <Gold.Chemscore.DEInternal>
1.1001

> <Gold.Chemscore.Rot>
2.0623

> <Gold.Chemscore.Internal.Correction>
   9.000000E+99

> <Gold.Chemscore.Hbonds>
donor molecule, donor type, donor heavy atom, donor atom, acceptor molecule, acceptor atom, score
      L1  H    10    29       P1  8028  1.00
      P1  H  7997  8010       L1     5  0.02
      P1  H 10752 10764       L1     4  0.15

> <Gold.Chemscore.Hbond.Weighted>
-5.9071

> <Gold.Chemscore.Metal.Weighted>
-0.0000

> <Gold.Chemscore.Lipo.Weighted>
-13.1698

> <Gold.Chemscore.Internal_Hbond.Weighted>
0.0000

> <Gold.Chemscore.DEClash.Weighted>
0.0482

> <Gold.Chemscore.DEInternal.Weighted>
1.1001

> <Gold.Chemscore.Rot.Weighted>
5.2796

> <Gold.Chemscore.Internal.Correction.Weighted>
   9.000000E+99

> <Gold.Protein.RotatedTorsions>
[ 6907 6896 6895 6894 ] final  -98.62 input  -60.11 | X-H torsion
[ 7974 7965 7964 7962 ] final   99.13 input  175.53 | X-H torsion
[ 8008 7997 7996 7995 ] final  133.67 input   59.86 | X-H torsion
[ 10167 10162 10161 10158 ] final   43.26 input  -65.29 | X-H torsion
[ 10718 10713 10712 10709 ] final  151.80 input   66.30 | X-H torsion
[ 10763 10752 10751 10750 ] final  -79.10 input  -60.55 | X-H torsion
[ 11005 11000 10999 10996 ] final  -42.74 input  -57.11 | X-H torsion

> <Gold.Protein.ActiveResidues>
 VAL166  LYS551  ARG553  GLY616  TRP617  ASP618  TYR619  PRO620  LYS621  CYS622 
 ASP623  PHE694  ASN695  SER759  ASP760  ASP761  ALA762  ILE779  LEU786  VAL792 
 PHE793  MET794  SER795  GLU796  ALA797  LYS798  CYS799  TRP800  GLU811  SER814 

> <Gold.Protein.RotatedAtoms>
  150.7053  134.1166  159.4019 H   0  0  0  0  0  0  0  0  0  0  0  0  # atno 6907 bound_to 6896
  151.9152  135.0319  160.0527 H   0  0  0  0  0  0  0  0  0  0  0  0  # atno 6908 bound_to 6896
  152.2302  133.5017  159.5248 H   0  0  0  0  0  0  0  0  0  0  0  0  # atno 6909 bound_to 6896
  145.4029  139.2345  143.3290 H   0  0  0  0  0  0  0  0  0  0  0  0  # atno 7974 bound_to 7965
  156.2994  140.2515  156.3291 H   0  0  0  0  0  0  0  0  0  0  0  0  # atno 8008 bound_to 7997
  154.9162  140.0402  157.1992 H   0  0  0  0  0  0  0  0  0  0  0  0  # atno 8009 bound_to 7997
  154.8356  140.2882  155.5697 H   0  0  0  0  0  0  0  0  0  0  0  0  # atno 8010 bound_to 7997
  140.3461  144.2409  150.6150 H   0  0  0  0  0  0  0  0  0  0  0  0  # atno 10167 bound_to 10162
  157.2660  131.0807  151.1633 H   0  0  0  0  0  0  0  0  0  0  0  0  # atno 10718 bound_to 10713
  154.5343  135.5707  153.6785 H   0  0  0  0  0  0  0  0  0  0  0  0  # atno 10763 bound_to 10752
  152.9947  135.6212  154.2587 H   0  0  0  0  0  0  0  0  0  0  0  0  # atno 10764 bound_to 10752
  154.2514  135.2859  155.2794 H   0  0  0  0  0  0  0  0  0  0  0  0  # atno 10765 bound_to 10752
  141.0336  133.6809  156.2636 H   0  0  0  0  0  0  0  0  0  0  0  0  # atno 11005 bound_to 11000
  146.2743  140.4729  142.8802 LP  0  0  0  0  0  0  0  0  0  0  0  0  # atno 17320 bound_to 7965
  144.8361  140.6785  143.6259 LP  0  0  0  0  0  0  0  0  0  0  0  0  # atno 17321 bound_to 7965
  140.5263  143.2253  151.8309 LP  0  0  0  0  0  0  0  0  0  0  0  0  # atno 17342 bound_to 10162
  139.4833  144.4775  151.9348 LP  0  0  0  0  0  0  0  0  0  0  0  0  # atno 17343 bound_to 10162
  157.3124  130.6896  149.6223 LP  0  0  0  0  0  0  0  0  0  0  0  0  # atno 17370 bound_to 10713
  155.9663  130.4359  150.5113 LP  0  0  0  0  0  0  0  0  0  0  0  0  # atno 17371 bound_to 10713
  140.6362  134.5213  157.5565 LP  0  0  0  0  0  0  0  0  0  0  0  0  # atno 17394 bound_to 11000
  139.9225  134.8121  156.1168 LP  0  0  0  0  0  0  0  0  0  0  0  0  # atno 17395 bound_to 11000

$$$$
