AV-unprocessed.smi:287|AV-procd|sdf|2180|dock8
  -GOLD-   2262021553D 1   1.00000     0.00000
 Structure written by MMmdl.
 55 58  0  0  0  0  0  0  0  0  1 V2000
  145.5483  143.6852  153.8277 C   0  0  0  0  0  0  0  0  0  0  0  0
  146.4987  142.6580  154.3396 C   0  0  0  0  0  0  0  0  0  0  0  0
  147.3827  141.8083  153.7413 C   0  0  0  0  0  0  0  0  0  0  0  0
  148.0190  141.0577  154.7745 C   0  0  0  0  0  0  0  0  0  0  0  0
  149.0793  139.9830  154.5747 C   0  0  2  0  0  0  0  0  0  0  0  0
  149.7822  139.6921  155.9109 C   0  0  0  0  0  0  0  0  0  0  0  0
  150.1079  140.3829  153.6898 O   0  0  0  0  0  0  0  0  0  0  0  0
  148.4948  138.6784  153.9863 C   0  0  0  0  0  0  0  0  0  0  0  0
  147.2476  138.2747  154.6274 N   0  0  0  0  0  0  0  0  0  0  0  0
  146.8576  136.9832  154.6008 C   0  0  0  0  0  0  0  0  0  0  0  0
  146.9950  136.1871  155.6936 N   0  0  0  0  0  0  0  0  0  0  0  0
  146.5988  134.9111  155.6439 C   0  0  0  0  0  0  0  0  0  0  0  0
  146.0502  134.2457  154.6244 N   0  0  0  0  0  0  0  0  0  0  0  0
  145.9133  135.0438  153.5261 C   0  0  0  0  0  0  0  0  0  0  0  0
  146.2898  136.4116  153.4333 C   0  0  0  0  0  0  0  0  0  0  0  0
  145.9992  136.8937  152.1635 N   0  0  0  0  0  0  0  0  0  0  0  0
  145.4817  135.8655  151.5454 C   0  0  0  0  0  0  0  0  0  0  0  0
  145.3991  134.7088  152.2931 N   0  0  0  0  0  0  0  0  0  0  0  0
  144.8655  133.3606  151.9112 C   0  0  1  0  0  0  0  0  0  0  0  0
  144.0334  133.5164  150.8001 O   0  0  0  0  0  0  0  0  0  0  0  0
  144.7210  133.1086  149.6224 C   0  0  2  0  0  0  0  0  0  0  0  0
  143.7099  132.7775  148.5146 C   0  0  0  0  0  0  0  0  0  0  0  0
  143.3797  133.9492  147.7998 O   0  0  0  0  0  0  0  0  0  0  0  0
  145.4934  131.8950  150.1385 C   0  0  1  0  0  0  0  0  0  0  0  0
  146.5375  131.4953  149.2701 O   0  0  0  0  0  0  0  0  0  0  0  0
  145.9835  132.3691  151.5051 C   0  0  1  0  0  0  0  0  0  0  0  0
  147.2773  132.9519  151.4387 O   0  0  0  0  0  0  0  0  0  0  0  0
  147.4517  141.5151  155.9398 C   0  0  0  0  0  0  0  0  0  0  0  0
  147.6283  141.1753  157.3834 C   0  0  0  0  0  0  0  0  0  0  0  0
  146.5317  142.4871  155.6849 O   0  0  0  0  0  0  0  0  0  0  0  0
  144.2835  133.0395  152.7759 H   0  0  0  0  0  0  0  0  0  0  0  0
  145.4202  133.8842  149.3030 H   0  0  0  0  0  0  0  0  0  0  0  0
  144.8070  131.0580  150.2757 H   0  0  0  0  0  0  0  0  0  0  0  0
  146.0142  131.5451  152.2187 H   0  0  0  0  0  0  0  0  0  0  0  0
  145.6971  143.8558  152.7613 H   0  0  0  0  0  0  0  0  0  0  0  0
  145.6887  144.6350  154.3442 H   0  0  0  0  0  0  0  0  0  0  0  0
  144.5170  143.3661  153.9783 H   0  0  0  0  0  0  0  0  0  0  0  0
  147.5582  141.7345  152.6783 H   0  0  0  0  0  0  0  0  0  0  0  0
  149.0741  139.3365  156.6606 H   0  0  0  0  0  0  0  0  0  0  0  0
  150.2598  140.5878  156.3109 H   0  0  0  0  0  0  0  0  0  0  0  0
  150.5523  138.9275  155.8011 H   0  0  0  0  0  0  0  0  0  0  0  0
  149.7904  140.2978  152.8040 H   0  0  0  0  0  0  0  0  0  0  0  0
  148.3587  138.7651  152.9070 H   0  0  0  0  0  0  0  0  0  0  0  0
  149.2122  137.8722  154.1462 H   0  0  0  0  0  0  0  0  0  0  0  0
  146.7388  139.0022  155.1097 H   0  0  0  0  0  0  0  0  0  0  0  0
  146.7427  134.3420  156.5502 H   0  0  0  0  0  0  0  0  0  0  0  0
  145.1440  135.9309  150.5214 H   0  0  0  0  0  0  0  0  0  0  0  0
  144.1467  132.0745  147.8049 H   0  0  0  0  0  0  0  0  0  0  0  0
  142.8111  132.3126  148.9206 H   0  0  0  0  0  0  0  0  0  0  0  0
  144.1785  134.3467  147.4885 H   0  0  0  0  0  0  0  0  0  0  0  0
  147.2628  131.1911  149.7942 H   0  0  0  0  0  0  0  0  0  0  0  0
  147.8810  132.3006  151.1152 H   0  0  0  0  0  0  0  0  0  0  0  0
  147.4605  140.1118  157.5531 H   0  0  0  0  0  0  0  0  0  0  0  0
  146.9275  141.7289  158.0087 H   0  0  0  0  0  0  0  0  0  0  0  0
  148.6376  141.4171  157.7159 H   0  0  0  0  0  0  0  0  0  0  0  0
  1  2  1  0  0  0  0
  1 35  1  0  0  0  0
  1 36  1  0  0  0  0
  1 37  1  0  0  0  0
  2 30  1  0  0  0  0
  2  3  2  0  0  0  0
  3  4  1  0  0  0  0
  3 38  1  0  0  0  0
  4  5  1  0  0  0  0
  4 28  2  0  0  0  0
  5  6  1  0  0  0  0
  5  7  1  0  0  0  0
  5  8  1  0  0  0  0
  6 39  1  0  0  0  0
  6 40  1  0  0  0  0
  6 41  1  0  0  0  0
  7 42  1  0  0  0  0
  8  9  1  0  0  0  0
  8 43  1  0  0  0  0
  8 44  1  0  0  0  0
  9 10  1  0  0  0  0
  9 45  1  0  0  0  0
 10 15  1  0  0  0  0
 10 11  2  0  0  0  0
 11 12  1  0  0  0  0
 12 13  2  0  0  0  0
 12 46  1  0  0  0  0
 13 14  1  0  0  0  0
 14 18  1  0  0  0  0
 14 15  2  0  0  0  0
 15 16  1  0  0  0  0
 16 17  2  0  0  0  0
 17 18  1  0  0  0  0
 17 47  1  0  0  0  0
 18 19  1  0  0  0  0
 19 31  1  0  0  0  0
 19 26  1  0  0  0  0
 19 20  1  0  0  0  0
 20 21  1  0  0  0  0
 21 32  1  0  0  0  0
 21 22  1  0  0  0  0
 21 24  1  0  0  0  0
 22 23  1  0  0  0  0
 22 48  1  0  0  0  0
 22 49  1  0  0  0  0
 23 50  1  0  0  0  0
 24 33  1  0  0  0  0
 24 25  1  0  0  0  0
 24 26  1  0  0  0  0
 25 51  1  0  0  0  0
 26 34  1  0  0  0  0
 26 27  1  0  0  0  0
 27 52  1  0  0  0  0
 28 29  1  0  0  0  0
 28 30  1  0  0  0  0
 29 53  1  0  0  0  0
 29 54  1  0  0  0  0
 29 55  1  0  0  0  0
M  END
> <s_m_source_file>
AV-unprocessed.smi

> <i_m_source_file_index>
287

> <i_lp_mmshare_version>
43012

> <i_f3d_flags>
0

> <s_epik_input>
W0NIM11jMVtjSF1jKGMobzEpW0NIM10pW0NAQF0oW0NIM10pKFtPSF0pW0NIMl1bTkhdYyhuW2NIXW4yKWMoYzIzKW5bY0hdbjNbQ0BASF00T1tDQEhdKFtDSDJdW09IXSlbQ0BASF0oW09IXSlbQ0BIXTRbT0hd

> <s_epik_cmdline>
J2VwaWtfcHl0aG9uJywgJy1waCcsICc3LjAnLCAnLXRuJywgJzgnLCAnLW1hJywgJzIwMCcsICctbWV0YWxfYmluZGluZycsICctaW1hZScsICc8aW5maWxlLm1hZT4nLCAnLW9tYWUnLCAnPG91dGZpbGUubWFlPic=

> <r_lp_tautomer_probability>
1

> <r_epik_Ionization_Penalty>
0.000992612

> <r_epik_Ionization_Penalty_Charging>
0

> <r_epik_Ionization_Penalty_Neutral>
0.000992612

> <r_epik_State_Penalty>
-0

> <r_epik_Charging_Adjusted_Penalty>
0

> <i_epik_Tot_Q>
0

> <i_epik_Tot_abs_Q>
0

> <r_epik_Metal_State_Penalty>
-0

> <b_epik_Metal_Only>
0

> <s_epik_Chemistry_Notes>
This compound contains an acetal/aminal-like group ( X-CH(R)-Y where X, Y are N, S, or O) that may be acid/base labile, releasing an aldehyde.

> <s_lp_Force_Field>
OPLS_2005

> <r_lp_Energy>
46.7929

> <b_lp_Chiralities_Consistent>
1

> <s_lp_Variant>
AV-unprocessed.smi:287-4

> <Gold.Version>
5.8.1

> <Gold.Id.Protein>
6NUR|6NUR_protein|mol2

> <Gold.PLP.Fitness>
59.4350

> <Gold.PLP.PLP>
-47.1069

> <Gold.PLP.part.hbond>
-7.7369

> <Gold.PLP.part.metal>
0.0000

> <Gold.PLP.part.buried>
-8.5748

> <Gold.PLP.part.nonpolar>
-32.5494

> <Gold.PLP.part.repulsive>
1.1162

> <Gold.PLP.ligand.clash>
0.0000

> <Gold.PLP.ligand.torsion>
2.3845

> <Gold.PLP.Chemscore.Hbond>
5.6384

> <Gold.PLP.Chemscore.CHOScore>
0.0000

> <Gold.PLP.Chemscore.Metal>
0.0000

> <Gold.Chemscore.Hbonds>
donor molecule, donor type, donor heavy atom, donor atom, acceptor molecule, acceptor atom, score
      L1  H     7    42       P1  7957  1.00
      L1  H    23    50       P1  7921  1.00
      L1  H    25    51       P1 10747  1.00
      L1  H    27    52       P1 10747  1.00
      P1  H  7989  7998       L1     7  0.66
      P1  H 10192 10197       L1    23  1.00

> <Gold.PLP.Chemscore.Internal.Correction>
0.1819

> <Gold.Rescore>
     Score         DG    S(hbond)    S(metal)    S(lipo)     H(rot)  DE(clash)    DE(int)     intcor
     15.33     -19.91       5.19        0.00      90.56       5.27       1.06       3.53       ----

> <Gold.Chemscore.Fitness>
15.3285

> <Gold.Chemscore.DG>
-19.9144

> <Gold.Chemscore.ZeroCoef>
-5.4800

> <Gold.Chemscore.Hbond>
5.1864

> <Gold.Chemscore.Metal>
0.0000

> <Gold.Chemscore.Lipo>
90.5625

> <Gold.Chemscore.Internal_Hbond>
0.0000

> <Gold.Chemscore.DEClash>
1.0606

> <Gold.Chemscore.DEInternal>
3.5253

> <Gold.Chemscore.Rot>
5.2672

> <Gold.Chemscore.Internal.Correction>
   9.000000E+99

> <Gold.Chemscore.Hbonds>
donor molecule, donor type, donor heavy atom, donor atom, acceptor molecule, acceptor atom, score
      L1  H     7    42       P1  7957  1.00
      L1  H    23    50       P1  7921  0.96
      L1  H    25    51       P1 10747  0.99
      L1  H    27    52       P1 10747  0.97
      P1  H  7989  7998       L1     7  0.23
      P1  H 10192 10197       L1    23  0.39

> <Gold.Chemscore.Hbond.Weighted>
-17.3225

> <Gold.Chemscore.Metal.Weighted>
-0.0000

> <Gold.Chemscore.Lipo.Weighted>
-10.5958

> <Gold.Chemscore.Internal_Hbond.Weighted>
0.0000

> <Gold.Chemscore.DEClash.Weighted>
1.0606

> <Gold.Chemscore.DEInternal.Weighted>
3.5253

> <Gold.Chemscore.Rot.Weighted>
13.4839

> <Gold.Chemscore.Internal.Correction.Weighted>
   9.000000E+99

> <Gold.Protein.RotatedTorsions>
[ 6907 6896 6895 6894 ] final  115.46 input  -60.11 | X-H torsion
[ 7974 7965 7964 7962 ] final  113.10 input  175.53 | X-H torsion
[ 8008 7997 7996 7995 ] final   67.22 input   59.86 | X-H torsion
[ 10167 10162 10161 10158 ] final  153.51 input  -65.29 | X-H torsion
[ 10718 10713 10712 10709 ] final   21.09 input   66.30 | X-H torsion
[ 10763 10752 10751 10750 ] final  178.54 input  -60.55 | X-H torsion
[ 11005 11000 10999 10996 ] final  -99.12 input  -57.11 | X-H torsion

> <Gold.Protein.ActiveResidues>
 VAL166  LYS551  ARG553  GLY616  TRP617  ASP618  TYR619  PRO620  LYS621  CYS622 
 ASP623  PHE694  ASN695  SER759  ASP760  ASP761  ALA762  ILE779  LEU786  VAL792 
 PHE793  MET794  SER795  GLU796  ALA797  LYS798  CYS799  TRP800  GLU811  SER814 

> <Gold.Protein.RotatedAtoms>
  152.4740  133.8095  159.6995 H   0  0  0  0  0  0  0  0  0  0  0  0  # atno 6907 bound_to 6896
  150.8746  133.7448  159.2957 H   0  0  0  0  0  0  0  0  0  0  0  0  # atno 6908 bound_to 6896
  151.4972  135.1063  159.9871 H   0  0  0  0  0  0  0  0  0  0  0  0  # atno 6909 bound_to 6896
  145.2212  139.2861  143.4217 H   0  0  0  0  0  0  0  0  0  0  0  0  # atno 7974 bound_to 7965
  155.6894  140.3496  155.4887 H   0  0  0  0  0  0  0  0  0  0  0  0  # atno 8008 bound_to 7997
  155.9537  140.1124  157.0977 H   0  0  0  0  0  0  0  0  0  0  0  0  # atno 8009 bound_to 7997
  154.4127  140.1189  156.5073 H   0  0  0  0  0  0  0  0  0  0  0  0  # atno 8010 bound_to 7997
  139.4827  144.5267  151.7790 H   0  0  0  0  0  0  0  0  0  0  0  0  # atno 10167 bound_to 10162
  157.1336  130.6601  149.5959 H   0  0  0  0  0  0  0  0  0  0  0  0  # atno 10718 bound_to 10713
  154.5090  135.2787  155.1358 H   0  0  0  0  0  0  0  0  0  0  0  0  # atno 10763 bound_to 10752
  154.2961  135.6257  153.5409 H   0  0  0  0  0  0  0  0  0  0  0  0  # atno 10764 bound_to 10752
  152.9915  135.5685  154.5551 H   0  0  0  0  0  0  0  0  0  0  0  0  # atno 10765 bound_to 10752
  141.1320  133.8297  157.0929 H   0  0  0  0  0  0  0  0  0  0  0  0  # atno 11005 bound_to 11000
  146.3375  140.2519  142.8599 LP  0  0  0  0  0  0  0  0  0  0  0  0  # atno 17320 bound_to 7965
  144.9763  140.8417  143.5424 LP  0  0  0  0  0  0  0  0  0  0  0  0  # atno 17321 bound_to 7965
  140.4788  144.1481  150.5929 LP  0  0  0  0  0  0  0  0  0  0  0  0  # atno 17342 bound_to 10162
  140.4301  143.2572  151.9606 LP  0  0  0  0  0  0  0  0  0  0  0  0  # atno 17343 bound_to 10162
  155.9803  130.4802  150.6764 LP  0  0  0  0  0  0  0  0  0  0  0  0  # atno 17370 bound_to 10713
  157.4371  131.0856  151.0981 LP  0  0  0  0  0  0  0  0  0  0  0  0  # atno 17371 bound_to 10713
  140.0381  134.9868  157.0909 LP  0  0  0  0  0  0  0  0  0  0  0  0  # atno 17394 bound_to 11000
  140.4179  134.1912  155.7164 LP  0  0  0  0  0  0  0  0  0  0  0  0  # atno 17395 bound_to 11000

$$$$
