AV-unprocessed.smi:1579|AV-procd|sdf|6354|dock8
  -GOLD-   22720 6573D 1   1.00000     0.00000
 Structure written by MMmdl.
 47 48  0  0  0  0  0  0  0  0  2 V2000
  150.1849  138.7615  154.2193 C   0  0  0  0  0  0  0  0  0  0  0  0
  149.9360  137.7126  155.2696 C   0  0  0  0  0  0  0  0  0  0  0  0
  149.9621  136.4811  154.8777 N   0  0  0  0  0  0  0  0  0  0  0  0
  149.7438  135.4398  155.7584 N   0  0  0  0  0  0  0  0  0  0  0  0
  149.8004  134.1124  155.1308 C   0  0  0  0  0  0  0  0  0  0  0  0
  148.6618  133.8900  154.1114 C   0  0  2  0  0  0  0  0  0  0  0  0
  147.4605  133.7547  154.8451 O   0  0  0  0  0  0  0  0  0  0  0  0
  148.8623  132.6328  153.2356 C   0  0  0  0  0  0  0  0  0  0  0  0
  147.7231  132.3703  152.3191 N   0  3  2  0  0  0  0  0  0  0  0  0
  147.1611  133.6260  151.7579 C   0  0  0  0  0  0  0  0  0  0  0  0
  146.0737  133.3317  150.7115 C   0  0  0  0  0  0  0  0  0  0  0  0
  144.9503  132.4642  151.3030 C   0  0  1  0  0  0  0  0  0  0  0  0
  143.8706  132.1428  150.2602 C   0  0  0  0  0  0  0  0  0  0  0  0
  145.5628  131.1882  151.9040 C   0  0  0  0  0  0  0  0  0  0  0  0
  146.6612  131.5240  152.9270 C   0  0  0  0  0  0  0  0  0  0  0  0
  149.4990  135.5908  157.0918 C   0  0  0  0  0  0  0  0  0  0  0  0
  149.3365  134.6333  157.8495 O   0  0  0  0  0  0  0  0  0  0  0  0
  149.4661  136.9882  157.5286 C   0  0  0  0  0  0  0  0  0  0  0  0
  149.2041  137.1897  158.9171 C   0  0  0  0  0  0  0  0  0  0  0  0
  148.9771  137.3404  160.0420 N   0  0  0  0  0  0  0  0  0  0  0  0
  149.6741  138.0192  156.6720 C   0  0  0  0  0  0  0  0  0  0  0  0
  149.6523  139.4867  157.0767 C   0  0  0  0  0  0  0  0  0  0  0  0
  149.3472  139.4567  154.1592 H   0  0  0  0  0  0  0  0  0  0  0  0
  150.3195  138.3231  153.2292 H   0  0  0  0  0  0  0  0  0  0  0  0
  151.0837  139.3335  154.4499 H   0  0  0  0  0  0  0  0  0  0  0  0
  150.7682  133.9271  154.6614 H   0  0  0  0  0  0  0  0  0  0  0  0
  149.7274  133.3630  155.9216 H   0  0  0  0  0  0  0  0  0  0  0  0
  148.5718  134.7834  153.4947 H   0  0  0  0  0  0  0  0  0  0  0  0
  147.2159  134.5977  155.1945 H   0  0  0  0  0  0  0  0  0  0  0  0
  149.7688  132.7142  152.6359 H   0  0  0  0  0  0  0  0  0  0  0  0
  149.0127  131.7768  153.8953 H   0  0  0  0  0  0  0  0  0  0  0  0
  146.7533  134.2370  152.5649 H   0  0  0  0  0  0  0  0  0  0  0  0
  147.9558  134.2082  151.2896 H   0  0  0  0  0  0  0  0  0  0  0  0
  145.6633  134.2699  150.3360 H   0  0  0  0  0  0  0  0  0  0  0  0
  146.5211  132.8261  149.8543 H   0  0  0  0  0  0  0  0  0  0  0  0
  144.4753  133.0251  152.1094 H   0  0  0  0  0  0  0  0  0  0  0  0
  144.2813  131.5773  149.4230 H   0  0  0  0  0  0  0  0  0  0  0  0
  143.4282  133.0556  149.8601 H   0  0  0  0  0  0  0  0  0  0  0  0
  143.0654  131.5521  150.6981 H   0  0  0  0  0  0  0  0  0  0  0  0
  144.7861  130.5914  152.3835 H   0  0  0  0  0  0  0  0  0  0  0  0
  145.9820  130.5678  151.1103 H   0  0  0  0  0  0  0  0  0  0  0  0
  147.0834  130.5935  153.3041 H   0  0  0  0  0  0  0  0  0  0  0  0
  146.2275  132.0416  153.7843 H   0  0  0  0  0  0  0  0  0  0  0  0
  149.5249  139.6169  158.1510 H   0  0  0  0  0  0  0  0  0  0  0  0
  148.8298  140.0054  156.5832 H   0  0  0  0  0  0  0  0  0  0  0  0
  150.5854  139.9779  156.7993 H   0  0  0  0  0  0  0  0  0  0  0  0
  148.0999  131.8586  151.5344 H   0  0  0  0  0  0  0  0  0  0  0  0
  1  2  1  0  0  0  0
  1 23  1  0  0  0  0
  1 24  1  0  0  0  0
  1 25  1  0  0  0  0
  2 21  1  0  0  0  0
  2  3  2  0  0  0  0
  3  4  1  0  0  0  0
  4  5  1  0  0  0  0
  4 16  1  0  0  0  0
  5  6  1  0  0  0  0
  5 26  1  0  0  0  0
  5 27  1  0  0  0  0
  6  7  1  0  0  0  0
  6  8  1  0  0  0  0
  6 28  1  0  0  0  0
  7 29  1  0  0  0  0
  8  9  1  0  0  0  0
  8 30  1  0  0  0  0
  8 31  1  0  0  0  0
  9 15  1  0  0  0  0
  9 10  1  0  0  0  0
  9 47  1  0  0  0  0
 10 11  1  0  0  0  0
 10 32  1  0  0  0  0
 10 33  1  0  0  0  0
 11 12  1  0  0  0  0
 11 34  1  0  0  0  0
 11 35  1  0  0  0  0
 12 13  1  0  0  0  0
 12 14  1  0  0  0  0
 12 36  1  0  0  0  0
 13 37  1  0  0  0  0
 13 38  1  0  0  0  0
 13 39  1  0  0  0  0
 14 15  1  0  0  0  0
 14 40  1  0  0  0  0
 14 41  1  0  0  0  0
 15 42  1  0  0  0  0
 15 43  1  0  0  0  0
 16 17  2  0  0  0  0
 16 18  1  0  0  0  0
 18 19  1  0  0  0  0
 18 21  2  0  0  0  0
 19 20  3  0  0  0  0
 21 22  1  0  0  0  0
 22 44  1  0  0  0  0
 22 45  1  0  0  0  0
 22 46  1  0  0  0  0
M  CHG  1   9   1
M  END
> <s_m_source_file>
AV-unprocessed.smi

> <i_m_source_file_index>
1579

> <i_lp_mmshare_version>
43012

> <i_f3d_flags>
0

> <s_epik_input>
TiNDYyhjMVtDSDNdKWMoPU8pbihuYzFbQ0gzXSlbQ0gyXVtDQEhdKFtPSF0pW0NIMl1OMltDSDJdW0NIMl1bQ0hdKFtDSDNdKVtDSDJdW0NIMl0y

> <s_epik_cmdline>
J2VwaWtfcHl0aG9uJywgJy1waCcsICc3LjAnLCAnLXRuJywgJzgnLCAnLW1hJywgJzIwMCcsICctbWV0YWxfYmluZGluZycsICctaW1hZScsICc8aW5maWxlLm1hZT4nLCAnLW9tYWUnLCAnPG91dGZpbGUubWFlPic=

> <r_epik_Ionization_Penalty>
0.00136816

> <r_epik_Ionization_Penalty_Charging>
0.00136813

> <r_epik_Ionization_Penalty_Neutral>
3.19884e-08

> <r_epik_State_Penalty>
0.000910892

> <r_epik_Charging_Adjusted_Penalty>
0.00227902

> <i_epik_Tot_Q>
1

> <i_epik_Tot_abs_Q>
1

> <r_epik_Metal_State_Penalty>
-0

> <b_epik_Metal_Only>
0

> <s_lp_Force_Field>
OPLS_2005

> <r_lp_Energy>
36.6054

> <b_lp_Chiralities_Consistent>
1

> <s_lp_Variant>
AV-unprocessed.smi:1579-1

> <Gold.Version>
5.8.1

> <Gold.Id.Protein>
6NUR|6NUR_protein|mol2

> <Gold.PLP.Fitness>
41.4115

> <Gold.PLP.PLP>
-34.3879

> <Gold.PLP.part.hbond>
-3.0392

> <Gold.PLP.part.metal>
0.0000

> <Gold.PLP.part.buried>
-5.9071

> <Gold.PLP.part.nonpolar>
-25.3674

> <Gold.PLP.part.repulsive>
0.1571

> <Gold.PLP.ligand.clash>
0.0000

> <Gold.PLP.ligand.torsion>
0.3866

> <Gold.PLP.Chemscore.Hbond>
2.5928

> <Gold.PLP.Chemscore.CHOScore>
0.0000

> <Gold.PLP.Chemscore.Metal>
0.0000

> <Gold.Chemscore.Hbonds>
donor molecule, donor type, donor heavy atom, donor atom, acceptor molecule, acceptor atom, score
      L1  H     9    47       P1 10747  1.00
      P1  H  6896  6908       L1    17  0.84
      P1  H  6931  6943       L1    20  0.41

> <Gold.PLP.Chemscore.Internal.Correction>
0.0184

> <Gold.Rescore>
     Score         DG    S(hbond)    S(metal)    S(lipo)     H(rot)  DE(clash)    DE(int)     intcor
     17.26     -17.81       2.61        0.00      78.30       2.17       0.15       0.40       ----

> <Gold.Chemscore.Fitness>
17.2598

> <Gold.Chemscore.DG>
-17.8145

> <Gold.Chemscore.ZeroCoef>
-5.4800

> <Gold.Chemscore.Hbond>
2.6145

> <Gold.Chemscore.Metal>
0.0000

> <Gold.Chemscore.Lipo>
78.2994

> <Gold.Chemscore.Internal_Hbond>
0.0000

> <Gold.Chemscore.DEClash>
0.1509

> <Gold.Chemscore.DEInternal>
0.4038

> <Gold.Chemscore.Rot>
2.1715

> <Gold.Chemscore.Internal.Correction>
   9.000000E+99

> <Gold.Chemscore.Hbonds>
donor molecule, donor type, donor heavy atom, donor atom, acceptor molecule, acceptor atom, score
      L1  H     9    47       P1 10747  1.00
      P1  H  6896  6908       L1    17  0.80
      P1  H  6931  6943       L1    20  0.38

> <Gold.Chemscore.Hbond.Weighted>
-8.7325

> <Gold.Chemscore.Metal.Weighted>
-0.0000

> <Gold.Chemscore.Lipo.Weighted>
-9.1610

> <Gold.Chemscore.Internal_Hbond.Weighted>
0.0000

> <Gold.Chemscore.DEClash.Weighted>
0.1509

> <Gold.Chemscore.DEInternal.Weighted>
0.4038

> <Gold.Chemscore.Rot.Weighted>
5.5591

> <Gold.Chemscore.Internal.Correction.Weighted>
   9.000000E+99

> <Gold.Protein.RotatedTorsions>
[ 6907 6896 6895 6894 ] final  132.29 input  -60.11 | X-H torsion
[ 7974 7965 7964 7962 ] final -137.99 input  175.53 | X-H torsion
[ 8008 7997 7996 7995 ] final   87.63 input   59.86 | X-H torsion
[ 10167 10162 10161 10158 ] final   48.63 input  -65.29 | X-H torsion
[ 10718 10713 10712 10709 ] final  116.67 input   66.30 | X-H torsion
[ 10763 10752 10751 10750 ] final  -55.97 input  -60.55 | X-H torsion
[ 11005 11000 10999 10996 ] final  -31.70 input  -57.11 | X-H torsion

> <Gold.Protein.ActiveResidues>
 VAL166  LYS551  ARG553  GLY616  TRP617  ASP618  TYR619  PRO620  LYS621  CYS622 
 ASP623  PHE694  ASN695  SER759  ASP760  ASP761  ALA762  ILE779  LEU786  VAL792 
 PHE793  MET794  SER795  GLU796  ALA797  LYS798  CYS799  TRP800  GLU811  SER814 

> <Gold.Protein.RotatedAtoms>
  152.3339  133.5989  159.5828 H   0  0  0  0  0  0  0  0  0  0  0  0  # atno 6907 bound_to 6896
  150.7439  133.9826  159.3590 H   0  0  0  0  0  0  0  0  0  0  0  0  # atno 6908 bound_to 6896
  151.7698  135.0790  160.0409 H   0  0  0  0  0  0  0  0  0  0  0  0  # atno 6909 bound_to 6896
  144.8795  140.6487  143.5215 H   0  0  0  0  0  0  0  0  0  0  0  0  # atno 7974 bound_to 7965
  155.9777  140.3380  155.6634 H   0  0  0  0  0  0  0  0  0  0  0  0  # atno 8008 bound_to 7997
  155.6590  140.0714  157.2579 H   0  0  0  0  0  0  0  0  0  0  0  0  # atno 8009 bound_to 7997
  154.4183  140.1712  156.1743 H   0  0  0  0  0  0  0  0  0  0  0  0  # atno 8010 bound_to 7997
  140.2913  144.3042  150.6240 H   0  0  0  0  0  0  0  0  0  0  0  0  # atno 10167 bound_to 10162
  157.6145  131.1028  150.7506 H   0  0  0  0  0  0  0  0  0  0  0  0  # atno 10718 bound_to 10713
  154.1993  135.6414  153.5082 H   0  0  0  0  0  0  0  0  0  0  0  0  # atno 10763 bound_to 10752
  153.0016  135.5447  154.6332 H   0  0  0  0  0  0  0  0  0  0  0  0  # atno 10764 bound_to 10752
  154.5741  135.2919  155.0771 H   0  0  0  0  0  0  0  0  0  0  0  0  # atno 10765 bound_to 10752
  140.9490  133.7232  156.1191 H   0  0  0  0  0  0  0  0  0  0  0  0  # atno 11005 bound_to 11000
  145.3980  139.1603  143.4193 LP  0  0  0  0  0  0  0  0  0  0  0  0  # atno 17320 bound_to 7965
  146.2985  140.4074  142.8712 LP  0  0  0  0  0  0  0  0  0  0  0  0  # atno 17321 bound_to 7965
  140.5730  143.2179  151.7566 LP  0  0  0  0  0  0  0  0  0  0  0  0  # atno 17342 bound_to 10162
  139.4937  144.4190  151.9998 LP  0  0  0  0  0  0  0  0  0  0  0  0  # atno 17343 bound_to 10162
  156.7876  130.4879  149.5390 LP  0  0  0  0  0  0  0  0  0  0  0  0  # atno 17370 bound_to 10713
  156.1262  130.6145  151.0267 LP  0  0  0  0  0  0  0  0  0  0  0  0  # atno 17371 bound_to 10713
  140.7629  134.3919  157.5522 LP  0  0  0  0  0  0  0  0  0  0  0  0  # atno 17394 bound_to 11000
  139.8842  134.8973  156.2720 LP  0  0  0  0  0  0  0  0  0  0  0  0  # atno 17395 bound_to 11000

$$$$
