AV-unprocessed.smi:2448|AV-procd|sdf|9661|dock2
  -GOLD-   2272013303D 1   1.00000     0.00000
 Structure written by MMmdl.
 38 39  0  0  0  0  0  0  0  0  2 V2000
  150.9647  143.0827  156.7169 O   0  0  0  0  0  0  0  0  0  0  0  0
  151.0534  142.6229  158.0538 C   0  0  1  0  0  0  0  0  0  0  0  0
  150.6424  141.1364  158.0678 C   0  0  0  0  0  0  0  0  0  0  0  0
  151.4611  140.3315  157.1588 N   0  0  0  0  0  0  0  0  0  0  0  0
  150.7609  139.7080  156.0259 C   0  0  1  0  0  0  0  0  0  0  0  0
  150.3518  140.7308  154.9332 C   0  0  0  0  0  0  0  0  0  0  0  0
  148.9124  140.6318  154.4536 C   0  0  0  0  0  0  0  0  0  0  0  0
  148.0817  141.7754  154.4396 C   0  0  0  0  0  0  0  0  0  0  0  0
  146.7520  141.6565  153.9861 C   0  0  0  0  0  0  0  0  0  0  0  0
  146.2896  140.4594  153.5643 N   0  3  0  0  0  0  0  0  0  0  0  0
  147.0517  139.3439  153.5519 C   0  0  0  0  0  0  0  0  0  0  0  0
  148.3888  139.4019  153.9956 C   0  0  0  0  0  0  0  0  0  0  0  0
  151.6430  138.5891  155.4319 C   0  0  0  0  0  0  0  0  0  0  0  0
  150.9902  137.9735  154.4454 F   0  0  0  0  0  0  0  0  0  0  0  0
  152.7642  139.1040  154.9271 F   0  0  0  0  0  0  0  0  0  0  0  0
  151.9594  137.6913  156.3658 F   0  0  0  0  0  0  0  0  0  0  0  0
  152.4634  142.8969  158.6086 C   0  0  0  0  0  0  0  0  0  0  0  0
  152.5861  144.4043  158.8527 C   0  0  0  0  0  0  0  0  0  0  0  0
  150.9578  145.0138  159.3560 S   0  0  0  0  0  0  0  0  0  0  0  0
  150.1014  143.4807  158.9053 C   0  0  0  0  0  0  0  0  0  0  0  0
  150.0905  143.4115  156.5718 H   0  0  0  0  0  0  0  0  0  0  0  0
  150.7489  140.7480  159.0813 H   0  0  0  0  0  0  0  0  0  0  0  0
  149.5870  141.0621  157.8163 H   0  0  0  0  0  0  0  0  0  0  0  0
  151.9423  139.6117  157.6895 H   0  0  0  0  0  0  0  0  0  0  0  0
  149.8633  139.2118  156.3965 H   0  0  0  0  0  0  0  0  0  0  0  0
  150.5613  141.7445  155.2778 H   0  0  0  0  0  0  0  0  0  0  0  0
  150.9730  140.5899  154.0487 H   0  0  0  0  0  0  0  0  0  0  0  0
  148.4538  142.7316  154.7784 H   0  0  0  0  0  0  0  0  0  0  0  0
  146.0504  142.4771  153.9476 H   0  0  0  0  0  0  0  0  0  0  0  0
  146.5731  138.4461  153.1887 H   0  0  0  0  0  0  0  0  0  0  0  0
  149.0018  138.5124  153.9822 H   0  0  0  0  0  0  0  0  0  0  0  0
  152.5844  142.3748  159.5589 H   0  0  0  0  0  0  0  0  0  0  0  0
  153.2515  142.5373  157.9459 H   0  0  0  0  0  0  0  0  0  0  0  0
  153.3420  144.6387  159.6024 H   0  0  0  0  0  0  0  0  0  0  0  0
  152.8667  144.9114  157.9289 H   0  0  0  0  0  0  0  0  0  0  0  0
  149.1563  143.6906  158.4025 H   0  0  0  0  0  0  0  0  0  0  0  0
  149.8632  142.9654  159.8364 H   0  0  0  0  0  0  0  0  0  0  0  0
  145.3245  140.3956  153.2389 H   0  0  0  0  0  0  0  0  0  0  0  0
  1  2  1  0  0  0  0
  1 21  1  0  0  0  0
  2 20  1  0  0  0  0
  2  3  1  0  0  0  0
  2 17  1  0  0  0  0
  3  4  1  0  0  0  0
  3 22  1  0  0  0  0
  3 23  1  0  0  0  0
  4  5  1  0  0  0  0
  4 24  1  0  0  0  0
  5  6  1  0  0  0  0
  5 13  1  0  0  0  0
  5 25  1  0  0  0  0
  6  7  1  0  0  0  0
  6 26  1  0  0  0  0
  6 27  1  0  0  0  0
  7 12  1  0  0  0  0
  7  8  2  0  0  0  0
  8  9  1  0  0  0  0
  8 28  1  0  0  0  0
  9 10  2  0  0  0  0
  9 29  1  0  0  0  0
 10 11  1  0  0  0  0
 10 38  1  0  0  0  0
 11 12  2  0  0  0  0
 11 30  1  0  0  0  0
 12 31  1  0  0  0  0
 13 14  1  0  0  0  0
 13 15  1  0  0  0  0
 13 16  1  0  0  0  0
 17 18  1  0  0  0  0
 17 32  1  0  0  0  0
 17 33  1  0  0  0  0
 18 19  1  0  0  0  0
 18 34  1  0  0  0  0
 18 35  1  0  0  0  0
 19 20  1  0  0  0  0
 20 36  1  0  0  0  0
 20 37  1  0  0  0  0
M  CHG  1  10   1
M  END
> <s_m_source_file>
AV-unprocessed.smi

> <i_m_source_file_index>
2448

> <i_lp_mmshare_version>
43012

> <i_f3d_flags>
0

> <s_epik_input>
W0NIMl0xU1tDSDJdW0NIMl1bQ0BAXTEoW09IXSlbQ0gyXVtOSF1bQ0BASF0oQyhGKShGKUYpW0NIMl1jMltjSF1bY0hdbltjSF1bY0hdMg==

> <s_epik_cmdline>
J2VwaWtfcHl0aG9uJywgJy1waCcsICc3LjAnLCAnLXRuJywgJzgnLCAnLW1hJywgJzIwMCcsICctbWV0YWxfYmluZGluZycsICctaW1hZScsICc8aW5maWxlLm1hZT4nLCAnLW9tYWUnLCAnPG91dGZpbGUubWFlPic=

> <r_epik_Ionization_Penalty>
1.11129

> <r_epik_Ionization_Penalty_Charging>
1.08366

> <r_epik_Ionization_Penalty_Neutral>
0.0276276

> <r_epik_State_Penalty>
1.93785

> <r_epik_Charging_Adjusted_Penalty>
3.02151

> <i_epik_Tot_Q>
1

> <i_epik_Tot_abs_Q>
1

> <r_epik_Metal_State_Penalty>
5.97911

> <b_epik_Metal_Only>
0

> <s_lp_Force_Field>
OPLS_2005

> <r_lp_Energy>
38.4548

> <b_lp_Chiralities_Consistent>
1

> <s_lp_Variant>
AV-unprocessed.smi:2448-11

> <Gold.Version>
5.8.1

> <Gold.Id.Protein>
6NUR|6NUR_protein|mol2

> <Gold.PLP.Fitness>
50.1110

> <Gold.PLP.PLP>
-43.0233

> <Gold.PLP.part.hbond>
-2.0000

> <Gold.PLP.part.metal>
0.0000

> <Gold.PLP.part.buried>
-2.6760

> <Gold.PLP.part.nonpolar>
-38.9442

> <Gold.PLP.part.repulsive>
0.0026

> <Gold.PLP.ligand.clash>
0.0000

> <Gold.PLP.ligand.torsion>
1.2215

> <Gold.PLP.Chemscore.Hbond>
3.0000

> <Gold.PLP.Chemscore.CHOScore>
0.0000

> <Gold.PLP.Chemscore.Metal>
0.0000

> <Gold.Chemscore.Hbonds>
donor molecule, donor type, donor heavy atom, donor atom, acceptor molecule, acceptor atom, score
      L1  H     1    21       P1  8028  0.96
      L1  H    10    38       P1 10175  2.00

> <Gold.PLP.Chemscore.Internal.Correction>
0.5308

> <Gold.Rescore>
     Score         DG    S(hbond)    S(metal)    S(lipo)     H(rot)  DE(clash)    DE(int)     intcor
     16.41     -18.93       1.99        0.00     111.17       2.42       1.23       1.29       ----

> <Gold.Chemscore.Fitness>
16.4109

> <Gold.Chemscore.DG>
-18.9312

> <Gold.Chemscore.ZeroCoef>
-5.4800

> <Gold.Chemscore.Hbond>
1.9915

> <Gold.Chemscore.Metal>
0.0000

> <Gold.Chemscore.Lipo>
111.1706

> <Gold.Chemscore.Internal_Hbond>
0.0000

> <Gold.Chemscore.DEClash>
1.2330

> <Gold.Chemscore.DEInternal>
1.2873

> <Gold.Chemscore.Rot>
2.4247

> <Gold.Chemscore.Internal.Correction>
   9.000000E+99

> <Gold.Chemscore.Hbonds>
donor molecule, donor type, donor heavy atom, donor atom, acceptor molecule, acceptor atom, score
      L1  H     1    21       P1  8028  0.89
      L1  H    10    38       P1 10175  0.98

> <Gold.Chemscore.Hbond.Weighted>
-6.6515

> <Gold.Chemscore.Metal.Weighted>
-0.0000

> <Gold.Chemscore.Lipo.Weighted>
-13.0070

> <Gold.Chemscore.Internal_Hbond.Weighted>
0.0000

> <Gold.Chemscore.DEClash.Weighted>
1.2330

> <Gold.Chemscore.DEInternal.Weighted>
1.2873

> <Gold.Chemscore.Rot.Weighted>
6.2072

> <Gold.Chemscore.Internal.Correction.Weighted>
   9.000000E+99

> <Gold.Protein.RotatedTorsions>
[ 6907 6896 6895 6894 ] final   65.64 input  -60.11 | X-H torsion
[ 7974 7965 7964 7962 ] final  -75.93 input  175.53 | X-H torsion
[ 8008 7997 7996 7995 ] final -171.32 input   59.86 | X-H torsion
[ 10167 10162 10161 10158 ] final -119.39 input  -65.29 | X-H torsion
[ 10718 10713 10712 10709 ] final  108.36 input   66.30 | X-H torsion
[ 10763 10752 10751 10750 ] final  103.59 input  -60.55 | X-H torsion
[ 11005 11000 10999 10996 ] final  149.59 input  -57.11 | X-H torsion

> <Gold.Protein.ActiveResidues>
 VAL166  LYS551  ARG553  GLY616  TRP617  ASP618  TYR619  PRO620  LYS621  CYS622 
 ASP623  PHE694  ASN695  SER759  ASP760  ASP761  ALA762  ILE779  LEU786  VAL792 
 PHE793  MET794  SER795  GLU796  ALA797  LYS798  CYS799  TRP800  GLU811  SER814 

> <Gold.Protein.RotatedAtoms>
  152.4423  134.5566  159.9882 H   0  0  0  0  0  0  0  0  0  0  0  0  # atno 6907 bound_to 6896
  151.5661  133.3390  159.2988 H   0  0  0  0  0  0  0  0  0  0  0  0  # atno 6908 bound_to 6896
  150.8331  134.7626  159.6934 H   0  0  0  0  0  0  0  0  0  0  0  0  # atno 6909 bound_to 6896
  145.6196  140.9366  143.1145 H   0  0  0  0  0  0  0  0  0  0  0  0  # atno 7974 bound_to 7965
  155.9299  140.1089  157.1140 H   0  0  0  0  0  0  0  0  0  0  0  0  # atno 8008 bound_to 7997
  154.4069  140.1239  156.4855 H   0  0  0  0  0  0  0  0  0  0  0  0  # atno 8009 bound_to 7997
  155.7092  140.3471  155.4969 H   0  0  0  0  0  0  0  0  0  0  0  0  # atno 8010 bound_to 7997
  140.0471  143.5096  152.2101 H   0  0  0  0  0  0  0  0  0  0  0  0  # atno 10167 bound_to 10162
  157.6589  131.0892  150.6294 H   0  0  0  0  0  0  0  0  0  0  0  0  # atno 10718 bound_to 10713
  153.3547  135.3971  155.1673 H   0  0  0  0  0  0  0  0  0  0  0  0  # atno 10763 bound_to 10752
  154.8669  135.3665  154.5176 H   0  0  0  0  0  0  0  0  0  0  0  0  # atno 10764 bound_to 10752
  153.5630  135.7080  153.5598 H   0  0  0  0  0  0  0  0  0  0  0  0  # atno 10765 bound_to 10752
  140.1058  134.8955  157.1864 H   0  0  0  0  0  0  0  0  0  0  0  0  # atno 11005 bound_to 11000
  144.7236  139.7947  143.7373 LP  0  0  0  0  0  0  0  0  0  0  0  0  # atno 17320 bound_to 7965
  146.1441  139.4506  143.0090 LP  0  0  0  0  0  0  0  0  0  0  0  0  # atno 17321 bound_to 7965
  139.5976  144.7572  151.3248 LP  0  0  0  0  0  0  0  0  0  0  0  0  # atno 17342 bound_to 10162
  140.7234  143.7073  150.7797 LP  0  0  0  0  0  0  0  0  0  0  0  0  # atno 17343 bound_to 10162
  156.6598  130.4509  149.5691 LP  0  0  0  0  0  0  0  0  0  0  0  0  # atno 17370 bound_to 10713
  156.2075  130.6658  151.1234 LP  0  0  0  0  0  0  0  0  0  0  0  0  # atno 17371 bound_to 10713
  140.3158  134.2973  155.7257 LP  0  0  0  0  0  0  0  0  0  0  0  0  # atno 17394 bound_to 11000
  141.2118  133.7678  156.9840 LP  0  0  0  0  0  0  0  0  0  0  0  0  # atno 17395 bound_to 11000

$$$$
