AV-unprocessed.smi:481|AV-procd|sdf|2680|dock7
  -GOLD-   2262023103D 1   1.00000     0.00000
 Structure written by MMmdl.
 43 45  0  0  0  0  0  0  0  0  1 V2000
  155.7390  137.0000  155.8975 C   0  0  0  0  0  0  0  0  0  0  0  0
  154.8199  136.2627  156.6844 O   0  0  0  0  0  0  0  0  0  0  0  0
  154.6024  136.8492  157.9561 C   0  0  0  0  0  0  0  0  0  0  0  0
  155.9233  136.8494  158.7346 C   0  0  0  0  0  0  0  0  0  0  0  0
  155.7279  137.2490  160.1238 N   0  0  0  0  0  0  0  0  0  0  0  0
  155.3016  138.4496  160.5917 C   0  0  0  0  0  0  0  0  0  0  0  0
  155.0026  139.4762  159.6967 N   0  0  0  0  0  0  0  0  0  0  0  0
  154.5861  140.6525  160.1312 N   0  0  0  0  0  0  0  0  0  0  0  0
  153.6169  141.1854  159.4774 C   0  0  0  0  0  0  0  0  0  0  0  0
  153.0472  142.4921  159.8400 C   0  0  0  0  0  0  0  0  0  0  0  0
  153.1120  142.9957  161.1613 C   0  0  0  0  0  0  0  0  0  0  0  0
  152.5554  144.2516  161.4728 C   0  0  0  0  0  0  0  0  0  0  0  0
  151.9300  145.0150  160.4692 C   0  0  0  0  0  0  0  0  0  0  0  0
  151.8613  144.5214  159.1529 C   0  0  0  0  0  0  0  0  0  0  0  0
  152.4176  143.2656  158.8401 C   0  0  0  0  0  0  0  0  0  0  0  0
  155.2136  138.5303  161.9250 N   0  0  0  0  0  0  0  0  0  0  0  0
  155.6286  137.2723  162.3373 C   0  0  0  0  0  0  0  0  0  0  0  0
  155.9490  136.4929  161.2739 C   0  0  0  0  0  0  0  0  0  0  0  0
  156.4367  135.1170  161.4232 C   0  0  0  0  0  0  0  0  0  0  0  0
  156.7504  134.4029  160.4730 O   0  0  0  0  0  0  0  0  0  0  0  0
  156.5093  134.7187  162.7168 N   0  0  0  0  0  0  0  0  0  0  0  0
  156.1954  135.4478  163.8321 C   0  0  0  0  0  0  0  0  0  0  0  0
  156.3127  134.9380  164.9460 O   0  0  0  0  0  0  0  0  0  0  0  0
  155.7574  136.7364  163.6485 N   0  0  0  0  0  0  0  0  0  0  0  0
  155.4057  137.6043  164.7741 C   0  0  0  0  0  0  0  0  0  0  0  0
  156.8350  133.7765  162.8767 H   0  0  0  0  0  0  0  0  0  0  0  0
  155.8727  136.5092  154.9335 H   0  0  0  0  0  0  0  0  0  0  0  0
  156.7142  137.0610  156.3821 H   0  0  0  0  0  0  0  0  0  0  0  0
  155.3761  138.0117  155.7120 H   0  0  0  0  0  0  0  0  0  0  0  0
  154.2325  137.8692  157.8397 H   0  0  0  0  0  0  0  0  0  0  0  0
  153.8460  136.2836  158.5033 H   0  0  0  0  0  0  0  0  0  0  0  0
  156.3772  135.8584  158.7040 H   0  0  0  0  0  0  0  0  0  0  0  0
  156.6457  137.5173  158.2670 H   0  0  0  0  0  0  0  0  0  0  0  0
  155.1197  139.3031  158.7086 H   0  0  0  0  0  0  0  0  0  0  0  0
  153.1855  140.6671  158.6184 H   0  0  0  0  0  0  0  0  0  0  0  0
  153.5870  142.4278  161.9483 H   0  0  0  0  0  0  0  0  0  0  0  0
  152.6086  144.6288  162.4834 H   0  0  0  0  0  0  0  0  0  0  0  0
  151.5032  145.9779  160.7089 H   0  0  0  0  0  0  0  0  0  0  0  0
  151.3811  145.1058  158.3819 H   0  0  0  0  0  0  0  0  0  0  0  0
  152.3561  142.9013  157.8244 H   0  0  0  0  0  0  0  0  0  0  0  0
  155.5129  137.1315  165.7508 H   0  0  0  0  0  0  0  0  0  0  0  0
  154.3694  137.9312  164.6818 H   0  0  0  0  0  0  0  0  0  0  0  0
  156.0383  138.4925  164.7698 H   0  0  0  0  0  0  0  0  0  0  0  0
  1  2  1  0  0  0  0
  1 27  1  0  0  0  0
  1 28  1  0  0  0  0
  1 29  1  0  0  0  0
  2  3  1  0  0  0  0
  3  4  1  0  0  0  0
  3 30  1  0  0  0  0
  3 31  1  0  0  0  0
  4  5  1  0  0  0  0
  4 32  1  0  0  0  0
  4 33  1  0  0  0  0
  5 18  1  0  0  0  0
  5  6  1  0  0  0  0
  6  7  1  0  0  0  0
  6 16  2  0  0  0  0
  7  8  1  0  0  0  0
  7 34  1  0  0  0  0
  8  9  2  0  0  0  0
  9 10  1  0  0  0  0
  9 35  1  0  0  0  0
 10 15  1  0  0  0  0
 10 11  2  0  0  0  0
 11 12  1  0  0  0  0
 11 36  1  0  0  0  0
 12 13  2  0  0  0  0
 12 37  1  0  0  0  0
 13 14  1  0  0  0  0
 13 38  1  0  0  0  0
 14 15  2  0  0  0  0
 14 39  1  0  0  0  0
 15 40  1  0  0  0  0
 16 17  1  0  0  0  0
 17 24  1  0  0  0  0
 17 18  2  0  0  0  0
 18 19  1  0  0  0  0
 19 20  2  0  0  0  0
 19 21  1  0  0  0  0
 21 26  1  0  0  0  0
 21 22  1  0  0  0  0
 22 23  2  0  0  0  0
 22 24  1  0  0  0  0
 24 25  1  0  0  0  0
 25 41  1  0  0  0  0
 25 42  1  0  0  0  0
 25 43  1  0  0  0  0
M  END
> <s_m_source_file>
AV-unprocessed.smi

> <i_m_source_file_index>
481

> <i_lp_mmshare_version>
43012

> <i_f3d_flags>
0

> <s_epik_input>
W0NIM11uMWMoPU8pW25IXWMoPU8pYyhjMTIpbihbQ0gyXVtDSDJdT1tDSDNdKWMobjIpW05IXS9OPVtDSF0vYzNbY0hdW2NIXVtjSF1bY0hdW2NIXTM=

> <s_epik_cmdline>
J2VwaWtfcHl0aG9uJywgJy1waCcsICc3LjAnLCAnLXRuJywgJzgnLCAnLW1hJywgJzIwMCcsICctbWV0YWxfYmluZGluZycsICctaW1hZScsICc8aW5maWxlLm1hZT4nLCAnLW9tYWUnLCAnPG91dGZpbGUubWFlPic=

> <r_epik_Ionization_Penalty>
0.000595515

> <r_epik_Ionization_Penalty_Charging>
0.000305988

> <r_epik_Ionization_Penalty_Neutral>
0.000289528

> <r_epik_State_Penalty>
0.000184189

> <r_epik_Charging_Adjusted_Penalty>
0.000490177

> <i_epik_Tot_Q>
0

> <i_epik_Tot_abs_Q>
0

> <r_epik_Metal_State_Penalty>
0.173754

> <b_epik_Metal_Only>
0

> <s_epik_Chemistry_Notes>
This compound has an imine and may undergo hydrolysis.

> <s_lp_Force_Field>
OPLS_2005

> <r_lp_Energy>
32.4826

> <b_lp_Chiralities_Consistent>
1

> <s_lp_Variant>
AV-unprocessed.smi:481-1

> <Gold.Version>
5.8.1

> <Gold.Id.Protein>
6NUR|6NUR_protein|mol2

> <Gold.PLP.Fitness>
50.4058

> <Gold.PLP.PLP>
-48.1706

> <Gold.PLP.part.hbond>
-1.0000

> <Gold.PLP.part.metal>
0.0000

> <Gold.PLP.part.buried>
-7.0467

> <Gold.PLP.part.nonpolar>
-39.8752

> <Gold.PLP.part.repulsive>
0.1875

> <Gold.PLP.ligand.clash>
0.0000

> <Gold.PLP.ligand.torsion>
0.3505

> <Gold.PLP.Chemscore.Hbond>
0.9760

> <Gold.PLP.Chemscore.CHOScore>
0.0000

> <Gold.PLP.Chemscore.Metal>
0.0000

> <Gold.Chemscore.Hbonds>
donor molecule, donor type, donor heavy atom, donor atom, acceptor molecule, acceptor atom, score
      P1  H 10752 10763       L1     2  0.45

> <Gold.PLP.Chemscore.Internal.Correction>
0.0082

> <Gold.Rescore>
     Score         DG    S(hbond)    S(metal)    S(lipo)     H(rot)  DE(clash)    DE(int)     intcor
     16.43     -16.60       0.82        0.00     105.42       1.54       0.00       0.18       ----

> <Gold.Chemscore.Fitness>
16.4274

> <Gold.Chemscore.DG>
-16.6027

> <Gold.Chemscore.ZeroCoef>
-5.4800

> <Gold.Chemscore.Hbond>
0.8181

> <Gold.Chemscore.Metal>
0.0000

> <Gold.Chemscore.Lipo>
105.4203

> <Gold.Chemscore.Internal_Hbond>
0.0000

> <Gold.Chemscore.DEClash>
0.0000

> <Gold.Chemscore.DEInternal>
0.1754

> <Gold.Chemscore.Rot>
1.5406

> <Gold.Chemscore.Internal.Correction>
   9.000000E+99

> <Gold.Chemscore.Hbonds>
donor molecule, donor type, donor heavy atom, donor atom, acceptor molecule, acceptor atom, score
      P1  H 10752 10763       L1     2  0.02

> <Gold.Chemscore.Hbond.Weighted>
-2.7325

> <Gold.Chemscore.Metal.Weighted>
-0.0000

> <Gold.Chemscore.Lipo.Weighted>
-12.3342

> <Gold.Chemscore.Internal_Hbond.Weighted>
0.0000

> <Gold.Chemscore.DEClash.Weighted>
0.0000

> <Gold.Chemscore.DEInternal.Weighted>
0.1754

> <Gold.Chemscore.Rot.Weighted>
3.9440

> <Gold.Chemscore.Internal.Correction.Weighted>
   9.000000E+99

> <Gold.Protein.RotatedTorsions>
[ 6907 6896 6895 6894 ] final   11.03 input  -60.11 | X-H torsion
[ 7974 7965 7964 7962 ] final   26.59 input  175.53 | X-H torsion
[ 8008 7997 7996 7995 ] final  -24.74 input   59.86 | X-H torsion
[ 10167 10162 10161 10158 ] final -111.81 input  -65.29 | X-H torsion
[ 10718 10713 10712 10709 ] final   86.39 input   66.30 | X-H torsion
[ 10763 10752 10751 10750 ] final  169.89 input  -60.55 | X-H torsion
[ 11005 11000 10999 10996 ] final  -23.84 input  -57.11 | X-H torsion

> <Gold.Protein.ActiveResidues>
 VAL166  LYS551  ARG553  GLY616  TRP617  ASP618  TYR619  PRO620  LYS621  CYS622 
 ASP623  PHE694  ASN695  SER759  ASP760  ASP761  ALA762  ILE779  LEU786  VAL792 
 PHE793  MET794  SER795  GLU796  ALA797  LYS798  CYS799  TRP800  GLU811  SER814 

> <Gold.Protein.RotatedAtoms>
  151.7477  135.0840  160.0325 H   0  0  0  0  0  0  0  0  0  0  0  0  # atno 6907 bound_to 6896
  152.3437  133.6093  159.5903 H   0  0  0  0  0  0  0  0  0  0  0  0  # atno 6908 bound_to 6896
  150.7495  133.9598  159.3553 H   0  0  0  0  0  0  0  0  0  0  0  0  # atno 6909 bound_to 6896
  146.1829  139.7307  142.8887 H   0  0  0  0  0  0  0  0  0  0  0  0  # atno 7974 bound_to 7965
  154.4513  140.1945  156.0511 H   0  0  0  0  0  0  0  0  0  0  0  0  # atno 8008 bound_to 7997
  156.0653  140.3291  155.7483 H   0  0  0  0  0  0  0  0  0  0  0  0  # atno 8009 bound_to 7997
  155.5347  140.0581  157.2872 H   0  0  0  0  0  0  0  0  0  0  0  0  # atno 8010 bound_to 7997
  140.1295  143.4373  152.1637 H   0  0  0  0  0  0  0  0  0  0  0  0  # atno 10167 bound_to 10162
  157.6928  131.0213  150.2965 H   0  0  0  0  0  0  0  0  0  0  0  0  # atno 10718 bound_to 10713
  154.3896  135.2754  155.2162 H   0  0  0  0  0  0  0  0  0  0  0  0  # atno 10763 bound_to 10752
  154.4234  135.5994  153.6027 H   0  0  0  0  0  0  0  0  0  0  0  0  # atno 10764 bound_to 10752
  152.9832  135.5978  154.4150 H   0  0  0  0  0  0  0  0  0  0  0  0  # atno 10765 bound_to 10752
  140.8789  133.7667  156.0278 H   0  0  0  0  0  0  0  0  0  0  0  0  # atno 11005 bound_to 11000
  145.4023  141.0386  143.3064 LP  0  0  0  0  0  0  0  0  0  0  0  0  # atno 17320 bound_to 7965
  144.8347  139.5570  143.6928 LP  0  0  0  0  0  0  0  0  0  0  0  0  # atno 17321 bound_to 7965
  139.5527  144.7350  151.4387 LP  0  0  0  0  0  0  0  0  0  0  0  0  # atno 17342 bound_to 10162
  140.6825  143.8049  150.7141 LP  0  0  0  0  0  0  0  0  0  0  0  0  # atno 17343 bound_to 10162
  156.3488  130.3827  149.7346 LP  0  0  0  0  0  0  0  0  0  0  0  0  # atno 17370 bound_to 10713
  156.4831  130.8050  151.3063 LP  0  0  0  0  0  0  0  0  0  0  0  0  # atno 17371 bound_to 10713
  140.8484  134.2983  157.5285 LP  0  0  0  0  0  0  0  0  0  0  0  0  # atno 17394 bound_to 11000
  139.8718  134.9454  156.3910 LP  0  0  0  0  0  0  0  0  0  0  0  0  # atno 17395 bound_to 11000

$$$$
