AV-unprocessed.smi:16|AV-procd|sdf|93|dock2
  -GOLD-   2262015233D 1   1.00000     0.00000
 Structure written by MMmdl.
 60 64  0  0  0  0  0  0  0  0  2 V2000
  151.2598  137.7074  158.2361 C   0  0  0  0  0  0  0  0  0  0  0  0
  151.1727  137.6549  156.7012 C   0  0  0  0  0  0  0  0  0  0  0  0
  150.4037  138.7714  156.0948 N   0  3  1  0  0  0  0  0  0  0  0  0
  150.9535  140.1198  156.3821 C   0  0  0  0  0  0  0  0  0  0  0  0
  149.9507  141.2051  155.9614 C   0  0  0  0  0  0  0  0  0  0  0  0
  149.5567  141.0521  154.4750 C   0  0  2  0  0  0  0  0  0  0  0  0
  148.5987  142.0266  154.0572 O   0  0  0  0  0  0  0  0  0  0  0  0
  147.2912  141.8489  154.5985 C   0  0  0  0  0  0  0  0  0  0  0  0
  146.7712  140.4430  154.2669 C   0  0  0  0  0  0  0  0  0  0  0  0
  147.7162  139.4327  154.7294 N   0  0  0  0  0  0  0  0  0  0  0  0
  147.2252  138.1761  154.6502 C   0  0  0  0  0  0  0  0  0  0  0  0
  147.2365  137.3667  155.7413 N   0  0  0  0  0  0  0  0  0  0  0  0
  146.7146  136.1385  155.6625 C   0  0  0  0  0  0  0  0  0  0  0  0
  146.1400  135.5410  154.6155 N   0  0  0  0  0  0  0  0  0  0  0  0
  146.1301  136.3547  153.5203 C   0  0  0  0  0  0  0  0  0  0  0  0
  146.6451  137.6784  153.4550 C   0  0  0  0  0  0  0  0  0  0  0  0
  146.4375  138.2140  152.1907 N   0  0  0  0  0  0  0  0  0  0  0  0
  145.8334  137.2562  151.5409 C   0  0  0  0  0  0  0  0  0  0  0  0
  145.6311  136.0962  152.2553 N   0  0  0  0  0  0  0  0  0  0  0  0
  144.9508  134.9205  151.7979 C   0  0  0  0  0  0  0  0  0  0  0  0
  144.9093  133.6432  152.6400 C   0  0  0  0  0  0  0  0  0  0  0  0
  144.9014  132.7995  151.3455 C   0  0  0  0  0  0  0  0  0  0  0  0
  145.7721  131.5326  151.4090 C   0  0  0  0  0  0  0  0  0  0  0  0
  147.0907  131.8166  151.8283 O   0  0  0  0  0  0  0  0  0  0  0  0
  143.4871  132.4218  150.8560 C   0  0  0  0  0  0  0  0  0  0  0  0
  143.5042  131.8389  149.5694 O   0  0  0  0  0  0  0  0  0  0  0  0
  145.5469  134.0446  150.6945 C   0  0  0  0  0  0  0  0  0  0  0  0
  149.0560  139.6214  154.1626 C   0  0  2  0  0  0  0  0  0  0  0  0
  150.1046  138.5897  154.6515 C   0  0  0  0  0  0  0  0  0  0  0  0
  150.4527  141.2334  153.8799 H   0  0  0  0  0  0  0  0  0  0  0  0
  148.9639  139.5211  153.0799 H   0  0  0  0  0  0  0  0  0  0  0  0
  151.8285  136.8567  158.6121 H   0  0  0  0  0  0  0  0  0  0  0  0
  150.2752  137.6674  158.7013 H   0  0  0  0  0  0  0  0  0  0  0  0
  151.7636  138.6090  158.5839 H   0  0  0  0  0  0  0  0  0  0  0  0
  152.1788  137.6584  156.2795 H   0  0  0  0  0  0  0  0  0  0  0  0
  150.7219  136.7110  156.3927 H   0  0  0  0  0  0  0  0  0  0  0  0
  151.1649  140.2131  157.4479 H   0  0  0  0  0  0  0  0  0  0  0  0
  151.8973  140.2613  155.8543 H   0  0  0  0  0  0  0  0  0  0  0  0
  149.0768  141.1287  156.6074 H   0  0  0  0  0  0  0  0  0  0  0  0
  150.3762  142.1939  156.1341 H   0  0  0  0  0  0  0  0  0  0  0  0
  147.2884  142.0216  155.6743 H   0  0  0  0  0  0  0  0  0  0  0  0
  146.6299  142.6002  154.1668 H   0  0  0  0  0  0  0  0  0  0  0  0
  145.7978  140.2875  154.7345 H   0  0  0  0  0  0  0  0  0  0  0  0
  146.6298  140.3506  153.1890 H   0  0  0  0  0  0  0  0  0  0  0  0
  146.7610  135.5515  156.5680 H   0  0  0  0  0  0  0  0  0  0  0  0
  145.5185  137.3693  150.5135 H   0  0  0  0  0  0  0  0  0  0  0  0
  143.9423  135.2416  151.5317 H   0  0  0  0  0  0  0  0  0  0  0  0
  145.8141  133.5110  153.2364 H   0  0  0  0  0  0  0  0  0  0  0  0
  144.0182  133.5425  153.2608 H   0  0  0  0  0  0  0  0  0  0  0  0
  145.3562  130.8127  152.1144 H   0  0  0  0  0  0  0  0  0  0  0  0
  145.8086  131.0274  150.4433 H   0  0  0  0  0  0  0  0  0  0  0  0
  147.6885  131.5289  151.1555 H   0  0  0  0  0  0  0  0  0  0  0  0
  143.0041  131.7298  151.5466 H   0  0  0  0  0  0  0  0  0  0  0  0
  142.8402  133.2978  150.8079 H   0  0  0  0  0  0  0  0  0  0  0  0
  143.3413  132.5153  148.9299 H   0  0  0  0  0  0  0  0  0  0  0  0
  145.1923  134.2807  149.6909 H   0  0  0  0  0  0  0  0  0  0  0  0
  146.6380  134.0187  150.7249 H   0  0  0  0  0  0  0  0  0  0  0  0
  151.0228  138.7179  154.0771 H   0  0  0  0  0  0  0  0  0  0  0  0
  149.7743  137.5684  154.4596 H   0  0  0  0  0  0  0  0  0  0  0  0
  149.5060  138.7437  156.5582 H   0  0  0  0  0  0  0  0  0  0  0  0
  1  2  1  0  0  0  0
  1 32  1  0  0  0  0
  1 33  1  0  0  0  0
  1 34  1  0  0  0  0
  2  3  1  0  0  0  0
  2 35  1  0  0  0  0
  2 36  1  0  0  0  0
  3 29  1  0  0  0  0
  3  4  1  0  0  0  0
  3 60  1  0  0  0  0
  4  5  1  0  0  0  0
  4 37  1  0  0  0  0
  4 38  1  0  0  0  0
  5  6  1  0  0  0  0
  5 39  1  0  0  0  0
  5 40  1  0  0  0  0
  6 30  1  0  0  0  0
  6 28  1  0  0  0  0
  6  7  1  0  0  0  0
  7  8  1  0  0  0  0
  8  9  1  0  0  0  0
  8 41  1  0  0  0  0
  8 42  1  0  0  0  0
  9 10  1  0  0  0  0
  9 43  1  0  0  0  0
  9 44  1  0  0  0  0
 10 11  1  0  0  0  0
 10 28  1  0  0  0  0
 11 16  1  0  0  0  0
 11 12  2  0  0  0  0
 12 13  1  0  0  0  0
 13 14  2  0  0  0  0
 13 45  1  0  0  0  0
 14 15  1  0  0  0  0
 15 19  1  0  0  0  0
 15 16  2  0  0  0  0
 16 17  1  0  0  0  0
 17 18  2  0  0  0  0
 18 19  1  0  0  0  0
 18 46  1  0  0  0  0
 19 20  1  0  0  0  0
 20 27  1  0  0  0  0
 20 21  1  0  0  0  0
 20 47  1  0  0  0  0
 21 22  1  0  0  0  0
 21 48  1  0  0  0  0
 21 49  1  0  0  0  0
 22 23  1  0  0  0  0
 22 25  1  0  0  0  0
 22 27  1  0  0  0  0
 23 24  1  0  0  0  0
 23 50  1  0  0  0  0
 23 51  1  0  0  0  0
 24 52  1  0  0  0  0
 25 26  1  0  0  0  0
 25 53  1  0  0  0  0
 25 54  1  0  0  0  0
 26 55  1  0  0  0  0
 27 56  1  0  0  0  0
 27 57  1  0  0  0  0
 28 31  1  0  0  0  0
 28 29  1  0  0  0  0
 29 58  1  0  0  0  0
 29 59  1  0  0  0  0
M  CHG  1   3   1
M  END
> <s_m_source_file>
AV-unprocessed.smi

> <i_m_source_file_index>
16

> <i_lp_mmshare_version>
43012

> <i_f3d_flags>
0

> <s_epik_input>
W0NIM11bQ0gyXU4oW0NIMl1bQ0gyXTEpW0NIMl1bQ0BASF0oW0NAQEhdMTIpTihbQ0gyXVtDSDJdTzIpYyhuW2NIXW4zKWMoYzM0KW5bY0hdbjRbQ0hdKFtDSDJdNSlbQ0gyXUM1KFtDSDJdW09IXSlbQ0gyXVtPSF0=

> <s_epik_cmdline>
J2VwaWtfcHl0aG9uJywgJy1waCcsICc3LjAnLCAnLXRuJywgJzgnLCAnLW1hJywgJzIwMCcsICctbWV0YWxfYmluZGluZycsICctaW1hZScsICc8aW5maWxlLm1hZT4nLCAnLW9tYWUnLCAnPG91dGZpbGUubWFlPic=

> <r_lp_tautomer_probability>
1

> <r_epik_Ionization_Penalty>
0.0135603

> <r_epik_Ionization_Penalty_Charging>
0.0131385

> <r_epik_Ionization_Penalty_Neutral>
0.000421734

> <r_epik_State_Penalty>
0.0102091

> <r_epik_Charging_Adjusted_Penalty>
0.0233476

> <i_epik_Tot_Q>
1

> <i_epik_Tot_abs_Q>
1

> <r_epik_Metal_State_Penalty>
0.0103746

> <b_epik_Metal_Only>
0

> <s_lp_Force_Field>
OPLS_2005

> <r_lp_Energy>
64.3007

> <b_lp_Chiralities_Consistent>
1

> <s_lp_Variant>
AV-unprocessed.smi:16-7

> <Gold.Version>
5.8.1

> <Gold.Id.Protein>
6NUR|6NUR_protein|mol2

> <Gold.PLP.Fitness>
47.4434

> <Gold.PLP.PLP>
-38.5394

> <Gold.PLP.part.hbond>
-3.8722

> <Gold.PLP.part.metal>
0.0000

> <Gold.PLP.part.buried>
-1.5793

> <Gold.PLP.part.nonpolar>
-33.9406

> <Gold.PLP.part.repulsive>
0.7038

> <Gold.PLP.ligand.clash>
0.0000

> <Gold.PLP.ligand.torsion>
0.6154

> <Gold.PLP.Chemscore.Hbond>
2.2109

> <Gold.PLP.Chemscore.CHOScore>
0.9396

> <Gold.PLP.Chemscore.Metal>
0.0000

> <Gold.Chemscore.Hbonds>
donor molecule, donor type, donor heavy atom, donor atom, acceptor molecule, acceptor atom, score
      L1  H    24    52       P1 10747  1.00
      P1  H  8011  8017       L1     7  0.15
      P1  H 10785 10796       L1    26  1.00
      L1  C    18    46       P1 10171  0.94

> <Gold.PLP.Chemscore.Internal.Correction>
0.6831

> <Gold.Rescore>
     Score         DG    S(hbond)    S(metal)    S(lipo)     H(rot)  DE(clash)    DE(int)     intcor
     11.50     -13.50       1.86        0.00      88.29       3.33       0.46       1.53       ----

> <Gold.Chemscore.Fitness>
11.5048

> <Gold.Chemscore.DG>
-13.4997

> <Gold.Chemscore.ZeroCoef>
-5.4800

> <Gold.Chemscore.Hbond>
1.8570

> <Gold.Chemscore.Metal>
0.0000

> <Gold.Chemscore.Lipo>
88.2861

> <Gold.Chemscore.Internal_Hbond>
0.0000

> <Gold.Chemscore.DEClash>
0.4638

> <Gold.Chemscore.DEInternal>
1.5311

> <Gold.Chemscore.Rot>
3.3251

> <Gold.Chemscore.Internal.Correction>
   9.000000E+99

> <Gold.Chemscore.Hbonds>
donor molecule, donor type, donor heavy atom, donor atom, acceptor molecule, acceptor atom, score
      L1  H    24    52       P1 10747  1.00
      P1  H  8011  8017       L1     7  0.01
      P1  H 10785 10796       L1    26  0.66

> <Gold.Chemscore.Hbond.Weighted>
-6.2024

> <Gold.Chemscore.Metal.Weighted>
-0.0000

> <Gold.Chemscore.Lipo.Weighted>
-10.3295

> <Gold.Chemscore.Internal_Hbond.Weighted>
0.0000

> <Gold.Chemscore.DEClash.Weighted>
0.4638

> <Gold.Chemscore.DEInternal.Weighted>
1.5311

> <Gold.Chemscore.Rot.Weighted>
8.5122

> <Gold.Chemscore.Internal.Correction.Weighted>
   9.000000E+99

> <Gold.Protein.RotatedTorsions>
[ 6907 6896 6895 6894 ] final -154.02 input  -60.11 | X-H torsion
[ 7974 7965 7964 7962 ] final  -60.59 input  175.53 | X-H torsion
[ 8008 7997 7996 7995 ] final -177.86 input   59.86 | X-H torsion
[ 10167 10162 10161 10158 ] final  143.13 input  -65.29 | X-H torsion
[ 10718 10713 10712 10709 ] final   12.61 input   66.30 | X-H torsion
[ 10763 10752 10751 10750 ] final  -87.84 input  -60.55 | X-H torsion
[ 11005 11000 10999 10996 ] final  108.54 input  -57.11 | X-H torsion

> <Gold.Protein.ActiveResidues>
 VAL166  LYS551  ARG553  GLY616  TRP617  ASP618  TYR619  PRO620  LYS621  CYS622 
 ASP623  PHE694  ASN695  SER759  ASP760  ASP761  ALA762  ILE779  LEU786  VAL792 
 PHE793  MET794  SER795  GLU796  ALA797  LYS798  CYS799  TRP800  GLU811  SER814 

> <Gold.Protein.RotatedAtoms>
  151.2513  133.4349  159.2611 H   0  0  0  0  0  0  0  0  0  0  0  0  # atno 6907 bound_to 6896
  151.0615  134.9740  159.8273 H   0  0  0  0  0  0  0  0  0  0  0  0  # atno 6908 bound_to 6896
  152.5399  134.2463  159.8934 H   0  0  0  0  0  0  0  0  0  0  0  0  # atno 6909 bound_to 6896
  145.8136  140.8583  143.0169 H   0  0  0  0  0  0  0  0  0  0  0  0  # atno 7974 bound_to 7965
  156.0119  140.1242  157.0445 H   0  0  0  0  0  0  0  0  0  0  0  0  # atno 8008 bound_to 7997
  154.4279  140.1086  156.5911 H   0  0  0  0  0  0  0  0  0  0  0  0  # atno 8009 bound_to 7997
  155.6067  140.3471  155.4612 H   0  0  0  0  0  0  0  0  0  0  0  0  # atno 8010 bound_to 7997
  139.4977  144.6061  151.6376 H   0  0  0  0  0  0  0  0  0  0  0  0  # atno 10167 bound_to 10162
  157.0127  130.6123  149.5710 H   0  0  0  0  0  0  0  0  0  0  0  0  # atno 10718 bound_to 10713
  154.6381  135.5398  153.7757 H   0  0  0  0  0  0  0  0  0  0  0  0  # atno 10763 bound_to 10752
  153.0319  135.6452  154.1201 H   0  0  0  0  0  0  0  0  0  0  0  0  # atno 10764 bound_to 10752
  154.1127  135.2925  155.3206 H   0  0  0  0  0  0  0  0  0  0  0  0  # atno 10765 bound_to 10752
  139.8846  134.9433  156.5988 H   0  0  0  0  0  0  0  0  0  0  0  0  # atno 11005 bound_to 11000
  144.6755  140.0431  143.7480 LP  0  0  0  0  0  0  0  0  0  0  0  0  # atno 17320 bound_to 7965
  145.9750  139.2898  143.1076 LP  0  0  0  0  0  0  0  0  0  0  0  0  # atno 17321 bound_to 7965
  140.5723  144.0088  150.6223 LP  0  0  0  0  0  0  0  0  0  0  0  0  # atno 17342 bound_to 10162
  140.3210  143.3137  152.0784 LP  0  0  0  0  0  0  0  0  0  0  0  0  # atno 17343 bound_to 10162
  156.0130  130.5223  150.8049 LP  0  0  0  0  0  0  0  0  0  0  0  0  # atno 17370 bound_to 10713
  157.5309  131.0936  150.9956 LP  0  0  0  0  0  0  0  0  0  0  0  0  # atno 17371 bound_to 10713
  140.7899  133.8590  155.8638 LP  0  0  0  0  0  0  0  0  0  0  0  0  # atno 17394 bound_to 11000
  140.9686  134.1561  157.4595 LP  0  0  0  0  0  0  0  0  0  0  0  0  # atno 17395 bound_to 11000

$$$$
