AV-unprocessed.smi:3202|AV-procd|sdf|12246|dock2
  -GOLD-   2272018 83D 1   1.00000     0.00000
 Structure written by MMmdl.
 43 44  0  0  0  0  0  0  0  0  2 V2000
  149.6940  141.2725  155.1182 C   0  0  0  0  0  0  0  0  0  0  0  0
  149.0466  140.2066  154.2842 C   0  0  0  0  0  0  0  0  0  0  0  0
  147.7544  140.2221  153.6825 C   0  0  0  0  0  0  0  0  0  0  0  0
  147.6652  139.0196  153.0364 C   0  0  0  0  0  0  0  0  0  0  0  0
  146.5696  138.3954  152.2298 C   0  0  0  0  0  0  0  0  0  0  0  0
  146.0058  137.0795  152.8102 C   0  0  1  0  0  0  0  0  0  0  0  0
  145.2551  136.2614  151.7465 C   0  0  0  0  0  0  0  0  0  0  0  0
  147.0931  136.2457  153.3736 N   0  3  0  0  0  0  0  0  0  0  0  0
  146.6712  135.0074  154.0716 C   0  0  2  0  0  0  0  0  0  0  0  0
  146.2312  135.2277  155.5244 C   0  0  0  0  0  0  0  0  0  0  0  0
  146.4357  133.8760  156.2196 C   0  0  0  0  0  0  0  0  0  0  0  0
  147.2217  132.9968  155.2346 C   0  0  0  0  0  0  0  0  0  0  0  0
  147.7832  133.9397  154.1540 C   0  0  0  0  0  0  0  0  0  0  0  0
  147.9686  133.2026  152.8142 C   0  0  0  0  0  0  0  0  0  0  0  0
  149.1406  134.5181  154.6174 C   0  0  0  0  0  0  0  0  0  0  0  0
  148.8507  138.3662  153.2850 N   0  0  0  0  0  0  0  0  0  0  0  0
  149.7039  139.0834  154.0391 N   0  0  0  0  0  0  0  0  0  0  0  0
  149.0913  137.4448  152.9480 H   0  0  0  0  0  0  0  0  0  0  0  0
  148.9913  142.0739  155.3477 H   0  0  0  0  0  0  0  0  0  0  0  0
  150.5436  141.7154  154.5980 H   0  0  0  0  0  0  0  0  0  0  0  0
  150.0546  140.8687  156.0647 H   0  0  0  0  0  0  0  0  0  0  0  0
  147.0081  141.0018  153.7220 H   0  0  0  0  0  0  0  0  0  0  0  0
  146.9544  138.2235  151.2257 H   0  0  0  0  0  0  0  0  0  0  0  0
  145.7556  139.1125  152.1127 H   0  0  0  0  0  0  0  0  0  0  0  0
  145.2965  137.3140  153.6053 H   0  0  0  0  0  0  0  0  0  0  0  0
  144.3998  136.8065  151.3473 H   0  0  0  0  0  0  0  0  0  0  0  0
  144.8748  135.3296  152.1666 H   0  0  0  0  0  0  0  0  0  0  0  0
  145.9054  136.0066  150.9088 H   0  0  0  0  0  0  0  0  0  0  0  0
  147.6632  135.9490  152.5944 H   0  0  0  0  0  0  0  0  0  0  0  0
  145.8317  134.5737  153.5246 H   0  0  0  0  0  0  0  0  0  0  0  0
  146.8608  135.9773  156.0055 H   0  0  0  0  0  0  0  0  0  0  0  0
  145.1985  135.5717  155.5929 H   0  0  0  0  0  0  0  0  0  0  0  0
  146.9897  134.0103  157.1494 H   0  0  0  0  0  0  0  0  0  0  0  0
  145.4826  133.4109  156.4736 H   0  0  0  0  0  0  0  0  0  0  0  0
  147.9974  132.4130  155.7315 H   0  0  0  0  0  0  0  0  0  0  0  0
  146.5324  132.2818  154.7826 H   0  0  0  0  0  0  0  0  0  0  0  0
  148.6899  132.3901  152.9086 H   0  0  0  0  0  0  0  0  0  0  0  0
  148.3322  133.8769  152.0381 H   0  0  0  0  0  0  0  0  0  0  0  0
  147.0331  132.7689  152.4595 H   0  0  0  0  0  0  0  0  0  0  0  0
  149.8756  133.7243  154.7561 H   0  0  0  0  0  0  0  0  0  0  0  0
  149.0596  135.0498  155.5656 H   0  0  0  0  0  0  0  0  0  0  0  0
  149.5552  135.2113  153.8854 H   0  0  0  0  0  0  0  0  0  0  0  0
  147.6674  136.8059  153.9871 H   0  0  0  0  0  0  0  0  0  0  0  0
  1 19  1  0  0  0  0
  1 20  1  0  0  0  0
  1 21  1  0  0  0  0
  1  2  1  0  0  0  0
  2 17  2  0  0  0  0
  2  3  1  0  0  0  0
  3  4  2  0  0  0  0
  3 22  1  0  0  0  0
  4 16  1  0  0  0  0
  4  5  1  0  0  0  0
  5  6  1  0  0  0  0
  5 23  1  0  0  0  0
  5 24  1  0  0  0  0
  6  7  1  0  0  0  0
  6  8  1  0  0  0  0
  6 25  1  0  0  0  0
  7 26  1  0  0  0  0
  7 27  1  0  0  0  0
  7 28  1  0  0  0  0
  8  9  1  0  0  0  0
  8 29  1  0  0  0  0
  8 43  1  0  0  0  0
  9 13  1  0  0  0  0
  9 10  1  0  0  0  0
  9 30  1  0  0  0  0
 10 11  1  0  0  0  0
 10 31  1  0  0  0  0
 10 32  1  0  0  0  0
 11 12  1  0  0  0  0
 11 33  1  0  0  0  0
 11 34  1  0  0  0  0
 12 13  1  0  0  0  0
 12 35  1  0  0  0  0
 12 36  1  0  0  0  0
 13 14  1  0  0  0  0
 13 15  1  0  0  0  0
 14 37  1  0  0  0  0
 14 38  1  0  0  0  0
 14 39  1  0  0  0  0
 15 40  1  0  0  0  0
 15 41  1  0  0  0  0
 15 42  1  0  0  0  0
 16 17  1  0  0  0  0
 16 18  1  0  0  0  0
M  CHG  1   8   1
M  END
> <s_m_source_file>
AV-unprocessed.smi

> <i_m_source_file_index>
3202

> <i_lp_mmshare_version>
43012

> <i_f3d_flags>
0

> <s_epik_input>
W0NIM11jMVtjSF1jKG5bbkhdMSlbQ0gyXVtDQEhdKFtDSDNdKVtOSF1bQ0BASF0oQzIoW0NIM10pW0NIM10pW0NIMl1bQ0gyXVtDSDJdMg==

> <s_epik_cmdline>
J2VwaWtfcHl0aG9uJywgJy1waCcsICc3LjAnLCAnLXRuJywgJzgnLCAnLW1hJywgJzIwMCcsICctbWV0YWxfYmluZGluZycsICctaW1hZScsICc8aW5maWxlLm1hZT4nLCAnLW9tYWUnLCAnPG91dGZpbGUubWFlPic=

> <r_lp_tautomer_probability>
0.5

> <r_epik_Ionization_Penalty>
0.000449684

> <r_epik_Ionization_Penalty_Charging>
0.000404963

> <r_epik_Ionization_Penalty_Neutral>
4.47208e-05

> <r_epik_State_Penalty>
0.41068

> <r_epik_Charging_Adjusted_Penalty>
0.411085

> <i_epik_Tot_Q>
1

> <i_epik_Tot_abs_Q>
1

> <r_epik_Metal_State_Penalty>
0.410687

> <b_epik_Metal_Only>
0

> <s_lp_Force_Field>
OPLS_2005

> <r_lp_Energy>
31.7221

> <b_lp_Chiralities_Consistent>
1

> <s_lp_Variant>
AV-unprocessed.smi:3202-6

> <Gold.Version>
5.8.1

> <Gold.Id.Protein>
6NUR|6NUR_protein|mol2

> <Gold.PLP.Fitness>
33.6946

> <Gold.PLP.PLP>
-25.5729

> <Gold.PLP.part.hbond>
-2.7506

> <Gold.PLP.part.metal>
0.0000

> <Gold.PLP.part.buried>
-0.4392

> <Gold.PLP.part.nonpolar>
-23.2303

> <Gold.PLP.part.repulsive>
0.7302

> <Gold.PLP.ligand.clash>
0.0000

> <Gold.PLP.ligand.torsion>
0.4237

> <Gold.PLP.Chemscore.Hbond>
2.9840

> <Gold.PLP.Chemscore.CHOScore>
0.0000

> <Gold.PLP.Chemscore.Metal>
0.0000

> <Gold.Chemscore.Hbonds>
donor molecule, donor type, donor heavy atom, donor atom, acceptor molecule, acceptor atom, score
      L1  H     8    29       P1  7948  1.66
      L1  H    16    18       P1  7948  1.00

> <Gold.PLP.Chemscore.Internal.Correction>
0.0171

> <Gold.Rescore>
     Score         DG    S(hbond)    S(metal)    S(lipo)     H(rot)  DE(clash)    DE(int)     intcor
     13.35     -15.68       1.94        0.00      63.70       1.46       0.05       2.28       ----

> <Gold.Chemscore.Fitness>
13.3475

> <Gold.Chemscore.DG>
-15.6771

> <Gold.Chemscore.ZeroCoef>
-5.4800

> <Gold.Chemscore.Hbond>
1.9402

> <Gold.Chemscore.Metal>
0.0000

> <Gold.Chemscore.Lipo>
63.7030

> <Gold.Chemscore.Internal_Hbond>
0.0000

> <Gold.Chemscore.DEClash>
0.0544

> <Gold.Chemscore.DEInternal>
2.2752

> <Gold.Chemscore.Rot>
1.4596

> <Gold.Chemscore.Internal.Correction>
   9.000000E+99

> <Gold.Chemscore.Hbonds>
donor molecule, donor type, donor heavy atom, donor atom, acceptor molecule, acceptor atom, score
      L1  H     8    29       P1  7948  0.78
      L1  H    16    18       P1  7948  0.95

> <Gold.Chemscore.Hbond.Weighted>
-6.4803

> <Gold.Chemscore.Metal.Weighted>
-0.0000

> <Gold.Chemscore.Lipo.Weighted>
-7.4533

> <Gold.Chemscore.Internal_Hbond.Weighted>
0.0000

> <Gold.Chemscore.DEClash.Weighted>
0.0544

> <Gold.Chemscore.DEInternal.Weighted>
2.2752

> <Gold.Chemscore.Rot.Weighted>
3.7365

> <Gold.Chemscore.Internal.Correction.Weighted>
   9.000000E+99

> <Gold.Protein.RotatedTorsions>
[ 6907 6896 6895 6894 ] final  -21.25 input  -60.11 | X-H torsion
[ 7974 7965 7964 7962 ] final  -81.44 input  175.53 | X-H torsion
[ 8008 7997 7996 7995 ] final   16.63 input   59.86 | X-H torsion
[ 10167 10162 10161 10158 ] final -122.48 input  -65.29 | X-H torsion
[ 10718 10713 10712 10709 ] final -161.06 input   66.30 | X-H torsion
[ 10763 10752 10751 10750 ] final  123.38 input  -60.55 | X-H torsion
[ 11005 11000 10999 10996 ] final  147.20 input  -57.11 | X-H torsion

> <Gold.Protein.ActiveResidues>
 VAL166  LYS551  ARG553  GLY616  TRP617  ASP618  TYR619  PRO620  LYS621  CYS622 
 ASP623  PHE694  ASN695  SER759  ASP760  ASP761  ALA762  ILE779  LEU786  VAL792 
 PHE793  MET794  SER795  GLU796  ALA797  LYS798  CYS799  TRP800  GLU811  SER814 

> <Gold.Protein.RotatedAtoms>
  151.2361  135.0572  159.9006 H   0  0  0  0  0  0  0  0  0  0  0  0  # atno 6907 bound_to 6896
  152.5399  134.0484  159.8109 H   0  0  0  0  0  0  0  0  0  0  0  0  # atno 6908 bound_to 6896
  151.0671  133.5448  159.2661 H   0  0  0  0  0  0  0  0  0  0  0  0  # atno 6909 bound_to 6896
  145.5467  140.9502  143.1521 H   0  0  0  0  0  0  0  0  0  0  0  0  # atno 7974 bound_to 7965
  154.8798  140.2971  155.5432 H   0  0  0  0  0  0  0  0  0  0  0  0  # atno 8008 bound_to 7997
  156.3022  140.2444  156.3733 H   0  0  0  0  0  0  0  0  0  0  0  0  # atno 8009 bound_to 7997
  154.8729  140.0401  157.1724 H   0  0  0  0  0  0  0  0  0  0  0  0  # atno 8010 bound_to 7997
  140.0138  143.5414  152.2251 H   0  0  0  0  0  0  0  0  0  0  0  0  # atno 10167 bound_to 10162
  156.5909  130.8770  151.2889 H   0  0  0  0  0  0  0  0  0  0  0  0  # atno 10718 bound_to 10713
  153.6446  135.3373  155.3082 H   0  0  0  0  0  0  0  0  0  0  0  0  # atno 10763 bound_to 10752
  154.8551  135.4326  154.1968 H   0  0  0  0  0  0  0  0  0  0  0  0  # atno 10764 bound_to 10752
  153.2895  135.7016  153.7381 H   0  0  0  0  0  0  0  0  0  0  0  0  # atno 10765 bound_to 10752
  140.0856  134.9071  157.1570 H   0  0  0  0  0  0  0  0  0  0  0  0  # atno 11005 bound_to 11000
  144.7550  139.7098  143.7258 LP  0  0  0  0  0  0  0  0  0  0  0  0  # atno 17320 bound_to 7965
  146.1945  139.5203  142.9784 LP  0  0  0  0  0  0  0  0  0  0  0  0  # atno 17321 bound_to 7965
  139.6187  144.7624  151.2789 LP  0  0  0  0  0  0  0  0  0  0  0  0  # atno 17342 bound_to 10162
  140.7370  143.6689  150.8099 LP  0  0  0  0  0  0  0  0  0  0  0  0  # atno 17343 bound_to 10162
  157.7304  130.9684  150.1830 LP  0  0  0  0  0  0  0  0  0  0  0  0  # atno 17370 bound_to 10713
  156.2550  130.3704  149.8191 LP  0  0  0  0  0  0  0  0  0  0  0  0  # atno 17371 bound_to 10713
  140.3425  134.2688  155.7210 LP  0  0  0  0  0  0  0  0  0  0  0  0  # atno 17394 bound_to 11000
  141.2061  133.7842  157.0194 LP  0  0  0  0  0  0  0  0  0  0  0  0  # atno 17395 bound_to 11000

$$$$
