AV-unprocessed.smi:1174|AV-procd|sdf|4948|dock1
  -GOLD-   22720 3533D 1   1.00000     0.00000
 Structure written by MMmdl.
 41 42  0  0  0  0  0  0  0  0  1 V2000
  151.2205  142.7070  157.1407 C   0  0  0  0  0  0  0  0  0  0  0  0
  150.8455  141.3503  157.7519 C   0  0  2  0  0  0  0  0  0  0  0  0
  152.0129  140.7625  158.5746 C   0  0  0  0  0  0  0  0  0  0  0  0
  152.3863  141.6014  159.7000 N   0  0  0  0  0  0  0  0  0  0  0  0
  153.4502  141.4513  160.5648 C   0  0  0  0  0  0  0  0  0  0  0  0
  153.3778  142.4639  161.4776 C   0  0  0  0  0  0  0  0  0  0  0  0
  152.2244  143.1957  161.0786 C   0  0  0  0  0  0  0  0  0  0  0  0
  151.6354  142.6794  160.0120 N   0  0  0  0  0  0  0  0  0  0  0  0
  150.4571  140.4375  156.6770 N   0  0  0  0  0  0  0  0  0  0  0  0
  151.2956  139.8344  155.8186 C   0  0  0  0  0  0  0  0  0  0  0  0
  152.5186  139.9636  155.8746 O   0  0  0  0  0  0  0  0  0  0  0  0
  150.6429  138.9812  154.7149 C   0  0  1  0  0  0  0  0  0  0  0  0
  149.9338  137.7323  155.2942 C   0  0  0  0  0  0  0  0  0  0  0  0
  148.5438  138.0391  155.8866 C   0  0  0  0  0  0  0  0  0  0  0  0
  147.6930  138.8548  154.8985 C   0  0  0  0  0  0  0  0  0  0  0  0
  148.4148  140.0884  154.5400 N   0  0  0  0  0  0  0  0  0  0  0  0
  148.0415  141.3583  154.8430 C   0  0  0  0  0  0  0  0  0  0  0  0
  149.0172  142.2704  154.7922 N   0  0  0  0  0  0  0  0  0  0  0  0
  146.8922  141.6810  155.1394 O   0  0  0  0  0  0  0  0  0  0  0  0
  149.6668  139.7916  153.8250 C   0  0  0  0  0  0  0  0  0  0  0  0
  151.4867  143.4256  157.9163 H   0  0  0  0  0  0  0  0  0  0  0  0
  150.3874  143.1273  156.5762 H   0  0  0  0  0  0  0  0  0  0  0  0
  152.0712  142.6173  156.4640 H   0  0  0  0  0  0  0  0  0  0  0  0
  149.9976  141.5220  158.4179 H   0  0  0  0  0  0  0  0  0  0  0  0
  151.7563  139.7703  158.9486 H   0  0  0  0  0  0  0  0  0  0  0  0
  152.8925  140.6365  157.9416 H   0  0  0  0  0  0  0  0  0  0  0  0
  154.1544  140.6384  160.4665 H   0  0  0  0  0  0  0  0  0  0  0  0
  154.0446  142.6516  162.3057 H   0  0  0  0  0  0  0  0  0  0  0  0
  151.8001  144.0804  161.5298 H   0  0  0  0  0  0  0  0  0  0  0  0
  149.4680  140.2734  156.5596 H   0  0  0  0  0  0  0  0  0  0  0  0
  151.4488  138.6259  154.0705 H   0  0  0  0  0  0  0  0  0  0  0  0
  149.8160  137.0003  154.4944 H   0  0  0  0  0  0  0  0  0  0  0  0
  150.5581  137.2493  156.0473 H   0  0  0  0  0  0  0  0  0  0  0  0
  148.0358  137.1068  156.1344 H   0  0  0  0  0  0  0  0  0  0  0  0
  148.6448  138.5874  156.8235 H   0  0  0  0  0  0  0  0  0  0  0  0
  147.5190  138.2719  153.9929 H   0  0  0  0  0  0  0  0  0  0  0  0
  146.7047  139.0256  155.3245 H   0  0  0  0  0  0  0  0  0  0  0  0
  148.8163  143.2346  155.0118 H   0  0  0  0  0  0  0  0  0  0  0  0
  149.9529  141.9871  154.5407 H   0  0  0  0  0  0  0  0  0  0  0  0
  150.1641  140.6905  153.4570 H   0  0  0  0  0  0  0  0  0  0  0  0
  149.4261  139.2151  152.9308 H   0  0  0  0  0  0  0  0  0  0  0  0
  1  2  1  0  0  0  0
  1 21  1  0  0  0  0
  1 22  1  0  0  0  0
  1 23  1  0  0  0  0
  2  3  1  0  0  0  0
  2  9  1  0  0  0  0
  2 24  1  0  0  0  0
  3  4  1  0  0  0  0
  3 25  1  0  0  0  0
  3 26  1  0  0  0  0
  4  8  1  0  0  0  0
  4  5  1  0  0  0  0
  5  6  2  0  0  0  0
  5 27  1  0  0  0  0
  6  7  1  0  0  0  0
  6 28  1  0  0  0  0
  7  8  2  0  0  0  0
  7 29  1  0  0  0  0
  9 10  1  0  0  0  0
  9 30  1  0  0  0  0
 10 11  2  0  0  0  0
 10 12  1  0  0  0  0
 12 20  1  0  0  0  0
 12 13  1  0  0  0  0
 12 31  1  0  0  0  0
 13 14  1  0  0  0  0
 13 32  1  0  0  0  0
 13 33  1  0  0  0  0
 14 15  1  0  0  0  0
 14 34  1  0  0  0  0
 14 35  1  0  0  0  0
 15 16  1  0  0  0  0
 15 36  1  0  0  0  0
 15 37  1  0  0  0  0
 16 17  1  0  0  0  0
 16 20  1  0  0  0  0
 17 18  1  0  0  0  0
 17 19  2  0  0  0  0
 18 38  1  0  0  0  0
 18 39  1  0  0  0  0
 20 40  1  0  0  0  0
 20 41  1  0  0  0  0
M  END
> <s_m_source_file>
AV-unprocessed.smi

> <i_m_source_file_index>
1174

> <i_lp_mmshare_version>
43012

> <i_f3d_flags>
0

> <s_epik_input>
bjFbY0hdW2NIXVtjSF1uMVtDSDJdW0NAQEhdKFtDSDNdKVtOSF1DKD1PKVtDQEBIXTJbQ0gyXVtDSDJdW0NIMl1OKFtDSDJdMilDKD1PKVtOSDJd

> <s_epik_cmdline>
J2VwaWtfcHl0aG9uJywgJy1waCcsICc3LjAnLCAnLXRuJywgJzgnLCAnLW1hJywgJzIwMCcsICctbWV0YWxfYmluZGluZycsICctaW1hZScsICc8aW5maWxlLm1hZT4nLCAnLW9tYWUnLCAnPG91dGZpbGUubWFlPic=

> <r_lp_tautomer_probability>
1

> <r_epik_Ionization_Penalty>
0.000372452

> <r_epik_Ionization_Penalty_Charging>
0

> <r_epik_Ionization_Penalty_Neutral>
0.000372452

> <r_epik_State_Penalty>
-0

> <r_epik_Charging_Adjusted_Penalty>
0

> <i_epik_Tot_Q>
0

> <i_epik_Tot_abs_Q>
0

> <r_epik_Metal_State_Penalty>
-0

> <b_epik_Metal_Only>
0

> <s_lp_Force_Field>
OPLS_2005

> <r_lp_Energy>
23.1922

> <b_lp_Chiralities_Consistent>
1

> <s_lp_Variant>
AV-unprocessed.smi:1174-3

> <Gold.Version>
5.8.1

> <Gold.Id.Protein>
6NUR|6NUR_protein|mol2

> <Gold.PLP.Fitness>
39.7041

> <Gold.PLP.PLP>
-34.8293

> <Gold.PLP.part.hbond>
-2.3336

> <Gold.PLP.part.metal>
0.0000

> <Gold.PLP.part.buried>
-1.8806

> <Gold.PLP.part.nonpolar>
-30.2647

> <Gold.PLP.part.repulsive>
1.1631

> <Gold.PLP.ligand.clash>
0.4002

> <Gold.PLP.ligand.torsion>
0.4088

> <Gold.PLP.Chemscore.Hbond>
2.0000

> <Gold.PLP.Chemscore.CHOScore>
0.0000

> <Gold.PLP.Chemscore.Metal>
0.0000

> <Gold.Chemscore.Hbonds>
donor molecule, donor type, donor heavy atom, donor atom, acceptor molecule, acceptor atom, score
      L1  H    18    38       P1  8028  1.00
      P1  H  7997  8008       L1    11  1.00

> <Gold.PLP.Chemscore.Internal.Correction>
0.0925

> <Gold.Rescore>
     Score         DG    S(hbond)    S(metal)    S(lipo)     H(rot)  DE(clash)    DE(int)     intcor
     13.41     -16.30       1.99        0.00      75.47       1.82       0.05       2.84       ----

> <Gold.Chemscore.Fitness>
13.4145

> <Gold.Chemscore.DG>
-16.3043

> <Gold.Chemscore.ZeroCoef>
-5.4800

> <Gold.Chemscore.Hbond>
1.9925

> <Gold.Chemscore.Metal>
0.0000

> <Gold.Chemscore.Lipo>
75.4687

> <Gold.Chemscore.Internal_Hbond>
0.0000

> <Gold.Chemscore.DEClash>
0.0453

> <Gold.Chemscore.DEInternal>
2.8445

> <Gold.Chemscore.Rot>
1.8206

> <Gold.Chemscore.Internal.Correction>
   9.000000E+99

> <Gold.Chemscore.Hbonds>
donor molecule, donor type, donor heavy atom, donor atom, acceptor molecule, acceptor atom, score
      L1  H    18    38       P1  8028  0.99
      P1  H  7997  8008       L1    11  1.00

> <Gold.Chemscore.Hbond.Weighted>
-6.6551

> <Gold.Chemscore.Metal.Weighted>
-0.0000

> <Gold.Chemscore.Lipo.Weighted>
-8.8298

> <Gold.Chemscore.Internal_Hbond.Weighted>
0.0000

> <Gold.Chemscore.DEClash.Weighted>
0.0453

> <Gold.Chemscore.DEInternal.Weighted>
2.8445

> <Gold.Chemscore.Rot.Weighted>
4.6607

> <Gold.Chemscore.Internal.Correction.Weighted>
   9.000000E+99

> <Gold.Protein.RotatedTorsions>
[ 6907 6896 6895 6894 ] final   27.88 input  -60.11 | X-H torsion
[ 7974 7965 7964 7962 ] final -139.53 input  175.53 | X-H torsion
[ 8008 7997 7996 7995 ] final  -37.86 input   59.86 | X-H torsion
[ 10167 10162 10161 10158 ] final    8.21 input  -65.29 | X-H torsion
[ 10718 10713 10712 10709 ] final   69.48 input   66.30 | X-H torsion
[ 10763 10752 10751 10750 ] final  -34.77 input  -60.55 | X-H torsion
[ 11005 11000 10999 10996 ] final   -4.51 input  -57.11 | X-H torsion

> <Gold.Protein.ActiveResidues>
 VAL166  LYS551  ARG553  GLY616  TRP617  ASP618  TYR619  PRO620  LYS621  CYS622 
 ASP623  PHE694  ASN695  SER759  ASP760  ASP761  ALA762  ILE779  LEU786  VAL792 
 PHE793  MET794  SER795  GLU796  ALA797  LYS798  CYS799  TRP800  GLU811  SER814 

> <Gold.Protein.RotatedAtoms>
  152.0088  134.9888  160.0567 H   0  0  0  0  0  0  0  0  0  0  0  0  # atno 6907 bound_to 6896
  152.1449  133.4481  159.4793 H   0  0  0  0  0  0  0  0  0  0  0  0  # atno 6908 bound_to 6896
  150.6869  134.2178  159.4428 H   0  0  0  0  0  0  0  0  0  0  0  0  # atno 6909 bound_to 6896
  144.8669  140.6308  143.5292 H   0  0  0  0  0  0  0  0  0  0  0  0  # atno 7974 bound_to 7965
  154.4046  140.1593  156.2605 H   0  0  0  0  0  0  0  0  0  0  0  0  # atno 8008 bound_to 7997
  155.9041  140.3431  155.6026 H   0  0  0  0  0  0  0  0  0  0  0  0  # atno 8009 bound_to 7997
  155.7414  140.0793  157.2234 H   0  0  0  0  0  0  0  0  0  0  0  0  # atno 8010 bound_to 7997
  140.6327  143.7956  150.7317 H   0  0  0  0  0  0  0  0  0  0  0  0  # atno 10167 bound_to 10162
  157.6348  130.9428  150.0519 H   0  0  0  0  0  0  0  0  0  0  0  0  # atno 10718 bound_to 10713
  153.8522  135.6848  153.4791 H   0  0  0  0  0  0  0  0  0  0  0  0  # atno 10763 bound_to 10752
  153.1390  135.4665  154.9465 H   0  0  0  0  0  0  0  0  0  0  0  0  # atno 10764 bound_to 10752
  154.7797  135.3265  154.7964 H   0  0  0  0  0  0  0  0  0  0  0  0  # atno 10765 bound_to 10752
  140.6810  133.9153  155.8555 H   0  0  0  0  0  0  0  0  0  0  0  0  # atno 11005 bound_to 11000
  145.4203  139.1565  143.4077 LP  0  0  0  0  0  0  0  0  0  0  0  0  # atno 17320 bound_to 7965
  146.2902  140.4313  142.8742 LP  0  0  0  0  0  0  0  0  0  0  0  0  # atno 17321 bound_to 7965
  140.1571  143.4307  152.2092 LP  0  0  0  0  0  0  0  0  0  0  0  0  # atno 17342 bound_to 10162
  139.5540  144.7359  151.4349 LP  0  0  0  0  0  0  0  0  0  0  0  0  # atno 17343 bound_to 10162
  156.1578  130.3643  149.9343 LP  0  0  0  0  0  0  0  0  0  0  0  0  # atno 17370 bound_to 10713
  156.7348  130.9057  151.3628 LP  0  0  0  0  0  0  0  0  0  0  0  0  # atno 17371 bound_to 10713
  141.0317  134.0746  157.4006 LP  0  0  0  0  0  0  0  0  0  0  0  0  # atno 17394 bound_to 11000
  139.8952  135.0139  156.6988 LP  0  0  0  0  0  0  0  0  0  0  0  0  # atno 17395 bound_to 11000

$$$$
