AV-unprocessed.smi:848|AV-procd|sdf|3940|dock4
  -GOLD-   22720 1403D 1   1.00000     0.00000
 Structure written by MMmdl.
 46 48  0  0  0  0  0  0  0  0  1 V2000
  148.3008  145.3674  161.2727 C   0  0  0  0  0  0  0  0  0  0  0  0
  147.1637  144.4665  160.8366 C   0  0  0  0  0  0  0  0  0  0  0  0
  146.0117  144.3363  161.6375 C   0  0  0  0  0  0  0  0  0  0  0  0
  144.9599  143.4928  161.2294 C   0  0  0  0  0  0  0  0  0  0  0  0
  143.7175  143.3565  162.0855 C   0  0  0  0  0  0  0  0  0  0  0  0
  145.0648  142.7805  160.0177 C   0  0  0  0  0  0  0  0  0  0  0  0
  146.2100  142.8998  159.2043 C   0  0  0  0  0  0  0  0  0  0  0  0
  146.2268  142.1636  158.0391 O   0  0  0  0  0  0  0  0  0  0  0  0
  147.3260  142.3270  157.1513 C   0  0  0  0  0  0  0  0  0  0  0  0
  148.5429  141.5397  157.6656 C   0  0  1  0  0  0  0  0  0  0  0  0
  148.1461  140.2173  157.9703 O   0  0  0  0  0  0  0  0  0  0  0  0
  149.7519  141.5650  156.7079 C   0  0  0  0  0  0  0  0  0  0  0  0
  150.9669  141.0597  157.3334 N   0  0  0  0  0  0  0  0  0  0  0  0
  151.7194  139.9890  156.9727 C   0  0  0  0  0  0  0  0  0  0  0  0
  151.3588  139.1376  155.7881 C   0  0  0  0  0  0  0  0  0  0  0  0
  151.1666  139.8674  154.5930 O   0  0  0  0  0  0  0  0  0  0  0  0
  152.7939  139.7593  157.7320 N   0  0  0  0  0  0  0  0  0  0  0  0
  152.7286  140.7693  158.6709 C   0  0  0  0  0  0  0  0  0  0  0  0
  153.5817  141.0718  159.7563 C   0  0  0  0  0  0  0  0  0  0  0  0
  153.3099  142.1750  160.5919 C   0  0  0  0  0  0  0  0  0  0  0  0
  152.1837  142.9896  160.3546 C   0  0  0  0  0  0  0  0  0  0  0  0
  151.3209  142.7053  159.2787 C   0  0  0  0  0  0  0  0  0  0  0  0
  151.5968  141.6027  158.4482 C   0  0  0  0  0  0  0  0  0  0  0  0
  147.2617  143.7527  159.6246 C   0  0  0  0  0  0  0  0  0  0  0  0
  148.0437  145.9267  162.1727 H   0  0  0  0  0  0  0  0  0  0  0  0
  148.5417  146.0825  160.4858 H   0  0  0  0  0  0  0  0  0  0  0  0
  149.1914  144.7746  161.4826 H   0  0  0  0  0  0  0  0  0  0  0  0
  145.9333  144.8833  162.5661 H   0  0  0  0  0  0  0  0  0  0  0  0
  143.2888  142.3582  161.9930 H   0  0  0  0  0  0  0  0  0  0  0  0
  142.9669  144.0834  161.7745 H   0  0  0  0  0  0  0  0  0  0  0  0
  143.9473  143.5285  163.1375 H   0  0  0  0  0  0  0  0  0  0  0  0
  144.2573  142.1344  159.7047 H   0  0  0  0  0  0  0  0  0  0  0  0
  147.0455  141.9405  156.1701 H   0  0  0  0  0  0  0  0  0  0  0  0
  147.5844  143.3805  157.0310 H   0  0  0  0  0  0  0  0  0  0  0  0
  148.8445  141.9856  158.6141 H   0  0  0  0  0  0  0  0  0  0  0  0
  147.3144  140.0493  157.5543 H   0  0  0  0  0  0  0  0  0  0  0  0
  149.5457  140.9939  155.8028 H   0  0  0  0  0  0  0  0  0  0  0  0
  149.9416  142.5878  156.3805 H   0  0  0  0  0  0  0  0  0  0  0  0
  152.1451  138.4043  155.6123 H   0  0  0  0  0  0  0  0  0  0  0  0
  150.4444  138.5884  156.0132 H   0  0  0  0  0  0  0  0  0  0  0  0
  150.2397  139.9189  154.4186 H   0  0  0  0  0  0  0  0  0  0  0  0
  154.4469  140.4537  159.9453 H   0  0  0  0  0  0  0  0  0  0  0  0
  153.9689  142.3969  161.4184 H   0  0  0  0  0  0  0  0  0  0  0  0
  151.9834  143.8331  160.9989 H   0  0  0  0  0  0  0  0  0  0  0  0
  150.4576  143.3271  159.0937 H   0  0  0  0  0  0  0  0  0  0  0  0
  148.1567  143.8744  159.0338 H   0  0  0  0  0  0  0  0  0  0  0  0
  1  2  1  0  0  0  0
  1 25  1  0  0  0  0
  1 26  1  0  0  0  0
  1 27  1  0  0  0  0
  2 24  1  0  0  0  0
  2  3  2  0  0  0  0
  3  4  1  0  0  0  0
  3 28  1  0  0  0  0
  4  5  1  0  0  0  0
  4  6  2  0  0  0  0
  5 29  1  0  0  0  0
  5 30  1  0  0  0  0
  5 31  1  0  0  0  0
  6  7  1  0  0  0  0
  6 32  1  0  0  0  0
  7  8  1  0  0  0  0
  7 24  2  0  0  0  0
  8  9  1  0  0  0  0
  9 10  1  0  0  0  0
  9 33  1  0  0  0  0
  9 34  1  0  0  0  0
 10 11  1  0  0  0  0
 10 12  1  0  0  0  0
 10 35  1  0  0  0  0
 11 36  1  0  0  0  0
 12 13  1  0  0  0  0
 12 37  1  0  0  0  0
 12 38  1  0  0  0  0
 13 23  1  0  0  0  0
 13 14  1  0  0  0  0
 14 15  1  0  0  0  0
 14 17  2  0  0  0  0
 15 16  1  0  0  0  0
 15 39  1  0  0  0  0
 15 40  1  0  0  0  0
 16 41  1  0  0  0  0
 17 18  1  0  0  0  0
 18 23  2  0  0  0  0
 18 19  1  0  0  0  0
 19 20  2  0  0  0  0
 19 42  1  0  0  0  0
 20 21  1  0  0  0  0
 20 43  1  0  0  0  0
 21 22  2  0  0  0  0
 21 44  1  0  0  0  0
 22 23  1  0  0  0  0
 22 45  1  0  0  0  0
 24 46  1  0  0  0  0
M  END
> <s_m_source_file>
AV-unprocessed.smi

> <i_m_source_file_index>
848

> <i_lp_mmshare_version>
43012

> <i_f3d_flags>
0

> <s_epik_input>
W0NIM11jMVtjSF1jKFtDSDNdKVtjSF1jKFtjSF0xKU9bQ0gyXVtDQEhdKFtPSF0pW0NIMl1uKGMobjIpW0NIMl1bT0hdKWMoYzIzKVtjSF1bY0hdW2NIXVtjSF0z

> <s_epik_cmdline>
J2VwaWtfcHl0aG9uJywgJy1waCcsICc3LjAnLCAnLXRuJywgJzgnLCAnLW1hJywgJzIwMCcsICctbWV0YWxfYmluZGluZycsICctaW1hZScsICc8aW5maWxlLm1hZT4nLCAnLW9tYWUnLCAnPG91dGZpbGUubWFlPic=

> <r_lp_tautomer_probability>
1

> <r_epik_Ionization_Penalty>
0.0554234

> <r_epik_Ionization_Penalty_Charging>
0

> <r_epik_Ionization_Penalty_Neutral>
0.0554234

> <r_epik_State_Penalty>
0.0476717

> <r_epik_Charging_Adjusted_Penalty>
0.0476717

> <i_epik_Tot_Q>
0

> <i_epik_Tot_abs_Q>
0

> <r_epik_Metal_State_Penalty>
4.96399e-05

> <b_epik_Metal_Only>
0

> <s_lp_Force_Field>
OPLS_2005

> <r_lp_Energy>
17.6838

> <b_lp_Chiralities_Consistent>
1

> <s_lp_Variant>
AV-unprocessed.smi:848-2

> <Gold.Version>
5.8.1

> <Gold.Id.Protein>
6NUR|6NUR_protein|mol2

> <Gold.PLP.Fitness>
55.0918

> <Gold.PLP.PLP>
-49.4503

> <Gold.PLP.part.hbond>
-2.9608

> <Gold.PLP.part.metal>
0.0000

> <Gold.PLP.part.buried>
-7.7603

> <Gold.PLP.part.nonpolar>
-37.9634

> <Gold.PLP.part.repulsive>
0.0690

> <Gold.PLP.ligand.clash>
0.0000

> <Gold.PLP.ligand.torsion>
0.2324

> <Gold.PLP.Chemscore.Hbond>
2.0000

> <Gold.PLP.Chemscore.CHOScore>
0.0000

> <Gold.PLP.Chemscore.Metal>
0.0000

> <Gold.Chemscore.Hbonds>
donor molecule, donor type, donor heavy atom, donor atom, acceptor molecule, acceptor atom, score
      P1  H  7989  7998       L1    16  0.90
      P1  H  7997  8008       L1    17  1.00

> <Gold.PLP.Chemscore.Internal.Correction>
0.1062

> <Gold.Rescore>
     Score         DG    S(hbond)    S(metal)    S(lipo)     H(rot)  DE(clash)    DE(int)     intcor
     15.64     -17.39       1.66        0.00     119.13       2.96       0.61       1.14       ----

> <Gold.Chemscore.Fitness>
15.6440

> <Gold.Chemscore.DG>
-17.3909

> <Gold.Chemscore.ZeroCoef>
-5.4800

> <Gold.Chemscore.Hbond>
1.6588

> <Gold.Chemscore.Metal>
0.0000

> <Gold.Chemscore.Lipo>
119.1308

> <Gold.Chemscore.Internal_Hbond>
0.0000

> <Gold.Chemscore.DEClash>
0.6107

> <Gold.Chemscore.DEInternal>
1.1362

> <Gold.Chemscore.Rot>
2.9561

> <Gold.Chemscore.Internal.Correction>
   9.000000E+99

> <Gold.Chemscore.Hbonds>
donor molecule, donor type, donor heavy atom, donor atom, acceptor molecule, acceptor atom, score
      P1  H  7989  7998       L1    16  0.17
      P1  H  7997  8008       L1    17  0.38

> <Gold.Chemscore.Hbond.Weighted>
-5.5403

> <Gold.Chemscore.Metal.Weighted>
-0.0000

> <Gold.Chemscore.Lipo.Weighted>
-13.9383

> <Gold.Chemscore.Internal_Hbond.Weighted>
0.0000

> <Gold.Chemscore.DEClash.Weighted>
0.6107

> <Gold.Chemscore.DEInternal.Weighted>
1.1362

> <Gold.Chemscore.Rot.Weighted>
7.5677

> <Gold.Chemscore.Internal.Correction.Weighted>
   9.000000E+99

> <Gold.Protein.RotatedTorsions>
[ 6907 6896 6895 6894 ] final  115.61 input  -60.11 | X-H torsion
[ 7974 7965 7964 7962 ] final   42.98 input  175.53 | X-H torsion
[ 8008 7997 7996 7995 ] final  -61.58 input   59.86 | X-H torsion
[ 10167 10162 10161 10158 ] final   29.27 input  -65.29 | X-H torsion
[ 10718 10713 10712 10709 ] final   52.85 input   66.30 | X-H torsion
[ 10763 10752 10751 10750 ] final  171.31 input  -60.55 | X-H torsion
[ 11005 11000 10999 10996 ] final   68.61 input  -57.11 | X-H torsion

> <Gold.Protein.ActiveResidues>
 VAL166  LYS551  ARG553  GLY616  TRP617  ASP618  TYR619  PRO620  LYS621  CYS622 
 ASP623  PHE694  ASN695  SER759  ASP760  ASP761  ALA762  ILE779  LEU786  VAL792 
 PHE793  MET794  SER795  GLU796  ALA797  LYS798  CYS799  TRP800  GLU811  SER814 

> <Gold.Protein.RotatedAtoms>
  152.4730  133.8074  159.6984 H   0  0  0  0  0  0  0  0  0  0  0  0  # atno 6907 bound_to 6896
  150.8731  133.7468  159.2961 H   0  0  0  0  0  0  0  0  0  0  0  0  # atno 6908 bound_to 6896
  151.4997  135.1064  159.9877 H   0  0  0  0  0  0  0  0  0  0  0  0  # atno 6909 bound_to 6896
  146.0695  139.5239  142.9607 H   0  0  0  0  0  0  0  0  0  0  0  0  # atno 7974 bound_to 7965
  154.4455  140.1014  156.6453 H   0  0  0  0  0  0  0  0  0  0  0  0  # atno 8008 bound_to 7997
  155.5457  140.3484  155.4438 H   0  0  0  0  0  0  0  0  0  0  0  0  # atno 8009 bound_to 7997
  156.0565  140.1316  156.9979 H   0  0  0  0  0  0  0  0  0  0  0  0  # atno 8010 bound_to 7997
  140.4780  144.0660  150.6256 H   0  0  0  0  0  0  0  0  0  0  0  0  # atno 10167 bound_to 10162
  157.5113  130.8503  149.8439 H   0  0  0  0  0  0  0  0  0  0  0  0  # atno 10718 bound_to 10713
  154.4101  135.2756  155.2042 H   0  0  0  0  0  0  0  0  0  0  0  0  # atno 10763 bound_to 10752
  154.4031  135.6040  153.5912 H   0  0  0  0  0  0  0  0  0  0  0  0  # atno 10764 bound_to 10752
  152.9831  135.5931  154.4382 H   0  0  0  0  0  0  0  0  0  0  0  0  # atno 10765 bound_to 10752
  139.9701  134.6914  156.0464 H   0  0  0  0  0  0  0  0  0  0  0  0  # atno 11005 bound_to 11000
  145.6418  141.0283  143.1808 LP  0  0  0  0  0  0  0  0  0  0  0  0  # atno 17320 bound_to 7965
  144.7223  139.7991  143.7377 LP  0  0  0  0  0  0  0  0  0  0  0  0  # atno 17321 bound_to 7965
  140.3894  143.2760  152.0078 LP  0  0  0  0  0  0  0  0  0  0  0  0  # atno 17342 bound_to 10162
  139.4829  144.6090  151.7468 LP  0  0  0  0  0  0  0  0  0  0  0  0  # atno 17343 bound_to 10162
  156.0291  130.3770  150.1738 LP  0  0  0  0  0  0  0  0  0  0  0  0  # atno 17370 bound_to 10713
  156.9928  130.9898  151.3410 LP  0  0  0  0  0  0  0  0  0  0  0  0  # atno 17371 bound_to 10713
  141.1381  133.6570  156.3651 LP  0  0  0  0  0  0  0  0  0  0  0  0  # atno 17394 bound_to 11000
  140.5311  134.6212  157.5350 LP  0  0  0  0  0  0  0  0  0  0  0  0  # atno 17395 bound_to 11000

$$$$
