AV-unprocessed.smi:2226|AV-procd|sdf|9017|dock7
  -GOLD-   2272012223D 1   1.00000     0.00000
 Structure written by MMmdl.
 39 41  0  0  0  0  0  0  0  0  3 V2000
  148.9468  132.9817  152.8533 C   0  0  0  0  0  0  0  0  0  0  0  0
  149.0382  134.1111  153.8092 N   0  3  2  0  0  0  0  0  0  0  0  0
  150.3749  134.3043  154.4198 C   0  0  2  0  0  0  0  0  0  0  0  0
  150.7122  133.1661  155.4160 C   0  0  0  0  0  0  0  0  0  0  0  0
  149.6186  132.9020  156.4669 C   0  0  0  0  0  0  0  0  0  0  0  0
  148.1983  132.9759  155.8789 C   0  0  0  0  0  0  0  0  0  0  0  0
  147.9924  134.1239  154.8593 C   0  0  1  0  0  0  0  0  0  0  0  0
  147.9093  135.5415  155.4698 C   0  0  0  0  0  0  0  0  0  0  0  0
  149.2660  136.1840  155.8726 C   0  0  1  0  0  0  0  0  0  0  0  0
  149.5649  136.0448  157.2956 N   0  0  0  0  0  0  0  0  0  0  0  0
  148.7039  136.1936  158.3129 C   0  0  0  0  0  0  0  0  0  0  0  0
  147.5291  136.4926  158.0868 O   0  0  0  0  0  0  0  0  0  0  0  0
  149.2582  135.9776  159.5263 N   0  5  0  0  0  0  0  0  0  0  0  0
  148.4816  135.6107  160.5583 C   0  0  0  0  0  0  0  0  0  0  0  0
  148.1069  136.3819  161.5806 N   0  0  0  0  0  0  0  0  0  0  0  0
  147.3220  135.5785  162.3933 C   0  0  0  0  0  0  0  0  0  0  0  0
  147.2615  134.3365  161.8230 C   0  0  0  0  0  0  0  0  0  0  0  0
  147.9914  134.3433  160.6667 O   0  0  0  0  0  0  0  0  0  0  0  0
  150.4633  135.7371  154.9957 C   0  0  0  0  0  0  0  0  0  0  0  0
  149.1124  132.0180  153.3340 H   0  0  0  0  0  0  0  0  0  0  0  0
  149.6869  133.0956  152.0610 H   0  0  0  0  0  0  0  0  0  0  0  0
  147.9630  132.9598  152.3838 H   0  0  0  0  0  0  0  0  0  0  0  0
  151.1147  134.2537  153.6196 H   0  0  0  0  0  0  0  0  0  0  0  0
  150.8739  132.2463  154.8536 H   0  0  0  0  0  0  0  0  0  0  0  0
  151.6606  133.3701  155.9139 H   0  0  0  0  0  0  0  0  0  0  0  0
  149.7751  131.9201  156.9144 H   0  0  0  0  0  0  0  0  0  0  0  0
  149.7175  133.5920  157.2979 H   0  0  0  0  0  0  0  0  0  0  0  0
  147.9823  132.0277  155.3861 H   0  0  0  0  0  0  0  0  0  0  0  0
  147.4688  133.0544  156.6857 H   0  0  0  0  0  0  0  0  0  0  0  0
  147.0322  133.9467  154.3726 H   0  0  0  0  0  0  0  0  0  0  0  0
  147.4653  136.1878  154.7114 H   0  0  0  0  0  0  0  0  0  0  0  0
  147.1996  135.5551  156.2976 H   0  0  0  0  0  0  0  0  0  0  0  0
  149.1668  137.2601  155.7162 H   0  0  0  0  0  0  0  0  0  0  0  0
  150.5157  135.8060  157.5373 H   0  0  0  0  0  0  0  0  0  0  0  0
  146.8746  135.9494  163.3035 H   0  0  0  0  0  0  0  0  0  0  0  0
  146.7802  133.4077  162.0897 H   0  0  0  0  0  0  0  0  0  0  0  0
  151.4076  135.8813  155.5228 H   0  0  0  0  0  0  0  0  0  0  0  0
  150.5086  136.4188  154.1450 H   0  0  0  0  0  0  0  0  0  0  0  0
  148.8720  134.9352  153.2495 H   0  0  0  0  0  0  0  0  0  0  0  0
  1  2  1  0  0  0  0
  1 20  1  0  0  0  0
  1 21  1  0  0  0  0
  1 22  1  0  0  0  0
  2  7  1  0  0  0  0
  2  3  1  0  0  0  0
  2 39  1  0  0  0  0
  3 19  1  0  0  0  0
  3  4  1  0  0  0  0
  3 23  1  0  0  0  0
  4  5  1  0  0  0  0
  4 24  1  0  0  0  0
  4 25  1  0  0  0  0
  5  6  1  0  0  0  0
  5 26  1  0  0  0  0
  5 27  1  0  0  0  0
  6  7  1  0  0  0  0
  6 28  1  0  0  0  0
  6 29  1  0  0  0  0
  7  8  1  0  0  0  0
  7 30  1  0  0  0  0
  8  9  1  0  0  0  0
  8 31  1  0  0  0  0
  8 32  1  0  0  0  0
  9 10  1  0  0  0  0
  9 19  1  0  0  0  0
  9 33  1  0  0  0  0
 10 34  1  0  0  0  0
 10 11  1  0  0  0  0
 11 13  1  0  0  0  0
 11 12  2  0  0  0  0
 13 14  1  0  0  0  0
 14 18  1  0  0  0  0
 14 15  2  0  0  0  0
 15 16  1  0  0  0  0
 16 35  1  0  0  0  0
 16 17  2  0  0  0  0
 17 36  1  0  0  0  0
 17 18  1  0  0  0  0
 19 37  1  0  0  0  0
 19 38  1  0  0  0  0
M  CHG  1   2   1
M  CHG  1  13  -1
M  END
> <s_m_source_file>
AV-unprocessed.smi

> <i_m_source_file_index>
2226

> <i_lp_mmshare_version>
43012

> <i_f3d_flags>
0

> <s_epik_input>
W0NIMl0xW0NIMl1bQ0gyXVtDQEhdKE4oW0NIM10pW0NIXTEyKVtDSDJdW0NASF0oW0NIMl0yKVtOSF1DKD1PKVtOSF1jM25bY0hdW2NIXW8z

> <s_epik_cmdline>
J2VwaWtfcHl0aG9uJywgJy1waCcsICc3LjAnLCAnLXRuJywgJzgnLCAnLW1hJywgJzIwMCcsICctbWV0YWxfYmluZGluZycsICctaW1hZScsICc8aW5maWxlLm1hZT4nLCAnLW9tYWUnLCAnPG91dGZpbGUubWFlPic=

> <r_lp_tautomer_probability>
0.107061

> <r_epik_Ionization_Penalty>
10.5612

> <r_epik_Ionization_Penalty_Charging>
7.48913

> <r_epik_Ionization_Penalty_Neutral>
3.07202

> <r_epik_State_Penalty>
5.6431

> <r_epik_Charging_Adjusted_Penalty>
13.1322

> <i_epik_Tot_Q>
0

> <i_epik_Tot_abs_Q>
2

> <r_epik_Metal_State_Penalty>
1.58163

> <b_epik_Metal_Only>
1

> <s_lp_Force_Field>
OPLS_2005

> <r_lp_Energy>
26.2411

> <b_lp_Chiralities_Consistent>
1

> <s_lp_Variant>
AV-unprocessed.smi:2226-17

> <Gold.Version>
5.8.1

> <Gold.Id.Protein>
6NUR|6NUR_protein|mol2

> <Gold.PLP.Fitness>
38.7120

> <Gold.PLP.PLP>
-25.6223

> <Gold.PLP.part.hbond>
-3.4164

> <Gold.PLP.part.metal>
0.0000

> <Gold.PLP.part.buried>
-5.1279

> <Gold.PLP.part.nonpolar>
-17.8491

> <Gold.PLP.part.repulsive>
0.0629

> <Gold.PLP.ligand.clash>
0.0000

> <Gold.PLP.ligand.torsion>
0.9818

> <Gold.PLP.Chemscore.Hbond>
5.0000

> <Gold.PLP.Chemscore.CHOScore>
0.0000

> <Gold.PLP.Chemscore.Metal>
0.0000

> <Gold.Chemscore.Hbonds>
donor molecule, donor type, donor heavy atom, donor atom, acceptor molecule, acceptor atom, score
      L1  H     2    39       P1  7948  2.00
      P1  H  6896  6907       L1    13  2.00
      P1  H  6931  6943       L1    15  0.81

> <Gold.PLP.Chemscore.Internal.Correction>
0.0533

> <Gold.Rescore>
     Score         DG    S(hbond)    S(metal)    S(lipo)     H(rot)  DE(clash)    DE(int)     intcor
     15.38     -17.87       2.80        0.00      47.84       1.00       0.00       2.49       ----

> <Gold.Chemscore.Fitness>
15.3830

> <Gold.Chemscore.DG>
-17.8723

> <Gold.Chemscore.ZeroCoef>
-5.4800

> <Gold.Chemscore.Hbond>
2.8008

> <Gold.Chemscore.Metal>
0.0000

> <Gold.Chemscore.Lipo>
47.8416

> <Gold.Chemscore.Internal_Hbond>
0.0000

> <Gold.Chemscore.DEClash>
0.0004

> <Gold.Chemscore.DEInternal>
2.4889

> <Gold.Chemscore.Rot>
1.0000

> <Gold.Chemscore.Internal.Correction>
   9.000000E+99

> <Gold.Chemscore.Hbonds>
donor molecule, donor type, donor heavy atom, donor atom, acceptor molecule, acceptor atom, score
      L1  H     2    39       P1  7948  0.30
      P1  H  6896  6907       L1    13  0.39
      P1  H  6931  6943       L1    15  0.79

> <Gold.Chemscore.Hbond.Weighted>
-9.3548

> <Gold.Chemscore.Metal.Weighted>
-0.0000

> <Gold.Chemscore.Lipo.Weighted>
-5.5975

> <Gold.Chemscore.Internal_Hbond.Weighted>
0.0000

> <Gold.Chemscore.DEClash.Weighted>
0.0004

> <Gold.Chemscore.DEInternal.Weighted>
2.4889

> <Gold.Chemscore.Rot.Weighted>
2.5600

> <Gold.Chemscore.Internal.Correction.Weighted>
   9.000000E+99

> <Gold.Protein.RotatedTorsions>
[ 6907 6896 6895 6894 ] final  -52.59 input  -60.11 | X-H torsion
[ 7974 7965 7964 7962 ] final   74.89 input  175.53 | X-H torsion
[ 8008 7997 7996 7995 ] final -174.73 input   59.86 | X-H torsion
[ 10167 10162 10161 10158 ] final  108.52 input  -65.29 | X-H torsion
[ 10718 10713 10712 10709 ] final  149.59 input   66.30 | X-H torsion
[ 10763 10752 10751 10750 ] final   23.41 input  -60.55 | X-H torsion
[ 11005 11000 10999 10996 ] final  -16.24 input  -57.11 | X-H torsion

> <Gold.Protein.ActiveResidues>
 VAL166  LYS551  ARG553  GLY616  TRP617  ASP618  TYR619  PRO620  LYS621  CYS622 
 ASP623  PHE694  ASN695  SER759  ASP760  ASP761  ALA762  ILE779  LEU786  VAL792 
 PHE793  MET794  SER795  GLU796  ALA797  LYS798  CYS799  TRP800  GLU811  SER814 

> <Gold.Protein.RotatedAtoms>
  150.8504  134.7827  159.7003 H   0  0  0  0  0  0  0  0  0  0  0  0  # atno 6907 bound_to 6896
  152.4570  134.5265  159.9808 H   0  0  0  0  0  0  0  0  0  0  0  0  # atno 6908 bound_to 6896
  151.5387  133.3398  159.2967 H   0  0  0  0  0  0  0  0  0  0  0  0  # atno 6909 bound_to 6896
  145.7226  139.2654  143.1587 H   0  0  0  0  0  0  0  0  0  0  0  0  # atno 7974 bound_to 7965
  155.9737  140.1168  157.0789 H   0  0  0  0  0  0  0  0  0  0  0  0  # atno 8008 bound_to 7997
  154.4163  140.1158  156.5409 H   0  0  0  0  0  0  0  0  0  0  0  0  # atno 8009 bound_to 7997
  155.6562  140.3473  155.4768 H   0  0  0  0  0  0  0  0  0  0  0  0  # atno 8010 bound_to 7997
  139.6839  144.7115  151.1466 H   0  0  0  0  0  0  0  0  0  0  0  0  # atno 10167 bound_to 10162
  157.2942  131.0859  151.1439 H   0  0  0  0  0  0  0  0  0  0  0  0  # atno 10718 bound_to 10713
  153.0841  135.6627  153.9986 H   0  0  0  0  0  0  0  0  0  0  0  0  # atno 10763 bound_to 10752
  153.9600  135.2975  155.3435 H   0  0  0  0  0  0  0  0  0  0  0  0  # atno 10764 bound_to 10752
  154.7245  135.5150  153.8937 H   0  0  0  0  0  0  0  0  0  0  0  0  # atno 10765 bound_to 10752
  140.8047  133.8186  155.9504 H   0  0  0  0  0  0  0  0  0  0  0  0  # atno 11005 bound_to 11000
  146.0612  140.7969  142.9734 LP  0  0  0  0  0  0  0  0  0  0  0  0  # atno 17320 bound_to 7965
  144.6913  140.3199  143.7234 LP  0  0  0  0  0  0  0  0  0  0  0  0  # atno 17321 bound_to 7965
  140.7661  143.5658  150.9049 LP  0  0  0  0  0  0  0  0  0  0  0  0  # atno 17342 bound_to 10162
  139.9331  143.6469  152.3071 LP  0  0  0  0  0  0  0  0  0  0  0  0  # atno 17343 bound_to 10162
  157.2824  130.6756  149.6072 LP  0  0  0  0  0  0  0  0  0  0  0  0  # atno 17370 bound_to 10713
  155.9668  130.4446  150.5467 LP  0  0  0  0  0  0  0  0  0  0  0  0  # atno 17371 bound_to 10713
  140.9258  134.2084  157.4896 LP  0  0  0  0  0  0  0  0  0  0  0  0  # atno 17394 bound_to 11000
  139.8718  134.9812  156.5106 LP  0  0  0  0  0  0  0  0  0  0  0  0  # atno 17395 bound_to 11000

$$$$
