AV-unprocessed.smi:298|AV-procd|sdf|2264|dock6
  -GOLD-   2262022153D 1   1.00000     0.00000
 Structure written by MMmdl.
 39 41  0  0  0  0  0  0  0  0  2 V2000
  152.0762  143.7523  160.4142 C   0  0  0  0  0  0  0  0  0  0  0  0
  151.8861  142.7574  159.2819 C   0  0  0  0  0  0  0  0  0  0  0  0
  151.0359  143.1102  158.2094 C   0  0  0  0  0  0  0  0  0  0  0  0
  150.8837  142.1802  157.1878 C   0  0  0  0  0  0  0  0  0  0  0  0
  150.1330  142.2275  156.0109 N   0  3  0  0  0  0  0  0  0  0  0  0
  150.3021  141.0685  155.3159 C   0  0  0  0  0  0  0  0  0  0  0  0
  151.1500  140.2814  156.0321 N   0  0  0  0  0  0  0  0  0  0  0  0
  151.6568  138.9331  155.7414 C   0  0  0  0  0  0  0  0  0  0  0  0
  150.8547  138.2099  154.6362 C   0  0  1  0  0  0  0  0  0  0  0  0
  151.5415  137.0489  154.2092 O   0  0  0  0  0  0  0  0  0  0  0  0
  149.4196  137.8326  155.0676 C   0  0  0  0  0  0  0  0  0  0  0  0
  149.3530  137.1465  156.3486 N   0  0  0  0  0  0  0  0  0  0  0  0
  149.8451  135.9604  156.7220 C   0  0  0  0  0  0  0  0  0  0  0  0
  149.5783  135.6368  157.9812 N   0  0  0  0  0  0  0  0  0  0  0  0
  148.8810  136.7527  158.3427 C   0  0  0  0  0  0  0  0  0  0  0  0
  148.3264  136.9037  159.6771 C   0  0  0  0  0  0  0  0  0  0  0  0
  147.8838  137.0235  160.7395 N   0  0  0  0  0  0  0  0  0  0  0  0
  148.7193  137.6930  157.4149 N   0  0  0  0  0  0  0  0  0  0  0  0
  151.5401  140.9346  157.2077 C   0  0  0  0  0  0  0  0  0  0  0  0
  152.3832  140.5720  158.2560 C   0  0  0  0  0  0  0  0  0  0  0  0
  152.5515  141.5040  159.3043 C   0  0  0  0  0  0  0  0  0  0  0  0
  153.4667  141.1351  160.4595 C   0  0  0  0  0  0  0  0  0  0  0  0
  151.5130  144.6692  160.2385 H   0  0  0  0  0  0  0  0  0  0  0  0
  153.1277  144.0220  160.5154 H   0  0  0  0  0  0  0  0  0  0  0  0
  151.7344  143.3274  161.3584 H   0  0  0  0  0  0  0  0  0  0  0  0
  150.5278  144.0632  158.1848 H   0  0  0  0  0  0  0  0  0  0  0  0
  149.8449  140.8190  154.3691 H   0  0  0  0  0  0  0  0  0  0  0  0
  152.7152  139.0072  155.4924 H   0  0  0  0  0  0  0  0  0  0  0  0
  151.6059  138.3604  156.6681 H   0  0  0  0  0  0  0  0  0  0  0  0
  150.7883  138.8662  153.7678 H   0  0  0  0  0  0  0  0  0  0  0  0
  151.3305  136.8914  153.3018 H   0  0  0  0  0  0  0  0  0  0  0  0
  148.8156  138.7377  155.1426 H   0  0  0  0  0  0  0  0  0  0  0  0
  148.9419  137.2081  154.3111 H   0  0  0  0  0  0  0  0  0  0  0  0
  150.4003  135.3161  156.0558 H   0  0  0  0  0  0  0  0  0  0  0  0
  152.8972  139.6218  158.2710 H   0  0  0  0  0  0  0  0  0  0  0  0
  153.8667  140.1270  160.3450 H   0  0  0  0  0  0  0  0  0  0  0  0
  152.9260  141.1716  161.4056 H   0  0  0  0  0  0  0  0  0  0  0  0
  154.3098  141.8240  160.5141 H   0  0  0  0  0  0  0  0  0  0  0  0
  149.5471  142.9930  155.7026 H   0  0  0  0  0  0  0  0  0  0  0  0
  1  2  1  0  0  0  0
  1 23  1  0  0  0  0
  1 24  1  0  0  0  0
  1 25  1  0  0  0  0
  2 21  1  0  0  0  0
  2  3  2  0  0  0  0
  3  4  1  0  0  0  0
  3 26  1  0  0  0  0
  4 19  2  0  0  0  0
  4  5  1  0  0  0  0
  5  6  2  0  0  0  0
  5 39  1  0  0  0  0
  6  7  1  0  0  0  0
  6 27  1  0  0  0  0
  7  8  1  0  0  0  0
  7 19  1  0  0  0  0
  8  9  1  0  0  0  0
  8 28  1  0  0  0  0
  8 29  1  0  0  0  0
  9 10  1  0  0  0  0
  9 11  1  0  0  0  0
  9 30  1  0  0  0  0
 10 31  1  0  0  0  0
 11 12  1  0  0  0  0
 11 32  1  0  0  0  0
 11 33  1  0  0  0  0
 12 18  1  0  0  0  0
 12 13  1  0  0  0  0
 13 14  2  0  0  0  0
 13 34  1  0  0  0  0
 14 15  1  0  0  0  0
 15 16  1  0  0  0  0
 15 18  2  0  0  0  0
 16 17  3  0  0  0  0
 19 20  1  0  0  0  0
 20 21  2  0  0  0  0
 20 35  1  0  0  0  0
 21 22  1  0  0  0  0
 22 36  1  0  0  0  0
 22 37  1  0  0  0  0
 22 38  1  0  0  0  0
M  CHG  1   5   1
M  END
> <s_m_source_file>
AV-unprocessed.smi

> <i_m_source_file_index>
298

> <i_lp_mmshare_version>
43012

> <i_f3d_flags>
0

> <s_epik_input>
W0NIM11jKFtjSF0xKWMoW0NIM10pW2NIXWMoYzEyKW4oW2NIXW4yKVtDSDJdW0NASF0oW09IXSlbQ0gyXW4zW2NIXW5jKG4zKUMjTg==

> <s_epik_cmdline>
J2VwaWtfcHl0aG9uJywgJy1waCcsICc3LjAnLCAnLXRuJywgJzgnLCAnLW1hJywgJzIwMCcsICctbWV0YWxfYmluZGluZycsICctaW1hZScsICc8aW5maWxlLm1hZT4nLCAnLW9tYWUnLCAnPG91dGZpbGUubWFlPic=

> <r_epik_Ionization_Penalty>
1.12076

> <r_epik_Ionization_Penalty_Charging>
1.12075

> <r_epik_Ionization_Penalty_Neutral>
1.54565e-06

> <r_epik_State_Penalty>
1.17957

> <r_epik_Charging_Adjusted_Penalty>
2.30033

> <i_epik_Tot_Q>
1

> <i_epik_Tot_abs_Q>
1

> <r_epik_Metal_State_Penalty>
1.26402

> <b_epik_Metal_Only>
0

> <s_lp_Force_Field>
OPLS_2005

> <r_lp_Energy>
17.1818

> <b_lp_Chiralities_Consistent>
1

> <s_lp_Variant>
AV-unprocessed.smi:298-4

> <Gold.Version>
5.8.1

> <Gold.Id.Protein>
6NUR|6NUR_protein|mol2

> <Gold.PLP.Fitness>
60.3162

> <Gold.PLP.PLP>
-41.9509

> <Gold.PLP.part.hbond>
-6.0000

> <Gold.PLP.part.metal>
0.0000

> <Gold.PLP.part.buried>
-4.8050

> <Gold.PLP.part.nonpolar>
-31.9660

> <Gold.PLP.part.repulsive>
0.1219

> <Gold.PLP.ligand.clash>
0.0000

> <Gold.PLP.ligand.torsion>
0.3438

> <Gold.PLP.Chemscore.Hbond>
6.3421

> <Gold.PLP.Chemscore.CHOScore>
0.0000

> <Gold.PLP.Chemscore.Metal>
0.0000

> <Gold.Chemscore.Hbonds>
donor molecule, donor type, donor heavy atom, donor atom, acceptor molecule, acceptor atom, score
      L1  H     5    39       P1  8028  2.00
      L1  H    10    31       P1  7949  1.00
      P1  H  6896  6909       L1    14  0.62
      P1  H  6931  6943       L1    17  0.89
      P1  H  6934  6947       L1    17  0.65
      P1  H 10752 10764       L1    10  1.00

> <Gold.PLP.Chemscore.Internal.Correction>
0.0266

> <Gold.Rescore>
     Score         DG    S(hbond)    S(metal)    S(lipo)     H(rot)  DE(clash)    DE(int)     intcor
     21.42     -21.98       4.09        0.00      91.80       3.09       0.25       0.31       ----

> <Gold.Chemscore.Fitness>
21.4169

> <Gold.Chemscore.DG>
-21.9750

> <Gold.Chemscore.ZeroCoef>
-5.4800

> <Gold.Chemscore.Hbond>
4.0907

> <Gold.Chemscore.Metal>
0.0000

> <Gold.Chemscore.Lipo>
91.7994

> <Gold.Chemscore.Internal_Hbond>
0.0000

> <Gold.Chemscore.DEClash>
0.2490

> <Gold.Chemscore.DEInternal>
0.3091

> <Gold.Chemscore.Rot>
3.0892

> <Gold.Chemscore.Internal.Correction>
   9.000000E+99

> <Gold.Chemscore.Hbonds>
donor molecule, donor type, donor heavy atom, donor atom, acceptor molecule, acceptor atom, score
      L1  H     5    39       P1  8028  0.99
      L1  H    10    31       P1  7949  0.69
      P1  H  6896  6909       L1    14  0.59
      P1  H  6931  6943       L1    17  0.63
      P1  H  6934  6947       L1    17  0.42
      P1  H 10752 10764       L1    10  0.27

> <Gold.Chemscore.Hbond.Weighted>
-13.6629

> <Gold.Chemscore.Metal.Weighted>
-0.0000

> <Gold.Chemscore.Lipo.Weighted>
-10.7405

> <Gold.Chemscore.Internal_Hbond.Weighted>
0.0000

> <Gold.Chemscore.DEClash.Weighted>
0.2490

> <Gold.Chemscore.DEInternal.Weighted>
0.3091

> <Gold.Chemscore.Rot.Weighted>
7.9084

> <Gold.Chemscore.Internal.Correction.Weighted>
   9.000000E+99

> <Gold.Protein.RotatedTorsions>
[ 6907 6896 6895 6894 ] final   45.51 input  -60.11 | X-H torsion
[ 7974 7965 7964 7962 ] final  160.92 input  175.53 | X-H torsion
[ 8008 7997 7996 7995 ] final -141.87 input   59.86 | X-H torsion
[ 10167 10162 10161 10158 ] final  137.19 input  -65.29 | X-H torsion
[ 10718 10713 10712 10709 ] final   73.44 input   66.30 | X-H torsion
[ 10763 10752 10751 10750 ] final  -62.32 input  -60.55 | X-H torsion
[ 11005 11000 10999 10996 ] final   -4.21 input  -57.11 | X-H torsion

> <Gold.Protein.ActiveResidues>
 VAL166  LYS551  ARG553  GLY616  TRP617  ASP618  TYR619  PRO620  LYS621  CYS622 
 ASP623  PHE694  ASN695  SER759  ASP760  ASP761  ALA762  ILE779  LEU786  VAL792 
 PHE793  MET794  SER795  GLU796  ALA797  LYS798  CYS799  TRP800  GLU811  SER814 

> <Gold.Protein.RotatedAtoms>
  152.2454  134.8186  160.0453 H   0  0  0  0  0  0  0  0  0  0  0  0  # atno 6907 bound_to 6896
  151.8886  133.3506  159.3798 H   0  0  0  0  0  0  0  0  0  0  0  0  # atno 6908 bound_to 6896
  150.7067  134.4873  159.5543 H   0  0  0  0  0  0  0  0  0  0  0  0  # atno 6909 bound_to 6896
  144.7712  139.7826  143.6296 H   0  0  0  0  0  0  0  0  0  0  0  0  # atno 7974 bound_to 7965
  155.4849  140.0563  157.2962 H   0  0  0  0  0  0  0  0  0  0  0  0  # atno 8008 bound_to 7997
  154.4646  140.2012  156.0106 H   0  0  0  0  0  0  0  0  0  0  0  0  # atno 8009 bound_to 7997
  156.0951  140.3227  155.7871 H   0  0  0  0  0  0  0  0  0  0  0  0  # atno 8010 bound_to 7997
  139.5153  144.6424  151.5534 H   0  0  0  0  0  0  0  0  0  0  0  0  # atno 10167 bound_to 10162
  157.6548  130.9629  150.1070 H   0  0  0  0  0  0  0  0  0  0  0  0  # atno 10718 bound_to 10713
  154.2980  135.6240  153.5413 H   0  0  0  0  0  0  0  0  0  0  0  0  # atno 10763 bound_to 10752
  152.9844  135.5671  154.5315 H   0  0  0  0  0  0  0  0  0  0  0  0  # atno 10764 bound_to 10752
  154.4940  135.2868  155.1450 H   0  0  0  0  0  0  0  0  0  0  0  0  # atno 10765 bound_to 10752
  140.6778  133.9180  155.8535 H   0  0  0  0  0  0  0  0  0  0  0  0  # atno 11005 bound_to 11000
  146.1859  139.5074  142.9836 LP  0  0  0  0  0  0  0  0  0  0  0  0  # atno 17320 bound_to 7965
  145.6319  141.0302  143.1858 LP  0  0  0  0  0  0  0  0  0  0  0  0  # atno 17321 bound_to 7965
  140.6195  143.9285  150.6515 LP  0  0  0  0  0  0  0  0  0  0  0  0  # atno 17342 bound_to 10162
  140.2554  143.3563  152.1370 LP  0  0  0  0  0  0  0  0  0  0  0  0  # atno 17343 bound_to 10162
  156.1977  130.3658  149.8828 LP  0  0  0  0  0  0  0  0  0  0  0  0  # atno 17370 bound_to 10713
  156.6740  130.8832  151.3566 LP  0  0  0  0  0  0  0  0  0  0  0  0  # atno 17371 bound_to 10713
  141.0342  134.0714  157.3979 LP  0  0  0  0  0  0  0  0  0  0  0  0  # atno 17394 bound_to 11000
  139.8961  135.0144  156.7035 LP  0  0  0  0  0  0  0  0  0  0  0  0  # atno 17395 bound_to 11000

$$$$
