AV-unprocessed.smi:1378|AV-procd|sdf|5596|dock8
  -GOLD-   22720 5203D 1   1.00000     0.00000
 Structure written by MMmdl.
 46 48  0  0  0  0  0  0  0  0  1 V2000
  147.3997  142.3318  154.0075 C   0  0  0  0  0  0  0  0  0  0  0  0
  148.4826  141.4681  154.3027 O   0  0  0  0  0  0  0  0  0  0  0  0
  148.8547  141.5077  155.6709 C   0  0  0  0  0  0  0  0  0  0  0  0
  150.3447  141.8552  155.7882 C   0  0  0  0  0  0  0  0  0  0  0  0
  150.8652  141.5762  157.1179 N   0  0  0  0  0  0  0  0  0  0  0  0
  150.8965  140.3870  157.7666 C   0  0  0  0  0  0  0  0  0  0  0  0
  150.2959  138.9032  157.0264 S   0  0  0  0  0  0  0  0  0  0  0  0
  148.8365  138.6496  158.0832 C   0  0  0  0  0  0  0  0  0  0  0  0
  148.8985  137.3455  158.8792 C   0  0  0  0  0  0  0  0  0  0  0  0
  149.8567  136.5852  158.7453 O   0  0  0  0  0  0  0  0  0  0  0  0
  147.8822  137.1188  159.7254 N   0  0  0  0  0  0  0  0  0  0  0  0
  147.7899  136.0091  160.6679 C   0  0  0  0  0  0  0  0  0  0  0  0
  146.6297  135.0641  160.3036 C   0  0  0  0  0  0  0  0  0  0  0  0
  145.5432  135.3144  161.3497 C   0  0  0  0  0  0  0  0  0  0  0  0
  146.3182  135.6983  162.6064 C   0  0  0  0  0  0  0  0  0  0  0  0
  147.4916  136.5304  162.0873 C   0  0  0  0  0  0  0  0  0  0  0  0
  151.4436  140.4045  158.9820 N   0  0  0  0  0  0  0  0  0  0  0  0
  151.8035  141.7291  159.1341 C   0  0  0  0  0  0  0  0  0  0  0  0
  152.4415  142.3900  160.2080 C   0  0  0  0  0  0  0  0  0  0  0  0
  152.7185  143.7708  160.1326 C   0  0  0  0  0  0  0  0  0  0  0  0
  152.3614  144.5091  158.9859 C   0  0  0  0  0  0  0  0  0  0  0  0
  151.7248  143.8701  157.9048 C   0  0  0  0  0  0  0  0  0  0  0  0
  151.4534  142.4912  157.9841 C   0  0  0  0  0  0  0  0  0  0  0  0
  147.1514  142.2578  152.9489 H   0  0  0  0  0  0  0  0  0  0  0  0
  147.6547  143.3705  154.2215 H   0  0  0  0  0  0  0  0  0  0  0  0
  146.5120  142.0628  154.5815 H   0  0  0  0  0  0  0  0  0  0  0  0
  148.2553  142.2504  156.2000 H   0  0  0  0  0  0  0  0  0  0  0  0
  148.6629  140.5407  156.1379 H   0  0  0  0  0  0  0  0  0  0  0  0
  150.9264  141.3034  155.0495 H   0  0  0  0  0  0  0  0  0  0  0  0
  150.5008  142.9114  155.5672 H   0  0  0  0  0  0  0  0  0  0  0  0
  148.7257  139.4984  158.7591 H   0  0  0  0  0  0  0  0  0  0  0  0
  147.9491  138.6363  157.4499 H   0  0  0  0  0  0  0  0  0  0  0  0
  147.1382  137.8009  159.7576 H   0  0  0  0  0  0  0  0  0  0  0  0
  148.7262  135.4482  160.6801 H   0  0  0  0  0  0  0  0  0  0  0  0
  146.2601  135.2018  159.2866 H   0  0  0  0  0  0  0  0  0  0  0  0
  146.9716  134.0313  160.3818 H   0  0  0  0  0  0  0  0  0  0  0  0
  144.9155  136.1493  161.0356 H   0  0  0  0  0  0  0  0  0  0  0  0
  144.8977  134.4490  161.5014 H   0  0  0  0  0  0  0  0  0  0  0  0
  145.7070  136.2399  163.3293 H   0  0  0  0  0  0  0  0  0  0  0  0
  146.6931  134.7979  163.0945 H   0  0  0  0  0  0  0  0  0  0  0  0
  148.3611  136.4638  162.7421 H   0  0  0  0  0  0  0  0  0  0  0  0
  147.1933  137.5796  162.0588 H   0  0  0  0  0  0  0  0  0  0  0  0
  152.7196  141.8335  161.0908 H   0  0  0  0  0  0  0  0  0  0  0  0
  153.2063  144.2660  160.9592 H   0  0  0  0  0  0  0  0  0  0  0  0
  152.5761  145.5666  158.9369 H   0  0  0  0  0  0  0  0  0  0  0  0
  151.4487  144.4325  157.0251 H   0  0  0  0  0  0  0  0  0  0  0  0
  1  2  1  0  0  0  0
  1 24  1  0  0  0  0
  1 25  1  0  0  0  0
  1 26  1  0  0  0  0
  2  3  1  0  0  0  0
  3  4  1  0  0  0  0
  3 27  1  0  0  0  0
  3 28  1  0  0  0  0
  4  5  1  0  0  0  0
  4 29  1  0  0  0  0
  4 30  1  0  0  0  0
  5 23  1  0  0  0  0
  5  6  1  0  0  0  0
  6  7  1  0  0  0  0
  6 17  2  0  0  0  0
  7  8  1  0  0  0  0
  8  9  1  0  0  0  0
  8 31  1  0  0  0  0
  8 32  1  0  0  0  0
  9 10  2  0  0  0  0
  9 11  1  0  0  0  0
 11 12  1  0  0  0  0
 11 33  1  0  0  0  0
 12 16  1  0  0  0  0
 12 13  1  0  0  0  0
 12 34  1  0  0  0  0
 13 14  1  0  0  0  0
 13 35  1  0  0  0  0
 13 36  1  0  0  0  0
 14 15  1  0  0  0  0
 14 37  1  0  0  0  0
 14 38  1  0  0  0  0
 15 16  1  0  0  0  0
 15 39  1  0  0  0  0
 15 40  1  0  0  0  0
 16 41  1  0  0  0  0
 16 42  1  0  0  0  0
 17 18  1  0  0  0  0
 18 23  2  0  0  0  0
 18 19  1  0  0  0  0
 19 20  2  0  0  0  0
 19 43  1  0  0  0  0
 20 21  1  0  0  0  0
 20 44  1  0  0  0  0
 21 22  2  0  0  0  0
 21 45  1  0  0  0  0
 22 23  1  0  0  0  0
 22 46  1  0  0  0  0
M  END
> <s_m_source_file>
AV-unprocessed.smi

> <i_m_source_file_index>
1378

> <i_lp_mmshare_version>
43012

> <i_f3d_flags>
0

> <s_epik_input>
W2NIXTFbY0hdW2NIXVtjSF1jKGMxMiluKFtDSDJdW0NIMl1PW0NIM10pYyhuMilTW0NIMl1DKD1PKVtOSF1bQ0hdM1tDSDJdW0NIMl1bQ0gyXVtDSDJdMw==

> <s_epik_cmdline>
J2VwaWtfcHl0aG9uJywgJy1waCcsICc3LjAnLCAnLXRuJywgJzgnLCAnLW1hJywgJzIwMCcsICctbWV0YWxfYmluZGluZycsICctaW1hZScsICc8aW5maWxlLm1hZT4nLCAnLW9tYWUnLCAnPG91dGZpbGUubWFlPic=

> <r_epik_Ionization_Penalty>
0.0369383

> <r_epik_Ionization_Penalty_Charging>
0

> <r_epik_Ionization_Penalty_Neutral>
0.0369383

> <r_epik_State_Penalty>
0.0308874

> <r_epik_Charging_Adjusted_Penalty>
0.0308874

> <i_epik_Tot_Q>
0

> <i_epik_Tot_abs_Q>
0

> <r_epik_Metal_State_Penalty>
0.0290628

> <b_epik_Metal_Only>
0

> <s_lp_Force_Field>
OPLS_2005

> <r_lp_Energy>
18.5214

> <b_lp_Chiralities_Consistent>
1

> <s_lp_Variant>
AV-unprocessed.smi:1378-1

> <Gold.Version>
5.8.1

> <Gold.Id.Protein>
6NUR|6NUR_protein|mol2

> <Gold.PLP.Fitness>
50.8351

> <Gold.PLP.PLP>
-49.5897

> <Gold.PLP.part.hbond>
-1.0000

> <Gold.PLP.part.metal>
0.0000

> <Gold.PLP.part.buried>
-7.3519

> <Gold.PLP.part.nonpolar>
-41.3788

> <Gold.PLP.part.repulsive>
0.3543

> <Gold.PLP.ligand.clash>
0.0000

> <Gold.PLP.ligand.torsion>
0.9365

> <Gold.PLP.Chemscore.Hbond>
1.0000

> <Gold.PLP.Chemscore.CHOScore>
0.0000

> <Gold.PLP.Chemscore.Metal>
0.0000

> <Gold.Chemscore.Hbonds>
donor molecule, donor type, donor heavy atom, donor atom, acceptor molecule, acceptor atom, score
      P1  H  6896  6907       L1    10  0.54

> <Gold.PLP.Chemscore.Internal.Correction>
0.1185

> <Gold.Rescore>
     Score         DG    S(hbond)    S(metal)    S(lipo)     H(rot)  DE(clash)    DE(int)     intcor
     18.30     -19.22       0.99        0.00     132.42       1.98       0.06       0.86       ----

> <Gold.Chemscore.Fitness>
18.3026

> <Gold.Chemscore.DG>
-19.2237

> <Gold.Chemscore.ZeroCoef>
-5.4800

> <Gold.Chemscore.Hbond>
0.9932

> <Gold.Chemscore.Metal>
0.0000

> <Gold.Chemscore.Lipo>
132.4224

> <Gold.Chemscore.Internal_Hbond>
0.0000

> <Gold.Chemscore.DEClash>
0.0601

> <Gold.Chemscore.DEInternal>
0.8610

> <Gold.Chemscore.Rot>
1.9792

> <Gold.Chemscore.Internal.Correction>
   9.000000E+99

> <Gold.Chemscore.Hbonds>
donor molecule, donor type, donor heavy atom, donor atom, acceptor molecule, acceptor atom, score
      P1  H  6896  6907       L1    10  0.54

> <Gold.Chemscore.Hbond.Weighted>
-3.3172

> <Gold.Chemscore.Metal.Weighted>
-0.0000

> <Gold.Chemscore.Lipo.Weighted>
-15.4934

> <Gold.Chemscore.Internal_Hbond.Weighted>
0.0000

> <Gold.Chemscore.DEClash.Weighted>
0.0601

> <Gold.Chemscore.DEInternal.Weighted>
0.8610

> <Gold.Chemscore.Rot.Weighted>
5.0669

> <Gold.Chemscore.Internal.Correction.Weighted>
   9.000000E+99

> <Gold.Protein.RotatedTorsions>
[ 6907 6896 6895 6894 ] final  -33.29 input  -60.11 | X-H torsion
[ 7974 7965 7964 7962 ] final -113.66 input  175.53 | X-H torsion
[ 8008 7997 7996 7995 ] final  169.90 input   59.86 | X-H torsion
[ 10167 10162 10161 10158 ] final   52.26 input  -65.29 | X-H torsion
[ 10718 10713 10712 10709 ] final   24.66 input   66.30 | X-H torsion
[ 10763 10752 10751 10750 ] final  -91.95 input  -60.55 | X-H torsion
[ 11005 11000 10999 10996 ] final  132.06 input  -57.11 | X-H torsion

> <Gold.Protein.ActiveResidues>
 VAL166  LYS551  ARG553  GLY616  TRP617  ASP618  TYR619  PRO620  LYS621  CYS622 
 ASP623  PHE694  ASN695  SER759  ASP760  ASP761  ALA762  ILE779  LEU786  VAL792 
 PHE793  MET794  SER795  GLU796  ALA797  LYS798  CYS799  TRP800  GLU811  SER814 

> <Gold.Protein.RotatedAtoms>
  151.0675  134.9777  159.8291 H   0  0  0  0  0  0  0  0  0  0  0  0  # atno 6907 bound_to 6896
  152.5404  134.2340  159.8846 H   0  0  0  0  0  0  0  0  0  0  0  0  # atno 6908 bound_to 6896
  151.2363  133.4380  159.2639 H   0  0  0  0  0  0  0  0  0  0  0  0  # atno 6909 bound_to 6896
  145.1293  140.8715  143.3767 H   0  0  0  0  0  0  0  0  0  0  0  0  # atno 7974 bound_to 7965
  156.1415  140.1552  156.8913 H   0  0  0  0  0  0  0  0  0  0  0  0  # atno 8008 bound_to 7997
  154.4991  140.0830  156.7799 H   0  0  0  0  0  0  0  0  0  0  0  0  # atno 8009 bound_to 7997
  155.4070  140.3417  155.4263 H   0  0  0  0  0  0  0  0  0  0  0  0  # atno 8010 bound_to 7997
  140.2533  144.3455  150.6341 H   0  0  0  0  0  0  0  0  0  0  0  0  # atno 10167 bound_to 10162
  157.1828  130.6810  149.6120 H   0  0  0  0  0  0  0  0  0  0  0  0  # atno 10718 bound_to 10713
  154.6812  135.5249  153.8266 H   0  0  0  0  0  0  0  0  0  0  0  0  # atno 10763 bound_to 10752
  153.0566  135.6553  154.0572 H   0  0  0  0  0  0  0  0  0  0  0  0  # atno 10764 bound_to 10752
  154.0459  135.2973  155.3328 H   0  0  0  0  0  0  0  0  0  0  0  0  # atno 10765 bound_to 10752
  139.9767  134.9561  156.9528 H   0  0  0  0  0  0  0  0  0  0  0  0  # atno 11005 bound_to 11000
  145.0653  139.3074  143.5860 LP  0  0  0  0  0  0  0  0  0  0  0  0  # atno 17320 bound_to 7965
  146.3515  140.0109  142.8667 LP  0  0  0  0  0  0  0  0  0  0  0  0  # atno 17321 bound_to 7965
  140.6023  143.2167  151.7047 LP  0  0  0  0  0  0  0  0  0  0  0  0  # atno 17342 bound_to 10162
  139.5039  144.3773  152.0411 LP  0  0  0  0  0  0  0  0  0  0  0  0  # atno 17343 bound_to 10162
  155.9722  130.4641  150.6205 LP  0  0  0  0  0  0  0  0  0  0  0  0  # atno 17370 bound_to 10713
  157.3936  131.0799  151.1372 LP  0  0  0  0  0  0  0  0  0  0  0  0  # atno 17371 bound_to 10713
  140.5180  134.0936  155.7285 LP  0  0  0  0  0  0  0  0  0  0  0  0  # atno 17394 bound_to 11000
  141.1443  133.9082  157.2251 LP  0  0  0  0  0  0  0  0  0  0  0  0  # atno 17395 bound_to 11000

$$$$
