AV-unprocessed.smi:3261|AV-procd|sdf|12481|dock3
  -GOLD-   2272018383D 1   1.00000     0.00000
 Structure written by MMmdl.
 31 32  0  0  0  0  0  0  0  0  2 V2000
  146.6270  132.3300  153.8509 O   0  0  0  0  0  0  0  0  0  0  0  0
  147.4063  131.9765  152.9691 C   0  0  0  0  0  0  0  0  0  0  0  0
  147.1232  131.9695  151.6510 N   0  0  0  0  0  0  0  0  0  0  0  0
  145.9406  132.3954  150.9862 C   0  0  0  0  0  0  0  0  0  0  0  0
  145.0102  133.1488  151.7360 C   0  0  0  0  0  0  0  0  0  0  0  0
  143.8134  133.5816  151.1292 C   0  0  0  0  0  0  0  0  0  0  0  0
  143.5611  133.2661  149.8410 N   0  3  0  0  0  0  0  0  0  0  0  0
  144.4124  132.5377  149.0875 C   0  0  0  0  0  0  0  0  0  0  0  0
  145.6252  132.0776  149.6399 C   0  0  0  0  0  0  0  0  0  0  0  0
  148.6374  131.5264  153.2724 N   0  0  0  0  0  0  0  0  0  0  0  0
  149.2598  131.4020  154.5917 C   0  0  1  0  0  0  0  0  0  0  0  0
  150.6894  130.8409  154.4773 C   0  0  0  0  0  0  0  0  0  0  0  0
  151.4140  131.0631  155.8111 C   0  0  0  0  0  0  0  0  0  0  0  0
  150.6953  132.5865  156.5349 S   0  0  0  0  0  0  0  0  0  0  0  0
  150.1201  132.2640  157.8494 O   0  0  0  0  0  0  0  0  0  0  0  0
  151.6366  133.7046  156.3731 O   0  0  0  0  0  0  0  0  0  0  0  0
  149.3452  132.7585  155.3093 C   0  0  0  0  0  0  0  0  0  0  0  0
  147.8337  131.5722  151.0539 H   0  0  0  0  0  0  0  0  0  0  0  0
  145.2104  133.3992  152.7680 H   0  0  0  0  0  0  0  0  0  0  0  0
  143.0556  134.1642  151.6324 H   0  0  0  0  0  0  0  0  0  0  0  0
  144.0980  132.3405  148.0730 H   0  0  0  0  0  0  0  0  0  0  0  0
  146.2783  131.4814  149.0220 H   0  0  0  0  0  0  0  0  0  0  0  0
  149.2019  131.2159  152.4944 H   0  0  0  0  0  0  0  0  0  0  0  0
  148.6899  130.7091  155.2132 H   0  0  0  0  0  0  0  0  0  0  0  0
  150.6909  129.7879  154.1941 H   0  0  0  0  0  0  0  0  0  0  0  0
  151.2264  131.3803  153.6956 H   0  0  0  0  0  0  0  0  0  0  0  0
  151.2196  130.2402  156.4994 H   0  0  0  0  0  0  0  0  0  0  0  0
  152.4925  131.1721  155.6958 H   0  0  0  0  0  0  0  0  0  0  0  0
  149.6262  133.5536  154.6172 H   0  0  0  0  0  0  0  0  0  0  0  0
  148.4199  133.0437  155.8097 H   0  0  0  0  0  0  0  0  0  0  0  0
  142.6885  133.5870  149.4207 H   0  0  0  0  0  0  0  0  0  0  0  0
  1  2  2  0  0  0  0
  2  3  1  0  0  0  0
  2 10  1  0  0  0  0
  3  4  1  0  0  0  0
  3 18  1  0  0  0  0
  4  9  1  0  0  0  0
  4  5  2  0  0  0  0
  5  6  1  0  0  0  0
  5 19  1  0  0  0  0
  6  7  2  0  0  0  0
  6 20  1  0  0  0  0
  7  8  1  0  0  0  0
  7 31  1  0  0  0  0
  8  9  2  0  0  0  0
  8 21  1  0  0  0  0
  9 22  1  0  0  0  0
 10 11  1  0  0  0  0
 10 23  1  0  0  0  0
 11 17  1  0  0  0  0
 11 12  1  0  0  0  0
 11 24  1  0  0  0  0
 12 13  1  0  0  0  0
 12 25  1  0  0  0  0
 12 26  1  0  0  0  0
 13 14  1  0  0  0  0
 13 27  1  0  0  0  0
 13 28  1  0  0  0  0
 14 15  2  0  0  0  0
 14 16  2  0  0  0  0
 14 17  1  0  0  0  0
 17 29  1  0  0  0  0
 17 30  1  0  0  0  0
M  CHG  1   7   1
M  END
> <s_m_source_file>
AV-unprocessed.smi

> <i_m_source_file_index>
3261

> <i_lp_mmshare_version>
43012

> <i_f3d_flags>
0

> <s_epik_input>
Tz1TMSg9TylbQ0gyXVtDSDJdW0NASF0oW0NIMl0xKVtOSF1DKD1PKVtOSF1jMltjSF1bY0hdbltjSF1bY0hdMg==

> <s_epik_cmdline>
J2VwaWtfcHl0aG9uJywgJy1waCcsICc3LjAnLCAnLXRuJywgJzgnLCAnLW1hJywgJzIwMCcsICctbWV0YWxfYmluZGluZycsICctaW1hZScsICc8aW5maWxlLm1hZT4nLCAnLW9tYWUnLCAnPG91dGZpbGUubWFlPic=

> <r_epik_Ionization_Penalty>
1.10375

> <r_epik_Ionization_Penalty_Charging>
1.10372

> <r_epik_Ionization_Penalty_Neutral>
2.06752e-05

> <r_epik_State_Penalty>
1.16109

> <r_epik_Charging_Adjusted_Penalty>
2.26482

> <i_epik_Tot_Q>
1

> <i_epik_Tot_abs_Q>
1

> <r_epik_Metal_State_Penalty>
1.24883

> <b_epik_Metal_Only>
0

> <s_lp_Force_Field>
OPLS_2005

> <r_lp_Energy>
25.5271

> <b_lp_Chiralities_Consistent>
1

> <s_lp_Variant>
AV-unprocessed.smi:3261-4

> <Gold.Version>
5.8.1

> <Gold.Id.Protein>
6NUR|6NUR_protein|mol2

> <Gold.PLP.Fitness>
41.4244

> <Gold.PLP.PLP>
-28.4728

> <Gold.PLP.part.hbond>
-3.7026

> <Gold.PLP.part.metal>
0.0000

> <Gold.PLP.part.buried>
-3.7682

> <Gold.PLP.part.nonpolar>
-20.4775

> <Gold.PLP.part.repulsive>
0.1879

> <Gold.PLP.ligand.clash>
0.0000

> <Gold.PLP.ligand.torsion>
0.0416

> <Gold.PLP.Chemscore.Hbond>
4.3448

> <Gold.PLP.Chemscore.CHOScore>
0.0000

> <Gold.PLP.Chemscore.Metal>
0.0000

> <Gold.Chemscore.Hbonds>
donor molecule, donor type, donor heavy atom, donor atom, acceptor molecule, acceptor atom, score
      L1  H     3    18       P1 10747  1.00
      L1  H     7    31       P1 10186  2.00
      L1  H    10    23       P1 10747  0.42
      P1  H  6896  6909       L1    15  0.93

> <Gold.PLP.Chemscore.Internal.Correction>
0.0005

> <Gold.Rescore>
     Score         DG    S(hbond)    S(metal)    S(lipo)     H(rot)  DE(clash)    DE(int)     intcor
     18.43     -20.07       2.92        0.00      63.11       1.00       0.19       1.45       ----

> <Gold.Chemscore.Fitness>
18.4320

> <Gold.Chemscore.DG>
-20.0704

> <Gold.Chemscore.ZeroCoef>
-5.4800

> <Gold.Chemscore.Hbond>
2.9240

> <Gold.Chemscore.Metal>
0.0000

> <Gold.Chemscore.Lipo>
63.1121

> <Gold.Chemscore.Internal_Hbond>
0.0000

> <Gold.Chemscore.DEClash>
0.1914

> <Gold.Chemscore.DEInternal>
1.4469

> <Gold.Chemscore.Rot>
1.0000

> <Gold.Chemscore.Internal.Correction>
   9.000000E+99

> <Gold.Chemscore.Hbonds>
donor molecule, donor type, donor heavy atom, donor atom, acceptor molecule, acceptor atom, score
      L1  H     3    18       P1 10747  0.96
      L1  H     7    31       P1 10186  0.96
      L1  H    10    23       P1 10747  0.12
      P1  H  6896  6909       L1    15  0.53

> <Gold.Chemscore.Hbond.Weighted>
-9.7662

> <Gold.Chemscore.Metal.Weighted>
-0.0000

> <Gold.Chemscore.Lipo.Weighted>
-7.3841

> <Gold.Chemscore.Internal_Hbond.Weighted>
0.0000

> <Gold.Chemscore.DEClash.Weighted>
0.1914

> <Gold.Chemscore.DEInternal.Weighted>
1.4469

> <Gold.Chemscore.Rot.Weighted>
2.5600

> <Gold.Chemscore.Internal.Correction.Weighted>
   9.000000E+99

> <Gold.Protein.RotatedTorsions>
[ 6907 6896 6895 6894 ] final  -21.71 input  -60.11 | X-H torsion
[ 7974 7965 7964 7962 ] final -174.48 input  175.53 | X-H torsion
[ 8008 7997 7996 7995 ] final  -98.31 input   59.86 | X-H torsion
[ 10167 10162 10161 10158 ] final  -93.32 input  -65.29 | X-H torsion
[ 10718 10713 10712 10709 ] final -129.26 input   66.30 | X-H torsion
[ 10763 10752 10751 10750 ] final   57.39 input  -60.55 | X-H torsion
[ 11005 11000 10999 10996 ] final  167.95 input  -57.11 | X-H torsion

> <Gold.Protein.ActiveResidues>
 VAL166  LYS551  ARG553  GLY616  TRP617  ASP618  TYR619  PRO620  LYS621  CYS622 
 ASP623  PHE694  ASN695  SER759  ASP760  ASP761  ALA762  ILE779  LEU786  VAL792 
 PHE793  MET794  SER795  GLU796  ALA797  LYS798  CYS799  TRP800  GLU811  SER814 

> <Gold.Protein.RotatedAtoms>
  151.2293  135.0548  159.8980 H   0  0  0  0  0  0  0  0  0  0  0  0  # atno 6907 bound_to 6896
  152.5406  134.0554  159.8139 H   0  0  0  0  0  0  0  0  0  0  0  0  # atno 6908 bound_to 6896
  151.0732  133.5401  159.2657 H   0  0  0  0  0  0  0  0  0  0  0  0  # atno 6909 bound_to 6896
  144.7132  140.1465  143.6387 H   0  0  0  0  0  0  0  0  0  0  0  0  # atno 7974 bound_to 7965
  154.7995  140.0456  157.1262 H   0  0  0  0  0  0  0  0  0  0  0  0  # atno 8008 bound_to 7997
  154.9496  140.3063  155.5062 H   0  0  0  0  0  0  0  0  0  0  0  0  # atno 8009 bound_to 7997
  156.2960  140.2290  156.4572 H   0  0  0  0  0  0  0  0  0  0  0  0  # atno 8010 bound_to 7997
  140.3259  143.3022  151.9996 H   0  0  0  0  0  0  0  0  0  0  0  0  # atno 10167 bound_to 10162
  156.2029  130.6869  151.0560 H   0  0  0  0  0  0  0  0  0  0  0  0  # atno 10718 bound_to 10713
  152.9849  135.5643  154.5383 H   0  0  0  0  0  0  0  0  0  0  0  0  # atno 10763 bound_to 10752
  154.4842  135.2790  155.1549 H   0  0  0  0  0  0  0  0  0  0  0  0  # atno 10764 bound_to 10752
  154.3045  135.6301  153.5492 H   0  0  0  0  0  0  0  0  0  0  0  0  # atno 10765 bound_to 10752
  140.2822  134.7741  157.3767 H   0  0  0  0  0  0  0  0  0  0  0  0  # atno 11005 bound_to 11000
  145.9155  139.2513  143.1412 LP  0  0  0  0  0  0  0  0  0  0  0  0  # atno 17320 bound_to 7965
  145.9673  140.8788  143.0180 LP  0  0  0  0  0  0  0  0  0  0  0  0  # atno 17321 bound_to 7965
  139.4865  144.6274  151.7137 LP  0  0  0  0  0  0  0  0  0  0  0  0  # atno 17342 bound_to 10162
  140.5442  144.0531  150.6100 LP  0  0  0  0  0  0  0  0  0  0  0  0  # atno 17343 bound_to 10162
  157.6996  131.0781  150.6862 LP  0  0  0  0  0  0  0  0  0  0  0  0  # atno 17370 bound_to 10713
  156.6920  130.4598  149.5597 LP  0  0  0  0  0  0  0  0  0  0  0  0  # atno 17371 bound_to 10713
  140.1273  134.5141  155.8134 LP  0  0  0  0  0  0  0  0  0  0  0  0  # atno 17394 bound_to 11000
  141.2161  133.6777  156.6975 LP  0  0  0  0  0  0  0  0  0  0  0  0  # atno 17395 bound_to 11000

$$$$
