AV-unprocessed.smi:1404|AV-procd|sdf|5706|dock8
  -GOLD-   22720 5343D 1   1.00000     0.00000
 Structure written by MMmdl.
 48 49  0  0  0  0  0  0  0  0  2 V2000
  152.1311  139.3409  157.7916 C   0  0  0  0  0  0  0  0  0  0  0  0
  151.4846  138.5778  156.7441 N   0  0  0  0  0  0  0  0  0  0  0  0
  151.8009  138.8557  155.3921 C   0  0  0  0  0  0  0  0  0  0  0  0
  152.6131  139.7208  155.0633 O   0  0  0  0  0  0  0  0  0  0  0  0
  151.0809  138.0367  154.4240 C   0  0  0  0  0  0  0  0  0  0  0  0
  150.1899  137.1051  154.8281 C   0  0  0  0  0  0  0  0  0  0  0  0
  149.8943  136.8588  156.1565 N   0  0  0  0  0  0  0  0  0  0  0  0
  148.9001  135.8371  156.5065 C   0  0  0  0  0  0  0  0  0  0  0  0
  148.6952  134.8160  155.3813 C   0  0  0  0  0  0  0  0  0  0  0  0
  149.5118  133.9114  155.2039 O   0  0  0  0  0  0  0  0  0  0  0  0
  147.5951  134.9748  154.6299 N   0  0  0  0  0  0  0  0  0  0  0  0
  147.2244  134.1569  153.4756 C   0  0  0  0  0  0  0  0  0  0  0  0
  145.8478  134.5348  152.8434 C   0  0  0  0  0  0  0  0  0  0  0  0
  144.8190  134.6608  153.9983 C   0  0  0  0  0  0  0  0  0  0  0  0
  145.9221  135.9081  152.1302 C   0  0  0  0  0  0  0  0  0  0  0  0
  145.4519  133.4436  151.8771 N   0  3  0  0  0  0  0  0  0  0  0  0
  144.0822  133.5399  151.2945 C   0  0  0  0  0  0  0  0  0  0  0  0
  143.7560  132.2969  150.4472 C   0  0  0  0  0  0  0  0  0  0  0  0
  144.7351  132.1221  149.4339 O   0  0  0  0  0  0  0  0  0  0  0  0
  146.0279  131.9244  149.9865 C   0  0  0  0  0  0  0  0  0  0  0  0
  146.4324  133.1722  150.7862 C   0  0  0  0  0  0  0  0  0  0  0  0
  150.5470  137.6072  157.1599 C   0  0  0  0  0  0  0  0  0  0  0  0
  150.2960  137.4154  158.3528 O   0  0  0  0  0  0  0  0  0  0  0  0
  152.9318  139.9619  157.3917 H   0  0  0  0  0  0  0  0  0  0  0  0
  152.5539  138.6311  158.5050 H   0  0  0  0  0  0  0  0  0  0  0  0
  151.3622  139.9617  158.2546 H   0  0  0  0  0  0  0  0  0  0  0  0
  151.2619  138.1800  153.3688 H   0  0  0  0  0  0  0  0  0  0  0  0
  149.6798  136.5275  154.0707 H   0  0  0  0  0  0  0  0  0  0  0  0
  149.2113  135.2987  157.4027 H   0  0  0  0  0  0  0  0  0  0  0  0
  147.9523  136.3152  156.7623 H   0  0  0  0  0  0  0  0  0  0  0  0
  146.9802  135.7433  154.8572 H   0  0  0  0  0  0  0  0  0  0  0  0
  148.0326  134.2018  152.7476 H   0  0  0  0  0  0  0  0  0  0  0  0
  147.1954  133.1202  153.8132 H   0  0  0  0  0  0  0  0  0  0  0  0
  145.1387  135.3767  154.7557 H   0  0  0  0  0  0  0  0  0  0  0  0
  144.6628  133.7062  154.5018 H   0  0  0  0  0  0  0  0  0  0  0  0
  143.8518  135.0246  153.6511 H   0  0  0  0  0  0  0  0  0  0  0  0
  146.0680  136.7209  152.8420 H   0  0  0  0  0  0  0  0  0  0  0  0
  145.0044  136.1316  151.5864 H   0  0  0  0  0  0  0  0  0  0  0  0
  146.7500  135.9591  151.4230 H   0  0  0  0  0  0  0  0  0  0  0  0
  143.3194  133.5987  152.0686 H   0  0  0  0  0  0  0  0  0  0  0  0
  143.9984  134.4400  150.6844 H   0  0  0  0  0  0  0  0  0  0  0  0
  143.7025  131.4046  151.0731 H   0  0  0  0  0  0  0  0  0  0  0  0
  142.7796  132.4108  149.9758 H   0  0  0  0  0  0  0  0  0  0  0  0
  146.0428  131.0322  150.6143 H   0  0  0  0  0  0  0  0  0  0  0  0
  146.7343  131.7545  149.1737 H   0  0  0  0  0  0  0  0  0  0  0  0
  146.4823  134.0224  150.1050 H   0  0  0  0  0  0  0  0  0  0  0  0
  147.4366  133.0178  151.1740 H   0  0  0  0  0  0  0  0  0  0  0  0
  145.4313  132.6037  152.4376 H   0  0  0  0  0  0  0  0  0  0  0  0
  1  2  1  0  0  0  0
  1 24  1  0  0  0  0
  1 25  1  0  0  0  0
  1 26  1  0  0  0  0
  2 22  1  0  0  0  0
  2  3  1  0  0  0  0
  3  4  2  0  0  0  0
  3  5  1  0  0  0  0
  5  6  2  0  0  0  0
  5 27  1  0  0  0  0
  6  7  1  0  0  0  0
  6 28  1  0  0  0  0
  7  8  1  0  0  0  0
  7 22  1  0  0  0  0
  8  9  1  0  0  0  0
  8 29  1  0  0  0  0
  8 30  1  0  0  0  0
  9 10  2  0  0  0  0
  9 11  1  0  0  0  0
 11 12  1  0  0  0  0
 11 31  1  0  0  0  0
 12 13  1  0  0  0  0
 12 32  1  0  0  0  0
 12 33  1  0  0  0  0
 13 14  1  0  0  0  0
 13 15  1  0  0  0  0
 13 16  1  0  0  0  0
 14 34  1  0  0  0  0
 14 35  1  0  0  0  0
 14 36  1  0  0  0  0
 15 37  1  0  0  0  0
 15 38  1  0  0  0  0
 15 39  1  0  0  0  0
 16 21  1  0  0  0  0
 16 17  1  0  0  0  0
 16 48  1  0  0  0  0
 17 18  1  0  0  0  0
 17 40  1  0  0  0  0
 17 41  1  0  0  0  0
 18 19  1  0  0  0  0
 18 42  1  0  0  0  0
 18 43  1  0  0  0  0
 19 20  1  0  0  0  0
 20 21  1  0  0  0  0
 20 44  1  0  0  0  0
 20 45  1  0  0  0  0
 21 46  1  0  0  0  0
 21 47  1  0  0  0  0
 22 23  2  0  0  0  0
M  CHG  1  16   1
M  END
> <s_m_source_file>
AV-unprocessed.smi

> <i_m_source_file_index>
1404

> <i_lp_mmshare_version>
43012

> <i_f3d_flags>
0

> <s_epik_input>
W0NIM11uMWMoPU8pW2NIXVtjSF1uKGMxPU8pW0NIMl1DKD1PKVtOSF1bQ0gyXUMoW0NIM10pKFtDSDNdKU4yW0NIMl1bQ0gyXU9bQ0gyXVtDSDJdMg==

> <s_epik_cmdline>
J2VwaWtfcHl0aG9uJywgJy1waCcsICc3LjAnLCAnLXRuJywgJzgnLCAnLW1hJywgJzIwMCcsICctbWV0YWxfYmluZGluZycsICctaW1hZScsICc8aW5maWxlLm1hZT4nLCAnLW9tYWUnLCAnPG91dGZpbGUubWFlPic=

> <r_lp_tautomer_probability>
1

> <r_epik_Ionization_Penalty>
0.656654

> <r_epik_Ionization_Penalty_Charging>
0.656653

> <r_epik_Ionization_Penalty_Neutral>
9.12373e-08

> <r_epik_State_Penalty>
0.675641

> <r_epik_Charging_Adjusted_Penalty>
1.33229

> <i_epik_Tot_Q>
1

> <i_epik_Tot_abs_Q>
1

> <r_epik_Metal_State_Penalty>
0.675694

> <b_epik_Metal_Only>
0

> <s_lp_Force_Field>
OPLS_2005

> <r_lp_Energy>
33.2005

> <b_lp_Chiralities_Consistent>
1

> <s_lp_Variant>
AV-unprocessed.smi:1404-2

> <Gold.Version>
5.8.1

> <Gold.Id.Protein>
6NUR|6NUR_protein|mol2

> <Gold.PLP.Fitness>
40.1085

> <Gold.PLP.PLP>
-33.5180

> <Gold.PLP.part.hbond>
-3.1014

> <Gold.PLP.part.metal>
0.0000

> <Gold.PLP.part.buried>
-4.6173

> <Gold.PLP.part.nonpolar>
-26.2381

> <Gold.PLP.part.repulsive>
0.2796

> <Gold.PLP.ligand.clash>
0.0000

> <Gold.PLP.ligand.torsion>
0.6940

> <Gold.PLP.Chemscore.Hbond>
1.6152

> <Gold.PLP.Chemscore.CHOScore>
1.0000

> <Gold.PLP.Chemscore.Metal>
0.0000

> <Gold.Chemscore.Hbonds>
donor molecule, donor type, donor heavy atom, donor atom, acceptor molecule, acceptor atom, score
      P1  H  7989  7998       L1     4  0.42
      P1  H  7997  8008       L1     4  0.91
      L1  C     6    28       P1  7948  1.00

> <Gold.PLP.Chemscore.Internal.Correction>
0.1330

> <Gold.Rescore>
     Score         DG    S(hbond)    S(metal)    S(lipo)     H(rot)  DE(clash)    DE(int)     intcor
     13.86     -14.33       1.83        0.00      70.16       2.14       0.01       0.46       ----

> <Gold.Chemscore.Fitness>
13.8582

> <Gold.Chemscore.DG>
-14.3250

> <Gold.Chemscore.ZeroCoef>
-5.4800

> <Gold.Chemscore.Hbond>
1.8294

> <Gold.Chemscore.Metal>
0.0000

> <Gold.Chemscore.Lipo>
70.1573

> <Gold.Chemscore.Internal_Hbond>
0.0000

> <Gold.Chemscore.DEClash>
0.0060

> <Gold.Chemscore.DEInternal>
0.4609

> <Gold.Chemscore.Rot>
2.1381

> <Gold.Chemscore.Internal.Correction>
   9.000000E+99

> <Gold.Chemscore.Hbonds>
donor molecule, donor type, donor heavy atom, donor atom, acceptor molecule, acceptor atom, score
      P1  H  7989  7998       L1     4  0.26
      P1  H  7997  8008       L1     4  0.87

> <Gold.Chemscore.Hbond.Weighted>
-6.1101

> <Gold.Chemscore.Metal.Weighted>
-0.0000

> <Gold.Chemscore.Lipo.Weighted>
-8.2084

> <Gold.Chemscore.Internal_Hbond.Weighted>
0.0000

> <Gold.Chemscore.DEClash.Weighted>
0.0060

> <Gold.Chemscore.DEInternal.Weighted>
0.4609

> <Gold.Chemscore.Rot.Weighted>
5.4735

> <Gold.Chemscore.Internal.Correction.Weighted>
   9.000000E+99

> <Gold.Protein.RotatedTorsions>
[ 6907 6896 6895 6894 ] final -146.99 input  -60.11 | X-H torsion
[ 7974 7965 7964 7962 ] final   91.13 input  175.53 | X-H torsion
[ 8008 7997 7996 7995 ] final  -20.17 input   59.86 | X-H torsion
[ 10167 10162 10161 10158 ] final -162.83 input  -65.29 | X-H torsion
[ 10718 10713 10712 10709 ] final -100.31 input   66.30 | X-H torsion
[ 10763 10752 10751 10750 ] final  120.29 input  -60.55 | X-H torsion
[ 11005 11000 10999 10996 ] final  128.53 input  -57.11 | X-H torsion

> <Gold.Protein.ActiveResidues>
 VAL166  LYS551  ARG553  GLY616  TRP617  ASP618  TYR619  PRO620  LYS621  CYS622 
 ASP623  PHE694  ASN695  SER759  ASP760  ASP761  ALA762  ILE779  LEU786  VAL792 
 PHE793  MET794  SER795  GLU796  ALA797  LYS798  CYS799  TRP800  GLU811  SER814 

> <Gold.Protein.RotatedAtoms>
  151.1493  133.4918  159.2595 H   0  0  0  0  0  0  0  0  0  0  0  0  # atno 6907 bound_to 6896
  151.1570  135.0255  159.8704 H   0  0  0  0  0  0  0  0  0  0  0  0  # atno 6908 bound_to 6896
  152.5463  134.1371  159.8517 H   0  0  0  0  0  0  0  0  0  0  0  0  # atno 6909 bound_to 6896
  145.5097  139.2277  143.2731 H   0  0  0  0  0  0  0  0  0  0  0  0  # atno 7974 bound_to 7965
  154.4787  140.2069  155.9814 H   0  0  0  0  0  0  0  0  0  0  0  0  # atno 8008 bound_to 7997
  156.1131  140.3225  155.8071 H   0  0  0  0  0  0  0  0  0  0  0  0  # atno 8009 bound_to 7997
  155.4600  140.0523  157.2983 H   0  0  0  0  0  0  0  0  0  0  0  0  # atno 8010 bound_to 7997
  139.6364  144.0342  152.2057 H   0  0  0  0  0  0  0  0  0  0  0  0  # atno 10167 bound_to 10162
  156.0159  130.5322  150.6798 H   0  0  0  0  0  0  0  0  0  0  0  0  # atno 10718 bound_to 10713
  153.5962  135.3456  155.2929 H   0  0  0  0  0  0  0  0  0  0  0  0  # atno 10763 bound_to 10752
  154.8644  135.4216  154.2463 H   0  0  0  0  0  0  0  0  0  0  0  0  # atno 10764 bound_to 10752
  153.3281  135.7042  153.7043 H   0  0  0  0  0  0  0  0  0  0  0  0  # atno 10765 bound_to 10752
  139.9566  134.9611  156.9015 H   0  0  0  0  0  0  0  0  0  0  0  0  # atno 11005 bound_to 11000
  146.2174  140.5904  142.9032 LP  0  0  0  0  0  0  0  0  0  0  0  0  # atno 17320 bound_to 7965
  144.7734  140.5687  143.6655 LP  0  0  0  0  0  0  0  0  0  0  0  0  # atno 17321 bound_to 7965
  140.0021  144.6286  150.7721 LP  0  0  0  0  0  0  0  0  0  0  0  0  # atno 17342 bound_to 10162
  140.7467  143.2895  151.3369 LP  0  0  0  0  0  0  0  0  0  0  0  0  # atno 17343 bound_to 10162
  157.4503  131.0871  151.0853 LP  0  0  0  0  0  0  0  0  0  0  0  0  # atno 17370 bound_to 10713
  157.1371  130.6127  149.5545 LP  0  0  0  0  0  0  0  0  0  0  0  0  # atno 17371 bound_to 10713
  140.5596  134.0548  155.7394 LP  0  0  0  0  0  0  0  0  0  0  0  0  # atno 17394 bound_to 11000
  141.1238  133.9418  157.2677 LP  0  0  0  0  0  0  0  0  0  0  0  0  # atno 17395 bound_to 11000

$$$$
