AV-unprocessed.smi:652|AV-procd|sdf|3197|dock1
  -GOLD-   22720 0123D 1   1.00000     0.00000
 Structure written by MMmdl.
 47 48  0  0  0  0  0  0  0  0  1 V2000
  152.5429  144.7692  158.4245 C   0  0  0  0  0  0  0  0  0  0  0  0
  151.0351  144.9122  158.6828 C   0  0  0  0  0  0  0  0  0  0  0  0
  150.6924  144.7338  160.1679 C   0  0  0  0  0  0  0  0  0  0  0  0
  150.2870  143.9383  157.8937 N   0  0  0  0  0  0  0  0  0  0  0  0
  150.3791  142.6044  158.0112 C   0  0  0  0  0  0  0  0  0  0  0  0
  151.0991  142.0434  158.8374 O   0  0  0  0  0  0  0  0  0  0  0  0
  149.5288  141.7735  157.0445 C   0  0  0  0  0  0  0  0  0  0  0  0
  150.3706  140.8461  156.1422 C   0  0  0  0  0  0  0  0  0  0  0  0
  150.7240  139.5466  156.7178 N   0  0  0  0  0  0  0  0  0  0  0  0
  151.5199  138.7261  155.8087 C   0  0  0  0  0  0  0  0  0  0  0  0
  151.8761  137.3650  156.4310 C   0  0  0  0  0  0  0  0  0  0  0  0
  150.6872  136.6841  156.8192 O   0  0  0  0  0  0  0  0  0  0  0  0
  149.8888  137.4355  157.7306 C   0  0  2  0  0  0  0  0  0  0  0  0
  148.6622  136.6031  158.1361 C   0  0  0  0  0  0  0  0  0  0  0  0
  147.9372  137.1886  159.2552 N   0  0  0  0  0  0  0  0  0  0  0  0
  147.6788  136.4439  160.4127 C   0  0  0  0  0  0  0  0  0  0  0  0
  147.7642  135.0331  160.4533 C   0  0  0  0  0  0  0  0  0  0  0  0
  147.4820  134.3996  161.6758 C   0  0  0  0  0  0  0  0  0  0  0  0
  147.1359  135.2201  162.7643 C   0  0  0  0  0  0  0  0  0  0  0  0
  147.0691  136.5668  162.6678 N   0  0  0  0  0  0  0  0  0  0  0  0
  147.3380  137.1691  161.5037 N   0  0  0  0  0  0  0  0  0  0  0  0
  149.5329  138.8029  157.1098 C   0  0  0  0  0  0  0  0  0  0  0  0
  153.1093  145.4993  159.0033 H   0  0  0  0  0  0  0  0  0  0  0  0
  152.7815  144.9300  157.3726 H   0  0  0  0  0  0  0  0  0  0  0  0
  152.9011  143.7766  158.6994 H   0  0  0  0  0  0  0  0  0  0  0  0
  150.7276  145.9183  158.3919 H   0  0  0  0  0  0  0  0  0  0  0  0
  151.2130  145.4699  160.7809 H   0  0  0  0  0  0  0  0  0  0  0  0
  150.9752  143.7432  160.5258 H   0  0  0  0  0  0  0  0  0  0  0  0
  149.6229  144.8588  160.3418 H   0  0  0  0  0  0  0  0  0  0  0  0
  149.6657  144.3072  157.1885 H   0  0  0  0  0  0  0  0  0  0  0  0
  148.8407  141.1693  157.6362 H   0  0  0  0  0  0  0  0  0  0  0  0
  148.9020  142.4282  156.4379 H   0  0  0  0  0  0  0  0  0  0  0  0
  149.8085  140.6822  155.2215 H   0  0  0  0  0  0  0  0  0  0  0  0
  151.2783  141.3703  155.8400 H   0  0  0  0  0  0  0  0  0  0  0  0
  150.9730  138.5666  154.8782 H   0  0  0  0  0  0  0  0  0  0  0  0
  152.4436  139.2405  155.5457 H   0  0  0  0  0  0  0  0  0  0  0  0
  152.4204  136.7508  155.7135 H   0  0  0  0  0  0  0  0  0  0  0  0
  152.5263  137.4971  157.2971 H   0  0  0  0  0  0  0  0  0  0  0  0
  150.4807  137.6078  158.6314 H   0  0  0  0  0  0  0  0  0  0  0  0
  147.9876  136.5067  157.2845 H   0  0  0  0  0  0  0  0  0  0  0  0
  148.9848  135.5971  158.4068 H   0  0  0  0  0  0  0  0  0  0  0  0
  147.4578  138.0665  159.1152 H   0  0  0  0  0  0  0  0  0  0  0  0
  148.0362  134.4443  159.5904 H   0  0  0  0  0  0  0  0  0  0  0  0
  147.5292  133.3253  161.7757 H   0  0  0  0  0  0  0  0  0  0  0  0
  146.9082  134.7910  163.7287 H   0  0  0  0  0  0  0  0  0  0  0  0
  148.9560  139.3851  157.8294 H   0  0  0  0  0  0  0  0  0  0  0  0
  148.8907  138.6588  156.2397 H   0  0  0  0  0  0  0  0  0  0  0  0
  1  2  1  0  0  0  0
  1 23  1  0  0  0  0
  1 24  1  0  0  0  0
  1 25  1  0  0  0  0
  2  3  1  0  0  0  0
  2  4  1  0  0  0  0
  2 26  1  0  0  0  0
  3 27  1  0  0  0  0
  3 28  1  0  0  0  0
  3 29  1  0  0  0  0
  4  5  1  0  0  0  0
  4 30  1  0  0  0  0
  5  6  2  0  0  0  0
  5  7  1  0  0  0  0
  7  8  1  0  0  0  0
  7 31  1  0  0  0  0
  7 32  1  0  0  0  0
  8  9  1  0  0  0  0
  8 33  1  0  0  0  0
  8 34  1  0  0  0  0
  9 22  1  0  0  0  0
  9 10  1  0  0  0  0
 10 11  1  0  0  0  0
 10 35  1  0  0  0  0
 10 36  1  0  0  0  0
 11 12  1  0  0  0  0
 11 37  1  0  0  0  0
 11 38  1  0  0  0  0
 12 13  1  0  0  0  0
 13 14  1  0  0  0  0
 13 22  1  0  0  0  0
 13 39  1  0  0  0  0
 14 15  1  0  0  0  0
 14 40  1  0  0  0  0
 14 41  1  0  0  0  0
 15 16  1  0  0  0  0
 15 42  1  0  0  0  0
 16 21  1  0  0  0  0
 16 17  2  0  0  0  0
 17 18  1  0  0  0  0
 17 43  1  0  0  0  0
 18 19  2  0  0  0  0
 18 44  1  0  0  0  0
 19 20  1  0  0  0  0
 19 45  1  0  0  0  0
 20 21  2  0  0  0  0
 22 46  1  0  0  0  0
 22 47  1  0  0  0  0
M  END
> <s_m_source_file>
AV-unprocessed.smi

> <i_m_source_file_index>
652

> <i_lp_mmshare_version>
43012

> <i_f3d_flags>
0

> <s_epik_input>
W0NIM11bQ0hdKFtDSDNdKVtOSF1DKD1PKVtDSDJdW0NIMl1OMVtDSDJdW0NIMl1PW0NASF0oW0NIMl0xKVtDSDJdW05IXWMyW2NIXVtjSF1bY0hdbm4y

> <s_epik_cmdline>
J2VwaWtfcHl0aG9uJywgJy1waCcsICc3LjAnLCAnLXRuJywgJzgnLCAnLW1hJywgJzIwMCcsICctbWV0YWxfYmluZGluZycsICctaW1hZScsICc8aW5maWxlLm1hZT4nLCAnLW9tYWUnLCAnPG91dGZpbGUubWFlPic=

> <r_lp_tautomer_probability>
0.999978

> <r_epik_Ionization_Penalty>
0.428793

> <r_epik_Ionization_Penalty_Charging>
0

> <r_epik_Ionization_Penalty_Neutral>
0.428793

> <r_epik_State_Penalty>
0.437051

> <r_epik_Charging_Adjusted_Penalty>
0.437051

> <i_epik_Tot_Q>
0

> <i_epik_Tot_abs_Q>
0

> <r_epik_Metal_State_Penalty>
0.432371

> <b_epik_Metal_Only>
0

> <s_lp_Force_Field>
OPLS_2005

> <r_lp_Energy>
25.2897

> <b_lp_Chiralities_Consistent>
1

> <s_lp_Variant>
AV-unprocessed.smi:652-6

> <Gold.Version>
5.8.1

> <Gold.Id.Protein>
6NUR|6NUR_protein|mol2

> <Gold.PLP.Fitness>
47.7657

> <Gold.PLP.PLP>
-39.5292

> <Gold.PLP.part.hbond>
-3.0000

> <Gold.PLP.part.metal>
0.0000

> <Gold.PLP.part.buried>
-7.5150

> <Gold.PLP.part.nonpolar>
-29.3291

> <Gold.PLP.part.repulsive>
0.2124

> <Gold.PLP.ligand.clash>
0.0000

> <Gold.PLP.ligand.torsion>
0.2749

> <Gold.PLP.Chemscore.Hbond>
2.7920

> <Gold.PLP.Chemscore.CHOScore>
0.0000

> <Gold.PLP.Chemscore.Metal>
0.0000

> <Gold.Chemscore.Hbonds>
donor molecule, donor type, donor heavy atom, donor atom, acceptor molecule, acceptor atom, score
      L1  H     4    30       P1  8028  1.00
      P1  H  6931  6943       L1    21  0.86
      P1  H  6934  6947       L1    21  0.93

> <Gold.PLP.Chemscore.Internal.Correction>
0.4102

> <Gold.Rescore>
     Score         DG    S(hbond)    S(metal)    S(lipo)     H(rot)  DE(clash)    DE(int)     intcor
     15.64     -16.82       1.91        0.00      90.61       2.20       0.05       1.13       ----

> <Gold.Chemscore.Fitness>
15.6400

> <Gold.Chemscore.DG>
-16.8215

> <Gold.Chemscore.ZeroCoef>
-5.4800

> <Gold.Chemscore.Hbond>
1.9088

> <Gold.Chemscore.Metal>
0.0000

> <Gold.Chemscore.Lipo>
90.6116

> <Gold.Chemscore.Internal_Hbond>
0.0000

> <Gold.Chemscore.DEClash>
0.0468

> <Gold.Chemscore.DEInternal>
1.1347

> <Gold.Chemscore.Rot>
2.2013

> <Gold.Chemscore.Internal.Correction>
   9.000000E+99

> <Gold.Chemscore.Hbonds>
donor molecule, donor type, donor heavy atom, donor atom, acceptor molecule, acceptor atom, score
      L1  H     4    30       P1  8028  0.35
      P1  H  6931  6943       L1    21  0.14
      P1  H  6934  6947       L1    21  0.58

> <Gold.Chemscore.Hbond.Weighted>
-6.3754

> <Gold.Chemscore.Metal.Weighted>
-0.0000

> <Gold.Chemscore.Lipo.Weighted>
-10.6016

> <Gold.Chemscore.Internal_Hbond.Weighted>
0.0000

> <Gold.Chemscore.DEClash.Weighted>
0.0468

> <Gold.Chemscore.DEInternal.Weighted>
1.1347

> <Gold.Chemscore.Rot.Weighted>
5.6354

> <Gold.Chemscore.Internal.Correction.Weighted>
   9.000000E+99

> <Gold.Protein.RotatedTorsions>
[ 6907 6896 6895 6894 ] final -139.84 input  -60.11 | X-H torsion
[ 7974 7965 7964 7962 ] final  147.71 input  175.53 | X-H torsion
[ 8008 7997 7996 7995 ] final -113.47 input   59.86 | X-H torsion
[ 10167 10162 10161 10158 ] final    6.80 input  -65.29 | X-H torsion
[ 10718 10713 10712 10709 ] final  -71.35 input   66.30 | X-H torsion
[ 10763 10752 10751 10750 ] final   26.21 input  -60.55 | X-H torsion
[ 11005 11000 10999 10996 ] final  175.20 input  -57.11 | X-H torsion

> <Gold.Protein.ActiveResidues>
 VAL166  LYS551  ARG553  GLY616  TRP617  ASP618  TYR619  PRO620  LYS621  CYS622 
 ASP623  PHE694  ASN695  SER759  ASP760  ASP761  ALA762  ILE779  LEU786  VAL792 
 PHE793  MET794  SER795  GLU796  ALA797  LYS798  CYS799  TRP800  GLU811  SER814 

> <Gold.Protein.RotatedAtoms>
  151.0529  133.5609  159.2640 H   0  0  0  0  0  0  0  0  0  0  0  0  # atno 6907 bound_to 6896
  151.2613  135.0654  159.9109 H   0  0  0  0  0  0  0  0  0  0  0  0  # atno 6908 bound_to 6896
  152.5385  134.0274  159.8063 H   0  0  0  0  0  0  0  0  0  0  0  0  # atno 6909 bound_to 6896
  144.8570  139.6063  143.5948 H   0  0  0  0  0  0  0  0  0  0  0  0  # atno 7974 bound_to 7965
  155.0213  140.0393  157.2438 H   0  0  0  0  0  0  0  0  0  0  0  0  # atno 8008 bound_to 7997
  154.7376  140.2742  155.6378 H   0  0  0  0  0  0  0  0  0  0  0  0  # atno 8009 bound_to 7997
  156.2856  140.2672  156.2094 H   0  0  0  0  0  0  0  0  0  0  0  0  # atno 8010 bound_to 7997
  140.6407  143.7780  150.7425 H   0  0  0  0  0  0  0  0  0  0  0  0  # atno 10167 bound_to 10162
  156.0367  130.4349  150.2431 H   0  0  0  0  0  0  0  0  0  0  0  0  # atno 10718 bound_to 10713
  153.0638  135.6565  154.0401 H   0  0  0  0  0  0  0  0  0  0  0  0  # atno 10763 bound_to 10752
  154.0062  135.2932  155.3399 H   0  0  0  0  0  0  0  0  0  0  0  0  # atno 10764 bound_to 10752
  154.6988  135.5253  153.8565 H   0  0  0  0  0  0  0  0  0  0  0  0  # atno 10765 bound_to 10752
  140.3596  134.7124  157.4322 H   0  0  0  0  0  0  0  0  0  0  0  0  # atno 11005 bound_to 11000
  146.2831  139.6930  142.9215 LP  0  0  0  0  0  0  0  0  0  0  0  0  # atno 17320 bound_to 7965
  145.4387  141.0421  143.2870 LP  0  0  0  0  0  0  0  0  0  0  0  0  # atno 17321 bound_to 7965
  140.1410  143.4441  152.2193 LP  0  0  0  0  0  0  0  0  0  0  0  0  # atno 17342 bound_to 10162
  139.5617  144.7410  151.4137 LP  0  0  0  0  0  0  0  0  0  0  0  0  # atno 17343 bound_to 10162
  157.0529  131.0068  151.3248 LP  0  0  0  0  0  0  0  0  0  0  0  0  # atno 17370 bound_to 10713
  157.5127  130.7948  149.7722 LP  0  0  0  0  0  0  0  0  0  0  0  0  # atno 17371 bound_to 10713
  140.0637  134.5959  155.8719 LP  0  0  0  0  0  0  0  0  0  0  0  0  # atno 17394 bound_to 11000
  141.1988  133.6603  156.5811 LP  0  0  0  0  0  0  0  0  0  0  0  0  # atno 17395 bound_to 11000

$$$$
