AV-unprocessed.smi:1575|AV-procd|sdf|6339|dock9
  -GOLD-   22720 6553D 1   1.00000     0.00000
 Structure written by MMmdl.
 41 41  0  0  0  0  0  0  0  0  1 V2000
  145.3497  145.2881  158.7133 C   0  0  0  0  0  0  0  0  0  0  0  0
  146.6662  144.6872  158.5671 N   0  0  0  0  0  0  0  0  0  0  0  0
  147.1428  143.7131  159.3556 C   0  0  0  0  0  0  0  0  0  0  0  0
  146.4952  143.2216  160.2817 O   0  0  0  0  0  0  0  0  0  0  0  0
  148.5602  143.2097  159.0334 C   0  0  2  0  0  0  0  0  0  0  0  0
  149.5413  144.3883  159.2401 C   0  0  0  0  0  0  0  0  0  0  0  0
  151.0373  143.9986  159.2796 C   0  0  0  0  0  0  0  0  0  0  0  0
  151.9097  145.0742  159.9487 C   0  0  0  0  0  0  0  0  0  0  0  0
  151.5539  143.6954  157.8651 C   0  0  0  0  0  0  0  0  0  0  0  0
  148.6309  142.7805  157.6369 N   0  0  0  0  0  0  0  0  0  0  0  0
  148.3354  141.5521  157.1854 C   0  0  0  0  0  0  0  0  0  0  0  0
  147.9620  140.6355  157.9187 O   0  0  0  0  0  0  0  0  0  0  0  0
  148.4614  141.3412  155.6706 C   0  0  0  0  0  0  0  0  0  0  0  0
  149.3425  140.2169  155.3244 N   0  0  0  0  0  0  0  0  0  0  0  0
  150.5818  140.0833  155.9343 C   0  0  0  0  0  0  0  0  0  0  0  0
  151.4443  139.0768  155.6566 C   0  0  0  0  0  0  0  0  0  0  0  0
  151.0973  138.0567  154.6730 C   0  0  0  0  0  0  0  0  0  0  0  0
  151.8090  137.1065  154.3554 O   0  0  0  0  0  0  0  0  0  0  0  0
  149.8438  138.2278  154.0793 N   0  0  0  0  0  0  0  0  0  0  0  0
  148.9514  139.2640  154.3586 C   0  0  0  0  0  0  0  0  0  0  0  0
  147.8710  139.3246  153.7727 O   0  0  0  0  0  0  0  0  0  0  0  0
  149.5612  137.5465  153.3899 H   0  0  0  0  0  0  0  0  0  0  0  0
  145.1950  146.0382  157.9378 H   0  0  0  0  0  0  0  0  0  0  0  0
  145.2526  145.7759  159.6841 H   0  0  0  0  0  0  0  0  0  0  0  0
  144.5657  144.5354  158.6208 H   0  0  0  0  0  0  0  0  0  0  0  0
  147.2548  145.0366  157.8248 H   0  0  0  0  0  0  0  0  0  0  0  0
  148.8115  142.3837  159.7008 H   0  0  0  0  0  0  0  0  0  0  0  0
  149.3931  145.1196  158.4431 H   0  0  0  0  0  0  0  0  0  0  0  0
  149.2942  144.9091  160.1669 H   0  0  0  0  0  0  0  0  0  0  0  0
  151.1439  143.0793  159.8567 H   0  0  0  0  0  0  0  0  0  0  0  0
  151.8061  146.0372  159.4479 H   0  0  0  0  0  0  0  0  0  0  0  0
  152.9637  144.7968  159.9182 H   0  0  0  0  0  0  0  0  0  0  0  0
  151.6476  145.2110  160.9976 H   0  0  0  0  0  0  0  0  0  0  0  0
  151.4944  144.5755  157.2237 H   0  0  0  0  0  0  0  0  0  0  0  0
  150.9736  142.9009  157.3951 H   0  0  0  0  0  0  0  0  0  0  0  0
  152.5942  143.3698  157.8879 H   0  0  0  0  0  0  0  0  0  0  0  0
  148.9150  143.4768  156.9633 H   0  0  0  0  0  0  0  0  0  0  0  0
  147.4605  141.1769  155.2693 H   0  0  0  0  0  0  0  0  0  0  0  0
  148.8163  142.2566  155.1922 H   0  0  0  0  0  0  0  0  0  0  0  0
  150.8827  140.8185  156.6670 H   0  0  0  0  0  0  0  0  0  0  0  0
  152.3965  139.0269  156.1647 H   0  0  0  0  0  0  0  0  0  0  0  0
  1  2  1  0  0  0  0
  1 23  1  0  0  0  0
  1 24  1  0  0  0  0
  1 25  1  0  0  0  0
  2  3  1  0  0  0  0
  2 26  1  0  0  0  0
  3  4  2  0  0  0  0
  3  5  1  0  0  0  0
  5  6  1  0  0  0  0
  5 10  1  0  0  0  0
  5 27  1  0  0  0  0
  6  7  1  0  0  0  0
  6 28  1  0  0  0  0
  6 29  1  0  0  0  0
  7  8  1  0  0  0  0
  7  9  1  0  0  0  0
  7 30  1  0  0  0  0
  8 31  1  0  0  0  0
  8 32  1  0  0  0  0
  8 33  1  0  0  0  0
  9 34  1  0  0  0  0
  9 35  1  0  0  0  0
  9 36  1  0  0  0  0
 10 11  1  0  0  0  0
 10 37  1  0  0  0  0
 11 12  2  0  0  0  0
 11 13  1  0  0  0  0
 13 14  1  0  0  0  0
 13 38  1  0  0  0  0
 13 39  1  0  0  0  0
 14 20  1  0  0  0  0
 14 15  1  0  0  0  0
 15 16  2  0  0  0  0
 15 40  1  0  0  0  0
 16 17  1  0  0  0  0
 16 41  1  0  0  0  0
 17 18  2  0  0  0  0
 17 19  1  0  0  0  0
 19 22  1  0  0  0  0
 19 20  1  0  0  0  0
 20 21  2  0  0  0  0
M  END
> <s_m_source_file>
AV-unprocessed.smi

> <i_m_source_file_index>
1575

> <i_lp_mmshare_version>
43012

> <i_f3d_flags>
0

> <s_epik_input>
W0NIM11bTkhdQyg9TylbQ0BIXShbQ0gyXVtDSF0oW0NIM10pW0NIM10pW05IXUMoPU8pW0NIMl1uMVtjSF1bY0hdYyg9TylbbkhdYzE9Tw==

> <s_epik_cmdline>
J2VwaWtfcHl0aG9uJywgJy1waCcsICc3LjAnLCAnLXRuJywgJzgnLCAnLW1hJywgJzIwMCcsICctbWV0YWxfYmluZGluZycsICctaW1hZScsICc8aW5maWxlLm1hZT4nLCAnLW9tYWUnLCAnPG91dGZpbGUubWFlPic=

> <r_lp_tautomer_probability>
0.999537

> <r_epik_Ionization_Penalty>
0.00357166

> <r_epik_Ionization_Penalty_Charging>
0.00357161

> <r_epik_Ionization_Penalty_Neutral>
5.44484e-08

> <r_epik_State_Penalty>
0.00253761

> <r_epik_Charging_Adjusted_Penalty>
0.00610921

> <i_epik_Tot_Q>
0

> <i_epik_Tot_abs_Q>
0

> <r_epik_Metal_State_Penalty>
0.368734

> <b_epik_Metal_Only>
0

> <s_lp_Force_Field>
OPLS_2005

> <r_lp_Energy>
6.26633

> <b_lp_Chiralities_Consistent>
1

> <s_lp_Variant>
AV-unprocessed.smi:1575-1

> <Gold.Version>
5.8.1

> <Gold.Id.Protein>
6NUR|6NUR_protein|mol2

> <Gold.PLP.Fitness>
50.0150

> <Gold.PLP.PLP>
-34.1300

> <Gold.PLP.part.hbond>
-6.8890

> <Gold.PLP.part.metal>
0.0000

> <Gold.PLP.part.buried>
-2.8664

> <Gold.PLP.part.nonpolar>
-28.1504

> <Gold.PLP.part.repulsive>
1.8500

> <Gold.PLP.ligand.clash>
0.0000

> <Gold.PLP.ligand.torsion>
0.8144

> <Gold.PLP.Chemscore.Hbond>
5.7847

> <Gold.PLP.Chemscore.CHOScore>
0.0000

> <Gold.PLP.Chemscore.Metal>
0.0000

> <Gold.Chemscore.Hbonds>
donor molecule, donor type, donor heavy atom, donor atom, acceptor molecule, acceptor atom, score
      L1  H     2    26       P1  8029  0.21
      L1  H    10    37       P1  8028  1.00
      L1  H    19    22       P1  7948  0.89
      P1  H 10752 10765       L1    18  0.91

> <Gold.PLP.Chemscore.Internal.Correction>
0.1596

> <Gold.Rescore>
     Score         DG    S(hbond)    S(metal)    S(lipo)     H(rot)  DE(clash)    DE(int)     intcor
     18.96     -21.37       4.57        0.00      66.86       2.81       1.64       0.76       ----

> <Gold.Chemscore.Fitness>
18.9615

> <Gold.Chemscore.DG>
-21.3652

> <Gold.Chemscore.ZeroCoef>
-5.4800

> <Gold.Chemscore.Hbond>
4.5655

> <Gold.Chemscore.Metal>
0.0000

> <Gold.Chemscore.Lipo>
66.8632

> <Gold.Chemscore.Internal_Hbond>
0.0000

> <Gold.Chemscore.DEClash>
1.6396

> <Gold.Chemscore.DEInternal>
0.7641

> <Gold.Chemscore.Rot>
2.8072

> <Gold.Chemscore.Internal.Correction>
   9.000000E+99

> <Gold.Chemscore.Hbonds>
donor molecule, donor type, donor heavy atom, donor atom, acceptor molecule, acceptor atom, score
      L1  H     2    26       P1  8029  0.14
      L1  H    10    37       P1  8028  0.60
      L1  H    19    22       P1  7948  0.77
      P1  H  6934  6946       L1     4  0.06
      P1  H 10752 10765       L1    18  0.89

> <Gold.Chemscore.Hbond.Weighted>
-15.2486

> <Gold.Chemscore.Metal.Weighted>
-0.0000

> <Gold.Chemscore.Lipo.Weighted>
-7.8230

> <Gold.Chemscore.Internal_Hbond.Weighted>
0.0000

> <Gold.Chemscore.DEClash.Weighted>
1.6396

> <Gold.Chemscore.DEInternal.Weighted>
0.7641

> <Gold.Chemscore.Rot.Weighted>
7.1864

> <Gold.Chemscore.Internal.Correction.Weighted>
   9.000000E+99

> <Gold.Protein.RotatedTorsions>
[ 6907 6896 6895 6894 ] final  -44.35 input  -60.11 | X-H torsion
[ 7974 7965 7964 7962 ] final  -55.66 input  175.53 | X-H torsion
[ 8008 7997 7996 7995 ] final   62.11 input   59.86 | X-H torsion
[ 10167 10162 10161 10158 ] final  -96.46 input  -65.29 | X-H torsion
[ 10718 10713 10712 10709 ] final  -54.15 input   66.30 | X-H torsion
[ 10763 10752 10751 10750 ] final  143.46 input  -60.55 | X-H torsion
[ 11005 11000 10999 10996 ] final  174.51 input  -57.11 | X-H torsion

> <Gold.Protein.ActiveResidues>
 VAL166  LYS551  ARG553  GLY616  TRP617  ASP618  TYR619  PRO620  LYS621  CYS622 
 ASP623  PHE694  ASN695  SER759  ASP760  ASP761  ALA762  ILE779  LEU786  VAL792 
 PHE793  MET794  SER795  GLU796  ALA797  LYS798  CYS799  TRP800  GLU811  SER814 

> <Gold.Protein.RotatedAtoms>
  150.9338  134.8752  159.7568 H   0  0  0  0  0  0  0  0  0  0  0  0  # atno 6907 bound_to 6896
  152.5050  134.4040  159.9436 H   0  0  0  0  0  0  0  0  0  0  0  0  # atno 6908 bound_to 6896
  151.4065  133.3701  159.2773 H   0  0  0  0  0  0  0  0  0  0  0  0  # atno 6909 bound_to 6896
  145.8716  140.8211  142.9885 H   0  0  0  0  0  0  0  0  0  0  0  0  # atno 7974 bound_to 7965
  155.6090  140.3495  155.4616 H   0  0  0  0  0  0  0  0  0  0  0  0  # atno 8008 bound_to 7997
  156.0169  140.1245  157.0422 H   0  0  0  0  0  0  0  0  0  0  0  0  # atno 8009 bound_to 7997
  154.4301  140.1070  156.5894 H   0  0  0  0  0  0  0  0  0  0  0  0  # atno 8010 bound_to 7997
  140.2936  143.3206  152.0320 H   0  0  0  0  0  0  0  0  0  0  0  0  # atno 10167 bound_to 10162
  156.1475  130.4152  150.0000 H   0  0  0  0  0  0  0  0  0  0  0  0  # atno 10718 bound_to 10713
  153.9727  135.2949  155.3426 H   0  0  0  0  0  0  0  0  0  0  0  0  # atno 10763 bound_to 10752
  154.7313  135.5066  153.8972 H   0  0  0  0  0  0  0  0  0  0  0  0  # atno 10764 bound_to 10752
  153.0892  135.6702  154.0000 H   0  0  0  0  0  0  0  0  0  0  0  0  # atno 10765 bound_to 10752
  140.3521  134.7186  157.4275 H   0  0  0  0  0  0  0  0  0  0  0  0  # atno 11005 bound_to 11000
  144.6726  140.1248  143.7447 LP  0  0  0  0  0  0  0  0  0  0  0  0  # atno 17320 bound_to 7965
  145.9129  139.2498  143.1426 LP  0  0  0  0  0  0  0  0  0  0  0  0  # atno 17321 bound_to 7965
  139.4932  144.6507  151.6682 LP  0  0  0  0  0  0  0  0  0  0  0  0  # atno 17342 bound_to 10162
  140.5711  144.0107  150.6217 LP  0  0  0  0  0  0  0  0  0  0  0  0  # atno 17343 bound_to 10162
  156.7868  130.9241  151.3646 LP  0  0  0  0  0  0  0  0  0  0  0  0  # atno 17370 bound_to 10713
  157.6629  130.8982  149.9868 LP  0  0  0  0  0  0  0  0  0  0  0  0  # atno 17371 bound_to 10713
  140.0695  134.5883  155.8658 LP  0  0  0  0  0  0  0  0  0  0  0  0  # atno 17394 bound_to 11000
  141.2009  133.6615  156.5922 LP  0  0  0  0  0  0  0  0  0  0  0  0  # atno 17395 bound_to 11000

$$$$
