AV-unprocessed.smi:1794|AV-procd|sdf|7234|dock5
  -GOLD-   22720 8483D 1   1.00000     0.00000
 Structure written by MMmdl.
 55 57  0  0  0  0  0  0  0  0  2 V2000
  151.3271  137.5499  154.2287 C   0  0  0  0  0  0  0  0  0  0  0  0
  150.2350  138.1029  155.1754 C   0  0  0  0  0  0  0  0  0  0  0  0
  149.2877  138.9808  154.3168 C   0  0  0  0  0  0  0  0  0  0  0  0
  149.3858  136.8918  155.6640 C   0  0  0  0  0  0  0  0  0  0  0  0
  149.1225  135.9332  154.5913 N   0  0  0  0  0  0  0  0  0  0  0  0
  149.0101  134.6056  154.7338 C   0  0  0  0  0  0  0  0  0  0  0  0
  149.2084  134.0072  155.7908 O   0  0  0  0  0  0  0  0  0  0  0  0
  148.6258  134.0288  153.5839 N   0  0  0  0  0  0  0  0  0  0  0  0
  148.2799  132.6655  153.3706 C   0  0  0  0  0  0  0  0  0  0  0  0
  148.9484  131.6098  154.0406 C   0  0  0  0  0  0  0  0  0  0  0  0
  148.5733  130.2756  153.7914 C   0  0  0  0  0  0  0  0  0  0  0  0
  147.5429  130.0173  152.8696 C   0  0  0  0  0  0  0  0  0  0  0  0
  146.9374  131.0439  152.2369 N   0  3  0  0  0  0  0  0  0  0  0  0
  147.2550  132.3466  152.4393 C   0  0  0  0  0  0  0  0  0  0  0  0
  146.5714  133.3391  151.7064 N   0  0  0  0  0  0  0  0  0  0  0  0
  146.1553  132.9117  150.3733 C   0  0  0  0  0  0  0  0  0  0  0  0
  144.7933  133.5602  150.1155 C   0  0  0  0  0  0  0  0  0  0  0  0
  144.2268  133.7439  151.5182 C   0  0  0  0  0  0  0  0  0  0  0  0
  145.4747  134.0736  152.3347 C   0  0  0  0  0  0  0  0  0  0  0  0
  150.7957  138.8748  156.3199 N   0  0  0  0  0  0  0  0  0  0  0  0
  151.3859  140.1715  155.9696 C   0  0  0  0  0  0  0  0  0  0  0  0
  151.8242  140.9608  157.2160 C   0  0  0  0  0  0  0  0  0  0  0  0
  152.7326  140.1839  157.9878 O   0  0  0  0  0  0  0  0  0  0  0  0
  152.1782  138.9373  158.3901 C   0  0  0  0  0  0  0  0  0  0  0  0
  151.7591  138.1377  157.1461 C   0  0  0  0  0  0  0  0  0  0  0  0
  150.8821  137.0180  153.3869 H   0  0  0  0  0  0  0  0  0  0  0  0
  151.9869  136.8428  154.7311 H   0  0  0  0  0  0  0  0  0  0  0  0
  151.9475  138.3413  153.8087 H   0  0  0  0  0  0  0  0  0  0  0  0
  148.7392  138.3836  153.5875 H   0  0  0  0  0  0  0  0  0  0  0  0
  149.8307  139.7323  153.7433 H   0  0  0  0  0  0  0  0  0  0  0  0
  148.5521  139.5034  154.9294 H   0  0  0  0  0  0  0  0  0  0  0  0
  149.9215  136.3539  156.4473 H   0  0  0  0  0  0  0  0  0  0  0  0
  148.4624  137.2193  156.1427 H   0  0  0  0  0  0  0  0  0  0  0  0
  148.9437  136.3261  153.6788 H   0  0  0  0  0  0  0  0  0  0  0  0
  148.4173  134.6569  152.8219 H   0  0  0  0  0  0  0  0  0  0  0  0
  149.7516  131.8038  154.7356 H   0  0  0  0  0  0  0  0  0  0  0  0
  149.0730  129.4628  154.2978 H   0  0  0  0  0  0  0  0  0  0  0  0
  147.1922  129.0278  152.6145 H   0  0  0  0  0  0  0  0  0  0  0  0
  146.8834  133.2099  149.6183 H   0  0  0  0  0  0  0  0  0  0  0  0
  146.0625  131.8247  150.3382 H   0  0  0  0  0  0  0  0  0  0  0  0
  144.9304  134.5343  149.6440 H   0  0  0  0  0  0  0  0  0  0  0  0
  144.1521  132.9592  149.4700 H   0  0  0  0  0  0  0  0  0  0  0  0
  143.4642  134.5210  151.5741 H   0  0  0  0  0  0  0  0  0  0  0  0
  143.7876  132.8086  151.8682 H   0  0  0  0  0  0  0  0  0  0  0  0
  145.3338  133.8629  153.3948 H   0  0  0  0  0  0  0  0  0  0  0  0
  145.7004  135.1375  152.2519 H   0  0  0  0  0  0  0  0  0  0  0  0
  152.2485  140.0305  155.3181 H   0  0  0  0  0  0  0  0  0  0  0  0
  150.6743  140.7891  155.4248 H   0  0  0  0  0  0  0  0  0  0  0  0
  152.3117  141.8906  156.9230 H   0  0  0  0  0  0  0  0  0  0  0  0
  150.9597  141.2308  157.8246 H   0  0  0  0  0  0  0  0  0  0  0  0
  152.9230  138.3849  158.9626 H   0  0  0  0  0  0  0  0  0  0  0  0
  151.3240  139.1025  159.0487 H   0  0  0  0  0  0  0  0  0  0  0  0
  151.3483  137.1885  157.4804 H   0  0  0  0  0  0  0  0  0  0  0  0
  152.6516  137.9040  156.5652 H   0  0  0  0  0  0  0  0  0  0  0  0
  146.2009  130.8266  151.5653 H   0  0  0  0  0  0  0  0  0  0  0  0
  1  2  1  0  0  0  0
  1 26  1  0  0  0  0
  1 27  1  0  0  0  0
  1 28  1  0  0  0  0
  2  3  1  0  0  0  0
  2  4  1  0  0  0  0
  2 20  1  0  0  0  0
  3 29  1  0  0  0  0
  3 30  1  0  0  0  0
  3 31  1  0  0  0  0
  4  5  1  0  0  0  0
  4 32  1  0  0  0  0
  4 33  1  0  0  0  0
  5  6  1  0  0  0  0
  5 34  1  0  0  0  0
  6  7  2  0  0  0  0
  6  8  1  0  0  0  0
  8  9  1  0  0  0  0
  8 35  1  0  0  0  0
  9 14  1  0  0  0  0
  9 10  2  0  0  0  0
 10 11  1  0  0  0  0
 10 36  1  0  0  0  0
 11 12  2  0  0  0  0
 11 37  1  0  0  0  0
 12 13  1  0  0  0  0
 12 38  1  0  0  0  0
 13 14  2  0  0  0  0
 13 55  1  0  0  0  0
 14 15  1  0  0  0  0
 15 19  1  0  0  0  0
 15 16  1  0  0  0  0
 16 17  1  0  0  0  0
 16 39  1  0  0  0  0
 16 40  1  0  0  0  0
 17 18  1  0  0  0  0
 17 41  1  0  0  0  0
 17 42  1  0  0  0  0
 18 19  1  0  0  0  0
 18 43  1  0  0  0  0
 18 44  1  0  0  0  0
 19 45  1  0  0  0  0
 19 46  1  0  0  0  0
 20 25  1  0  0  0  0
 20 21  1  0  0  0  0
 21 22  1  0  0  0  0
 21 47  1  0  0  0  0
 21 48  1  0  0  0  0
 22 23  1  0  0  0  0
 22 49  1  0  0  0  0
 22 50  1  0  0  0  0
 23 24  1  0  0  0  0
 24 25  1  0  0  0  0
 24 51  1  0  0  0  0
 24 52  1  0  0  0  0
 25 53  1  0  0  0  0
 25 54  1  0  0  0  0
M  CHG  1  13   1
M  END
> <s_m_source_file>
AV-unprocessed.smi

> <i_m_source_file_index>
1794

> <i_lp_mmshare_version>
43012

> <i_f3d_flags>
0

> <s_epik_input>
W0NIMl0xW0NIMl1PW0NIMl1bQ0gyXU4xQyhbQ0gzXSkoW0NIM10pW0NIMl1bTkhdQyg9TylbTkhdYzJbY0hdW2NIXVtjSF1uYzJOM1tDSDJdW0NIMl1bQ0gyXVtDSDJdMw==

> <s_epik_cmdline>
J2VwaWtfcHl0aG9uJywgJy1waCcsICc3LjAnLCAnLXRuJywgJzgnLCAnLW1hJywgJzIwMCcsICctbWV0YWxfYmluZGluZycsICctaW1hZScsICc8aW5maWxlLm1hZT4nLCAnLW9tYWUnLCAnPG91dGZpbGUubWFlPic=

> <r_epik_Ionization_Penalty>
1.36967

> <r_epik_Ionization_Penalty_Charging>
1.10366

> <r_epik_Ionization_Penalty_Neutral>
0.266011

> <r_epik_State_Penalty>
1.45237

> <r_epik_Charging_Adjusted_Penalty>
2.55603

> <i_epik_Tot_Q>
1

> <i_epik_Tot_abs_Q>
1

> <r_epik_Metal_State_Penalty>
1.53539

> <b_epik_Metal_Only>
0

> <s_lp_Force_Field>
OPLS_2005

> <r_lp_Energy>
75.8074

> <b_lp_Chiralities_Consistent>
1

> <s_lp_Variant>
AV-unprocessed.smi:1794-3

> <Gold.Version>
5.8.1

> <Gold.Id.Protein>
6NUR|6NUR_protein|mol2

> <Gold.PLP.Fitness>
43.3186

> <Gold.PLP.PLP>
-37.1399

> <Gold.PLP.part.hbond>
-4.0000

> <Gold.PLP.part.metal>
0.0000

> <Gold.PLP.part.buried>
-2.3049

> <Gold.PLP.part.nonpolar>
-30.1986

> <Gold.PLP.part.repulsive>
0.1904

> <Gold.PLP.ligand.clash>
0.0000

> <Gold.PLP.ligand.torsion>
1.3800

> <Gold.PLP.Chemscore.Hbond>
2.9120

> <Gold.PLP.Chemscore.CHOScore>
0.0000

> <Gold.PLP.Chemscore.Metal>
0.0000

> <Gold.Chemscore.Hbonds>
donor molecule, donor type, donor heavy atom, donor atom, acceptor molecule, acceptor atom, score
      L1  H     5    34       P1  7948  1.00
      L1  H     8    35       P1  7948  0.93
      P1  H  7997  8009       L1    23  0.91

> <Gold.PLP.Chemscore.Internal.Correction>
0.2028

> <Gold.Rescore>
     Score         DG    S(hbond)    S(metal)    S(lipo)     H(rot)  DE(clash)    DE(int)     intcor
     16.25     -18.88       2.00        0.00      92.03       1.58       0.07       2.56       ----

> <Gold.Chemscore.Fitness>
16.2463

> <Gold.Chemscore.DG>
-18.8808

> <Gold.Chemscore.ZeroCoef>
-5.4800

> <Gold.Chemscore.Hbond>
1.9993

> <Gold.Chemscore.Metal>
0.0000

> <Gold.Chemscore.Lipo>
92.0350

> <Gold.Chemscore.Internal_Hbond>
0.0000

> <Gold.Chemscore.DEClash>
0.0700

> <Gold.Chemscore.DEInternal>
2.5645

> <Gold.Chemscore.Rot>
1.5800

> <Gold.Chemscore.Internal.Correction>
   9.000000E+99

> <Gold.Chemscore.Hbonds>
donor molecule, donor type, donor heavy atom, donor atom, acceptor molecule, acceptor atom, score
      L1  H     5    34       P1  7948  0.95
      L1  H     8    35       P1  7948  0.31
      P1  H  7997  8009       L1    23  0.42

> <Gold.Chemscore.Hbond.Weighted>
-6.6777

> <Gold.Chemscore.Metal.Weighted>
-0.0000

> <Gold.Chemscore.Lipo.Weighted>
-10.7681

> <Gold.Chemscore.Internal_Hbond.Weighted>
0.0000

> <Gold.Chemscore.DEClash.Weighted>
0.0700

> <Gold.Chemscore.DEInternal.Weighted>
2.5645

> <Gold.Chemscore.Rot.Weighted>
4.0449

> <Gold.Chemscore.Internal.Correction.Weighted>
   9.000000E+99

> <Gold.Protein.RotatedTorsions>
[ 6907 6896 6895 6894 ] final   -2.38 input  -60.11 | X-H torsion
[ 7974 7965 7964 7962 ] final -117.33 input  175.53 | X-H torsion
[ 8008 7997 7996 7995 ] final  166.33 input   59.86 | X-H torsion
[ 10167 10162 10161 10158 ] final -135.82 input  -65.29 | X-H torsion
[ 10718 10713 10712 10709 ] final   38.95 input   66.30 | X-H torsion
[ 10763 10752 10751 10750 ] final -132.51 input  -60.55 | X-H torsion
[ 11005 11000 10999 10996 ] final  -86.19 input  -57.11 | X-H torsion

> <Gold.Protein.ActiveResidues>
 VAL166  LYS551  ARG553  GLY616  TRP617  ASP618  TYR619  PRO620  LYS621  CYS622 
 ASP623  PHE694  ASN695  SER759  ASP760  ASP761  ALA762  ILE779  LEU786  VAL792 
 PHE793  MET794  SER795  GLU796  ALA797  LYS798  CYS799  TRP800  GLU811  SER814 

> <Gold.Protein.RotatedAtoms>
  151.5308  135.1068  159.9901 H   0  0  0  0  0  0  0  0  0  0  0  0  # atno 6907 bound_to 6896
  152.4579  133.7757  159.6834 H   0  0  0  0  0  0  0  0  0  0  0  0  # atno 6908 bound_to 6896
  150.8530  133.7693  159.3044 H   0  0  0  0  0  0  0  0  0  0  0  0  # atno 6909 bound_to 6896
  145.0864  140.8461  143.4008 H   0  0  0  0  0  0  0  0  0  0  0  0  # atno 7974 bound_to 7965
  156.1727  140.1646  156.8419 H   0  0  0  0  0  0  0  0  0  0  0  0  # atno 8008 bound_to 7997
  154.5274  140.0764  156.8317 H   0  0  0  0  0  0  0  0  0  0  0  0  # atno 8009 bound_to 7997
  155.3479  140.3388  155.4241 H   0  0  0  0  0  0  0  0  0  0  0  0  # atno 8010 bound_to 7997
  139.8740  143.6921  152.2636 H   0  0  0  0  0  0  0  0  0  0  0  0  # atno 10167 bound_to 10162
  157.3649  130.7669  149.7075 H   0  0  0  0  0  0  0  0  0  0  0  0  # atno 10718 bound_to 10713
  154.8742  135.3795  154.4422 H   0  0  0  0  0  0  0  0  0  0  0  0  # atno 10763 bound_to 10752
  153.5106  135.7029  153.5788 H   0  0  0  0  0  0  0  0  0  0  0  0  # atno 10764 bound_to 10752
  153.4079  135.3932  155.1997 H   0  0  0  0  0  0  0  0  0  0  0  0  # atno 10765 bound_to 10752
  141.1633  133.7441  156.9125 H   0  0  0  0  0  0  0  0  0  0  0  0  # atno 11005 bound_to 11000
  145.1117  139.2752  143.5634 LP  0  0  0  0  0  0  0  0  0  0  0  0  # atno 17320 bound_to 7965
  146.3531  140.0715  142.8623 LP  0  0  0  0  0  0  0  0  0  0  0  0  # atno 17321 bound_to 7965
  139.7257  144.7593  151.0883 LP  0  0  0  0  0  0  0  0  0  0  0  0  # atno 17342 bound_to 10162
  140.7756  143.5151  150.9604 LP  0  0  0  0  0  0  0  0  0  0  0  0  # atno 17343 bound_to 10162
  155.9744  130.4103  150.3925 LP  0  0  0  0  0  0  0  0  0  0  0  0  # atno 17370 bound_to 10713
  157.2007  131.0437  151.2652 LP  0  0  0  0  0  0  0  0  0  0  0  0  # atno 17371 bound_to 10713
  140.1507  134.9232  157.2589 LP  0  0  0  0  0  0  0  0  0  0  0  0  # atno 17394 bound_to 11000
  140.2726  134.3442  155.7368 LP  0  0  0  0  0  0  0  0  0  0  0  0  # atno 17395 bound_to 11000

$$$$
