AV-unprocessed.smi:1492|AV-procd|sdf|6040|dock1
  -GOLD-   22720 6143D 1   1.00000     0.00000
 Structure written by MMmdl.
 52 53  0  0  0  0  0  0  0  0  1 V2000
  145.3052  132.3587  157.9242 C   0  0  0  0  0  0  0  0  0  0  0  0
  146.5057  131.6427  158.5702 C   0  0  0  0  0  0  0  0  0  0  0  0
  147.5390  132.5433  159.3188 C   0  0  1  0  0  0  0  0  0  0  0  0
  148.7047  131.6511  159.8248 C   0  0  0  0  0  0  0  0  0  0  0  0
  148.1680  133.5464  158.3024 C   0  0  0  0  0  0  0  0  0  0  0  0
  148.5957  132.8705  157.0803 N   0  0  0  0  0  0  0  0  0  0  0  0
  149.7475  132.2077  156.9049 C   0  0  0  0  0  0  0  0  0  0  0  0
  150.6786  132.2219  157.7093 O   0  0  0  0  0  0  0  0  0  0  0  0
  149.8340  131.3578  155.6385 C   0  0  0  0  0  0  0  0  0  0  0  0
  149.0423  131.9138  154.4558 C   0  0  0  0  0  0  0  0  0  0  0  0
  149.1987  133.1802  153.9932 C   0  0  0  0  0  0  0  0  0  0  0  0
  150.1562  134.1979  154.5871 C   0  0  0  0  0  0  0  0  0  0  0  0
  148.4830  133.6369  152.9007 N   0  0  0  0  0  0  0  0  0  0  0  0
  147.6147  132.7549  152.2798 C   0  0  0  0  0  0  0  0  0  0  0  0
  146.9078  133.3428  151.0783 C   0  0  0  0  0  0  0  0  0  0  0  0
  147.3968  131.5285  152.6453 N   0  0  0  0  0  0  0  0  0  0  0  0
  148.0880  131.0204  153.7565 C   0  0  0  0  0  0  0  0  0  0  0  0
  147.9065  129.8599  154.1229 O   0  0  0  0  0  0  0  0  0  0  0  0
  146.9220  133.2748  160.4651 N   0  0  0  0  0  0  0  0  0  0  0  0
  146.1459  132.4434  161.3930 C   0  0  0  0  0  0  0  0  0  0  0  0
  145.4068  133.2906  162.4415 C   0  0  0  0  0  0  0  0  0  0  0  0
  146.3406  134.0922  163.1547 O   0  0  0  0  0  0  0  0  0  0  0  0
  147.0866  134.9506  162.3002 C   0  0  0  0  0  0  0  0  0  0  0  0
  147.8354  134.1167  161.2462 C   0  0  0  0  0  0  0  0  0  0  0  0
  148.6354  134.5840  152.5849 H   0  0  0  0  0  0  0  0  0  0  0  0
  144.6616  131.6357  157.4228 H   0  0  0  0  0  0  0  0  0  0  0  0
  145.6164  133.0830  157.1721 H   0  0  0  0  0  0  0  0  0  0  0  0
  144.6899  132.8737  158.6610 H   0  0  0  0  0  0  0  0  0  0  0  0
  146.1031  130.8951  159.2532 H   0  0  0  0  0  0  0  0  0  0  0  0
  147.0066  131.0823  157.7815 H   0  0  0  0  0  0  0  0  0  0  0  0
  149.3376  131.3015  159.0091 H   0  0  0  0  0  0  0  0  0  0  0  0
  148.3445  130.7602  160.3399 H   0  0  0  0  0  0  0  0  0  0  0  0
  149.3525  132.1913  160.5166 H   0  0  0  0  0  0  0  0  0  0  0  0
  147.4430  134.3025  158.0018 H   0  0  0  0  0  0  0  0  0  0  0  0
  148.9864  134.1041  158.7594 H   0  0  0  0  0  0  0  0  0  0  0  0
  147.9034  132.7966  156.3490 H   0  0  0  0  0  0  0  0  0  0  0  0
  150.8821  131.2231  155.3679 H   0  0  0  0  0  0  0  0  0  0  0  0
  149.4776  130.3544  155.8719 H   0  0  0  0  0  0  0  0  0  0  0  0
  151.1789  133.8220  154.5533 H   0  0  0  0  0  0  0  0  0  0  0  0
  149.8971  134.4066  155.6251 H   0  0  0  0  0  0  0  0  0  0  0  0
  150.1300  135.1412  154.0403 H   0  0  0  0  0  0  0  0  0  0  0  0
  146.2061  132.6262  150.6498 H   0  0  0  0  0  0  0  0  0  0  0  0
  147.6312  133.6134  150.3087 H   0  0  0  0  0  0  0  0  0  0  0  0
  146.3514  134.2364  151.3629 H   0  0  0  0  0  0  0  0  0  0  0  0
  145.4065  131.8468  160.8631 H   0  0  0  0  0  0  0  0  0  0  0  0
  146.8014  131.7439  161.9119 H   0  0  0  0  0  0  0  0  0  0  0  0
  144.6598  133.9257  161.9660 H   0  0  0  0  0  0  0  0  0  0  0  0
  144.8781  132.6476  163.1451 H   0  0  0  0  0  0  0  0  0  0  0  0
  146.4191  135.6669  161.8200 H   0  0  0  0  0  0  0  0  0  0  0  0
  147.7920  135.5249  162.9006 H   0  0  0  0  0  0  0  0  0  0  0  0
  148.5811  133.5017  161.7497 H   0  0  0  0  0  0  0  0  0  0  0  0
  148.3765  134.8083  160.6030 H   0  0  0  0  0  0  0  0  0  0  0  0
  1  2  1  0  0  0  0
  1 26  1  0  0  0  0
  1 27  1  0  0  0  0
  1 28  1  0  0  0  0
  2  3  1  0  0  0  0
  2 29  1  0  0  0  0
  2 30  1  0  0  0  0
  3  4  1  0  0  0  0
  3  5  1  0  0  0  0
  3 19  1  0  0  0  0
  4 31  1  0  0  0  0
  4 32  1  0  0  0  0
  4 33  1  0  0  0  0
  5  6  1  0  0  0  0
  5 34  1  0  0  0  0
  5 35  1  0  0  0  0
  6  7  1  0  0  0  0
  6 36  1  0  0  0  0
  7  8  2  0  0  0  0
  7  9  1  0  0  0  0
  9 37  1  0  0  0  0
  9 38  1  0  0  0  0
  9 10  1  0  0  0  0
 10 17  1  0  0  0  0
 10 11  2  0  0  0  0
 11 12  1  0  0  0  0
 11 13  1  0  0  0  0
 12 39  1  0  0  0  0
 12 40  1  0  0  0  0
 12 41  1  0  0  0  0
 13 25  1  0  0  0  0
 13 14  1  0  0  0  0
 14 15  1  0  0  0  0
 14 16  2  0  0  0  0
 15 42  1  0  0  0  0
 15 43  1  0  0  0  0
 15 44  1  0  0  0  0
 16 17  1  0  0  0  0
 17 18  2  0  0  0  0
 19 24  1  0  0  0  0
 19 20  1  0  0  0  0
 20 21  1  0  0  0  0
 20 45  1  0  0  0  0
 20 46  1  0  0  0  0
 21 22  1  0  0  0  0
 21 47  1  0  0  0  0
 21 48  1  0  0  0  0
 22 23  1  0  0  0  0
 23 24  1  0  0  0  0
 23 49  1  0  0  0  0
 23 50  1  0  0  0  0
 24 51  1  0  0  0  0
 24 52  1  0  0  0  0
M  END
> <s_m_source_file>
AV-unprocessed.smi

> <i_m_source_file_index>
1492

> <i_lp_mmshare_version>
43012

> <i_f3d_flags>
0

> <s_epik_input>
W0NIMl0xW0NIMl1PW0NIMl1bQ0gyXU4xW0NAQF0oW0NIM10pKFtDSDJdW0NIM10pW0NIMl1bTkhdQyg9TylbQ0gyXWMyYyhbQ0gzXSluYyhbQ0gzXSlbbkhdYzI9Tw==

> <s_epik_cmdline>
J2VwaWtfcHl0aG9uJywgJy1waCcsICc3LjAnLCAnLXRuJywgJzgnLCAnLW1hJywgJzIwMCcsICctbWV0YWxfYmluZGluZycsICctaW1hZScsICc8aW5maWxlLm1hZT4nLCAnLW9tYWUnLCAnPG91dGZpbGUubWFlPic=

> <r_lp_tautomer_probability>
0.156392

> <r_epik_Ionization_Penalty>
0.342516

> <r_epik_Ionization_Penalty_Charging>
0.0141408

> <r_epik_Ionization_Penalty_Neutral>
0.328375

> <r_epik_State_Penalty>
1.47662

> <r_epik_Charging_Adjusted_Penalty>
1.49076

> <i_epik_Tot_Q>
0

> <i_epik_Tot_abs_Q>
0

> <r_epik_Metal_State_Penalty>
1.65506

> <b_epik_Metal_Only>
0

> <s_lp_Force_Field>
OPLS_2005

> <r_lp_Energy>
46.8903

> <b_lp_Chiralities_Consistent>
1

> <s_lp_Variant>
AV-unprocessed.smi:1492-5

> <Gold.Version>
5.8.1

> <Gold.Id.Protein>
6NUR|6NUR_protein|mol2

> <Gold.PLP.Fitness>
38.0004

> <Gold.PLP.PLP>
-33.3131

> <Gold.PLP.part.hbond>
-3.0000

> <Gold.PLP.part.metal>
0.0000

> <Gold.PLP.part.buried>
-4.0271

> <Gold.PLP.part.nonpolar>
-26.7208

> <Gold.PLP.part.repulsive>
0.5740

> <Gold.PLP.ligand.clash>
0.0000

> <Gold.PLP.ligand.torsion>
0.7371

> <Gold.PLP.Chemscore.Hbond>
2.0000

> <Gold.PLP.Chemscore.CHOScore>
0.0000

> <Gold.PLP.Chemscore.Metal>
0.0000

> <Gold.Chemscore.Hbonds>
donor molecule, donor type, donor heavy atom, donor atom, acceptor molecule, acceptor atom, score
      L1  H    13    25       P1  7948  0.65
      P1  H  6896  6909       L1     8  1.00

> <Gold.PLP.Chemscore.Internal.Correction>
0.1615

> <Gold.Rescore>
     Score         DG    S(hbond)    S(metal)    S(lipo)     H(rot)  DE(clash)    DE(int)     intcor
     10.85     -11.47       1.00        0.00      69.00       2.12       0.00       0.61       ----

> <Gold.Chemscore.Fitness>
10.8547

> <Gold.Chemscore.DG>
-11.4662

> <Gold.Chemscore.ZeroCoef>
-5.4800

> <Gold.Chemscore.Hbond>
0.9967

> <Gold.Chemscore.Metal>
0.0000

> <Gold.Chemscore.Lipo>
69.0010

> <Gold.Chemscore.Internal_Hbond>
0.0000

> <Gold.Chemscore.DEClash>
0.0023

> <Gold.Chemscore.DEInternal>
0.6092

> <Gold.Chemscore.Rot>
2.1155

> <Gold.Chemscore.Internal.Correction>
   9.000000E+99

> <Gold.Chemscore.Hbonds>
donor molecule, donor type, donor heavy atom, donor atom, acceptor molecule, acceptor atom, score
      L1  H    13    25       P1  7948  0.06
      P1  H  6896  6909       L1     8  0.95

> <Gold.Chemscore.Hbond.Weighted>
-3.3288

> <Gold.Chemscore.Metal.Weighted>
-0.0000

> <Gold.Chemscore.Lipo.Weighted>
-8.0731

> <Gold.Chemscore.Internal_Hbond.Weighted>
0.0000

> <Gold.Chemscore.DEClash.Weighted>
0.0023

> <Gold.Chemscore.DEInternal.Weighted>
0.6092

> <Gold.Chemscore.Rot.Weighted>
5.4157

> <Gold.Chemscore.Internal.Correction.Weighted>
   9.000000E+99

> <Gold.Protein.RotatedTorsions>
[ 6907 6896 6895 6894 ] final  -22.17 input  -60.11 | X-H torsion
[ 7974 7965 7964 7962 ] final    9.95 input  175.53 | X-H torsion
[ 8008 7997 7996 7995 ] final   61.50 input   59.86 | X-H torsion
[ 10167 10162 10161 10158 ] final  -80.57 input  -65.29 | X-H torsion
[ 10718 10713 10712 10709 ] final  126.81 input   66.30 | X-H torsion
[ 10763 10752 10751 10750 ] final  179.73 input  -60.55 | X-H torsion
[ 11005 11000 10999 10996 ] final -126.78 input  -57.11 | X-H torsion

> <Gold.Protein.ActiveResidues>
 VAL166  LYS551  ARG553  GLY616  TRP617  ASP618  TYR619  PRO620  LYS621  CYS622 
 ASP623  PHE694  ASN695  SER759  ASP760  ASP761  ALA762  ILE779  LEU786  VAL792 
 PHE793  MET794  SER795  GLU796  ALA797  LYS798  CYS799  TRP800  GLU811  SER814 

> <Gold.Protein.RotatedAtoms>
  151.2226  135.0524  159.8955 H   0  0  0  0  0  0  0  0  0  0  0  0  # atno 6907 bound_to 6896
  152.5414  134.0624  159.8168 H   0  0  0  0  0  0  0  0  0  0  0  0  # atno 6908 bound_to 6896
  151.0792  133.5355  159.2653 H   0  0  0  0  0  0  0  0  0  0  0  0  # atno 6909 bound_to 6896
  146.2396  139.9707  142.8447 H   0  0  0  0  0  0  0  0  0  0  0  0  # atno 7974 bound_to 7965
  155.5993  140.3494  155.4589 H   0  0  0  0  0  0  0  0  0  0  0  0  # atno 8008 bound_to 7997
  156.0240  140.1260  157.0352 H   0  0  0  0  0  0  0  0  0  0  0  0  # atno 8009 bound_to 7997
  154.4326  140.1056  156.5991 H   0  0  0  0  0  0  0  0  0  0  0  0  # atno 8010 bound_to 7997
  140.4491  143.2489  151.8516 H   0  0  0  0  0  0  0  0  0  0  0  0  # atno 10167 bound_to 10162
  157.5387  131.1097  150.8894 H   0  0  0  0  0  0  0  0  0  0  0  0  # atno 10718 bound_to 10713
  154.5245  135.2796  155.1234 H   0  0  0  0  0  0  0  0  0  0  0  0  # atno 10763 bound_to 10752
  154.2779  135.6291  153.5339 H   0  0  0  0  0  0  0  0  0  0  0  0  # atno 10764 bound_to 10752
  152.9943  135.5644  154.5742 H   0  0  0  0  0  0  0  0  0  0  0  0  # atno 10765 bound_to 10752
  140.9653  134.0880  157.3926 H   0  0  0  0  0  0  0  0  0  0  0  0  # atno 11005 bound_to 11000
  145.1683  140.9708  143.4336 LP  0  0  0  0  0  0  0  0  0  0  0  0  # atno 17320 bound_to 7965
  145.0052  139.3561  143.6148 LP  0  0  0  0  0  0  0  0  0  0  0  0  # atno 17321 bound_to 7965
  139.4795  144.5141  151.8892 LP  0  0  0  0  0  0  0  0  0  0  0  0  # atno 17342 bound_to 10162
  140.4229  144.2219  150.5887 LP  0  0  0  0  0  0  0  0  0  0  0  0  # atno 17343 bound_to 10162
  156.9453  130.5399  149.5281 LP  0  0  0  0  0  0  0  0  0  0  0  0  # atno 17370 bound_to 10713
  156.0479  130.5553  150.8923 LP  0  0  0  0  0  0  0  0  0  0  0  0  # atno 17371 bound_to 10713
  139.8892  135.0103  156.6667 LP  0  0  0  0  0  0  0  0  0  0  0  0  # atno 17394 bound_to 11000
  140.7408  133.8979  155.8277 LP  0  0  0  0  0  0  0  0  0  0  0  0  # atno 17395 bound_to 11000

$$$$
