AV-unprocessed.smi:35|AV-procd|sdf|256|dock3
  -GOLD-   2262016 13D 1   1.00000     0.00000
 Structure written by MMmdl.
 29 30  0  0  0  0  0  0  0  0  1 V2000
  146.1734  131.0758  148.5718 O   0  0  0  0  0  0  0  0  0  0  0  0
  145.8734  131.8194  149.5033 C   0  0  0  0  0  0  0  0  0  0  0  0
  146.7015  131.9172  150.6240 N   0  0  0  0  0  0  0  0  0  0  0  0
  146.4621  132.7168  151.7432 C   0  0  0  0  0  0  0  0  0  0  0  0
  147.2911  132.7566  152.6510 O   0  0  0  0  0  0  0  0  0  0  0  0
  145.2575  133.4595  151.7687 N   0  0  0  0  0  0  0  0  0  0  0  0
  144.9801  134.3728  152.9536 C   0  0  1  0  0  0  0  0  0  0  0  0
  145.9912  135.3386  153.0434 O   0  0  0  0  0  0  0  0  0  0  0  0
  145.5456  136.6148  152.5867 C   0  0  1  0  0  0  0  0  0  0  0  0
  145.7608  136.7651  151.0622 C   0  0  0  0  0  0  0  0  0  0  0  0
  146.4604  137.9606  150.7906 O   0  0  0  0  0  0  0  0  0  0  0  0
  144.0817  136.5974  153.0393 C   0  0  1  0  0  0  0  0  0  0  0  0
  143.2671  137.5097  152.3290 O   0  0  0  0  0  0  0  0  0  0  0  0
  143.6510  135.1549  152.8070 C   0  0  2  0  0  0  0  0  0  0  0  0
  142.7047  134.7843  153.7904 O   0  0  0  0  0  0  0  0  0  0  0  0
  144.4378  133.4403  150.6439 C   0  0  0  0  0  0  0  0  0  0  0  0
  144.6891  132.6673  149.5617 C   0  0  0  0  0  0  0  0  0  0  0  0
  143.3831  132.7738  148.0759 Br  0  0  0  0  0  0  0  0  0  0  0  0
  147.5522  131.3733  150.6172 H   0  0  0  0  0  0  0  0  0  0  0  0
  145.0244  133.7149  153.8236 H   0  0  0  0  0  0  0  0  0  0  0  0
  146.0856  137.4070  153.1071 H   0  0  0  0  0  0  0  0  0  0  0  0
  146.2746  135.9113  150.6231 H   0  0  0  0  0  0  0  0  0  0  0  0
  144.8037  136.8493  150.5481 H   0  0  0  0  0  0  0  0  0  0  0  0
  145.8882  138.5419  150.3132 H   0  0  0  0  0  0  0  0  0  0  0  0
  144.0450  136.8371  154.1037 H   0  0  0  0  0  0  0  0  0  0  0  0
  143.6136  138.3797  152.4573 H   0  0  0  0  0  0  0  0  0  0  0  0
  143.2453  135.0318  151.8014 H   0  0  0  0  0  0  0  0  0  0  0  0
  142.9150  133.9130  154.0918 H   0  0  0  0  0  0  0  0  0  0  0  0
  143.5556  134.0606  150.6031 H   0  0  0  0  0  0  0  0  0  0  0  0
  1  2  2  0  0  0  0
  2 17  1  0  0  0  0
  2  3  1  0  0  0  0
  3 19  1  0  0  0  0
  3  4  1  0  0  0  0
  4  5  2  0  0  0  0
  4  6  1  0  0  0  0
  6  7  1  0  0  0  0
  6 16  1  0  0  0  0
  7 14  1  0  0  0  0
  7  8  1  0  0  0  0
  7 20  1  0  0  0  0
  8  9  1  0  0  0  0
  9 10  1  0  0  0  0
  9 12  1  0  0  0  0
  9 21  1  0  0  0  0
 10 11  1  0  0  0  0
 10 22  1  0  0  0  0
 10 23  1  0  0  0  0
 11 24  1  0  0  0  0
 12 13  1  0  0  0  0
 12 14  1  0  0  0  0
 12 25  1  0  0  0  0
 13 26  1  0  0  0  0
 14 15  1  0  0  0  0
 14 27  1  0  0  0  0
 15 28  1  0  0  0  0
 16 17  2  0  0  0  0
 16 29  1  0  0  0  0
 17 18  1  0  0  0  0
M  END
> <s_m_source_file>
AV-unprocessed.smi

> <i_m_source_file_index>
35

> <i_lp_mmshare_version>
43012

> <i_f3d_flags>
0

> <s_epik_input>
Tz1jMVtuSF1jKD1PKW4oW2NIXWMxQnIpW0NAQEhdMk9bQ0BASF0oW0NIMl1bT0hdKVtDQEBIXShbT0hdKVtDQEhdMltPSF0=

> <s_epik_cmdline>
J2VwaWtfcHl0aG9uJywgJy1waCcsICc3LjAnLCAnLXRuJywgJzgnLCAnLW1hJywgJzIwMCcsICctbWV0YWxfYmluZGluZycsICctaW1hZScsICc8aW5maWxlLm1hZT4nLCAnLW9tYWUnLCAnPG91dGZpbGUubWFlPic=

> <r_lp_tautomer_probability>
0.999537

> <r_epik_Ionization_Penalty>
0.10812

> <r_epik_Ionization_Penalty_Charging>
0.108119

> <r_epik_Ionization_Penalty_Neutral>
4.93006e-07

> <r_epik_State_Penalty>
0.0979238

> <r_epik_Charging_Adjusted_Penalty>
0.206043

> <i_epik_Tot_Q>
0

> <i_epik_Tot_abs_Q>
0

> <r_epik_Metal_State_Penalty>
3.07911

> <b_epik_Metal_Only>
0

> <s_epik_Chemistry_Notes>
This compound contains an acetal/aminal-like group ( X-CH(R)-Y where X, Y are N, S, or O) that may be acid/base labile, releasing an aldehyde.

> <s_lp_Force_Field>
OPLS_2005

> <r_lp_Energy>
30.5173

> <b_lp_Chiralities_Consistent>
1

> <s_lp_Variant>
AV-unprocessed.smi:35-10

> <Gold.Version>
5.8.1

> <Gold.Id.Protein>
6NUR|6NUR_protein|mol2

> <Gold.PLP.Fitness>
41.8973

> <Gold.PLP.PLP>
-29.8700

> <Gold.PLP.part.hbond>
-7.1845

> <Gold.PLP.part.metal>
0.0000

> <Gold.PLP.part.buried>
-0.7792

> <Gold.PLP.part.nonpolar>
-23.9601

> <Gold.PLP.part.repulsive>
0.5455

> <Gold.PLP.ligand.clash>
0.0000

> <Gold.PLP.ligand.torsion>
0.7723

> <Gold.PLP.Chemscore.Hbond>
4.1425

> <Gold.PLP.Chemscore.CHOScore>
0.3597

> <Gold.PLP.Chemscore.Metal>
0.0000

> <Gold.Chemscore.Hbonds>
donor molecule, donor type, donor heavy atom, donor atom, acceptor molecule, acceptor atom, score
      L1  H     3    19       P1 10747  1.00
      L1  H    11    24       P1 10171  0.71
      L1  H    13    26       P1 10175  0.94
      L1  H    15    28       P1 10957  0.41
      P1  H  7954  7966       L1    11  1.00
      L1  C    16    29       P1 10186  0.38

> <Gold.PLP.Chemscore.Internal.Correction>
0.0653

> <Gold.Rescore>
     Score         DG    S(hbond)    S(metal)    S(lipo)     H(rot)  DE(clash)    DE(int)     intcor
     10.90     -15.00       3.84        0.00      52.01       3.67       2.12       1.97       ----

> <Gold.Chemscore.Fitness>
10.9037

> <Gold.Chemscore.DG>
-14.9987

> <Gold.Chemscore.ZeroCoef>
-5.4800

> <Gold.Chemscore.Hbond>
3.8411

> <Gold.Chemscore.Metal>
0.0000

> <Gold.Chemscore.Lipo>
52.0062

> <Gold.Chemscore.Internal_Hbond>
0.0000

> <Gold.Chemscore.DEClash>
2.1224

> <Gold.Chemscore.DEInternal>
1.9726

> <Gold.Chemscore.Rot>
3.6701

> <Gold.Chemscore.Internal.Correction>
   9.000000E+99

> <Gold.Chemscore.Hbonds>
donor molecule, donor type, donor heavy atom, donor atom, acceptor molecule, acceptor atom, score
      L1  H     3    19       P1 10747  0.95
      L1  H    11    24       P1 10171  0.68
      L1  H    13    26       P1 10175  0.89
      L1  H    15    28       P1 10957  0.41
      P1  H  7954  7966       L1    11  0.66

> <Gold.Chemscore.Hbond.Weighted>
-12.8294

> <Gold.Chemscore.Metal.Weighted>
-0.0000

> <Gold.Chemscore.Lipo.Weighted>
-6.0847

> <Gold.Chemscore.Internal_Hbond.Weighted>
0.0000

> <Gold.Chemscore.DEClash.Weighted>
2.1224

> <Gold.Chemscore.DEInternal.Weighted>
1.9726

> <Gold.Chemscore.Rot.Weighted>
9.3955

> <Gold.Chemscore.Internal.Correction.Weighted>
   9.000000E+99

> <Gold.Protein.RotatedTorsions>
[ 6907 6896 6895 6894 ] final   22.76 input  -60.11 | X-H torsion
[ 7974 7965 7964 7962 ] final -144.60 input  175.53 | X-H torsion
[ 8008 7997 7996 7995 ] final  -77.16 input   59.86 | X-H torsion
[ 10167 10162 10161 10158 ] final  171.13 input  -65.29 | X-H torsion
[ 10718 10713 10712 10709 ] final   37.40 input   66.30 | X-H torsion
[ 10763 10752 10751 10750 ] final   25.10 input  -60.55 | X-H torsion
[ 11005 11000 10999 10996 ] final  -27.35 input  -57.11 | X-H torsion

> <Gold.Protein.ActiveResidues>
 VAL166  LYS551  ARG553  GLY616  TRP617  ASP618  TYR619  PRO620  LYS621  CYS622 
 ASP623  PHE694  ASN695  SER759  ASP760  ASP761  ALA762  ILE779  LEU786  VAL792 
 PHE793  MET794  SER795  GLU796  ALA797  LYS798  CYS799  TRP800  GLU811  SER814 

> <Gold.Protein.RotatedAtoms>
  151.9320  135.0252  160.0529 H   0  0  0  0  0  0  0  0  0  0  0  0  # atno 6907 bound_to 6896
  152.2110  133.4907  159.5118 H   0  0  0  0  0  0  0  0  0  0  0  0  # atno 6908 bound_to 6896
  150.6976  134.1383  159.4138 H   0  0  0  0  0  0  0  0  0  0  0  0  # atno 6909 bound_to 6896
  144.8286  140.5690  143.5530 H   0  0  0  0  0  0  0  0  0  0  0  0  # atno 7974 bound_to 7965
  154.5570  140.0715  156.8760 H   0  0  0  0  0  0  0  0  0  0  0  0  # atno 8008 bound_to 7997
  155.2883  140.3376  155.4236 H   0  0  0  0  0  0  0  0  0  0  0  0  # atno 8009 bound_to 7997
  156.2011  140.1722  156.7884 H   0  0  0  0  0  0  0  0  0  0  0  0  # atno 8010 bound_to 7997
  139.5038  144.3520  151.9912 H   0  0  0  0  0  0  0  0  0  0  0  0  # atno 10167 bound_to 10162
  157.3465  130.7576  149.6948 H   0  0  0  0  0  0  0  0  0  0  0  0  # atno 10718 bound_to 10713
  153.0716  135.6590  154.0235 H   0  0  0  0  0  0  0  0  0  0  0  0  # atno 10763 bound_to 10752
  153.9879  135.2949  155.3416 H   0  0  0  0  0  0  0  0  0  0  0  0  # atno 10764 bound_to 10752
  154.7092  135.5212  153.8711 H   0  0  0  0  0  0  0  0  0  0  0  0  # atno 10765 bound_to 10752
  140.9111  133.7460  156.0672 H   0  0  0  0  0  0  0  0  0  0  0  0  # atno 11005 bound_to 11000
  145.4945  139.1486  143.3691 LP  0  0  0  0  0  0  0  0  0  0  0  0  # atno 17320 bound_to 7965
  146.2590  140.5084  142.8861 LP  0  0  0  0  0  0  0  0  0  0  0  0  # atno 17321 bound_to 7965
  140.2957  144.3703  150.6075 LP  0  0  0  0  0  0  0  0  0  0  0  0  # atno 17342 bound_to 10162
  140.5912  143.2168  151.7249 LP  0  0  0  0  0  0  0  0  0  0  0  0  # atno 17343 bound_to 10162
  155.9715  130.4152  150.4173 LP  0  0  0  0  0  0  0  0  0  0  0  0  # atno 17370 bound_to 10713
  157.2229  131.0486  151.2536 LP  0  0  0  0  0  0  0  0  0  0  0  0  # atno 17371 bound_to 10713
  140.8109  134.3401  157.5412 LP  0  0  0  0  0  0  0  0  0  0  0  0  # atno 17394 bound_to 11000
  139.8758  134.9253  156.3371 LP  0  0  0  0  0  0  0  0  0  0  0  0  # atno 17395 bound_to 11000

$$$$
