AV-unprocessed.smi:2158|AV-procd|sdf|8788|dock9
  -GOLD-   2272011563D 1   1.00000     0.00000
 Structure written by MMmdl.
 31 31  0  0  0  0  0  0  0  0  1 V2000
  143.8989  132.5764  150.1904 C   0  0  0  0  0  0  0  0  0  0  0  0
  145.4203  132.4321  150.3420 C   0  0  0  0  0  0  0  0  0  0  0  0
  145.8667  131.8790  151.7105 C   0  0  1  0  0  0  0  0  0  0  0  0
  145.6034  130.3709  151.8230 C   0  0  0  0  0  0  0  0  0  0  0  0
  147.2888  132.1325  151.9379 N   0  0  0  0  0  0  0  0  0  0  0  0
  147.8090  132.8733  152.9296 C   0  0  0  0  0  0  0  0  0  0  0  0
  147.1229  133.4567  153.7702 O   0  0  0  0  0  0  0  0  0  0  0  0
  149.3404  132.9855  152.9499 C   0  0  0  0  0  0  0  0  0  0  0  0
  149.9299  132.6359  154.2508 N   0  0  0  0  0  0  0  0  0  0  0  0
  150.5158  133.6156  155.0398 C   0  0  0  0  0  0  0  0  0  0  0  0
  151.0690  133.3661  156.2503 C   0  0  0  0  0  0  0  0  0  0  0  0
  151.0726  132.0130  156.7960 C   0  0  0  0  0  0  0  0  0  0  0  0
  151.5513  131.6866  157.8797 O   0  0  0  0  0  0  0  0  0  0  0  0
  150.4699  131.0564  155.9748 N   0  0  0  0  0  0  0  0  0  0  0  0
  149.8965  131.3071  154.7271 C   0  0  0  0  0  0  0  0  0  0  0  0
  149.3864  130.3895  154.0854 O   0  0  0  0  0  0  0  0  0  0  0  0
  150.4438  130.1053  156.3126 H   0  0  0  0  0  0  0  0  0  0  0  0
  143.6402  132.9053  149.1839 H   0  0  0  0  0  0  0  0  0  0  0  0
  143.4934  133.3094  150.8880 H   0  0  0  0  0  0  0  0  0  0  0  0
  143.3938  131.6270  150.3701 H   0  0  0  0  0  0  0  0  0  0  0  0
  145.7820  131.7678  149.5565 H   0  0  0  0  0  0  0  0  0  0  0  0
  145.8933  133.3980  150.1610 H   0  0  0  0  0  0  0  0  0  0  0  0
  145.2721  132.3667  152.4849 H   0  0  0  0  0  0  0  0  0  0  0  0
  144.5444  130.1466  151.6912 H   0  0  0  0  0  0  0  0  0  0  0  0
  145.8989  129.9928  152.8023 H   0  0  0  0  0  0  0  0  0  0  0  0
  146.1579  129.8121  151.0685 H   0  0  0  0  0  0  0  0  0  0  0  0
  147.9317  131.7012  151.2895 H   0  0  0  0  0  0  0  0  0  0  0  0
  149.7649  132.3568  152.1644 H   0  0  0  0  0  0  0  0  0  0  0  0
  149.6091  134.0071  152.6770 H   0  0  0  0  0  0  0  0  0  0  0  0
  150.5320  134.6339  154.6776 H   0  0  0  0  0  0  0  0  0  0  0  0
  151.5104  134.1722  156.8183 H   0  0  0  0  0  0  0  0  0  0  0  0
  1  2  1  0  0  0  0
  1 18  1  0  0  0  0
  1 19  1  0  0  0  0
  1 20  1  0  0  0  0
  2  3  1  0  0  0  0
  2 21  1  0  0  0  0
  2 22  1  0  0  0  0
  3  4  1  0  0  0  0
  3  5  1  0  0  0  0
  3 23  1  0  0  0  0
  4 24  1  0  0  0  0
  4 25  1  0  0  0  0
  4 26  1  0  0  0  0
  5  6  1  0  0  0  0
  5 27  1  0  0  0  0
  6  7  2  0  0  0  0
  6  8  1  0  0  0  0
  8  9  1  0  0  0  0
  8 28  1  0  0  0  0
  8 29  1  0  0  0  0
  9 15  1  0  0  0  0
  9 10  1  0  0  0  0
 10 11  2  0  0  0  0
 10 30  1  0  0  0  0
 11 12  1  0  0  0  0
 11 31  1  0  0  0  0
 12 13  2  0  0  0  0
 12 14  1  0  0  0  0
 14 17  1  0  0  0  0
 14 15  1  0  0  0  0
 15 16  2  0  0  0  0
M  END
> <s_m_source_file>
AV-unprocessed.smi

> <i_m_source_file_index>
2158

> <i_lp_mmshare_version>
43012

> <i_f3d_flags>
0

> <s_epik_input>
W0NIM11bQ0gyXVtDQEhdKFtDSDNdKVtOSF1DKD1PKVtDSDJdbjFbY0hdW2NIXWMoPU8pW25IXWMxPU8=

> <s_epik_cmdline>
J2VwaWtfcHl0aG9uJywgJy1waCcsICc3LjAnLCAnLXRuJywgJzgnLCAnLW1hJywgJzIwMCcsICctbWV0YWxfYmluZGluZycsICctaW1hZScsICc8aW5maWxlLm1hZT4nLCAnLW9tYWUnLCAnPG91dGZpbGUubWFlPic=

> <r_lp_tautomer_probability>
0.999537

> <r_epik_Ionization_Penalty>
0.00326083

> <r_epik_Ionization_Penalty_Charging>
0.00326081

> <r_epik_Ionization_Penalty_Neutral>
1.93017e-08

> <r_epik_State_Penalty>
0.00230249

> <r_epik_Charging_Adjusted_Penalty>
0.0055633

> <i_epik_Tot_Q>
0

> <i_epik_Tot_abs_Q>
0

> <r_epik_Metal_State_Penalty>
0.364899

> <b_epik_Metal_Only>
0

> <s_lp_Force_Field>
OPLS_2005

> <r_lp_Energy>
2.92089

> <b_lp_Chiralities_Consistent>
1

> <s_lp_Variant>
AV-unprocessed.smi:2158-2

> <Gold.Version>
5.8.1

> <Gold.Id.Protein>
6NUR|6NUR_protein|mol2

> <Gold.PLP.Fitness>
36.0906

> <Gold.PLP.PLP>
-30.5704

> <Gold.PLP.part.hbond>
-2.0000

> <Gold.PLP.part.metal>
0.0000

> <Gold.PLP.part.buried>
-5.4808

> <Gold.PLP.part.nonpolar>
-23.8138

> <Gold.PLP.part.repulsive>
0.1780

> <Gold.PLP.ligand.clash>
0.0000

> <Gold.PLP.ligand.torsion>
0.2480

> <Gold.PLP.Chemscore.Hbond>
2.0000

> <Gold.PLP.Chemscore.CHOScore>
0.0000

> <Gold.PLP.Chemscore.Metal>
0.0000

> <Gold.Chemscore.Hbonds>
donor molecule, donor type, donor heavy atom, donor atom, acceptor molecule, acceptor atom, score
      L1  H     5    27       P1 10747  1.00
      P1  H  6896  6908       L1    13  0.81

> <Gold.PLP.Chemscore.Internal.Correction>
0.0162

> <Gold.Rescore>
     Score         DG    S(hbond)    S(metal)    S(lipo)     H(rot)  DE(clash)    DE(int)     intcor
     13.34     -13.90       1.99        0.00      58.72       1.99       0.13       0.43       ----

> <Gold.Chemscore.Fitness>
13.3403

> <Gold.Chemscore.DG>
-13.9029

> <Gold.Chemscore.ZeroCoef>
-5.4800

> <Gold.Chemscore.Hbond>
1.9905

> <Gold.Chemscore.Metal>
0.0000

> <Gold.Chemscore.Lipo>
58.7183

> <Gold.Chemscore.Internal_Hbond>
0.0000

> <Gold.Chemscore.DEClash>
0.1343

> <Gold.Chemscore.DEInternal>
0.4284

> <Gold.Chemscore.Rot>
1.9904

> <Gold.Chemscore.Internal.Correction>
   9.000000E+99

> <Gold.Chemscore.Hbonds>
donor molecule, donor type, donor heavy atom, donor atom, acceptor molecule, acceptor atom, score
      L1  H     5    27       P1 10747  1.00
      P1  H  6896  6908       L1    13  0.65

> <Gold.Chemscore.Hbond.Weighted>
-6.6484

> <Gold.Chemscore.Metal.Weighted>
-0.0000

> <Gold.Chemscore.Lipo.Weighted>
-6.8700

> <Gold.Chemscore.Internal_Hbond.Weighted>
0.0000

> <Gold.Chemscore.DEClash.Weighted>
0.1343

> <Gold.Chemscore.DEInternal.Weighted>
0.4284

> <Gold.Chemscore.Rot.Weighted>
5.0955

> <Gold.Chemscore.Internal.Correction.Weighted>
   9.000000E+99

> <Gold.Protein.RotatedTorsions>
[ 6907 6896 6895 6894 ] final   66.60 input  -60.11 | X-H torsion
[ 7974 7965 7964 7962 ] final  177.92 input  175.53 | X-H torsion
[ 8008 7997 7996 7995 ] final   58.64 input   59.86 | X-H torsion
[ 10167 10162 10161 10158 ] final  127.92 input  -65.29 | X-H torsion
[ 10718 10713 10712 10709 ] final  160.77 input   66.30 | X-H torsion
[ 10763 10752 10751 10750 ] final  121.42 input  -60.55 | X-H torsion
[ 11005 11000 10999 10996 ] final  -78.14 input  -57.11 | X-H torsion

> <Gold.Protein.ActiveResidues>
 VAL166  LYS551  ARG553  GLY616  TRP617  ASP618  TYR619  PRO620  LYS621  CYS622 
 ASP623  PHE694  ASN695  SER759  ASP760  ASP761  ALA762  ILE779  LEU786  VAL792 
 PHE793  MET794  SER795  GLU796  ALA797  LYS798  CYS799  TRP800  GLU811  SER814 

> <Gold.Protein.RotatedAtoms>
  152.4492  134.5429  159.9844 H   0  0  0  0  0  0  0  0  0  0  0  0  # atno 6907 bound_to 6896
  151.5506  133.3412  159.2960 H   0  0  0  0  0  0  0  0  0  0  0  0  # atno 6908 bound_to 6896
  150.8417  134.7743  159.7001 H   0  0  0  0  0  0  0  0  0  0  0  0  # atno 6909 bound_to 6896
  144.7162  140.0319  143.6439 H   0  0  0  0  0  0  0  0  0  0  0  0  # atno 7974 bound_to 7965
  155.5533  140.3487  155.4473 H   0  0  0  0  0  0  0  0  0  0  0  0  # atno 8008 bound_to 7997
  156.0567  140.1330  157.0014 H   0  0  0  0  0  0  0  0  0  0  0  0  # atno 8009 bound_to 7997
  154.4460  140.0993  156.6442 H   0  0  0  0  0  0  0  0  0  0  0  0  # atno 8010 bound_to 7997
  139.5554  144.6844  151.4199 H   0  0  0  0  0  0  0  0  0  0  0  0  # atno 10167 bound_to 10162
  157.1458  131.0552  151.2304 H   0  0  0  0  0  0  0  0  0  0  0  0  # atno 10718 bound_to 10713
  153.6138  135.3425  155.2988 H   0  0  0  0  0  0  0  0  0  0  0  0  # atno 10763 bound_to 10752
  154.8613  135.4256  154.2281 H   0  0  0  0  0  0  0  0  0  0  0  0  # atno 10764 bound_to 10752
  153.3138  135.7033  153.7164 H   0  0  0  0  0  0  0  0  0  0  0  0  # atno 10765 bound_to 10752
  141.1663  133.7051  156.7927 H   0  0  0  0  0  0  0  0  0  0  0  0  # atno 11005 bound_to 11000
  146.0095  139.3158  143.0879 LP  0  0  0  0  0  0  0  0  0  0  0  0  # atno 17320 bound_to 7965
  145.8698  140.9426  143.0656 LP  0  0  0  0  0  0  0  0  0  0  0  0  # atno 17321 bound_to 7965
  140.6825  143.8049  150.7141 LP  0  0  0  0  0  0  0  0  0  0  0  0  # atno 17342 bound_to 10162
  140.1507  143.4360  152.2133 LP  0  0  0  0  0  0  0  0  0  0  0  0  # atno 17343 bound_to 10162
  157.4266  130.7467  149.6955 LP  0  0  0  0  0  0  0  0  0  0  0  0  # atno 17370 bound_to 10713
  155.9780  130.4057  150.3678 LP  0  0  0  0  0  0  0  0  0  0  0  0  # atno 17371 bound_to 10713
  140.2314  134.8683  157.3480 LP  0  0  0  0  0  0  0  0  0  0  0  0  # atno 17394 bound_to 11000
  140.1887  134.4398  155.7728 LP  0  0  0  0  0  0  0  0  0  0  0  0  # atno 17395 bound_to 11000

$$$$
