AV-unprocessed.smi:304|AV-procd|sdf|2279|dock2
  -GOLD-   2262022173D 1   1.00000     0.00000
 Structure written by MMmdl.
 37 39  0  0  0  0  0  0  0  0  2 V2000
  152.5396  140.1090  155.3922 O   0  0  0  0  0  0  0  0  0  0  0  0
  151.5198  140.7571  156.1270 C   0  0  1  0  0  0  0  0  0  0  0  0
  150.1806  140.0735  155.8122 C   0  0  0  0  0  0  0  0  0  0  0  0
  149.9379  140.1741  154.4195 O   0  0  0  0  0  0  0  0  0  0  0  0
  148.6043  139.8471  154.0657 C   0  0  0  0  0  0  0  0  0  0  0  0
  147.7513  141.0309  154.3897 C   0  0  0  0  0  0  0  0  0  0  0  0
  147.0714  141.8278  153.5040 C   0  0  0  0  0  0  0  0  0  0  0  0
  146.3582  142.8896  154.1342 C   0  0  0  0  0  0  0  0  0  0  0  0
  146.5103  142.8977  155.4951 C   0  0  0  0  0  0  0  0  0  0  0  0
  147.5371  141.5960  156.0309 S   0  0  0  0  0  0  0  0  0  0  0  0
  151.8666  140.6865  157.6274 C   0  0  0  0  0  0  0  0  0  0  0  0
  151.7025  141.9769  158.3099 N   0  0  0  0  0  0  0  0  0  0  0  0
  151.0305  143.0938  157.9194 C   0  0  0  0  0  0  0  0  0  0  0  0
  151.1695  144.0224  158.9063 N   0  3  0  0  0  0  0  0  0  0  0  0
  151.9414  143.4905  159.9420 C   0  0  0  0  0  0  0  0  0  0  0  0
  152.3537  144.0435  161.1501 C   0  0  0  0  0  0  0  0  0  0  0  0
  153.1397  143.2248  161.9880 C   0  0  0  0  0  0  0  0  0  0  0  0
  153.5699  143.7144  163.1749 F   0  0  0  0  0  0  0  0  0  0  0  0
  153.4853  141.9086  161.6140 C   0  0  0  0  0  0  0  0  0  0  0  0
  154.2399  141.1559  162.4489 F   0  0  0  0  0  0  0  0  0  0  0  0
  153.0607  141.3586  160.3864 C   0  0  0  0  0  0  0  0  0  0  0  0
  152.2867  142.1761  159.5645 C   0  0  0  0  0  0  0  0  0  0  0  0
  152.5126  140.4266  154.5021 H   0  0  0  0  0  0  0  0  0  0  0  0
  151.4750  141.8025  155.8191 H   0  0  0  0  0  0  0  0  0  0  0  0
  150.1766  139.0340  156.1455 H   0  0  0  0  0  0  0  0  0  0  0  0
  149.3733  140.5861  156.3381 H   0  0  0  0  0  0  0  0  0  0  0  0
  148.5362  139.6176  153.0014 H   0  0  0  0  0  0  0  0  0  0  0  0
  148.2652  138.9718  154.6219 H   0  0  0  0  0  0  0  0  0  0  0  0
  147.0586  141.6846  152.4338 H   0  0  0  0  0  0  0  0  0  0  0  0
  145.7689  143.6008  153.5746 H   0  0  0  0  0  0  0  0  0  0  0  0
  146.0864  143.5856  156.2115 H   0  0  0  0  0  0  0  0  0  0  0  0
  151.2498  139.9461  158.1385 H   0  0  0  0  0  0  0  0  0  0  0  0
  152.9026  140.3728  157.7630 H   0  0  0  0  0  0  0  0  0  0  0  0
  150.4816  143.2178  156.9968 H   0  0  0  0  0  0  0  0  0  0  0  0
  152.0903  145.0498  161.4408 H   0  0  0  0  0  0  0  0  0  0  0  0
  153.3285  140.3499  160.1098 H   0  0  0  0  0  0  0  0  0  0  0  0
  150.7636  144.9490  158.8728 H   0  0  0  0  0  0  0  0  0  0  0  0
  1  2  1  0  0  0  0
  1 23  1  0  0  0  0
  2  3  1  0  0  0  0
  2 11  1  0  0  0  0
  2 24  1  0  0  0  0
  3  4  1  0  0  0  0
  3 25  1  0  0  0  0
  3 26  1  0  0  0  0
  4  5  1  0  0  0  0
  5  6  1  0  0  0  0
  5 27  1  0  0  0  0
  5 28  1  0  0  0  0
  6 10  1  0  0  0  0
  6  7  2  0  0  0  0
  7  8  1  0  0  0  0
  7 29  1  0  0  0  0
  8  9  2  0  0  0  0
  8 30  1  0  0  0  0
  9 10  1  0  0  0  0
  9 31  1  0  0  0  0
 11 12  1  0  0  0  0
 11 32  1  0  0  0  0
 11 33  1  0  0  0  0
 12 22  1  0  0  0  0
 12 13  1  0  0  0  0
 13 14  2  0  0  0  0
 13 34  1  0  0  0  0
 14 15  1  0  0  0  0
 14 37  1  0  0  0  0
 15 22  2  0  0  0  0
 15 16  1  0  0  0  0
 16 17  2  0  0  0  0
 16 35  1  0  0  0  0
 17 18  1  0  0  0  0
 17 19  1  0  0  0  0
 19 20  1  0  0  0  0
 19 21  2  0  0  0  0
 21 22  1  0  0  0  0
 21 36  1  0  0  0  0
M  CHG  1  14   1
M  END
> <s_m_source_file>
AV-unprocessed.smi

> <i_m_source_file_index>
304

> <i_lp_mmshare_version>
43012

> <i_f3d_flags>
0

> <s_epik_input>
W2NIXTFjKEYpYyhGKVtjSF1jKGMxMiluKFtjSF1uMilbQ0gyXVtDQEhdKFtPSF0pW0NIMl1PW0NIMl1jM1tjSF1bY0hdW2NIXXMz

> <s_epik_cmdline>
J2VwaWtfcHl0aG9uJywgJy1waCcsICc3LjAnLCAnLXRuJywgJzgnLCAnLW1hJywgJzIwMCcsICctbWV0YWxfYmluZGluZycsICctaW1hZScsICc8aW5maWxlLm1hZT4nLCAnLW9tYWUnLCAnPG91dGZpbGUubWFlPic=

> <r_epik_Ionization_Penalty>
2.17745

> <r_epik_Ionization_Penalty_Charging>
2.17744

> <r_epik_Ionization_Penalty_Neutral>
1.26231e-06

> <r_epik_State_Penalty>
2.31922

> <r_epik_Charging_Adjusted_Penalty>
4.49666

> <i_epik_Tot_Q>
1

> <i_epik_Tot_abs_Q>
1

> <r_epik_Metal_State_Penalty>
6.40003

> <b_epik_Metal_Only>
0

> <s_lp_Force_Field>
OPLS_2005

> <r_lp_Energy>
12.5781

> <b_lp_Chiralities_Consistent>
1

> <s_lp_Variant>
AV-unprocessed.smi:304-4

> <Gold.Version>
5.8.1

> <Gold.Id.Protein>
6NUR|6NUR_protein|mol2

> <Gold.PLP.Fitness>
56.0297

> <Gold.PLP.PLP>
-48.9281

> <Gold.PLP.part.hbond>
-3.0000

> <Gold.PLP.part.metal>
0.0000

> <Gold.PLP.part.buried>
-2.7502

> <Gold.PLP.part.nonpolar>
-41.3648

> <Gold.PLP.part.repulsive>
0.1807

> <Gold.PLP.ligand.clash>
0.0000

> <Gold.PLP.ligand.torsion>
1.0273

> <Gold.PLP.Chemscore.Hbond>
2.0000

> <Gold.PLP.Chemscore.CHOScore>
0.9948

> <Gold.PLP.Chemscore.Metal>
0.0000

> <Gold.Chemscore.Hbonds>
donor molecule, donor type, donor heavy atom, donor atom, acceptor molecule, acceptor atom, score
      P1  H  7989  7998       L1     4  0.95
      P1  H  7997  8009       L1     1  1.00
      L1  C    13    34       P1  8028  0.93

> <Gold.PLP.Chemscore.Internal.Correction>
0.1718

> <Gold.Rescore>
     Score         DG    S(hbond)    S(metal)    S(lipo)     H(rot)  DE(clash)    DE(int)     intcor
     15.28     -17.95       1.76        0.00     115.87       2.73       1.51       1.15       ----

> <Gold.Chemscore.Fitness>
15.2788

> <Gold.Chemscore.DG>
-17.9459

> <Gold.Chemscore.ZeroCoef>
-5.4800

> <Gold.Chemscore.Hbond>
1.7628

> <Gold.Chemscore.Metal>
0.0000

> <Gold.Chemscore.Lipo>
115.8661

> <Gold.Chemscore.Internal_Hbond>
0.0000

> <Gold.Chemscore.DEClash>
1.5126

> <Gold.Chemscore.DEInternal>
1.1545

> <Gold.Chemscore.Rot>
2.7258

> <Gold.Chemscore.Internal.Correction>
   9.000000E+99

> <Gold.Chemscore.Hbonds>
donor molecule, donor type, donor heavy atom, donor atom, acceptor molecule, acceptor atom, score
      P1  H  7989  7998       L1     4  0.63
      P1  H  7997  8009       L1     1  0.76

> <Gold.Chemscore.Hbond.Weighted>
-5.8876

> <Gold.Chemscore.Metal.Weighted>
-0.0000

> <Gold.Chemscore.Lipo.Weighted>
-13.5563

> <Gold.Chemscore.Internal_Hbond.Weighted>
0.0000

> <Gold.Chemscore.DEClash.Weighted>
1.5126

> <Gold.Chemscore.DEInternal.Weighted>
1.1545

> <Gold.Chemscore.Rot.Weighted>
6.9781

> <Gold.Chemscore.Internal.Correction.Weighted>
   9.000000E+99

> <Gold.Protein.RotatedTorsions>
[ 6907 6896 6895 6894 ] final  143.48 input  -60.11 | X-H torsion
[ 7974 7965 7964 7962 ] final -144.36 input  175.53 | X-H torsion
[ 8008 7997 7996 7995 ] final -152.68 input   59.86 | X-H torsion
[ 10167 10162 10161 10158 ] final -109.91 input  -65.29 | X-H torsion
[ 10718 10713 10712 10709 ] final -101.95 input   66.30 | X-H torsion
[ 10763 10752 10751 10750 ] final  -96.80 input  -60.55 | X-H torsion
[ 11005 11000 10999 10996 ] final   -0.50 input  -57.11 | X-H torsion

> <Gold.Protein.ActiveResidues>
 VAL166  LYS551  ARG553  GLY616  TRP617  ASP618  TYR619  PRO620  LYS621  CYS622 
 ASP623  PHE694  ASN695  SER759  ASP760  ASP761  ALA762  ILE779  LEU786  VAL792 
 PHE793  MET794  SER795  GLU796  ALA797  LYS798  CYS799  TRP800  GLU811  SER814 

> <Gold.Protein.RotatedAtoms>
  152.2058  133.4874  159.5082 H   0  0  0  0  0  0  0  0  0  0  0  0  # atno 6907 bound_to 6896
  150.6979  134.1532  159.4157 H   0  0  0  0  0  0  0  0  0  0  0  0  # atno 6908 bound_to 6896
  151.9450  135.0195  160.0589 H   0  0  0  0  0  0  0  0  0  0  0  0  # atno 6909 bound_to 6896
  144.8303  140.5719  143.5520 H   0  0  0  0  0  0  0  0  0  0  0  0  # atno 7974 bound_to 7965
  155.6589  140.0720  157.2561 H   0  0  0  0  0  0  0  0  0  0  0  0  # atno 8008 bound_to 7997
  154.4146  140.1720  156.1805 H   0  0  0  0  0  0  0  0  0  0  0  0  # atno 8009 bound_to 7997
  155.9714  140.3361  155.6582 H   0  0  0  0  0  0  0  0  0  0  0  0  # atno 8010 bound_to 7997
  140.1502  143.4205  152.1500 H   0  0  0  0  0  0  0  0  0  0  0  0  # atno 10167 bound_to 10162
  156.0212  130.5397  150.7037 H   0  0  0  0  0  0  0  0  0  0  0  0  # atno 10718 bound_to 10713
  154.7272  135.5070  153.8905 H   0  0  0  0  0  0  0  0  0  0  0  0  # atno 10763 bound_to 10752
  153.0915  135.6660  153.9853 H   0  0  0  0  0  0  0  0  0  0  0  0  # atno 10764 bound_to 10752
  153.9662  135.3043  155.3409 H   0  0  0  0  0  0  0  0  0  0  0  0  # atno 10765 bound_to 10752
  140.6370  133.9524  155.8305 H   0  0  0  0  0  0  0  0  0  0  0  0  # atno 11005 bound_to 11000
  145.4911  139.1488  143.3709 LP  0  0  0  0  0  0  0  0  0  0  0  0  # atno 17320 bound_to 7965
  146.2606  140.5049  142.8855 LP  0  0  0  0  0  0  0  0  0  0  0  0  # atno 17321 bound_to 7965
  139.5429  144.7273  151.4675 LP  0  0  0  0  0  0  0  0  0  0  0  0  # atno 17342 bound_to 10162
  140.6707  143.8300  150.6996 LP  0  0  0  0  0  0  0  0  0  0  0  0  # atno 17343 bound_to 10162
  157.4692  131.0891  151.0661 LP  0  0  0  0  0  0  0  0  0  0  0  0  # atno 17370 bound_to 10713
  157.1127  130.6028  149.5486 LP  0  0  0  0  0  0  0  0  0  0  0  0  # atno 17371 bound_to 10713
  141.0634  134.0312  157.3627 LP  0  0  0  0  0  0  0  0  0  0  0  0  # atno 17394 bound_to 11000
  139.9094  135.0187  156.7629 LP  0  0  0  0  0  0  0  0  0  0  0  0  # atno 17395 bound_to 11000

$$$$
