AV-unprocessed.smi:1572|AV-procd|sdf|6329|dock3
  -GOLD-   22720 6543D 1   1.00000     0.00000
 Structure written by MMmdl.
 42 43  0  0  0  0  0  0  0  0  1 V2000
  152.0534  143.7631  159.4520 C   0  0  0  0  0  0  0  0  0  0  0  0
  152.0835  142.7697  158.3897 N   0  0  0  0  0  0  0  0  0  0  0  0
  152.1864  141.4146  158.9226 C   0  0  0  0  0  0  0  0  0  0  0  0
  152.2346  140.3676  157.7944 C   0  0  0  0  0  0  0  0  0  0  0  0
  151.0451  140.4380  156.9300 N   0  0  0  0  0  0  0  0  0  0  0  0
  150.9614  139.3711  155.8929 C   0  0  0  0  0  0  0  0  0  0  0  0
  149.6806  139.4655  155.0286 C   0  0  0  0  0  0  0  0  0  0  0  0
  152.1697  139.4394  154.9243 C   0  0  0  0  0  0  0  0  0  0  0  0
  150.9817  137.9498  156.5291 C   0  0  0  0  0  0  0  0  0  0  0  0
  149.8786  137.7342  157.4656 N   0  0  0  0  0  0  0  0  0  0  0  0
  149.9168  136.9526  158.5543 C   0  0  0  0  0  0  0  0  0  0  0  0
  150.9012  136.2902  158.8832 O   0  0  0  0  0  0  0  0  0  0  0  0
  148.7534  137.0020  159.2268 N   0  0  0  0  0  0  0  0  0  0  0  0
  148.4005  136.3274  160.4254 C   0  0  0  0  0  0  0  0  0  0  0  0
  147.9510  136.9507  161.5263 N   0  0  0  0  0  0  0  0  0  0  0  0
  147.6817  136.0580  162.5556 N   0  0  0  0  0  0  0  0  0  0  0  0
  147.9376  134.7984  162.1910 C   0  0  0  0  0  0  0  0  0  0  0  0
  148.5338  134.5792  160.5547 S   0  0  0  0  0  0  0  0  0  0  0  0
  150.9405  141.8120  156.4107 C   0  0  0  0  0  0  0  0  0  0  0  0
  150.8963  142.8515  157.5451 C   0  0  0  0  0  0  0  0  0  0  0  0
  152.9565  143.7052  160.0605 H   0  0  0  0  0  0  0  0  0  0  0  0
  151.1926  143.6162  160.1057 H   0  0  0  0  0  0  0  0  0  0  0  0
  151.9971  144.7700  159.0370 H   0  0  0  0  0  0  0  0  0  0  0  0
  153.0857  141.3268  159.5333 H   0  0  0  0  0  0  0  0  0  0  0  0
  151.3411  141.2050  159.5803 H   0  0  0  0  0  0  0  0  0  0  0  0
  153.1417  140.5160  157.2084 H   0  0  0  0  0  0  0  0  0  0  0  0
  152.3166  139.3877  158.2611 H   0  0  0  0  0  0  0  0  0  0  0  0
  149.6592  138.6770  154.2754 H   0  0  0  0  0  0  0  0  0  0  0  0
  149.6130  140.4118  154.4926 H   0  0  0  0  0  0  0  0  0  0  0  0
  148.7735  139.3553  155.6224 H   0  0  0  0  0  0  0  0  0  0  0  0
  152.2181  138.5586  154.2828 H   0  0  0  0  0  0  0  0  0  0  0  0
  153.1162  139.5012  155.4625 H   0  0  0  0  0  0  0  0  0  0  0  0
  152.1154  140.2988  154.2561 H   0  0  0  0  0  0  0  0  0  0  0  0
  150.9242  137.1765  155.7636 H   0  0  0  0  0  0  0  0  0  0  0  0
  151.9412  137.7711  157.0181 H   0  0  0  0  0  0  0  0  0  0  0  0
  149.0298  138.2486  157.2817 H   0  0  0  0  0  0  0  0  0  0  0  0
  148.0372  137.5974  158.8385 H   0  0  0  0  0  0  0  0  0  0  0  0
  147.7743  133.9925  162.8910 H   0  0  0  0  0  0  0  0  0  0  0  0
  151.7821  142.0367  155.7552 H   0  0  0  0  0  0  0  0  0  0  0  0
  150.0364  141.9362  155.8181 H   0  0  0  0  0  0  0  0  0  0  0  0
  149.9975  142.7011  158.1451 H   0  0  0  0  0  0  0  0  0  0  0  0
  150.8201  143.8504  157.1141 H   0  0  0  0  0  0  0  0  0  0  0  0
  1  2  1  0  0  0  0
  1 21  1  0  0  0  0
  1 22  1  0  0  0  0
  1 23  1  0  0  0  0
  2 20  1  0  0  0  0
  2  3  1  0  0  0  0
  3  4  1  0  0  0  0
  3 24  1  0  0  0  0
  3 25  1  0  0  0  0
  4  5  1  0  0  0  0
  4 26  1  0  0  0  0
  4 27  1  0  0  0  0
  5  6  1  0  0  0  0
  5 19  1  0  0  0  0
  6  7  1  0  0  0  0
  6  8  1  0  0  0  0
  6  9  1  0  0  0  0
  7 28  1  0  0  0  0
  7 29  1  0  0  0  0
  7 30  1  0  0  0  0
  8 31  1  0  0  0  0
  8 32  1  0  0  0  0
  8 33  1  0  0  0  0
  9 10  1  0  0  0  0
  9 34  1  0  0  0  0
  9 35  1  0  0  0  0
 10 11  1  0  0  0  0
 10 36  1  0  0  0  0
 11 12  2  0  0  0  0
 11 13  1  0  0  0  0
 13 14  1  0  0  0  0
 13 37  1  0  0  0  0
 14 18  1  0  0  0  0
 14 15  2  0  0  0  0
 15 16  1  0  0  0  0
 16 17  2  0  0  0  0
 17 18  1  0  0  0  0
 17 38  1  0  0  0  0
 19 20  1  0  0  0  0
 19 39  1  0  0  0  0
 19 40  1  0  0  0  0
 20 41  1  0  0  0  0
 20 42  1  0  0  0  0
M  END
> <s_m_source_file>
AV-unprocessed.smi

> <i_m_source_file_index>
1572

> <i_lp_mmshare_version>
43012

> <i_f3d_flags>
0

> <s_epik_input>
W0NIM11OMVtDSDJdW0NIMl1OKFtDSDJdW0NIMl0xKUMoW0NIM10pKFtDSDNdKVtDSDJdW05IXUMoPU8pW05IXWMybm5bY0hdczI=

> <s_epik_cmdline>
J2VwaWtfcHl0aG9uJywgJy1waCcsICc3LjAnLCAnLXRuJywgJzgnLCAnLW1hJywgJzIwMCcsICctbWV0YWxfYmluZGluZycsICctaW1hZScsICc8aW5maWxlLm1hZT4nLCAnLW9tYWUnLCAnPG91dGZpbGUubWFlPic=

> <r_lp_tautomer_probability>
1

> <r_epik_Ionization_Penalty>
3.01909

> <r_epik_Ionization_Penalty_Charging>
0

> <r_epik_Ionization_Penalty_Neutral>
3.01909

> <r_epik_State_Penalty>
2.1369

> <r_epik_Charging_Adjusted_Penalty>
2.1369

> <i_epik_Tot_Q>
0

> <i_epik_Tot_abs_Q>
0

> <r_epik_Metal_State_Penalty>
2.47072

> <b_epik_Metal_Only>
0

> <s_lp_Force_Field>
OPLS_2005

> <r_lp_Energy>
48.823

> <b_lp_Chiralities_Consistent>
1

> <s_lp_Variant>
AV-unprocessed.smi:1572-3

> <Gold.Version>
5.8.1

> <Gold.Id.Protein>
6NUR|6NUR_protein|mol2

> <Gold.PLP.Fitness>
40.6804

> <Gold.PLP.PLP>
-33.5986

> <Gold.PLP.part.hbond>
-3.0000

> <Gold.PLP.part.metal>
0.0000

> <Gold.PLP.part.buried>
-4.9438

> <Gold.PLP.part.nonpolar>
-25.7490

> <Gold.PLP.part.repulsive>
0.2370

> <Gold.PLP.ligand.clash>
0.0000

> <Gold.PLP.ligand.torsion>
0.7167

> <Gold.PLP.Chemscore.Hbond>
2.8080

> <Gold.PLP.Chemscore.CHOScore>
0.0000

> <Gold.PLP.Chemscore.Metal>
0.0000

> <Gold.Chemscore.Hbonds>
donor molecule, donor type, donor heavy atom, donor atom, acceptor molecule, acceptor atom, score
      P1  H  6896  6907       L1    12  0.93
      P1  H  6931  6943       L1    15  1.00
      P1  H  6934  6947       L1    15  0.26

> <Gold.PLP.Chemscore.Internal.Correction>
0.0912

> <Gold.Rescore>
     Score         DG    S(hbond)    S(metal)    S(lipo)     H(rot)  DE(clash)    DE(int)     intcor
     17.63     -18.59       2.37        0.00      80.79       1.66       0.05       0.91       ----

> <Gold.Chemscore.Fitness>
17.6273

> <Gold.Chemscore.DG>
-18.5949

> <Gold.Chemscore.ZeroCoef>
-5.4800

> <Gold.Chemscore.Hbond>
2.3682

> <Gold.Chemscore.Metal>
0.0000

> <Gold.Chemscore.Lipo>
80.7864

> <Gold.Chemscore.Internal_Hbond>
0.0000

> <Gold.Chemscore.DEClash>
0.0537

> <Gold.Chemscore.DEInternal>
0.9138

> <Gold.Chemscore.Rot>
1.6590

> <Gold.Chemscore.Internal.Correction>
   9.000000E+99

> <Gold.Chemscore.Hbonds>
donor molecule, donor type, donor heavy atom, donor atom, acceptor molecule, acceptor atom, score
      P1  H  6896  6907       L1    12  0.87
      P1  H  6931  6943       L1    15  0.65
      P1  H  6934  6947       L1    15  0.18

> <Gold.Chemscore.Hbond.Weighted>
-7.9098

> <Gold.Chemscore.Metal.Weighted>
-0.0000

> <Gold.Chemscore.Lipo.Weighted>
-9.4520

> <Gold.Chemscore.Internal_Hbond.Weighted>
0.0000

> <Gold.Chemscore.DEClash.Weighted>
0.0537

> <Gold.Chemscore.DEInternal.Weighted>
0.9138

> <Gold.Chemscore.Rot.Weighted>
4.2469

> <Gold.Chemscore.Internal.Correction.Weighted>
   9.000000E+99

> <Gold.Protein.RotatedTorsions>
[ 6907 6896 6895 6894 ] final  -26.98 input  -60.11 | X-H torsion
[ 7974 7965 7964 7962 ] final   56.60 input  175.53 | X-H torsion
[ 8008 7997 7996 7995 ] final  160.80 input   59.86 | X-H torsion
[ 10167 10162 10161 10158 ] final   54.97 input  -65.29 | X-H torsion
[ 10718 10713 10712 10709 ] final  -99.74 input   66.30 | X-H torsion
[ 10763 10752 10751 10750 ] final  170.53 input  -60.55 | X-H torsion
[ 11005 11000 10999 10996 ] final  -42.78 input  -57.11 | X-H torsion

> <Gold.Protein.ActiveResidues>
 VAL166  LYS551  ARG553  GLY616  TRP617  ASP618  TYR619  PRO620  LYS621  CYS622 
 ASP623  PHE694  ASN695  SER759  ASP760  ASP761  ALA762  ILE779  LEU786  VAL792 
 PHE793  MET794  SER795  GLU796  ALA797  LYS798  CYS799  TRP800  GLU811  SER814 

> <Gold.Protein.RotatedAtoms>
  151.1533  135.0238  159.8677 H   0  0  0  0  0  0  0  0  0  0  0  0  # atno 6907 bound_to 6896
  152.5452  134.1364  159.8470 H   0  0  0  0  0  0  0  0  0  0  0  0  # atno 6908 bound_to 6896
  151.1451  133.4899  159.2629 H   0  0  0  0  0  0  0  0  0  0  0  0  # atno 6909 bound_to 6896
  145.9381  139.3864  143.0380 H   0  0  0  0  0  0  0  0  0  0  0  0  # atno 7974 bound_to 7965
  156.2147  140.1794  156.7616 H   0  0  0  0  0  0  0  0  0  0  0  0  # atno 8008 bound_to 7997
  154.5774  140.0672  156.9083 H   0  0  0  0  0  0  0  0  0  0  0  0  # atno 8009 bound_to 7997
  155.2564  140.3332  155.4279 H   0  0  0  0  0  0  0  0  0  0  0  0  # atno 8010 bound_to 7997
  140.2244  144.3754  150.6438 H   0  0  0  0  0  0  0  0  0  0  0  0  # atno 10167 bound_to 10162
  156.0142  130.5296  150.6715 H   0  0  0  0  0  0  0  0  0  0  0  0  # atno 10718 bound_to 10713
  154.3990  135.2755  155.2108 H   0  0  0  0  0  0  0  0  0  0  0  0  # atno 10763 bound_to 10752
  154.4142  135.6015  153.5974 H   0  0  0  0  0  0  0  0  0  0  0  0  # atno 10764 bound_to 10752
  152.9831  135.5957  154.4255 H   0  0  0  0  0  0  0  0  0  0  0  0  # atno 10765 bound_to 10752
  141.0339  133.6808  156.2642 H   0  0  0  0  0  0  0  0  0  0  0  0  # atno 11005 bound_to 11000
  145.8337  140.9617  143.0836 LP  0  0  0  0  0  0  0  0  0  0  0  0  # atno 17320 bound_to 7965
  144.6775  140.0195  143.7484 LP  0  0  0  0  0  0  0  0  0  0  0  0  # atno 17321 bound_to 7965
  140.6231  143.2178  151.6653 LP  0  0  0  0  0  0  0  0  0  0  0  0  # atno 17342 bound_to 10162
  139.5132  144.3450  152.0705 LP  0  0  0  0  0  0  0  0  0  0  0  0  # atno 17343 bound_to 10162
  157.4436  131.0864  151.0918 LP  0  0  0  0  0  0  0  0  0  0  0  0  # atno 17370 bound_to 10713
  157.1455  130.6161  149.5567 LP  0  0  0  0  0  0  0  0  0  0  0  0  # atno 17371 bound_to 10713
  140.6357  134.5217  157.5564 LP  0  0  0  0  0  0  0  0  0  0  0  0  # atno 17394 bound_to 11000
  139.9227  134.8117  156.1162 LP  0  0  0  0  0  0  0  0  0  0  0  0  # atno 17395 bound_to 11000

$$$$
