AV-unprocessed.smi:1047|AV-procd|sdf|4598|dock8
  -GOLD-   22720 3 83D 1   1.00000     0.00000
 Structure written by MMmdl.
 57 59  0  0  0  0  0  0  0  0  3 V2000
  148.5619  131.8381  160.9179 C   0  0  0  0  0  0  0  0  0  0  0  0
  148.2646  132.9622  161.9205 C   0  0  0  0  0  0  0  0  0  0  0  0
  147.2968  133.9590  161.3900 N   0  3  1  0  0  0  0  0  0  0  0  0
  146.7503  134.8634  162.4309 C   0  0  0  0  0  0  0  0  0  0  0  0
  147.7626  135.9626  162.7999 C   0  0  0  0  0  0  0  0  0  0  0  0
  148.1300  136.6800  161.6278 O   0  0  0  0  0  0  0  0  0  0  0  0
  148.7695  135.8557  160.6589 C   0  0  2  0  0  0  0  0  0  0  0  0
  149.1912  136.7578  159.4883 C   0  0  0  0  0  0  0  0  0  0  0  0
  150.0170  136.0333  158.5261 N   0  0  0  0  0  0  0  0  0  0  0  0
  151.0858  136.8460  157.9518 C   0  0  0  0  0  0  0  0  0  0  0  0
  150.5350  138.1515  157.3535 C   0  0  2  0  0  0  0  0  0  0  0  0
  149.9724  137.8546  156.0907 O   0  0  0  0  0  0  0  0  0  0  0  0
  151.6420  139.2114  157.1831 C   0  0  0  0  0  0  0  0  0  0  0  0
  151.1335  140.5899  157.2452 N   0  0  0  0  0  0  0  0  0  0  0  0
  150.2857  141.2408  156.4032 C   0  0  0  0  0  0  0  0  0  0  0  0
  150.1137  142.5019  156.8866 N   0  3  0  0  0  0  0  0  0  0  0  0
  150.8634  142.6601  158.0540 C   0  0  0  0  0  0  0  0  0  0  0  0
  151.0126  143.7543  158.8981 C   0  0  0  0  0  0  0  0  0  0  0  0
  151.8612  143.5952  160.0167 C   0  0  0  0  0  0  0  0  0  0  0  0
  152.0484  144.7727  160.9584 C   0  0  0  0  0  0  0  0  0  0  0  0
  152.5275  142.3659  160.2583 C   0  0  0  0  0  0  0  0  0  0  0  0
  153.4421  142.2073  161.4610 C   0  0  0  0  0  0  0  0  0  0  0  0
  152.3607  141.2643  159.3889 C   0  0  0  0  0  0  0  0  0  0  0  0
  151.5209  141.4371  158.2909 C   0  0  0  0  0  0  0  0  0  0  0  0
  147.7833  134.7454  160.2270 C   0  0  0  0  0  0  0  0  0  0  0  0
  149.1915  131.0751  161.3764 H   0  0  0  0  0  0  0  0  0  0  0  0
  149.0897  132.2021  160.0369 H   0  0  0  0  0  0  0  0  0  0  0  0
  147.6442  131.3510  160.5863 H   0  0  0  0  0  0  0  0  0  0  0  0
  147.8418  132.5017  162.8143 H   0  0  0  0  0  0  0  0  0  0  0  0
  149.1902  133.4433  162.2355 H   0  0  0  0  0  0  0  0  0  0  0  0
  145.8431  135.3269  162.0407 H   0  0  0  0  0  0  0  0  0  0  0  0
  146.4490  134.2994  163.3143 H   0  0  0  0  0  0  0  0  0  0  0  0
  147.3165  136.6579  163.5112 H   0  0  0  0  0  0  0  0  0  0  0  0
  148.6475  135.5437  163.2811 H   0  0  0  0  0  0  0  0  0  0  0  0
  149.6666  135.4249  161.1062 H   0  0  0  0  0  0  0  0  0  0  0  0
  148.3088  137.1732  159.0002 H   0  0  0  0  0  0  0  0  0  0  0  0
  149.7563  137.6051  159.8788 H   0  0  0  0  0  0  0  0  0  0  0  0
  149.4336  135.6641  157.7821 H   0  0  0  0  0  0  0  0  0  0  0  0
  151.8011  137.0908  158.7381 H   0  0  0  0  0  0  0  0  0  0  0  0
  151.6389  136.2842  157.1973 H   0  0  0  0  0  0  0  0  0  0  0  0
  149.7545  138.5579  157.9987 H   0  0  0  0  0  0  0  0  0  0  0  0
  149.0635  138.1140  156.1007 H   0  0  0  0  0  0  0  0  0  0  0  0
  152.3769  139.1087  157.9826 H   0  0  0  0  0  0  0  0  0  0  0  0
  152.1875  139.0703  156.2497 H   0  0  0  0  0  0  0  0  0  0  0  0
  149.8303  140.8306  155.5133 H   0  0  0  0  0  0  0  0  0  0  0  0
  150.5034  144.6876  158.7065 H   0  0  0  0  0  0  0  0  0  0  0  0
  153.0959  145.0732  160.9911 H   0  0  0  0  0  0  0  0  0  0  0  0
  151.7309  144.5110  161.9680 H   0  0  0  0  0  0  0  0  0  0  0  0
  151.4637  145.6362  160.6394 H   0  0  0  0  0  0  0  0  0  0  0  0
  153.8764  141.2079  161.5031 H   0  0  0  0  0  0  0  0  0  0  0  0
  152.8898  142.3695  162.3869 H   0  0  0  0  0  0  0  0  0  0  0  0
  154.2619  142.9246  161.4156 H   0  0  0  0  0  0  0  0  0  0  0  0
  152.8739  140.3313  159.5697 H   0  0  0  0  0  0  0  0  0  0  0  0
  148.2326  134.0948  159.4780 H   0  0  0  0  0  0  0  0  0  0  0  0
  146.9172  135.2015  159.7456 H   0  0  0  0  0  0  0  0  0  0  0  0
  146.5127  133.4133  161.0614 H   0  0  0  0  0  0  0  0  0  0  0  0
  149.5272  143.2013  156.4497 H   0  0  0  0  0  0  0  0  0  0  0  0
  1  2  1  0  0  0  0
  1 26  1  0  0  0  0
  1 27  1  0  0  0  0
  1 28  1  0  0  0  0
  2  3  1  0  0  0  0
  2 29  1  0  0  0  0
  2 30  1  0  0  0  0
  3 25  1  0  0  0  0
  3  4  1  0  0  0  0
  3 56  1  0  0  0  0
  4  5  1  0  0  0  0
  4 31  1  0  0  0  0
  4 32  1  0  0  0  0
  5  6  1  0  0  0  0
  5 33  1  0  0  0  0
  5 34  1  0  0  0  0
  6  7  1  0  0  0  0
  7  8  1  0  0  0  0
  7 25  1  0  0  0  0
  7 35  1  0  0  0  0
  8  9  1  0  0  0  0
  8 36  1  0  0  0  0
  8 37  1  0  0  0  0
  9 10  1  0  0  0  0
  9 38  1  0  0  0  0
 10 11  1  0  0  0  0
 10 39  1  0  0  0  0
 10 40  1  0  0  0  0
 11 12  1  0  0  0  0
 11 13  1  0  0  0  0
 11 41  1  0  0  0  0
 12 42  1  0  0  0  0
 13 14  1  0  0  0  0
 13 43  1  0  0  0  0
 13 44  1  0  0  0  0
 14 24  1  0  0  0  0
 14 15  1  0  0  0  0
 15 16  2  0  0  0  0
 15 45  1  0  0  0  0
 16 17  1  0  0  0  0
 16 57  1  0  0  0  0
 17 24  2  0  0  0  0
 17 18  1  0  0  0  0
 18 19  2  0  0  0  0
 18 46  1  0  0  0  0
 19 20  1  0  0  0  0
 19 21  1  0  0  0  0
 20 47  1  0  0  0  0
 20 48  1  0  0  0  0
 20 49  1  0  0  0  0
 21 22  1  0  0  0  0
 21 23  2  0  0  0  0
 22 50  1  0  0  0  0
 22 51  1  0  0  0  0
 22 52  1  0  0  0  0
 23 24  1  0  0  0  0
 23 53  1  0  0  0  0
 25 54  1  0  0  0  0
 25 55  1  0  0  0  0
M  CHG  1   3   1
M  CHG  1  16   1
M  END
> <s_m_source_file>
AV-unprocessed.smi

> <i_m_source_file_index>
1047

> <i_lp_mmshare_version>
43012

> <i_f3d_flags>
0

> <s_epik_input>
W0NIM11bQ0gyXU4xW0NIMl1bQ0gyXU9bQ0BIXShbQ0gyXTEpW0NIMl1bTkhdW0NIMl1bQ0BIXShbT0hdKVtDSDJdbihbY0hdbjIpYyhjMjMpW2NIXWMoW0NIM10pYyhbY0hdMylbQ0gzXQ==

> <s_epik_cmdline>
J2VwaWtfcHl0aG9uJywgJy1waCcsICc3LjAnLCAnLXRuJywgJzgnLCAnLW1hJywgJzIwMCcsICctbWV0YWxfYmluZGluZycsICctaW1hZScsICc8aW5maWxlLm1hZT4nLCAnLW9tYWUnLCAnPG91dGZpbGUubWFlPic=

> <r_epik_Ionization_Penalty>
2.03028

> <r_epik_Ionization_Penalty_Charging>
1.21256

> <r_epik_Ionization_Penalty_Neutral>
0.817715

> <r_epik_State_Penalty>
2.54959

> <r_epik_Charging_Adjusted_Penalty>
3.76215

> <i_epik_Tot_Q>
2

> <i_epik_Tot_abs_Q>
2

> <r_epik_Metal_State_Penalty>
6.52811

> <b_epik_Metal_Only>
0

> <s_lp_Force_Field>
OPLS_2005

> <r_lp_Energy>
38.5552

> <b_lp_Chiralities_Consistent>
1

> <s_lp_Variant>
AV-unprocessed.smi:1047-39

> <Gold.Version>
5.8.1

> <Gold.Id.Protein>
6NUR|6NUR_protein|mol2

> <Gold.PLP.Fitness>
66.3784

> <Gold.PLP.PLP>
-53.7628

> <Gold.PLP.part.hbond>
-4.0000

> <Gold.PLP.part.metal>
0.0000

> <Gold.PLP.part.buried>
-6.9665

> <Gold.PLP.part.nonpolar>
-43.2359

> <Gold.PLP.part.repulsive>
0.1081

> <Gold.PLP.ligand.clash>
0.0000

> <Gold.PLP.ligand.torsion>
0.8794

> <Gold.PLP.Chemscore.Hbond>
4.7680

> <Gold.PLP.Chemscore.CHOScore>
0.0000

> <Gold.PLP.Chemscore.Metal>
0.0000

> <Gold.Chemscore.Hbonds>
donor molecule, donor type, donor heavy atom, donor atom, acceptor molecule, acceptor atom, score
      L1  H    16    57       P1  8028  2.00
      P1  H  6896  6907       L1     9  1.00
      P1  H  6931  6943       L1     6  1.00

> <Gold.PLP.Chemscore.Internal.Correction>
0.0704

> <Gold.Rescore>
     Score         DG    S(hbond)    S(metal)    S(lipo)     H(rot)  DE(clash)    DE(int)     intcor
     21.54     -22.48       2.43        0.00     135.11       2.71       0.00       0.94       ----

> <Gold.Chemscore.Fitness>
21.5400

> <Gold.Chemscore.DG>
-22.4782

> <Gold.Chemscore.ZeroCoef>
-5.4800

> <Gold.Chemscore.Hbond>
2.4325

> <Gold.Chemscore.Metal>
0.0000

> <Gold.Chemscore.Lipo>
135.1123

> <Gold.Chemscore.Internal_Hbond>
0.0000

> <Gold.Chemscore.DEClash>
0.0029

> <Gold.Chemscore.DEInternal>
0.9353

> <Gold.Chemscore.Rot>
2.7088

> <Gold.Chemscore.Internal.Correction>
   9.000000E+99

> <Gold.Chemscore.Hbonds>
donor molecule, donor type, donor heavy atom, donor atom, acceptor molecule, acceptor atom, score
      L1  H    16    57       P1  8028  1.00
      P1  H  6896  6907       L1     9  0.20
      P1  H  6931  6943       L1     6  0.74

> <Gold.Chemscore.Hbond.Weighted>
-8.1247

> <Gold.Chemscore.Metal.Weighted>
-0.0000

> <Gold.Chemscore.Lipo.Weighted>
-15.8081

> <Gold.Chemscore.Internal_Hbond.Weighted>
0.0000

> <Gold.Chemscore.DEClash.Weighted>
0.0029

> <Gold.Chemscore.DEInternal.Weighted>
0.9353

> <Gold.Chemscore.Rot.Weighted>
6.9346

> <Gold.Chemscore.Internal.Correction.Weighted>
   9.000000E+99

> <Gold.Protein.RotatedTorsions>
[ 6907 6896 6895 6894 ] final  -63.83 input  -60.11 | X-H torsion
[ 7974 7965 7964 7962 ] final -117.95 input  175.53 | X-H torsion
[ 8008 7997 7996 7995 ] final  -25.04 input   59.86 | X-H torsion
[ 10167 10162 10161 10158 ] final -161.67 input  -65.29 | X-H torsion
[ 10718 10713 10712 10709 ] final   15.56 input   66.30 | X-H torsion
[ 10763 10752 10751 10750 ] final   97.45 input  -60.55 | X-H torsion
[ 11005 11000 10999 10996 ] final  140.99 input  -57.11 | X-H torsion

> <Gold.Protein.ActiveResidues>
 VAL166  LYS551  ARG553  GLY616  TRP617  ASP618  TYR619  PRO620  LYS621  CYS622 
 ASP623  PHE694  ASN695  SER759  ASP760  ASP761  ALA762  ILE779  LEU786  VAL792 
 PHE793  MET794  SER795  GLU796  ALA797  LYS798  CYS799  TRP800  GLU811  SER814 

> <Gold.Protein.RotatedAtoms>
  150.7624  134.6382  159.6222 H   0  0  0  0  0  0  0  0  0  0  0  0  # atno 6907 bound_to 6896
  152.3638  134.6830  160.0207 H   0  0  0  0  0  0  0  0  0  0  0  0  # atno 6908 bound_to 6896
  151.7212  133.3278  159.3352 H   0  0  0  0  0  0  0  0  0  0  0  0  # atno 6909 bound_to 6896
  145.0794  140.8415  143.4048 H   0  0  0  0  0  0  0  0  0  0  0  0  # atno 7974 bound_to 7965
  154.4496  140.1937  156.0558 H   0  0  0  0  0  0  0  0  0  0  0  0  # atno 8008 bound_to 7997
  156.0620  140.3295  155.7445 H   0  0  0  0  0  0  0  0  0  0  0  0  # atno 8009 bound_to 7997
  155.5397  140.0585  157.2863 H   0  0  0  0  0  0  0  0  0  0  0  0  # atno 8010 bound_to 7997
  139.6448  144.0193  152.2119 H   0  0  0  0  0  0  0  0  0  0  0  0  # atno 10167 bound_to 10162
  157.0553  130.6286  149.5775 H   0  0  0  0  0  0  0  0  0  0  0  0  # atno 10718 bound_to 10713
  153.2771  135.4183  155.1043 H   0  0  0  0  0  0  0  0  0  0  0  0  # atno 10763 bound_to 10752
  154.8476  135.3486  154.6164 H   0  0  0  0  0  0  0  0  0  0  0  0  # atno 10764 bound_to 10752
  153.6584  135.7049  153.5243 H   0  0  0  0  0  0  0  0  0  0  0  0  # atno 10765 bound_to 10752
  140.0368  134.9325  157.0767 H   0  0  0  0  0  0  0  0  0  0  0  0  # atno 11005 bound_to 11000
  145.1197  139.2702  143.5595 LP  0  0  0  0  0  0  0  0  0  0  0  0  # atno 17320 bound_to 7965
  146.3530  140.0817  142.8617 LP  0  0  0  0  0  0  0  0  0  0  0  0  # atno 17321 bound_to 7965
  139.9891  144.6374  150.7830 LP  0  0  0  0  0  0  0  0  0  0  0  0  # atno 17342 bound_to 10162
  140.7509  143.2963  151.3196 LP  0  0  0  0  0  0  0  0  0  0  0  0  # atno 17343 bound_to 10162
  155.9995  130.5071  150.7609 LP  0  0  0  0  0  0  0  0  0  0  0  0  # atno 17370 bound_to 10713
  157.4998  131.0917  151.0328 LP  0  0  0  0  0  0  0  0  0  0  0  0  # atno 17371 bound_to 10713
  140.4135  134.1956  155.7163 LP  0  0  0  0  0  0  0  0  0  0  0  0  # atno 17394 bound_to 11000
  141.1861  133.8308  157.1079 LP  0  0  0  0  0  0  0  0  0  0  0  0  # atno 17395 bound_to 11000

$$$$
