AV-unprocessed.smi:3328|AV-procd|sdf|12794|dock6
  -GOLD-   2272019143D 1   1.00000     0.00000
 Structure written by MMmdl.
 40 41  0  0  0  0  0  0  0  0  1 V2000
  154.1364  142.4603  163.6791 C   0  0  0  0  0  0  0  0  0  0  0  0
  153.4562  142.8902  162.4115 C   0  0  0  0  0  0  0  0  0  0  0  0
  152.5999  144.0108  162.2174 C   0  0  0  0  0  0  0  0  0  0  0  0
  152.1621  144.1134  160.9740 N   0  0  0  0  0  0  0  0  0  0  0  0
  152.7146  143.0623  160.3314 N   0  0  0  0  0  0  0  0  0  0  0  0
  152.4471  142.8574  158.9159 C   0  0  0  0  0  0  0  0  0  0  0  0
  150.9670  143.0844  158.5131 C   0  0  1  0  0  0  0  0  0  0  0  0
  150.4725  144.5031  158.8382 C   0  0  0  0  0  0  0  0  0  0  0  0
  150.7438  142.8576  157.0897 N   0  0  0  0  0  0  0  0  0  0  0  0
  150.1139  141.5732  156.8172 C   0  0  0  0  0  0  0  0  0  0  0  0
  150.0665  141.3295  155.2991 C   0  0  0  0  0  0  0  0  0  0  0  0
  150.3385  139.9329  154.9600 N   0  0  0  0  0  0  0  0  0  0  0  0
  149.2534  139.0330  154.6065 C   0  0  0  0  0  0  0  0  0  0  0  0
  149.9321  137.7184  154.1945 C   0  0  0  0  0  0  0  0  0  0  0  0
  151.4161  137.8770  154.5446 C   0  0  0  0  0  0  0  0  0  0  0  0
  151.5351  139.3345  154.9551 C   0  0  0  0  0  0  0  0  0  0  0  0
  152.6103  139.8608  155.2383 O   0  0  0  0  0  0  0  0  0  0  0  0
  153.5079  142.3127  161.1743 C   0  0  0  0  0  0  0  0  0  0  0  0
  153.5181  142.6586  164.5550 H   0  0  0  0  0  0  0  0  0  0  0  0
  155.0803  142.9854  163.8258 H   0  0  0  0  0  0  0  0  0  0  0  0
  154.3581  141.3928  163.6782 H   0  0  0  0  0  0  0  0  0  0  0  0
  152.2868  144.7500  162.9397 H   0  0  0  0  0  0  0  0  0  0  0  0
  153.1200  143.4901  158.3370 H   0  0  0  0  0  0  0  0  0  0  0  0
  152.7312  141.8336  158.6701 H   0  0  0  0  0  0  0  0  0  0  0  0
  150.3439  142.3852  159.0726 H   0  0  0  0  0  0  0  0  0  0  0  0
  150.6231  144.7362  159.8925 H   0  0  0  0  0  0  0  0  0  0  0  0
  149.4065  144.6036  158.6311 H   0  0  0  0  0  0  0  0  0  0  0  0
  150.9936  145.2608  158.2519 H   0  0  0  0  0  0  0  0  0  0  0  0
  150.1628  143.5940  156.7154 H   0  0  0  0  0  0  0  0  0  0  0  0
  150.6439  140.7578  157.3073 H   0  0  0  0  0  0  0  0  0  0  0  0
  149.1014  141.5853  157.2217 H   0  0  0  0  0  0  0  0  0  0  0  0
  149.0777  141.5921  154.9203 H   0  0  0  0  0  0  0  0  0  0  0  0
  150.7709  141.9846  154.7843 H   0  0  0  0  0  0  0  0  0  0  0  0
  148.6031  138.8866  155.4698 H   0  0  0  0  0  0  0  0  0  0  0  0
  148.6552  139.4453  153.7928 H   0  0  0  0  0  0  0  0  0  0  0  0
  149.4888  136.8648  154.7085 H   0  0  0  0  0  0  0  0  0  0  0  0
  149.8131  137.5515  153.1235 H   0  0  0  0  0  0  0  0  0  0  0  0
  151.7031  137.2345  155.3775 H   0  0  0  0  0  0  0  0  0  0  0  0
  152.0619  137.6582  153.6935 H   0  0  0  0  0  0  0  0  0  0  0  0
  154.0348  141.4359  160.8275 H   0  0  0  0  0  0  0  0  0  0  0  0
  1  2  1  0  0  0  0
  1 19  1  0  0  0  0
  1 20  1  0  0  0  0
  1 21  1  0  0  0  0
  2 18  2  0  0  0  0
  2  3  1  0  0  0  0
  3  4  2  0  0  0  0
  3 22  1  0  0  0  0
  4  5  1  0  0  0  0
  5  6  1  0  0  0  0
  5 18  1  0  0  0  0
  6  7  1  0  0  0  0
  6 23  1  0  0  0  0
  6 24  1  0  0  0  0
  7  8  1  0  0  0  0
  7  9  1  0  0  0  0
  7 25  1  0  0  0  0
  8 26  1  0  0  0  0
  8 27  1  0  0  0  0
  8 28  1  0  0  0  0
  9 10  1  0  0  0  0
  9 29  1  0  0  0  0
 10 11  1  0  0  0  0
 10 30  1  0  0  0  0
 10 31  1  0  0  0  0
 11 12  1  0  0  0  0
 11 32  1  0  0  0  0
 11 33  1  0  0  0  0
 12 16  1  0  0  0  0
 12 13  1  0  0  0  0
 13 14  1  0  0  0  0
 13 34  1  0  0  0  0
 13 35  1  0  0  0  0
 14 15  1  0  0  0  0
 14 36  1  0  0  0  0
 14 37  1  0  0  0  0
 15 16  1  0  0  0  0
 15 38  1  0  0  0  0
 15 39  1  0  0  0  0
 16 17  2  0  0  0  0
 18 40  1  0  0  0  0
M  END
> <s_m_source_file>
AV-unprocessed.smi

> <i_m_source_file_index>
3328

> <i_lp_mmshare_version>
43012

> <i_f3d_flags>
0

> <s_epik_input>
W0NIM11jMVtjSF1ubihbY0hdMSlbQ0gyXVtDQEhdKFtDSDNdKVtOSF1bQ0gyXVtDSDJdTjJbQ0gyXVtDSDJdW0NIMl1DMj1P

> <s_epik_cmdline>
J2VwaWtfcHl0aG9uJywgJy1waCcsICc3LjAnLCAnLXRuJywgJzgnLCAnLW1hJywgJzIwMCcsICctbWV0YWxfYmluZGluZycsICctaW1hZScsICc8aW5maWxlLm1hZT4nLCAnLW9tYWUnLCAnPG91dGZpbGUubWFlPic=

> <r_lp_tautomer_probability>
1

> <r_epik_Ionization_Penalty>
2.53591

> <r_epik_Ionization_Penalty_Charging>
0

> <r_epik_Ionization_Penalty_Neutral>
2.53591

> <r_epik_State_Penalty>
2.70334

> <r_epik_Charging_Adjusted_Penalty>
2.70334

> <i_epik_Tot_Q>
0

> <i_epik_Tot_abs_Q>
0

> <r_epik_Metal_State_Penalty>
2.70327

> <b_epik_Metal_Only>
0

> <s_lp_Force_Field>
OPLS_2005

> <r_lp_Energy>
23.1303

> <b_lp_Chiralities_Consistent>
1

> <s_lp_Variant>
AV-unprocessed.smi:3328-4

> <Gold.Version>
5.8.1

> <Gold.Id.Protein>
6NUR|6NUR_protein|mol2

> <Gold.PLP.Fitness>
46.9543

> <Gold.PLP.PLP>
-43.6653

> <Gold.PLP.part.hbond>
-2.9298

> <Gold.PLP.part.metal>
0.0000

> <Gold.PLP.part.buried>
-0.2090

> <Gold.PLP.part.nonpolar>
-39.6610

> <Gold.PLP.part.repulsive>
0.1243

> <Gold.PLP.ligand.clash>
0.0000

> <Gold.PLP.ligand.torsion>
1.3954

> <Gold.PLP.Chemscore.Hbond>
2.0000

> <Gold.PLP.Chemscore.CHOScore>
0.0000

> <Gold.PLP.Chemscore.Metal>
0.0000

> <Gold.Chemscore.Hbonds>
donor molecule, donor type, donor heavy atom, donor atom, acceptor molecule, acceptor atom, score
      L1  H     9    29       P1  8028  1.00
      P1  H  7997  8008       L1    17  1.00

> <Gold.PLP.Chemscore.Internal.Correction>
0.0798

> <Gold.Rescore>
     Score         DG    S(hbond)    S(metal)    S(lipo)     H(rot)  DE(clash)    DE(int)     intcor
     16.68     -20.31       1.97        0.00     111.84       1.89       0.79       2.84       ----

> <Gold.Chemscore.Fitness>
16.6755

> <Gold.Chemscore.DG>
-20.3091

> <Gold.Chemscore.ZeroCoef>
-5.4800

> <Gold.Chemscore.Hbond>
1.9722

> <Gold.Chemscore.Metal>
0.0000

> <Gold.Chemscore.Lipo>
111.8414

> <Gold.Chemscore.Internal_Hbond>
0.0000

> <Gold.Chemscore.DEClash>
0.7929

> <Gold.Chemscore.DEInternal>
2.8406

> <Gold.Chemscore.Rot>
1.8920

> <Gold.Chemscore.Internal.Correction>
   9.000000E+99

> <Gold.Chemscore.Hbonds>
donor molecule, donor type, donor heavy atom, donor atom, acceptor molecule, acceptor atom, score
      L1  H     9    29       P1  8028  0.97
      P1  H  7997  8008       L1    17  0.98

> <Gold.Chemscore.Hbond.Weighted>
-6.5871

> <Gold.Chemscore.Metal.Weighted>
-0.0000

> <Gold.Chemscore.Lipo.Weighted>
-13.0854

> <Gold.Chemscore.Internal_Hbond.Weighted>
0.0000

> <Gold.Chemscore.DEClash.Weighted>
0.7929

> <Gold.Chemscore.DEInternal.Weighted>
2.8406

> <Gold.Chemscore.Rot.Weighted>
4.8435

> <Gold.Chemscore.Internal.Correction.Weighted>
   9.000000E+99

> <Gold.Protein.RotatedTorsions>
[ 6907 6896 6895 6894 ] final  108.86 input  -60.11 | X-H torsion
[ 7974 7965 7964 7962 ] final  120.47 input  175.53 | X-H torsion
[ 8008 7997 7996 7995 ] final  -22.91 input   59.86 | X-H torsion
[ 10167 10162 10161 10158 ] final   69.89 input  -65.29 | X-H torsion
[ 10718 10713 10712 10709 ] final   26.66 input   66.30 | X-H torsion
[ 10763 10752 10751 10750 ] final  -76.73 input  -60.55 | X-H torsion
[ 11005 11000 10999 10996 ] final   18.49 input  -57.11 | X-H torsion

> <Gold.Protein.ActiveResidues>
 VAL166  LYS551  ARG553  GLY616  TRP617  ASP618  TYR619  PRO620  LYS621  CYS622 
 ASP623  PHE694  ASN695  SER759  ASP760  ASP761  ALA762  ILE779  LEU786  VAL792 
 PHE793  MET794  SER795  GLU796  ALA797  LYS798  CYS799  TRP800  GLU811  SER814 

> <Gold.Protein.RotatedAtoms>
  152.5093  133.9028  159.7448 H   0  0  0  0  0  0  0  0  0  0  0  0  # atno 6907 bound_to 6896
  150.9439  133.6616  159.2792 H   0  0  0  0  0  0  0  0  0  0  0  0  # atno 6908 bound_to 6896
  151.3918  135.0962  159.9581 H   0  0  0  0  0  0  0  0  0  0  0  0  # atno 6909 bound_to 6896
  145.1307  139.3329  143.4666 H   0  0  0  0  0  0  0  0  0  0  0  0  # atno 7974 bound_to 7965
  154.4616  140.1995  156.0229 H   0  0  0  0  0  0  0  0  0  0  0  0  # atno 8008 bound_to 7997
  156.0850  140.3266  155.7714 H   0  0  0  0  0  0  0  0  0  0  0  0  # atno 8009 bound_to 7997
  155.5049  140.0557  157.2924 H   0  0  0  0  0  0  0  0  0  0  0  0  # atno 8010 bound_to 7997
  140.0628  144.5218  150.7282 H   0  0  0  0  0  0  0  0  0  0  0  0  # atno 10167 bound_to 10162
  157.2098  130.6929  149.6224 H   0  0  0  0  0  0  0  0  0  0  0  0  # atno 10718 bound_to 10713
  154.5037  135.5788  153.6550 H   0  0  0  0  0  0  0  0  0  0  0  0  # atno 10763 bound_to 10752
  152.9883  135.6142  154.2970 H   0  0  0  0  0  0  0  0  0  0  0  0  # atno 10764 bound_to 10752
  154.2879  135.2849  155.2647 H   0  0  0  0  0  0  0  0  0  0  0  0  # atno 10765 bound_to 10752
  140.4242  134.1487  155.7675 H   0  0  0  0  0  0  0  0  0  0  0  0  # atno 11005 bound_to 11000
  146.3514  140.1305  142.8597 LP  0  0  0  0  0  0  0  0  0  0  0  0  # atno 17320 bound_to 7965
  145.0638  140.9107  143.4923 LP  0  0  0  0  0  0  0  0  0  0  0  0  # atno 17321 bound_to 7965
  140.7163  143.2548  151.4422 LP  0  0  0  0  0  0  0  0  0  0  0  0  # atno 17342 bound_to 10162
  139.5883  144.1555  152.2057 LP  0  0  0  0  0  0  0  0  0  0  0  0  # atno 17343 bound_to 10162
  155.9692  130.4555  150.5889 LP  0  0  0  0  0  0  0  0  0  0  0  0  # atno 17370 bound_to 10713
  157.3683  131.0761  151.1579 LP  0  0  0  0  0  0  0  0  0  0  0  0  # atno 17371 bound_to 10713
  141.1772  133.8490  157.1382 LP  0  0  0  0  0  0  0  0  0  0  0  0  # atno 17394 bound_to 11000
  140.0179  134.9959  157.0531 LP  0  0  0  0  0  0  0  0  0  0  0  0  # atno 17395 bound_to 11000

$$$$
