AV-unprocessed.smi:1399|AV-procd|sdf|5685|dock5
  -GOLD-   22720 5313D 1   1.00000     0.00000
 Structure written by MMmdl.
 37 38  0  0  0  0  0  0  0  0  3 V2000
  150.3922  142.2877  155.8822 N   0  5  0  0  0  0  0  0  0  0  0  0
  149.8726  141.2024  155.2768 C   0  0  0  0  0  0  0  0  0  0  0  0
  150.1194  140.0197  155.5038 O   0  0  0  0  0  0  0  0  0  0  0  0
  148.8408  141.5663  154.2038 C   0  0  0  0  0  0  0  0  0  0  0  0
  147.6804  142.2582  154.8192 N   0  3  2  0  0  0  0  0  0  0  0  0
  147.1089  141.4929  155.9563 C   0  0  0  0  0  0  0  0  0  0  0  0
  146.0028  142.2925  156.6672 C   0  0  0  0  0  0  0  0  0  0  0  0
  144.8908  142.7317  155.6942 C   0  0  2  0  0  0  0  0  0  0  0  0
  144.0846  141.5992  155.2393 N   0  0  0  0  0  0  0  0  0  0  0  0
  143.3253  140.8223  156.0253 C   0  0  0  0  0  0  0  0  0  0  0  0
  143.2332  140.9708  157.2436 O   0  0  0  0  0  0  0  0  0  0  0  0
  142.6946  139.8759  155.3117 N   0  0  0  0  0  0  0  0  0  0  0  0
  141.8083  138.8829  155.7987 C   0  0  0  0  0  0  0  0  0  0  0  0
  140.6142  139.0350  156.5634 C   0  0  0  0  0  0  0  0  0  0  0  0
  140.0604  137.8596  156.8256 N   0  0  0  0  0  0  0  0  0  0  0  0
  140.8846  136.9631  156.2384 N   0  0  0  0  0  0  0  0  0  0  0  0
  141.9602  137.5428  155.6027 C   0  0  0  0  0  0  0  0  0  0  0  0
  145.5151  143.4632  154.4937 C   0  0  0  0  0  0  0  0  0  0  0  0
  146.6336  142.6382  153.8320 C   0  0  0  0  0  0  0  0  0  0  0  0
  140.7016  135.9705  156.2807 H   0  0  0  0  0  0  0  0  0  0  0  0
  149.8542  143.1626  155.8831 H   0  0  0  0  0  0  0  0  0  0  0  0
  149.2624  142.1710  153.3978 H   0  0  0  0  0  0  0  0  0  0  0  0
  148.5169  140.6290  153.7490 H   0  0  0  0  0  0  0  0  0  0  0  0
  146.7183  140.5397  155.5969 H   0  0  0  0  0  0  0  0  0  0  0  0
  147.8958  141.2608  156.6750 H   0  0  0  0  0  0  0  0  0  0  0  0
  145.5878  141.7081  157.4891 H   0  0  0  0  0  0  0  0  0  0  0  0
  146.4454  143.1783  157.1245 H   0  0  0  0  0  0  0  0  0  0  0  0
  144.2281  143.4303  156.2082 H   0  0  0  0  0  0  0  0  0  0  0  0
  144.0945  141.4024  154.2492 H   0  0  0  0  0  0  0  0  0  0  0  0
  142.8632  139.8646  154.3166 H   0  0  0  0  0  0  0  0  0  0  0  0
  140.1353  139.9297  156.9323 H   0  0  0  0  0  0  0  0  0  0  0  0
  142.7135  136.9675  155.0847 H   0  0  0  0  0  0  0  0  0  0  0  0
  144.7474  143.7113  153.7597 H   0  0  0  0  0  0  0  0  0  0  0  0
  145.9293  144.4147  154.8305 H   0  0  0  0  0  0  0  0  0  0  0  0
  147.0716  143.2257  153.0248 H   0  0  0  0  0  0  0  0  0  0  0  0
  146.2206  141.7385  153.3736 H   0  0  0  0  0  0  0  0  0  0  0  0
  148.0464  143.1166  155.2065 H   0  0  0  0  0  0  0  0  0  0  0  0
  1  2  1  0  0  0  0
  1 21  1  0  0  0  0
  2  3  2  0  0  0  0
  2  4  1  0  0  0  0
  4  5  1  0  0  0  0
  4 22  1  0  0  0  0
  4 23  1  0  0  0  0
  5 19  1  0  0  0  0
  5  6  1  0  0  0  0
  5 37  1  0  0  0  0
  6  7  1  0  0  0  0
  6 24  1  0  0  0  0
  6 25  1  0  0  0  0
  7  8  1  0  0  0  0
  7 26  1  0  0  0  0
  7 27  1  0  0  0  0
  8  9  1  0  0  0  0
  8 18  1  0  0  0  0
  8 28  1  0  0  0  0
  9 10  1  0  0  0  0
  9 29  1  0  0  0  0
 10 11  2  0  0  0  0
 10 12  1  0  0  0  0
 12 13  1  0  0  0  0
 12 30  1  0  0  0  0
 13 17  2  0  0  0  0
 13 14  1  0  0  0  0
 14 15  2  0  0  0  0
 14 31  1  0  0  0  0
 15 16  1  0  0  0  0
 16 20  1  0  0  0  0
 16 17  1  0  0  0  0
 17 32  1  0  0  0  0
 18 19  1  0  0  0  0
 18 33  1  0  0  0  0
 18 34  1  0  0  0  0
 19 35  1  0  0  0  0
 19 36  1  0  0  0  0
M  CHG  1   1  -1
M  CHG  1   5   1
M  END
> <s_m_source_file>
AV-unprocessed.smi

> <i_m_source_file_index>
1399

> <i_lp_mmshare_version>
43012

> <i_f3d_flags>
0

> <s_epik_input>
W05IMl1DKD1PKVtDSDJdTjFbQ0gyXVtDSDJdW0NIXShbQ0gyXVtDSDJdMSlbTkhdQyg9TylbTkhdYzJbY0hdbltuSF1bY0hdMg==

> <s_epik_cmdline>
J2VwaWtfcHl0aG9uJywgJy1waCcsICc3LjAnLCAnLXRuJywgJzgnLCAnLW1hJywgJzIwMCcsICctbWV0YWxfYmluZGluZycsICctaW1hZScsICc8aW5maWxlLm1hZT4nLCAnLW9tYWUnLCAnPG91dGZpbGUubWFlPic=

> <r_lp_tautomer_probability>
0.5

> <r_epik_Ionization_Penalty>
5.72885

> <r_epik_Ionization_Penalty_Charging>
5.7288

> <r_epik_Ionization_Penalty_Neutral>
4.21226e-05

> <r_epik_State_Penalty>
6.54882

> <r_epik_Charging_Adjusted_Penalty>
12.2776

> <i_epik_Tot_Q>
0

> <i_epik_Tot_abs_Q>
2

> <r_epik_Metal_State_Penalty>
2.51297

> <b_epik_Metal_Only>
1

> <s_lp_Force_Field>
OPLS_2005

> <r_lp_Energy>
10.897

> <b_lp_Chiralities_Consistent>
1

> <s_lp_Variant>
AV-unprocessed.smi:1399-5

> <Gold.Version>
5.8.1

> <Gold.Id.Protein>
6NUR|6NUR_protein|mol2

> <Gold.PLP.Fitness>
40.6764

> <Gold.PLP.PLP>
-23.7478

> <Gold.PLP.part.hbond>
-5.2443

> <Gold.PLP.part.metal>
0.0000

> <Gold.PLP.part.buried>
-4.4405

> <Gold.PLP.part.nonpolar>
-14.1573

> <Gold.PLP.part.repulsive>
0.1672

> <Gold.PLP.ligand.clash>
0.0000

> <Gold.PLP.ligand.torsion>
0.5531

> <Gold.PLP.Chemscore.Hbond>
6.0000

> <Gold.PLP.Chemscore.CHOScore>
0.0000

> <Gold.PLP.Chemscore.Metal>
0.0000

> <Gold.Chemscore.Hbonds>
donor molecule, donor type, donor heavy atom, donor atom, acceptor molecule, acceptor atom, score
      L1  H     1    21       P1  8028  1.00
      L1  H     5    37       P1  8028  2.00
      L1  H     9    29       P1 10175  1.00
      L1  H    12    30       P1 10175  0.94
      L1  H    16    20       P1 11000  1.00

> <Gold.PLP.Chemscore.Internal.Correction>
0.0349

> <Gold.Rescore>
     Score         DG    S(hbond)    S(metal)    S(lipo)     H(rot)  DE(clash)    DE(int)     intcor
     16.52     -17.17       3.94        0.00      32.48       2.06       0.02       0.63       ----

> <Gold.Chemscore.Fitness>
16.5216

> <Gold.Chemscore.DG>
-17.1675

> <Gold.Chemscore.ZeroCoef>
-5.4800

> <Gold.Chemscore.Hbond>
3.9390

> <Gold.Chemscore.Metal>
0.0000

> <Gold.Chemscore.Lipo>
32.4843

> <Gold.Chemscore.Internal_Hbond>
0.0000

> <Gold.Chemscore.DEClash>
0.0174

> <Gold.Chemscore.DEInternal>
0.6285

> <Gold.Chemscore.Rot>
2.0584

> <Gold.Chemscore.Internal.Correction>
   9.000000E+99

> <Gold.Chemscore.Hbonds>
donor molecule, donor type, donor heavy atom, donor atom, acceptor molecule, acceptor atom, score
      L1  H     1    21       P1  8028  1.00
      L1  H     5    37       P1  8028  0.88
      L1  H     9    29       P1 10175  0.38
      L1  H    12    30       P1 10175  0.89
      L1  H    16    20       P1 11000  0.45

> <Gold.Chemscore.Hbond.Weighted>
-13.1563

> <Gold.Chemscore.Metal.Weighted>
-0.0000

> <Gold.Chemscore.Lipo.Weighted>
-3.8007

> <Gold.Chemscore.Internal_Hbond.Weighted>
0.0000

> <Gold.Chemscore.DEClash.Weighted>
0.0174

> <Gold.Chemscore.DEInternal.Weighted>
0.6285

> <Gold.Chemscore.Rot.Weighted>
5.2695

> <Gold.Chemscore.Internal.Correction.Weighted>
   9.000000E+99

> <Gold.Protein.RotatedTorsions>
[ 6907 6896 6895 6894 ] final   50.44 input  -60.11 | X-H torsion
[ 7974 7965 7964 7962 ] final -145.38 input  175.53 | X-H torsion
[ 8008 7997 7996 7995 ] final -154.46 input   59.86 | X-H torsion
[ 10167 10162 10161 10158 ] final  -26.80 input  -65.29 | X-H torsion
[ 10718 10713 10712 10709 ] final -102.90 input   66.30 | X-H torsion
[ 10763 10752 10751 10750 ] final  -33.02 input  -60.55 | X-H torsion
[ 11005 11000 10999 10996 ] final  -62.51 input  -57.11 | X-H torsion

> <Gold.Protein.ActiveResidues>
 VAL166  LYS551  ARG553  GLY616  TRP617  ASP618  TYR619  PRO620  LYS621  CYS622 
 ASP623  PHE694  ASN695  SER759  ASP760  ASP761  ALA762  ILE779  LEU786  VAL792 
 PHE793  MET794  SER795  GLU796  ALA797  LYS798  CYS799  TRP800  GLU811  SER814 

> <Gold.Protein.RotatedAtoms>
  152.3018  134.7602  160.0355 H   0  0  0  0  0  0  0  0  0  0  0  0  # atno 6907 bound_to 6896
  151.8113  133.3377  159.3564 H   0  0  0  0  0  0  0  0  0  0  0  0  # atno 6908 bound_to 6896
  150.7277  134.5591  159.5877 H   0  0  0  0  0  0  0  0  0  0  0  0  # atno 6909 bound_to 6896
  144.8231  140.5591  143.5565 H   0  0  0  0  0  0  0  0  0  0  0  0  # atno 7974 bound_to 7965
  155.6867  140.0750  157.2464 H   0  0  0  0  0  0  0  0  0  0  0  0  # atno 8008 bound_to 7997
  154.4096  140.1672  156.2094 H   0  0  0  0  0  0  0  0  0  0  0  0  # atno 8009 bound_to 7997
  155.9487  140.3379  155.6392 H   0  0  0  0  0  0  0  0  0  0  0  0  # atno 8010 bound_to 7997
  140.7281  143.4148  151.1047 H   0  0  0  0  0  0  0  0  0  0  0  0  # atno 10167 bound_to 10162
  156.0245  130.5442  150.7176 H   0  0  0  0  0  0  0  0  0  0  0  0  # atno 10718 bound_to 10713
  153.8233  135.6872  153.4824 H   0  0  0  0  0  0  0  0  0  0  0  0  # atno 10763 bound_to 10752
  153.1556  135.4600  154.9697 H   0  0  0  0  0  0  0  0  0  0  0  0  # atno 10764 bound_to 10752
  154.7918  135.3304  154.7703 H   0  0  0  0  0  0  0  0  0  0  0  0  # atno 10765 bound_to 10752
  141.1362  133.6641  156.5539 H   0  0  0  0  0  0  0  0  0  0  0  0  # atno 11005 bound_to 11000
  145.5060  139.1481  143.3631 LP  0  0  0  0  0  0  0  0  0  0  0  0  # atno 17320 bound_to 7965
  146.2537  140.5200  142.8883 LP  0  0  0  0  0  0  0  0  0  0  0  0  # atno 17321 bound_to 7965
  139.7786  143.8389  152.3133 LP  0  0  0  0  0  0  0  0  0  0  0  0  # atno 17342 bound_to 10162
  139.8332  144.7244  150.9424 LP  0  0  0  0  0  0  0  0  0  0  0  0  # atno 17343 bound_to 10162
  157.4799  131.0901  151.0548 LP  0  0  0  0  0  0  0  0  0  0  0  0  # atno 17370 bound_to 10713
  157.0984  130.5971  149.5455 LP  0  0  0  0  0  0  0  0  0  0  0  0  # atno 17371 bound_to 10713
  140.4042  134.7330  157.4798 LP  0  0  0  0  0  0  0  0  0  0  0  0  # atno 17394 bound_to 11000
  140.0474  134.6180  155.8904 LP  0  0  0  0  0  0  0  0  0  0  0  0  # atno 17395 bound_to 11000

$$$$
