AV-unprocessed.smi:275|AV-procd|sdf|2069|dock7
  -GOLD-   2262021323D 1   1.00000     0.00000
 Structure written by MMmdl.
 65 69  0  0  0  0  0  0  0  0  1 V2000
  147.6764  136.2700  162.9544 C   0  0  0  0  0  0  0  0  0  0  0  0
  146.8744  136.7031  161.7158 C   0  0  0  0  0  0  0  0  0  0  0  0
  145.6035  137.4273  162.2009 C   0  0  0  0  0  0  0  0  0  0  0  0
  146.5352  135.5322  160.7560 C   0  0  1  0  0  0  0  0  0  0  0  0
  147.8047  134.9512  160.3102 N   0  0  0  0  0  0  0  0  0  0  0  0
  147.9597  134.7105  158.9053 C   0  0  0  0  0  0  0  0  0  0  0  0
  149.1025  134.1205  158.4600 N   0  0  0  0  0  0  0  0  0  0  0  0
  149.3077  133.8813  157.1624 C   0  0  0  0  0  0  0  0  0  0  0  0
  148.5140  134.1607  156.1300 N   0  0  0  0  0  0  0  0  0  0  0  0
  147.3749  134.7787  156.5482 C   0  0  0  0  0  0  0  0  0  0  0  0
  147.0257  135.0927  157.8945 C   0  0  0  0  0  0  0  0  0  0  0  0
  145.7928  135.7361  157.9111 N   0  0  0  0  0  0  0  0  0  0  0  0
  145.4308  135.7871  156.6593 C   0  0  0  0  0  0  0  0  0  0  0  0
  146.3207  135.2276  155.7733 N   0  0  0  0  0  0  0  0  0  0  0  0
  146.1756  135.1441  154.3306 C   0  0  0  0  0  0  0  0  0  0  0  0
  144.8876  134.4079  153.8838 C   0  0  1  0  0  0  0  0  0  0  0  0
  143.5943  135.1217  154.3478 C   0  0  0  0  0  0  0  0  0  0  0  0
  142.6395  134.1990  154.8310 O   0  0  0  0  0  0  0  0  0  0  0  0
  144.8915  134.1317  152.3591 C   0  0  1  0  0  0  0  0  0  0  0  0
  145.9906  133.1982  151.8832 C   0  0  0  0  0  0  0  0  0  0  0  0
  145.4711  132.7603  150.5182 C   0  0  0  0  0  0  0  0  0  0  0  0
  144.0536  132.7353  150.6382 O   0  0  0  0  0  0  0  0  0  0  0  0
  143.6543  133.3938  151.8364 C   0  0  0  0  0  0  0  0  0  0  0  0
  147.6359  133.7855  161.1692 C   0  0  0  0  0  0  0  0  0  0  0  0
  146.1326  134.0952  161.2159 C   0  0  0  0  0  0  0  0  0  0  0  0
  145.2939  133.2653  160.2132 C   0  0  0  0  0  0  0  0  0  0  0  0
  143.7997  133.6181  160.2105 C   0  0  0  0  0  0  0  0  0  0  0  0
  143.1936  133.4018  161.5985 C   0  0  0  0  0  0  0  0  0  0  0  0
  143.9702  134.2037  162.6446 C   0  0  0  0  0  0  0  0  0  0  0  0
  145.4806  133.8900  162.5989 C   0  0  0  0  0  0  0  0  0  0  0  0
  147.2491  135.3790  163.4152 H   0  0  0  0  0  0  0  0  0  0  0  0
  147.6886  137.0555  163.7106 H   0  0  0  0  0  0  0  0  0  0  0  0
  148.7190  136.0744  162.7180 H   0  0  0  0  0  0  0  0  0  0  0  0
  147.4815  137.4415  161.1897 H   0  0  0  0  0  0  0  0  0  0  0  0
  144.9714  136.7628  162.7901 H   0  0  0  0  0  0  0  0  0  0  0  0
  145.0072  137.8064  161.3708 H   0  0  0  0  0  0  0  0  0  0  0  0
  145.8532  138.2835  162.8279 H   0  0  0  0  0  0  0  0  0  0  0  0
  145.8882  135.8476  159.9388 H   0  0  0  0  0  0  0  0  0  0  0  0
  150.2424  133.3987  156.9179 H   0  0  0  0  0  0  0  0  0  0  0  0
  144.4971  136.2320  156.3471 H   0  0  0  0  0  0  0  0  0  0  0  0
  146.1894  136.1566  153.9248 H   0  0  0  0  0  0  0  0  0  0  0  0
  147.0607  134.6428  153.9382 H   0  0  0  0  0  0  0  0  0  0  0  0
  144.8914  133.4380  154.3833 H   0  0  0  0  0  0  0  0  0  0  0  0
  143.8100  135.8445  155.1344 H   0  0  0  0  0  0  0  0  0  0  0  0
  143.1483  135.6937  153.5341 H   0  0  0  0  0  0  0  0  0  0  0  0
  142.9040  133.3296  154.5711 H   0  0  0  0  0  0  0  0  0  0  0  0
  144.9879  135.0741  151.8172 H   0  0  0  0  0  0  0  0  0  0  0  0
  146.9678  133.6781  151.8214 H   0  0  0  0  0  0  0  0  0  0  0  0
  146.0741  132.3358  152.5466 H   0  0  0  0  0  0  0  0  0  0  0  0
  145.7416  133.4916  149.7554 H   0  0  0  0  0  0  0  0  0  0  0  0
  145.8634  131.7897  150.2130 H   0  0  0  0  0  0  0  0  0  0  0  0
  143.3251  132.6353  152.5480 H   0  0  0  0  0  0  0  0  0  0  0  0
  142.8168  134.0667  151.6503 H   0  0  0  0  0  0  0  0  0  0  0  0
  147.8806  132.8107  160.7476 H   0  0  0  0  0  0  0  0  0  0  0  0
  148.1323  133.9321  162.1295 H   0  0  0  0  0  0  0  0  0  0  0  0
  145.6674  133.3852  159.1971 H   0  0  0  0  0  0  0  0  0  0  0  0
  145.4048  132.2024  160.4323 H   0  0  0  0  0  0  0  0  0  0  0  0
  143.6652  134.6559  159.9032 H   0  0  0  0  0  0  0  0  0  0  0  0
  143.2739  133.0057  159.4777 H   0  0  0  0  0  0  0  0  0  0  0  0
  142.1435  133.6956  161.6017 H   0  0  0  0  0  0  0  0  0  0  0  0
  143.2225  132.3412  161.8516 H   0  0  0  0  0  0  0  0  0  0  0  0
  143.7897  135.2605  162.4611 H   0  0  0  0  0  0  0  0  0  0  0  0
  143.5776  133.9940  163.6400 H   0  0  0  0  0  0  0  0  0  0  0  0
  145.6204  132.8533  162.9082 H   0  0  0  0  0  0  0  0  0  0  0  0
  146.0001  134.4741  163.3575 H   0  0  0  0  0  0  0  0  0  0  0  0
  1  2  1  0  0  0  0
  1 31  1  0  0  0  0
  1 32  1  0  0  0  0
  1 33  1  0  0  0  0
  2  3  1  0  0  0  0
  2  4  1  0  0  0  0
  2 34  1  0  0  0  0
  3 35  1  0  0  0  0
  3 36  1  0  0  0  0
  3 37  1  0  0  0  0
  4 25  1  0  0  0  0
  4  5  1  0  0  0  0
  4 38  1  0  0  0  0
  5  6  1  0  0  0  0
  5 24  1  0  0  0  0
  6 11  1  0  0  0  0
  6  7  2  0  0  0  0
  7  8  1  0  0  0  0
  8  9  2  0  0  0  0
  8 39  1  0  0  0  0
  9 10  1  0  0  0  0
 10 14  1  0  0  0  0
 10 11  2  0  0  0  0
 11 12  1  0  0  0  0
 12 13  2  0  0  0  0
 13 14  1  0  0  0  0
 13 40  1  0  0  0  0
 14 15  1  0  0  0  0
 15 16  1  0  0  0  0
 15 41  1  0  0  0  0
 15 42  1  0  0  0  0
 16 17  1  0  0  0  0
 16 19  1  0  0  0  0
 16 43  1  0  0  0  0
 17 18  1  0  0  0  0
 17 44  1  0  0  0  0
 17 45  1  0  0  0  0
 18 46  1  0  0  0  0
 19 23  1  0  0  0  0
 19 20  1  0  0  0  0
 19 47  1  0  0  0  0
 20 21  1  0  0  0  0
 20 48  1  0  0  0  0
 20 49  1  0  0  0  0
 21 22  1  0  0  0  0
 21 50  1  0  0  0  0
 21 51  1  0  0  0  0
 22 23  1  0  0  0  0
 23 52  1  0  0  0  0
 23 53  1  0  0  0  0
 24 25  1  0  0  0  0
 24 54  1  0  0  0  0
 24 55  1  0  0  0  0
 25 30  1  0  0  0  0
 25 26  1  0  0  0  0
 26 27  1  0  0  0  0
 26 56  1  0  0  0  0
 26 57  1  0  0  0  0
 27 28  1  0  0  0  0
 27 58  1  0  0  0  0
 27 59  1  0  0  0  0
 28 29  1  0  0  0  0
 28 60  1  0  0  0  0
 28 61  1  0  0  0  0
 29 30  1  0  0  0  0
 29 62  1  0  0  0  0
 29 63  1  0  0  0  0
 30 64  1  0  0  0  0
 30 65  1  0  0  0  0
M  END
> <s_m_source_file>
AV-unprocessed.smi

> <i_m_source_file_index>
275

> <i_lp_mmshare_version>
43012

> <i_f3d_flags>
0

> <s_epik_input>
W0NIMl0xW0NIMl1bQ0gyXVtDSDJdW0NIMl1DMTJbQ0BIXShbQ0hdKFtDSDNdKVtDSDNdKU4oW0NIMl0yKWMobltjSF1uMyljKGMzNCluW2NIXW40W0NIMl1bQ0BIXShbQ0gyXVtPSF0pW0NAQEhdNVtDSDJdW0NIMl1PW0NIMl01

> <s_epik_cmdline>
J2VwaWtfcHl0aG9uJywgJy1waCcsICc3LjAnLCAnLXRuJywgJzgnLCAnLW1hJywgJzIwMCcsICctbWV0YWxfYmluZGluZycsICctaW1hZScsICc8aW5maWxlLm1hZT4nLCAnLW9tYWUnLCAnPG91dGZpbGUubWFlPic=

> <r_lp_tautomer_probability>
1

> <r_epik_Ionization_Penalty>
0.00375122

> <r_epik_Ionization_Penalty_Charging>
0

> <r_epik_Ionization_Penalty_Neutral>
0.00375122

> <r_epik_State_Penalty>
0.00260593

> <r_epik_Charging_Adjusted_Penalty>
0.00260593

> <i_epik_Tot_Q>
0

> <i_epik_Tot_abs_Q>
0

> <r_epik_Metal_State_Penalty>
-0

> <b_epik_Metal_Only>
0

> <s_lp_Force_Field>
OPLS_2005

> <r_lp_Energy>
68.7999

> <b_lp_Chiralities_Consistent>
1

> <s_lp_Variant>
AV-unprocessed.smi:275-8

> <Gold.Version>
5.8.1

> <Gold.Id.Protein>
6NUR|6NUR_protein|mol2

> <Gold.PLP.Fitness>
42.9329

> <Gold.PLP.PLP>
-35.9556

> <Gold.PLP.part.hbond>
-2.9092

> <Gold.PLP.part.metal>
0.0000

> <Gold.PLP.part.buried>
-6.9577

> <Gold.PLP.part.nonpolar>
-26.6417

> <Gold.PLP.part.repulsive>
0.2098

> <Gold.PLP.ligand.clash>
0.0000

> <Gold.PLP.ligand.torsion>
0.9391

> <Gold.PLP.Chemscore.Hbond>
2.7920

> <Gold.PLP.Chemscore.CHOScore>
0.0000

> <Gold.PLP.Chemscore.Metal>
0.0000

> <Gold.Chemscore.Hbonds>
donor molecule, donor type, donor heavy atom, donor atom, acceptor molecule, acceptor atom, score
      L1  H    18    46       P1 10957  0.90
      P1  H  6896  6907       L1     7  1.00
      P1  H 11000 11005       L1    18  0.71

> <Gold.PLP.Chemscore.Internal.Correction>
0.4795

> <Gold.Rescore>
     Score         DG    S(hbond)    S(metal)    S(lipo)     H(rot)  DE(clash)    DE(int)     intcor
     15.20     -18.24       2.22        0.00     101.15       2.54       0.03       3.01       ----

> <Gold.Chemscore.Fitness>
15.2026

> <Gold.Chemscore.DG>
-18.2443

> <Gold.Chemscore.ZeroCoef>
-5.4800

> <Gold.Chemscore.Hbond>
2.2233

> <Gold.Chemscore.Metal>
0.0000

> <Gold.Chemscore.Lipo>
101.1537

> <Gold.Chemscore.Internal_Hbond>
0.0000

> <Gold.Chemscore.DEClash>
0.0324

> <Gold.Chemscore.DEInternal>
3.0094

> <Gold.Chemscore.Rot>
2.5377

> <Gold.Chemscore.Internal.Correction>
   9.000000E+99

> <Gold.Chemscore.Hbonds>
donor molecule, donor type, donor heavy atom, donor atom, acceptor molecule, acceptor atom, score
      L1  H    18    46       P1 10957  0.87
      P1  H  6896  6907       L1     7  0.48
      P1  H 11000 11005       L1    18  0.24

> <Gold.Chemscore.Hbond.Weighted>
-7.4259

> <Gold.Chemscore.Metal.Weighted>
-0.0000

> <Gold.Chemscore.Lipo.Weighted>
-11.8350

> <Gold.Chemscore.Internal_Hbond.Weighted>
0.0000

> <Gold.Chemscore.DEClash.Weighted>
0.0324

> <Gold.Chemscore.DEInternal.Weighted>
3.0094

> <Gold.Chemscore.Rot.Weighted>
6.4966

> <Gold.Chemscore.Internal.Correction.Weighted>
   9.000000E+99

> <Gold.Protein.RotatedTorsions>
[ 6907 6896 6895 6894 ] final -118.14 input  -60.11 | X-H torsion
[ 7974 7965 7964 7962 ] final -136.30 input  175.53 | X-H torsion
[ 8008 7997 7996 7995 ] final  -86.80 input   59.86 | X-H torsion
[ 10167 10162 10161 10158 ] final  165.01 input  -65.29 | X-H torsion
[ 10718 10713 10712 10709 ] final    2.25 input   66.30 | X-H torsion
[ 10763 10752 10751 10750 ] final   71.02 input  -60.55 | X-H torsion
[ 11005 11000 10999 10996 ] final  -20.49 input  -57.11 | X-H torsion

> <Gold.Protein.ActiveResidues>
 VAL166  LYS551  ARG553  GLY616  TRP617  ASP618  TYR619  PRO620  LYS621  CYS622 
 ASP623  PHE694  ASN695  SER759  ASP760  ASP761  ALA762  ILE779  LEU786  VAL792 
 PHE793  MET794  SER795  GLU796  ALA797  LYS798  CYS799  TRP800  GLU811  SER814 

> <Gold.Protein.RotatedAtoms>
  150.8194  133.8279  159.3145 H   0  0  0  0  0  0  0  0  0  0  0  0  # atno 6907 bound_to 6896
  151.6041  135.1043  160.0076 H   0  0  0  0  0  0  0  0  0  0  0  0  # atno 6908 bound_to 6896
  152.4284  133.7194  159.6581 H   0  0  0  0  0  0  0  0  0  0  0  0  # atno 6909 bound_to 6896
  144.8939  140.6680  143.5128 H   0  0  0  0  0  0  0  0  0  0  0  0  # atno 7974 bound_to 7965
  154.6560  140.0574  157.0009 H   0  0  0  0  0  0  0  0  0  0  0  0  # atno 8008 bound_to 7997
  155.1300  140.3255  155.4458 H   0  0  0  0  0  0  0  0  0  0  0  0  # atno 8009 bound_to 7997
  156.2597  140.1982  156.6419 H   0  0  0  0  0  0  0  0  0  0  0  0  # atno 8010 bound_to 7997
  139.4898  144.4176  151.9224 H   0  0  0  0  0  0  0  0  0  0  0  0  # atno 10167 bound_to 10162
  156.8602  130.5584  149.5663 H   0  0  0  0  0  0  0  0  0  0  0  0  # atno 10718 bound_to 10713
  153.0374  135.5152  154.7529 H   0  0  0  0  0  0  0  0  0  0  0  0  # atno 10763 bound_to 10752
  154.6494  135.2923  155.0008 H   0  0  0  0  0  0  0  0  0  0  0  0  # atno 10764 bound_to 10752
  154.0897  135.6652  153.4903 H   0  0  0  0  0  0  0  0  0  0  0  0  # atno 10765 bound_to 10752
  140.8470  133.7885  155.9923 H   0  0  0  0  0  0  0  0  0  0  0  0  # atno 11005 bound_to 11000
  145.3735  139.1653  143.4319 LP  0  0  0  0  0  0  0  0  0  0  0  0  # atno 17320 bound_to 7965
  146.3070  140.3809  142.8684 LP  0  0  0  0  0  0  0  0  0  0  0  0  # atno 17321 bound_to 7965
  140.3620  144.2962  150.5932 LP  0  0  0  0  0  0  0  0  0  0  0  0  # atno 17342 bound_to 10162
  140.5395  143.2226  151.8108 LP  0  0  0  0  0  0  0  0  0  0  0  0  # atno 17343 bound_to 10162
  156.0781  130.5798  150.9511 LP  0  0  0  0  0  0  0  0  0  0  0  0  # atno 17370 bound_to 10713
  157.6254  131.0926  150.8543 LP  0  0  0  0  0  0  0  0  0  0  0  0  # atno 17371 bound_to 10713
  140.8833  134.2585  157.5133 LP  0  0  0  0  0  0  0  0  0  0  0  0  # atno 17394 bound_to 11000
  139.8703  134.9625  156.4433 LP  0  0  0  0  0  0  0  0  0  0  0  0  # atno 17395 bound_to 11000

$$$$
