AV-unprocessed.smi:59|AV-procd|sdf|590|dock1
  -GOLD-   2262016483D 1   1.00000     0.00000
 Structure written by MMmdl.
 29 30  0  0  0  0  0  0  0  0  2 V2000
  147.9929  140.0670  154.4328 C   0  0  0  0  0  0  0  0  0  0  0  0
  149.1651  139.2263  154.6527 N   0  0  0  0  0  0  0  0  0  0  0  0
  149.1669  137.8932  154.7941 C   0  0  0  0  0  0  0  0  0  0  0  0
  148.1813  137.1554  154.7868 O   0  0  0  0  0  0  0  0  0  0  0  0
  150.5869  137.3907  154.9911 C   0  0  1  0  0  0  0  0  0  0  0  0
  150.8297  136.1905  154.2813 O   0  0  0  0  0  0  0  0  0  0  0  0
  151.4242  138.5774  154.4743 C   0  0  2  0  0  0  0  0  0  0  0  0
  152.8448  138.6660  155.0688 C   0  0  0  0  0  0  0  0  0  0  0  0
  153.2122  137.7886  155.8816 O   0  0  0  0  0  0  0  0  0  0  0  0
  153.5520  139.6216  154.6806 O   0  5  0  0  0  0  0  0  0  0  0  0
  150.5042  139.8138  154.6690 C   0  0  2  0  0  0  0  0  0  0  0  0
  150.7568  140.6035  155.9396 C   0  0  0  0  0  0  0  0  0  0  0  0
  151.1003  140.0910  157.2240 C   0  0  0  0  0  0  0  0  0  0  0  0
  151.2575  141.0379  158.1346 N   0  0  0  0  0  0  0  0  0  0  0  0
  151.0134  142.1850  157.4696 N   0  0  0  0  0  0  0  0  0  0  0  0
  151.0892  143.4469  158.1735 C   0  0  0  0  0  0  0  0  0  0  0  0
  150.7101  141.9551  156.1457 C   0  0  0  0  0  0  0  0  0  0  0  0
  150.7320  137.2185  156.0585 H   0  0  0  0  0  0  0  0  0  0  0  0
  151.5529  138.4391  153.3985 H   0  0  0  0  0  0  0  0  0  0  0  0
  150.6023  140.4638  153.7981 H   0  0  0  0  0  0  0  0  0  0  0  0
  147.0601  139.5091  154.5243 H   0  0  0  0  0  0  0  0  0  0  0  0
  148.0278  140.5050  153.4353 H   0  0  0  0  0  0  0  0  0  0  0  0
  147.9669  140.8790  155.1597 H   0  0  0  0  0  0  0  0  0  0  0  0
  150.2418  136.1592  153.5424 H   0  0  0  0  0  0  0  0  0  0  0  0
  151.2383  139.0610  157.5179 H   0  0  0  0  0  0  0  0  0  0  0  0
  150.9162  144.2718  157.4818 H   0  0  0  0  0  0  0  0  0  0  0  0
  152.0763  143.5615  158.6223 H   0  0  0  0  0  0  0  0  0  0  0  0
  150.3324  143.4770  158.9579 H   0  0  0  0  0  0  0  0  0  0  0  0
  150.4850  142.7625  155.4645 H   0  0  0  0  0  0  0  0  0  0  0  0
  1  2  1  0  0  0  0
  1 21  1  0  0  0  0
  1 22  1  0  0  0  0
  1 23  1  0  0  0  0
  2 11  1  0  0  0  0
  2  3  1  0  0  0  0
  3  4  2  0  0  0  0
  3  5  1  0  0  0  0
  5 18  1  0  0  0  0
  5  6  1  0  0  0  0
  5  7  1  0  0  0  0
  6 24  1  0  0  0  0
  7 19  1  0  0  0  0
  7  8  1  0  0  0  0
  7 11  1  0  0  0  0
  8  9  2  0  0  0  0
  8 10  1  0  0  0  0
 11 20  1  0  0  0  0
 11 12  1  0  0  0  0
 12 17  2  0  0  0  0
 12 13  1  0  0  0  0
 13 14  2  0  0  0  0
 13 25  1  0  0  0  0
 14 15  1  0  0  0  0
 15 16  1  0  0  0  0
 15 17  1  0  0  0  0
 16 26  1  0  0  0  0
 16 27  1  0  0  0  0
 16 28  1  0  0  0  0
 17 29  1  0  0  0  0
M  CHG  1  10  -1
M  END
> <s_m_source_file>
AV-unprocessed.smi

> <i_m_source_file_index>
59

> <i_lp_mmshare_version>
43012

> <i_f3d_flags>
0

> <s_epik_input>
W0NIM11OMUMoPU8pW0NASF0oW09IXSlbQ0BIXShDKD1PKVtPSF0pW0NASF0xYzJbY0hdbm4oW0NIM10pW2NIXTI=

> <s_epik_cmdline>
J2VwaWtfcHl0aG9uJywgJy1waCcsICc3LjAnLCAnLXRuJywgJzgnLCAnLW1hJywgJzIwMCcsICctbWV0YWxfYmluZGluZycsICctaW1hZScsICc8aW5maWxlLm1hZT4nLCAnLW9tYWUnLCAnPG91dGZpbGUubWFlPic=

> <r_lp_tautomer_probability>
1

> <r_epik_Ionization_Penalty>
0.00173515

> <r_epik_Ionization_Penalty_Charging>
0.00120567

> <r_epik_Ionization_Penalty_Neutral>
0.000529476

> <r_epik_State_Penalty>
-0

> <r_epik_Charging_Adjusted_Penalty>
0.00120567

> <i_epik_Tot_Q>
-1

> <i_epik_Tot_abs_Q>
1

> <r_epik_Metal_State_Penalty>
-0

> <b_epik_Metal_Only>
0

> <s_lp_Force_Field>
OPLS_2005

> <r_lp_Energy>
8.21521

> <b_lp_Chiralities_Consistent>
1

> <s_lp_Variant>
AV-unprocessed.smi:59-6

> <Gold.Version>
5.8.1

> <Gold.Id.Protein>
6NUR|6NUR_protein|mol2

> <Gold.PLP.Fitness>
41.5861

> <Gold.PLP.PLP>
-30.7436

> <Gold.PLP.part.hbond>
-5.4105

> <Gold.PLP.part.metal>
0.0000

> <Gold.PLP.part.buried>
-2.3493

> <Gold.PLP.part.nonpolar>
-24.0204

> <Gold.PLP.part.repulsive>
0.1357

> <Gold.PLP.ligand.clash>
0.0000

> <Gold.PLP.ligand.torsion>
0.6000

> <Gold.PLP.Chemscore.Hbond>
3.0075

> <Gold.PLP.Chemscore.CHOScore>
1.0000

> <Gold.PLP.Chemscore.Metal>
0.0000

> <Gold.Chemscore.Hbonds>
donor molecule, donor type, donor heavy atom, donor atom, acceptor molecule, acceptor atom, score
      L1  H     6    24       P1  7948  0.36
      P1  H  7997  8008       L1    10  2.00
      P1  H 10752 10763       L1     6  0.67
      L1  C    17    29       P1  8028  1.00

> <Gold.PLP.Chemscore.Internal.Correction>
0.0199

> <Gold.Rescore>
     Score         DG    S(hbond)    S(metal)    S(lipo)     H(rot)  DE(clash)    DE(int)     intcor
     12.26     -12.41       1.75        0.00      54.55       2.06       0.10       0.06       ----

> <Gold.Chemscore.Fitness>
12.2620

> <Gold.Chemscore.DG>
-12.4130

> <Gold.Chemscore.ZeroCoef>
-5.4800

> <Gold.Chemscore.Hbond>
1.7469

> <Gold.Chemscore.Metal>
0.0000

> <Gold.Chemscore.Lipo>
54.5478

> <Gold.Chemscore.Internal_Hbond>
0.0000

> <Gold.Chemscore.DEClash>
0.0953

> <Gold.Chemscore.DEInternal>
0.0557

> <Gold.Chemscore.Rot>
2.0639

> <Gold.Chemscore.Internal.Correction>
   9.000000E+99

> <Gold.Chemscore.Hbonds>
donor molecule, donor type, donor heavy atom, donor atom, acceptor molecule, acceptor atom, score
      L1  H     6    24       P1  7948  0.01
      P1  H  7997  8008       L1    10  0.95
      P1  H 10752 10763       L1     6  0.55

> <Gold.Chemscore.Hbond.Weighted>
-5.8346

> <Gold.Chemscore.Metal.Weighted>
-0.0000

> <Gold.Chemscore.Lipo.Weighted>
-6.3821

> <Gold.Chemscore.Internal_Hbond.Weighted>
0.0000

> <Gold.Chemscore.DEClash.Weighted>
0.0953

> <Gold.Chemscore.DEInternal.Weighted>
0.0557

> <Gold.Chemscore.Rot.Weighted>
5.2837

> <Gold.Chemscore.Internal.Correction.Weighted>
   9.000000E+99

> <Gold.Protein.RotatedTorsions>
[ 6907 6896 6895 6894 ] final  165.16 input  -60.11 | X-H torsion
[ 7974 7965 7964 7962 ] final  165.84 input  175.53 | X-H torsion
[ 8008 7997 7996 7995 ] final    2.19 input   59.86 | X-H torsion
[ 10167 10162 10161 10158 ] final -172.58 input  -65.29 | X-H torsion
[ 10718 10713 10712 10709 ] final -163.98 input   66.30 | X-H torsion
[ 10763 10752 10751 10750 ] final   46.39 input  -60.55 | X-H torsion
[ 11005 11000 10999 10996 ] final  121.50 input  -57.11 | X-H torsion

> <Gold.Protein.ActiveResidues>
 VAL166  LYS551  ARG553  GLY616  TRP617  ASP618  TYR619  PRO620  LYS621  CYS622 
 ASP623  PHE694  ASN695  SER759  ASP760  ASP761  ALA762  ILE779  LEU786  VAL792 
 PHE793  MET794  SER795  GLU796  ALA797  LYS798  CYS799  TRP800  GLU811  SER814 

> <Gold.Protein.RotatedAtoms>
  151.8987  133.3533  159.3823 H   0  0  0  0  0  0  0  0  0  0  0  0  # atno 6907 bound_to 6896
  150.7085  134.4850  159.5498 H   0  0  0  0  0  0  0  0  0  0  0  0  # atno 6908 bound_to 6896
  152.2434  134.8206  160.0508 H   0  0  0  0  0  0  0  0  0  0  0  0  # atno 6909 bound_to 6896
  144.7486  139.8528  143.6374 H   0  0  0  0  0  0  0  0  0  0  0  0  # atno 7974 bound_to 7965
  154.6886  140.2648  155.6835 H   0  0  0  0  0  0  0  0  0  0  0  0  # atno 8008 bound_to 7997
  156.2724  140.2796  156.1379 H   0  0  0  0  0  0  0  0  0  0  0  0  # atno 8009 bound_to 7997
  155.0929  140.0373  157.2664 H   0  0  0  0  0  0  0  0  0  0  0  0  # atno 8010 bound_to 7997
  139.5737  144.1583  152.1420 H   0  0  0  0  0  0  0  0  0  0  0  0  # atno 10167 bound_to 10162
  156.6324  130.8935  151.2980 H   0  0  0  0  0  0  0  0  0  0  0  0  # atno 10718 bound_to 10713
  152.9811  135.6009  154.3593 H   0  0  0  0  0  0  0  0  0  0  0  0  # atno 10763 bound_to 10752
  154.3276  135.2769  155.2490 H   0  0  0  0  0  0  0  0  0  0  0  0  # atno 10764 bound_to 10752
  154.4629  135.5961  153.6323 H   0  0  0  0  0  0  0  0  0  0  0  0  # atno 10765 bound_to 10752
  139.9228  134.9639  156.7967 H   0  0  0  0  0  0  0  0  0  0  0  0  # atno 11005 bound_to 11000
  146.1403  139.4459  143.0113 LP  0  0  0  0  0  0  0  0  0  0  0  0  # atno 17320 bound_to 7965
  145.7028  141.0131  143.1495 LP  0  0  0  0  0  0  0  0  0  0  0  0  # atno 17321 bound_to 7965
  140.1121  144.5448  150.6918 LP  0  0  0  0  0  0  0  0  0  0  0  0  # atno 17342 bound_to 10162
  140.7020  143.2441  151.4836 LP  0  0  0  0  0  0  0  0  0  0  0  0  # atno 17343 bound_to 10162
  157.7196  130.9541  150.1386 LP  0  0  0  0  0  0  0  0  0  0  0  0  # atno 17370 bound_to 10713
  156.2224  130.3675  149.8540 LP  0  0  0  0  0  0  0  0  0  0  0  0  # atno 17371 bound_to 10713
  140.6423  133.9807  155.7713 LP  0  0  0  0  0  0  0  0  0  0  0  0  # atno 17394 bound_to 11000
  141.0763  134.0129  157.3452 LP  0  0  0  0  0  0  0  0  0  0  0  0  # atno 17395 bound_to 11000

$$$$
