AV-unprocessed.smi:1336|AV-procd|sdf|5497|dock7
  -GOLD-   22720 5 83D 1   1.00000     0.00000
 Structure written by MMmdl.
 43 43  0  0  0  0  0  0  0  0  1 V2000
  149.0393  133.3218  153.5999 C   0  0  0  0  0  0  0  0  0  0  0  0
  149.6066  134.0959  154.7944 C   0  0  0  0  0  0  0  0  0  0  0  0
  148.6275  135.1554  155.3255 C   0  0  0  0  0  0  0  0  0  0  0  0
  148.7046  136.3922  154.5572 N   0  0  0  0  0  0  0  0  0  0  0  0
  148.8748  137.6161  155.0800 C   0  0  0  0  0  0  0  0  0  0  0  0
  148.9724  137.8254  156.2906 O   0  0  0  0  0  0  0  0  0  0  0  0
  148.9240  138.7812  154.0777 C   0  0  1  0  0  0  0  0  0  0  0  0
  147.5879  138.8154  153.3173 C   0  0  0  0  0  0  0  0  0  0  0  0
  149.0817  140.0577  154.7736 N   0  0  0  0  0  0  0  0  0  0  0  0
  150.2525  140.5893  155.1616 C   0  0  0  0  0  0  0  0  0  0  0  0
  151.3394  140.0471  154.9584 O   0  0  0  0  0  0  0  0  0  0  0  0
  150.1846  141.9321  155.8942 C   0  0  0  0  0  0  0  0  0  0  0  0
  150.9720  141.8770  157.1712 C   0  0  0  0  0  0  0  0  0  0  0  0
  151.7975  140.8621  157.5886 C   0  0  0  0  0  0  0  0  0  0  0  0
  152.5160  141.2041  159.1386 S   0  0  0  0  0  0  0  0  0  0  0  0
  151.6611  142.7428  159.1631 C   0  0  0  0  0  0  0  0  0  0  0  0
  151.7646  143.7220  160.2900 C   0  0  0  0  0  0  0  0  0  0  0  0
  152.1889  145.1160  159.8051 C   0  0  0  0  0  0  0  0  0  0  0  0
  152.6379  143.1928  161.4368 C   0  0  0  0  0  0  0  0  0  0  0  0
  150.9112  142.9423  158.0753 N   0  0  0  0  0  0  0  0  0  0  0  0
  149.7512  132.5758  153.2466 H   0  0  0  0  0  0  0  0  0  0  0  0
  148.8174  133.9905  152.7677 H   0  0  0  0  0  0  0  0  0  0  0  0
  148.1187  132.8029  153.8681 H   0  0  0  0  0  0  0  0  0  0  0  0
  149.8558  133.3944  155.5914 H   0  0  0  0  0  0  0  0  0  0  0  0
  150.5425  134.5707  154.4978 H   0  0  0  0  0  0  0  0  0  0  0  0
  147.6057  134.7721  155.3168 H   0  0  0  0  0  0  0  0  0  0  0  0
  148.8613  135.3895  156.3644 H   0  0  0  0  0  0  0  0  0  0  0  0
  148.6326  136.3110  153.5533 H   0  0  0  0  0  0  0  0  0  0  0  0
  149.7440  138.6394  153.3706 H   0  0  0  0  0  0  0  0  0  0  0  0
  147.4216  137.8883  152.7671 H   0  0  0  0  0  0  0  0  0  0  0  0
  147.5738  139.6290  152.5914 H   0  0  0  0  0  0  0  0  0  0  0  0
  146.7405  138.9596  153.9895 H   0  0  0  0  0  0  0  0  0  0  0  0
  148.2357  140.5644  154.9899 H   0  0  0  0  0  0  0  0  0  0  0  0
  150.5599  142.7304  155.2522 H   0  0  0  0  0  0  0  0  0  0  0  0
  149.1379  142.1653  156.0930 H   0  0  0  0  0  0  0  0  0  0  0  0
  152.0226  139.9356  157.0818 H   0  0  0  0  0  0  0  0  0  0  0  0
  150.7579  143.8308  160.6953 H   0  0  0  0  0  0  0  0  0  0  0  0
  151.4998  145.4950  159.0497 H   0  0  0  0  0  0  0  0  0  0  0  0
  153.1868  145.0959  159.3657 H   0  0  0  0  0  0  0  0  0  0  0  0
  152.2026  145.8308  160.6281 H   0  0  0  0  0  0  0  0  0  0  0  0
  152.2574  142.2431  161.8137 H   0  0  0  0  0  0  0  0  0  0  0  0
  152.6585  143.8948  162.2709 H   0  0  0  0  0  0  0  0  0  0  0  0
  153.6665  143.0348  161.1113 H   0  0  0  0  0  0  0  0  0  0  0  0
  1  2  1  0  0  0  0
  1 21  1  0  0  0  0
  1 22  1  0  0  0  0
  1 23  1  0  0  0  0
  2  3  1  0  0  0  0
  2 24  1  0  0  0  0
  2 25  1  0  0  0  0
  3  4  1  0  0  0  0
  3 26  1  0  0  0  0
  3 27  1  0  0  0  0
  4  5  1  0  0  0  0
  4 28  1  0  0  0  0
  5  6  2  0  0  0  0
  5  7  1  0  0  0  0
  7  8  1  0  0  0  0
  7  9  1  0  0  0  0
  7 29  1  0  0  0  0
  8 30  1  0  0  0  0
  8 31  1  0  0  0  0
  8 32  1  0  0  0  0
  9 10  1  0  0  0  0
  9 33  1  0  0  0  0
 10 11  2  0  0  0  0
 10 12  1  0  0  0  0
 12 13  1  0  0  0  0
 12 34  1  0  0  0  0
 12 35  1  0  0  0  0
 13 20  1  0  0  0  0
 13 14  2  0  0  0  0
 14 15  1  0  0  0  0
 14 36  1  0  0  0  0
 15 16  1  0  0  0  0
 16 17  1  0  0  0  0
 16 20  2  0  0  0  0
 17 18  1  0  0  0  0
 17 19  1  0  0  0  0
 17 37  1  0  0  0  0
 18 38  1  0  0  0  0
 18 39  1  0  0  0  0
 18 40  1  0  0  0  0
 19 41  1  0  0  0  0
 19 42  1  0  0  0  0
 19 43  1  0  0  0  0
M  END
> <s_m_source_file>
AV-unprocessed.smi

> <i_m_source_file_index>
1336

> <i_lp_mmshare_version>
43012

> <i_f3d_flags>
0

> <s_epik_input>
W0NIM11bQ0gyXVtDSDJdW05IXUMoPU8pW0NASF0oW0NIM10pW05IXUMoPU8pW0NIMl1jMVtjSF1zYyhuMSlbQ0hdKFtDSDNdKVtDSDNd

> <s_epik_cmdline>
J2VwaWtfcHl0aG9uJywgJy1waCcsICc3LjAnLCAnLXRuJywgJzgnLCAnLW1hJywgJzIwMCcsICctbWV0YWxfYmluZGluZycsICctaW1hZScsICc8aW5maWxlLm1hZT4nLCAnLW9tYWUnLCAnPG91dGZpbGUubWFlPic=

> <r_lp_tautomer_probability>
1

> <r_epik_Ionization_Penalty>
3.10785e-05

> <r_epik_Ionization_Penalty_Charging>
0

> <r_epik_Ionization_Penalty_Neutral>
3.10785e-05

> <r_epik_State_Penalty>
-0

> <r_epik_Charging_Adjusted_Penalty>
0

> <i_epik_Tot_Q>
0

> <i_epik_Tot_abs_Q>
0

> <r_epik_Metal_State_Penalty>
-0

> <b_epik_Metal_Only>
0

> <s_lp_Force_Field>
OPLS_2005

> <r_lp_Energy>
-5.85781

> <b_lp_Chiralities_Consistent>
1

> <s_lp_Variant>
AV-unprocessed.smi:1336-2

> <Gold.Version>
5.8.1

> <Gold.Id.Protein>
6NUR|6NUR_protein|mol2

> <Gold.PLP.Fitness>
42.3489

> <Gold.PLP.PLP>
-37.4893

> <Gold.PLP.part.hbond>
-2.0000

> <Gold.PLP.part.metal>
0.0000

> <Gold.PLP.part.buried>
-4.0450

> <Gold.PLP.part.nonpolar>
-31.2750

> <Gold.PLP.part.repulsive>
0.2397

> <Gold.PLP.ligand.clash>
0.0000

> <Gold.PLP.ligand.torsion>
0.6802

> <Gold.PLP.Chemscore.Hbond>
2.0000

> <Gold.PLP.Chemscore.CHOScore>
0.0000

> <Gold.PLP.Chemscore.Metal>
0.0000

> <Gold.Chemscore.Hbonds>
donor molecule, donor type, donor heavy atom, donor atom, acceptor molecule, acceptor atom, score
      L1  H     4    28       P1  7948  1.00
      P1  H  7989  7998       L1    11  0.75

> <Gold.PLP.Chemscore.Internal.Correction>
0.2199

> <Gold.Rescore>
     Score         DG    S(hbond)    S(metal)    S(lipo)     H(rot)  DE(clash)    DE(int)     intcor
     15.97     -18.30       1.90        0.00      99.87       2.04       0.24       2.08       ----

> <Gold.Chemscore.Fitness>
15.9737

> <Gold.Chemscore.DG>
-18.2956

> <Gold.Chemscore.ZeroCoef>
-5.4800

> <Gold.Chemscore.Hbond>
1.8984

> <Gold.Chemscore.Metal>
0.0000

> <Gold.Chemscore.Lipo>
99.8749

> <Gold.Chemscore.Internal_Hbond>
0.0000

> <Gold.Chemscore.DEClash>
0.2444

> <Gold.Chemscore.DEInternal>
2.0775

> <Gold.Chemscore.Rot>
2.0353

> <Gold.Chemscore.Internal.Correction>
   9.000000E+99

> <Gold.Chemscore.Hbonds>
donor molecule, donor type, donor heavy atom, donor atom, acceptor molecule, acceptor atom, score
      L1  H     4    28       P1  7948  1.00
      P1  H  7989  7998       L1    11  0.09

> <Gold.Chemscore.Hbond.Weighted>
-6.3406

> <Gold.Chemscore.Metal.Weighted>
-0.0000

> <Gold.Chemscore.Lipo.Weighted>
-11.6854

> <Gold.Chemscore.Internal_Hbond.Weighted>
0.0000

> <Gold.Chemscore.DEClash.Weighted>
0.2444

> <Gold.Chemscore.DEInternal.Weighted>
2.0775

> <Gold.Chemscore.Rot.Weighted>
5.2104

> <Gold.Chemscore.Internal.Correction.Weighted>
   9.000000E+99

> <Gold.Protein.RotatedTorsions>
[ 6907 6896 6895 6894 ] final  170.78 input  -60.11 | X-H torsion
[ 7974 7965 7964 7962 ] final   37.92 input  175.53 | X-H torsion
[ 8008 7997 7996 7995 ] final  -95.48 input   59.86 | X-H torsion
[ 10167 10162 10161 10158 ] final  112.41 input  -65.29 | X-H torsion
[ 10718 10713 10712 10709 ] final -170.19 input   66.30 | X-H torsion
[ 10763 10752 10751 10750 ] final -101.48 input  -60.55 | X-H torsion
[ 11005 11000 10999 10996 ] final   94.72 input  -57.11 | X-H torsion

> <Gold.Protein.ActiveResidues>
 VAL166  LYS551  ARG553  GLY616  TRP617  ASP618  TYR619  PRO620  LYS621  CYS622 
 ASP623  PHE694  ASN695  SER759  ASP760  ASP761  ALA762  ILE779  LEU786  VAL792 
 PHE793  MET794  SER795  GLU796  ALA797  LYS798  CYS799  TRP800  GLU811  SER814 

> <Gold.Protein.RotatedAtoms>
  151.8106  133.3381  159.3553 H   0  0  0  0  0  0  0  0  0  0  0  0  # atno 6907 bound_to 6896
  150.7327  134.5667  159.5879 H   0  0  0  0  0  0  0  0  0  0  0  0  # atno 6908 bound_to 6896
  152.3078  134.7536  160.0394 H   0  0  0  0  0  0  0  0  0  0  0  0  # atno 6909 bound_to 6896
  146.1101  139.5835  142.9358 H   0  0  0  0  0  0  0  0  0  0  0  0  # atno 7974 bound_to 7965
  154.7619  140.0480  157.0980 H   0  0  0  0  0  0  0  0  0  0  0  0  # atno 8008 bound_to 7997
  154.9927  140.3115  155.4880 H   0  0  0  0  0  0  0  0  0  0  0  0  # atno 8009 bound_to 7997
  156.2905  140.2215  156.5033 H   0  0  0  0  0  0  0  0  0  0  0  0  # atno 8010 bound_to 7997
  139.6538  144.7129  151.1997 H   0  0  0  0  0  0  0  0  0  0  0  0  # atno 10167 bound_to 10162
  156.7225  130.9275  151.3098 H   0  0  0  0  0  0  0  0  0  0  0  0  # atno 10718 bound_to 10713
  154.7661  135.4896  153.9557 H   0  0  0  0  0  0  0  0  0  0  0  0  # atno 10763 bound_to 10752
  153.1310  135.6753  153.9186 H   0  0  0  0  0  0  0  0  0  0  0  0  # atno 10764 bound_to 10752
  153.8890  135.3123  155.3425 H   0  0  0  0  0  0  0  0  0  0  0  0  # atno 10765 bound_to 10752
  139.8796  134.8860  156.3905 H   0  0  0  0  0  0  0  0  0  0  0  0  # atno 11005 bound_to 11000
  145.5681  141.0397  143.2189 LP  0  0  0  0  0  0  0  0  0  0  0  0  # atno 17320 bound_to 7965
  144.7504  139.7209  143.7275 LP  0  0  0  0  0  0  0  0  0  0  0  0  # atno 17321 bound_to 7965
  140.7550  143.6107  150.8609 LP  0  0  0  0  0  0  0  0  0  0  0  0  # atno 17342 bound_to 10162
  139.9757  143.6006  152.2959 LP  0  0  0  0  0  0  0  0  0  0  0  0  # atno 17343 bound_to 10162
  157.6892  130.9216  150.0468 LP  0  0  0  0  0  0  0  0  0  0  0  0  # atno 17370 bound_to 10713
  156.1584  130.3643  149.9334 LP  0  0  0  0  0  0  0  0  0  0  0  0  # atno 17371 bound_to 10713
  140.9336  133.7562  156.0056 LP  0  0  0  0  0  0  0  0  0  0  0  0  # atno 17394 bound_to 11000
  140.8302  134.3187  157.5351 LP  0  0  0  0  0  0  0  0  0  0  0  0  # atno 17395 bound_to 11000

$$$$
