AV-unprocessed.smi:2936|AV-procd|sdf|11257|dock7
  -GOLD-   2272016153D 1   1.00000     0.00000
 Structure written by MMmdl.
 23 24  0  0  0  0  0  0  0  0  2 V2000
  152.7144  136.2877  156.8949 O   0  0  0  0  0  0  0  0  0  0  0  0
  152.7401  137.0480  157.8613 C   0  0  0  0  0  0  0  0  0  0  0  0
  152.8796  136.5905  159.1431 N   0  5  0  0  0  0  0  0  0  0  0  0
  152.9054  137.5224  160.2492 N   0  0  0  0  0  0  0  0  0  0  0  0
  152.7984  138.7768  160.0512 C   0  0  0  0  0  0  0  0  0  0  0  0
  152.6433  139.3546  158.6993 C   0  0  0  0  0  0  0  0  0  0  0  0
  152.5308  140.7287  158.5494 N   0  0  0  0  0  0  0  0  0  0  0  0
  153.4019  141.6824  159.2195 C   0  0  0  0  0  0  0  0  0  0  0  0
  152.5644  142.7026  160.0109 C   0  0  0  0  0  0  0  0  0  0  0  0
  151.6264  143.3289  159.1395 O   0  0  0  0  0  0  0  0  0  0  0  0
  150.7247  142.3920  158.5556 C   0  0  0  0  0  0  0  0  0  0  0  0
  151.5147  141.3651  157.7251 C   0  0  0  0  0  0  0  0  0  0  0  0
  152.6179  138.4955  157.6479 C   0  0  0  0  0  0  0  0  0  0  0  0
  152.4432  139.0740  156.0240 Cl  0  0  0  0  0  0  0  0  0  0  0  0
  152.8155  139.4943  160.8758 H   0  0  0  0  0  0  0  0  0  0  0  0
  154.0877  141.1585  159.8864 H   0  0  0  0  0  0  0  0  0  0  0  0
  154.0102  142.1915  158.4711 H   0  0  0  0  0  0  0  0  0  0  0  0
  152.0425  142.2227  160.8396 H   0  0  0  0  0  0  0  0  0  0  0  0
  153.2120  143.4651  160.4430 H   0  0  0  0  0  0  0  0  0  0  0  0
  150.1403  141.9000  159.3340 H   0  0  0  0  0  0  0  0  0  0  0  0
  150.0196  142.9268  157.9195 H   0  0  0  0  0  0  0  0  0  0  0  0
  152.0002  141.8543  156.8800 H   0  0  0  0  0  0  0  0  0  0  0  0
  150.8403  140.6127  157.3148 H   0  0  0  0  0  0  0  0  0  0  0  0
  1  2  2  0  0  0  0
  2 13  1  0  0  0  0
  2  3  1  0  0  0  0
  3  4  1  0  0  0  0
  4  5  2  0  0  0  0
  5  6  1  0  0  0  0
  5 15  1  0  0  0  0
  6  7  1  0  0  0  0
  6 13  2  0  0  0  0
  7 12  1  0  0  0  0
  7  8  1  0  0  0  0
  8  9  1  0  0  0  0
  8 16  1  0  0  0  0
  8 17  1  0  0  0  0
  9 10  1  0  0  0  0
  9 18  1  0  0  0  0
  9 19  1  0  0  0  0
 10 11  1  0  0  0  0
 11 12  1  0  0  0  0
 11 20  1  0  0  0  0
 11 21  1  0  0  0  0
 12 22  1  0  0  0  0
 12 23  1  0  0  0  0
 13 14  1  0  0  0  0
M  CHG  1   3  -1
M  END
> <s_m_source_file>
AV-unprocessed.smi

> <i_m_source_file_index>
2936

> <i_lp_mmshare_version>
43012

> <i_f3d_flags>
0

> <s_epik_input>
Tz1jMVtuSF1uW2NIXWMoYzFDbClOMltDSDJdW0NIMl1PW0NIMl1bQ0gyXTI=

> <s_epik_cmdline>
J2VwaWtfcHl0aG9uJywgJy1waCcsICc3LjAnLCAnLXRuJywgJzgnLCAnLW1hJywgJzIwMCcsICctbWV0YWxfYmluZGluZycsICctaW1hZScsICc8aW5maWxlLm1hZT4nLCAnLW9tYWUnLCAnPG91dGZpbGUubWFlPic=

> <r_lp_tautomer_probability>
1

> <r_epik_Ionization_Penalty>
2.40826

> <r_epik_Ionization_Penalty_Charging>
0.00182709

> <r_epik_Ionization_Penalty_Neutral>
2.40643

> <r_epik_State_Penalty>
0.0371983

> <r_epik_Charging_Adjusted_Penalty>
0.0390254

> <i_epik_Tot_Q>
-1

> <i_epik_Tot_abs_Q>
1

> <r_epik_Metal_State_Penalty>
0.000698467

> <b_epik_Metal_Only>
0

> <s_lp_Force_Field>
OPLS_2005

> <r_lp_Energy>
40.7518

> <b_lp_Chiralities_Consistent>
1

> <s_lp_Variant>
AV-unprocessed.smi:2936-1

> <Gold.Version>
5.8.1

> <Gold.Id.Protein>
6NUR|6NUR_protein|mol2

> <Gold.PLP.Fitness>
29.4483

> <Gold.PLP.PLP>
-20.6883

> <Gold.PLP.part.hbond>
-2.0000

> <Gold.PLP.part.metal>
0.0000

> <Gold.PLP.part.buried>
-3.3661

> <Gold.PLP.part.nonpolar>
-15.1458

> <Gold.PLP.part.repulsive>
0.0185

> <Gold.PLP.ligand.clash>
0.0000

> <Gold.PLP.ligand.torsion>
0.8016

> <Gold.PLP.Chemscore.Hbond>
2.9200

> <Gold.PLP.Chemscore.CHOScore>
0.0000

> <Gold.PLP.Chemscore.Metal>
0.0000

> <Gold.Chemscore.Hbonds>
donor molecule, donor type, donor heavy atom, donor atom, acceptor molecule, acceptor atom, score
      P1  H  6896  6909       L1     3  1.82
      P1  H 10752 10763       L1     1  1.00

> <Gold.PLP.Chemscore.Internal.Correction>
1.6033

> <Gold.Rescore>
     Score         DG    S(hbond)    S(metal)    S(lipo)     H(rot)  DE(clash)    DE(int)     intcor
     15.14     -17.34       1.57        0.00      56.62       0.00       0.33       1.87       ----

> <Gold.Chemscore.Fitness>
15.1445

> <Gold.Chemscore.DG>
-17.3419

> <Gold.Chemscore.ZeroCoef>
-5.4800

> <Gold.Chemscore.Hbond>
1.5682

> <Gold.Chemscore.Metal>
0.0000

> <Gold.Chemscore.Lipo>
56.6162

> <Gold.Chemscore.Internal_Hbond>
0.0000

> <Gold.Chemscore.DEClash>
0.3285

> <Gold.Chemscore.DEInternal>
1.8688

> <Gold.Chemscore.Rot>
0.0000

> <Gold.Chemscore.Internal.Correction>
   9.000000E+99

> <Gold.Chemscore.Hbonds>
donor molecule, donor type, donor heavy atom, donor atom, acceptor molecule, acceptor atom, score
      P1  H  6896  6909       L1     3  0.19
      P1  H 10752 10763       L1     1  0.98

> <Gold.Chemscore.Hbond.Weighted>
-5.2378

> <Gold.Chemscore.Metal.Weighted>
-0.0000

> <Gold.Chemscore.Lipo.Weighted>
-6.6241

> <Gold.Chemscore.Internal_Hbond.Weighted>
0.0000

> <Gold.Chemscore.DEClash.Weighted>
0.3285

> <Gold.Chemscore.DEInternal.Weighted>
1.8688

> <Gold.Chemscore.Rot.Weighted>
0.0000

> <Gold.Chemscore.Internal.Correction.Weighted>
   9.000000E+99

> <Gold.Protein.RotatedTorsions>
[ 6907 6896 6895 6894 ] final  145.70 input  -60.11 | X-H torsion
[ 7974 7965 7964 7962 ] final  154.44 input  175.53 | X-H torsion
[ 8008 7997 7996 7995 ] final  163.38 input   59.86 | X-H torsion
[ 10167 10162 10161 10158 ] final -177.28 input  -65.29 | X-H torsion
[ 10718 10713 10712 10709 ] final -162.45 input   66.30 | X-H torsion
[ 10763 10752 10751 10750 ] final  116.37 input  -60.55 | X-H torsion
[ 11005 11000 10999 10996 ] final -121.98 input  -57.11 | X-H torsion

> <Gold.Protein.ActiveResidues>
 VAL166  LYS551  ARG553  GLY616  TRP617  ASP618  TYR619  PRO620  LYS621  CYS622 
 ASP623  PHE694  ASN695  SER759  ASP760  ASP761  ALA762  ILE779  LEU786  VAL792 
 PHE793  MET794  SER795  GLU796  ALA797  LYS798  CYS799  TRP800  GLU811  SER814 

> <Gold.Protein.RotatedAtoms>
  152.1775  133.4684  159.4940 H   0  0  0  0  0  0  0  0  0  0  0  0  # atno 6907 bound_to 6896
  150.6929  134.1876  159.4282 H   0  0  0  0  0  0  0  0  0  0  0  0  # atno 6908 bound_to 6896
  151.9785  135.0040  160.0607 H   0  0  0  0  0  0  0  0  0  0  0  0  # atno 6909 bound_to 6896
  144.8089  139.6934  143.6150 H   0  0  0  0  0  0  0  0  0  0  0  0  # atno 7974 bound_to 7965
  156.1961  140.1725  156.7994 H   0  0  0  0  0  0  0  0  0  0  0  0  # atno 8008 bound_to 7997
  154.5532  140.0713  156.8733 H   0  0  0  0  0  0  0  0  0  0  0  0  # atno 8009 bound_to 7997
  155.2989  140.3360  155.4251 H   0  0  0  0  0  0  0  0  0  0  0  0  # atno 8010 bound_to 7997
  139.5488  144.2164  152.1038 H   0  0  0  0  0  0  0  0  0  0  0  0  # atno 10167 bound_to 10162
  156.6106  130.8849  151.2935 H   0  0  0  0  0  0  0  0  0  0  0  0  # atno 10718 bound_to 10713
  153.5361  135.3568  155.2698 H   0  0  0  0  0  0  0  0  0  0  0  0  # atno 10763 bound_to 10752
  154.8722  135.4080  154.3096 H   0  0  0  0  0  0  0  0  0  0  0  0  # atno 10764 bound_to 10752
  153.3794  135.7067  153.6645 H   0  0  0  0  0  0  0  0  0  0  0  0  # atno 10765 bound_to 10752
  141.0029  134.0376  157.3514 H   0  0  0  0  0  0  0  0  0  0  0  0  # atno 11005 bound_to 11000
  146.2384  139.5952  142.9508 LP  0  0  0  0  0  0  0  0  0  0  0  0  # atno 17320 bound_to 7965
  145.5372  141.0423  143.2350 LP  0  0  0  0  0  0  0  0  0  0  0  0  # atno 17321 bound_to 7965
  140.1656  144.4985  150.6608 LP  0  0  0  0  0  0  0  0  0  0  0  0  # atno 17342 bound_to 10162
  140.6744  143.2299  151.5543 LP  0  0  0  0  0  0  0  0  0  0  0  0  # atno 17343 bound_to 10162
  157.7255  130.9617  150.1617 LP  0  0  0  0  0  0  0  0  0  0  0  0  # atno 17370 bound_to 10713
  156.2392  130.3689  149.8356 LP  0  0  0  0  0  0  0  0  0  0  0  0  # atno 17371 bound_to 10713
  139.9048  135.0176  156.7436 LP  0  0  0  0  0  0  0  0  0  0  0  0  # atno 17394 bound_to 11000
  140.6859  133.9433  155.7938 LP  0  0  0  0  0  0  0  0  0  0  0  0  # atno 17395 bound_to 11000

$$$$
