AV-unprocessed.smi:618|AV-procd|sdf|3076|dock9
  -GOLD-   22720 0 03D 1   1.00000     0.00000
 Structure written by MMmdl.
 41 43  0  0  0  0  0  0  0  0  2 V2000
  150.1649  135.0393  156.0137 O   0  0  0  0  0  0  0  0  0  0  0  0
  149.7916  135.3991  154.8975 C   0  0  0  0  0  0  0  0  0  0  0  0
  149.1359  134.5972  154.0471 N   0  0  0  0  0  0  0  0  0  0  0  0
  148.7646  133.2129  154.3202 C   0  0  0  0  0  0  0  0  0  0  0  0
  147.8319  132.6449  153.2358 C   0  0  2  0  0  0  0  0  0  0  0  0
  146.7023  133.6282  152.8752 C   0  0  0  0  0  0  0  0  0  0  0  0
  145.7327  133.0306  151.9274 N   0  3  1  0  0  0  0  0  0  0  0  0
  146.1258  133.0205  150.5009 C   0  0  0  0  0  0  0  0  0  0  0  0
  145.4662  131.7789  149.8803 C   0  0  0  0  0  0  0  0  0  0  0  0
  144.6342  131.1527  151.0046 C   0  0  0  0  0  0  0  0  0  0  0  0
  145.2896  131.6678  152.2868 C   0  0  1  0  0  0  0  0  0  0  0  0
  146.4791  130.7860  152.7302 C   0  0  0  0  0  0  0  0  0  0  0  0
  147.2388  131.4495  153.7304 O   0  0  0  0  0  0  0  0  0  0  0  0
  149.9882  136.6163  154.3634 N   0  0  0  0  0  0  0  0  0  0  0  0
  150.6176  137.7489  154.9470 C   0  0  0  0  0  0  0  0  0  0  0  0
  151.4391  137.5398  156.0739 C   0  0  0  0  0  0  0  0  0  0  0  0
  152.0904  138.6399  156.6630 C   0  0  0  0  0  0  0  0  0  0  0  0
  151.9011  139.9135  156.0929 C   0  0  0  0  0  0  0  0  0  0  0  0
  151.1311  140.1304  155.0059 N   0  0  0  0  0  0  0  0  0  0  0  0
  150.5074  139.0707  154.4472 C   0  0  0  0  0  0  0  0  0  0  0  0
  148.8687  134.9715  153.1482 H   0  0  0  0  0  0  0  0  0  0  0  0
  149.6765  132.6182  154.3811 H   0  0  0  0  0  0  0  0  0  0  0  0
  148.2886  133.1510  155.3004 H   0  0  0  0  0  0  0  0  0  0  0  0
  148.4195  132.4212  152.3438 H   0  0  0  0  0  0  0  0  0  0  0  0
  146.1578  133.9004  153.7804 H   0  0  0  0  0  0  0  0  0  0  0  0
  147.1037  134.5539  152.4613 H   0  0  0  0  0  0  0  0  0  0  0  0
  145.7930  133.9410  150.0205 H   0  0  0  0  0  0  0  0  0  0  0  0
  147.2093  132.9623  150.3891 H   0  0  0  0  0  0  0  0  0  0  0  0
  144.8532  132.0268  149.0133 H   0  0  0  0  0  0  0  0  0  0  0  0
  146.2345  131.0795  149.5482 H   0  0  0  0  0  0  0  0  0  0  0  0
  143.6098  131.5234  150.9462 H   0  0  0  0  0  0  0  0  0  0  0  0
  144.5938  130.0642  150.9485 H   0  0  0  0  0  0  0  0  0  0  0  0
  144.5658  131.7268  153.1007 H   0  0  0  0  0  0  0  0  0  0  0  0
  146.1124  129.8422  153.1340 H   0  0  0  0  0  0  0  0  0  0  0  0
  147.1268  130.5324  151.8892 H   0  0  0  0  0  0  0  0  0  0  0  0
  149.6944  136.7325  153.4047 H   0  0  0  0  0  0  0  0  0  0  0  0
  151.5676  136.5496  156.4868 H   0  0  0  0  0  0  0  0  0  0  0  0
  152.7207  138.5108  157.5304 H   0  0  0  0  0  0  0  0  0  0  0  0
  152.3856  140.7803  156.5176 H   0  0  0  0  0  0  0  0  0  0  0  0
  149.9288  139.3043  153.5674 H   0  0  0  0  0  0  0  0  0  0  0  0
  144.9032  133.6062  151.9618 H   0  0  0  0  0  0  0  0  0  0  0  0
  1  2  2  0  0  0  0
  2  3  1  0  0  0  0
  2 14  1  0  0  0  0
  3  4  1  0  0  0  0
  3 21  1  0  0  0  0
  4  5  1  0  0  0  0
  4 22  1  0  0  0  0
  4 23  1  0  0  0  0
  5 13  1  0  0  0  0
  5  6  1  0  0  0  0
  5 24  1  0  0  0  0
  6  7  1  0  0  0  0
  6 25  1  0  0  0  0
  6 26  1  0  0  0  0
  7 11  1  0  0  0  0
  7  8  1  0  0  0  0
  7 41  1  0  0  0  0
  8  9  1  0  0  0  0
  8 27  1  0  0  0  0
  8 28  1  0  0  0  0
  9 10  1  0  0  0  0
  9 29  1  0  0  0  0
  9 30  1  0  0  0  0
 10 11  1  0  0  0  0
 10 31  1  0  0  0  0
 10 32  1  0  0  0  0
 11 12  1  0  0  0  0
 11 33  1  0  0  0  0
 12 13  1  0  0  0  0
 12 34  1  0  0  0  0
 12 35  1  0  0  0  0
 14 15  1  0  0  0  0
 14 36  1  0  0  0  0
 15 20  1  0  0  0  0
 15 16  2  0  0  0  0
 16 17  1  0  0  0  0
 16 37  1  0  0  0  0
 17 18  2  0  0  0  0
 17 38  1  0  0  0  0
 18 19  1  0  0  0  0
 18 39  1  0  0  0  0
 19 20  2  0  0  0  0
 20 40  1  0  0  0  0
M  CHG  1   7   1
M  END
> <s_m_source_file>
AV-unprocessed.smi

> <i_m_source_file_index>
618

> <i_lp_mmshare_version>
43012

> <i_f3d_flags>
0

> <s_epik_input>
W2NIXTFuW2NIXVtjSF1bY0hdYzFbTkhdQyg9TylbTkhdW0NIMl1bQ0BIXShbQ0gyXTIpT1tDSDJdW0NAQEhdKE4yMylbQ0gyXVtDSDJdW0NIMl0z

> <s_epik_cmdline>
J2VwaWtfcHl0aG9uJywgJy1waCcsICc3LjAnLCAnLXRuJywgJzgnLCAnLW1hJywgJzIwMCcsICctbWV0YWxfYmluZGluZycsICctaW1hZScsICc8aW5maWxlLm1hZT4nLCAnLW9tYWUnLCAnPG91dGZpbGUubWFlPic=

> <r_epik_Ionization_Penalty>
0.111044

> <r_epik_Ionization_Penalty_Charging>
0.10673

> <r_epik_Ionization_Penalty_Neutral>
0.00431361

> <r_epik_State_Penalty>
0.0978747

> <r_epik_Charging_Adjusted_Penalty>
0.204605

> <i_epik_Tot_Q>
1

> <i_epik_Tot_abs_Q>
1

> <r_epik_Metal_State_Penalty>
0.0947591

> <b_epik_Metal_Only>
0

> <s_lp_Force_Field>
OPLS_2005

> <r_lp_Energy>
38.5016

> <b_lp_Chiralities_Consistent>
1

> <s_lp_Variant>
AV-unprocessed.smi:618-3

> <Gold.Version>
5.8.1

> <Gold.Id.Protein>
6NUR|6NUR_protein|mol2

> <Gold.PLP.Fitness>
45.8694

> <Gold.PLP.PLP>
-35.1803

> <Gold.PLP.part.hbond>
-4.0833

> <Gold.PLP.part.metal>
0.0000

> <Gold.PLP.part.buried>
-1.6840

> <Gold.PLP.part.nonpolar>
-29.5639

> <Gold.PLP.part.repulsive>
0.2765

> <Gold.PLP.ligand.clash>
0.0000

> <Gold.PLP.ligand.torsion>
0.2058

> <Gold.PLP.Chemscore.Hbond>
2.7000

> <Gold.PLP.Chemscore.CHOScore>
1.0000

> <Gold.PLP.Chemscore.Metal>
0.0000

> <Gold.Chemscore.Hbonds>
donor molecule, donor type, donor heavy atom, donor atom, acceptor molecule, acceptor atom, score
      L1  H     3    21       P1  7948  1.00
      L1  H    14    36       P1  7948  1.00
      P1  H  7989  7998       L1    19  0.85
      L1  C    20    40       P1  7957  1.00

> <Gold.PLP.Chemscore.Internal.Correction>
0.0007

> <Gold.Rescore>
     Score         DG    S(hbond)    S(metal)    S(lipo)     H(rot)  DE(clash)    DE(int)     intcor
     15.34     -17.05       1.55        0.00      82.20       1.27       0.00       1.70       ----

> <Gold.Chemscore.Fitness>
15.3441

> <Gold.Chemscore.DG>
-17.0501

> <Gold.Chemscore.ZeroCoef>
-5.4800

> <Gold.Chemscore.Hbond>
1.5547

> <Gold.Chemscore.Metal>
0.0000

> <Gold.Chemscore.Lipo>
82.1975

> <Gold.Chemscore.Internal_Hbond>
0.0000

> <Gold.Chemscore.DEClash>
0.0029

> <Gold.Chemscore.DEInternal>
1.7031

> <Gold.Chemscore.Rot>
1.2656

> <Gold.Chemscore.Internal.Correction>
   9.000000E+99

> <Gold.Chemscore.Hbonds>
donor molecule, donor type, donor heavy atom, donor atom, acceptor molecule, acceptor atom, score
      L1  H     3    21       P1  7948  0.29
      L1  H    14    36       P1  7948  0.49
      P1  H  7989  7998       L1    19  0.15

> <Gold.Chemscore.Hbond.Weighted>
-5.1929

> <Gold.Chemscore.Metal.Weighted>
-0.0000

> <Gold.Chemscore.Lipo.Weighted>
-9.6171

> <Gold.Chemscore.Internal_Hbond.Weighted>
0.0000

> <Gold.Chemscore.DEClash.Weighted>
0.0029

> <Gold.Chemscore.DEInternal.Weighted>
1.7031

> <Gold.Chemscore.Rot.Weighted>
3.2399

> <Gold.Chemscore.Internal.Correction.Weighted>
   9.000000E+99

> <Gold.Protein.RotatedTorsions>
[ 6907 6896 6895 6894 ] final   80.98 input  -60.11 | X-H torsion
[ 7974 7965 7964 7962 ] final -105.22 input  175.53 | X-H torsion
[ 8008 7997 7996 7995 ] final   43.52 input   59.86 | X-H torsion
[ 10167 10162 10161 10158 ] final  -62.85 input  -65.29 | X-H torsion
[ 10718 10713 10712 10709 ] final -109.76 input   66.30 | X-H torsion
[ 10763 10752 10751 10750 ] final -163.76 input  -60.55 | X-H torsion
[ 11005 11000 10999 10996 ] final   24.66 input  -57.11 | X-H torsion

> <Gold.Protein.ActiveResidues>
 VAL166  LYS551  ARG553  GLY616  TRP617  ASP618  TYR619  PRO620  LYS621  CYS622 
 ASP623  PHE694  ASN695  SER759  ASP760  ASP761  ALA762  ILE779  LEU786  VAL792 
 PHE793  MET794  SER795  GLU796  ALA797  LYS798  CYS799  TRP800  GLU811  SER814 

> <Gold.Protein.RotatedAtoms>
  152.5253  134.3274  159.9170 H   0  0  0  0  0  0  0  0  0  0  0  0  # atno 6907 bound_to 6896
  151.3223  133.4028  159.2663 H   0  0  0  0  0  0  0  0  0  0  0  0  # atno 6908 bound_to 6896
  150.9948  134.9292  159.7978 H   0  0  0  0  0  0  0  0  0  0  0  0  # atno 6909 bound_to 6896
  145.2332  140.9178  143.3193 H   0  0  0  0  0  0  0  0  0  0  0  0  # atno 7974 bound_to 7965
  155.3041  140.3387  155.4246 H   0  0  0  0  0  0  0  0  0  0  0  0  # atno 8008 bound_to 7997
  156.1987  140.1724  156.7983 H   0  0  0  0  0  0  0  0  0  0  0  0  # atno 8009 bound_to 7997
  154.5531  140.0701  156.8684 H   0  0  0  0  0  0  0  0  0  0  0  0  # atno 8010 bound_to 7997
  140.5911  143.2342  151.6138 H   0  0  0  0  0  0  0  0  0  0  0  0  # atno 10167 bound_to 10162
  156.0554  130.5780  150.8144 H   0  0  0  0  0  0  0  0  0  0  0  0  # atno 10718 bound_to 10713
  154.7092  135.3003  154.9222 H   0  0  0  0  0  0  0  0  0  0  0  0  # atno 10763 bound_to 10752
  154.0129  135.6692  153.4770 H   0  0  0  0  0  0  0  0  0  0  0  0  # atno 10764 bound_to 10752
  153.0742  135.5044  154.8281 H   0  0  0  0  0  0  0  0  0  0  0  0  # atno 10765 bound_to 10752
  140.3562  134.2175  155.7675 H   0  0  0  0  0  0  0  0  0  0  0  0  # atno 11005 bound_to 11000
  144.9657  139.3932  143.6333 LP  0  0  0  0  0  0  0  0  0  0  0  0  # atno 17320 bound_to 7965
  146.3348  139.8732  142.8836 LP  0  0  0  0  0  0  0  0  0  0  0  0  # atno 17321 bound_to 7965
  139.5228  144.3152  152.0958 LP  0  0  0  0  0  0  0  0  0  0  0  0  # atno 17342 bound_to 10162
  140.2317  144.4361  150.6297 LP  0  0  0  0  0  0  0  0  0  0  0  0  # atno 17343 bound_to 10162
  157.5519  131.0944  150.9683 LP  0  0  0  0  0  0  0  0  0  0  0  0  # atno 17370 bound_to 10713
  156.9941  130.5574  149.5306 LP  0  0  0  0  0  0  0  0  0  0  0  0  # atno 17371 bound_to 10713
  141.1997  133.8004  157.0521 LP  0  0  0  0  0  0  0  0  0  0  0  0  # atno 17394 bound_to 11000
  140.0663  134.9727  157.1391 LP  0  0  0  0  0  0  0  0  0  0  0  0  # atno 17395 bound_to 11000

$$$$
