AV-unprocessed.smi:1102|AV-procd|sdf|4767|dock5
  -GOLD-   22720 3303D 1   1.00000     0.00000
 Structure written by MMmdl.
 40 41  0  0  0  0  0  0  0  0  2 V2000
  143.6365  132.8528  148.8208 C   0  0  0  0  0  0  0  0  0  0  0  0
  144.1833  132.7013  150.1608 N   0  0  0  0  0  0  0  0  0  0  0  0
  145.2689  131.7425  150.3031 C   0  0  0  0  0  0  0  0  0  0  0  0
  144.4525  133.9303  150.7783 C   0  0  0  0  0  0  0  0  0  0  0  0
  143.7846  134.3189  151.9578 C   0  0  0  0  0  0  0  0  0  0  0  0
  144.0866  135.5646  152.5449 C   0  0  0  0  0  0  0  0  0  0  0  0
  145.0421  136.4112  151.9422 C   0  0  0  0  0  0  0  0  0  0  0  0
  145.3213  137.6511  152.5780 N   0  0  0  0  0  0  0  0  0  0  0  0
  146.3081  138.5242  152.3126 C   0  0  0  0  0  0  0  0  0  0  0  0
  147.1465  138.3992  151.4205 O   0  0  0  0  0  0  0  0  0  0  0  0
  146.2586  139.5769  153.1407 N   0  0  0  0  0  0  0  0  0  0  0  0
  147.1941  140.6959  153.1304 C   0  0  0  0  0  0  0  0  0  0  0  0
  148.3496  140.4713  154.1195 C   0  0  2  0  0  0  0  0  0  0  0  0
  147.9266  140.5423  155.5900 C   0  0  0  0  0  0  0  0  0  0  0  0
  149.1299  141.1480  156.3012 C   0  0  0  0  0  0  0  0  0  0  0  0
  150.1300  141.4192  155.1785 C   0  0  0  0  0  0  0  0  0  0  0  0
  149.3226  141.5001  154.0159 O   0  0  0  0  0  0  0  0  0  0  0  0
  145.6888  135.9643  150.7634 C   0  0  0  0  0  0  0  0  0  0  0  0
  145.3722  134.7623  150.2347 N   0  3  0  0  0  0  0  0  0  0  0  0
  142.8253  133.5821  148.8113 H   0  0  0  0  0  0  0  0  0  0  0  0
  143.2377  131.9017  148.4668 H   0  0  0  0  0  0  0  0  0  0  0  0
  144.4048  133.1825  148.1205 H   0  0  0  0  0  0  0  0  0  0  0  0
  145.5871  131.6695  151.3440 H   0  0  0  0  0  0  0  0  0  0  0  0
  146.1293  132.0312  149.6982 H   0  0  0  0  0  0  0  0  0  0  0  0
  144.9424  130.7531  149.9812 H   0  0  0  0  0  0  0  0  0  0  0  0
  143.0488  133.6704  152.4110 H   0  0  0  0  0  0  0  0  0  0  0  0
  143.5813  135.8676  153.4505 H   0  0  0  0  0  0  0  0  0  0  0  0
  144.6662  137.9295  153.2937 H   0  0  0  0  0  0  0  0  0  0  0  0
  145.5309  139.6011  153.8399 H   0  0  0  0  0  0  0  0  0  0  0  0
  147.5756  140.8782  152.1244 H   0  0  0  0  0  0  0  0  0  0  0  0
  146.6392  141.5900  153.4159 H   0  0  0  0  0  0  0  0  0  0  0  0
  148.8339  139.5120  153.9258 H   0  0  0  0  0  0  0  0  0  0  0  0
  147.0618  141.1950  155.7157 H   0  0  0  0  0  0  0  0  0  0  0  0
  147.6606  139.5600  155.9813 H   0  0  0  0  0  0  0  0  0  0  0  0
  148.8427  142.0796  156.7902 H   0  0  0  0  0  0  0  0  0  0  0  0
  149.5458  140.4848  157.0603 H   0  0  0  0  0  0  0  0  0  0  0  0
  150.7032  142.3329  155.3357 H   0  0  0  0  0  0  0  0  0  0  0  0
  150.8300  140.5887  155.0744 H   0  0  0  0  0  0  0  0  0  0  0  0
  146.4522  136.5069  150.2265 H   0  0  0  0  0  0  0  0  0  0  0  0
  145.8524  134.4675  149.3842 H   0  0  0  0  0  0  0  0  0  0  0  0
  1  2  1  0  0  0  0
  1 20  1  0  0  0  0
  1 21  1  0  0  0  0
  1 22  1  0  0  0  0
  2  3  1  0  0  0  0
  2  4  1  0  0  0  0
  3 23  1  0  0  0  0
  3 24  1  0  0  0  0
  3 25  1  0  0  0  0
  4 19  1  0  0  0  0
  4  5  2  0  0  0  0
  5  6  1  0  0  0  0
  5 26  1  0  0  0  0
  6  7  2  0  0  0  0
  6 27  1  0  0  0  0
  7  8  1  0  0  0  0
  7 18  1  0  0  0  0
  8  9  1  0  0  0  0
  8 28  1  0  0  0  0
  9 10  2  0  0  0  0
  9 11  1  0  0  0  0
 11 12  1  0  0  0  0
 11 29  1  0  0  0  0
 12 13  1  0  0  0  0
 12 30  1  0  0  0  0
 12 31  1  0  0  0  0
 13 17  1  0  0  0  0
 13 14  1  0  0  0  0
 13 32  1  0  0  0  0
 14 15  1  0  0  0  0
 14 33  1  0  0  0  0
 14 34  1  0  0  0  0
 15 16  1  0  0  0  0
 15 35  1  0  0  0  0
 15 36  1  0  0  0  0
 16 17  1  0  0  0  0
 16 37  1  0  0  0  0
 16 38  1  0  0  0  0
 18 19  2  0  0  0  0
 18 39  1  0  0  0  0
 19 40  1  0  0  0  0
M  CHG  1  19   1
M  END
> <s_m_source_file>
AV-unprocessed.smi

> <i_m_source_file_index>
1102

> <i_lp_mmshare_version>
43012

> <i_f3d_flags>
0

> <s_epik_input>
W0NIM11OKFtDSDNdKWMxW2NIXVtjSF1jKFtjSF1uMSlbTkhdQyg9TylbTkhdW0NIMl1bQ0BASF0yW0NIMl1bQ0gyXVtDSDJdTzI=

> <s_epik_cmdline>
J2VwaWtfcHl0aG9uJywgJy1waCcsICc3LjAnLCAnLXRuJywgJzgnLCAnLW1hJywgJzIwMCcsICctbWV0YWxfYmluZGluZycsICctaW1hZScsICc8aW5maWxlLm1hZT4nLCAnLW9tYWUnLCAnPG91dGZpbGUubWFlPic=

> <r_lp_tautomer_probability>
0.999994

> <r_epik_Ionization_Penalty>
0.265123

> <r_epik_Ionization_Penalty_Charging>
0.265104

> <r_epik_Ionization_Penalty_Neutral>
1.89079e-05

> <r_epik_State_Penalty>
0.257001

> <r_epik_Charging_Adjusted_Penalty>
0.522106

> <i_epik_Tot_Q>
1

> <i_epik_Tot_abs_Q>
1

> <r_epik_Metal_State_Penalty>
0.543599

> <b_epik_Metal_Only>
0

> <s_lp_Force_Field>
OPLS_2005

> <r_lp_Energy>
30.1742

> <b_lp_Chiralities_Consistent>
1

> <s_lp_Variant>
AV-unprocessed.smi:1102-1

> <Gold.Version>
5.8.1

> <Gold.Id.Protein>
6NUR|6NUR_protein|mol2

> <Gold.PLP.Fitness>
41.9258

> <Gold.PLP.PLP>
-34.8766

> <Gold.PLP.part.hbond>
-6.5369

> <Gold.PLP.part.metal>
0.0000

> <Gold.PLP.part.buried>
-5.4794

> <Gold.PLP.part.nonpolar>
-27.5236

> <Gold.PLP.part.repulsive>
4.0575

> <Gold.PLP.ligand.clash>
0.0000

> <Gold.PLP.ligand.torsion>
0.3607

> <Gold.PLP.Chemscore.Hbond>
2.5231

> <Gold.PLP.Chemscore.CHOScore>
0.0000

> <Gold.PLP.Chemscore.Metal>
0.0000

> <Gold.Chemscore.Hbonds>
donor molecule, donor type, donor heavy atom, donor atom, acceptor molecule, acceptor atom, score
      L1  H    19    40       P1  7921  0.93
      P1  H  7954  7966       L1    10  1.00
      P1  H  8011  8017       L1    17  0.67

> <Gold.PLP.Chemscore.Internal.Correction>
0.2011

> <Gold.Rescore>
     Score         DG    S(hbond)    S(metal)    S(lipo)     H(rot)  DE(clash)    DE(int)     intcor
     16.31     -20.11       2.82        0.00      76.28       1.45       2.35       1.46       ----

> <Gold.Chemscore.Fitness>
16.3056

> <Gold.Chemscore.DG>
-20.1120

> <Gold.Chemscore.ZeroCoef>
-5.4800

> <Gold.Chemscore.Hbond>
2.8179

> <Gold.Chemscore.Metal>
0.0000

> <Gold.Chemscore.Lipo>
76.2780

> <Gold.Chemscore.Internal_Hbond>
0.0000

> <Gold.Chemscore.DEClash>
2.3514

> <Gold.Chemscore.DEInternal>
1.4551

> <Gold.Chemscore.Rot>
1.4469

> <Gold.Chemscore.Internal.Correction>
   9.000000E+99

> <Gold.Chemscore.Hbonds>
donor molecule, donor type, donor heavy atom, donor atom, acceptor molecule, acceptor atom, score
      L1  H    19    40       P1  7921  0.63
      P1  H  7954  7966       L1    10  0.99
      P1  H  8011  8017       L1    17  0.67

> <Gold.Chemscore.Hbond.Weighted>
-9.4117

> <Gold.Chemscore.Metal.Weighted>
-0.0000

> <Gold.Chemscore.Lipo.Weighted>
-8.9245

> <Gold.Chemscore.Internal_Hbond.Weighted>
0.0000

> <Gold.Chemscore.DEClash.Weighted>
2.3514

> <Gold.Chemscore.DEInternal.Weighted>
1.4551

> <Gold.Chemscore.Rot.Weighted>
3.7042

> <Gold.Chemscore.Internal.Correction.Weighted>
   9.000000E+99

> <Gold.Protein.RotatedTorsions>
[ 6907 6896 6895 6894 ] final   92.67 input  -60.11 | X-H torsion
[ 7974 7965 7964 7962 ] final  -96.62 input  175.53 | X-H torsion
[ 8008 7997 7996 7995 ] final -142.58 input   59.86 | X-H torsion
[ 10167 10162 10161 10158 ] final   18.02 input  -65.29 | X-H torsion
[ 10718 10713 10712 10709 ] final   34.76 input   66.30 | X-H torsion
[ 10763 10752 10751 10750 ] final  114.84 input  -60.55 | X-H torsion
[ 11005 11000 10999 10996 ] final   64.42 input  -57.11 | X-H torsion

> <Gold.Protein.ActiveResidues>
 VAL166  LYS551  ARG553  GLY616  TRP617  ASP618  TYR619  PRO620  LYS621  CYS622 
 ASP623  PHE694  ASN695  SER759  ASP760  ASP761  ALA762  ILE779  LEU786  VAL792 
 PHE793  MET794  SER795  GLU796  ALA797  LYS798  CYS799  TRP800  GLU811  SER814 

> <Gold.Protein.RotatedAtoms>
  152.5453  134.1466  159.8500 H   0  0  0  0  0  0  0  0  0  0  0  0  # atno 6907 bound_to 6896
  151.1497  133.4909  159.2603 H   0  0  0  0  0  0  0  0  0  0  0  0  # atno 6908 bound_to 6896
  151.1486  135.0226  159.8713 H   0  0  0  0  0  0  0  0  0  0  0  0  # atno 6909 bound_to 6896
  145.3444  140.9465  143.2589 H   0  0  0  0  0  0  0  0  0  0  0  0  # atno 7974 bound_to 7965
  155.4965  140.0572  157.2946 H   0  0  0  0  0  0  0  0  0  0  0  0  # atno 8008 bound_to 7997
  154.4603  140.1993  156.0213 H   0  0  0  0  0  0  0  0  0  0  0  0  # atno 8009 bound_to 7997
  156.0878  140.3238  155.7780 H   0  0  0  0  0  0  0  0  0  0  0  0  # atno 8010 bound_to 7997
  140.5683  143.9208  150.6694 H   0  0  0  0  0  0  0  0  0  0  0  0  # atno 10167 bound_to 10162
  157.3143  130.7415  149.6745 H   0  0  0  0  0  0  0  0  0  0  0  0  # atno 10718 bound_to 10713
  153.5133  135.3613  155.2597 H   0  0  0  0  0  0  0  0  0  0  0  0  # atno 10763 bound_to 10752
  154.8740  135.4028  154.3344 H   0  0  0  0  0  0  0  0  0  0  0  0  # atno 10764 bound_to 10752
  153.4001  135.7074  153.6499 H   0  0  0  0  0  0  0  0  0  0  0  0  # atno 10765 bound_to 10752
  139.9960  134.6516  156.0009 H   0  0  0  0  0  0  0  0  0  0  0  0  # atno 11005 bound_to 11000
  144.8765  139.4964  143.6743 LP  0  0  0  0  0  0  0  0  0  0  0  0  # atno 17320 bound_to 7965
  146.2994  139.7378  142.9103 LP  0  0  0  0  0  0  0  0  0  0  0  0  # atno 17321 bound_to 7965
  140.2677  143.3478  152.1266 LP  0  0  0  0  0  0  0  0  0  0  0  0  # atno 17342 bound_to 10162
  139.5104  144.6884  151.5825 LP  0  0  0  0  0  0  0  0  0  0  0  0  # atno 17343 bound_to 10162
  155.9680  130.4242  150.4597 LP  0  0  0  0  0  0  0  0  0  0  0  0  # atno 17370 bound_to 10713
  157.2601  131.0565  151.2326 LP  0  0  0  0  0  0  0  0  0  0  0  0  # atno 17371 bound_to 10713
  141.1605  133.6539  156.4302 LP  0  0  0  0  0  0  0  0  0  0  0  0  # atno 17394 bound_to 11000
  140.4817  134.6658  157.5174 LP  0  0  0  0  0  0  0  0  0  0  0  0  # atno 17395 bound_to 11000

$$$$
