AV-unprocessed.smi:1645|AV-procd|sdf|6609|dock5
  -GOLD-   22720 7313D 1   1.00000     0.00000
 Structure written by MMmdl.
 56 59  0  0  0  0  0  0  0  0  3 V2000
  147.0164  139.7796  154.2367 O   0  0  0  0  0  0  0  0  0  0  0  0
  147.9557  139.6454  153.4539 C   0  0  0  0  0  0  0  0  0  0  0  0
  149.2186  140.0532  153.6702 N   0  0  0  0  0  0  0  0  0  0  0  0
  149.7490  140.7774  154.7737 C   0  0  0  0  0  0  0  0  0  0  0  0
  151.0168  140.3921  155.2574 C   0  0  0  0  0  0  0  0  0  0  0  0
  151.5951  141.0796  156.3438 C   0  0  0  0  0  0  0  0  0  0  0  0
  150.8975  142.1528  156.9526 C   0  0  0  0  0  0  0  0  0  0  0  0
  151.4063  142.9144  158.0289 N   0  0  0  0  0  0  0  0  0  0  0  0
  150.8190  144.2416  158.2378 C   0  0  0  0  0  0  0  0  0  0  0  0
  151.7426  145.1356  159.0825 C   0  0  0  0  0  0  0  0  0  0  0  0
  152.1337  144.4434  160.3957 C   0  0  0  0  0  0  0  0  0  0  0  0
  152.7673  143.0776  160.0970 C   0  0  0  0  0  0  0  0  0  0  0  0
  151.8363  142.2062  159.2362 C   0  0  0  0  0  0  0  0  0  0  0  0
  149.6758  142.4746  156.4625 N   0  3  0  0  0  0  0  0  0  0  0  0
  149.0849  141.8447  155.4243 C   0  0  0  0  0  0  0  0  0  0  0  0
  147.8340  139.0617  152.2525 N   0  0  0  0  0  0  0  0  0  0  0  0
  146.5859  138.5523  151.6846 C   0  0  1  0  0  0  0  0  0  0  0  0
  146.7086  138.1896  150.1921 C   0  0  0  0  0  0  0  0  0  0  0  0
  145.9042  136.8943  150.0414 C   0  0  0  0  0  0  0  0  0  0  0  0
  146.1145  136.2271  151.3313 N   0  3  2  0  0  0  0  0  0  0  0  0
  145.2920  135.0450  151.6591 C   0  0  0  0  0  0  0  0  0  0  0  0
  145.8316  134.4238  152.9654 C   0  0  0  0  0  0  0  0  0  0  0  0
  145.9434  135.4622  154.1053 C   0  0  0  0  0  0  0  0  0  0  0  0
  146.7026  136.7301  153.6565 C   0  0  0  0  0  0  0  0  0  0  0  0
  146.0544  137.2708  152.3694 C   0  0  1  0  0  0  0  0  0  0  0  0
  149.8692  139.8840  152.9170 H   0  0  0  0  0  0  0  0  0  0  0  0
  151.5529  139.5756  154.7957 H   0  0  0  0  0  0  0  0  0  0  0  0
  152.5660  140.7626  156.6934 H   0  0  0  0  0  0  0  0  0  0  0  0
  150.6154  144.7489  157.2951 H   0  0  0  0  0  0  0  0  0  0  0  0
  149.8592  144.1199  158.7413 H   0  0  0  0  0  0  0  0  0  0  0  0
  152.6423  145.3719  158.5124 H   0  0  0  0  0  0  0  0  0  0  0  0
  151.2514  146.0860  159.2926 H   0  0  0  0  0  0  0  0  0  0  0  0
  152.8294  145.0669  160.9582 H   0  0  0  0  0  0  0  0  0  0  0  0
  151.2510  144.3128  161.0230 H   0  0  0  0  0  0  0  0  0  0  0  0
  153.7145  143.2228  159.5757 H   0  0  0  0  0  0  0  0  0  0  0  0
  153.0040  142.5626  161.0285 H   0  0  0  0  0  0  0  0  0  0  0  0
  150.9561  141.9146  159.8109 H   0  0  0  0  0  0  0  0  0  0  0  0
  152.3720  141.2940  158.9726 H   0  0  0  0  0  0  0  0  0  0  0  0
  148.1089  142.2263  155.1675 H   0  0  0  0  0  0  0  0  0  0  0  0
  148.6587  138.9908  151.6743 H   0  0  0  0  0  0  0  0  0  0  0  0
  145.8194  139.3252  151.7720 H   0  0  0  0  0  0  0  0  0  0  0  0
  146.3489  138.9824  149.5353 H   0  0  0  0  0  0  0  0  0  0  0  0
  147.7509  137.9963  149.9331 H   0  0  0  0  0  0  0  0  0  0  0  0
  144.8436  137.1133  149.9065 H   0  0  0  0  0  0  0  0  0  0  0  0
  146.2428  136.2830  149.2044 H   0  0  0  0  0  0  0  0  0  0  0  0
  144.2451  135.3327  151.7672 H   0  0  0  0  0  0  0  0  0  0  0  0
  145.3475  134.3198  150.8465 H   0  0  0  0  0  0  0  0  0  0  0  0
  145.1950  133.5945  153.2756 H   0  0  0  0  0  0  0  0  0  0  0  0
  146.8178  133.9972  152.7763 H   0  0  0  0  0  0  0  0  0  0  0  0
  144.9414  135.7415  154.4338 H   0  0  0  0  0  0  0  0  0  0  0  0
  146.4358  135.0172  154.9705 H   0  0  0  0  0  0  0  0  0  0  0  0
  146.6674  137.4791  154.4481 H   0  0  0  0  0  0  0  0  0  0  0  0
  147.7540  136.4958  153.4845 H   0  0  0  0  0  0  0  0  0  0  0  0
  144.9995  137.4574  152.5832 H   0  0  0  0  0  0  0  0  0  0  0  0
  147.0732  135.9102  151.3132 H   0  0  0  0  0  0  0  0  0  0  0  0
  149.1718  143.2459  156.9007 H   0  0  0  0  0  0  0  0  0  0  0  0
  1  2  2  0  0  0  0
  2  3  1  0  0  0  0
  2 16  1  0  0  0  0
  3  4  1  0  0  0  0
  3 26  1  0  0  0  0
  4 15  1  0  0  0  0
  4  5  2  0  0  0  0
  5  6  1  0  0  0  0
  5 27  1  0  0  0  0
  6  7  2  0  0  0  0
  6 28  1  0  0  0  0
  7  8  1  0  0  0  0
  7 14  1  0  0  0  0
  8 13  1  0  0  0  0
  8  9  1  0  0  0  0
  9 10  1  0  0  0  0
  9 29  1  0  0  0  0
  9 30  1  0  0  0  0
 10 11  1  0  0  0  0
 10 31  1  0  0  0  0
 10 32  1  0  0  0  0
 11 12  1  0  0  0  0
 11 33  1  0  0  0  0
 11 34  1  0  0  0  0
 12 13  1  0  0  0  0
 12 35  1  0  0  0  0
 12 36  1  0  0  0  0
 13 37  1  0  0  0  0
 13 38  1  0  0  0  0
 14 15  2  0  0  0  0
 14 56  1  0  0  0  0
 15 39  1  0  0  0  0
 16 17  1  0  0  0  0
 16 40  1  0  0  0  0
 17 25  1  0  0  0  0
 17 18  1  0  0  0  0
 17 41  1  0  0  0  0
 18 19  1  0  0  0  0
 18 42  1  0  0  0  0
 18 43  1  0  0  0  0
 19 20  1  0  0  0  0
 19 44  1  0  0  0  0
 19 45  1  0  0  0  0
 20 25  1  0  0  0  0
 20 21  1  0  0  0  0
 20 55  1  0  0  0  0
 21 22  1  0  0  0  0
 21 46  1  0  0  0  0
 21 47  1  0  0  0  0
 22 23  1  0  0  0  0
 22 48  1  0  0  0  0
 22 49  1  0  0  0  0
 23 24  1  0  0  0  0
 23 50  1  0  0  0  0
 23 51  1  0  0  0  0
 24 25  1  0  0  0  0
 24 52  1  0  0  0  0
 24 53  1  0  0  0  0
 25 54  1  0  0  0  0
M  CHG  1  14   1
M  CHG  1  20   1
M  END
> <s_m_source_file>
AV-unprocessed.smi

> <i_m_source_file_index>
1645

> <i_lp_mmshare_version>
43012

> <i_f3d_flags>
0

> <s_epik_input>
W0NIMl0xW0NIMl1bQ0gyXVtDSDJdW0NASF0oTjEyKVtDQEBIXShbQ0gyXVtDSDJdMilbTkhdQyg9TylbTkhdYzNbY0hdW2NIXWMobltjSF0zKU40W0NIMl1bQ0gyXVtDSDJdW0NIMl1bQ0gyXTQ=

> <s_epik_cmdline>
J2VwaWtfcHl0aG9uJywgJy1waCcsICc3LjAnLCAnLXRuJywgJzgnLCAnLW1hJywgJzIwMCcsICctbWV0YWxfYmluZGluZycsICctaW1hZScsICc8aW5maWxlLm1hZT4nLCAnLW9tYWUnLCAnPG91dGZpbGUubWFlPic=

> <r_lp_tautomer_probability>
0.999994

> <r_epik_Ionization_Penalty>
1.26838

> <r_epik_Ionization_Penalty_Charging>
1.26836

> <r_epik_Ionization_Penalty_Neutral>
1.95562e-05

> <r_epik_State_Penalty>
1.33841

> <r_epik_Charging_Adjusted_Penalty>
2.60677

> <i_epik_Tot_Q>
2

> <i_epik_Tot_abs_Q>
2

> <r_epik_Metal_State_Penalty>
1.40601

> <b_epik_Metal_Only>
0

> <s_lp_Force_Field>
OPLS_2005

> <r_lp_Energy>
64.599

> <b_lp_Chiralities_Consistent>
1

> <s_lp_Variant>
AV-unprocessed.smi:1645-10

> <Gold.Version>
5.8.1

> <Gold.Id.Protein>
6NUR|6NUR_protein|mol2

> <Gold.PLP.Fitness>
52.3247

> <Gold.PLP.PLP>
-42.6793

> <Gold.PLP.part.hbond>
-5.0000

> <Gold.PLP.part.metal>
0.0000

> <Gold.PLP.part.buried>
4.9043

> <Gold.PLP.part.nonpolar>
-42.9533

> <Gold.PLP.part.repulsive>
0.2989

> <Gold.PLP.ligand.clash>
0.0000

> <Gold.PLP.ligand.torsion>
1.0164

> <Gold.PLP.Chemscore.Hbond>
3.8069

> <Gold.PLP.Chemscore.CHOScore>
0.0000

> <Gold.PLP.Chemscore.Metal>
0.0000

> <Gold.Chemscore.Hbonds>
donor molecule, donor type, donor heavy atom, donor atom, acceptor molecule, acceptor atom, score
      L1  H     3    26       P1  7957  0.59
      L1  H    14    56       P1  8028  0.51
      L1  H    16    40       P1  7957  0.55
      L1  H    20    55       P1  7948  1.95

> <Gold.PLP.Chemscore.Internal.Correction>
0.2575

> <Gold.Rescore>
     Score         DG    S(hbond)    S(metal)    S(lipo)     H(rot)  DE(clash)    DE(int)     intcor
     20.88     -26.47       2.72        0.00     123.53       1.00       4.43       1.16       ----

> <Gold.Chemscore.Fitness>
20.8840

> <Gold.Chemscore.DG>
-26.4718

> <Gold.Chemscore.ZeroCoef>
-5.4800

> <Gold.Chemscore.Hbond>
2.7242

> <Gold.Chemscore.Metal>
0.0000

> <Gold.Chemscore.Lipo>
123.5285

> <Gold.Chemscore.Internal_Hbond>
0.0000

> <Gold.Chemscore.DEClash>
4.4293

> <Gold.Chemscore.DEInternal>
1.1584

> <Gold.Chemscore.Rot>
1.0000

> <Gold.Chemscore.Internal.Correction>
   9.000000E+99

> <Gold.Chemscore.Hbonds>
donor molecule, donor type, donor heavy atom, donor atom, acceptor molecule, acceptor atom, score
      L1  H     3    26       P1  7957  0.60
      L1  H    14    56       P1  8028  0.24
      L1  H    16    40       P1  7957  0.41
      L1  H    20    55       P1  7948  0.92

> <Gold.Chemscore.Hbond.Weighted>
-9.0989

> <Gold.Chemscore.Metal.Weighted>
-0.0000

> <Gold.Chemscore.Lipo.Weighted>
-14.4528

> <Gold.Chemscore.Internal_Hbond.Weighted>
0.0000

> <Gold.Chemscore.DEClash.Weighted>
4.4293

> <Gold.Chemscore.DEInternal.Weighted>
1.1584

> <Gold.Chemscore.Rot.Weighted>
2.5600

> <Gold.Chemscore.Internal.Correction.Weighted>
   9.000000E+99

> <Gold.Protein.RotatedTorsions>
[ 6907 6896 6895 6894 ] final  -54.39 input  -60.11 | X-H torsion
[ 7974 7965 7964 7962 ] final  -17.14 input  175.53 | X-H torsion
[ 8008 7997 7996 7995 ] final   53.85 input   59.86 | X-H torsion
[ 10167 10162 10161 10158 ] final   54.80 input  -65.29 | X-H torsion
[ 10718 10713 10712 10709 ] final -125.97 input   66.30 | X-H torsion
[ 10763 10752 10751 10750 ] final   78.02 input  -60.55 | X-H torsion
[ 11005 11000 10999 10996 ] final  111.19 input  -57.11 | X-H torsion

> <Gold.Protein.ActiveResidues>
 VAL166  LYS551  ARG553  GLY616  TRP617  ASP618  TYR619  PRO620  LYS621  CYS622 
 ASP623  PHE694  ASN695  SER759  ASP760  ASP761  ALA762  ILE779  LEU786  VAL792 
 PHE793  MET794  SER795  GLU796  ALA797  LYS798  CYS799  TRP800  GLU811  SER814 

> <Gold.Protein.RotatedAtoms>
  150.8342  134.7608  159.6878 H   0  0  0  0  0  0  0  0  0  0  0  0  # atno 6907 bound_to 6896
  152.4441  134.5527  159.9881 H   0  0  0  0  0  0  0  0  0  0  0  0  # atno 6908 bound_to 6896
  151.5681  133.3356  159.3020 H   0  0  0  0  0  0  0  0  0  0  0  0  # atno 6909 bound_to 6896
  146.1955  140.3736  142.8442 H   0  0  0  0  0  0  0  0  0  0  0  0  # atno 7974 bound_to 7965
  155.4751  140.3466  155.4331 H   0  0  0  0  0  0  0  0  0  0  0  0  # atno 8008 bound_to 7997
  156.1075  140.1452  156.9413 H   0  0  0  0  0  0  0  0  0  0  0  0  # atno 8009 bound_to 7997
  154.4734  140.0893  156.7180 H   0  0  0  0  0  0  0  0  0  0  0  0  # atno 8010 bound_to 7997
  140.2262  144.3735  150.6431 H   0  0  0  0  0  0  0  0  0  0  0  0  # atno 10167 bound_to 10162
  156.1723  130.6676  151.0196 H   0  0  0  0  0  0  0  0  0  0  0  0  # atno 10718 bound_to 10713
  153.0842  135.4892  154.8564 H   0  0  0  0  0  0  0  0  0  0  0  0  # atno 10763 bound_to 10752
  154.7190  135.3035  154.9080 H   0  0  0  0  0  0  0  0  0  0  0  0  # atno 10764 bound_to 10752
  153.9751  135.6796  153.4801 H   0  0  0  0  0  0  0  0  0  0  0  0  # atno 10765 bound_to 10752
  139.8898  134.9502  156.6394 H   0  0  0  0  0  0  0  0  0  0  0  0  # atno 11005 bound_to 11000
  144.8572  140.7087  143.6131 LP  0  0  0  0  0  0  0  0  0  0  0  0  # atno 17320 bound_to 7965
  145.3657  139.1671  143.4359 LP  0  0  0  0  0  0  0  0  0  0  0  0  # atno 17321 bound_to 7965
  140.6218  143.2177  151.6677 LP  0  0  0  0  0  0  0  0  0  0  0  0  # atno 17342 bound_to 10162
  139.5126  144.3470  152.0687 LP  0  0  0  0  0  0  0  0  0  0  0  0  # atno 17343 bound_to 10162
  157.6811  131.0837  150.7366 LP  0  0  0  0  0  0  0  0  0  0  0  0  # atno 17370 bound_to 10713
  156.7425  130.4743  149.5474 LP  0  0  0  0  0  0  0  0  0  0  0  0  # atno 17371 bound_to 10713
  140.7605  133.8821  155.8415 LP  0  0  0  0  0  0  0  0  0  0  0  0  # atno 17394 bound_to 11000
  140.9925  134.1259  157.4394 LP  0  0  0  0  0  0  0  0  0  0  0  0  # atno 17395 bound_to 11000

$$$$
