AV-unprocessed.smi:1949|AV-procd|sdf|7877|dock3
  -GOLD-   2272010 23D 1   1.00000     0.00000
 Structure written by MMmdl.
 29 30  0  0  0  0  0  0  0  0  1 V2000
  143.0750  143.1914  161.8444 C   0  0  0  0  0  0  0  0  0  0  0  0
  144.4740  143.2919  161.3398 C   0  0  0  0  0  0  0  0  0  0  0  0
  145.3993  142.3542  161.5750 N   0  0  0  0  0  0  0  0  0  0  0  0
  146.6239  142.6702  161.0051 N   0  0  0  0  0  0  0  0  0  0  0  0
  146.5909  143.8432  160.3559 C   0  0  0  0  0  0  0  0  0  0  0  0
  147.6982  144.4250  159.6715 N   0  0  0  0  0  0  0  0  0  0  0  0
  149.0256  144.3989  159.9198 C   0  0  0  0  0  0  0  0  0  0  0  0
  149.4756  143.7870  160.8872 O   0  0  0  0  0  0  0  0  0  0  0  0
  149.8090  145.0667  159.0572 N   0  0  0  0  0  0  0  0  0  0  0  0
  151.2633  145.1704  159.1348 C   0  0  0  0  0  0  0  0  0  0  0  0
  151.9278  143.8734  158.6331 C   0  0  0  0  0  0  0  0  0  0  0  0
  152.9385  143.4681  159.7080 C   0  0  0  0  0  0  0  0  0  0  0  0
  152.3585  144.0255  161.0038 C   0  0  0  0  0  0  0  0  0  0  0  0
  151.7386  145.3597  160.5890 C   0  0  0  0  0  0  0  0  0  0  0  0
  145.0371  144.6607  160.3895 S   0  0  0  0  0  0  0  0  0  0  0  0
  142.8626  142.1790  162.1895 H   0  0  0  0  0  0  0  0  0  0  0  0
  142.3722  143.4428  161.0501 H   0  0  0  0  0  0  0  0  0  0  0  0
  142.9288  143.8825  162.6744 H   0  0  0  0  0  0  0  0  0  0  0  0
  147.4431  144.9536  158.8501 H   0  0  0  0  0  0  0  0  0  0  0  0
  149.3606  145.5419  158.2867 H   0  0  0  0  0  0  0  0  0  0  0  0
  151.6013  146.0119  158.5270 H   0  0  0  0  0  0  0  0  0  0  0  0
  151.1883  143.0781  158.5240 H   0  0  0  0  0  0  0  0  0  0  0  0
  152.4025  144.0045  157.6601 H   0  0  0  0  0  0  0  0  0  0  0  0
  153.0992  142.3905  159.7482 H   0  0  0  0  0  0  0  0  0  0  0  0
  153.9002  143.9413  159.5053 H   0  0  0  0  0  0  0  0  0  0  0  0
  151.5805  143.3576  161.3760 H   0  0  0  0  0  0  0  0  0  0  0  0
  153.1081  144.1361  161.7877 H   0  0  0  0  0  0  0  0  0  0  0  0
  152.5058  146.1345  160.6154 H   0  0  0  0  0  0  0  0  0  0  0  0
  150.9466  145.6725  161.2708 H   0  0  0  0  0  0  0  0  0  0  0  0
  1  2  1  0  0  0  0
  1 16  1  0  0  0  0
  1 17  1  0  0  0  0
  1 18  1  0  0  0  0
  2 15  1  0  0  0  0
  2  3  2  0  0  0  0
  3  4  1  0  0  0  0
  4  5  2  0  0  0  0
  5  6  1  0  0  0  0
  5 15  1  0  0  0  0
  6  7  1  0  0  0  0
  6 19  1  0  0  0  0
  7  8  2  0  0  0  0
  7  9  1  0  0  0  0
  9 10  1  0  0  0  0
  9 20  1  0  0  0  0
 10 14  1  0  0  0  0
 10 11  1  0  0  0  0
 10 21  1  0  0  0  0
 11 12  1  0  0  0  0
 11 22  1  0  0  0  0
 11 23  1  0  0  0  0
 12 13  1  0  0  0  0
 12 24  1  0  0  0  0
 12 25  1  0  0  0  0
 13 14  1  0  0  0  0
 13 26  1  0  0  0  0
 13 27  1  0  0  0  0
 14 28  1  0  0  0  0
 14 29  1  0  0  0  0
M  END
> <s_m_source_file>
AV-unprocessed.smi

> <i_m_source_file_index>
1949

> <i_lp_mmshare_version>
43012

> <i_f3d_flags>
0

> <s_epik_input>
W0NIM11jMW5uYyhzMSlbTkhdQyg9TylbTkhdW0NIXTJbQ0gyXVtDSDJdW0NIMl1bQ0gyXTI=

> <s_epik_cmdline>
J2VwaWtfcHl0aG9uJywgJy1waCcsICc3LjAnLCAnLXRuJywgJzgnLCAnLW1hJywgJzIwMCcsICctbWV0YWxfYmluZGluZycsICctaW1hZScsICc8aW5maWxlLm1hZT4nLCAnLW9tYWUnLCAnPG91dGZpbGUubWFlPic=

> <r_lp_tautomer_probability>
1

> <r_epik_Ionization_Penalty>
0.00038779

> <r_epik_Ionization_Penalty_Charging>
0

> <r_epik_Ionization_Penalty_Neutral>
0.00038779

> <r_epik_State_Penalty>
-0

> <r_epik_Charging_Adjusted_Penalty>
0

> <i_epik_Tot_Q>
0

> <i_epik_Tot_abs_Q>
0

> <r_epik_Metal_State_Penalty>
0.190371

> <b_epik_Metal_Only>
0

> <s_lp_Force_Field>
OPLS_2005

> <r_lp_Energy>
20.1691

> <b_lp_Chiralities_Consistent>
1

> <s_lp_Variant>
AV-unprocessed.smi:1949-1

> <Gold.Version>
5.8.1

> <Gold.Id.Protein>
6NUR|6NUR_protein|mol2

> <Gold.PLP.Fitness>
45.3960

> <Gold.PLP.PLP>
-36.4097

> <Gold.PLP.part.hbond>
-5.1745

> <Gold.PLP.part.metal>
0.0000

> <Gold.PLP.part.buried>
-5.1578

> <Gold.PLP.part.nonpolar>
-27.0469

> <Gold.PLP.part.repulsive>
0.5345

> <Gold.PLP.ligand.clash>
0.0000

> <Gold.PLP.ligand.torsion>
0.4834

> <Gold.PLP.Chemscore.Hbond>
3.3169

> <Gold.PLP.Chemscore.CHOScore>
0.0000

> <Gold.PLP.Chemscore.Metal>
0.0000

> <Gold.Chemscore.Hbonds>
donor molecule, donor type, donor heavy atom, donor atom, acceptor molecule, acceptor atom, score
      L1  H     6    19       P1  8029  1.00
      L1  H     9    20       P1  8029  1.00
      P1  H  6933  6944       L1     4  0.77
      P1  H  6934  6946       L1     4  0.38

> <Gold.PLP.Chemscore.Internal.Correction>
0.0025

> <Gold.Rescore>
     Score         DG    S(hbond)    S(metal)    S(lipo)     H(rot)  DE(clash)    DE(int)     intcor
     16.98     -20.72       2.42        0.00      83.01       1.00       0.07       3.66       ----

> <Gold.Chemscore.Fitness>
16.9808

> <Gold.Chemscore.DG>
-20.7166

> <Gold.Chemscore.ZeroCoef>
-5.4800

> <Gold.Chemscore.Hbond>
2.4204

> <Gold.Chemscore.Metal>
0.0000

> <Gold.Chemscore.Lipo>
83.0118

> <Gold.Chemscore.Internal_Hbond>
0.0000

> <Gold.Chemscore.DEClash>
0.0723

> <Gold.Chemscore.DEInternal>
3.6635

> <Gold.Chemscore.Rot>
1.0000

> <Gold.Chemscore.Internal.Correction>
   9.000000E+99

> <Gold.Chemscore.Hbonds>
donor molecule, donor type, donor heavy atom, donor atom, acceptor molecule, acceptor atom, score
      L1  H     6    19       P1  8029  0.97
      L1  H     9    20       P1  8029  0.76
      P1  H  6933  6944       L1     4  0.45
      P1  H  6934  6946       L1     4  0.01

> <Gold.Chemscore.Hbond.Weighted>
-8.0842

> <Gold.Chemscore.Metal.Weighted>
-0.0000

> <Gold.Chemscore.Lipo.Weighted>
-9.7124

> <Gold.Chemscore.Internal_Hbond.Weighted>
0.0000

> <Gold.Chemscore.DEClash.Weighted>
0.0723

> <Gold.Chemscore.DEInternal.Weighted>
3.6635

> <Gold.Chemscore.Rot.Weighted>
2.5600

> <Gold.Chemscore.Internal.Correction.Weighted>
   9.000000E+99

> <Gold.Protein.RotatedTorsions>
[ 6907 6896 6895 6894 ] final  130.39 input  -60.11 | X-H torsion
[ 7974 7965 7964 7962 ] final   79.83 input  175.53 | X-H torsion
[ 8008 7997 7996 7995 ] final  -11.99 input   59.86 | X-H torsion
[ 10167 10162 10161 10158 ] final   66.62 input  -65.29 | X-H torsion
[ 10718 10713 10712 10709 ] final -121.45 input   66.30 | X-H torsion
[ 10763 10752 10751 10750 ] final -178.53 input  -60.55 | X-H torsion
[ 11005 11000 10999 10996 ] final  121.20 input  -57.11 | X-H torsion

> <Gold.Protein.ActiveResidues>
 VAL166  LYS551  ARG553  GLY616  TRP617  ASP618  TYR619  PRO620  LYS621  CYS622 
 ASP623  PHE694  ASN695  SER759  ASP760  ASP761  ALA762  ILE779  LEU786  VAL792 
 PHE793  MET794  SER795  GLU796  ALA797  LYS798  CYS799  TRP800  GLU811  SER814 

> <Gold.Protein.RotatedAtoms>
  152.3531  133.6204  159.5959 H   0  0  0  0  0  0  0  0  0  0  0  0  # atno 6907 bound_to 6896
  150.7551  133.9543  159.3504 H   0  0  0  0  0  0  0  0  0  0  0  0  # atno 6908 bound_to 6896
  151.7392  135.0859  160.0364 H   0  0  0  0  0  0  0  0  0  0  0  0  # atno 6909 bound_to 6896
  145.6591  139.2467  143.1933 H   0  0  0  0  0  0  0  0  0  0  0  0  # atno 7974 bound_to 7965
  154.5416  140.2288  155.8631 H   0  0  0  0  0  0  0  0  0  0  0  0  # atno 8008 bound_to 7997
  156.1864  140.3088  155.9209 H   0  0  0  0  0  0  0  0  0  0  0  0  # atno 8009 bound_to 7997
  155.3246  140.0442  157.3031 H   0  0  0  0  0  0  0  0  0  0  0  0  # atno 8010 bound_to 7997
  140.0984  144.4926  150.7053 H   0  0  0  0  0  0  0  0  0  0  0  0  # atno 10167 bound_to 10162
  156.1338  130.6415  150.9664 H   0  0  0  0  0  0  0  0  0  0  0  0  # atno 10718 bound_to 10713
  154.5466  135.2810  155.1047 H   0  0  0  0  0  0  0  0  0  0  0  0  # atno 10763 bound_to 10752
  154.2509  135.6339  153.5244 H   0  0  0  0  0  0  0  0  0  0  0  0  # atno 10764 bound_to 10752
  152.9992  135.5582  154.6020 H   0  0  0  0  0  0  0  0  0  0  0  0  # atno 10765 bound_to 10752
  139.9216  134.9638  156.7922 H   0  0  0  0  0  0  0  0  0  0  0  0  # atno 11005 bound_to 11000
  146.1140  140.7392  142.9489 LP  0  0  0  0  0  0  0  0  0  0  0  0  # atno 17320 bound_to 7965
  144.7095  140.3985  143.7091 LP  0  0  0  0  0  0  0  0  0  0  0  0  # atno 17321 bound_to 7965
  140.6991  143.2423  151.4916 LP  0  0  0  0  0  0  0  0  0  0  0  0  # atno 17342 bound_to 10162
  139.5685  144.1985  152.1801 LP  0  0  0  0  0  0  0  0  0  0  0  0  # atno 17343 bound_to 10162
  157.6513  131.0896  150.8044 LP  0  0  0  0  0  0  0  0  0  0  0  0  # atno 17370 bound_to 10713
  156.8126  130.4957  149.5354 LP  0  0  0  0  0  0  0  0  0  0  0  0  # atno 17371 bound_to 10713
  140.6458  133.9776  155.7730 LP  0  0  0  0  0  0  0  0  0  0  0  0  # atno 17394 bound_to 11000
  141.0741  134.0161  157.3483 LP  0  0  0  0  0  0  0  0  0  0  0  0  # atno 17395 bound_to 11000

$$$$
