AV-unprocessed.smi:569|AV-procd|sdf|2959|dock2
  -GOLD-   2262023463D 1   1.00000     0.00000
 Structure written by MMmdl.
 37 38  0  0  0  0  0  0  0  0  1 V2000
  146.2065  142.4221  158.4787 C   0  0  0  0  0  0  0  0  0  0  0  0
  146.3286  142.1347  157.0216 C   0  0  0  0  0  0  0  0  0  0  0  0
  147.4997  142.0256  156.3899 N   0  0  0  0  0  0  0  0  0  0  0  0
  147.3538  141.7504  155.0257 C   0  0  0  0  0  0  0  0  0  0  0  0
  148.5697  141.5825  154.1595 C   0  0  0  0  0  0  0  0  0  0  0  0
  149.8153  141.3564  155.0196 C   0  0  0  0  0  0  0  0  0  0  0  0
  150.4830  140.3322  154.8781 O   0  0  0  0  0  0  0  0  0  0  0  0
  150.1192  142.3222  155.9015 N   0  0  0  0  0  0  0  0  0  0  0  0
  151.2363  142.2938  156.8394 C   0  0  2  0  0  0  0  0  0  0  0  0
  151.0886  141.0813  157.7759 C   0  0  0  0  0  0  0  0  0  0  0  0
  152.2124  141.0403  158.8236 C   0  0  0  0  0  0  0  0  0  0  0  0
  152.2745  142.3457  159.6395 C   0  0  1  0  0  0  0  0  0  0  0  0
  153.4009  142.3026  160.6817 C   0  0  0  0  0  0  0  0  0  0  0  0
  152.4208  143.5590  158.7008 C   0  0  0  0  0  0  0  0  0  0  0  0
  151.2994  143.6033  157.6499 C   0  0  0  0  0  0  0  0  0  0  0  0
  146.0415  141.6621  154.6308 C   0  0  0  0  0  0  0  0  0  0  0  0
  144.9435  141.9101  155.9603 S   0  0  0  0  0  0  0  0  0  0  0  0
  146.9513  141.8566  159.0391 H   0  0  0  0  0  0  0  0  0  0  0  0
  145.2155  142.1437  158.8373 H   0  0  0  0  0  0  0  0  0  0  0  0
  146.3601  143.4856  158.6623 H   0  0  0  0  0  0  0  0  0  0  0  0
  148.4394  140.7379  153.4818 H   0  0  0  0  0  0  0  0  0  0  0  0
  148.7281  142.4599  153.5310 H   0  0  0  0  0  0  0  0  0  0  0  0
  149.5130  143.1289  155.9416 H   0  0  0  0  0  0  0  0  0  0  0  0
  152.1682  142.1783  156.2824 H   0  0  0  0  0  0  0  0  0  0  0  0
  150.1234  141.1196  158.2831 H   0  0  0  0  0  0  0  0  0  0  0  0
  151.0956  140.1581  157.1951 H   0  0  0  0  0  0  0  0  0  0  0  0
  152.0581  140.1907  159.4896 H   0  0  0  0  0  0  0  0  0  0  0  0
  153.1674  140.8709  158.3241 H   0  0  0  0  0  0  0  0  0  0  0  0
  151.3319  142.4499  160.1793 H   0  0  0  0  0  0  0  0  0  0  0  0
  154.3764  142.1925  160.2069 H   0  0  0  0  0  0  0  0  0  0  0  0
  153.2686  141.4662  161.3688 H   0  0  0  0  0  0  0  0  0  0  0  0
  153.4213  143.2163  161.2763 H   0  0  0  0  0  0  0  0  0  0  0  0
  152.4123  144.4824  159.2808 H   0  0  0  0  0  0  0  0  0  0  0  0
  153.3874  143.5208  158.1965 H   0  0  0  0  0  0  0  0  0  0  0  0
  151.4583  144.4515  156.9831 H   0  0  0  0  0  0  0  0  0  0  0  0
  150.3440  143.7769  158.1473 H   0  0  0  0  0  0  0  0  0  0  0  0
  145.6567  141.4606  153.6420 H   0  0  0  0  0  0  0  0  0  0  0  0
  1  2  1  0  0  0  0
  1 18  1  0  0  0  0
  1 19  1  0  0  0  0
  1 20  1  0  0  0  0
  2 17  1  0  0  0  0
  2  3  2  0  0  0  0
  3  4  1  0  0  0  0
  4  5  1  0  0  0  0
  4 16  2  0  0  0  0
  5  6  1  0  0  0  0
  5 21  1  0  0  0  0
  5 22  1  0  0  0  0
  6  7  2  0  0  0  0
  6  8  1  0  0  0  0
  8  9  1  0  0  0  0
  8 23  1  0  0  0  0
  9 15  1  0  0  0  0
  9 10  1  0  0  0  0
  9 24  1  0  0  0  0
 10 11  1  0  0  0  0
 10 25  1  0  0  0  0
 10 26  1  0  0  0  0
 11 12  1  0  0  0  0
 11 27  1  0  0  0  0
 11 28  1  0  0  0  0
 12 13  1  0  0  0  0
 12 14  1  0  0  0  0
 12 29  1  0  0  0  0
 13 30  1  0  0  0  0
 13 31  1  0  0  0  0
 13 32  1  0  0  0  0
 14 15  1  0  0  0  0
 14 33  1  0  0  0  0
 14 34  1  0  0  0  0
 15 35  1  0  0  0  0
 15 36  1  0  0  0  0
 16 17  1  0  0  0  0
 16 37  1  0  0  0  0
M  END
> <s_m_source_file>
AV-unprocessed.smi

> <i_m_source_file_index>
569

> <i_lp_mmshare_version>
43012

> <i_f3d_flags>
0

> <s_epik_input>
W0NIM11jMW5jKFtjSF1zMSlbQ0gyXUMoPU8pW05IXVtDQEBIXTJbQ0gyXVtDSDJdW0NAQEhdKFtDSDNdKVtDSDJdW0NIMl0y

> <s_epik_cmdline>
J2VwaWtfcHl0aG9uJywgJy1waCcsICc3LjAnLCAnLXRuJywgJzgnLCAnLW1hJywgJzIwMCcsICctbWV0YWxfYmluZGluZycsICctaW1hZScsICc8aW5maWxlLm1hZT4nLCAnLW9tYWUnLCAnPG91dGZpbGUubWFlPic=

> <r_lp_tautomer_probability>
1

> <r_epik_Ionization_Penalty>
6.63234e-05

> <r_epik_Ionization_Penalty_Charging>
0

> <r_epik_Ionization_Penalty_Neutral>
6.63234e-05

> <r_epik_State_Penalty>
-0

> <r_epik_Charging_Adjusted_Penalty>
0

> <i_epik_Tot_Q>
0

> <i_epik_Tot_abs_Q>
0

> <r_epik_Metal_State_Penalty>
-0

> <b_epik_Metal_Only>
0

> <s_lp_Force_Field>
OPLS_2005

> <r_lp_Energy>
6.98926

> <b_lp_Chiralities_Consistent>
1

> <s_lp_Variant>
AV-unprocessed.smi:569-1

> <Gold.Version>
5.8.1

> <Gold.Id.Protein>
6NUR|6NUR_protein|mol2

> <Gold.PLP.Fitness>
43.9109

> <Gold.PLP.PLP>
-35.3499

> <Gold.PLP.part.hbond>
-2.0000

> <Gold.PLP.part.metal>
0.0000

> <Gold.PLP.part.buried>
-3.5837

> <Gold.PLP.part.nonpolar>
-30.2190

> <Gold.PLP.part.repulsive>
0.6521

> <Gold.PLP.ligand.clash>
0.0000

> <Gold.PLP.ligand.torsion>
0.2171

> <Gold.PLP.Chemscore.Hbond>
2.0000

> <Gold.PLP.Chemscore.CHOScore>
0.9956

> <Gold.PLP.Chemscore.Metal>
0.0000

> <Gold.Chemscore.Hbonds>
donor molecule, donor type, donor heavy atom, donor atom, acceptor molecule, acceptor atom, score
      L1  H     8    23       P1  8028  1.00
      P1  H  7989  7998       L1     7  1.00
      L1  C    16    37       P1 10175  0.99

> <Gold.PLP.Chemscore.Internal.Correction>
0.0083

> <Gold.Rescore>
     Score         DG    S(hbond)    S(metal)    S(lipo)     H(rot)  DE(clash)    DE(int)     intcor
     15.85     -17.05       1.06        0.00      96.14       1.26       0.38       0.82       ----

> <Gold.Chemscore.Fitness>
15.8528

> <Gold.Chemscore.DG>
-17.0490

> <Gold.Chemscore.ZeroCoef>
-5.4800

> <Gold.Chemscore.Hbond>
1.0631

> <Gold.Chemscore.Metal>
0.0000

> <Gold.Chemscore.Lipo>
96.1434

> <Gold.Chemscore.Internal_Hbond>
0.0000

> <Gold.Chemscore.DEClash>
0.3761

> <Gold.Chemscore.DEInternal>
0.8201

> <Gold.Chemscore.Rot>
1.2620

> <Gold.Chemscore.Internal.Correction>
   9.000000E+99

> <Gold.Chemscore.Hbonds>
donor molecule, donor type, donor heavy atom, donor atom, acceptor molecule, acceptor atom, score
      L1  H     8    23       P1  8028  1.00
      P1  H  7989  7998       L1     7  0.25

> <Gold.Chemscore.Hbond.Weighted>
-3.5508

> <Gold.Chemscore.Metal.Weighted>
-0.0000

> <Gold.Chemscore.Lipo.Weighted>
-11.2488

> <Gold.Chemscore.Internal_Hbond.Weighted>
0.0000

> <Gold.Chemscore.DEClash.Weighted>
0.3761

> <Gold.Chemscore.DEInternal.Weighted>
0.8201

> <Gold.Chemscore.Rot.Weighted>
3.2306

> <Gold.Chemscore.Internal.Correction.Weighted>
   9.000000E+99

> <Gold.Protein.RotatedTorsions>
[ 6907 6896 6895 6894 ] final  -36.40 input  -60.11 | X-H torsion
[ 7974 7965 7964 7962 ] final   53.92 input  175.53 | X-H torsion
[ 8008 7997 7996 7995 ] final  160.13 input   59.86 | X-H torsion
[ 10167 10162 10161 10158 ] final  168.74 input  -65.29 | X-H torsion
[ 10718 10713 10712 10709 ] final -129.02 input   66.30 | X-H torsion
[ 10763 10752 10751 10750 ] final -128.94 input  -60.55 | X-H torsion
[ 11005 11000 10999 10996 ] final  102.69 input  -57.11 | X-H torsion

> <Gold.Protein.ActiveResidues>
 VAL166  LYS551  ARG553  GLY616  TRP617  ASP618  TYR619  PRO620  LYS621  CYS622 
 ASP623  PHE694  ASN695  SER759  ASP760  ASP761  ALA762  ILE779  LEU786  VAL792 
 PHE793  MET794  SER795  GLU796  ALA797  LYS798  CYS799  TRP800  GLU811  SER814 

> <Gold.Protein.RotatedAtoms>
  151.0276  134.9516  159.8093 H   0  0  0  0  0  0  0  0  0  0  0  0  # atno 6907 bound_to 6896
  152.5339  134.2822  159.9021 H   0  0  0  0  0  0  0  0  0  0  0  0  # atno 6908 bound_to 6896
  151.2830  133.4158  159.2662 H   0  0  0  0  0  0  0  0  0  0  0  0  # atno 6909 bound_to 6896
  145.9662  139.4105  143.0218 H   0  0  0  0  0  0  0  0  0  0  0  0  # atno 7974 bound_to 7965
  156.2193  140.1812  156.7514 H   0  0  0  0  0  0  0  0  0  0  0  0  # atno 8008 bound_to 7997
  154.5840  140.0661  156.9174 H   0  0  0  0  0  0  0  0  0  0  0  0  # atno 8009 bound_to 7997
  155.2452  140.3325  155.4290 H   0  0  0  0  0  0  0  0  0  0  0  0  # atno 8010 bound_to 7997
  139.4975  144.3782  151.9651 H   0  0  0  0  0  0  0  0  0  0  0  0  # atno 10167 bound_to 10162
  156.2006  130.6855  151.0535 H   0  0  0  0  0  0  0  0  0  0  0  0  # atno 10718 bound_to 10713
  154.8757  135.3912  154.3838 H   0  0  0  0  0  0  0  0  0  0  0  0  # atno 10763 bound_to 10752
  153.4582  135.7029  153.6072 H   0  0  0  0  0  0  0  0  0  0  0  0  # atno 10764 bound_to 10752
  153.4582  135.3818  155.2291 H   0  0  0  0  0  0  0  0  0  0  0  0  # atno 10765 bound_to 10752
  139.8779  134.9234  156.5097 H   0  0  0  0  0  0  0  0  0  0  0  0  # atno 11005 bound_to 11000
  145.7970  140.9788  143.1019 LP  0  0  0  0  0  0  0  0  0  0  0  0  # atno 17320 bound_to 7965
  144.6826  139.9754  143.7483 LP  0  0  0  0  0  0  0  0  0  0  0  0  # atno 17321 bound_to 7965
  140.3218  144.3419  150.6008 LP  0  0  0  0  0  0  0  0  0  0  0  0  # atno 17342 bound_to 10162
  140.5716  143.2180  151.7589 LP  0  0  0  0  0  0  0  0  0  0  0  0  # atno 17343 bound_to 10162
  157.6983  131.0785  150.6899 LP  0  0  0  0  0  0  0  0  0  0  0  0  # atno 17370 bound_to 10713
  156.6956  130.4608  149.5587 LP  0  0  0  0  0  0  0  0  0  0  0  0  # atno 17371 bound_to 10713
  140.8529  133.8118  155.9187 LP  0  0  0  0  0  0  0  0  0  0  0  0  # atno 17394 bound_to 11000
  140.9126  134.2242  157.4976 LP  0  0  0  0  0  0  0  0  0  0  0  0  # atno 17395 bound_to 11000

$$$$
