AV-unprocessed.smi:2409|AV-procd|sdf|9524|dock5
  -GOLD-   2272013153D 1   1.00000     0.00000
 Structure written by MMmdl.
 35 36  0  0  0  0  0  0  0  0  1 V2000
  151.9877  143.8087  159.8233 C   0  0  0  0  0  0  0  0  0  0  0  0
  151.0202  142.8211  159.5112 O   0  0  0  0  0  0  0  0  0  0  0  0
  151.4510  141.9101  158.6127 C   0  0  0  0  0  0  0  0  0  0  0  0
  151.0148  141.5832  157.3588 C   0  0  0  0  0  0  0  0  0  0  0  0
  149.9417  142.1143  156.5994 N   0  0  0  0  0  0  0  0  0  0  0  0
  149.0016  141.4312  155.9206 C   0  0  0  0  0  0  0  0  0  0  0  0
  148.9533  140.2053  155.8471 O   0  0  0  0  0  0  0  0  0  0  0  0
  148.0900  142.2026  155.3021 N   0  0  0  0  0  0  0  0  0  0  0  0
  146.9727  141.7856  154.5064 C   0  0  2  0  0  0  0  0  0  0  0  0
  146.1411  142.8740  153.8625 C   0  0  0  0  0  0  0  0  0  0  0  0
  145.5676  142.0742  155.0023 C   0  0  2  0  0  0  0  0  0  0  0  0
  145.3048  142.7239  156.3468 C   0  0  0  0  0  0  0  0  0  0  0  0
  151.8432  140.5019  156.9500 C   0  0  0  0  0  0  0  0  0  0  0  0
  151.8095  139.7087  155.6755 C   0  0  0  0  0  0  0  0  0  0  0  0
  152.7557  140.2212  157.8738 N   0  0  0  0  0  0  0  0  0  0  0  0
  152.5233  141.0882  158.8896 N   0  0  0  0  0  0  0  0  0  0  0  0
  153.3477  141.0377  160.0794 C   0  0  0  0  0  0  0  0  0  0  0  0
  151.5713  144.5128  160.5434 H   0  0  0  0  0  0  0  0  0  0  0  0
  152.2757  144.3686  158.9324 H   0  0  0  0  0  0  0  0  0  0  0  0
  152.8839  143.3699  160.2632 H   0  0  0  0  0  0  0  0  0  0  0  0
  149.8182  143.1148  156.6519 H   0  0  0  0  0  0  0  0  0  0  0  0
  148.2237  143.2008  155.3775 H   0  0  0  0  0  0  0  0  0  0  0  0
  147.0952  140.8907  153.8980 H   0  0  0  0  0  0  0  0  0  0  0  0
  146.4183  143.9085  154.0578 H   0  0  0  0  0  0  0  0  0  0  0  0
  145.7457  142.6808  152.8674 H   0  0  0  0  0  0  0  0  0  0  0  0
  144.8204  141.3293  154.7347 H   0  0  0  0  0  0  0  0  0  0  0  0
  146.0159  143.5270  156.5428 H   0  0  0  0  0  0  0  0  0  0  0  0
  145.3881  141.9828  157.1420 H   0  0  0  0  0  0  0  0  0  0  0  0
  144.2991  143.1439  156.3667 H   0  0  0  0  0  0  0  0  0  0  0  0
  151.1471  140.1646  154.9397 H   0  0  0  0  0  0  0  0  0  0  0  0
  151.4545  138.6942  155.8570 H   0  0  0  0  0  0  0  0  0  0  0  0
  152.8011  139.6406  155.2276 H   0  0  0  0  0  0  0  0  0  0  0  0
  153.4237  142.0315  160.5214 H   0  0  0  0  0  0  0  0  0  0  0  0
  154.3501  140.6866  159.8309 H   0  0  0  0  0  0  0  0  0  0  0  0
  152.8996  140.3586  160.8049 H   0  0  0  0  0  0  0  0  0  0  0  0
  1  2  1  0  0  0  0
  1 18  1  0  0  0  0
  1 19  1  0  0  0  0
  1 20  1  0  0  0  0
  2  3  1  0  0  0  0
  3 16  1  0  0  0  0
  3  4  2  0  0  0  0
  4  5  1  0  0  0  0
  4 13  1  0  0  0  0
  5  6  1  0  0  0  0
  5 21  1  0  0  0  0
  6  7  2  0  0  0  0
  6  8  1  0  0  0  0
  8  9  1  0  0  0  0
  8 22  1  0  0  0  0
  9 11  1  0  0  0  0
  9 10  1  0  0  0  0
  9 23  1  0  0  0  0
 10 11  1  0  0  0  0
 10 24  1  0  0  0  0
 10 25  1  0  0  0  0
 11 12  1  0  0  0  0
 11 26  1  0  0  0  0
 12 27  1  0  0  0  0
 12 28  1  0  0  0  0
 12 29  1  0  0  0  0
 13 14  1  0  0  0  0
 13 15  2  0  0  0  0
 14 30  1  0  0  0  0
 14 31  1  0  0  0  0
 14 32  1  0  0  0  0
 15 16  1  0  0  0  0
 16 17  1  0  0  0  0
 17 33  1  0  0  0  0
 17 34  1  0  0  0  0
 17 35  1  0  0  0  0
M  END
> <s_m_source_file>
AV-unprocessed.smi

> <i_m_source_file_index>
2409

> <i_lp_mmshare_version>
43012

> <i_f3d_flags>
0

> <s_epik_input>
W0NIM11uMW5jKFtDSDNdKWMoYzFPW0NIM10pW05IXUMoPU8pW05IXVtDQEBIXTJbQ0gyXVtDQEhdMltDSDNd

> <s_epik_cmdline>
J2VwaWtfcHl0aG9uJywgJy1waCcsICc3LjAnLCAnLXRuJywgJzgnLCAnLW1hJywgJzIwMCcsICctbWV0YWxfYmluZGluZycsICctaW1hZScsICc8aW5maWxlLm1hZT4nLCAnLW9tYWUnLCAnPG91dGZpbGUubWFlPic=

> <r_lp_tautomer_probability>
1

> <r_epik_Ionization_Penalty>
0.000417804

> <r_epik_Ionization_Penalty_Charging>
0

> <r_epik_Ionization_Penalty_Neutral>
0.000417804

> <r_epik_State_Penalty>
-0

> <r_epik_Charging_Adjusted_Penalty>
0

> <i_epik_Tot_Q>
0

> <i_epik_Tot_abs_Q>
0

> <r_epik_Metal_State_Penalty>
-0

> <b_epik_Metal_Only>
0

> <s_lp_Force_Field>
OPLS_2005

> <r_lp_Energy>
35.5407

> <b_lp_Chiralities_Consistent>
1

> <s_lp_Variant>
AV-unprocessed.smi:2409-3

> <Gold.Version>
5.8.1

> <Gold.Id.Protein>
6NUR|6NUR_protein|mol2

> <Gold.PLP.Fitness>
41.3892

> <Gold.PLP.PLP>
-33.5108

> <Gold.PLP.part.hbond>
-3.0000

> <Gold.PLP.part.metal>
0.0000

> <Gold.PLP.part.buried>
-4.5451

> <Gold.PLP.part.nonpolar>
-25.8273

> <Gold.PLP.part.repulsive>
0.2888

> <Gold.PLP.ligand.clash>
0.0000

> <Gold.PLP.ligand.torsion>
0.4009

> <Gold.PLP.Chemscore.Hbond>
2.8800

> <Gold.PLP.Chemscore.CHOScore>
0.0000

> <Gold.PLP.Chemscore.Metal>
0.0000

> <Gold.Chemscore.Hbonds>
donor molecule, donor type, donor heavy atom, donor atom, acceptor molecule, acceptor atom, score
      L1  H     5    21       P1  8028  0.69
      L1  H     8    22       P1  8028  1.00
      P1  H  7997  8010       L1    15  0.98

> <Gold.PLP.Chemscore.Internal.Correction>
0.0401

> <Gold.Rescore>
     Score         DG    S(hbond)    S(metal)    S(lipo)     H(rot)  DE(clash)    DE(int)     intcor
     16.98     -18.35       2.65        0.00      61.25       1.23       0.01       1.36       ----

> <Gold.Chemscore.Fitness>
16.9841

> <Gold.Chemscore.DG>
-18.3539

> <Gold.Chemscore.ZeroCoef>
-5.4800

> <Gold.Chemscore.Hbond>
2.6510

> <Gold.Chemscore.Metal>
0.0000

> <Gold.Chemscore.Lipo>
61.2490

> <Gold.Chemscore.Internal_Hbond>
0.0000

> <Gold.Chemscore.DEClash>
0.0083

> <Gold.Chemscore.DEInternal>
1.3615

> <Gold.Chemscore.Rot>
1.2292

> <Gold.Chemscore.Internal.Correction>
   9.000000E+99

> <Gold.Chemscore.Hbonds>
donor molecule, donor type, donor heavy atom, donor atom, acceptor molecule, acceptor atom, score
      L1  H     5    21       P1  8028  0.67
      L1  H     8    22       P1  8028  0.94
      P1  H  7997  8010       L1    15  0.31

> <Gold.Chemscore.Hbond.Weighted>
-8.8544

> <Gold.Chemscore.Metal.Weighted>
-0.0000

> <Gold.Chemscore.Lipo.Weighted>
-7.1661

> <Gold.Chemscore.Internal_Hbond.Weighted>
0.0000

> <Gold.Chemscore.DEClash.Weighted>
0.0083

> <Gold.Chemscore.DEInternal.Weighted>
1.3615

> <Gold.Chemscore.Rot.Weighted>
3.1467

> <Gold.Chemscore.Internal.Correction.Weighted>
   9.000000E+99

> <Gold.Protein.RotatedTorsions>
[ 6907 6896 6895 6894 ] final  124.86 input  -60.11 | X-H torsion
[ 7974 7965 7964 7962 ] final   42.10 input  175.53 | X-H torsion
[ 8008 7997 7996 7995 ] final   51.21 input   59.86 | X-H torsion
[ 10167 10162 10161 10158 ] final -161.18 input  -65.29 | X-H torsion
[ 10718 10713 10712 10709 ] final  165.54 input   66.30 | X-H torsion
[ 10763 10752 10751 10750 ] final  -78.78 input  -60.55 | X-H torsion
[ 11005 11000 10999 10996 ] final  -95.81 input  -57.11 | X-H torsion

> <Gold.Protein.ActiveResidues>
 VAL166  LYS551  ARG553  GLY616  TRP617  ASP618  TYR619  PRO620  LYS621  CYS622 
 ASP623  PHE694  ASN695  SER759  ASP760  ASP761  ALA762  ILE779  LEU786  VAL792 
 PHE793  MET794  SER795  GLU796  ALA797  LYS798  CYS799  TRP800  GLU811  SER814 

> <Gold.Protein.RotatedAtoms>
  152.4042  133.6863  159.6341 H   0  0  0  0  0  0  0  0  0  0  0  0  # atno 6907 bound_to 6896
  150.7929  133.8739  159.3275 H   0  0  0  0  0  0  0  0  0  0  0  0  # atno 6908 bound_to 6896
  151.6497  135.1004  160.0209 H   0  0  0  0  0  0  0  0  0  0  0  0  # atno 6909 bound_to 6896
  146.0769  139.5339  142.9562 H   0  0  0  0  0  0  0  0  0  0  0  0  # atno 7974 bound_to 7965
  155.4315  140.3451  155.4280 H   0  0  0  0  0  0  0  0  0  0  0  0  # atno 8008 bound_to 7997
  156.1334  140.1520  156.9062 H   0  0  0  0  0  0  0  0  0  0  0  0  # atno 8009 bound_to 7997
  154.4912  140.0840  156.7579 H   0  0  0  0  0  0  0  0  0  0  0  0  # atno 8010 bound_to 7997
  139.6484  144.0129  152.2144 H   0  0  0  0  0  0  0  0  0  0  0  0  # atno 10167 bound_to 10162
  157.0787  131.0386  151.2583 H   0  0  0  0  0  0  0  0  0  0  0  0  # atno 10718 bound_to 10713
  154.5302  135.5718  153.6753 H   0  0  0  0  0  0  0  0  0  0  0  0  # atno 10763 bound_to 10752
  152.9937  135.6203  154.2639 H   0  0  0  0  0  0  0  0  0  0  0  0  # atno 10764 bound_to 10752
  154.2564  135.2857  155.2775 H   0  0  0  0  0  0  0  0  0  0  0  0  # atno 10765 bound_to 10752
  141.1430  133.8053  157.0486 H   0  0  0  0  0  0  0  0  0  0  0  0  # atno 11005 bound_to 11000
  145.6290  141.0308  143.1873 LP  0  0  0  0  0  0  0  0  0  0  0  0  # atno 17320 bound_to 7965
  144.7267  139.7853  143.7362 LP  0  0  0  0  0  0  0  0  0  0  0  0  # atno 17321 bound_to 7965
  139.9837  144.6410  150.7877 LP  0  0  0  0  0  0  0  0  0  0  0  0  # atno 17342 bound_to 10162
  140.7526  143.2993  151.3122 LP  0  0  0  0  0  0  0  0  0  0  0  0  # atno 17343 bound_to 10162
  157.4818  130.7769  149.7421 LP  0  0  0  0  0  0  0  0  0  0  0  0  # atno 17370 bound_to 10713
  155.9930  130.3927  150.2920 LP  0  0  0  0  0  0  0  0  0  0  0  0  # atno 17371 bound_to 10713
  140.0646  134.9736  157.1364 LP  0  0  0  0  0  0  0  0  0  0  0  0  # atno 17394 bound_to 11000
  140.3798  134.2299  155.7172 LP  0  0  0  0  0  0  0  0  0  0  0  0  # atno 17395 bound_to 11000

$$$$
