AV-unprocessed.smi:1235|AV-procd|sdf|5175|dock4
  -GOLD-   22720 4253D 1   1.00000     0.00000
 Structure written by MMmdl.
 50 51  0  0  0  0  0  0  0  0  2 V2000
  154.9452  138.0846  159.2910 C   0  0  0  0  0  0  0  0  0  0  0  0
  154.7247  138.3016  157.9081 O   0  0  0  0  0  0  0  0  0  0  0  0
  153.4144  137.9418  157.5046 C   0  0  0  0  0  0  0  0  0  0  0  0
  153.3533  137.9267  155.9698 C   0  0  0  0  0  0  0  0  0  0  0  0
  151.9691  137.9260  155.4857 N   0  0  0  0  0  0  0  0  0  0  0  0
  151.3412  136.6948  155.5739 N   0  0  0  0  0  0  0  0  0  0  0  0
  150.1168  136.5595  155.1778 C   0  0  0  0  0  0  0  0  0  0  0  0
  149.4057  135.2531  155.2596 C   0  0  0  0  0  0  0  0  0  0  0  0
  149.5050  134.5170  156.2428 O   0  0  0  0  0  0  0  0  0  0  0  0
  148.6546  134.9366  154.1892 N   0  0  0  0  0  0  0  0  0  0  0  0
  147.8684  133.7168  154.0485 C   0  0  0  0  0  0  0  0  0  0  0  0
  148.3131  132.8993  152.8179 C   0  0  0  0  0  0  0  0  0  0  0  0
  147.1873  132.5908  151.8901 N   0  3  2  0  0  0  0  0  0  0  0  0
  146.5831  133.8402  151.3409 C   0  0  0  0  0  0  0  0  0  0  0  0
  145.5114  133.5483  150.2824 C   0  0  0  0  0  0  0  0  0  0  0  0
  144.4112  132.6650  150.8687 C   0  0  0  0  0  0  0  0  0  0  0  0
  145.0367  131.3855  151.4282 C   0  0  0  0  0  0  0  0  0  0  0  0
  146.1432  131.6796  152.4666 C   0  0  1  0  0  0  0  0  0  0  0  0
  146.7130  130.3326  152.9607 C   0  0  0  0  0  0  0  0  0  0  0  0
  149.3813  137.6885  154.6340 C   0  0  0  0  0  0  0  0  0  0  0  0
  150.0093  138.8818  154.5485 C   0  0  0  0  0  0  0  0  0  0  0  0
  151.3943  139.0618  154.9869 C   0  0  0  0  0  0  0  0  0  0  0  0
  151.9901  140.1359  154.9116 O   0  0  0  0  0  0  0  0  0  0  0  0
  155.9599  138.3859  159.5516 H   0  0  0  0  0  0  0  0  0  0  0  0
  154.8305  137.0306  159.5481 H   0  0  0  0  0  0  0  0  0  0  0  0
  154.2538  138.6708  159.8981 H   0  0  0  0  0  0  0  0  0  0  0  0
  153.1583  136.9594  157.9051 H   0  0  0  0  0  0  0  0  0  0  0  0
  152.6937  138.6585  157.9021 H   0  0  0  0  0  0  0  0  0  0  0  0
  153.8823  138.7975  155.5782 H   0  0  0  0  0  0  0  0  0  0  0  0
  153.8941  137.0614  155.5822 H   0  0  0  0  0  0  0  0  0  0  0  0
  148.6221  135.5955  153.4239 H   0  0  0  0  0  0  0  0  0  0  0  0
  147.9454  133.1456  154.9731 H   0  0  0  0  0  0  0  0  0  0  0  0
  146.8207  134.0004  153.9455 H   0  0  0  0  0  0  0  0  0  0  0  0
  149.0790  133.4919  152.3248 H   0  0  0  0  0  0  0  0  0  0  0  0
  148.7994  131.9699  153.1178 H   0  0  0  0  0  0  0  0  0  0  0  0
  146.1494  134.4221  152.1559 H   0  0  0  0  0  0  0  0  0  0  0  0
  147.3429  134.4696  150.8819 H   0  0  0  0  0  0  0  0  0  0  0  0
  145.0830  134.4824  149.9175 H   0  0  0  0  0  0  0  0  0  0  0  0
  145.9652  133.0565  149.4207 H   0  0  0  0  0  0  0  0  0  0  0  0
  143.8829  133.1999  151.6592 H   0  0  0  0  0  0  0  0  0  0  0  0
  143.6724  132.4227  150.1039 H   0  0  0  0  0  0  0  0  0  0  0  0
  144.2537  130.7741  151.8785 H   0  0  0  0  0  0  0  0  0  0  0  0
  145.4492  130.7972  150.6068 H   0  0  0  0  0  0  0  0  0  0  0  0
  145.6868  132.1881  153.3175 H   0  0  0  0  0  0  0  0  0  0  0  0
  145.9094  129.6330  153.1941 H   0  0  0  0  0  0  0  0  0  0  0  0
  147.2930  130.4321  153.8773 H   0  0  0  0  0  0  0  0  0  0  0  0
  147.3432  129.8643  152.2039 H   0  0  0  0  0  0  0  0  0  0  0  0
  148.3583  137.5847  154.3022 H   0  0  0  0  0  0  0  0  0  0  0  0
  149.4753  139.7294  154.1449 H   0  0  0  0  0  0  0  0  0  0  0  0
  147.5890  132.0921  151.1092 H   0  0  0  0  0  0  0  0  0  0  0  0
  1  2  1  0  0  0  0
  1 24  1  0  0  0  0
  1 25  1  0  0  0  0
  1 26  1  0  0  0  0
  2  3  1  0  0  0  0
  3  4  1  0  0  0  0
  3 27  1  0  0  0  0
  3 28  1  0  0  0  0
  4  5  1  0  0  0  0
  4 29  1  0  0  0  0
  4 30  1  0  0  0  0
  5 22  1  0  0  0  0
  5  6  1  0  0  0  0
  6  7  2  0  0  0  0
  7  8  1  0  0  0  0
  7 20  1  0  0  0  0
  8  9  2  0  0  0  0
  8 10  1  0  0  0  0
 10 11  1  0  0  0  0
 10 31  1  0  0  0  0
 11 12  1  0  0  0  0
 11 32  1  0  0  0  0
 11 33  1  0  0  0  0
 12 13  1  0  0  0  0
 12 34  1  0  0  0  0
 12 35  1  0  0  0  0
 13 18  1  0  0  0  0
 13 14  1  0  0  0  0
 13 50  1  0  0  0  0
 14 15  1  0  0  0  0
 14 36  1  0  0  0  0
 14 37  1  0  0  0  0
 15 16  1  0  0  0  0
 15 38  1  0  0  0  0
 15 39  1  0  0  0  0
 16 17  1  0  0  0  0
 16 40  1  0  0  0  0
 16 41  1  0  0  0  0
 17 18  1  0  0  0  0
 17 42  1  0  0  0  0
 17 43  1  0  0  0  0
 18 19  1  0  0  0  0
 18 44  1  0  0  0  0
 19 45  1  0  0  0  0
 19 46  1  0  0  0  0
 19 47  1  0  0  0  0
 20 21  2  0  0  0  0
 20 48  1  0  0  0  0
 21 22  1  0  0  0  0
 21 49  1  0  0  0  0
 22 23  2  0  0  0  0
M  CHG  1  13   1
M  END
> <s_m_source_file>
AV-unprocessed.smi

> <i_m_source_file_index>
1235

> <i_lp_mmshare_version>
43012

> <i_f3d_flags>
0

> <s_epik_input>
W0NIM11PW0NIMl1bQ0gyXW4xbmMoW2NIXVtjSF1jMT1PKUMoPU8pW05IXVtDSDJdW0NIMl1OMltDSDJdW0NIMl1bQ0gyXVtDSDJdW0NASF0yW0NIM10=

> <s_epik_cmdline>
J2VwaWtfcHl0aG9uJywgJy1waCcsICc3LjAnLCAnLXRuJywgJzgnLCAnLW1hJywgJzIwMCcsICctbWV0YWxfYmluZGluZycsICctaW1hZScsICc8aW5maWxlLm1hZT4nLCAnLW9tYWUnLCAnPG91dGZpbGUubWFlPic=

> <r_lp_tautomer_probability>
1

> <r_epik_Ionization_Penalty>
0.00271975

> <r_epik_Ionization_Penalty_Charging>
0.00271407

> <r_epik_Ionization_Penalty_Neutral>
5.6803e-06

> <r_epik_State_Penalty>
0.00189271

> <r_epik_Charging_Adjusted_Penalty>
0.00460678

> <i_epik_Tot_Q>
1

> <i_epik_Tot_abs_Q>
1

> <r_epik_Metal_State_Penalty>
-0

> <b_epik_Metal_Only>
0

> <s_lp_Force_Field>
OPLS_2005

> <r_lp_Energy>
40.0899

> <b_lp_Chiralities_Consistent>
1

> <s_lp_Variant>
AV-unprocessed.smi:1235-1

> <Gold.Version>
5.8.1

> <Gold.Id.Protein>
6NUR|6NUR_protein|mol2

> <Gold.PLP.Fitness>
45.3494

> <Gold.PLP.PLP>
-36.0110

> <Gold.PLP.part.hbond>
-3.7394

> <Gold.PLP.part.metal>
0.0000

> <Gold.PLP.part.buried>
-3.6970

> <Gold.PLP.part.nonpolar>
-28.8676

> <Gold.PLP.part.repulsive>
0.1357

> <Gold.PLP.ligand.clash>
0.0000

> <Gold.PLP.ligand.torsion>
1.3668

> <Gold.PLP.Chemscore.Hbond>
3.9760

> <Gold.PLP.Chemscore.CHOScore>
0.0000

> <Gold.PLP.Chemscore.Metal>
0.0000

> <Gold.Chemscore.Hbonds>
donor molecule, donor type, donor heavy atom, donor atom, acceptor molecule, acceptor atom, score
      L1  H    10    31       P1  7948  1.00
      L1  H    13    50       P1 10747  0.99
      P1  H  7989  7998       L1    23  0.82
      P1  H  7997  8010       L1     2  0.55

> <Gold.PLP.Chemscore.Internal.Correction>
0.1440

> <Gold.Rescore>
     Score         DG    S(hbond)    S(metal)    S(lipo)     H(rot)  DE(clash)    DE(int)     intcor
     21.33     -23.00       3.77        0.00      85.90       2.00       0.01       1.65       ----

> <Gold.Chemscore.Fitness>
21.3336

> <Gold.Chemscore.DG>
-22.9989

> <Gold.Chemscore.ZeroCoef>
-5.4800

> <Gold.Chemscore.Hbond>
3.7708

> <Gold.Chemscore.Metal>
0.0000

> <Gold.Chemscore.Lipo>
85.8954

> <Gold.Chemscore.Internal_Hbond>
0.0000

> <Gold.Chemscore.DEClash>
0.0136

> <Gold.Chemscore.DEInternal>
1.6517

> <Gold.Chemscore.Rot>
2.0020

> <Gold.Chemscore.Internal.Correction>
   9.000000E+99

> <Gold.Chemscore.Hbonds>
donor molecule, donor type, donor heavy atom, donor atom, acceptor molecule, acceptor atom, score
      L1  H    10    31       P1  7948  0.97
      L1  H    13    50       P1 10747  0.90
      P1  H  7989  7998       L1    23  0.62
      P1  H  7997  8010       L1     2  0.08

> <Gold.Chemscore.Hbond.Weighted>
-12.5943

> <Gold.Chemscore.Metal.Weighted>
-0.0000

> <Gold.Chemscore.Lipo.Weighted>
-10.0498

> <Gold.Chemscore.Internal_Hbond.Weighted>
0.0000

> <Gold.Chemscore.DEClash.Weighted>
0.0136

> <Gold.Chemscore.DEInternal.Weighted>
1.6517

> <Gold.Chemscore.Rot.Weighted>
5.1252

> <Gold.Chemscore.Internal.Correction.Weighted>
   9.000000E+99

> <Gold.Protein.RotatedTorsions>
[ 6907 6896 6895 6894 ] final   49.31 input  -60.11 | X-H torsion
[ 7974 7965 7964 7962 ] final  138.09 input  175.53 | X-H torsion
[ 8008 7997 7996 7995 ] final   28.50 input   59.86 | X-H torsion
[ 10167 10162 10161 10158 ] final   83.26 input  -65.29 | X-H torsion
[ 10718 10713 10712 10709 ] final  -84.75 input   66.30 | X-H torsion
[ 10763 10752 10751 10750 ] final  109.94 input  -60.55 | X-H torsion
[ 11005 11000 10999 10996 ] final   18.91 input  -57.11 | X-H torsion

> <Gold.Protein.ActiveResidues>
 VAL166  LYS551  ARG553  GLY616  TRP617  ASP618  TYR619  PRO620  LYS621  CYS622 
 ASP623  PHE694  ASN695  SER759  ASP760  ASP761  ALA762  ILE779  LEU786  VAL792 
 PHE793  MET794  SER795  GLU796  ALA797  LYS798  CYS799  TRP800  GLU811  SER814 

> <Gold.Protein.RotatedAtoms>
  152.2893  134.7740  160.0380 H   0  0  0  0  0  0  0  0  0  0  0  0  # atno 6907 bound_to 6896
  151.8292  133.3401  159.3616 H   0  0  0  0  0  0  0  0  0  0  0  0  # atno 6908 bound_to 6896
  150.7223  134.5428  159.5800 H   0  0  0  0  0  0  0  0  0  0  0  0  # atno 6909 bound_to 6896
  144.9406  139.4936  143.5574 H   0  0  0  0  0  0  0  0  0  0  0  0  # atno 7974 bound_to 7965
  155.0596  140.3188  155.4665 H   0  0  0  0  0  0  0  0  0  0  0  0  # atno 8008 bound_to 7997
  156.2816  140.2131  156.5667 H   0  0  0  0  0  0  0  0  0  0  0  0  # atno 8009 bound_to 7997
  154.7143  140.0495  157.0567 H   0  0  0  0  0  0  0  0  0  0  0  0  # atno 8010 bound_to 7997
  139.9202  144.6217  150.8448 H   0  0  0  0  0  0  0  0  0  0  0  0  # atno 10167 bound_to 10162
  156.0003  130.4708  150.4458 H   0  0  0  0  0  0  0  0  0  0  0  0  # atno 10718 bound_to 10713
  153.4419  135.3764  155.2233 H   0  0  0  0  0  0  0  0  0  0  0  0  # atno 10763 bound_to 10752
  154.8754  135.3865  154.4143 H   0  0  0  0  0  0  0  0  0  0  0  0  # atno 10764 bound_to 10752
  153.4689  135.7087  153.6068 H   0  0  0  0  0  0  0  0  0  0  0  0  # atno 10765 bound_to 10752
  140.4195  134.1533  155.7672 H   0  0  0  0  0  0  0  0  0  0  0  0  # atno 11005 bound_to 11000
  146.3284  139.8422  142.8888 LP  0  0  0  0  0  0  0  0  0  0  0  0  # atno 17320 bound_to 7965
  145.2998  141.0191  143.3615 LP  0  0  0  0  0  0  0  0  0  0  0  0  # atno 17321 bound_to 7965
  140.7664  143.3302  151.2426 LP  0  0  0  0  0  0  0  0  0  0  0  0  # atno 17342 bound_to 10162
  139.6868  143.9760  152.2838 LP  0  0  0  0  0  0  0  0  0  0  0  0  # atno 17343 bound_to 10162
  157.2495  131.0543  151.2388 LP  0  0  0  0  0  0  0  0  0  0  0  0  # atno 17370 bound_to 10713
  157.3542  130.7098  149.6460 LP  0  0  0  0  0  0  0  0  0  0  0  0  # atno 17371 bound_to 10713
  141.1789  133.8455  157.1325 LP  0  0  0  0  0  0  0  0  0  0  0  0  # atno 17394 bound_to 11000
  140.0210  134.9946  157.0591 LP  0  0  0  0  0  0  0  0  0  0  0  0  # atno 17395 bound_to 11000

$$$$
