AV-unprocessed.smi:381|AV-procd|sdf|2461|dock8
  -GOLD-   2262022403D 1   1.00000     0.00000
 Structure written by MMmdl.
 45 46  0  0  0  0  0  0  0  0  1 V2000
  151.1793  135.0620  155.6013 O   0  0  0  0  0  0  0  0  0  0  0  0
  150.4305  135.4601  154.7111 C   0  0  0  0  0  0  0  0  0  0  0  0
  149.5462  134.6691  154.0827 N   0  0  0  0  0  0  0  0  0  0  0  0
  149.3486  133.2573  154.3784 C   0  0  0  0  0  0  0  0  0  0  0  0
  147.8529  132.9168  154.4184 C   0  0  0  0  0  0  0  0  0  0  0  0
  147.1208  133.4190  153.1893 C   0  0  0  0  0  0  0  0  0  0  0  0
  146.1726  134.4582  153.2883 C   0  0  0  0  0  0  0  0  0  0  0  0
  145.5231  134.8977  152.1188 C   0  0  0  0  0  0  0  0  0  0  0  0
  145.8495  134.2763  150.8968 C   0  0  0  0  0  0  0  0  0  0  0  0
  146.7547  133.2798  150.7900 N   0  0  0  0  0  0  0  0  0  0  0  0
  147.3742  132.8652  151.9162 C   0  0  0  0  0  0  0  0  0  0  0  0
  150.4395  136.7407  154.2977 N   0  0  0  0  0  0  0  0  0  0  0  0
  151.2711  137.8534  154.7669 C   0  0  0  0  0  0  0  0  0  0  0  0
  151.1614  137.9192  156.3083 C   0  0  0  0  0  0  0  0  0  0  0  0
  151.8523  139.1121  156.9950 C   0  0  0  0  0  0  0  0  0  0  0  0
  150.9437  140.3316  157.2722 C   0  0  0  0  0  0  0  0  0  0  0  0
  150.8703  141.3752  156.1420 C   0  0  0  0  0  0  0  0  0  0  0  0
  149.7332  141.1961  155.1136 C   0  0  0  0  0  0  0  0  0  0  0  0
  149.5790  139.8024  154.4783 C   0  0  0  0  0  0  0  0  0  0  0  0
  150.9011  139.1558  154.0208 C   0  0  0  0  0  0  0  0  0  0  0  0
  148.9665  135.0757  153.3629 H   0  0  0  0  0  0  0  0  0  0  0  0
  149.8485  132.6493  153.6222 H   0  0  0  0  0  0  0  0  0  0  0  0
  149.8139  133.0271  155.3379 H   0  0  0  0  0  0  0  0  0  0  0  0
  147.7160  131.8378  154.5025 H   0  0  0  0  0  0  0  0  0  0  0  0
  147.3922  133.3562  155.3044 H   0  0  0  0  0  0  0  0  0  0  0  0
  145.9488  134.9135  154.2420 H   0  0  0  0  0  0  0  0  0  0  0  0
  144.7934  135.6928  152.1570 H   0  0  0  0  0  0  0  0  0  0  0  0
  145.3707  134.5887  149.9806 H   0  0  0  0  0  0  0  0  0  0  0  0
  148.0948  132.0696  151.7959 H   0  0  0  0  0  0  0  0  0  0  0  0
  149.7878  136.9711  153.5615 H   0  0  0  0  0  0  0  0  0  0  0  0
  152.3148  137.6312  154.5385 H   0  0  0  0  0  0  0  0  0  0  0  0
  150.1220  137.8621  156.6328 H   0  0  0  0  0  0  0  0  0  0  0  0
  151.6170  137.0072  156.6968 H   0  0  0  0  0  0  0  0  0  0  0  0
  152.1972  138.7553  157.9664 H   0  0  0  0  0  0  0  0  0  0  0  0
  152.7586  139.4025  156.4625 H   0  0  0  0  0  0  0  0  0  0  0  0
  149.9456  140.0216  157.5828 H   0  0  0  0  0  0  0  0  0  0  0  0
  151.3642  140.8413  158.1402 H   0  0  0  0  0  0  0  0  0  0  0  0
  150.7253  142.3543  156.6002 H   0  0  0  0  0  0  0  0  0  0  0  0
  151.8361  141.4508  155.6429 H   0  0  0  0  0  0  0  0  0  0  0  0
  148.7852  141.4648  155.5810 H   0  0  0  0  0  0  0  0  0  0  0  0
  149.8827  141.9271  154.3183 H   0  0  0  0  0  0  0  0  0  0  0  0
  149.0413  139.1500  155.1646 H   0  0  0  0  0  0  0  0  0  0  0  0
  148.9153  139.8922  153.6177 H   0  0  0  0  0  0  0  0  0  0  0  0
  151.7265  139.8608  154.1000 H   0  0  0  0  0  0  0  0  0  0  0  0
  150.8378  138.9531  152.9511 H   0  0  0  0  0  0  0  0  0  0  0  0
  1  2  2  0  0  0  0
  2  3  1  0  0  0  0
  2 12  1  0  0  0  0
  3  4  1  0  0  0  0
  3 21  1  0  0  0  0
  4  5  1  0  0  0  0
  4 22  1  0  0  0  0
  4 23  1  0  0  0  0
  5  6  1  0  0  0  0
  5 24  1  0  0  0  0
  5 25  1  0  0  0  0
  6 11  1  0  0  0  0
  6  7  2  0  0  0  0
  7  8  1  0  0  0  0
  7 26  1  0  0  0  0
  8  9  2  0  0  0  0
  8 27  1  0  0  0  0
  9 10  1  0  0  0  0
  9 28  1  0  0  0  0
 10 11  2  0  0  0  0
 11 29  1  0  0  0  0
 12 13  1  0  0  0  0
 12 30  1  0  0  0  0
 13 20  1  0  0  0  0
 13 14  1  0  0  0  0
 13 31  1  0  0  0  0
 14 15  1  0  0  0  0
 14 32  1  0  0  0  0
 14 33  1  0  0  0  0
 15 16  1  0  0  0  0
 15 34  1  0  0  0  0
 15 35  1  0  0  0  0
 16 17  1  0  0  0  0
 16 36  1  0  0  0  0
 16 37  1  0  0  0  0
 17 18  1  0  0  0  0
 17 38  1  0  0  0  0
 17 39  1  0  0  0  0
 18 19  1  0  0  0  0
 18 40  1  0  0  0  0
 18 41  1  0  0  0  0
 19 20  1  0  0  0  0
 19 42  1  0  0  0  0
 19 43  1  0  0  0  0
 20 44  1  0  0  0  0
 20 45  1  0  0  0  0
M  END
> <s_m_source_file>
AV-unprocessed.smi

> <i_m_source_file_index>
381

> <i_lp_mmshare_version>
43012

> <i_f3d_flags>
0

> <s_epik_input>
W0NIMl0xW0NIMl1bQ0gyXVtDSDJdW0NIMl1bQ0gyXVtDSDJdW0NIXTFbTkhdQyg9TylbTkhdW0NIMl1bQ0gyXWMyW2NIXVtjSF1bY0hdbltjSF0y

> <s_epik_cmdline>
J2VwaWtfcHl0aG9uJywgJy1waCcsICc3LjAnLCAnLXRuJywgJzgnLCAnLW1hJywgJzIwMCcsICctbWV0YWxfYmluZGluZycsICctaW1hZScsICc8aW5maWxlLm1hZT4nLCAnLW9tYWUnLCAnPG91dGZpbGUubWFlPic=

> <r_epik_Ionization_Penalty>
0.0144395

> <r_epik_Ionization_Penalty_Charging>
0

> <r_epik_Ionization_Penalty_Neutral>
0.0144395

> <r_epik_State_Penalty>
0.0112394

> <r_epik_Charging_Adjusted_Penalty>
0.0112394

> <i_epik_Tot_Q>
0

> <i_epik_Tot_abs_Q>
0

> <r_epik_Metal_State_Penalty>
0.0109727

> <b_epik_Metal_Only>
0

> <s_lp_Force_Field>
OPLS_2005

> <r_lp_Energy>
29.8357

> <b_lp_Chiralities_Consistent>
1

> <s_lp_Variant>
AV-unprocessed.smi:381-1

> <Gold.Version>
5.8.1

> <Gold.Id.Protein>
6NUR|6NUR_protein|mol2

> <Gold.PLP.Fitness>
44.5716

> <Gold.PLP.PLP>
-31.0866

> <Gold.PLP.part.hbond>
-4.0049

> <Gold.PLP.part.metal>
0.0000

> <Gold.PLP.part.buried>
-0.0294

> <Gold.PLP.part.nonpolar>
-27.2095

> <Gold.PLP.part.repulsive>
0.3976

> <Gold.PLP.ligand.clash>
0.0000

> <Gold.PLP.ligand.torsion>
0.2241

> <Gold.PLP.Chemscore.Hbond>
2.6289

> <Gold.PLP.Chemscore.CHOScore>
2.0000

> <Gold.PLP.Chemscore.Metal>
0.0000

> <Gold.Chemscore.Hbonds>
donor molecule, donor type, donor heavy atom, donor atom, acceptor molecule, acceptor atom, score
      L1  H     3    21       P1  7948  0.86
      L1  H    12    30       P1  7948  0.83
      P1  H 10752 10765       L1     1  0.94
      L1  C     9    28       P1  7921  1.00
      L1  C    11    29       P1 10747  1.00

> <Gold.PLP.Chemscore.Internal.Correction>
0.0464

> <Gold.Rescore>
     Score         DG    S(hbond)    S(metal)    S(lipo)     H(rot)  DE(clash)    DE(int)     intcor
     14.57     -17.26       1.62        0.00      85.41       1.42       1.41       1.28       ----

> <Gold.Chemscore.Fitness>
14.5711

> <Gold.Chemscore.DG>
-17.2599

> <Gold.Chemscore.ZeroCoef>
-5.4800

> <Gold.Chemscore.Hbond>
1.6244

> <Gold.Chemscore.Metal>
0.0000

> <Gold.Chemscore.Lipo>
85.4078

> <Gold.Chemscore.Internal_Hbond>
0.0000

> <Gold.Chemscore.DEClash>
1.4089

> <Gold.Chemscore.DEInternal>
1.2799

> <Gold.Chemscore.Rot>
1.4213

> <Gold.Chemscore.Internal.Correction>
   9.000000E+99

> <Gold.Chemscore.Hbonds>
donor molecule, donor type, donor heavy atom, donor atom, acceptor molecule, acceptor atom, score
      L1  H     3    21       P1  7948  0.30
      L1  H    12    30       P1  7948  0.43
      P1  H 10752 10765       L1     1  0.34

> <Gold.Chemscore.Hbond.Weighted>
-5.4256

> <Gold.Chemscore.Metal.Weighted>
-0.0000

> <Gold.Chemscore.Lipo.Weighted>
-9.9927

> <Gold.Chemscore.Internal_Hbond.Weighted>
0.0000

> <Gold.Chemscore.DEClash.Weighted>
1.4089

> <Gold.Chemscore.DEInternal.Weighted>
1.2799

> <Gold.Chemscore.Rot.Weighted>
3.6385

> <Gold.Chemscore.Internal.Correction.Weighted>
   9.000000E+99

> <Gold.Protein.RotatedTorsions>
[ 6907 6896 6895 6894 ] final  -74.53 input  -60.11 | X-H torsion
[ 7974 7965 7964 7962 ] final   90.91 input  175.53 | X-H torsion
[ 8008 7997 7996 7995 ] final  -93.06 input   59.86 | X-H torsion
[ 10167 10162 10161 10158 ] final  -88.95 input  -65.29 | X-H torsion
[ 10718 10713 10712 10709 ] final -155.84 input   66.30 | X-H torsion
[ 10763 10752 10751 10750 ] final -162.05 input  -60.55 | X-H torsion
[ 11005 11000 10999 10996 ] final -176.75 input  -57.11 | X-H torsion

> <Gold.Protein.ActiveResidues>
 VAL166  LYS551  ARG553  GLY616  TRP617  ASP618  TYR619  PRO620  LYS621  CYS622 
 ASP623  PHE694  ASN695  SER759  ASP760  ASP761  ALA762  ILE779  LEU786  VAL792 
 PHE793  MET794  SER795  GLU796  ALA797  LYS798  CYS799  TRP800  GLU811  SER814 

> <Gold.Protein.RotatedAtoms>
  150.7090  134.4855  159.5490 H   0  0  0  0  0  0  0  0  0  0  0  0  # atno 6907 bound_to 6896
  152.2484  134.8155  160.0459 H   0  0  0  0  0  0  0  0  0  0  0  0  # atno 6908 bound_to 6896
  151.8911  133.3481  159.3835 H   0  0  0  0  0  0  0  0  0  0  0  0  # atno 6909 bound_to 6896
  145.5127  139.2277  143.2715 H   0  0  0  0  0  0  0  0  0  0  0  0  # atno 7974 bound_to 7965
  154.7309  140.0502  157.0725 H   0  0  0  0  0  0  0  0  0  0  0  0  # atno 8008 bound_to 7997
  155.0303  140.3157  155.4741 H   0  0  0  0  0  0  0  0  0  0  0  0  # atno 8009 bound_to 7997
  156.2841  140.2151  156.5424 H   0  0  0  0  0  0  0  0  0  0  0  0  # atno 8010 bound_to 7997
  140.3696  143.2801  151.9516 H   0  0  0  0  0  0  0  0  0  0  0  0  # atno 10167 bound_to 10162
  156.5184  130.8466  151.2673 H   0  0  0  0  0  0  0  0  0  0  0  0  # atno 10718 bound_to 10713
  154.7249  135.3033  154.8988 H   0  0  0  0  0  0  0  0  0  0  0  0  # atno 10763 bound_to 10752
  153.9848  135.6726  153.4755 H   0  0  0  0  0  0  0  0  0  0  0  0  # atno 10764 bound_to 10752
  153.0866  135.4981  154.8527 H   0  0  0  0  0  0  0  0  0  0  0  0  # atno 10765 bound_to 10752
  140.4486  134.6364  157.4791 H   0  0  0  0  0  0  0  0  0  0  0  0  # atno 11005 bound_to 11000
  146.2156  140.5935  142.9040 LP  0  0  0  0  0  0  0  0  0  0  0  0  # atno 17320 bound_to 7965
  144.7718  140.5655  143.6664 LP  0  0  0  0  0  0  0  0  0  0  0  0  # atno 17321 bound_to 7965
  139.4805  144.5918  151.7758 LP  0  0  0  0  0  0  0  0  0  0  0  0  # atno 17342 bound_to 10162
  140.5046  144.1117  150.5979 LP  0  0  0  0  0  0  0  0  0  0  0  0  # atno 17343 bound_to 10162
  157.7440  130.9926  150.2641 LP  0  0  0  0  0  0  0  0  0  0  0  0  # atno 17370 bound_to 10713
  156.3173  130.3780  149.7607 LP  0  0  0  0  0  0  0  0  0  0  0  0  # atno 17371 bound_to 10713
  140.0022  134.6819  155.9512 LP  0  0  0  0  0  0  0  0  0  0  0  0  # atno 17394 bound_to 11000
  141.1674  133.6537  156.4529 LP  0  0  0  0  0  0  0  0  0  0  0  0  # atno 17395 bound_to 11000

$$$$
