AV-unprocessed.smi:160|AV-procd|sdf|1366|dock8
  -GOLD-   2262019 83D 1   1.00000     0.00000
 Structure written by MMmdl.
 28 29  0  0  0  0  0  0  0  0  2 V2000
  147.8714  136.9103  160.5580 N   0  5  0  0  0  0  0  0  0  0  0  0
  148.5917  136.6123  159.4545 C   0  0  0  0  0  0  0  0  0  0  0  0
  149.1920  135.5597  159.2390 O   0  0  0  0  0  0  0  0  0  0  0  0
  148.6291  137.7083  158.4163 C   0  0  0  0  0  0  0  0  0  0  0  0
  147.6795  138.6924  158.4047 N   0  0  0  0  0  0  0  0  0  0  0  0
  148.1173  139.3966  157.3695 C   0  0  0  0  0  0  0  0  0  0  0  0
  149.2141  138.8992  156.7902 N   0  0  0  0  0  0  0  0  0  0  0  0
  150.0055  139.4260  155.6280 C   0  0  1  0  0  0  0  0  0  0  0  0
  151.2932  139.7004  156.0858 O   0  0  0  0  0  0  0  0  0  0  0  0
  152.2289  138.7192  155.6333 C   0  0  1  0  0  0  0  0  0  0  0  0
  153.0200  138.1546  156.8254 C   0  0  0  0  0  0  0  0  0  0  0  0
  153.3438  139.1894  157.7296 O   0  0  0  0  0  0  0  0  0  0  0  0
  151.4072  137.6546  154.8851 C   0  0  2  0  0  0  0  0  0  0  0  0
  152.1052  137.2120  153.7374 O   0  0  0  0  0  0  0  0  0  0  0  0
  150.1446  138.4053  154.4872 C   0  0  1  0  0  0  0  0  0  0  0  0
  149.0346  137.5361  154.3538 O   0  0  0  0  0  0  0  0  0  0  0  0
  149.5734  137.7852  157.4742 N   0  0  0  0  0  0  0  0  0  0  0  0
  149.4814  140.3370  155.3374 H   0  0  0  0  0  0  0  0  0  0  0  0
  152.9013  139.2159  154.9309 H   0  0  0  0  0  0  0  0  0  0  0  0
  151.1750  136.8096  155.5354 H   0  0  0  0  0  0  0  0  0  0  0  0
  150.3009  138.9634  153.5627 H   0  0  0  0  0  0  0  0  0  0  0  0
  147.2260  136.2015  160.9262 H   0  0  0  0  0  0  0  0  0  0  0  0
  147.6274  140.2959  157.0269 H   0  0  0  0  0  0  0  0  0  0  0  0
  152.4684  137.3653  157.3362 H   0  0  0  0  0  0  0  0  0  0  0  0
  153.9588  137.7200  156.4806 H   0  0  0  0  0  0  0  0  0  0  0  0
  152.5403  139.5922  158.0214 H   0  0  0  0  0  0  0  0  0  0  0  0
  151.4816  137.0792  153.0401 H   0  0  0  0  0  0  0  0  0  0  0  0
  149.1422  137.0275  153.5651 H   0  0  0  0  0  0  0  0  0  0  0  0
  1  2  1  0  0  0  0
  1 22  1  0  0  0  0
  2  3  2  0  0  0  0
  2  4  1  0  0  0  0
  4 17  2  0  0  0  0
  4  5  1  0  0  0  0
  5  6  2  0  0  0  0
  6  7  1  0  0  0  0
  6 23  1  0  0  0  0
  7  8  1  0  0  0  0
  7 17  1  0  0  0  0
  8 18  1  0  0  0  0
  8 15  1  0  0  0  0
  8  9  1  0  0  0  0
  9 10  1  0  0  0  0
 10 19  1  0  0  0  0
 10 11  1  0  0  0  0
 10 13  1  0  0  0  0
 11 12  1  0  0  0  0
 11 24  1  0  0  0  0
 11 25  1  0  0  0  0
 12 26  1  0  0  0  0
 13 20  1  0  0  0  0
 13 14  1  0  0  0  0
 13 15  1  0  0  0  0
 14 27  1  0  0  0  0
 15 21  1  0  0  0  0
 15 16  1  0  0  0  0
 16 28  1  0  0  0  0
M  CHG  1   1  -1
M  END
> <s_m_source_file>
AV-unprocessed.smi

> <i_m_source_file_index>
160

> <i_lp_mmshare_version>
43012

> <i_f3d_flags>
0

> <s_epik_input>
W05IMl1DKD1PKWMxbltjSF1uKG4xKVtDQEBIXTJPW0NASF0oW0NIMl1bT0hdKVtDQEBIXShbT0hdKVtDQEhdMltPSF0=

> <s_epik_cmdline>
J2VwaWtfcHl0aG9uJywgJy1waCcsICc3LjAnLCAnLXRuJywgJzgnLCAnLW1hJywgJzIwMCcsICctbWV0YWxfYmluZGluZycsICctaW1hZScsICc8aW5maWxlLm1hZT4nLCAnLW9tYWUnLCAnPG91dGZpbGUubWFlPic=

> <r_lp_tautomer_probability>
1

> <r_epik_Ionization_Penalty>
6.6993

> <r_epik_Ionization_Penalty_Charging>
6.6993

> <r_epik_Ionization_Penalty_Neutral>
6.01698e-06

> <r_epik_State_Penalty>
6.69929

> <r_epik_Charging_Adjusted_Penalty>
13.3986

> <i_epik_Tot_Q>
-1

> <i_epik_Tot_abs_Q>
1

> <r_epik_Metal_State_Penalty>
2.62798

> <b_epik_Metal_Only>
1

> <s_epik_Chemistry_Notes>
This compound contains an acetal/aminal-like group ( X-CH(R)-Y where X, Y are N, S, or O) that may be acid/base labile, releasing an aldehyde.

> <s_lp_Force_Field>
OPLS_2005

> <r_lp_Energy>
43.6415

> <b_lp_Chiralities_Consistent>
1

> <s_lp_Variant>
AV-unprocessed.smi:160-24

> <Gold.Version>
5.8.1

> <Gold.Id.Protein>
6NUR|6NUR_protein|mol2

> <Gold.PLP.Fitness>
46.9091

> <Gold.PLP.PLP>
-23.1938

> <Gold.PLP.part.hbond>
-8.0000

> <Gold.PLP.part.metal>
0.0000

> <Gold.PLP.part.buried>
-4.4520

> <Gold.PLP.part.nonpolar>
-11.8273

> <Gold.PLP.part.repulsive>
0.0000

> <Gold.PLP.ligand.clash>
0.0000

> <Gold.PLP.ligand.torsion>
0.3886

> <Gold.PLP.Chemscore.Hbond>
8.1600

> <Gold.PLP.Chemscore.CHOScore>
0.0000

> <Gold.PLP.Chemscore.Metal>
0.0000

> <Gold.Chemscore.Hbonds>
donor molecule, donor type, donor heavy atom, donor atom, acceptor molecule, acceptor atom, score
      L1  H    14    27       P1  7949  0.83
      L1  H    16    28       P1  7948  1.00
      P1  H  6896  6909       L1     3  1.00
      P1  H  6931  6943       L1     1  0.92
      P1  H  6934  6947       L1     1  0.80
      P1  H  7997  8009       L1    12  1.00
      P1  H 10752 10765       L1    14  1.00

> <Gold.PLP.Chemscore.Internal.Correction>
0.0126

> <Gold.Rescore>
     Score         DG    S(hbond)    S(metal)    S(lipo)     H(rot)  DE(clash)    DE(int)     intcor
     16.54     -16.84       5.57        0.00      26.55       4.04       0.00       0.31       ----

> <Gold.Chemscore.Fitness>
16.5361

> <Gold.Chemscore.DG>
-16.8422

> <Gold.Chemscore.ZeroCoef>
-5.4800

> <Gold.Chemscore.Hbond>
5.5684

> <Gold.Chemscore.Metal>
0.0000

> <Gold.Chemscore.Lipo>
26.5535

> <Gold.Chemscore.Internal_Hbond>
0.0000

> <Gold.Chemscore.DEClash>
0.0000

> <Gold.Chemscore.DEInternal>
0.3061

> <Gold.Chemscore.Rot>
4.0403

> <Gold.Chemscore.Internal.Correction>
   9.000000E+99

> <Gold.Chemscore.Hbonds>
donor molecule, donor type, donor heavy atom, donor atom, acceptor molecule, acceptor atom, score
      L1  H    14    27       P1  7949  0.72
      L1  H    16    28       P1  7948  0.99
      P1  H  6896  6909       L1     3  1.00
      P1  H  6931  6943       L1     1  0.33
      P1  H  6934  6947       L1     1  0.34
      P1  H  7997  8009       L1    12  0.65
      P1  H 10752 10765       L1    14  0.58

> <Gold.Chemscore.Hbond.Weighted>
-18.5985

> <Gold.Chemscore.Metal.Weighted>
-0.0000

> <Gold.Chemscore.Lipo.Weighted>
-3.1068

> <Gold.Chemscore.Internal_Hbond.Weighted>
0.0000

> <Gold.Chemscore.DEClash.Weighted>
0.0000

> <Gold.Chemscore.DEInternal.Weighted>
0.3061

> <Gold.Chemscore.Rot.Weighted>
10.3431

> <Gold.Chemscore.Internal.Correction.Weighted>
   9.000000E+99

> <Gold.Protein.RotatedTorsions>
[ 6907 6896 6895 6894 ] final   47.27 input  -60.11 | X-H torsion
[ 7974 7965 7964 7962 ] final  126.85 input  175.53 | X-H torsion
[ 8008 7997 7996 7995 ] final  147.12 input   59.86 | X-H torsion
[ 10167 10162 10161 10158 ] final  -74.64 input  -65.29 | X-H torsion
[ 10718 10713 10712 10709 ] final  116.18 input   66.30 | X-H torsion
[ 10763 10752 10751 10750 ] final  152.36 input  -60.55 | X-H torsion
[ 11005 11000 10999 10996 ] final -149.83 input  -57.11 | X-H torsion

> <Gold.Protein.ActiveResidues>
 VAL166  LYS551  ARG553  GLY616  TRP617  ASP618  TYR619  PRO620  LYS621  CYS622 
 ASP623  PHE694  ASN695  SER759  ASP760  ASP761  ALA762  ILE779  LEU786  VAL792 
 PHE793  MET794  SER795  GLU796  ALA797  LYS798  CYS799  TRP800  GLU811  SER814 

> <Gold.Protein.RotatedAtoms>
  152.2661  134.7983  160.0422 H   0  0  0  0  0  0  0  0  0  0  0  0  # atno 6907 bound_to 6896
  151.8612  133.3452  159.3712 H   0  0  0  0  0  0  0  0  0  0  0  0  # atno 6908 bound_to 6896
  150.7134  134.5132  159.5661 H   0  0  0  0  0  0  0  0  0  0  0  0  # atno 6909 bound_to 6896
  145.0571  139.3835  143.5025 H   0  0  0  0  0  0  0  0  0  0  0  0  # atno 7974 bound_to 7965
  156.2834  140.2164  156.5487 H   0  0  0  0  0  0  0  0  0  0  0  0  # atno 8008 bound_to 7997
  154.7309  140.0495  157.0748 H   0  0  0  0  0  0  0  0  0  0  0  0  # atno 8009 bound_to 7997
  155.0355  140.3140  155.4746 H   0  0  0  0  0  0  0  0  0  0  0  0  # atno 8010 bound_to 7997
  140.5010  143.2361  151.7753 H   0  0  0  0  0  0  0  0  0  0  0  0  # atno 10167 bound_to 10162
  157.6177  131.1022  150.7435 H   0  0  0  0  0  0  0  0  0  0  0  0  # atno 10718 bound_to 10713
  154.1187  135.2834  155.3213 H   0  0  0  0  0  0  0  0  0  0  0  0  # atno 10763 bound_to 10752
  154.6439  135.5393  153.7824 H   0  0  0  0  0  0  0  0  0  0  0  0  # atno 10764 bound_to 10752
  153.0320  135.6493  154.1342 H   0  0  0  0  0  0  0  0  0  0  0  0  # atno 10765 bound_to 10752
  140.7466  134.3453  157.5135 H   0  0  0  0  0  0  0  0  0  0  0  0  # atno 11005 bound_to 11000
  146.3522  140.0250  142.8655 LP  0  0  0  0  0  0  0  0  0  0  0  0  # atno 17320 bound_to 7965
  145.1455  140.9594  143.4463 LP  0  0  0  0  0  0  0  0  0  0  0  0  # atno 17321 bound_to 7965
  139.4872  144.4522  151.9640 LP  0  0  0  0  0  0  0  0  0  0  0  0  # atno 17342 bound_to 10162
  140.3611  144.2971  150.5933 LP  0  0  0  0  0  0  0  0  0  0  0  0  # atno 17343 bound_to 10162
  156.7799  130.4856  149.5403 LP  0  0  0  0  0  0  0  0  0  0  0  0  # atno 17370 bound_to 10713
  156.1306  130.6175  151.0328 LP  0  0  0  0  0  0  0  0  0  0  0  0  # atno 17371 bound_to 10713
  139.8795  134.9115  156.3039 LP  0  0  0  0  0  0  0  0  0  0  0  0  # atno 17394 bound_to 11000
  140.9788  133.7280  156.0642 LP  0  0  0  0  0  0  0  0  0  0  0  0  # atno 17395 bound_to 11000

$$$$
