AV-unprocessed.smi:1863|AV-procd|sdf|7550|dock3
  -GOLD-   22720 9263D 1   1.00000     0.00000
 Structure written by MMmdl.
 37 38  0  0  0  0  0  0  0  0  1 V2000
  150.6689  144.6547  159.1132 C   0  0  0  0  0  0  0  0  0  0  0  0
  150.8171  143.1860  158.6922 C   0  0  2  0  0  0  0  0  0  0  0  0
  152.3004  142.8181  158.4693 C   0  0  0  0  0  0  0  0  0  0  0  0
  152.8759  142.1169  159.6162 N   0  0  0  0  0  0  0  0  0  0  0  0
  153.1691  142.8289  160.8488 C   0  0  0  0  0  0  0  0  0  0  0  0
  153.5477  141.7352  161.8567 C   0  0  0  0  0  0  0  0  0  0  0  0
  153.8312  140.4828  161.0210 C   0  0  0  0  0  0  0  0  0  0  0  0
  153.2597  140.8350  159.6583 C   0  0  0  0  0  0  0  0  0  0  0  0
  153.1762  140.0207  158.7396 O   0  0  0  0  0  0  0  0  0  0  0  0
  150.0449  142.9816  157.4678 N   0  0  0  0  0  0  0  0  0  0  0  0
  149.6740  141.7938  156.9675 C   0  0  0  0  0  0  0  0  0  0  0  0
  149.9377  140.7168  157.5020 O   0  0  0  0  0  0  0  0  0  0  0  0
  149.0178  141.9425  155.8044 N   0  0  0  0  0  0  0  0  0  0  0  0
  148.4826  140.9323  154.9613 C   0  0  0  0  0  0  0  0  0  0  0  0
  147.3906  141.2684  154.1350 C   0  0  0  0  0  0  0  0  0  0  0  0
  146.8311  140.2808  153.3023 C   0  0  0  0  0  0  0  0  0  0  0  0
  147.3821  138.9853  153.3367 C   0  0  0  0  0  0  0  0  0  0  0  0
  148.4162  138.6418  154.1330 N   0  0  0  0  0  0  0  0  0  0  0  0
  148.9500  139.5950  154.9273 C   0  0  0  0  0  0  0  0  0  0  0  0
  151.2030  144.8521  160.0431 H   0  0  0  0  0  0  0  0  0  0  0  0
  149.6220  144.9132  159.2767 H   0  0  0  0  0  0  0  0  0  0  0  0
  151.0645  145.3291  158.3526 H   0  0  0  0  0  0  0  0  0  0  0  0
  150.4178  142.5774  159.5057 H   0  0  0  0  0  0  0  0  0  0  0  0
  152.4216  142.2295  157.5581 H   0  0  0  0  0  0  0  0  0  0  0  0
  152.8828  143.7274  158.3143 H   0  0  0  0  0  0  0  0  0  0  0  0
  154.0032  143.5113  160.6804 H   0  0  0  0  0  0  0  0  0  0  0  0
  152.3119  143.4121  161.1880 H   0  0  0  0  0  0  0  0  0  0  0  0
  154.4043  142.0251  162.4660 H   0  0  0  0  0  0  0  0  0  0  0  0
  152.7125  141.5452  162.5325 H   0  0  0  0  0  0  0  0  0  0  0  0
  154.9019  140.2992  160.9288 H   0  0  0  0  0  0  0  0  0  0  0  0
  153.3555  139.5934  161.4355 H   0  0  0  0  0  0  0  0  0  0  0  0
  149.7915  143.8108  156.9508 H   0  0  0  0  0  0  0  0  0  0  0  0
  148.9574  142.8842  155.4459 H   0  0  0  0  0  0  0  0  0  0  0  0
  146.9882  142.2711  154.1327 H   0  0  0  0  0  0  0  0  0  0  0  0
  145.9996  140.5108  152.6528 H   0  0  0  0  0  0  0  0  0  0  0  0
  146.9780  138.2024  152.7120 H   0  0  0  0  0  0  0  0  0  0  0  0
  149.7557  139.2556  155.5594 H   0  0  0  0  0  0  0  0  0  0  0  0
  1  2  1  0  0  0  0
  1 20  1  0  0  0  0
  1 21  1  0  0  0  0
  1 22  1  0  0  0  0
  2  3  1  0  0  0  0
  2 10  1  0  0  0  0
  2 23  1  0  0  0  0
  3  4  1  0  0  0  0
  3 24  1  0  0  0  0
  3 25  1  0  0  0  0
  4  8  1  0  0  0  0
  4  5  1  0  0  0  0
  5  6  1  0  0  0  0
  5 26  1  0  0  0  0
  5 27  1  0  0  0  0
  6  7  1  0  0  0  0
  6 28  1  0  0  0  0
  6 29  1  0  0  0  0
  7  8  1  0  0  0  0
  7 30  1  0  0  0  0
  7 31  1  0  0  0  0
  8  9  2  0  0  0  0
 10 11  1  0  0  0  0
 10 32  1  0  0  0  0
 11 12  2  0  0  0  0
 11 13  1  0  0  0  0
 13 14  1  0  0  0  0
 13 33  1  0  0  0  0
 14 19  1  0  0  0  0
 14 15  2  0  0  0  0
 15 16  1  0  0  0  0
 15 34  1  0  0  0  0
 16 17  2  0  0  0  0
 16 35  1  0  0  0  0
 17 18  1  0  0  0  0
 17 36  1  0  0  0  0
 18 19  2  0  0  0  0
 19 37  1  0  0  0  0
M  END
> <s_m_source_file>
AV-unprocessed.smi

> <i_m_source_file_index>
1863

> <i_lp_mmshare_version>
43012

> <i_f3d_flags>
0

> <s_epik_input>
Tz1DMVtDSDJdW0NIMl1bQ0gyXU4xW0NIMl1bQ0BASF0oW0NIM10pW05IXUMoPU8pW05IXWMyW2NIXVtjSF1bY0hdbltjSF0y

> <s_epik_cmdline>
J2VwaWtfcHl0aG9uJywgJy1waCcsICc3LjAnLCAnLXRuJywgJzgnLCAnLW1hJywgJzIwMCcsICctbWV0YWxfYmluZGluZycsICctaW1hZScsICc8aW5maWxlLm1hZT4nLCAnLW9tYWUnLCAnPG91dGZpbGUubWFlPic=

> <r_epik_Ionization_Penalty>
0.0047799

> <r_epik_Ionization_Penalty_Charging>
0

> <r_epik_Ionization_Penalty_Neutral>
0.0047799

> <r_epik_State_Penalty>
0.0034394

> <r_epik_Charging_Adjusted_Penalty>
0.0034394

> <i_epik_Tot_Q>
0

> <i_epik_Tot_abs_Q>
0

> <r_epik_Metal_State_Penalty>
-0

> <b_epik_Metal_Only>
0

> <s_lp_Force_Field>
OPLS_2005

> <r_lp_Energy>
22.2943

> <b_lp_Chiralities_Consistent>
1

> <s_lp_Variant>
AV-unprocessed.smi:1863-1

> <Gold.Version>
5.8.1

> <Gold.Id.Protein>
6NUR|6NUR_protein|mol2

> <Gold.PLP.Fitness>
47.5191

> <Gold.PLP.PLP>
-38.2491

> <Gold.PLP.part.hbond>
-3.0000

> <Gold.PLP.part.metal>
0.0000

> <Gold.PLP.part.buried>
-1.9209

> <Gold.PLP.part.nonpolar>
-33.8086

> <Gold.PLP.part.repulsive>
0.4610

> <Gold.PLP.ligand.clash>
0.0000

> <Gold.PLP.ligand.torsion>
0.9962

> <Gold.PLP.Chemscore.Hbond>
2.9120

> <Gold.PLP.Chemscore.CHOScore>
0.8326

> <Gold.PLP.Chemscore.Metal>
0.0000

> <Gold.Chemscore.Hbonds>
donor molecule, donor type, donor heavy atom, donor atom, acceptor molecule, acceptor atom, score
      L1  H    10    32       P1  8028  1.00
      L1  H    13    33       P1  8028  1.00
      P1  H  7997  8009       L1     9  0.55
      L1  C    17    36       P1  7948  0.05

> <Gold.PLP.Chemscore.Internal.Correction>
0.0287

> <Gold.Rescore>
     Score         DG    S(hbond)    S(metal)    S(lipo)     H(rot)  DE(clash)    DE(int)     intcor
     18.85     -21.32       2.79        0.00      89.49       1.54       0.00       2.47       ----

> <Gold.Chemscore.Fitness>
18.8536

> <Gold.Chemscore.DG>
-21.3210

> <Gold.Chemscore.ZeroCoef>
-5.4800

> <Gold.Chemscore.Hbond>
2.7906

> <Gold.Chemscore.Metal>
0.0000

> <Gold.Chemscore.Lipo>
89.4894

> <Gold.Chemscore.Internal_Hbond>
0.0000

> <Gold.Chemscore.DEClash>
0.0009

> <Gold.Chemscore.DEInternal>
2.4666

> <Gold.Chemscore.Rot>
1.5428

> <Gold.Chemscore.Internal.Correction>
   9.000000E+99

> <Gold.Chemscore.Hbonds>
donor molecule, donor type, donor heavy atom, donor atom, acceptor molecule, acceptor atom, score
      L1  H    10    32       P1  8028  0.94
      L1  H    13    33       P1  8028  0.97
      P1  H  7997  8009       L1     9  0.53

> <Gold.Chemscore.Hbond.Weighted>
-9.3205

> <Gold.Chemscore.Metal.Weighted>
-0.0000

> <Gold.Chemscore.Lipo.Weighted>
-10.4703

> <Gold.Chemscore.Internal_Hbond.Weighted>
0.0000

> <Gold.Chemscore.DEClash.Weighted>
0.0009

> <Gold.Chemscore.DEInternal.Weighted>
2.4666

> <Gold.Chemscore.Rot.Weighted>
3.9497

> <Gold.Chemscore.Internal.Correction.Weighted>
   9.000000E+99

> <Gold.Protein.RotatedTorsions>
[ 6907 6896 6895 6894 ] final  145.69 input  -60.11 | X-H torsion
[ 7974 7965 7964 7962 ] final  -18.26 input  175.53 | X-H torsion
[ 8008 7997 7996 7995 ] final  148.51 input   59.86 | X-H torsion
[ 10167 10162 10161 10158 ] final  -39.27 input  -65.29 | X-H torsion
[ 10718 10713 10712 10709 ] final -172.77 input   66.30 | X-H torsion
[ 10763 10752 10751 10750 ] final  131.54 input  -60.55 | X-H torsion
[ 11005 11000 10999 10996 ] final   69.06 input  -57.11 | X-H torsion

> <Gold.Protein.ActiveResidues>
 VAL166  LYS551  ARG553  GLY616  TRP617  ASP618  TYR619  PRO620  LYS621  CYS622 
 ASP623  PHE694  ASN695  SER759  ASP760  ASP761  ALA762  ILE779  LEU786  VAL792 
 PHE793  MET794  SER795  GLU796  ALA797  LYS798  CYS799  TRP800  GLU811  SER814 

> <Gold.Protein.RotatedAtoms>
  152.1776  133.4685  159.4940 H   0  0  0  0  0  0  0  0  0  0  0  0  # atno 6907 bound_to 6896
  150.6929  134.1874  159.4281 H   0  0  0  0  0  0  0  0  0  0  0  0  # atno 6908 bound_to 6896
  151.9784  135.0041  160.0607 H   0  0  0  0  0  0  0  0  0  0  0  0  # atno 6909 bound_to 6896
  146.1901  140.3896  142.8461 H   0  0  0  0  0  0  0  0  0  0  0  0  # atno 7974 bound_to 7965
  156.2788  140.2127  156.5709 H   0  0  0  0  0  0  0  0  0  0  0  0  # atno 8008 bound_to 7997
  154.7136  140.0510  157.0596 H   0  0  0  0  0  0  0  0  0  0  0  0  # atno 8009 bound_to 7997
  155.0572  140.3162  155.4675 H   0  0  0  0  0  0  0  0  0  0  0  0  # atno 8010 bound_to 7997
  140.7069  143.3225  151.2759 H   0  0  0  0  0  0  0  0  0  0  0  0  # atno 10167 bound_to 10162
  156.7604  130.9411  151.3117 H   0  0  0  0  0  0  0  0  0  0  0  0  # atno 10718 bound_to 10713
  153.7759  135.3175  155.3359 H   0  0  0  0  0  0  0  0  0  0  0  0  # atno 10763 bound_to 10752
  154.8179  135.4623  154.0698 H   0  0  0  0  0  0  0  0  0  0  0  0  # atno 10764 bound_to 10752
  153.1972  135.6917  153.8362 H   0  0  0  0  0  0  0  0  0  0  0  0  # atno 10765 bound_to 10752
  139.9675  134.6956  156.0515 H   0  0  0  0  0  0  0  0  0  0  0  0  # atno 11005 bound_to 11000
  144.8470  140.6944  143.6192 LP  0  0  0  0  0  0  0  0  0  0  0  0  # atno 17320 bound_to 7965
  145.3819  139.1635  143.4276 LP  0  0  0  0  0  0  0  0  0  0  0  0  # atno 17321 bound_to 7965
  139.6683  144.0066  152.2737 LP  0  0  0  0  0  0  0  0  0  0  0  0  # atno 17342 bound_to 10162
  139.9656  144.6528  150.8038 LP  0  0  0  0  0  0  0  0  0  0  0  0  # atno 17343 bound_to 10162
  157.6737  130.9074  150.0100 LP  0  0  0  0  0  0  0  0  0  0  0  0  # atno 17370 bound_to 10713
  156.1343  130.3643  149.9683 LP  0  0  0  0  0  0  0  0  0  0  0  0  # atno 17371 bound_to 10713
  141.1355  133.6576  156.3582 LP  0  0  0  0  0  0  0  0  0  0  0  0  # atno 17394 bound_to 11000
  140.5364  134.6163  157.5366 LP  0  0  0  0  0  0  0  0  0  0  0  0  # atno 17395 bound_to 11000

$$$$
