AV-unprocessed.smi:705|AV-procd|sdf|3451|dock5
  -GOLD-   22720 0433D 1   1.00000     0.00000
 Structure written by MMmdl.
 28 29  0  0  0  0  0  0  0  0  3 V2000
  150.3407  138.1955  153.8364 N   0  0  0  0  0  0  0  0  0  0  0  0
  151.2392  137.6893  154.6846 C   0  0  0  0  0  0  0  0  0  0  0  0
  151.6649  136.5384  154.6022 O   0  0  0  0  0  0  0  0  0  0  0  0
  151.7070  138.6244  155.7593 C   0  0  0  0  0  0  0  0  0  0  0  0
  150.9890  139.7764  156.1696 C   0  0  0  0  0  0  0  0  0  0  0  0
  151.9045  140.2480  157.1808 C   0  0  0  0  0  0  0  0  0  0  0  0
  151.5461  141.5234  157.9190 C   0  0  1  0  0  0  0  0  0  0  0  0
  152.7249  142.0421  158.7628 C   0  0  0  0  0  0  0  0  0  0  0  0
  152.3473  143.3571  159.4619 C   0  0  0  0  0  0  0  0  0  0  0  0
  151.8402  144.3937  158.4452 C   0  0  0  0  0  0  0  0  0  0  0  0
  150.7063  143.8513  157.6655 N   0  3  0  0  0  0  0  0  0  0  0  0
  151.0462  142.6062  156.9436 C   0  0  0  0  0  0  0  0  0  0  0  0
  152.9866  139.4588  157.3169 N   0  0  0  0  0  0  0  0  0  0  0  0
  152.8563  138.4751  156.4441 N   0  5  0  0  0  0  0  0  0  0  0  0
  149.9737  137.6323  153.0846 H   0  0  0  0  0  0  0  0  0  0  0  0
  150.0381  139.1509  153.9654 H   0  0  0  0  0  0  0  0  0  0  0  0
  150.0441  140.1777  155.8244 H   0  0  0  0  0  0  0  0  0  0  0  0
  150.7279  141.2910  158.6029 H   0  0  0  0  0  0  0  0  0  0  0  0
  153.0192  141.2961  159.5019 H   0  0  0  0  0  0  0  0  0  0  0  0
  153.5937  142.2075  158.1238 H   0  0  0  0  0  0  0  0  0  0  0  0
  151.5749  143.1659  160.2082 H   0  0  0  0  0  0  0  0  0  0  0  0
  153.2080  143.7530  160.0017 H   0  0  0  0  0  0  0  0  0  0  0  0
  151.5191  145.3008  158.9577 H   0  0  0  0  0  0  0  0  0  0  0  0
  152.6416  144.6793  157.7622 H   0  0  0  0  0  0  0  0  0  0  0  0
  149.9442  143.6553  158.2985 H   0  0  0  0  0  0  0  0  0  0  0  0
  151.8077  142.8273  156.1939 H   0  0  0  0  0  0  0  0  0  0  0  0
  150.1636  142.2565  156.4071 H   0  0  0  0  0  0  0  0  0  0  0  0
  150.4052  144.5448  156.9957 H   0  0  0  0  0  0  0  0  0  0  0  0
  1  2  1  0  0  0  0
  1 15  1  0  0  0  0
  1 16  1  0  0  0  0
  2  3  2  0  0  0  0
  2  4  1  0  0  0  0
  4 14  1  0  0  0  0
  4  5  2  0  0  0  0
  5  6  1  0  0  0  0
  5 17  1  0  0  0  0
  6  7  1  0  0  0  0
  6 13  2  0  0  0  0
  7 12  1  0  0  0  0
  7  8  1  0  0  0  0
  7 18  1  0  0  0  0
  8  9  1  0  0  0  0
  8 19  1  0  0  0  0
  8 20  1  0  0  0  0
  9 10  1  0  0  0  0
  9 21  1  0  0  0  0
  9 22  1  0  0  0  0
 10 11  1  0  0  0  0
 10 23  1  0  0  0  0
 10 24  1  0  0  0  0
 11 12  1  0  0  0  0
 11 25  1  0  0  0  0
 11 28  1  0  0  0  0
 12 26  1  0  0  0  0
 12 27  1  0  0  0  0
 13 14  1  0  0  0  0
M  CHG  1  11   1
M  CHG  1  14  -1
M  END
> <s_m_source_file>
AV-unprocessed.smi

> <i_m_source_file_index>
705

> <i_lp_mmshare_version>
43012

> <i_f3d_flags>
0

> <s_epik_input>
W05IMl1DKD1PKWMxW2NIXWMoW25IXW4xKVtDQEBIXTJbQ0gyXVtDSDJdW0NIMl1bTkhdW0NIMl0y

> <s_epik_cmdline>
J2VwaWtfcHl0aG9uJywgJy1waCcsICc3LjAnLCAnLXRuJywgJzgnLCAnLW1hJywgJzIwMCcsICctbWV0YWxfYmluZGluZycsICctaW1hZScsICc8aW5maWxlLm1hZT4nLCAnLW9tYWUnLCAnPG91dGZpbGUubWFlPic=

> <r_lp_tautomer_probability>
0.5

> <r_epik_Ionization_Penalty>
8.1602

> <r_epik_Ionization_Penalty_Charging>
5.25561

> <r_epik_Ionization_Penalty_Neutral>
2.90459

> <r_epik_State_Penalty>
5.66605

> <r_epik_Charging_Adjusted_Penalty>
10.9217

> <i_epik_Tot_Q>
0

> <i_epik_Tot_abs_Q>
2

> <r_epik_Metal_State_Penalty>
1.68656

> <b_epik_Metal_Only>
1

> <s_lp_Force_Field>
OPLS_2005

> <r_lp_Energy>
5.1844

> <b_lp_Chiralities_Consistent>
1

> <s_lp_Variant>
AV-unprocessed.smi:705-6

> <Gold.Version>
5.8.1

> <Gold.Id.Protein>
6NUR|6NUR_protein|mol2

> <Gold.PLP.Fitness>
42.1583

> <Gold.PLP.PLP>
-29.1303

> <Gold.PLP.part.hbond>
-5.5107

> <Gold.PLP.part.metal>
0.0000

> <Gold.PLP.part.buried>
-4.3468

> <Gold.PLP.part.nonpolar>
-20.8054

> <Gold.PLP.part.repulsive>
0.9951

> <Gold.PLP.ligand.clash>
0.0000

> <Gold.PLP.ligand.torsion>
0.4794

> <Gold.PLP.Chemscore.Hbond>
4.6553

> <Gold.PLP.Chemscore.CHOScore>
0.0000

> <Gold.PLP.Chemscore.Metal>
0.0000

> <Gold.Chemscore.Hbonds>
donor molecule, donor type, donor heavy atom, donor atom, acceptor molecule, acceptor atom, score
      L1  H     1    15       P1  7948  0.89
      L1  H    11    28       P1  8028  1.50
      P1  H  7997  8010       L1    13  0.85
      P1  H 10752 10764       L1     3  0.98

> <Gold.PLP.Chemscore.Internal.Correction>
0.0211

> <Gold.Rescore>
     Score         DG    S(hbond)    S(metal)    S(lipo)     H(rot)  DE(clash)    DE(int)     intcor
     21.67     -22.28       3.43        0.00      67.51       1.00       0.32       0.30       ----

> <Gold.Chemscore.Fitness>
21.6666

> <Gold.Chemscore.DG>
-22.2807

> <Gold.Chemscore.ZeroCoef>
-5.4800

> <Gold.Chemscore.Hbond>
3.4317

> <Gold.Chemscore.Metal>
0.0000

> <Gold.Chemscore.Lipo>
67.5123

> <Gold.Chemscore.Internal_Hbond>
0.0000

> <Gold.Chemscore.DEClash>
0.3167

> <Gold.Chemscore.DEInternal>
0.2974

> <Gold.Chemscore.Rot>
1.0000

> <Gold.Chemscore.Internal.Correction>
   9.000000E+99

> <Gold.Chemscore.Hbonds>
donor molecule, donor type, donor heavy atom, donor atom, acceptor molecule, acceptor atom, score
      L1  H     1    15       P1  7948  0.26
      L1  H    11    28       P1  8028  0.56
      P1  H  7997  8010       L1    13  0.14
      P1  H 10752 10764       L1     3  0.93

> <Gold.Chemscore.Hbond.Weighted>
-11.4618

> <Gold.Chemscore.Metal.Weighted>
-0.0000

> <Gold.Chemscore.Lipo.Weighted>
-7.8989

> <Gold.Chemscore.Internal_Hbond.Weighted>
0.0000

> <Gold.Chemscore.DEClash.Weighted>
0.3167

> <Gold.Chemscore.DEInternal.Weighted>
0.2974

> <Gold.Chemscore.Rot.Weighted>
2.5600

> <Gold.Chemscore.Internal.Correction.Weighted>
   9.000000E+99

> <Gold.Protein.RotatedTorsions>
[ 6907 6896 6895 6894 ] final    7.72 input  -60.11 | X-H torsion
[ 7974 7965 7964 7962 ] final   80.32 input  175.53 | X-H torsion
[ 8008 7997 7996 7995 ] final   55.22 input   59.86 | X-H torsion
[ 10167 10162 10161 10158 ] final -154.53 input  -65.29 | X-H torsion
[ 10718 10713 10712 10709 ] final   14.58 input   66.30 | X-H torsion
[ 10763 10752 10751 10750 ] final  -88.85 input  -60.55 | X-H torsion
[ 11005 11000 10999 10996 ] final  -12.41 input  -57.11 | X-H torsion

> <Gold.Protein.ActiveResidues>
 VAL166  LYS551  ARG553  GLY616  TRP617  ASP618  TYR619  PRO620  LYS621  CYS622 
 ASP623  PHE694  ASN695  SER759  ASP760  ASP761  ALA762  ILE779  LEU786  VAL792 
 PHE793  MET794  SER795  GLU796  ALA797  LYS798  CYS799  TRP800  GLU811  SER814 

> <Gold.Protein.RotatedAtoms>
  151.6945  135.0941  160.0239 H   0  0  0  0  0  0  0  0  0  0  0  0  # atno 6907 bound_to 6896
  152.3758  133.6475  159.6131 H   0  0  0  0  0  0  0  0  0  0  0  0  # atno 6908 bound_to 6896
  150.7708  133.9111  159.3411 H   0  0  0  0  0  0  0  0  0  0  0  0  # atno 6909 bound_to 6896
  145.6528  139.2452  143.1967 H   0  0  0  0  0  0  0  0  0  0  0  0  # atno 7974 bound_to 7965
  155.4976  140.3473  155.4365 H   0  0  0  0  0  0  0  0  0  0  0  0  # atno 8008 bound_to 7997
  156.0935  140.1417  156.9589 H   0  0  0  0  0  0  0  0  0  0  0  0  # atno 8009 bound_to 7997
  154.4649  140.0921  156.6972 H   0  0  0  0  0  0  0  0  0  0  0  0  # atno 8010 bound_to 7997
  139.7005  143.9270  152.2426 H   0  0  0  0  0  0  0  0  0  0  0  0  # atno 10167 bound_to 10162
  157.0412  130.6232  149.5751 H   0  0  0  0  0  0  0  0  0  0  0  0  # atno 10718 bound_to 10713
  154.6490  135.5362  153.7879 H   0  0  0  0  0  0  0  0  0  0  0  0  # atno 10763 bound_to 10752
  153.0375  135.6478  154.1045 H   0  0  0  0  0  0  0  0  0  0  0  0  # atno 10764 bound_to 10752
  154.0964  135.2936  155.3241 H   0  0  0  0  0  0  0  0  0  0  0  0  # atno 10765 bound_to 10752
  140.7654  133.8481  155.9160 H   0  0  0  0  0  0  0  0  0  0  0  0  # atno 11005 bound_to 11000
  146.1190  140.7333  142.9467 LP  0  0  0  0  0  0  0  0  0  0  0  0  # atno 17320 bound_to 7965
  144.7116  140.4061  143.7076 LP  0  0  0  0  0  0  0  0  0  0  0  0  # atno 17321 bound_to 7965
  139.9111  144.6855  150.8561 LP  0  0  0  0  0  0  0  0  0  0  0  0  # atno 17342 bound_to 10162
  140.7708  143.3442  151.2145 LP  0  0  0  0  0  0  0  0  0  0  0  0  # atno 17343 bound_to 10162
  156.0037  130.5121  150.7756 LP  0  0  0  0  0  0  0  0  0  0  0  0  # atno 17370 bound_to 10713
  157.5103  131.0925  151.0207 LP  0  0  0  0  0  0  0  0  0  0  0  0  # atno 17371 bound_to 10713
  140.9624  134.1638  157.4643 LP  0  0  0  0  0  0  0  0  0  0  0  0  # atno 17394 bound_to 11000
  139.8764  134.9949  156.5719 LP  0  0  0  0  0  0  0  0  0  0  0  0  # atno 17395 bound_to 11000

$$$$
