AV-unprocessed.smi:2796|AV-procd|sdf|10782|dock5
  -GOLD-   2272015213D 1   1.00000     0.00000
 Structure written by MMmdl.
 27 28  0  0  0  0  0  0  0  0  1 V2000
  152.8098  137.3105  153.7723 N   0  0  0  0  0  0  0  0  0  0  0  0
  152.1834  138.1715  154.2257 C   0  0  0  0  0  0  0  0  0  0  0  0
  151.3968  139.2531  154.7937 C   0  0  0  0  0  0  0  0  0  0  0  0
  150.1201  139.5362  154.2650 C   0  0  0  0  0  0  0  0  0  0  0  0
  149.3733  140.5895  154.8270 C   0  0  0  0  0  0  0  0  0  0  0  0
  149.9266  141.3264  155.8997 C   0  0  0  0  0  0  0  0  0  0  0  0
  149.2669  142.3942  156.5244 N   0  0  0  0  0  0  0  0  0  0  0  0
  149.3119  142.5508  157.9708 C   0  0  0  0  0  0  0  0  0  0  0  0
  150.6588  143.0312  158.4736 C   0  0  0  0  0  0  0  0  0  0  0  0
  151.3169  144.0985  157.9759 C   0  0  0  0  0  0  0  0  0  0  0  0
  152.4984  144.5679  158.4915 O   0  0  0  0  0  0  0  0  0  0  0  0
  152.8321  144.0369  159.7694 C   0  0  0  0  0  0  0  0  0  0  0  0
  152.5336  142.5298  159.8218 C   0  0  0  0  0  0  0  0  0  0  0  0
  151.1706  142.2699  159.4983 O   0  0  0  0  0  0  0  0  0  0  0  0
  151.2112  140.9586  156.3524 C   0  0  0  0  0  0  0  0  0  0  0  0
  151.9332  139.9502  155.8188 N   0  0  0  0  0  0  0  0  0  0  0  0
  149.7163  138.9609  153.4441 H   0  0  0  0  0  0  0  0  0  0  0  0
  148.3955  140.8136  154.4278 H   0  0  0  0  0  0  0  0  0  0  0  0
  148.9865  143.1894  155.9679 H   0  0  0  0  0  0  0  0  0  0  0  0
  148.5608  143.2769  158.2833 H   0  0  0  0  0  0  0  0  0  0  0  0
  149.0686  141.5994  158.4456 H   0  0  0  0  0  0  0  0  0  0  0  0
  150.9533  144.7144  157.1668 H   0  0  0  0  0  0  0  0  0  0  0  0
  153.8872  144.2241  159.9704 H   0  0  0  0  0  0  0  0  0  0  0  0
  152.2613  144.5637  160.5353 H   0  0  0  0  0  0  0  0  0  0  0  0
  153.1728  141.9933  159.1194 H   0  0  0  0  0  0  0  0  0  0  0  0
  152.7462  142.1333  160.8146 H   0  0  0  0  0  0  0  0  0  0  0  0
  151.6775  141.4898  157.1694 H   0  0  0  0  0  0  0  0  0  0  0  0
  1  2  3  0  0  0  0
  2  3  1  0  0  0  0
  3 16  1  0  0  0  0
  3  4  2  0  0  0  0
  4  5  1  0  0  0  0
  4 17  1  0  0  0  0
  5  6  2  0  0  0  0
  5 18  1  0  0  0  0
  6  7  1  0  0  0  0
  6 15  1  0  0  0  0
  7  8  1  0  0  0  0
  7 19  1  0  0  0  0
  8  9  1  0  0  0  0
  8 20  1  0  0  0  0
  8 21  1  0  0  0  0
  9 14  1  0  0  0  0
  9 10  2  0  0  0  0
 10 11  1  0  0  0  0
 10 22  1  0  0  0  0
 11 12  1  0  0  0  0
 12 13  1  0  0  0  0
 12 23  1  0  0  0  0
 12 24  1  0  0  0  0
 13 14  1  0  0  0  0
 13 25  1  0  0  0  0
 13 26  1  0  0  0  0
 15 16  2  0  0  0  0
 15 27  1  0  0  0  0
M  END
> <s_m_source_file>
AV-unprocessed.smi

> <i_m_source_file_index>
2796

> <i_lp_mmshare_version>
43012

> <i_f3d_flags>
0

> <s_epik_input>
TiNDYzFbY0hdW2NIXWMoW2NIXW4xKVtOSF1bQ0gyXUMyPVtDSF1PW0NIMl1bQ0gyXU8y

> <s_epik_cmdline>
J2VwaWtfcHl0aG9uJywgJy1waCcsICc3LjAnLCAnLXRuJywgJzgnLCAnLW1hJywgJzIwMCcsICctbWV0YWxfYmluZGluZycsICctaW1hZScsICc8aW5maWxlLm1hZT4nLCAnLW9tYWUnLCAnPG91dGZpbGUubWFlPic=

> <r_lp_tautomer_probability>
1

> <r_epik_Ionization_Penalty>
1.57619e-06

> <r_epik_Ionization_Penalty_Charging>
0

> <r_epik_Ionization_Penalty_Neutral>
1.57619e-06

> <r_epik_State_Penalty>
-0

> <r_epik_Charging_Adjusted_Penalty>
0

> <i_epik_Tot_Q>
0

> <i_epik_Tot_abs_Q>
0

> <r_epik_Metal_State_Penalty>
-0

> <b_epik_Metal_Only>
0

> <s_lp_Force_Field>
OPLS_2005

> <r_lp_Energy>
3.17898

> <b_lp_Chiralities_Consistent>
1

> <s_lp_Variant>
AV-unprocessed.smi:2796-1

> <Gold.Version>
5.8.1

> <Gold.Id.Protein>
6NUR|6NUR_protein|mol2

> <Gold.PLP.Fitness>
40.6799

> <Gold.PLP.PLP>
-33.7520

> <Gold.PLP.part.hbond>
-2.1670

> <Gold.PLP.part.metal>
0.0000

> <Gold.PLP.part.buried>
-4.3590

> <Gold.PLP.part.nonpolar>
-26.9589

> <Gold.PLP.part.repulsive>
0.1871

> <Gold.PLP.ligand.clash>
0.0000

> <Gold.PLP.ligand.torsion>
0.4880

> <Gold.PLP.Chemscore.Hbond>
1.6344

> <Gold.PLP.Chemscore.CHOScore>
1.0000

> <Gold.PLP.Chemscore.Metal>
0.0000

> <Gold.Chemscore.Hbonds>
donor molecule, donor type, donor heavy atom, donor atom, acceptor molecule, acceptor atom, score
      L1  H     7    19       P1  8028  1.00
      P1  H 10752 10765       L1     1  0.67
      L1  C    10    22       P1  8028  1.00

> <Gold.PLP.Chemscore.Internal.Correction>
0.0008

> <Gold.Rescore>
     Score         DG    S(hbond)    S(metal)    S(lipo)     H(rot)  DE(clash)    DE(int)     intcor
     16.51     -17.97       1.92        0.00      79.42       1.26       1.02       0.43       ----

> <Gold.Chemscore.Fitness>
16.5111

> <Gold.Chemscore.DG>
-17.9664

> <Gold.Chemscore.ZeroCoef>
-5.4800

> <Gold.Chemscore.Hbond>
1.9188

> <Gold.Chemscore.Metal>
0.0000

> <Gold.Chemscore.Lipo>
79.4163

> <Gold.Chemscore.Internal_Hbond>
0.0000

> <Gold.Chemscore.DEClash>
1.0230

> <Gold.Chemscore.DEInternal>
0.4323

> <Gold.Chemscore.Rot>
1.2554

> <Gold.Chemscore.Internal.Correction>
   9.000000E+99

> <Gold.Chemscore.Hbonds>
donor molecule, donor type, donor heavy atom, donor atom, acceptor molecule, acceptor atom, score
      L1  H     7    19       P1  8028  0.94
      P1  H  7997  8008       L1    16  0.04
      P1  H 10752 10765       L1     1  0.65

> <Gold.Chemscore.Hbond.Weighted>
-6.4087

> <Gold.Chemscore.Metal.Weighted>
-0.0000

> <Gold.Chemscore.Lipo.Weighted>
-9.2917

> <Gold.Chemscore.Internal_Hbond.Weighted>
0.0000

> <Gold.Chemscore.DEClash.Weighted>
1.0230

> <Gold.Chemscore.DEInternal.Weighted>
0.4323

> <Gold.Chemscore.Rot.Weighted>
3.2139

> <Gold.Chemscore.Internal.Correction.Weighted>
   9.000000E+99

> <Gold.Protein.RotatedTorsions>
[ 6907 6896 6895 6894 ] final   83.85 input  -60.11 | X-H torsion
[ 7974 7965 7964 7962 ] final -132.44 input  175.53 | X-H torsion
[ 8008 7997 7996 7995 ] final  -39.74 input   59.86 | X-H torsion
[ 10167 10162 10161 10158 ] final  123.63 input  -65.29 | X-H torsion
[ 10718 10713 10712 10709 ] final  -91.90 input   66.30 | X-H torsion
[ 10763 10752 10751 10750 ] final  136.13 input  -60.55 | X-H torsion
[ 11005 11000 10999 10996 ] final -105.04 input  -57.11 | X-H torsion

> <Gold.Protein.ActiveResidues>
 VAL166  LYS551  ARG553  GLY616  TRP617  ASP618  TYR619  PRO620  LYS621  CYS622 
 ASP623  PHE694  ASN695  SER759  ASP760  ASP761  ALA762  ILE779  LEU786  VAL792 
 PHE793  MET794  SER795  GLU796  ALA797  LYS798  CYS799  TRP800  GLU811  SER814 

> <Gold.Protein.RotatedAtoms>
  152.5337  134.2832  159.9015 H   0  0  0  0  0  0  0  0  0  0  0  0  # atno 6907 bound_to 6896
  151.2786  133.4214  159.2633 H   0  0  0  0  0  0  0  0  0  0  0  0  # atno 6908 bound_to 6896
  151.0304  134.9550  159.8164 H   0  0  0  0  0  0  0  0  0  0  0  0  # atno 6909 bound_to 6896
  144.9285  140.7100  143.4921 H   0  0  0  0  0  0  0  0  0  0  0  0  # atno 7974 bound_to 7965
  154.4019  140.1543  156.2913 H   0  0  0  0  0  0  0  0  0  0  0  0  # atno 8008 bound_to 7997
  155.8783  140.3445  155.5848 H   0  0  0  0  0  0  0  0  0  0  0  0  # atno 8009 bound_to 7997
  155.7696  140.0828  157.2105 H   0  0  0  0  0  0  0  0  0  0  0  0  # atno 8010 bound_to 7997
  139.5788  144.6976  151.3582 H   0  0  0  0  0  0  0  0  0  0  0  0  # atno 10167 bound_to 10162
  155.9997  130.4966  150.5544 H   0  0  0  0  0  0  0  0  0  0  0  0  # atno 10718 bound_to 10713
  153.8515  135.3078  155.3433 H   0  0  0  0  0  0  0  0  0  0  0  0  # atno 10763 bound_to 10752
  154.7889  135.4794  154.0011 H   0  0  0  0  0  0  0  0  0  0  0  0  # atno 10764 bound_to 10752
  153.1515  135.6844  153.8968 H   0  0  0  0  0  0  0  0  0  0  0  0  # atno 10765 bound_to 10752
  141.1072  133.8774  157.1686 H   0  0  0  0  0  0  0  0  0  0  0  0  # atno 11005 bound_to 11000
  145.3180  139.1797  143.4603 LP  0  0  0  0  0  0  0  0  0  0  0  0  # atno 17320 bound_to 7965
  146.3236  140.3194  142.8632 LP  0  0  0  0  0  0  0  0  0  0  0  0  # atno 17321 bound_to 7965
  140.7068  143.7492  150.7497 LP  0  0  0  0  0  0  0  0  0  0  0  0  # atno 17342 bound_to 10162
  140.1019  143.4780  152.2420 LP  0  0  0  0  0  0  0  0  0  0  0  0  # atno 17343 bound_to 10162
  157.3463  131.0725  151.1749 LP  0  0  0  0  0  0  0  0  0  0  0  0  # atno 17370 bound_to 10713
  157.2580  130.6645  149.5961 LP  0  0  0  0  0  0  0  0  0  0  0  0  # atno 17371 bound_to 10713
  139.9948  135.0051  157.0057 LP  0  0  0  0  0  0  0  0  0  0  0  0  # atno 17394 bound_to 11000
  140.4871  134.1231  155.7226 LP  0  0  0  0  0  0  0  0  0  0  0  0  # atno 17395 bound_to 11000

$$$$
