AV-unprocessed.smi:1075|AV-procd|sdf|4693|dock8
  -GOLD-   22720 3213D 1   1.00000     0.00000
 Structure written by MMmdl.
 50 51  0  0  0  0  0  0  0  0  1 V2000
  151.9574  139.6356  156.8304 C   0  0  0  0  0  0  0  0  0  0  0  0
  152.4291  140.5472  157.9272 C   0  0  0  0  0  0  0  0  0  0  0  0
  153.3828  140.1354  158.7446 N   0  0  0  0  0  0  0  0  0  0  0  0
  153.5653  141.1582  159.6022 N   0  0  0  0  0  0  0  0  0  0  0  0
  154.5586  141.0352  160.6518 C   0  0  0  0  0  0  0  0  0  0  0  0
  152.7224  142.2182  159.3295 C   0  0  0  0  0  0  0  0  0  0  0  0
  152.7322  143.4638  160.1586 C   0  0  0  0  0  0  0  0  0  0  0  0
  151.9688  141.8610  158.2392 C   0  0  0  0  0  0  0  0  0  0  0  0
  150.8823  142.6318  157.5123 C   0  0  2  0  0  0  0  0  0  0  0  0
  150.9658  144.1404  157.8130 C   0  0  0  0  0  0  0  0  0  0  0  0
  149.4955  142.0312  157.8118 C   0  0  0  0  0  0  0  0  0  0  0  0
  149.3677  141.1469  158.6587 O   0  0  0  0  0  0  0  0  0  0  0  0
  148.4652  142.5395  157.1104 N   0  0  0  0  0  0  0  0  0  0  0  0
  147.0425  142.1788  157.1597 C   0  0  1  0  0  0  0  0  0  0  0  0
  146.4288  142.6333  158.5018 C   0  0  0  0  0  0  0  0  0  0  0  0
  146.2631  142.7919  155.9674 C   0  0  0  0  0  0  0  0  0  0  0  0
  146.7430  142.2582  154.6051 C   0  0  0  0  0  0  0  0  0  0  0  0
  146.6569  140.7224  154.5379 C   0  0  1  0  0  0  0  0  0  0  0  0
  147.1501  140.1903  153.1852 C   0  0  0  0  0  0  0  0  0  0  0  0
  147.4296  140.0882  155.7087 C   0  0  0  0  0  0  0  0  0  0  0  0
  146.9522  140.6368  157.0668 C   0  0  0  0  0  0  0  0  0  0  0  0
  150.8900  139.4348  156.9258 H   0  0  0  0  0  0  0  0  0  0  0  0
  152.4770  138.6768  156.8477 H   0  0  0  0  0  0  0  0  0  0  0  0
  152.1256  140.0856  155.8518 H   0  0  0  0  0  0  0  0  0  0  0  0
  155.2269  141.8959  160.6269 H   0  0  0  0  0  0  0  0  0  0  0  0
  155.1502  140.1283  160.5190 H   0  0  0  0  0  0  0  0  0  0  0  0
  154.0626  140.9962  161.6217 H   0  0  0  0  0  0  0  0  0  0  0  0
  151.8489  144.0741  159.9750 H   0  0  0  0  0  0  0  0  0  0  0  0
  153.6109  144.0685  159.9342 H   0  0  0  0  0  0  0  0  0  0  0  0
  152.7467  143.2253  161.2222 H   0  0  0  0  0  0  0  0  0  0  0  0
  151.0142  142.5228  156.4353 H   0  0  0  0  0  0  0  0  0  0  0  0
  150.8100  144.3560  158.8701 H   0  0  0  0  0  0  0  0  0  0  0  0
  150.2219  144.7019  157.2469 H   0  0  0  0  0  0  0  0  0  0  0  0
  151.9444  144.5346  157.5377 H   0  0  0  0  0  0  0  0  0  0  0  0
  148.6990  143.2643  156.4471 H   0  0  0  0  0  0  0  0  0  0  0  0
  145.4031  142.2782  158.6057 H   0  0  0  0  0  0  0  0  0  0  0  0
  146.3987  143.7187  158.5937 H   0  0  0  0  0  0  0  0  0  0  0  0
  146.9963  142.2458  159.3488 H   0  0  0  0  0  0  0  0  0  0  0  0
  145.2021  142.5627  156.0764 H   0  0  0  0  0  0  0  0  0  0  0  0
  146.3279  143.8798  155.9765 H   0  0  0  0  0  0  0  0  0  0  0  0
  146.1382  142.6977  153.8111 H   0  0  0  0  0  0  0  0  0  0  0  0
  147.7681  142.5822  154.4206 H   0  0  0  0  0  0  0  0  0  0  0  0
  145.6074  140.4415  154.6385 H   0  0  0  0  0  0  0  0  0  0  0  0
  148.1999  140.4357  153.0212 H   0  0  0  0  0  0  0  0  0  0  0  0
  146.5758  140.6174  152.3627 H   0  0  0  0  0  0  0  0  0  0  0  0
  147.0486  139.1060  153.1294 H   0  0  0  0  0  0  0  0  0  0  0  0
  147.3032  139.0051  155.6920 H   0  0  0  0  0  0  0  0  0  0  0  0
  148.4988  140.2697  155.5899 H   0  0  0  0  0  0  0  0  0  0  0  0
  147.5325  140.1772  157.8683 H   0  0  0  0  0  0  0  0  0  0  0  0
  145.9201  140.3210  157.2260 H   0  0  0  0  0  0  0  0  0  0  0  0
  1  2  1  0  0  0  0
  1 22  1  0  0  0  0
  1 23  1  0  0  0  0
  1 24  1  0  0  0  0
  2  8  1  0  0  0  0
  2  3  2  0  0  0  0
  3  4  1  0  0  0  0
  4  5  1  0  0  0  0
  4  6  1  0  0  0  0
  5 25  1  0  0  0  0
  5 26  1  0  0  0  0
  5 27  1  0  0  0  0
  6  7  1  0  0  0  0
  6  8  2  0  0  0  0
  7 28  1  0  0  0  0
  7 29  1  0  0  0  0
  7 30  1  0  0  0  0
  8  9  1  0  0  0  0
  9 10  1  0  0  0  0
  9 11  1  0  0  0  0
  9 31  1  0  0  0  0
 10 32  1  0  0  0  0
 10 33  1  0  0  0  0
 10 34  1  0  0  0  0
 11 12  2  0  0  0  0
 11 13  1  0  0  0  0
 13 14  1  0  0  0  0
 13 35  1  0  0  0  0
 14 21  1  0  0  0  0
 14 15  1  0  0  0  0
 14 16  1  0  0  0  0
 15 36  1  0  0  0  0
 15 37  1  0  0  0  0
 15 38  1  0  0  0  0
 16 17  1  0  0  0  0
 16 39  1  0  0  0  0
 16 40  1  0  0  0  0
 17 18  1  0  0  0  0
 17 41  1  0  0  0  0
 17 42  1  0  0  0  0
 18 19  1  0  0  0  0
 18 20  1  0  0  0  0
 18 43  1  0  0  0  0
 19 44  1  0  0  0  0
 19 45  1  0  0  0  0
 19 46  1  0  0  0  0
 20 21  1  0  0  0  0
 20 47  1  0  0  0  0
 20 48  1  0  0  0  0
 21 49  1  0  0  0  0
 21 50  1  0  0  0  0
M  END
> <s_m_source_file>
AV-unprocessed.smi

> <i_m_source_file_index>
1075

> <i_lp_mmshare_version>
43012

> <i_f3d_flags>
0

> <s_epik_input>
W0NIM11jMW5uKFtDSDNdKWMoW0NIM10pYzFbQ0BIXShbQ0gzXSlDKD1PKVtOSF1bQ0BAXTIoW0NIM10pW0NIMl1bQ0gyXVtDQEBIXShbQ0gzXSlbQ0gyXVtDSDJdMg==

> <s_epik_cmdline>
J2VwaWtfcHl0aG9uJywgJy1waCcsICc3LjAnLCAnLXRuJywgJzgnLCAnLW1hJywgJzIwMCcsICctbWV0YWxfYmluZGluZycsICctaW1hZScsICc8aW5maWxlLm1hZT4nLCAnLW9tYWUnLCAnPG91dGZpbGUubWFlPic=

> <r_lp_tautomer_probability>
1

> <r_epik_Ionization_Penalty>
0.00502928

> <r_epik_Ionization_Penalty_Charging>
0

> <r_epik_Ionization_Penalty_Neutral>
0.00502928

> <r_epik_State_Penalty>
0.0036576

> <r_epik_Charging_Adjusted_Penalty>
0.0036576

> <i_epik_Tot_Q>
0

> <i_epik_Tot_abs_Q>
0

> <r_epik_Metal_State_Penalty>
-0

> <b_epik_Metal_Only>
0

> <s_lp_Force_Field>
OPLS_2005

> <r_lp_Energy>
4.57547

> <b_lp_Chiralities_Consistent>
1

> <s_lp_Variant>
AV-unprocessed.smi:1075-1

> <Gold.Version>
5.8.1

> <Gold.Id.Protein>
6NUR|6NUR_protein|mol2

> <Gold.PLP.Fitness>
39.1697

> <Gold.PLP.PLP>
-35.0329

> <Gold.PLP.part.hbond>
-2.9322

> <Gold.PLP.part.metal>
0.0000

> <Gold.PLP.part.buried>
0.9622

> <Gold.PLP.part.nonpolar>
-30.8660

> <Gold.PLP.part.repulsive>
0.0351

> <Gold.PLP.ligand.clash>
0.0000

> <Gold.PLP.ligand.torsion>
0.6229

> <Gold.PLP.Chemscore.Hbond>
1.7644

> <Gold.PLP.Chemscore.CHOScore>
0.0000

> <Gold.PLP.Chemscore.Metal>
0.0000

> <Gold.Chemscore.Hbonds>
donor molecule, donor type, donor heavy atom, donor atom, acceptor molecule, acceptor atom, score
      L1  H    13    35       P1  8028  1.00
      P1  H  7997  8010       L1     3  0.45

> <Gold.PLP.Chemscore.Internal.Correction>
0.0893

> <Gold.Rescore>
     Score         DG    S(hbond)    S(metal)    S(lipo)     H(rot)  DE(clash)    DE(int)     intcor
     14.26     -17.35       1.00        0.00      99.77       1.23       0.22       2.88       ----

> <Gold.Chemscore.Fitness>
14.2618

> <Gold.Chemscore.DG>
-17.3533

> <Gold.Chemscore.ZeroCoef>
-5.4800

> <Gold.Chemscore.Hbond>
1.0043

> <Gold.Chemscore.Metal>
0.0000

> <Gold.Chemscore.Lipo>
99.7694

> <Gold.Chemscore.Internal_Hbond>
0.0000

> <Gold.Chemscore.DEClash>
0.2161

> <Gold.Chemscore.DEInternal>
2.8754

> <Gold.Chemscore.Rot>
1.2321

> <Gold.Chemscore.Internal.Correction>
   9.000000E+99

> <Gold.Chemscore.Hbonds>
donor molecule, donor type, donor heavy atom, donor atom, acceptor molecule, acceptor atom, score
      L1  H    13    35       P1  8028  0.88
      P1  H  7997  8010       L1     3  0.06

> <Gold.Chemscore.Hbond.Weighted>
-3.3543

> <Gold.Chemscore.Metal.Weighted>
-0.0000

> <Gold.Chemscore.Lipo.Weighted>
-11.6730

> <Gold.Chemscore.Internal_Hbond.Weighted>
0.0000

> <Gold.Chemscore.DEClash.Weighted>
0.2161

> <Gold.Chemscore.DEInternal.Weighted>
2.8754

> <Gold.Chemscore.Rot.Weighted>
3.1541

> <Gold.Chemscore.Internal.Correction.Weighted>
   9.000000E+99

> <Gold.Protein.RotatedTorsions>
[ 6907 6896 6895 6894 ] final  176.42 input  -60.11 | X-H torsion
[ 7974 7965 7964 7962 ] final  -24.06 input  175.53 | X-H torsion
[ 8008 7997 7996 7995 ] final    6.69 input   59.86 | X-H torsion
[ 10167 10162 10161 10158 ] final  -39.53 input  -65.29 | X-H torsion
[ 10718 10713 10712 10709 ] final   23.64 input   66.30 | X-H torsion
[ 10763 10752 10751 10750 ] final   95.34 input  -60.55 | X-H torsion
[ 11005 11000 10999 10996 ] final -111.84 input  -57.11 | X-H torsion

> <Gold.Protein.ActiveResidues>
 VAL166  LYS551  ARG553  GLY616  TRP617  ASP618  TYR619  PRO620  LYS621  CYS622 
 ASP623  PHE694  ASN695  SER759  ASP760  ASP761  ALA762  ILE779  LEU786  VAL792 
 PHE793  MET794  SER795  GLU796  ALA797  LYS798  CYS799  TRP800  GLU811  SER814 

> <Gold.Protein.RotatedAtoms>
  151.7205  133.3314  159.3313 H   0  0  0  0  0  0  0  0  0  0  0  0  # atno 6907 bound_to 6896
  150.7655  134.6452  159.6268 H   0  0  0  0  0  0  0  0  0  0  0  0  # atno 6908 bound_to 6896
  152.3655  134.6813  160.0245 H   0  0  0  0  0  0  0  0  0  0  0  0  # atno 6909 bound_to 6896
  146.1578  140.4701  142.8584 H   0  0  0  0  0  0  0  0  0  0  0  0  # atno 7974 bound_to 7965
  154.7442  140.2754  155.6347 H   0  0  0  0  0  0  0  0  0  0  0  0  # atno 8008 bound_to 7997
  156.2881  140.2691  156.2104 H   0  0  0  0  0  0  0  0  0  0  0  0  # atno 8009 bound_to 7997
  155.0220  140.0371  157.2430 H   0  0  0  0  0  0  0  0  0  0  0  0  # atno 8010 bound_to 7997
  140.7061  143.3209  151.2795 H   0  0  0  0  0  0  0  0  0  0  0  0  # atno 10167 bound_to 10162
  157.1688  130.6750  149.6070 H   0  0  0  0  0  0  0  0  0  0  0  0  # atno 10718 bound_to 10713
  153.2521  135.4257  155.0808 H   0  0  0  0  0  0  0  0  0  0  0  0  # atno 10763 bound_to 10752
  154.8386  135.3428  154.6498 H   0  0  0  0  0  0  0  0  0  0  0  0  # atno 10764 bound_to 10752
  153.6919  135.7033  153.5144 H   0  0  0  0  0  0  0  0  0  0  0  0  # atno 10765 bound_to 10752
  141.0711  133.9379  157.2483 H   0  0  0  0  0  0  0  0  0  0  0  0  # atno 11005 bound_to 11000
  144.7986  140.6170  143.6493 LP  0  0  0  0  0  0  0  0  0  0  0  0  # atno 17320 bound_to 7965
  145.4665  139.1507  143.3838 LP  0  0  0  0  0  0  0  0  0  0  0  0  # atno 17321 bound_to 7965
  139.6662  144.0101  152.2724 LP  0  0  0  0  0  0  0  0  0  0  0  0  # atno 17342 bound_to 10162
  139.9684  144.6510  150.8012 LP  0  0  0  0  0  0  0  0  0  0  0  0  # atno 17343 bound_to 10162
  155.9742  130.4686  150.6366 LP  0  0  0  0  0  0  0  0  0  0  0  0  # atno 17370 bound_to 10713
  157.4063  131.0817  151.1262 LP  0  0  0  0  0  0  0  0  0  0  0  0  # atno 17371 bound_to 10713
  139.9524  135.0172  156.9032 LP  0  0  0  0  0  0  0  0  0  0  0  0  # atno 17394 bound_to 11000
  140.5672  134.0478  155.7418 LP  0  0  0  0  0  0  0  0  0  0  0  0  # atno 17395 bound_to 11000

$$$$
