AV-unprocessed.smi:177|AV-procd|sdf|1441|dock10
  -GOLD-   2262019233D 1   1.00000     0.00000
 Structure written by MMmdl.
 61 65  0  0  0  0  0  0  0  0  1 V2000
  144.0659  135.6129  156.4197 C   0  0  0  0  0  0  0  0  0  0  0  0
  144.3904  136.4075  157.5502 O   0  0  0  0  0  0  0  0  0  0  0  0
  144.9427  135.6775  158.6379 C   0  0  2  0  0  0  0  0  0  0  0  0
  143.9646  134.5860  159.1175 C   0  0  0  0  0  0  0  0  0  0  0  0
  144.4854  133.8764  160.3771 C   0  0  0  0  0  0  0  0  0  0  0  0
  144.7529  134.8878  161.5095 C   0  0  1  0  0  0  0  0  0  0  0  0
  145.1811  134.2650  162.7221 O   0  0  0  0  0  0  0  0  0  0  0  0
  146.5320  133.8160  162.7193 C   0  0  0  0  0  0  0  0  0  0  0  0
  147.4717  135.0011  162.4398 C   0  0  0  0  0  0  0  0  0  0  0  0
  147.1192  135.6566  161.1856 N   0  0  0  0  0  0  0  0  0  0  0  0
  147.8157  135.2745  160.0885 C   0  0  0  0  0  0  0  0  0  0  0  0
  147.8562  133.9643  159.7333 N   0  0  0  0  0  0  0  0  0  0  0  0
  148.5178  133.5857  158.6366 C   0  0  0  0  0  0  0  0  0  0  0  0
  149.2060  134.3389  157.7774 N   0  0  0  0  0  0  0  0  0  0  0  0
  149.1987  135.6508  158.1494 C   0  0  0  0  0  0  0  0  0  0  0  0
  148.5335  136.1988  159.2818 C   0  0  0  0  0  0  0  0  0  0  0  0
  148.7456  137.5701  159.3397 N   0  0  0  0  0  0  0  0  0  0  0  0
  149.4751  137.8225  158.2880 C   0  0  0  0  0  0  0  0  0  0  0  0
  149.8140  136.7244  157.5283 N   0  0  0  0  0  0  0  0  0  0  0  0
  150.6117  136.7247  156.3106 C   0  0  0  0  0  0  0  0  0  0  0  0
  149.9892  137.4687  155.0848 C   0  0  0  0  0  0  0  0  0  0  0  0
  148.6307  136.8335  154.6726 C   0  0  0  0  0  0  0  0  0  0  0  0
  148.0909  137.3698  153.4806 O   0  0  0  0  0  0  0  0  0  0  0  0
  149.8062  138.9891  155.3286 C   0  0  0  0  0  0  0  0  0  0  0  0
  151.1439  139.7470  155.4100 C   0  0  0  0  0  0  0  0  0  0  0  0
  151.8974  139.5332  154.2240 O   0  0  0  0  0  0  0  0  0  0  0  0
  152.2347  138.1668  154.0254 C   0  0  0  0  0  0  0  0  0  0  0  0
  150.9522  137.3272  153.8781 C   0  0  0  0  0  0  0  0  0  0  0  0
  145.7017  136.0419  161.0958 C   0  0  1  0  0  0  0  0  0  0  0  0
  145.2345  136.6901  159.7669 C   0  0  0  0  0  0  0  0  0  0  0  0
  143.6589  136.2497  155.6344 H   0  0  0  0  0  0  0  0  0  0  0  0
  143.3171  134.8567  156.6549 H   0  0  0  0  0  0  0  0  0  0  0  0
  144.9515  135.1170  156.0202 H   0  0  0  0  0  0  0  0  0  0  0  0
  145.8744  135.2147  158.3160 H   0  0  0  0  0  0  0  0  0  0  0  0
  142.9926  135.0338  159.3286 H   0  0  0  0  0  0  0  0  0  0  0  0
  143.7993  133.8476  158.3334 H   0  0  0  0  0  0  0  0  0  0  0  0
  143.7532  133.1406  160.7101 H   0  0  0  0  0  0  0  0  0  0  0  0
  145.3841  133.3159  160.1283 H   0  0  0  0  0  0  0  0  0  0  0  0
  143.7885  135.3384  161.7477 H   0  0  0  0  0  0  0  0  0  0  0  0
  146.7579  133.3888  163.6963 H   0  0  0  0  0  0  0  0  0  0  0  0
  146.6686  133.0138  161.9949 H   0  0  0  0  0  0  0  0  0  0  0  0
  147.3957  135.7324  163.2449 H   0  0  0  0  0  0  0  0  0  0  0  0
  148.5102  134.6672  162.4214 H   0  0  0  0  0  0  0  0  0  0  0  0
  148.4897  132.5292  158.4152 H   0  0  0  0  0  0  0  0  0  0  0  0
  149.8017  138.8230  158.0439 H   0  0  0  0  0  0  0  0  0  0  0  0
  151.5882  137.1339  156.5657 H   0  0  0  0  0  0  0  0  0  0  0  0
  150.7983  135.6831  156.0458 H   0  0  0  0  0  0  0  0  0  0  0  0
  148.7435  135.7621  154.5036 H   0  0  0  0  0  0  0  0  0  0  0  0
  147.8984  136.9432  155.4731 H   0  0  0  0  0  0  0  0  0  0  0  0
  148.3833  136.8413  152.7535 H   0  0  0  0  0  0  0  0  0  0  0  0
  149.2284  139.4159  154.5075 H   0  0  0  0  0  0  0  0  0  0  0  0
  149.2196  139.1763  156.2274 H   0  0  0  0  0  0  0  0  0  0  0  0
  150.9565  140.8157  155.5141 H   0  0  0  0  0  0  0  0  0  0  0  0
  151.7257  139.4477  156.2817 H   0  0  0  0  0  0  0  0  0  0  0  0
  152.8330  138.0884  153.1175 H   0  0  0  0  0  0  0  0  0  0  0  0
  152.8629  137.8088  154.8412 H   0  0  0  0  0  0  0  0  0  0  0  0
  151.2108  136.2800  153.7167 H   0  0  0  0  0  0  0  0  0  0  0  0
  150.4509  137.6540  152.9660 H   0  0  0  0  0  0  0  0  0  0  0  0
  145.5999  136.8168  161.8568 H   0  0  0  0  0  0  0  0  0  0  0  0
  145.9344  137.4535  159.4328 H   0  0  0  0  0  0  0  0  0  0  0  0
  144.3085  137.2288  159.9724 H   0  0  0  0  0  0  0  0  0  0  0  0
  1  2  1  0  0  0  0
  1 31  1  0  0  0  0
  1 32  1  0  0  0  0
  1 33  1  0  0  0  0
  2  3  1  0  0  0  0
  3 30  1  0  0  0  0
  3  4  1  0  0  0  0
  3 34  1  0  0  0  0
  4  5  1  0  0  0  0
  4 35  1  0  0  0  0
  4 36  1  0  0  0  0
  5  6  1  0  0  0  0
  5 37  1  0  0  0  0
  5 38  1  0  0  0  0
  6 29  1  0  0  0  0
  6  7  1  0  0  0  0
  6 39  1  0  0  0  0
  7  8  1  0  0  0  0
  8  9  1  0  0  0  0
  8 40  1  0  0  0  0
  8 41  1  0  0  0  0
  9 10  1  0  0  0  0
  9 42  1  0  0  0  0
  9 43  1  0  0  0  0
 10 11  1  0  0  0  0
 10 29  1  0  0  0  0
 11 16  1  0  0  0  0
 11 12  2  0  0  0  0
 12 13  1  0  0  0  0
 13 14  2  0  0  0  0
 13 44  1  0  0  0  0
 14 15  1  0  0  0  0
 15 19  1  0  0  0  0
 15 16  2  0  0  0  0
 16 17  1  0  0  0  0
 17 18  2  0  0  0  0
 18 19  1  0  0  0  0
 18 45  1  0  0  0  0
 19 20  1  0  0  0  0
 20 21  1  0  0  0  0
 20 46  1  0  0  0  0
 20 47  1  0  0  0  0
 21 28  1  0  0  0  0
 21 22  1  0  0  0  0
 21 24  1  0  0  0  0
 22 23  1  0  0  0  0
 22 48  1  0  0  0  0
 22 49  1  0  0  0  0
 23 50  1  0  0  0  0
 24 25  1  0  0  0  0
 24 51  1  0  0  0  0
 24 52  1  0  0  0  0
 25 26  1  0  0  0  0
 25 53  1  0  0  0  0
 25 54  1  0  0  0  0
 26 27  1  0  0  0  0
 27 28  1  0  0  0  0
 27 55  1  0  0  0  0
 27 56  1  0  0  0  0
 28 57  1  0  0  0  0
 28 58  1  0  0  0  0
 29 30  1  0  0  0  0
 29 59  1  0  0  0  0
 30 60  1  0  0  0  0
 30 61  1  0  0  0  0
M  END
> <s_m_source_file>
AV-unprocessed.smi

> <i_m_source_file_index>
177

> <i_lp_mmshare_version>
43012

> <i_f3d_flags>
0

> <s_epik_input>
W0NIM11PW0NASF0oW0NIMl1bQ0gyXTEpW0NIMl1bQ0BIXShbQ0BASF0xMilOKFtDSDJdW0NIMl1PMiljKG5bY0hdbjMpYyhjMzQpbltjSF1uNFtDSDJdQzUoW0NIMl1bT0hdKVtDSDJdW0NIMl1PW0NIMl1bQ0gyXTU=

> <s_epik_cmdline>
J2VwaWtfcHl0aG9uJywgJy1waCcsICc3LjAnLCAnLXRuJywgJzgnLCAnLW1hJywgJzIwMCcsICctbWV0YWxfYmluZGluZycsICctaW1hZScsICc8aW5maWxlLm1hZT4nLCAnLW9tYWUnLCAnPG91dGZpbGUubWFlPic=

> <r_lp_tautomer_probability>
1

> <r_epik_Ionization_Penalty>
0.0065899

> <r_epik_Ionization_Penalty_Charging>
0

> <r_epik_Ionization_Penalty_Neutral>
0.0065899

> <r_epik_State_Penalty>
0.00470042

> <r_epik_Charging_Adjusted_Penalty>
0.00470042

> <i_epik_Tot_Q>
0

> <i_epik_Tot_abs_Q>
0

> <r_epik_Metal_State_Penalty>
-0

> <b_epik_Metal_Only>
0

> <s_lp_Force_Field>
OPLS_2005

> <r_lp_Energy>
52.4416

> <b_lp_Chiralities_Consistent>
1

> <s_lp_Variant>
AV-unprocessed.smi:177-5

> <Gold.Version>
5.8.1

> <Gold.Id.Protein>
6NUR|6NUR_protein|mol2

> <Gold.PLP.Fitness>
42.0972

> <Gold.PLP.PLP>
-36.1657

> <Gold.PLP.part.hbond>
-5.5079

> <Gold.PLP.part.metal>
0.0000

> <Gold.PLP.part.buried>
-4.8077

> <Gold.PLP.part.nonpolar>
-27.8316

> <Gold.PLP.part.repulsive>
0.0552

> <Gold.PLP.ligand.clash>
0.0000

> <Gold.PLP.ligand.torsion>
1.3267

> <Gold.PLP.Chemscore.Hbond>
2.5200

> <Gold.PLP.Chemscore.CHOScore>
0.0000

> <Gold.PLP.Chemscore.Metal>
0.0000

> <Gold.Chemscore.Hbonds>
donor molecule, donor type, donor heavy atom, donor atom, acceptor molecule, acceptor atom, score
      L1  H    23    50       P1  7948  0.23
      P1  H  7989  7998       L1    26  0.87

> <Gold.PLP.Chemscore.Internal.Correction>
1.0250

> <Gold.Rescore>
     Score         DG    S(hbond)    S(metal)    S(lipo)     H(rot)  DE(clash)    DE(int)     intcor
     13.76     -15.43       2.09        0.00      76.10       2.32       0.20       1.47       ----

> <Gold.Chemscore.Fitness>
13.7631

> <Gold.Chemscore.DG>
-15.4277

> <Gold.Chemscore.ZeroCoef>
-5.4800

> <Gold.Chemscore.Hbond>
2.0885

> <Gold.Chemscore.Metal>
0.0000

> <Gold.Chemscore.Lipo>
76.0985

> <Gold.Chemscore.Internal_Hbond>
0.0000

> <Gold.Chemscore.DEClash>
0.1954

> <Gold.Chemscore.DEInternal>
1.4692

> <Gold.Chemscore.Rot>
2.3169

> <Gold.Chemscore.Internal.Correction>
   9.000000E+99

> <Gold.Chemscore.Hbonds>
donor molecule, donor type, donor heavy atom, donor atom, acceptor molecule, acceptor atom, score
      L1  H    23    50       P1  7948  0.23
      P1  H  7989  7998       L1    26  0.28

> <Gold.Chemscore.Hbond.Weighted>
-6.9754

> <Gold.Chemscore.Metal.Weighted>
-0.0000

> <Gold.Chemscore.Lipo.Weighted>
-8.9035

> <Gold.Chemscore.Internal_Hbond.Weighted>
0.0000

> <Gold.Chemscore.DEClash.Weighted>
0.1954

> <Gold.Chemscore.DEInternal.Weighted>
1.4692

> <Gold.Chemscore.Rot.Weighted>
5.9313

> <Gold.Chemscore.Internal.Correction.Weighted>
   9.000000E+99

> <Gold.Protein.RotatedTorsions>
[ 6907 6896 6895 6894 ] final   25.10 input  -60.11 | X-H torsion
[ 7974 7965 7964 7962 ] final   80.95 input  175.53 | X-H torsion
[ 8008 7997 7996 7995 ] final -132.52 input   59.86 | X-H torsion
[ 10167 10162 10161 10158 ] final   95.97 input  -65.29 | X-H torsion
[ 10718 10713 10712 10709 ] final  176.94 input   66.30 | X-H torsion
[ 10763 10752 10751 10750 ] final  -50.74 input  -60.55 | X-H torsion
[ 11005 11000 10999 10996 ] final -145.02 input  -57.11 | X-H torsion

> <Gold.Protein.ActiveResidues>
 VAL166  LYS551  ARG553  GLY616  TRP617  ASP618  TYR619  PRO620  LYS621  CYS622 
 ASP623  PHE694  ASN695  SER759  ASP760  ASP761  ALA762  ILE779  LEU786  VAL792 
 PHE793  MET794  SER795  GLU796  ALA797  LYS798  CYS799  TRP800  GLU811  SER814 

> <Gold.Protein.RotatedAtoms>
  151.9674  135.0093  160.0550 H   0  0  0  0  0  0  0  0  0  0  0  0  # atno 6907 bound_to 6896
  152.1813  133.4705  159.4968 H   0  0  0  0  0  0  0  0  0  0  0  0  # atno 6908 bound_to 6896
  150.6918  134.1746  159.4268 H   0  0  0  0  0  0  0  0  0  0  0  0  # atno 6909 bound_to 6896
  145.6445  139.2433  143.2011 H   0  0  0  0  0  0  0  0  0  0  0  0  # atno 7974 bound_to 7965
  155.3303  140.0466  157.3042 H   0  0  0  0  0  0  0  0  0  0  0  0  # atno 8008 bound_to 7997
  154.5332  140.2264  155.8734 H   0  0  0  0  0  0  0  0  0  0  0  0  # atno 8009 bound_to 7997
  156.1809  140.3074  155.9153 H   0  0  0  0  0  0  0  0  0  0  0  0  # atno 8010 bound_to 7997
  139.7938  144.6841  150.9856 H   0  0  0  0  0  0  0  0  0  0  0  0  # atno 10167 bound_to 10162
  156.9127  130.9915  151.3018 H   0  0  0  0  0  0  0  0  0  0  0  0  # atno 10718 bound_to 10713
  154.1153  135.6543  153.4892 H   0  0  0  0  0  0  0  0  0  0  0  0  # atno 10763 bound_to 10752
  153.0243  135.5257  154.7151 H   0  0  0  0  0  0  0  0  0  0  0  0  # atno 10764 bound_to 10752
  154.6343  135.2980  155.0149 H   0  0  0  0  0  0  0  0  0  0  0  0  # atno 10765 bound_to 10752
  140.7965  134.2907  157.4994 H   0  0  0  0  0  0  0  0  0  0  0  0  # atno 11005 bound_to 11000
  146.1254  140.7255  142.9438 LP  0  0  0  0  0  0  0  0  0  0  0  0  # atno 17320 bound_to 7965
  144.7145  140.4160  143.7055 LP  0  0  0  0  0  0  0  0  0  0  0  0  # atno 17321 bound_to 7965
  140.7820  143.4352  151.0634 LP  0  0  0  0  0  0  0  0  0  0  0  0  # atno 17342 bound_to 10162
  139.8028  143.8060  152.3164 LP  0  0  0  0  0  0  0  0  0  0  0  0  # atno 17343 bound_to 10162
  157.5957  130.8476  149.8726 LP  0  0  0  0  0  0  0  0  0  0  0  0  # atno 17370 bound_to 10713
  156.0528  130.3714  150.1160 LP  0  0  0  0  0  0  0  0  0  0  0  0  # atno 17371 bound_to 10713
  139.8726  134.9405  156.3770 LP  0  0  0  0  0  0  0  0  0  0  0  0  # atno 17394 bound_to 11000
  140.9338  133.7561  156.0058 LP  0  0  0  0  0  0  0  0  0  0  0  0  # atno 17395 bound_to 11000

$$$$
