AV-unprocessed.smi:1434|AV-procd|sdf|5853|dock9
  -GOLD-   22720 5523D 1   1.00000     0.00000
 Structure written by MMmdl.
 43 44  0  0  0  0  0  0  0  0  2 V2000
  150.7247  133.1687  154.1703 C   0  0  0  0  0  0  0  0  0  0  0  0
  151.4772  134.1111  155.5556 S   0  0  0  0  0  0  0  0  0  0  0  0
  150.3878  134.3508  156.5157 O   0  0  0  0  0  0  0  0  0  0  0  0
  152.6149  133.2999  156.0181 O   0  0  0  0  0  0  0  0  0  0  0  0
  151.9392  135.4593  154.7813 N   0  5  0  0  0  0  0  0  0  0  0  0
  151.2141  136.7033  154.9940 C   0  0  2  0  0  0  0  0  0  0  0  0
  149.7697  136.6102  154.4327 C   0  0  0  0  0  0  0  0  0  0  0  0
  149.0314  137.9755  154.3921 C   0  0  0  0  0  0  0  0  0  0  0  0
  149.8677  139.0815  153.7090 C   0  0  0  0  0  0  0  0  0  0  0  0
  151.1773  139.1334  154.3968 N   0  0  0  0  0  0  0  0  0  0  0  0
  151.6643  140.1937  155.0948 C   0  0  0  0  0  0  0  0  0  0  0  0
  152.8530  140.3198  155.3922 O   0  0  0  0  0  0  0  0  0  0  0  0
  150.7357  141.0798  155.4935 N   0  0  0  0  0  0  0  0  0  0  0  0
  150.9941  142.2544  156.3182 C   0  0  0  0  0  0  0  0  0  0  0  0
  151.8334  141.8984  157.5568 C   0  0  0  0  0  0  0  0  0  0  0  0
  151.6674  142.9101  158.6744 C   0  0  0  0  0  0  0  0  0  0  0  0
  151.8252  142.5268  160.0235 C   0  0  0  0  0  0  0  0  0  0  0  0
  151.6565  143.5051  161.0226 C   0  0  0  0  0  0  0  0  0  0  0  0
  151.3365  144.8210  160.6366 C   0  0  0  0  0  0  0  0  0  0  0  0
  151.1987  145.1015  159.2624 C   0  0  0  0  0  0  0  0  0  0  0  0
  151.3587  144.1712  158.2966 N   0  0  0  0  0  0  0  0  0  0  0  0
  151.9389  137.8694  154.2663 C   0  0  0  0  0  0  0  0  0  0  0  0
  150.3570  132.2131  154.5426 H   0  0  0  0  0  0  0  0  0  0  0  0
  151.4754  132.9940  153.4002 H   0  0  0  0  0  0  0  0  0  0  0  0
  149.8966  133.7387  153.7502 H   0  0  0  0  0  0  0  0  0  0  0  0
  151.1580  136.9578  156.0533 H   0  0  0  0  0  0  0  0  0  0  0  0
  149.8044  136.2113  153.4175 H   0  0  0  0  0  0  0  0  0  0  0  0
  149.1829  135.9011  155.0166 H   0  0  0  0  0  0  0  0  0  0  0  0
  148.0817  137.8592  153.8696 H   0  0  0  0  0  0  0  0  0  0  0  0
  148.7773  138.2900  155.4064 H   0  0  0  0  0  0  0  0  0  0  0  0
  150.0293  138.8314  152.6594 H   0  0  0  0  0  0  0  0  0  0  0  0
  149.3158  140.0211  153.7052 H   0  0  0  0  0  0  0  0  0  0  0  0
  149.7767  140.9075  155.2297 H   0  0  0  0  0  0  0  0  0  0  0  0
  151.4897  143.0253  155.7255 H   0  0  0  0  0  0  0  0  0  0  0  0
  150.0343  142.6688  156.6275 H   0  0  0  0  0  0  0  0  0  0  0  0
  151.5550  140.9094  157.9236 H   0  0  0  0  0  0  0  0  0  0  0  0
  152.8907  141.8395  157.2943 H   0  0  0  0  0  0  0  0  0  0  0  0
  152.0691  141.5085  160.2885 H   0  0  0  0  0  0  0  0  0  0  0  0
  151.7704  143.2504  162.0660 H   0  0  0  0  0  0  0  0  0  0  0  0
  151.2000  145.5970  161.3751 H   0  0  0  0  0  0  0  0  0  0  0  0
  150.9535  146.0994  158.9301 H   0  0  0  0  0  0  0  0  0  0  0  0
  152.9571  137.9573  154.6489 H   0  0  0  0  0  0  0  0  0  0  0  0
  152.0472  137.6406  153.2046 H   0  0  0  0  0  0  0  0  0  0  0  0
  1  2  1  0  0  0  0
  1 23  1  0  0  0  0
  1 24  1  0  0  0  0
  1 25  1  0  0  0  0
  2  3  2  0  0  0  0
  2  4  2  0  0  0  0
  2  5  1  0  0  0  0
  5  6  1  0  0  0  0
  6 22  1  0  0  0  0
  6  7  1  0  0  0  0
  6 26  1  0  0  0  0
  7  8  1  0  0  0  0
  7 27  1  0  0  0  0
  7 28  1  0  0  0  0
  8  9  1  0  0  0  0
  8 29  1  0  0  0  0
  8 30  1  0  0  0  0
  9 10  1  0  0  0  0
  9 31  1  0  0  0  0
  9 32  1  0  0  0  0
 10 11  1  0  0  0  0
 10 22  1  0  0  0  0
 11 12  2  0  0  0  0
 11 13  1  0  0  0  0
 13 14  1  0  0  0  0
 13 33  1  0  0  0  0
 14 15  1  0  0  0  0
 14 34  1  0  0  0  0
 14 35  1  0  0  0  0
 15 16  1  0  0  0  0
 15 36  1  0  0  0  0
 15 37  1  0  0  0  0
 16 21  1  0  0  0  0
 16 17  2  0  0  0  0
 17 18  1  0  0  0  0
 17 38  1  0  0  0  0
 18 19  2  0  0  0  0
 18 39  1  0  0  0  0
 19 20  1  0  0  0  0
 19 40  1  0  0  0  0
 20 21  2  0  0  0  0
 20 41  1  0  0  0  0
 22 42  1  0  0  0  0
 22 43  1  0  0  0  0
M  CHG  1   5  -1
M  END
> <s_m_source_file>
AV-unprocessed.smi

> <i_m_source_file_index>
1434

> <i_lp_mmshare_version>
43012

> <i_f3d_flags>
0

> <s_epik_input>
W0NIM11TKD1PKSg9TylbTkhdW0NAQEhdMVtDSDJdW0NIMl1bQ0gyXU4oW0NIMl0xKUMoPU8pW05IXVtDSDJdW0NIMl1jMltjSF1bY0hdW2NIXVtjSF1uMg==

> <s_epik_cmdline>
J2VwaWtfcHl0aG9uJywgJy1waCcsICc3LjAnLCAnLXRuJywgJzgnLCAnLW1hJywgJzIwMCcsICctbWV0YWxfYmluZGluZycsICctaW1hZScsICc8aW5maWxlLm1hZT4nLCAnLW9tYWUnLCAnPG91dGZpbGUubWFlPic=

> <r_epik_Ionization_Penalty>
6.57847

> <r_epik_Ionization_Penalty_Charging>
6.53351

> <r_epik_Ionization_Penalty_Neutral>
0.0449527

> <r_epik_State_Penalty>
6.57157

> <r_epik_Charging_Adjusted_Penalty>
13.1051

> <i_epik_Tot_Q>
-1

> <i_epik_Tot_abs_Q>
1

> <r_epik_Metal_State_Penalty>
2.53928

> <b_epik_Metal_Only>
1

> <s_lp_Force_Field>
OPLS_2005

> <r_lp_Energy>
19.5099

> <b_lp_Chiralities_Consistent>
1

> <s_lp_Variant>
AV-unprocessed.smi:1434-5

> <Gold.Version>
5.8.1

> <Gold.Id.Protein>
6NUR|6NUR_protein|mol2

> <Gold.PLP.Fitness>
53.2953

> <Gold.PLP.PLP>
-43.0032

> <Gold.PLP.part.hbond>
-4.3008

> <Gold.PLP.part.metal>
0.0000

> <Gold.PLP.part.buried>
-5.4284

> <Gold.PLP.part.nonpolar>
-33.5354

> <Gold.PLP.part.repulsive>
0.2991

> <Gold.PLP.ligand.clash>
0.0000

> <Gold.PLP.ligand.torsion>
1.2333

> <Gold.PLP.Chemscore.Hbond>
3.9120

> <Gold.PLP.Chemscore.CHOScore>
0.0000

> <Gold.PLP.Chemscore.Metal>
0.0000

> <Gold.Chemscore.Hbonds>
donor molecule, donor type, donor heavy atom, donor atom, acceptor molecule, acceptor atom, score
      P1  H  7997  8008       L1    12  1.00

> <Gold.PLP.Chemscore.Internal.Correction>
1.0227

> <Gold.Rescore>
     Score         DG    S(hbond)    S(metal)    S(lipo)     H(rot)  DE(clash)    DE(int)     intcor
     16.96     -21.92       2.65        0.00     101.72       1.68       2.31       2.66       ----

> <Gold.Chemscore.Fitness>
16.9557

> <Gold.Chemscore.DG>
-21.9214

> <Gold.Chemscore.ZeroCoef>
-5.4800

> <Gold.Chemscore.Hbond>
2.6479

> <Gold.Chemscore.Metal>
0.0000

> <Gold.Chemscore.Lipo>
101.7231

> <Gold.Chemscore.Internal_Hbond>
0.0000

> <Gold.Chemscore.DEClash>
2.3097

> <Gold.Chemscore.DEInternal>
2.6560

> <Gold.Chemscore.Rot>
1.6813

> <Gold.Chemscore.Internal.Correction>
   9.000000E+99

> <Gold.Chemscore.Hbonds>
donor molecule, donor type, donor heavy atom, donor atom, acceptor molecule, acceptor atom, score
      P1  H  7997  8008       L1    12  0.99

> <Gold.Chemscore.Hbond.Weighted>
-8.8441

> <Gold.Chemscore.Metal.Weighted>
-0.0000

> <Gold.Chemscore.Lipo.Weighted>
-11.9016

> <Gold.Chemscore.Internal_Hbond.Weighted>
0.0000

> <Gold.Chemscore.DEClash.Weighted>
2.3097

> <Gold.Chemscore.DEInternal.Weighted>
2.6560

> <Gold.Chemscore.Rot.Weighted>
4.3042

> <Gold.Chemscore.Internal.Correction.Weighted>
   9.000000E+99

> <Gold.Protein.RotatedTorsions>
[ 6907 6896 6895 6894 ] final -110.36 input  -60.11 | X-H torsion
[ 7974 7965 7964 7962 ] final   88.60 input  175.53 | X-H torsion
[ 8008 7997 7996 7995 ] final  -24.68 input   59.86 | X-H torsion
[ 10167 10162 10161 10158 ] final   38.88 input  -65.29 | X-H torsion
[ 10718 10713 10712 10709 ] final -171.96 input   66.30 | X-H torsion
[ 10763 10752 10751 10750 ] final   65.61 input  -60.55 | X-H torsion
[ 11005 11000 10999 10996 ] final   21.15 input  -57.11 | X-H torsion

> <Gold.Protein.ActiveResidues>
 VAL166  LYS551  ARG553  GLY616  TRP617  ASP618  TYR619  PRO620  LYS621  CYS622 
 ASP623  PHE694  ASN695  SER759  ASP760  ASP761  ALA762  ILE779  LEU786  VAL792 
 PHE793  MET794  SER795  GLU796  ALA797  LYS798  CYS799  TRP800  GLU811  SER814 

> <Gold.Protein.RotatedAtoms>
  150.7620  133.9393  159.3450 H   0  0  0  0  0  0  0  0  0  0  0  0  # atno 6907 bound_to 6896
  151.7299  135.0875  160.0308 H   0  0  0  0  0  0  0  0  0  0  0  0  # atno 6908 bound_to 6896
  152.3596  133.6243  159.6041 H   0  0  0  0  0  0  0  0  0  0  0  0  # atno 6909 bound_to 6896
  145.5435  139.2290  143.2553 H   0  0  0  0  0  0  0  0  0  0  0  0  # atno 7974 bound_to 7965
  154.4516  140.1947  156.0502 H   0  0  0  0  0  0  0  0  0  0  0  0  # atno 8008 bound_to 7997
  156.0660  140.3290  155.7491 H   0  0  0  0  0  0  0  0  0  0  0  0  # atno 8009 bound_to 7997
  155.5338  140.0580  157.2874 H   0  0  0  0  0  0  0  0  0  0  0  0  # atno 8010 bound_to 7997
  140.3893  144.1874  150.6130 H   0  0  0  0  0  0  0  0  0  0  0  0  # atno 10167 bound_to 10162
  156.7486  130.9369  151.3113 H   0  0  0  0  0  0  0  0  0  0  0  0  # atno 10718 bound_to 10713
  153.0104  135.5350  154.6695 H   0  0  0  0  0  0  0  0  0  0  0  0  # atno 10763 bound_to 10752
  154.5883  135.2856  155.0664 H   0  0  0  0  0  0  0  0  0  0  0  0  # atno 10764 bound_to 10752
  154.1767  135.6523  153.5076 H   0  0  0  0  0  0  0  0  0  0  0  0  # atno 10765 bound_to 10752
  140.3948  134.1781  155.7663 H   0  0  0  0  0  0  0  0  0  0  0  0  # atno 11005 bound_to 11000
  146.1965  140.6255  142.9121 LP  0  0  0  0  0  0  0  0  0  0  0  0  # atno 17320 bound_to 7965
  144.7565  140.5320  143.6765 LP  0  0  0  0  0  0  0  0  0  0  0  0  # atno 17321 bound_to 7965
  140.4856  143.2364  151.8893 LP  0  0  0  0  0  0  0  0  0  0  0  0  # atno 17342 bound_to 10162
  139.4790  144.5222  151.8785 LP  0  0  0  0  0  0  0  0  0  0  0  0  # atno 17343 bound_to 10162
  157.6787  130.9119  150.0214 LP  0  0  0  0  0  0  0  0  0  0  0  0  # atno 17370 bound_to 10713
  156.1417  130.3642  149.9573 LP  0  0  0  0  0  0  0  0  0  0  0  0  # atno 17371 bound_to 10713
  141.1878  133.8273  157.1018 LP  0  0  0  0  0  0  0  0  0  0  0  0  # atno 17394 bound_to 11000
  140.0380  134.9868  157.0908 LP  0  0  0  0  0  0  0  0  0  0  0  0  # atno 17395 bound_to 11000

$$$$
