AV-unprocessed.smi:2866|AV-procd|sdf|11019|dock6
  -GOLD-   2272015483D 1   1.00000     0.00000
 Structure written by MMmdl.
 41 43  0  0  0  0  0  0  0  0  1 V2000
  151.6742  145.3690  160.0179 C   0  0  0  0  0  0  0  0  0  0  0  0
  151.5915  143.9487  159.4870 C   0  0  0  0  0  0  0  0  0  0  0  0
  150.8752  143.7017  158.2941 C   0  0  0  0  0  0  0  0  0  0  0  0
  150.7746  142.3955  157.7670 C   0  0  0  0  0  0  0  0  0  0  0  0
  150.1332  141.9308  156.6314 N   0  0  0  0  0  0  0  0  0  0  0  0
  150.4037  140.6296  156.6842 C   0  0  0  0  0  0  0  0  0  0  0  0
  151.1491  140.1968  157.7194 N   0  0  0  0  0  0  0  0  0  0  0  0
  151.5725  138.8340  157.9881 C   0  0  0  0  0  0  0  0  0  0  0  0
  150.5941  138.0854  158.9127 C   0  0  2  0  0  0  0  0  0  0  0  0
  151.1996  136.8940  159.3796 O   0  0  0  0  0  0  0  0  0  0  0  0
  149.2667  137.7588  158.2025 C   0  0  0  0  0  0  0  0  0  0  0  0
  148.4003  136.9121  159.0043 N   0  0  0  0  0  0  0  0  0  0  0  0
  147.8689  135.6830  158.6797 C   0  0  0  0  0  0  0  0  0  0  0  0
  147.1156  135.2738  159.7422 C   0  0  0  0  0  0  0  0  0  0  0  0
  147.2472  136.3313  160.6888 C   0  0  0  0  0  0  0  0  0  0  0  0
  146.6329  136.4401  162.0597 C   0  0  0  0  0  0  0  0  0  0  0  0
  147.5817  136.6243  162.9777 F   0  0  0  0  0  0  0  0  0  0  0  0
  145.7906  137.4724  162.1011 F   0  0  0  0  0  0  0  0  0  0  0  0
  145.9664  135.3231  162.3502 F   0  0  0  0  0  0  0  0  0  0  0  0
  148.0240  137.3078  160.2389 N   0  0  0  0  0  0  0  0  0  0  0  0
  151.4163  141.3352  158.4713 C   0  0  0  0  0  0  0  0  0  0  0  0
  152.1303  141.5677  159.6598 C   0  0  0  0  0  0  0  0  0  0  0  0
  152.2200  142.8785  160.1731 C   0  0  0  0  0  0  0  0  0  0  0  0
  152.9926  143.1195  161.4579 C   0  0  0  0  0  0  0  0  0  0  0  0
  151.1643  146.0714  159.3579 H   0  0  0  0  0  0  0  0  0  0  0  0
  152.7137  145.6863  160.1033 H   0  0  0  0  0  0  0  0  0  0  0  0
  151.2089  145.4356  161.0016 H   0  0  0  0  0  0  0  0  0  0  0  0
  150.3953  144.5164  157.7719 H   0  0  0  0  0  0  0  0  0  0  0  0
  150.0430  139.9521  155.9240 H   0  0  0  0  0  0  0  0  0  0  0  0
  151.6624  138.3135  157.0340 H   0  0  0  0  0  0  0  0  0  0  0  0
  152.5710  138.8568  158.4275 H   0  0  0  0  0  0  0  0  0  0  0  0
  150.3824  138.7085  159.7826 H   0  0  0  0  0  0  0  0  0  0  0  0
  152.0718  137.0991  159.6802 H   0  0  0  0  0  0  0  0  0  0  0  0
  148.7243  138.6792  157.9832 H   0  0  0  0  0  0  0  0  0  0  0  0
  149.4551  137.2729  157.2436 H   0  0  0  0  0  0  0  0  0  0  0  0
  148.0662  135.2090  157.7295 H   0  0  0  0  0  0  0  0  0  0  0  0
  146.5526  134.3565  159.8306 H   0  0  0  0  0  0  0  0  0  0  0  0
  152.6050  140.7435  160.1711 H   0  0  0  0  0  0  0  0  0  0  0  0
  153.4014  142.1905  161.8565 H   0  0  0  0  0  0  0  0  0  0  0  0
  152.3431  143.5525  162.2189 H   0  0  0  0  0  0  0  0  0  0  0  0
  153.8240  143.8023  161.2816 H   0  0  0  0  0  0  0  0  0  0  0  0
  1  2  1  0  0  0  0
  1 25  1  0  0  0  0
  1 26  1  0  0  0  0
  1 27  1  0  0  0  0
  2 23  1  0  0  0  0
  2  3  2  0  0  0  0
  3  4  1  0  0  0  0
  3 28  1  0  0  0  0
  4 21  2  0  0  0  0
  4  5  1  0  0  0  0
  5  6  2  0  0  0  0
  6  7  1  0  0  0  0
  6 29  1  0  0  0  0
  7  8  1  0  0  0  0
  7 21  1  0  0  0  0
  8  9  1  0  0  0  0
  8 30  1  0  0  0  0
  8 31  1  0  0  0  0
  9 10  1  0  0  0  0
  9 11  1  0  0  0  0
  9 32  1  0  0  0  0
 10 33  1  0  0  0  0
 11 12  1  0  0  0  0
 11 34  1  0  0  0  0
 11 35  1  0  0  0  0
 12 20  1  0  0  0  0
 12 13  1  0  0  0  0
 13 14  2  0  0  0  0
 13 36  1  0  0  0  0
 14 15  1  0  0  0  0
 14 37  1  0  0  0  0
 15 16  1  0  0  0  0
 15 20  2  0  0  0  0
 16 17  1  0  0  0  0
 16 18  1  0  0  0  0
 16 19  1  0  0  0  0
 21 22  1  0  0  0  0
 22 23  2  0  0  0  0
 22 38  1  0  0  0  0
 23 24  1  0  0  0  0
 24 39  1  0  0  0  0
 24 40  1  0  0  0  0
 24 41  1  0  0  0  0
M  END
> <s_m_source_file>
AV-unprocessed.smi

> <i_m_source_file_index>
2866

> <i_lp_mmshare_version>
43012

> <i_f3d_flags>
0

> <s_epik_input>
W0NIM11jKFtjSF0xKWMoW0NIM10pW2NIXWMoYzEyKW4oW2NIXW4yKVtDSDJdW0NASF0oW09IXSlbQ0gyXW4zW2NIXVtjSF1jKG4zKUMoRikoRilG

> <s_epik_cmdline>
J2VwaWtfcHl0aG9uJywgJy1waCcsICc3LjAnLCAnLXRuJywgJzgnLCAnLW1hJywgJzIwMCcsICctbWV0YWxfYmluZGluZycsICctaW1hZScsICc8aW5maWxlLm1hZT4nLCAnLW9tYWUnLCAnPG91dGZpbGUubWFlPic=

> <r_lp_tautomer_probability>
1

> <r_epik_Ionization_Penalty>
0.1021

> <r_epik_Ionization_Penalty_Charging>
0

> <r_epik_Ionization_Penalty_Neutral>
0.1021

> <r_epik_State_Penalty>
0.0920694

> <r_epik_Charging_Adjusted_Penalty>
0.0920694

> <i_epik_Tot_Q>
0

> <i_epik_Tot_abs_Q>
0

> <r_epik_Metal_State_Penalty>
0.0784291

> <b_epik_Metal_Only>
0

> <s_lp_Force_Field>
OPLS_2005

> <r_lp_Energy>
11.3604

> <b_lp_Chiralities_Consistent>
1

> <s_lp_Variant>
AV-unprocessed.smi:2866-1

> <Gold.Version>
5.8.1

> <Gold.Id.Protein>
6NUR|6NUR_protein|mol2

> <Gold.PLP.Fitness>
57.8744

> <Gold.PLP.PLP>
-52.2766

> <Gold.PLP.part.hbond>
-3.0000

> <Gold.PLP.part.metal>
0.0000

> <Gold.PLP.part.buried>
-7.9656

> <Gold.PLP.part.nonpolar>
-41.8996

> <Gold.PLP.part.repulsive>
0.1076

> <Gold.PLP.ligand.clash>
0.0000

> <Gold.PLP.ligand.torsion>
0.5302

> <Gold.PLP.Chemscore.Hbond>
2.2056

> <Gold.PLP.Chemscore.CHOScore>
0.0000

> <Gold.PLP.Chemscore.Metal>
0.0000

> <Gold.Chemscore.Hbonds>
donor molecule, donor type, donor heavy atom, donor atom, acceptor molecule, acceptor atom, score
      P1  H  6896  6908       L1    10  0.95
      P1  H  6931  6943       L1    20  0.44
      P1  H  6934  6947       L1    20  0.70

> <Gold.PLP.Chemscore.Internal.Correction>
0.0412

> <Gold.Rescore>
     Score         DG    S(hbond)    S(metal)    S(lipo)     H(rot)  DE(clash)    DE(int)     intcor
     18.63     -20.13       2.27        0.00     113.55       2.42       0.93       0.58       ----

> <Gold.Chemscore.Fitness>
18.6278

> <Gold.Chemscore.DG>
-20.1318

> <Gold.Chemscore.ZeroCoef>
-5.4800

> <Gold.Chemscore.Hbond>
2.2674

> <Gold.Chemscore.Metal>
0.0000

> <Gold.Chemscore.Lipo>
113.5478

> <Gold.Chemscore.Internal_Hbond>
0.0000

> <Gold.Chemscore.DEClash>
0.9264

> <Gold.Chemscore.DEInternal>
0.5775

> <Gold.Chemscore.Rot>
2.4243

> <Gold.Chemscore.Internal.Correction>
   9.000000E+99

> <Gold.Chemscore.Hbonds>
donor molecule, donor type, donor heavy atom, donor atom, acceptor molecule, acceptor atom, score
      P1  H  6896  6908       L1    10  0.21
      P1  H  6931  6943       L1    20  0.32
      P1  H  6934  6947       L1    20  0.37

> <Gold.Chemscore.Hbond.Weighted>
-7.5730

> <Gold.Chemscore.Metal.Weighted>
-0.0000

> <Gold.Chemscore.Lipo.Weighted>
-13.2851

> <Gold.Chemscore.Internal_Hbond.Weighted>
0.0000

> <Gold.Chemscore.DEClash.Weighted>
0.9264

> <Gold.Chemscore.DEInternal.Weighted>
0.5775

> <Gold.Chemscore.Rot.Weighted>
6.2063

> <Gold.Chemscore.Internal.Correction.Weighted>
   9.000000E+99

> <Gold.Protein.RotatedTorsions>
[ 6907 6896 6895 6894 ] final -148.32 input  -60.11 | X-H torsion
[ 7974 7965 7964 7962 ] final -100.50 input  175.53 | X-H torsion
[ 8008 7997 7996 7995 ] final  -14.97 input   59.86 | X-H torsion
[ 10167 10162 10161 10158 ] final  174.10 input  -65.29 | X-H torsion
[ 10718 10713 10712 10709 ] final  -13.78 input   66.30 | X-H torsion
[ 10763 10752 10751 10750 ] final   26.05 input  -60.55 | X-H torsion
[ 11005 11000 10999 10996 ] final  -25.82 input  -57.11 | X-H torsion

> <Gold.Protein.ActiveResidues>
 VAL166  LYS551  ARG553  GLY616  TRP617  ASP618  TYR619  PRO620  LYS621  CYS622 
 ASP623  PHE694  ASN695  SER759  ASP760  ASP761  ALA762  ILE779  LEU786  VAL792 
 PHE793  MET794  SER795  GLU796  ALA797  LYS798  CYS799  TRP800  GLU811  SER814 

> <Gold.Protein.RotatedAtoms>
  151.1681  133.4802  159.2593 H   0  0  0  0  0  0  0  0  0  0  0  0  # atno 6907 bound_to 6896
  151.1384  135.0167  159.8624 H   0  0  0  0  0  0  0  0  0  0  0  0  # atno 6908 bound_to 6896
  152.5462  134.1577  159.8598 H   0  0  0  0  0  0  0  0  0  0  0  0  # atno 6909 bound_to 6896
  145.2937  140.9359  143.2863 H   0  0  0  0  0  0  0  0  0  0  0  0  # atno 7974 bound_to 7965
  154.5167  140.2209  155.9052 H   0  0  0  0  0  0  0  0  0  0  0  0  # atno 8008 bound_to 7997
  156.1616  140.3141  155.8782 H   0  0  0  0  0  0  0  0  0  0  0  0  # atno 8009 bound_to 7997
  155.3740  140.0468  157.3035 H   0  0  0  0  0  0  0  0  0  0  0  0  # atno 8010 bound_to 7997
  139.5130  144.3185  152.0225 H   0  0  0  0  0  0  0  0  0  0  0  0  # atno 10167 bound_to 10162
  156.6253  130.4886  149.6149 H   0  0  0  0  0  0  0  0  0  0  0  0  # atno 10718 bound_to 10713
  153.0649  135.6569  154.0377 H   0  0  0  0  0  0  0  0  0  0  0  0  # atno 10763 bound_to 10752
  154.0036  135.2935  155.3401 H   0  0  0  0  0  0  0  0  0  0  0  0  # atno 10764 bound_to 10752
  154.7003  135.5247  153.8585 H   0  0  0  0  0  0  0  0  0  0  0  0  # atno 10765 bound_to 10752
  140.8972  133.7548  156.0497 H   0  0  0  0  0  0  0  0  0  0  0  0  # atno 11005 bound_to 11000
  144.9151  139.4480  143.6568 LP  0  0  0  0  0  0  0  0  0  0  0  0  # atno 17320 bound_to 7965
  146.3176  139.7980  142.8971 LP  0  0  0  0  0  0  0  0  0  0  0  0  # atno 17321 bound_to 7965
  140.2627  144.4049  150.6179 LP  0  0  0  0  0  0  0  0  0  0  0  0  # atno 17342 bound_to 10162
  140.6145  143.2171  151.6819 LP  0  0  0  0  0  0  0  0  0  0  0  0  # atno 17343 bound_to 10162
  156.2278  130.6776  151.1434 LP  0  0  0  0  0  0  0  0  0  0  0  0  # atno 17370 bound_to 10713
  157.7216  131.0678  150.6112 LP  0  0  0  0  0  0  0  0  0  0  0  0  # atno 17371 bound_to 10713
  140.8274  134.3218  157.5361 LP  0  0  0  0  0  0  0  0  0  0  0  0  # atno 17394 bound_to 11000
  139.8737  134.9344  156.3606 LP  0  0  0  0  0  0  0  0  0  0  0  0  # atno 17395 bound_to 11000

$$$$
