AV-unprocessed.smi:413|AV-procd|sdf|2513|dock1
  -GOLD-   2262022463D 1   1.00000     0.00000
 Structure written by MMmdl.
 40 42  0  0  0  0  0  0  0  0  1 V2000
  149.9106  141.6400  155.0438 C   0  0  0  0  0  0  0  0  0  0  0  0
  150.3926  141.2094  156.3505 N   0  0  0  0  0  0  0  0  0  0  0  0
  150.3446  139.9584  156.8657 C   0  0  0  0  0  0  0  0  0  0  0  0
  149.8780  138.9637  156.3108 O   0  0  0  0  0  0  0  0  0  0  0  0
  150.8953  139.9936  158.1021 N   0  0  0  0  0  0  0  0  0  0  0  0
  151.0294  138.8700  159.0265 C   0  0  0  0  0  0  0  0  0  0  0  0
  150.4385  137.5735  158.4366 C   0  0  1  0  0  0  0  0  0  0  0  0
  151.1693  136.4486  158.8808 O   0  0  0  0  0  0  0  0  0  0  0  0
  148.9640  137.3569  158.8148 C   0  0  0  0  0  0  0  0  0  0  0  0
  148.8594  137.0664  160.2036 O   0  0  0  0  0  0  0  0  0  0  0  0
  148.0489  136.0233  160.5955 C   0  0  0  0  0  0  0  0  0  0  0  0
  147.7541  135.9257  161.9712 C   0  0  0  0  0  0  0  0  0  0  0  0
  146.9318  134.8929  162.4610 C   0  0  0  0  0  0  0  0  0  0  0  0
  146.3940  133.9421  161.5744 C   0  0  0  0  0  0  0  0  0  0  0  0
  145.6028  132.9484  162.0430 F   0  0  0  0  0  0  0  0  0  0  0  0
  146.6803  134.0266  160.1993 C   0  0  0  0  0  0  0  0  0  0  0  0
  147.5031  135.0597  159.7094 C   0  0  0  0  0  0  0  0  0  0  0  0
  151.2931  141.3069  158.3909 C   0  0  0  0  0  0  0  0  0  0  0  0
  151.8957  141.8625  159.5331 C   0  0  0  0  0  0  0  0  0  0  0  0
  152.1702  143.2501  159.5085 C   0  0  0  0  0  0  0  0  0  0  0  0
  151.8441  144.0360  158.3723 C   0  0  0  0  0  0  0  0  0  0  0  0
  151.2365  143.4511  157.2364 C   0  0  0  0  0  0  0  0  0  0  0  0
  150.9764  142.0709  157.2879 C   0  0  0  0  0  0  0  0  0  0  0  0
  149.6168  140.7965  154.4178 H   0  0  0  0  0  0  0  0  0  0  0  0
  150.6890  142.1921  154.5164 H   0  0  0  0  0  0  0  0  0  0  0  0
  149.0460  142.2939  155.1591 H   0  0  0  0  0  0  0  0  0  0  0  0
  152.0708  138.7276  159.3205 H   0  0  0  0  0  0  0  0  0  0  0  0
  150.4982  139.1321  159.9422 H   0  0  0  0  0  0  0  0  0  0  0  0
  150.5043  137.5957  157.3480 H   0  0  0  0  0  0  0  0  0  0  0  0
  151.9414  136.3618  158.3421 H   0  0  0  0  0  0  0  0  0  0  0  0
  148.4122  138.2737  158.6010 H   0  0  0  0  0  0  0  0  0  0  0  0
  148.5277  136.5591  158.2110 H   0  0  0  0  0  0  0  0  0  0  0  0
  148.1628  136.6519  162.6586 H   0  0  0  0  0  0  0  0  0  0  0  0
  146.7138  134.8313  163.5169 H   0  0  0  0  0  0  0  0  0  0  0  0
  146.2680  133.2975  159.5175 H   0  0  0  0  0  0  0  0  0  0  0  0
  147.7001  135.0906  158.6488 H   0  0  0  0  0  0  0  0  0  0  0  0
  152.1387  141.2594  160.3955 H   0  0  0  0  0  0  0  0  0  0  0  0
  152.6326  143.7173  160.3654 H   0  0  0  0  0  0  0  0  0  0  0  0
  152.0614  145.0941  158.3750 H   0  0  0  0  0  0  0  0  0  0  0  0
  150.9835  144.0423  156.3687 H   0  0  0  0  0  0  0  0  0  0  0  0
  1  2  1  0  0  0  0
  1 24  1  0  0  0  0
  1 25  1  0  0  0  0
  1 26  1  0  0  0  0
  2 23  1  0  0  0  0
  2  3  1  0  0  0  0
  3  4  2  0  0  0  0
  3  5  1  0  0  0  0
  5  6  1  0  0  0  0
  5 18  1  0  0  0  0
  6  7  1  0  0  0  0
  6 27  1  0  0  0  0
  6 28  1  0  0  0  0
  7  8  1  0  0  0  0
  7  9  1  0  0  0  0
  7 29  1  0  0  0  0
  8 30  1  0  0  0  0
  9 10  1  0  0  0  0
  9 31  1  0  0  0  0
  9 32  1  0  0  0  0
 10 11  1  0  0  0  0
 11 17  1  0  0  0  0
 11 12  2  0  0  0  0
 12 13  1  0  0  0  0
 12 33  1  0  0  0  0
 13 14  2  0  0  0  0
 13 34  1  0  0  0  0
 14 15  1  0  0  0  0
 14 16  1  0  0  0  0
 16 17  2  0  0  0  0
 16 35  1  0  0  0  0
 17 36  1  0  0  0  0
 18 23  2  0  0  0  0
 18 19  1  0  0  0  0
 19 20  2  0  0  0  0
 19 37  1  0  0  0  0
 20 21  1  0  0  0  0
 20 38  1  0  0  0  0
 21 22  2  0  0  0  0
 21 39  1  0  0  0  0
 22 23  1  0  0  0  0
 22 40  1  0  0  0  0
M  END
> <s_m_source_file>
AV-unprocessed.smi

> <i_m_source_file_index>
413

> <i_lp_mmshare_version>
43012

> <i_f3d_flags>
0

> <s_epik_input>
W2NIXTFbY0hdW2NIXVtjSF1jKGMxMiluKFtDSDNdKWMoPU8pbjJbQ0gyXVtDQEhdKFtPSF0pW0NIMl1PYzNbY0hdW2NIXWMoRilbY0hdW2NIXTM=

> <s_epik_cmdline>
J2VwaWtfcHl0aG9uJywgJy1waCcsICc3LjAnLCAnLXRuJywgJzgnLCAnLW1hJywgJzIwMCcsICctbWV0YWxfYmluZGluZycsICctaW1hZScsICc8aW5maWxlLm1hZT4nLCAnLW9tYWUnLCAnPG91dGZpbGUubWFlPic=

> <r_lp_tautomer_probability>
1

> <r_epik_Ionization_Penalty>
2.40172e-06

> <r_epik_Ionization_Penalty_Charging>
2.42369e-09

> <r_epik_Ionization_Penalty_Neutral>
2.3993e-06

> <r_epik_State_Penalty>
-0

> <r_epik_Charging_Adjusted_Penalty>
2.42369e-09

> <i_epik_Tot_Q>
0

> <i_epik_Tot_abs_Q>
0

> <r_epik_Metal_State_Penalty>
-0

> <b_epik_Metal_Only>
0

> <s_lp_Force_Field>
OPLS_2005

> <r_lp_Energy>
47.225

> <b_lp_Chiralities_Consistent>
1

> <s_lp_Variant>
AV-unprocessed.smi:413-2

> <Gold.Version>
5.8.1

> <Gold.Id.Protein>
6NUR|6NUR_protein|mol2

> <Gold.PLP.Fitness>
46.1530

> <Gold.PLP.PLP>
-48.7546

> <Gold.PLP.part.hbond>
-2.5276

> <Gold.PLP.part.metal>
0.0000

> <Gold.PLP.part.buried>
-3.6347

> <Gold.PLP.part.nonpolar>
-42.7485

> <Gold.PLP.part.repulsive>
0.0000

> <Gold.PLP.ligand.clash>
5.2630

> <Gold.PLP.ligand.torsion>
0.9211

> <Gold.PLP.Chemscore.Hbond>
1.4240

> <Gold.PLP.Chemscore.CHOScore>
0.0000

> <Gold.PLP.Chemscore.Metal>
0.0000

> <Gold.Chemscore.Hbonds>
donor molecule, donor type, donor heavy atom, donor atom, acceptor molecule, acceptor atom, score
      P1  H  6896  6907       L1     8  0.78
      P1  H  6931  6943       L1    10  0.56

> <Gold.PLP.Chemscore.Internal.Correction>
0.2317

> <Gold.Rescore>
     Score         DG    S(hbond)    S(metal)    S(lipo)     H(rot)  DE(clash)    DE(int)     intcor
     14.13     -16.93       0.98        0.00     119.62       2.27       0.18       2.61       ----

> <Gold.Chemscore.Fitness>
14.1340

> <Gold.Chemscore.DG>
-16.9308

> <Gold.Chemscore.ZeroCoef>
-5.4800

> <Gold.Chemscore.Hbond>
0.9785

> <Gold.Chemscore.Metal>
0.0000

> <Gold.Chemscore.Lipo>
119.6204

> <Gold.Chemscore.Internal_Hbond>
0.0000

> <Gold.Chemscore.DEClash>
0.1831

> <Gold.Chemscore.DEInternal>
2.6138

> <Gold.Chemscore.Rot>
2.2706

> <Gold.Chemscore.Internal.Correction>
   9.000000E+99

> <Gold.Chemscore.Hbonds>
donor molecule, donor type, donor heavy atom, donor atom, acceptor molecule, acceptor atom, score
      P1  H  6896  6907       L1     8  0.47
      P1  H  6931  6943       L1    10  0.29

> <Gold.Chemscore.Hbond.Weighted>
-3.2681

> <Gold.Chemscore.Metal.Weighted>
-0.0000

> <Gold.Chemscore.Lipo.Weighted>
-13.9956

> <Gold.Chemscore.Internal_Hbond.Weighted>
0.0000

> <Gold.Chemscore.DEClash.Weighted>
0.1831

> <Gold.Chemscore.DEInternal.Weighted>
2.6138

> <Gold.Chemscore.Rot.Weighted>
5.8128

> <Gold.Chemscore.Internal.Correction.Weighted>
   9.000000E+99

> <Gold.Protein.RotatedTorsions>
[ 6907 6896 6895 6894 ] final  -36.50 input  -60.11 | X-H torsion
[ 7974 7965 7964 7962 ] final  -40.95 input  175.53 | X-H torsion
[ 8008 7997 7996 7995 ] final  -80.55 input   59.86 | X-H torsion
[ 10167 10162 10161 10158 ] final   62.11 input  -65.29 | X-H torsion
[ 10718 10713 10712 10709 ] final  -68.10 input   66.30 | X-H torsion
[ 10763 10752 10751 10750 ] final  122.98 input  -60.55 | X-H torsion
[ 11005 11000 10999 10996 ] final -133.61 input  -57.11 | X-H torsion

> <Gold.Protein.ActiveResidues>
 VAL166  LYS551  ARG553  GLY616  TRP617  ASP618  TYR619  PRO620  LYS621  CYS622 
 ASP623  PHE694  ASN695  SER759  ASP760  ASP761  ALA762  ILE779  LEU786  VAL792 
 PHE793  MET794  SER795  GLU796  ALA797  LYS798  CYS799  TRP800  GLU811  SER814 

> <Gold.Protein.RotatedAtoms>
  151.0264  134.9507  159.8087 H   0  0  0  0  0  0  0  0  0  0  0  0  # atno 6907 bound_to 6896
  152.5336  134.2836  159.9027 H   0  0  0  0  0  0  0  0  0  0  0  0  # atno 6908 bound_to 6896
  151.2845  133.4152  159.2663 H   0  0  0  0  0  0  0  0  0  0  0  0  # atno 6909 bound_to 6896
  146.0257  140.6795  142.9157 H   0  0  0  0  0  0  0  0  0  0  0  0  # atno 7974 bound_to 7965
  154.5894  140.0661  156.9218 H   0  0  0  0  0  0  0  0  0  0  0  0  # atno 8008 bound_to 7997
  155.2321  140.3338  155.4284 H   0  0  0  0  0  0  0  0  0  0  0  0  # atno 8009 bound_to 7997
  156.2245  140.1813  156.7380 H   0  0  0  0  0  0  0  0  0  0  0  0  # atno 8010 bound_to 7997
  140.1475  144.4494  150.6777 H   0  0  0  0  0  0  0  0  0  0  0  0  # atno 10167 bound_to 10162
  156.0523  130.4289  150.1951 H   0  0  0  0  0  0  0  0  0  0  0  0  # atno 10718 bound_to 10713
  153.6383  135.3384  155.3063 H   0  0  0  0  0  0  0  0  0  0  0  0  # atno 10763 bound_to 10752
  154.8565  135.4312  154.2032 H   0  0  0  0  0  0  0  0  0  0  0  0  # atno 10764 bound_to 10752
  153.2945  135.7019  153.7335 H   0  0  0  0  0  0  0  0  0  0  0  0  # atno 10765 bound_to 10752
  140.9065  134.1623  157.4421 H   0  0  0  0  0  0  0  0  0  0  0  0  # atno 11005 bound_to 11000
  144.7008  140.3645  143.7157 LP  0  0  0  0  0  0  0  0  0  0  0  0  # atno 17320 bound_to 7965
  145.7122  139.1688  143.2532 LP  0  0  0  0  0  0  0  0  0  0  0  0  # atno 17321 bound_to 7965
  140.6723  143.2290  151.5595 LP  0  0  0  0  0  0  0  0  0  0  0  0  # atno 17342 bound_to 10162
  139.5442  144.2566  152.1409 LP  0  0  0  0  0  0  0  0  0  0  0  0  # atno 17343 bound_to 10162
  157.0032  130.9928  151.3385 LP  0  0  0  0  0  0  0  0  0  0  0  0  # atno 17370 bound_to 10713
  157.5461  130.8151  149.8087 LP  0  0  0  0  0  0  0  0  0  0  0  0  # atno 17371 bound_to 10713
  139.8750  134.9919  156.5571 LP  0  0  0  0  0  0  0  0  0  0  0  0  # atno 17394 bound_to 11000
  140.8164  133.8388  155.8856 LP  0  0  0  0  0  0  0  0  0  0  0  0  # atno 17395 bound_to 11000

$$$$
