AV-unprocessed.smi:560|AV-procd|sdf|2934|dock8
  -GOLD-   2262023433D 1   1.00000     0.00000
 Structure written by MMmdl.
 41 42  0  0  0  0  0  0  0  0  3 V2000
  152.3948  139.6250  159.0834 C   0  0  0  0  0  0  0  0  0  0  0  0
  151.5217  140.3709  158.0540 C   0  0  2  0  0  0  0  0  0  0  0  0
  151.6885  139.8303  156.6244 C   0  0  0  0  0  0  0  0  0  0  0  0
  152.8059  139.5886  156.1666 O   0  0  0  0  0  0  0  0  0  0  0  0
  150.5563  139.6384  155.9288 N   0  0  0  0  0  0  0  0  0  0  0  0
  150.4781  139.1451  154.5549 C   0  0  2  0  0  0  0  0  0  0  0  0
  149.0096  138.9847  154.1261 C   0  0  0  0  0  0  0  0  0  0  0  0
  148.3253  137.8030  154.8376 C   0  0  0  0  0  0  0  0  0  0  0  0
  149.0762  136.5386  154.6310 N   0  3  2  0  0  0  0  0  0  0  0  0
  148.3651  135.3650  155.1963 C   0  0  0  0  0  0  0  0  0  0  0  0
  148.9255  134.0689  154.6010 C   0  0  0  0  0  0  0  0  0  0  0  0
  148.5223  133.8679  153.3317 N   0  5  0  0  0  0  0  0  0  0  0  0
  149.6430  133.3460  155.2895 O   0  0  0  0  0  0  0  0  0  0  0  0
  150.4839  136.6519  155.0995 C   0  0  0  0  0  0  0  0  0  0  0  0
  151.2153  137.8023  154.3863 C   0  0  0  0  0  0  0  0  0  0  0  0
  151.7479  141.8116  158.0858 N   0  0  0  0  0  0  0  0  0  0  0  0
  152.5944  142.5199  158.9147 C   0  0  0  0  0  0  0  0  0  0  0  0
  152.4564  143.8435  158.6092 C   0  0  0  0  0  0  0  0  0  0  0  0
  151.4824  143.8512  157.5725 C   0  0  0  0  0  0  0  0  0  0  0  0
  151.0550  142.6372  157.2670 N   0  0  0  0  0  0  0  0  0  0  0  0
  152.1732  138.5572  159.0873 H   0  0  0  0  0  0  0  0  0  0  0  0
  152.2113  139.9992  160.0909 H   0  0  0  0  0  0  0  0  0  0  0  0
  153.4598  139.7402  158.8784 H   0  0  0  0  0  0  0  0  0  0  0  0
  150.4812  140.2038  158.3371 H   0  0  0  0  0  0  0  0  0  0  0  0
  149.6835  139.8662  156.3822 H   0  0  0  0  0  0  0  0  0  0  0  0
  150.9416  139.8879  153.9032 H   0  0  0  0  0  0  0  0  0  0  0  0
  148.4573  139.9066  154.3134 H   0  0  0  0  0  0  0  0  0  0  0  0
  148.9684  138.8213  153.0482 H   0  0  0  0  0  0  0  0  0  0  0  0
  148.2349  138.0022  155.9065 H   0  0  0  0  0  0  0  0  0  0  0  0
  147.3116  137.6945  154.4502 H   0  0  0  0  0  0  0  0  0  0  0  0
  148.4068  135.3838  156.2878 H   0  0  0  0  0  0  0  0  0  0  0  0
  147.3090  135.4033  154.9261 H   0  0  0  0  0  0  0  0  0  0  0  0
  148.4330  134.6754  152.7035 H   0  0  0  0  0  0  0  0  0  0  0  0
  150.4999  136.8051  156.1797 H   0  0  0  0  0  0  0  0  0  0  0  0
  151.0212  135.7225  154.9092 H   0  0  0  0  0  0  0  0  0  0  0  0
  151.2925  137.5685  153.3236 H   0  0  0  0  0  0  0  0  0  0  0  0
  152.2404  137.8766  154.7510 H   0  0  0  0  0  0  0  0  0  0  0  0
  153.2191  142.0282  159.6456 H   0  0  0  0  0  0  0  0  0  0  0  0
  152.9710  144.6797  159.0589 H   0  0  0  0  0  0  0  0  0  0  0  0
  151.0736  144.6968  157.0392 H   0  0  0  0  0  0  0  0  0  0  0  0
  149.1094  136.3849  153.6330 H   0  0  0  0  0  0  0  0  0  0  0  0
  1  2  1  0  0  0  0
  1 21  1  0  0  0  0
  1 22  1  0  0  0  0
  1 23  1  0  0  0  0
  2  3  1  0  0  0  0
  2 16  1  0  0  0  0
  2 24  1  0  0  0  0
  3  4  2  0  0  0  0
  3  5  1  0  0  0  0
  5  6  1  0  0  0  0
  5 25  1  0  0  0  0
  6 15  1  0  0  0  0
  6  7  1  0  0  0  0
  6 26  1  0  0  0  0
  7  8  1  0  0  0  0
  7 27  1  0  0  0  0
  7 28  1  0  0  0  0
  8  9  1  0  0  0  0
  8 29  1  0  0  0  0
  8 30  1  0  0  0  0
  9 10  1  0  0  0  0
  9 14  1  0  0  0  0
  9 41  1  0  0  0  0
 10 11  1  0  0  0  0
 10 31  1  0  0  0  0
 10 32  1  0  0  0  0
 11 12  1  0  0  0  0
 11 13  2  0  0  0  0
 12 33  1  0  0  0  0
 14 15  1  0  0  0  0
 14 34  1  0  0  0  0
 14 35  1  0  0  0  0
 15 36  1  0  0  0  0
 15 37  1  0  0  0  0
 16 20  1  0  0  0  0
 16 17  1  0  0  0  0
 17 18  2  0  0  0  0
 17 38  1  0  0  0  0
 18 19  1  0  0  0  0
 18 39  1  0  0  0  0
 19 20  2  0  0  0  0
 19 40  1  0  0  0  0
M  CHG  1   9   1
M  CHG  1  12  -1
M  END
> <s_m_source_file>
AV-unprocessed.smi

> <i_m_source_file_index>
560

> <i_lp_mmshare_version>
43012

> <i_f3d_flags>
0

> <s_epik_input>
bjFbY0hdW2NIXVtjSF1uMVtDQEhdKFtDSDNdKUMoPU8pW05IXVtDSF0yW0NIMl1bQ0gyXU4oW0NIMl1bQ0gyXTIpW0NIMl1DKD1PKVtOSDJd

> <s_epik_cmdline>
J2VwaWtfcHl0aG9uJywgJy1waCcsICc3LjAnLCAnLXRuJywgJzgnLCAnLW1hJywgJzIwMCcsICctbWV0YWxfYmluZGluZycsICctaW1hZScsICc8aW5maWxlLm1hZT4nLCAnLW9tYWUnLCAnPG91dGZpbGUubWFlPic=

> <r_lp_tautomer_probability>
1

> <r_epik_Ionization_Penalty>
5.71084

> <r_epik_Ionization_Penalty_Charging>
5.71081

> <r_epik_Ionization_Penalty_Neutral>
3.04611e-05

> <r_epik_State_Penalty>
6.71277

> <r_epik_Charging_Adjusted_Penalty>
12.4236

> <i_epik_Tot_Q>
0

> <i_epik_Tot_abs_Q>
2

> <r_epik_Metal_State_Penalty>
2.67562

> <b_epik_Metal_Only>
1

> <s_lp_Force_Field>
OPLS_2005

> <r_lp_Energy>
9.92131

> <b_lp_Chiralities_Consistent>
1

> <s_lp_Variant>
AV-unprocessed.smi:560-9

> <Gold.Version>
5.8.1

> <Gold.Id.Protein>
6NUR|6NUR_protein|mol2

> <Gold.PLP.Fitness>
49.2928

> <Gold.PLP.PLP>
-35.9192

> <Gold.PLP.part.hbond>
-3.0000

> <Gold.PLP.part.metal>
0.0000

> <Gold.PLP.part.buried>
-4.2576

> <Gold.PLP.part.nonpolar>
-29.5270

> <Gold.PLP.part.repulsive>
0.2042

> <Gold.PLP.ligand.clash>
0.0000

> <Gold.PLP.ligand.torsion>
0.8337

> <Gold.PLP.Chemscore.Hbond>
4.0000

> <Gold.PLP.Chemscore.CHOScore>
0.9654

> <Gold.PLP.Chemscore.Metal>
0.0000

> <Gold.Chemscore.Hbonds>
donor molecule, donor type, donor heavy atom, donor atom, acceptor molecule, acceptor atom, score
      L1  H     9    41       P1  7948  2.00
      L1  H    12    33       P1  7948  1.00
      P1  H  7997  8008       L1     4  1.00
      L1  C    19    40       P1  8028  0.91

> <Gold.PLP.Chemscore.Internal.Correction>
0.1448

> <Gold.Rescore>
     Score         DG    S(hbond)    S(metal)    S(lipo)     H(rot)  DE(clash)    DE(int)     intcor
     16.41     -18.20       2.90        0.00      80.19       2.47       0.03       1.77       ----

> <Gold.Chemscore.Fitness>
16.4104

> <Gold.Chemscore.DG>
-18.2046

> <Gold.Chemscore.ZeroCoef>
-5.4800

> <Gold.Chemscore.Hbond>
2.8964

> <Gold.Chemscore.Metal>
0.0000

> <Gold.Chemscore.Lipo>
80.1928

> <Gold.Chemscore.Internal_Hbond>
0.0000

> <Gold.Chemscore.DEClash>
0.0282

> <Gold.Chemscore.DEInternal>
1.7660

> <Gold.Chemscore.Rot>
2.4734

> <Gold.Chemscore.Internal.Correction>
   9.000000E+99

> <Gold.Chemscore.Hbonds>
donor molecule, donor type, donor heavy atom, donor atom, acceptor molecule, acceptor atom, score
      L1  H     9    41       P1  7948  0.98
      L1  H    12    33       P1  7948  0.25
      P1  H  7997  8008       L1     4  1.00

> <Gold.Chemscore.Hbond.Weighted>
-9.6739

> <Gold.Chemscore.Metal.Weighted>
-0.0000

> <Gold.Chemscore.Lipo.Weighted>
-9.3826

> <Gold.Chemscore.Internal_Hbond.Weighted>
0.0000

> <Gold.Chemscore.DEClash.Weighted>
0.0282

> <Gold.Chemscore.DEInternal.Weighted>
1.7660

> <Gold.Chemscore.Rot.Weighted>
6.3318

> <Gold.Chemscore.Internal.Correction.Weighted>
   9.000000E+99

> <Gold.Protein.RotatedTorsions>
[ 6907 6896 6895 6894 ] final  -18.09 input  -60.11 | X-H torsion
[ 7974 7965 7964 7962 ] final    0.55 input  175.53 | X-H torsion
[ 8008 7997 7996 7995 ] final  -31.10 input   59.86 | X-H torsion
[ 10167 10162 10161 10158 ] final  163.92 input  -65.29 | X-H torsion
[ 10718 10713 10712 10709 ] final -171.24 input   66.30 | X-H torsion
[ 10763 10752 10751 10750 ] final  -35.45 input  -60.55 | X-H torsion
[ 11005 11000 10999 10996 ] final  -80.45 input  -57.11 | X-H torsion

> <Gold.Protein.ActiveResidues>
 VAL166  LYS551  ARG553  GLY616  TRP617  ASP618  TYR619  PRO620  LYS621  CYS622 
 ASP623  PHE694  ASN695  SER759  ASP760  ASP761  ALA762  ILE779  LEU786  VAL792 
 PHE793  MET794  SER795  GLU796  ALA797  LYS798  CYS799  TRP800  GLU811  SER814 

> <Gold.Protein.RotatedAtoms>
  151.2835  135.0721  159.9177 H   0  0  0  0  0  0  0  0  0  0  0  0  # atno 6907 bound_to 6896
  152.5330  134.0006  159.7903 H   0  0  0  0  0  0  0  0  0  0  0  0  # atno 6908 bound_to 6896
  151.0264  133.5779  159.2696 H   0  0  0  0  0  0  0  0  0  0  0  0  # atno 6909 bound_to 6896
  146.2435  140.1121  142.8343 H   0  0  0  0  0  0  0  0  0  0  0  0  # atno 7974 bound_to 7965
  154.4226  140.1773  156.1513 H   0  0  0  0  0  0  0  0  0  0  0  0  # atno 8008 bound_to 7997
  155.9912  140.3368  155.6731 H   0  0  0  0  0  0  0  0  0  0  0  0  # atno 8009 bound_to 7997
  155.6369  140.0676  157.2622 H   0  0  0  0  0  0  0  0  0  0  0  0  # atno 8010 bound_to 7997
  139.4881  144.4288  151.9096 H   0  0  0  0  0  0  0  0  0  0  0  0  # atno 10167 bound_to 10162
  156.7379  130.9331  151.3108 H   0  0  0  0  0  0  0  0  0  0  0  0  # atno 10718 bound_to 10713
  153.8635  135.6838  153.4780 H   0  0  0  0  0  0  0  0  0  0  0  0  # atno 10763 bound_to 10752
  153.1328  135.4690  154.9374 H   0  0  0  0  0  0  0  0  0  0  0  0  # atno 10764 bound_to 10752
  154.7748  135.3250  154.8065 H   0  0  0  0  0  0  0  0  0  0  0  0  # atno 10765 bound_to 10752
  141.1668  133.7151  156.8275 H   0  0  0  0  0  0  0  0  0  0  0  0  # atno 11005 bound_to 11000
  145.0478  140.8995  143.5014 LP  0  0  0  0  0  0  0  0  0  0  0  0  # atno 17320 bound_to 7965
  145.1213  139.2691  143.5587 LP  0  0  0  0  0  0  0  0  0  0  0  0  # atno 17321 bound_to 7965
  140.3735  144.2825  150.5917 LP  0  0  0  0  0  0  0  0  0  0  0  0  # atno 17342 bound_to 10162
  140.5297  143.2246  151.8258 LP  0  0  0  0  0  0  0  0  0  0  0  0  # atno 17343 bound_to 10162
  157.6831  130.9159  150.0317 LP  0  0  0  0  0  0  0  0  0  0  0  0  # atno 17370 bound_to 10713
  156.1484  130.3642  149.9475 LP  0  0  0  0  0  0  0  0  0  0  0  0  # atno 17371 bound_to 10713
  140.2075  134.8852  157.3238 LP  0  0  0  0  0  0  0  0  0  0  0  0  # atno 17394 bound_to 11000
  140.2122  134.4125  155.7607 LP  0  0  0  0  0  0  0  0  0  0  0  0  # atno 17395 bound_to 11000

$$$$
