AV-unprocessed.smi:759|AV-procd|sdf|3625|dock4
  -GOLD-   22720 1 23D 1   1.00000     0.00000
 Structure written by MMmdl.
 23 24  0  0  0  0  0  0  0  0  3 V2000
  151.2125  138.0308  154.0641 C   0  0  0  0  0  0  0  0  0  0  0  0
  152.0445  137.4108  154.9117 N   0  5  0  0  0  0  0  0  0  0  0  0
  152.3045  138.2401  155.9041 N   0  0  0  0  0  0  0  0  0  0  0  0
  151.6172  139.3666  155.6366 C   0  0  0  0  0  0  0  0  0  0  0  0
  151.6280  140.6052  156.5105 C   0  0  2  0  0  0  0  0  0  0  0  0
  151.3096  140.2815  157.9817 C   0  0  0  0  0  0  0  0  0  0  0  0
  151.3071  141.5662  158.8245 C   0  0  0  0  0  0  0  0  0  0  0  0
  150.3639  142.6194  158.2187 C   0  0  0  0  0  0  0  0  0  0  0  0
  150.7304  142.9049  156.8141 N   0  3  0  0  0  0  0  0  0  0  0  0
  150.7009  141.7022  155.9535 C   0  0  0  0  0  0  0  0  0  0  0  0
  150.9292  139.2527  154.4894 N   0  0  0  0  0  0  0  0  0  0  0  0
  150.8597  137.5398  153.1654 H   0  0  0  0  0  0  0  0  0  0  0  0
  152.6474  140.9939  156.4782 H   0  0  0  0  0  0  0  0  0  0  0  0
  150.3332  139.7998  158.0519 H   0  0  0  0  0  0  0  0  0  0  0  0
  152.0367  139.5726  158.3795 H   0  0  0  0  0  0  0  0  0  0  0  0
  151.0065  141.3397  159.8479 H   0  0  0  0  0  0  0  0  0  0  0  0
  152.3193  141.9689  158.8812 H   0  0  0  0  0  0  0  0  0  0  0  0
  149.3307  142.2713  158.2570 H   0  0  0  0  0  0  0  0  0  0  0  0
  150.4105  143.5445  158.7935 H   0  0  0  0  0  0  0  0  0  0  0  0
  150.0896  143.5896  156.4391 H   0  0  0  0  0  0  0  0  0  0  0  0
  151.0054  141.9814  154.9444 H   0  0  0  0  0  0  0  0  0  0  0  0
  149.6743  141.3384  155.8879 H   0  0  0  0  0  0  0  0  0  0  0  0
  151.6649  143.2876  156.7965 H   0  0  0  0  0  0  0  0  0  0  0  0
  1 11  2  0  0  0  0
  1 12  1  0  0  0  0
  1  2  1  0  0  0  0
  2  3  1  0  0  0  0
  3  4  2  0  0  0  0
  4 11  1  0  0  0  0
  4  5  1  0  0  0  0
  5 10  1  0  0  0  0
  5  6  1  0  0  0  0
  5 13  1  0  0  0  0
  6  7  1  0  0  0  0
  6 14  1  0  0  0  0
  6 15  1  0  0  0  0
  7  8  1  0  0  0  0
  7 16  1  0  0  0  0
  7 17  1  0  0  0  0
  8  9  1  0  0  0  0
  8 18  1  0  0  0  0
  8 19  1  0  0  0  0
  9 10  1  0  0  0  0
  9 20  1  0  0  0  0
  9 23  1  0  0  0  0
 10 21  1  0  0  0  0
 10 22  1  0  0  0  0
M  CHG  1   2  -1
M  CHG  1   9   1
M  END
> <s_m_source_file>
AV-unprocessed.smi

> <i_m_source_file_index>
759

> <i_lp_mmshare_version>
43012

> <i_f3d_flags>
0

> <s_epik_input>
W25IXTFbY0hdbm5jMVtDQEBIXTJbQ0gyXVtDSDJdW0NIMl1bTkhdW0NIMl0y

> <s_epik_cmdline>
J2VwaWtfcHl0aG9uJywgJy1waCcsICc3LjAnLCAnLXRuJywgJzgnLCAnLW1hJywgJzIwMCcsICctbWV0YWxfYmluZGluZycsICctaW1hZScsICc8aW5maWxlLm1hZT4nLCAnLW9tYWUnLCAnPG91dGZpbGUubWFlPic=

> <r_lp_tautomer_probability>
0.948284

> <r_epik_Ionization_Penalty>
7.12535

> <r_epik_Ionization_Penalty_Charging>
7.12535

> <r_epik_Ionization_Penalty_Neutral>
7.15677e-14

> <r_epik_State_Penalty>
3.13859

> <r_epik_Charging_Adjusted_Penalty>
10.2639

> <i_epik_Tot_Q>
0

> <i_epik_Tot_abs_Q>
2

> <r_epik_Metal_State_Penalty>
0.603007

> <b_epik_Metal_Only>
1

> <s_lp_Force_Field>
OPLS_2005

> <r_lp_Energy>
6.41651

> <b_lp_Chiralities_Consistent>
1

> <s_lp_Variant>
AV-unprocessed.smi:759-7

> <Gold.Version>
5.8.1

> <Gold.Id.Protein>
6NUR|6NUR_protein|mol2

> <Gold.PLP.Fitness>
38.0306

> <Gold.PLP.PLP>
-20.7243

> <Gold.PLP.part.hbond>
-3.0000

> <Gold.PLP.part.metal>
0.0000

> <Gold.PLP.part.buried>
-4.7637

> <Gold.PLP.part.nonpolar>
-13.3759

> <Gold.PLP.part.repulsive>
0.2584

> <Gold.PLP.ligand.clash>
0.0000

> <Gold.PLP.ligand.torsion>
0.0779

> <Gold.PLP.Chemscore.Hbond>
4.7280

> <Gold.PLP.Chemscore.CHOScore>
1.0789

> <Gold.PLP.Chemscore.Metal>
0.0000

> <Gold.Chemscore.Hbonds>
donor molecule, donor type, donor heavy atom, donor atom, acceptor molecule, acceptor atom, score
      L1  H     9    20       P1  8028  2.00
      P1  H  7989  7998       L1    11  1.00
      P1  H 10752 10765       L1     2  1.70
      L1  C     1    12       P1  7948  0.19
      L1  C     1    12       P1  7949  0.89

> <Gold.PLP.Chemscore.Internal.Correction>
0.0414

> <Gold.Rescore>
     Score         DG    S(hbond)    S(metal)    S(lipo)     H(rot)  DE(clash)    DE(int)     intcor
     14.80     -14.96       2.52        0.00      31.07       1.00       0.04       0.13       ----

> <Gold.Chemscore.Fitness>
14.7969

> <Gold.Chemscore.DG>
-14.9605

> <Gold.Chemscore.ZeroCoef>
-5.4800

> <Gold.Chemscore.Hbond>
2.5167

> <Gold.Chemscore.Metal>
0.0000

> <Gold.Chemscore.Lipo>
31.0656

> <Gold.Chemscore.Internal_Hbond>
0.0000

> <Gold.Chemscore.DEClash>
0.0365

> <Gold.Chemscore.DEInternal>
0.1272

> <Gold.Chemscore.Rot>
1.0000

> <Gold.Chemscore.Internal.Correction>
   9.000000E+99

> <Gold.Chemscore.Hbonds>
donor molecule, donor type, donor heavy atom, donor atom, acceptor molecule, acceptor atom, score
      L1  H     9    20       P1  8028  1.00
      P1  H  7989  7998       L1    11  0.24
      P1  H 10752 10765       L1     2  0.77

> <Gold.Chemscore.Hbond.Weighted>
-8.4059

> <Gold.Chemscore.Metal.Weighted>
-0.0000

> <Gold.Chemscore.Lipo.Weighted>
-3.6347

> <Gold.Chemscore.Internal_Hbond.Weighted>
0.0000

> <Gold.Chemscore.DEClash.Weighted>
0.0365

> <Gold.Chemscore.DEInternal.Weighted>
0.1272

> <Gold.Chemscore.Rot.Weighted>
2.5600

> <Gold.Chemscore.Internal.Correction.Weighted>
   9.000000E+99

> <Gold.Protein.RotatedTorsions>
[ 6907 6896 6895 6894 ] final  147.49 input  -60.11 | X-H torsion
[ 7974 7965 7964 7962 ] final  -52.29 input  175.53 | X-H torsion
[ 8008 7997 7996 7995 ] final   85.97 input   59.86 | X-H torsion
[ 10167 10162 10161 10158 ] final -111.92 input  -65.29 | X-H torsion
[ 10718 10713 10712 10709 ] final -166.88 input   66.30 | X-H torsion
[ 10763 10752 10751 10750 ] final  175.02 input  -60.55 | X-H torsion
[ 11005 11000 10999 10996 ] final   13.22 input  -57.11 | X-H torsion

> <Gold.Protein.ActiveResidues>
 VAL166  LYS551  ARG553  GLY616  TRP617  ASP618  TYR619  PRO620  LYS621  CYS622 
 ASP623  PHE694  ASN695  SER759  ASP760  ASP761  ALA762  ILE779  LEU786  VAL792 
 PHE793  MET794  SER795  GLU796  ALA797  LYS798  CYS799  TRP800  GLU811  SER814 

> <Gold.Protein.RotatedAtoms>
  152.1541  133.4540  159.4827 H   0  0  0  0  0  0  0  0  0  0  0  0  # atno 6907 bound_to 6896
  150.6899  134.2153  159.4384 H   0  0  0  0  0  0  0  0  0  0  0  0  # atno 6908 bound_to 6896
  152.0051  134.9907  160.0617 H   0  0  0  0  0  0  0  0  0  0  0  0  # atno 6909 bound_to 6896
  145.9096  140.7926  142.9702 H   0  0  0  0  0  0  0  0  0  0  0  0  # atno 7974 bound_to 7965
  155.9569  140.3396  155.6456 H   0  0  0  0  0  0  0  0  0  0  0  0  # atno 8008 bound_to 7997
  155.6849  140.0742  157.2489 H   0  0  0  0  0  0  0  0  0  0  0  0  # atno 8009 bound_to 7997
  154.4134  140.1668  156.2010 H   0  0  0  0  0  0  0  0  0  0  0  0  # atno 8010 bound_to 7997
  140.1284  143.4382  152.1644 H   0  0  0  0  0  0  0  0  0  0  0  0  # atno 10167 bound_to 10162
  156.6743  130.9096  151.3048 H   0  0  0  0  0  0  0  0  0  0  0  0  # atno 10718 bound_to 10713
  154.4619  135.2768  155.1707 H   0  0  0  0  0  0  0  0  0  0  0  0  # atno 10763 bound_to 10752
  154.3491  135.6154  153.5637 H   0  0  0  0  0  0  0  0  0  0  0  0  # atno 10764 bound_to 10752
  152.9855  135.5807  154.4983 H   0  0  0  0  0  0  0  0  0  0  0  0  # atno 10765 bound_to 10752
  140.4832  134.0914  155.7755 H   0  0  0  0  0  0  0  0  0  0  0  0  # atno 11005 bound_to 11000
  144.6742  140.1805  143.7406 LP  0  0  0  0  0  0  0  0  0  0  0  0  # atno 17320 bound_to 7965
  145.8688  139.2261  143.1673 LP  0  0  0  0  0  0  0  0  0  0  0  0  # atno 17321 bound_to 7965
  139.5532  144.7353  151.4371 LP  0  0  0  0  0  0  0  0  0  0  0  0  # atno 17342 bound_to 10162
  140.6831  143.8035  150.7149 LP  0  0  0  0  0  0  0  0  0  0  0  0  # atno 17343 bound_to 10162
  157.7066  130.9392  150.0951 LP  0  0  0  0  0  0  0  0  0  0  0  0  # atno 17370 bound_to 10713
  156.1915  130.3655  149.8904 LP  0  0  0  0  0  0  0  0  0  0  0  0  # atno 17371 bound_to 10713
  141.1521  133.8950  157.2072 LP  0  0  0  0  0  0  0  0  0  0  0  0  # atno 17394 bound_to 11000
  139.9814  135.0097  156.9758 LP  0  0  0  0  0  0  0  0  0  0  0  0  # atno 17395 bound_to 11000

$$$$
