AV-unprocessed.smi:1301|AV-procd|sdf|5421|dock3
  -GOLD-   22720 4583D 1   1.00000     0.00000
 Structure written by MMmdl.
 45 46  0  0  0  0  0  0  0  0  2 V2000
  152.0405  143.4798  158.3898 C   0  0  0  0  0  0  0  0  0  0  0  0
  151.0106  142.7274  157.6194 C   0  0  0  0  0  0  0  0  0  0  0  0
  150.9221  142.3464  156.3099 C   0  0  0  0  0  0  0  0  0  0  0  0
  149.6775  141.6642  156.2590 C   0  0  0  0  0  0  0  0  0  0  0  0
  149.2039  141.1014  155.0463 N   0  0  0  0  0  0  0  0  0  0  0  0
  148.1090  140.3421  154.8701 C   0  0  0  0  0  0  0  0  0  0  0  0
  147.3241  140.0148  155.7606 O   0  0  0  0  0  0  0  0  0  0  0  0
  147.9697  139.9785  153.5863 N   0  0  0  0  0  0  0  0  0  0  0  0
  146.8884  139.1564  153.0480 C   0  0  2  0  0  0  0  0  0  0  0  0
  146.8663  137.7876  153.7456 C   0  0  0  0  0  0  0  0  0  0  0  0
  145.7973  136.8695  153.1295 C   0  0  0  0  0  0  0  0  0  0  0  0
  146.0016  136.7087  151.6665 N   0  3  1  0  0  0  0  0  0  0  0  0
  145.0612  135.7233  151.0730 C   0  0  0  0  0  0  0  0  0  0  0  0
  145.2688  134.2914  151.6116 C   0  0  0  0  0  0  0  0  0  0  0  0
  146.6674  133.7745  151.2435 C   0  0  0  0  0  0  0  0  0  0  0  0
  144.1875  133.3249  151.0995 C   0  0  0  0  0  0  0  0  0  0  0  0
  145.9963  138.0211  150.9659 C   0  0  0  0  0  0  0  0  0  0  0  0
  147.0730  138.9603  151.5351 C   0  0  0  0  0  0  0  0  0  0  0  0
  149.0632  141.6300  157.4316 N   0  0  0  0  0  0  0  0  0  0  0  0
  149.9144  142.3113  158.3096 O   0  0  0  0  0  0  0  0  0  0  0  0
  152.8274  143.8477  157.7312 H   0  0  0  0  0  0  0  0  0  0  0  0
  152.5011  142.8415  159.1441 H   0  0  0  0  0  0  0  0  0  0  0  0
  151.5955  144.3363  158.8961 H   0  0  0  0  0  0  0  0  0  0  0  0
  151.6345  142.5296  155.5193 H   0  0  0  0  0  0  0  0  0  0  0  0
  149.7586  141.2993  154.2268 H   0  0  0  0  0  0  0  0  0  0  0  0
  148.6677  140.2958  152.9293 H   0  0  0  0  0  0  0  0  0  0  0  0
  145.9229  139.6378  153.2143 H   0  0  0  0  0  0  0  0  0  0  0  0
  147.8441  137.3106  153.6631 H   0  0  0  0  0  0  0  0  0  0  0  0
  146.6729  137.9141  154.8115 H   0  0  0  0  0  0  0  0  0  0  0  0
  145.8440  135.8950  153.6173 H   0  0  0  0  0  0  0  0  0  0  0  0
  144.8004  137.2717  153.3173 H   0  0  0  0  0  0  0  0  0  0  0  0
  144.0337  136.0201  151.2892 H   0  0  0  0  0  0  0  0  0  0  0  0
  145.1580  135.7455  149.9864 H   0  0  0  0  0  0  0  0  0  0  0  0
  145.2164  134.3052  152.6999 H   0  0  0  0  0  0  0  0  0  0  0  0
  146.8005  133.7225  150.1623 H   0  0  0  0  0  0  0  0  0  0  0  0
  146.8372  132.7759  151.6472 H   0  0  0  0  0  0  0  0  0  0  0  0
  147.4457  134.4249  151.6435 H   0  0  0  0  0  0  0  0  0  0  0  0
  144.1855  133.2718  150.0103 H   0  0  0  0  0  0  0  0  0  0  0  0
  143.1917  133.6324  151.4199 H   0  0  0  0  0  0  0  0  0  0  0  0
  144.3521  132.3162  151.4797 H   0  0  0  0  0  0  0  0  0  0  0  0
  146.1757  137.8847  149.9003 H   0  0  0  0  0  0  0  0  0  0  0  0
  145.0119  138.4824  151.0618 H   0  0  0  0  0  0  0  0  0  0  0  0
  147.0288  139.9233  151.0248 H   0  0  0  0  0  0  0  0  0  0  0  0
  148.0615  138.5461  151.3296 H   0  0  0  0  0  0  0  0  0  0  0  0
  146.9265  136.3178  151.5561 H   0  0  0  0  0  0  0  0  0  0  0  0
  1  2  1  0  0  0  0
  1 21  1  0  0  0  0
  1 22  1  0  0  0  0
  1 23  1  0  0  0  0
  2 20  1  0  0  0  0
  2  3  2  0  0  0  0
  3  4  1  0  0  0  0
  3 24  1  0  0  0  0
  4  5  1  0  0  0  0
  4 19  2  0  0  0  0
  5  6  1  0  0  0  0
  5 25  1  0  0  0  0
  6  7  2  0  0  0  0
  6  8  1  0  0  0  0
  8  9  1  0  0  0  0
  8 26  1  0  0  0  0
  9 18  1  0  0  0  0
  9 10  1  0  0  0  0
  9 27  1  0  0  0  0
 10 11  1  0  0  0  0
 10 28  1  0  0  0  0
 10 29  1  0  0  0  0
 11 12  1  0  0  0  0
 11 30  1  0  0  0  0
 11 31  1  0  0  0  0
 12 13  1  0  0  0  0
 12 17  1  0  0  0  0
 12 45  1  0  0  0  0
 13 14  1  0  0  0  0
 13 32  1  0  0  0  0
 13 33  1  0  0  0  0
 14 15  1  0  0  0  0
 14 16  1  0  0  0  0
 14 34  1  0  0  0  0
 15 35  1  0  0  0  0
 15 36  1  0  0  0  0
 15 37  1  0  0  0  0
 16 38  1  0  0  0  0
 16 39  1  0  0  0  0
 16 40  1  0  0  0  0
 17 18  1  0  0  0  0
 17 41  1  0  0  0  0
 17 42  1  0  0  0  0
 18 43  1  0  0  0  0
 18 44  1  0  0  0  0
 19 20  1  0  0  0  0
M  CHG  1  12   1
M  END
> <s_m_source_file>
AV-unprocessed.smi

> <i_m_source_file_index>
1301

> <i_lp_mmshare_version>
43012

> <i_f3d_flags>
0

> <s_epik_input>
W0NIM11jMVtjSF1jKG5vMSlbTkhdQyg9TylbTkhdW0NIXTJbQ0gyXVtDSDJdTihbQ0gyXVtDSDJdMilbQ0gyXVtDSF0oW0NIM10pW0NIM10=

> <s_epik_cmdline>
J2VwaWtfcHl0aG9uJywgJy1waCcsICc3LjAnLCAnLXRuJywgJzgnLCAnLW1hJywgJzIwMCcsICctbWV0YWxfYmluZGluZycsICctaW1hZScsICc8aW5maWxlLm1hZT4nLCAnLW9tYWUnLCAnPG91dGZpbGUubWFlPic=

> <r_epik_Ionization_Penalty>
0.0020743

> <r_epik_Ionization_Penalty_Charging>
0.0020412

> <r_epik_Ionization_Penalty_Neutral>
3.31029e-05

> <r_epik_State_Penalty>
0.00139626

> <r_epik_Charging_Adjusted_Penalty>
0.00343746

> <i_epik_Tot_Q>
1

> <i_epik_Tot_abs_Q>
1

> <r_epik_Metal_State_Penalty>
0.0141509

> <b_epik_Metal_Only>
0

> <s_lp_Force_Field>
OPLS_2005

> <r_lp_Energy>
17.3221

> <b_lp_Chiralities_Consistent>
1

> <s_lp_Variant>
AV-unprocessed.smi:1301-1

> <Gold.Version>
5.8.1

> <Gold.Id.Protein>
6NUR|6NUR_protein|mol2

> <Gold.PLP.Fitness>
37.6097

> <Gold.PLP.PLP>
-28.7631

> <Gold.PLP.part.hbond>
-2.0000

> <Gold.PLP.part.metal>
0.0000

> <Gold.PLP.part.buried>
3.0586

> <Gold.PLP.part.nonpolar>
-30.5451

> <Gold.PLP.part.repulsive>
0.4301

> <Gold.PLP.ligand.clash>
0.0000

> <Gold.PLP.ligand.torsion>
0.0581

> <Gold.PLP.Chemscore.Hbond>
2.9760

> <Gold.PLP.Chemscore.CHOScore>
0.0000

> <Gold.PLP.Chemscore.Metal>
0.0000

> <Gold.Chemscore.Hbonds>
donor molecule, donor type, donor heavy atom, donor atom, acceptor molecule, acceptor atom, score
      L1  H     8    26       P1  7957  0.96
      L1  H    12    45       P1  7948  2.00

> <Gold.PLP.Chemscore.Internal.Correction>
0.0349

> <Gold.Rescore>
     Score         DG    S(hbond)    S(metal)    S(lipo)     H(rot)  DE(clash)    DE(int)     intcor
     13.54     -17.67       1.74        0.00      85.72       1.43       2.82       1.31       ----

> <Gold.Chemscore.Fitness>
13.5375

> <Gold.Chemscore.DG>
-17.6724

> <Gold.Chemscore.ZeroCoef>
-5.4800

> <Gold.Chemscore.Hbond>
1.7436

> <Gold.Chemscore.Metal>
0.0000

> <Gold.Chemscore.Lipo>
85.7207

> <Gold.Chemscore.Internal_Hbond>
0.0000

> <Gold.Chemscore.DEClash>
2.8223

> <Gold.Chemscore.DEInternal>
1.3125

> <Gold.Chemscore.Rot>
1.4298

> <Gold.Chemscore.Internal.Correction>
   9.000000E+99

> <Gold.Chemscore.Hbonds>
donor molecule, donor type, donor heavy atom, donor atom, acceptor molecule, acceptor atom, score
      L1  H     8    26       P1  7957  0.87
      L1  H    12    45       P1  7948  0.93

> <Gold.Chemscore.Hbond.Weighted>
-5.8235

> <Gold.Chemscore.Metal.Weighted>
-0.0000

> <Gold.Chemscore.Lipo.Weighted>
-10.0293

> <Gold.Chemscore.Internal_Hbond.Weighted>
0.0000

> <Gold.Chemscore.DEClash.Weighted>
2.8223

> <Gold.Chemscore.DEInternal.Weighted>
1.3125

> <Gold.Chemscore.Rot.Weighted>
3.6604

> <Gold.Chemscore.Internal.Correction.Weighted>
   9.000000E+99

> <Gold.Protein.RotatedTorsions>
[ 6907 6896 6895 6894 ] final -134.51 input  -60.11 | X-H torsion
[ 7974 7965 7964 7962 ] final  158.22 input  175.53 | X-H torsion
[ 8008 7997 7996 7995 ] final  -55.42 input   59.86 | X-H torsion
[ 10167 10162 10161 10158 ] final  155.28 input  -65.29 | X-H torsion
[ 10718 10713 10712 10709 ] final  -81.20 input   66.30 | X-H torsion
[ 10763 10752 10751 10750 ] final  -11.96 input  -60.55 | X-H torsion
[ 11005 11000 10999 10996 ] final  -60.05 input  -57.11 | X-H torsion

> <Gold.Protein.ActiveResidues>
 VAL166  LYS551  ARG553  GLY616  TRP617  ASP618  TYR619  PRO620  LYS621  CYS622 
 ASP623  PHE694  ASN695  SER759  ASP760  ASP761  ALA762  ILE779  LEU786  VAL792 
 PHE793  MET794  SER795  GLU796  ALA797  LYS798  CYS799  TRP800  GLU811  SER814 

> <Gold.Protein.RotatedAtoms>
  150.9867  133.6190  159.2714 H   0  0  0  0  0  0  0  0  0  0  0  0  # atno 6907 bound_to 6896
  151.3426  135.0866  159.9386 H   0  0  0  0  0  0  0  0  0  0  0  0  # atno 6908 bound_to 6896
  152.5233  133.9475  159.7710 H   0  0  0  0  0  0  0  0  0  0  0  0  # atno 6909 bound_to 6896
  144.7858  139.7448  143.6241 H   0  0  0  0  0  0  0  0  0  0  0  0  # atno 7974 bound_to 7965
  154.4194  140.1153  156.5474 H   0  0  0  0  0  0  0  0  0  0  0  0  # atno 8008 bound_to 7997
  155.6445  140.3496  155.4707 H   0  0  0  0  0  0  0  0  0  0  0  0  # atno 8009 bound_to 7997
  155.9843  140.1166  157.0687 H   0  0  0  0  0  0  0  0  0  0  0  0  # atno 8010 bound_to 7997
  139.4821  144.5112  151.8021 H   0  0  0  0  0  0  0  0  0  0  0  0  # atno 10167 bound_to 10162
  156.0055  130.4596  150.3916 H   0  0  0  0  0  0  0  0  0  0  0  0  # atno 10718 bound_to 10713
  153.4914  135.7017  153.5882 H   0  0  0  0  0  0  0  0  0  0  0  0  # atno 10763 bound_to 10752
  153.4053  135.3862  155.2014 H   0  0  0  0  0  0  0  0  0  0  0  0  # atno 10764 bound_to 10752
  154.8716  135.3891  154.4375 H   0  0  0  0  0  0  0  0  0  0  0  0  # atno 10765 bound_to 10752
  141.1272  133.6620  156.5164 H   0  0  0  0  0  0  0  0  0  0  0  0  # atno 11005 bound_to 11000
  146.2089  139.5432  142.9694 LP  0  0  0  0  0  0  0  0  0  0  0  0  # atno 17320 bound_to 7965
  145.5925  141.0367  143.2062 LP  0  0  0  0  0  0  0  0  0  0  0  0  # atno 17321 bound_to 7965
  140.4616  144.1714  150.5907 LP  0  0  0  0  0  0  0  0  0  0  0  0  # atno 17342 bound_to 10162
  140.4479  143.2499  151.9387 LP  0  0  0  0  0  0  0  0  0  0  0  0  # atno 17343 bound_to 10162
  157.1990  131.0433  151.2660 LP  0  0  0  0  0  0  0  0  0  0  0  0  # atno 17370 bound_to 10713
  157.3993  130.7324  149.6755 LP  0  0  0  0  0  0  0  0  0  0  0  0  # atno 17371 bound_to 10713
  140.4327  134.7087  157.4950 LP  0  0  0  0  0  0  0  0  0  0  0  0  # atno 17394 bound_to 11000
  140.0282  134.6445  155.9143 LP  0  0  0  0  0  0  0  0  0  0  0  0  # atno 17395 bound_to 11000

$$$$
