AV-unprocessed.smi:21|AV-procd|sdf|165|dock9
  -GOLD-   2262015413D 1   1.00000     0.00000
 Structure written by MMmdl.
 61 64  0  0  0  0  0  0  0  0  1 V2000
  143.3839  133.0082  150.6730 C   0  0  0  0  0  0  0  0  0  0  0  0
  143.6061  134.2325  151.3548 O   0  0  0  0  0  0  0  0  0  0  0  0
  144.9331  134.7228  151.2188 C   0  0  1  0  0  0  0  0  0  0  0  0
  145.0811  136.1428  151.7915 C   0  0  0  0  0  0  0  0  0  0  0  0
  146.3008  136.0480  152.7152 C   0  0  1  0  0  0  0  0  0  0  0  0
  146.3501  137.1458  153.8012 C   0  0  0  0  0  0  0  0  0  0  0  0
  146.9283  138.4000  153.3169 N   0  0  0  0  0  0  0  0  0  0  0  0
  146.4480  138.9175  152.0363 C   0  0  0  0  0  0  0  0  0  0  0  0
  148.1589  138.7958  153.7548 C   0  0  0  0  0  0  0  0  0  0  0  0
  149.2355  138.0184  153.4532 N   0  0  0  0  0  0  0  0  0  0  0  0
  150.4639  138.3579  153.8518 C   0  0  0  0  0  0  0  0  0  0  0  0
  150.8466  139.4258  154.5506 N   0  0  0  0  0  0  0  0  0  0  0  0
  149.7824  140.2220  154.8510 C   0  0  0  0  0  0  0  0  0  0  0  0
  148.4200  139.9883  154.4993 C   0  0  0  0  0  0  0  0  0  0  0  0
  147.6403  141.0373  154.9766 N   0  0  0  0  0  0  0  0  0  0  0  0
  148.4813  141.8280  155.5825 C   0  0  0  0  0  0  0  0  0  0  0  0
  149.7925  141.4175  155.5467 N   0  0  0  0  0  0  0  0  0  0  0  0
  150.9373  142.0975  156.1258 C   0  0  0  0  0  0  0  0  0  0  0  0
  150.9615  142.0161  157.6735 C   0  0  1  0  0  0  0  0  0  0  0  0
  151.3084  140.5880  158.1551 C   0  0  0  0  0  0  0  0  0  0  0  0
  152.5815  140.1864  157.6941 O   0  0  0  0  0  0  0  0  0  0  0  0
  151.8742  143.0871  158.3319 C   0  0  1  0  0  0  0  0  0  0  0  0
  151.4620  144.5415  158.1551 C   0  0  0  0  0  0  0  0  0  0  0  0
  152.2111  145.2090  159.3000 C   0  0  0  0  0  0  0  0  0  0  0  0
  152.0633  144.2883  160.3706 O   0  0  0  0  0  0  0  0  0  0  0  0
  152.0625  142.9598  159.8530 C   0  0  0  0  0  0  0  0  0  0  0  0
  146.2453  134.6904  153.2307 N   0  0  0  0  0  0  0  0  0  0  0  0
  147.4822  134.2430  153.8567 C   0  0  0  0  0  0  0  0  0  0  0  0
  145.8899  133.8829  152.0768 C   0  0  0  0  0  0  0  0  0  0  0  0
  145.2531  134.6776  150.1763 H   0  0  0  0  0  0  0  0  0  0  0  0
  147.1890  136.1339  152.0874 H   0  0  0  0  0  0  0  0  0  0  0  0
  142.3522  132.6905  150.8228 H   0  0  0  0  0  0  0  0  0  0  0  0
  144.0357  132.2213  151.0547 H   0  0  0  0  0  0  0  0  0  0  0  0
  143.5494  133.1081  149.5998 H   0  0  0  0  0  0  0  0  0  0  0  0
  145.2022  136.8984  151.0147 H   0  0  0  0  0  0  0  0  0  0  0  0
  144.1940  136.3965  152.3687 H   0  0  0  0  0  0  0  0  0  0  0  0
  145.3662  137.2817  154.2442 H   0  0  0  0  0  0  0  0  0  0  0  0
  146.9812  136.8069  154.6229 H   0  0  0  0  0  0  0  0  0  0  0  0
  146.4776  140.0077  152.0251 H   0  0  0  0  0  0  0  0  0  0  0  0
  145.4197  138.6144  151.8428 H   0  0  0  0  0  0  0  0  0  0  0  0
  147.0613  138.5441  151.2154 H   0  0  0  0  0  0  0  0  0  0  0  0
  151.2527  137.6762  153.5692 H   0  0  0  0  0  0  0  0  0  0  0  0
  148.1674  142.7422  156.0651 H   0  0  0  0  0  0  0  0  0  0  0  0
  151.8411  141.6575  155.7040 H   0  0  0  0  0  0  0  0  0  0  0  0
  150.9102  143.1307  155.7815 H   0  0  0  0  0  0  0  0  0  0  0  0
  149.9474  142.2267  158.0178 H   0  0  0  0  0  0  0  0  0  0  0  0
  151.3329  140.5359  159.2431 H   0  0  0  0  0  0  0  0  0  0  0  0
  150.5590  139.8709  157.8193 H   0  0  0  0  0  0  0  0  0  0  0  0
  152.6784  139.2587  157.8468 H   0  0  0  0  0  0  0  0  0  0  0  0
  152.8735  142.9930  157.9047 H   0  0  0  0  0  0  0  0  0  0  0  0
  151.7321  144.9476  157.1799 H   0  0  0  0  0  0  0  0  0  0  0  0
  150.3913  144.6807  158.2998 H   0  0  0  0  0  0  0  0  0  0  0  0
  153.2697  145.3210  159.0594 H   0  0  0  0  0  0  0  0  0  0  0  0
  151.8087  146.1895  159.5546 H   0  0  0  0  0  0  0  0  0  0  0  0
  151.2717  142.3905  160.3395 H   0  0  0  0  0  0  0  0  0  0  0  0
  153.0070  142.4664  160.0854 H   0  0  0  0  0  0  0  0  0  0  0  0
  147.3957  133.2036  154.1749 H   0  0  0  0  0  0  0  0  0  0  0  0
  147.7109  134.8381  154.7406 H   0  0  0  0  0  0  0  0  0  0  0  0
  148.3247  134.3178  153.1680 H   0  0  0  0  0  0  0  0  0  0  0  0
  145.4568  132.9284  152.3776 H   0  0  0  0  0  0  0  0  0  0  0  0
  146.7831  133.6635  151.4890 H   0  0  0  0  0  0  0  0  0  0  0  0
  1  2  1  0  0  0  0
  1 32  1  0  0  0  0
  1 33  1  0  0  0  0
  1 34  1  0  0  0  0
  2  3  1  0  0  0  0
  3 30  1  0  0  0  0
  3 29  1  0  0  0  0
  3  4  1  0  0  0  0
  4  5  1  0  0  0  0
  4 35  1  0  0  0  0
  4 36  1  0  0  0  0
  5 31  1  0  0  0  0
  5  6  1  0  0  0  0
  5 27  1  0  0  0  0
  6  7  1  0  0  0  0
  6 37  1  0  0  0  0
  6 38  1  0  0  0  0
  7  8  1  0  0  0  0
  7  9  1  0  0  0  0
  8 39  1  0  0  0  0
  8 40  1  0  0  0  0
  8 41  1  0  0  0  0
  9 14  1  0  0  0  0
  9 10  2  0  0  0  0
 10 11  1  0  0  0  0
 11 12  2  0  0  0  0
 11 42  1  0  0  0  0
 12 13  1  0  0  0  0
 13 17  1  0  0  0  0
 13 14  2  0  0  0  0
 14 15  1  0  0  0  0
 15 16  2  0  0  0  0
 16 17  1  0  0  0  0
 16 43  1  0  0  0  0
 17 18  1  0  0  0  0
 18 19  1  0  0  0  0
 18 44  1  0  0  0  0
 18 45  1  0  0  0  0
 19 20  1  0  0  0  0
 19 22  1  0  0  0  0
 19 46  1  0  0  0  0
 20 21  1  0  0  0  0
 20 47  1  0  0  0  0
 20 48  1  0  0  0  0
 21 49  1  0  0  0  0
 22 26  1  0  0  0  0
 22 23  1  0  0  0  0
 22 50  1  0  0  0  0
 23 24  1  0  0  0  0
 23 51  1  0  0  0  0
 23 52  1  0  0  0  0
 24 25  1  0  0  0  0
 24 53  1  0  0  0  0
 24 54  1  0  0  0  0
 25 26  1  0  0  0  0
 26 55  1  0  0  0  0
 26 56  1  0  0  0  0
 27 28  1  0  0  0  0
 27 29  1  0  0  0  0
 28 57  1  0  0  0  0
 28 58  1  0  0  0  0
 28 59  1  0  0  0  0
 29 60  1  0  0  0  0
 29 61  1  0  0  0  0
M  END
> <s_m_source_file>
AV-unprocessed.smi

> <i_m_source_file_index>
21

> <i_lp_mmshare_version>
43012

> <i_f3d_flags>
0

> <s_epik_input>
W0NIM11PW0NASF0xW0NIMl1bQ0BIXShOKFtDSDNdKVtDSDJdMSlbQ0gyXU4oW0NIM10pYyhuW2NIXW4yKWMoYzIzKW5bY0hdbjNbQ0gyXVtDQEhdKFtDSDJdW09IXSlbQ0BASF00W0NIMl1bQ0gyXU9bQ0gyXTQ=

> <s_epik_cmdline>
J2VwaWtfcHl0aG9uJywgJy1waCcsICc3LjAnLCAnLXRuJywgJzgnLCAnLW1hJywgJzIwMCcsICctbWV0YWxfYmluZGluZycsICctaW1hZScsICc8aW5maWxlLm1hZT4nLCAnLW9tYWUnLCAnPG91dGZpbGUubWFlPic=

> <r_lp_tautomer_probability>
1

> <r_epik_Ionization_Penalty>
2.17574

> <r_epik_Ionization_Penalty_Charging>
0

> <r_epik_Ionization_Penalty_Neutral>
2.17574

> <r_epik_State_Penalty>
2.31336

> <r_epik_Charging_Adjusted_Penalty>
2.31336

> <i_epik_Tot_Q>
0

> <i_epik_Tot_abs_Q>
0

> <r_epik_Metal_State_Penalty>
2.31025

> <b_epik_Metal_Only>
0

> <s_lp_Force_Field>
OPLS_2005

> <r_lp_Energy>
71.9314

> <b_lp_Chiralities_Consistent>
1

> <s_lp_Variant>
AV-unprocessed.smi:21-45

> <Gold.Version>
5.8.1

> <Gold.Id.Protein>
6NUR|6NUR_protein|mol2

> <Gold.PLP.Fitness>
45.2710

> <Gold.PLP.PLP>
-42.1407

> <Gold.PLP.part.hbond>
-2.0000

> <Gold.PLP.part.metal>
0.0000

> <Gold.PLP.part.buried>
-0.6122

> <Gold.PLP.part.nonpolar>
-45.0066

> <Gold.PLP.part.repulsive>
5.4775

> <Gold.PLP.ligand.clash>
0.0000

> <Gold.PLP.ligand.torsion>
2.1292

> <Gold.PLP.Chemscore.Hbond>
0.7850

> <Gold.PLP.Chemscore.CHOScore>
1.4515

> <Gold.PLP.Chemscore.Metal>
0.0000

> <Gold.Chemscore.Hbonds>
donor molecule, donor type, donor heavy atom, donor atom, acceptor molecule, acceptor atom, score
      P1  H  7989  7998       L1    12  0.55
      P1  H  7997  8008       L1    21  0.29
      L1  C    11    42       P1  7949  0.57
      L1  C    16    43       P1  8028  0.95

> <Gold.PLP.Chemscore.Internal.Correction>
0.6793

> <Gold.Rescore>
     Score         DG    S(hbond)    S(metal)    S(lipo)     H(rot)  DE(clash)    DE(int)     intcor
      5.72     -11.38       0.11        0.00     112.91       3.00       3.42       2.24       ----

> <Gold.Chemscore.Fitness>
5.7214

> <Gold.Chemscore.DG>
-11.3806

> <Gold.Chemscore.ZeroCoef>
-5.4800

> <Gold.Chemscore.Hbond>
0.1131

> <Gold.Chemscore.Metal>
0.0000

> <Gold.Chemscore.Lipo>
112.9131

> <Gold.Chemscore.Internal_Hbond>
0.0000

> <Gold.Chemscore.DEClash>
3.4234

> <Gold.Chemscore.DEInternal>
2.2358

> <Gold.Chemscore.Rot>
3.0031

> <Gold.Chemscore.Internal.Correction>
   9.000000E+99

> <Gold.Chemscore.Hbonds>
donor molecule, donor type, donor heavy atom, donor atom, acceptor molecule, acceptor atom, score
      P1  H  7989  7998       L1    12  0.03
      P1  H  7997  8008       L1    21  0.01

> <Gold.Chemscore.Hbond.Weighted>
-0.3778

> <Gold.Chemscore.Metal.Weighted>
-0.0000

> <Gold.Chemscore.Lipo.Weighted>
-13.2108

> <Gold.Chemscore.Internal_Hbond.Weighted>
0.0000

> <Gold.Chemscore.DEClash.Weighted>
3.4234

> <Gold.Chemscore.DEInternal.Weighted>
2.2358

> <Gold.Chemscore.Rot.Weighted>
7.6880

> <Gold.Chemscore.Internal.Correction.Weighted>
   9.000000E+99

> <Gold.Protein.RotatedTorsions>
[ 6907 6896 6895 6894 ] final   87.05 input  -60.11 | X-H torsion
[ 7974 7965 7964 7962 ] final -130.53 input  175.53 | X-H torsion
[ 8008 7997 7996 7995 ] final  -54.55 input   59.86 | X-H torsion
[ 10167 10162 10161 10158 ] final -131.30 input  -65.29 | X-H torsion
[ 10718 10713 10712 10709 ] final  -76.21 input   66.30 | X-H torsion
[ 10763 10752 10751 10750 ] final  171.38 input  -60.55 | X-H torsion
[ 11005 11000 10999 10996 ] final   94.64 input  -57.11 | X-H torsion

> <Gold.Protein.ActiveResidues>
 VAL166  LYS551  ARG553  GLY616  TRP617  ASP618  TYR619  PRO620  LYS621  CYS622 
 ASP623  PHE694  ASN695  SER759  ASP760  ASP761  ALA762  ILE779  LEU786  VAL792 
 PHE793  MET794  SER795  GLU796  ALA797  LYS798  CYS799  TRP800  GLU811  SER814 

> <Gold.Protein.RotatedAtoms>
  152.5405  134.2336  159.8834 H   0  0  0  0  0  0  0  0  0  0  0  0  # atno 6907 bound_to 6896
  151.2307  133.4445  159.2611 H   0  0  0  0  0  0  0  0  0  0  0  0  # atno 6908 bound_to 6896
  151.0718  134.9816  159.8368 H   0  0  0  0  0  0  0  0  0  0  0  0  # atno 6909 bound_to 6896
  144.9466  140.7299  143.4813 H   0  0  0  0  0  0  0  0  0  0  0  0  # atno 7974 bound_to 7965
  154.4166  140.1174  156.5333 H   0  0  0  0  0  0  0  0  0  0  0  0  # atno 8008 bound_to 7997
  155.6583  140.3496  155.4754 H   0  0  0  0  0  0  0  0  0  0  0  0  # atno 8009 bound_to 7997
  155.9735  140.1146  157.0781 H   0  0  0  0  0  0  0  0  0  0  0  0  # atno 8010 bound_to 7997
  139.9203  143.6390  152.2555 H   0  0  0  0  0  0  0  0  0  0  0  0  # atno 10167 bound_to 10162
  156.0182  130.4460  150.3159 H   0  0  0  0  0  0  0  0  0  0  0  0  # atno 10718 bound_to 10713
  154.4111  135.2756  155.2036 H   0  0  0  0  0  0  0  0  0  0  0  0  # atno 10763 bound_to 10752
  154.4021  135.6042  153.5907 H   0  0  0  0  0  0  0  0  0  0  0  0  # atno 10764 bound_to 10752
  152.9831  135.5929  154.4393 H   0  0  0  0  0  0  0  0  0  0  0  0  # atno 10765 bound_to 10752
  139.8796  134.8856  156.3894 H   0  0  0  0  0  0  0  0  0  0  0  0  # atno 11005 bound_to 11000
  145.2908  139.1884  143.4741 LP  0  0  0  0  0  0  0  0  0  0  0  0  # atno 17320 bound_to 7965
  146.3306  140.2884  142.8614 LP  0  0  0  0  0  0  0  0  0  0  0  0  # atno 17321 bound_to 7965
  139.6867  144.7651  151.1511 LP  0  0  0  0  0  0  0  0  0  0  0  0  # atno 17342 bound_to 10162
  140.7664  143.5647  150.9060 LP  0  0  0  0  0  0  0  0  0  0  0  0  # atno 17343 bound_to 10162
  157.1260  131.0259  151.2989 LP  0  0  0  0  0  0  0  0  0  0  0  0  # atno 17370 bound_to 10713
  157.4589  130.7642  149.7218 LP  0  0  0  0  0  0  0  0  0  0  0  0  # atno 17371 bound_to 10713
  140.9343  133.7557  156.0065 LP  0  0  0  0  0  0  0  0  0  0  0  0  # atno 17394 bound_to 11000
  140.8294  134.3196  157.5354 LP  0  0  0  0  0  0  0  0  0  0  0  0  # atno 17395 bound_to 11000

$$$$
