AV-unprocessed.smi:311|AV-procd|sdf|2303|dock5
  -GOLD-   2262022203D 1   1.00000     0.00000
 Structure written by MMmdl.
 44 46  0  0  0  0  0  0  0  0  2 V2000
  149.0647  134.0903  154.8327 C   0  0  0  0  0  0  0  0  0  0  0  0
  149.7833  133.2014  155.8068 C   0  0  0  0  0  0  0  0  0  0  0  0
  150.1905  133.6971  156.9630 N   0  0  0  0  0  0  0  0  0  0  0  0
  150.8096  132.6402  157.6370 O   0  0  0  0  0  0  0  0  0  0  0  0
  150.7488  131.5358  156.8506 C   0  0  0  0  0  0  0  0  0  0  0  0
  151.3471  130.2854  157.4002 C   0  0  0  0  0  0  0  0  0  0  0  0
  150.1085  131.8205  155.6758 C   0  0  0  0  0  0  0  0  0  0  0  0
  149.7991  130.8945  154.5267 C   0  0  0  0  0  0  0  0  0  0  0  0
  148.2834  130.7594  154.3896 C   0  0  0  0  0  0  0  0  0  0  0  0
  147.5724  130.7086  155.3925 O   0  0  0  0  0  0  0  0  0  0  0  0
  147.7983  130.7425  153.1387 N   0  0  0  0  0  0  0  0  0  0  0  0
  146.3812  130.7778  152.7931 C   0  0  2  0  0  0  0  0  0  0  0  0
  146.0747  130.1462  151.4283 C   0  0  0  0  0  0  0  0  0  0  0  0
  144.8838  130.9476  150.8720 C   0  0  0  0  0  0  0  0  0  0  0  0
  144.5752  131.9830  151.8833 N   0  3  2  0  0  0  0  0  0  0  0  0
  143.8932  133.2073  151.3908 C   0  0  0  0  0  0  0  0  0  0  0  0
  144.8567  134.1897  150.7037 C   0  0  0  0  0  0  0  0  0  0  0  0
  146.0411  134.5149  151.6193 C   0  0  0  0  0  0  0  0  0  0  0  0
  146.7645  133.2200  152.0016 C   0  0  0  0  0  0  0  0  0  0  0  0
  145.8069  132.2010  152.6739 C   0  0  2  0  0  0  0  0  0  0  0  0
  148.6307  134.9605  155.3265 H   0  0  0  0  0  0  0  0  0  0  0  0
  148.2535  133.5569  154.3376 H   0  0  0  0  0  0  0  0  0  0  0  0
  149.7452  134.4505  154.0613 H   0  0  0  0  0  0  0  0  0  0  0  0
  150.5685  129.5619  157.6415 H   0  0  0  0  0  0  0  0  0  0  0  0
  151.9160  130.4865  158.3082 H   0  0  0  0  0  0  0  0  0  0  0  0
  152.0201  129.8283  156.6748 H   0  0  0  0  0  0  0  0  0  0  0  0
  150.2120  131.2631  153.5871 H   0  0  0  0  0  0  0  0  0  0  0  0
  150.2354  129.9074  154.6847 H   0  0  0  0  0  0  0  0  0  0  0  0
  148.4582  130.7829  152.3755 H   0  0  0  0  0  0  0  0  0  0  0  0
  145.8138  130.2335  153.5514 H   0  0  0  0  0  0  0  0  0  0  0  0
  146.9266  130.2414  150.7530 H   0  0  0  0  0  0  0  0  0  0  0  0
  145.8474  129.0835  151.5206 H   0  0  0  0  0  0  0  0  0  0  0  0
  145.1553  131.4014  149.9181 H   0  0  0  0  0  0  0  0  0  0  0  0
  144.0098  130.3178  150.7038 H   0  0  0  0  0  0  0  0  0  0  0  0
  143.0787  132.9314  150.7200 H   0  0  0  0  0  0  0  0  0  0  0  0
  143.4335  133.7002  152.2484 H   0  0  0  0  0  0  0  0  0  0  0  0
  145.2192  133.7688  149.7655 H   0  0  0  0  0  0  0  0  0  0  0  0
  144.3266  135.1064  150.4430 H   0  0  0  0  0  0  0  0  0  0  0  0
  146.7297  135.1955  151.1178 H   0  0  0  0  0  0  0  0  0  0  0  0
  145.6918  135.0260  152.5174 H   0  0  0  0  0  0  0  0  0  0  0  0
  147.2106  132.7864  151.1057 H   0  0  0  0  0  0  0  0  0  0  0  0
  147.5929  133.4568  152.6698 H   0  0  0  0  0  0  0  0  0  0  0  0
  145.5288  132.5808  153.6581 H   0  0  0  0  0  0  0  0  0  0  0  0
  143.9272  131.5369  152.5169 H   0  0  0  0  0  0  0  0  0  0  0  0
  1  2  1  0  0  0  0
  1 21  1  0  0  0  0
  1 22  1  0  0  0  0
  1 23  1  0  0  0  0
  2  7  1  0  0  0  0
  2  3  2  0  0  0  0
  3  4  1  0  0  0  0
  4  5  1  0  0  0  0
  5  6  1  0  0  0  0
  5  7  2  0  0  0  0
  6 24  1  0  0  0  0
  6 25  1  0  0  0  0
  6 26  1  0  0  0  0
  7  8  1  0  0  0  0
  8  9  1  0  0  0  0
  8 27  1  0  0  0  0
  8 28  1  0  0  0  0
  9 10  2  0  0  0  0
  9 11  1  0  0  0  0
 11 12  1  0  0  0  0
 11 29  1  0  0  0  0
 12 20  1  0  0  0  0
 12 13  1  0  0  0  0
 12 30  1  0  0  0  0
 13 14  1  0  0  0  0
 13 31  1  0  0  0  0
 13 32  1  0  0  0  0
 14 15  1  0  0  0  0
 14 33  1  0  0  0  0
 14 34  1  0  0  0  0
 15 20  1  0  0  0  0
 15 16  1  0  0  0  0
 15 44  1  0  0  0  0
 16 17  1  0  0  0  0
 16 35  1  0  0  0  0
 16 36  1  0  0  0  0
 17 18  1  0  0  0  0
 17 37  1  0  0  0  0
 17 38  1  0  0  0  0
 18 19  1  0  0  0  0
 18 39  1  0  0  0  0
 18 40  1  0  0  0  0
 19 20  1  0  0  0  0
 19 41  1  0  0  0  0
 19 42  1  0  0  0  0
 20 43  1  0  0  0  0
M  CHG  1  15   1
M  END
> <s_m_source_file>
AV-unprocessed.smi

> <i_m_source_file_index>
311

> <i_lp_mmshare_version>
43012

> <i_f3d_flags>
0

> <s_epik_input>
W0NIM11jMW5vYyhbQ0gzXSljMVtDSDJdQyg9TylbTkhdW0NASF0oW0NIMl1bQ0gyXTIpW0NAQEhdKE4yMylbQ0gyXVtDSDJdW0NIMl1bQ0gyXTM=

> <s_epik_cmdline>
J2VwaWtfcHl0aG9uJywgJy1waCcsICc3LjAnLCAnLXRuJywgJzgnLCAnLW1hJywgJzIwMCcsICctbWV0YWxfYmluZGluZycsICctaW1hZScsICc8aW5maWxlLm1hZT4nLCAnLW9tYWUnLCAnPG91dGZpbGUubWFlPic=

> <r_epik_Ionization_Penalty>
0.00173669

> <r_epik_Ionization_Penalty_Charging>
0.0017366

> <r_epik_Ionization_Penalty_Neutral>
9.2145e-08

> <r_epik_State_Penalty>
0.00117499

> <r_epik_Charging_Adjusted_Penalty>
0.00291159

> <i_epik_Tot_Q>
1

> <i_epik_Tot_abs_Q>
1

> <r_epik_Metal_State_Penalty>
-0

> <b_epik_Metal_Only>
0

> <s_lp_Force_Field>
OPLS_2005

> <r_lp_Energy>
29.2013

> <b_lp_Chiralities_Consistent>
1

> <s_lp_Variant>
AV-unprocessed.smi:311-7

> <Gold.Version>
5.8.1

> <Gold.Id.Protein>
6NUR|6NUR_protein|mol2

> <Gold.PLP.Fitness>
37.0762

> <Gold.PLP.PLP>
-32.4129

> <Gold.PLP.part.hbond>
-2.0000

> <Gold.PLP.part.metal>
0.0000

> <Gold.PLP.part.buried>
-4.6342

> <Gold.PLP.part.nonpolar>
-25.8016

> <Gold.PLP.part.repulsive>
0.0188

> <Gold.PLP.ligand.clash>
0.0000

> <Gold.PLP.ligand.torsion>
0.6706

> <Gold.PLP.Chemscore.Hbond>
2.0000

> <Gold.PLP.Chemscore.CHOScore>
0.0000

> <Gold.PLP.Chemscore.Metal>
0.0000

> <Gold.Chemscore.Hbonds>
donor molecule, donor type, donor heavy atom, donor atom, acceptor molecule, acceptor atom, score
      L1  H    11    29       P1 10747  0.71
      P1  H  6896  6909       L1     4  1.00

> <Gold.PLP.Chemscore.Internal.Correction>
0.0045

> <Gold.Rescore>
     Score         DG    S(hbond)    S(metal)    S(lipo)     H(rot)  DE(clash)    DE(int)     intcor
     17.05     -17.89       1.68        0.00      87.69       1.36       0.11       0.73       ----

> <Gold.Chemscore.Fitness>
17.0506

> <Gold.Chemscore.DG>
-17.8882

> <Gold.Chemscore.ZeroCoef>
-5.4800

> <Gold.Chemscore.Hbond>
1.6830

> <Gold.Chemscore.Metal>
0.0000

> <Gold.Chemscore.Lipo>
87.6923

> <Gold.Chemscore.Internal_Hbond>
0.0000

> <Gold.Chemscore.DEClash>
0.1094

> <Gold.Chemscore.DEInternal>
0.7282

> <Gold.Chemscore.Rot>
1.3567

> <Gold.Chemscore.Internal.Correction>
   9.000000E+99

> <Gold.Chemscore.Hbonds>
donor molecule, donor type, donor heavy atom, donor atom, acceptor molecule, acceptor atom, score
      L1  H    11    29       P1 10747  0.63
      P1  H  6896  6909       L1     4  0.50

> <Gold.Chemscore.Hbond.Weighted>
-5.6213

> <Gold.Chemscore.Metal.Weighted>
-0.0000

> <Gold.Chemscore.Lipo.Weighted>
-10.2600

> <Gold.Chemscore.Internal_Hbond.Weighted>
0.0000

> <Gold.Chemscore.DEClash.Weighted>
0.1094

> <Gold.Chemscore.DEInternal.Weighted>
0.7282

> <Gold.Chemscore.Rot.Weighted>
3.4731

> <Gold.Chemscore.Internal.Correction.Weighted>
   9.000000E+99

> <Gold.Protein.RotatedTorsions>
[ 6907 6896 6895 6894 ] final  -41.83 input  -60.11 | X-H torsion
[ 7974 7965 7964 7962 ] final -131.57 input  175.53 | X-H torsion
[ 8008 7997 7996 7995 ] final  -90.67 input   59.86 | X-H torsion
[ 10167 10162 10161 10158 ] final  -18.40 input  -65.29 | X-H torsion
[ 10718 10713 10712 10709 ] final  -68.57 input   66.30 | X-H torsion
[ 10763 10752 10751 10750 ] final -166.24 input  -60.55 | X-H torsion
[ 11005 11000 10999 10996 ] final   21.95 input  -57.11 | X-H torsion

> <Gold.Protein.ActiveResidues>
 VAL166  LYS551  ARG553  GLY616  TRP617  ASP618  TYR619  PRO620  LYS621  CYS622 
 ASP623  PHE694  ASN695  SER759  ASP760  ASP761  ALA762  ILE779  LEU786  VAL792 
 PHE793  MET794  SER795  GLU796  ALA797  LYS798  CYS799  TRP800  GLU811  SER814 

> <Gold.Protein.RotatedAtoms>
  150.9622  134.9008  159.7737 H   0  0  0  0  0  0  0  0  0  0  0  0  # atno 6907 bound_to 6896
  152.5160  134.3657  159.9310 H   0  0  0  0  0  0  0  0  0  0  0  0  # atno 6908 bound_to 6896
  151.3669  133.3828  159.2730 H   0  0  0  0  0  0  0  0  0  0  0  0  # atno 6909 bound_to 6896
  144.9367  140.7191  143.4872 H   0  0  0  0  0  0  0  0  0  0  0  0  # atno 7974 bound_to 7965
  154.7014  140.0528  157.0462 H   0  0  0  0  0  0  0  0  0  0  0  0  # atno 8008 bound_to 7997
  155.0679  140.3196  155.4621 H   0  0  0  0  0  0  0  0  0  0  0  0  # atno 8009 bound_to 7997
  156.2761  140.2087  156.5807 H   0  0  0  0  0  0  0  0  0  0  0  0  # atno 8010 bound_to 7997
  140.7258  143.4920  150.9979 H   0  0  0  0  0  0  0  0  0  0  0  0  # atno 10167 bound_to 10162
  156.0498  130.4297  150.2021 H   0  0  0  0  0  0  0  0  0  0  0  0  # atno 10718 bound_to 10713
  154.6852  135.2961  154.9557 H   0  0  0  0  0  0  0  0  0  0  0  0  # atno 10763 bound_to 10752
  154.0539  135.6641  153.4807 H   0  0  0  0  0  0  0  0  0  0  0  0  # atno 10764 bound_to 10752
  153.0574  135.5136  154.7916 H   0  0  0  0  0  0  0  0  0  0  0  0  # atno 10765 bound_to 10752
  140.3859  134.1871  155.7663 H   0  0  0  0  0  0  0  0  0  0  0  0  # atno 11005 bound_to 11000
  145.3056  139.1836  143.4666 LP  0  0  0  0  0  0  0  0  0  0  0  0  # atno 17320 bound_to 7965
  146.3269  140.3053  142.8623 LP  0  0  0  0  0  0  0  0  0  0  0  0  # atno 17321 bound_to 7965
  139.8625  143.7296  152.3172 LP  0  0  0  0  0  0  0  0  0  0  0  0  # atno 17342 bound_to 10162
  139.7517  144.7532  151.0497 LP  0  0  0  0  0  0  0  0  0  0  0  0  # atno 17343 bound_to 10162
  157.0105  130.9949  151.3367 LP  0  0  0  0  0  0  0  0  0  0  0  0  # atno 17370 bound_to 10713
  157.5413  130.8122  149.8032 LP  0  0  0  0  0  0  0  0  0  0  0  0  # atno 17371 bound_to 10713
  141.1908  133.8210  157.0906 LP  0  0  0  0  0  0  0  0  0  0  0  0  # atno 17394 bound_to 11000
  140.0443  134.9838  157.1020 LP  0  0  0  0  0  0  0  0  0  0  0  0  # atno 17395 bound_to 11000

$$$$
