AV-unprocessed.smi:1761|AV-procd|sdf|7098|dock3
  -GOLD-   22720 8313D 1   1.00000     0.00000
 Structure written by MMmdl.
 34 35  0  0  0  0  0  0  0  0  1 V2000
  144.5528  136.5855  152.3659 O   0  0  0  0  0  0  0  0  0  0  0  0
  145.7587  136.3488  152.2873 C   0  0  0  0  0  0  0  0  0  0  0  0
  146.3013  135.2623  151.7103 N   0  0  0  0  0  0  0  0  0  0  0  0
  145.6349  134.1650  151.1023 C   0  0  0  0  0  0  0  0  0  0  0  0
  146.4852  133.1992  150.5177 C   0  0  0  0  0  0  0  0  0  0  0  0
  145.9235  132.0700  149.8911 C   0  0  0  0  0  0  0  0  0  0  0  0
  144.5240  131.9350  149.8661 C   0  0  0  0  0  0  0  0  0  0  0  0
  143.7495  132.9417  150.4715 C   0  0  0  0  0  0  0  0  0  0  0  0
  144.2858  134.0249  151.0722 N   0  0  0  0  0  0  0  0  0  0  0  0
  146.7080  137.1622  152.7727 N   0  0  0  0  0  0  0  0  0  0  0  0
  146.4706  138.4348  153.4514 C   0  0  1  0  0  0  0  0  0  0  0  0
  147.1080  138.3501  154.8539 C   0  0  0  0  0  0  0  0  0  0  0  0
  147.0459  139.6897  155.6015 C   0  0  0  0  0  0  0  0  0  0  0  0
  147.7052  140.8060  154.7810 C   0  0  0  0  0  0  0  0  0  0  0  0
  147.0423  140.9288  153.4024 C   0  0  0  0  0  0  0  0  0  0  0  0
  147.0802  139.5963  152.6292 C   0  0  2  0  0  0  0  0  0  0  0  0
  146.3450  139.7793  151.4357 O   0  0  0  0  0  0  0  0  0  0  0  0
  147.3093  135.2122  151.7090 H   0  0  0  0  0  0  0  0  0  0  0  0
  147.5587  133.3185  150.5466 H   0  0  0  0  0  0  0  0  0  0  0  0
  146.5567  131.3216  149.4380 H   0  0  0  0  0  0  0  0  0  0  0  0
  144.0564  131.0829  149.3956 H   0  0  0  0  0  0  0  0  0  0  0  0
  142.6716  132.8762  150.4742 H   0  0  0  0  0  0  0  0  0  0  0  0
  147.6720  136.8864  152.6572 H   0  0  0  0  0  0  0  0  0  0  0  0
  145.4013  138.6128  153.5825 H   0  0  0  0  0  0  0  0  0  0  0  0
  146.6099  137.5790  155.4427 H   0  0  0  0  0  0  0  0  0  0  0  0
  148.1514  138.0424  154.7672 H   0  0  0  0  0  0  0  0  0  0  0  0
  146.0062  139.9473  155.8073 H   0  0  0  0  0  0  0  0  0  0  0  0
  147.5396  139.5984  156.5693 H   0  0  0  0  0  0  0  0  0  0  0  0
  147.6322  141.7540  155.3148 H   0  0  0  0  0  0  0  0  0  0  0  0
  148.7689  140.5973  154.6609 H   0  0  0  0  0  0  0  0  0  0  0  0
  146.0081  141.2511  153.5339 H   0  0  0  0  0  0  0  0  0  0  0  0
  147.5374  141.7102  152.8248 H   0  0  0  0  0  0  0  0  0  0  0  0
  148.1138  139.3640  152.3683 H   0  0  0  0  0  0  0  0  0  0  0  0
  145.4427  139.9484  151.6609 H   0  0  0  0  0  0  0  0  0  0  0  0
  1  2  2  0  0  0  0
  2  3  1  0  0  0  0
  2 10  1  0  0  0  0
  3  4  1  0  0  0  0
  3 18  1  0  0  0  0
  4  9  1  0  0  0  0
  4  5  2  0  0  0  0
  5  6  1  0  0  0  0
  5 19  1  0  0  0  0
  6  7  2  0  0  0  0
  6 20  1  0  0  0  0
  7  8  1  0  0  0  0
  7 21  1  0  0  0  0
  8  9  2  0  0  0  0
  8 22  1  0  0  0  0
 10 11  1  0  0  0  0
 10 23  1  0  0  0  0
 11 16  1  0  0  0  0
 11 12  1  0  0  0  0
 11 24  1  0  0  0  0
 12 13  1  0  0  0  0
 12 25  1  0  0  0  0
 12 26  1  0  0  0  0
 13 14  1  0  0  0  0
 13 27  1  0  0  0  0
 13 28  1  0  0  0  0
 14 15  1  0  0  0  0
 14 29  1  0  0  0  0
 14 30  1  0  0  0  0
 15 16  1  0  0  0  0
 15 31  1  0  0  0  0
 15 32  1  0  0  0  0
 16 17  1  0  0  0  0
 16 33  1  0  0  0  0
 17 34  1  0  0  0  0
M  END
> <s_m_source_file>
AV-unprocessed.smi

> <i_m_source_file_index>
1761

> <i_lp_mmshare_version>
43012

> <i_f3d_flags>
0

> <s_epik_input>
bjFbY0hdW2NIXVtjSF1bY0hdYzFbTkhdQyg9TylbTkhdW0NAQEhdMltDSDJdW0NIMl1bQ0gyXVtDSDJdW0NASF0yW09IXQ==

> <s_epik_cmdline>
J2VwaWtfcHl0aG9uJywgJy1waCcsICc3LjAnLCAnLXRuJywgJzgnLCAnLW1hJywgJzIwMCcsICctbWV0YWxfYmluZGluZycsICctaW1hZScsICc8aW5maWxlLm1hZT4nLCAnLW9tYWUnLCAnPG91dGZpbGUubWFlPic=

> <r_lp_tautomer_probability>
1

> <r_epik_Ionization_Penalty>
4.92589e-05

> <r_epik_Ionization_Penalty_Charging>
0

> <r_epik_Ionization_Penalty_Neutral>
4.92589e-05

> <r_epik_State_Penalty>
-0

> <r_epik_Charging_Adjusted_Penalty>
0

> <i_epik_Tot_Q>
0

> <i_epik_Tot_abs_Q>
0

> <r_epik_Metal_State_Penalty>
-0

> <b_epik_Metal_Only>
0

> <s_lp_Force_Field>
OPLS_2005

> <r_lp_Energy>
12.6575

> <b_lp_Chiralities_Consistent>
1

> <s_lp_Variant>
AV-unprocessed.smi:1761-4

> <Gold.Version>
5.8.1

> <Gold.Id.Protein>
6NUR|6NUR_protein|mol2

> <Gold.PLP.Fitness>
39.5016

> <Gold.PLP.PLP>
-27.6890

> <Gold.PLP.part.hbond>
-3.9821

> <Gold.PLP.part.metal>
0.0000

> <Gold.PLP.part.buried>
-1.4477

> <Gold.PLP.part.nonpolar>
-22.6004

> <Gold.PLP.part.repulsive>
0.4354

> <Gold.PLP.ligand.clash>
0.0000

> <Gold.PLP.ligand.torsion>
0.0102

> <Gold.PLP.Chemscore.Hbond>
2.9440

> <Gold.PLP.Chemscore.CHOScore>
1.0000

> <Gold.PLP.Chemscore.Metal>
0.0000

> <Gold.Chemscore.Hbonds>
donor molecule, donor type, donor heavy atom, donor atom, acceptor molecule, acceptor atom, score
      L1  H     3    18       P1  7948  0.93
      L1  H    10    23       P1  7948  1.00
      L1  H    17    34       P1 10175  1.00
      L1  C     8    22       P1 10186  1.00

> <Gold.PLP.Chemscore.Internal.Correction>
0.0011

> <Gold.Rescore>
     Score         DG    S(hbond)    S(metal)    S(lipo)     H(rot)  DE(clash)    DE(int)     intcor
     17.14     -18.45       2.79        0.00      63.25       1.47       0.02       1.29       ----

> <Gold.Chemscore.Fitness>
17.1376

> <Gold.Chemscore.DG>
-18.4466

> <Gold.Chemscore.ZeroCoef>
-5.4800

> <Gold.Chemscore.Hbond>
2.7895

> <Gold.Chemscore.Metal>
0.0000

> <Gold.Chemscore.Lipo>
63.2539

> <Gold.Chemscore.Internal_Hbond>
0.0000

> <Gold.Chemscore.DEClash>
0.0190

> <Gold.Chemscore.DEInternal>
1.2900

> <Gold.Chemscore.Rot>
1.4653

> <Gold.Chemscore.Internal.Correction>
   9.000000E+99

> <Gold.Chemscore.Hbonds>
donor molecule, donor type, donor heavy atom, donor atom, acceptor molecule, acceptor atom, score
      L1  H     3    18       P1  7948  0.84
      L1  H    10    23       P1  7948  0.98
      L1  H    17    34       P1 10175  0.34

> <Gold.Chemscore.Hbond.Weighted>
-9.3170

> <Gold.Chemscore.Metal.Weighted>
-0.0000

> <Gold.Chemscore.Lipo.Weighted>
-7.4007

> <Gold.Chemscore.Internal_Hbond.Weighted>
0.0000

> <Gold.Chemscore.DEClash.Weighted>
0.0190

> <Gold.Chemscore.DEInternal.Weighted>
1.2900

> <Gold.Chemscore.Rot.Weighted>
3.7511

> <Gold.Chemscore.Internal.Correction.Weighted>
   9.000000E+99

> <Gold.Protein.RotatedTorsions>
[ 6907 6896 6895 6894 ] final -135.42 input  -60.11 | X-H torsion
[ 7974 7965 7964 7962 ] final  108.53 input  175.53 | X-H torsion
[ 8008 7997 7996 7995 ] final -103.84 input   59.86 | X-H torsion
[ 10167 10162 10161 10158 ] final  168.10 input  -65.29 | X-H torsion
[ 10718 10713 10712 10709 ] final -147.80 input   66.30 | X-H torsion
[ 10763 10752 10751 10750 ] final  -48.33 input  -60.55 | X-H torsion
[ 11005 11000 10999 10996 ] final -172.68 input  -57.11 | X-H torsion

> <Gold.Protein.ActiveResidues>
 VAL166  LYS551  ARG553  GLY616  TRP617  ASP618  TYR619  PRO620  LYS621  CYS622 
 ASP623  PHE694  ASN695  SER759  ASP760  ASP761  ALA762  ILE779  LEU786  VAL792 
 PHE793  MET794  SER795  GLU796  ALA797  LYS798  CYS799  TRP800  GLU811  SER814 

> <Gold.Protein.RotatedAtoms>
  150.9977  133.6087  159.2699 H   0  0  0  0  0  0  0  0  0  0  0  0  # atno 6907 bound_to 6896
  151.3285  135.0835  159.9340 H   0  0  0  0  0  0  0  0  0  0  0  0  # atno 6908 bound_to 6896
  152.5264  133.9611  159.7771 H   0  0  0  0  0  0  0  0  0  0  0  0  # atno 6909 bound_to 6896
  145.2795  139.2638  143.3923 H   0  0  0  0  0  0  0  0  0  0  0  0  # atno 7974 bound_to 7965
  154.8767  140.0421  157.1757 H   0  0  0  0  0  0  0  0  0  0  0  0  # atno 8008 bound_to 7997
  154.8682  140.2954  155.5476 H   0  0  0  0  0  0  0  0  0  0  0  0  # atno 8009 bound_to 7997
  156.2999  140.2434  156.3667 H   0  0  0  0  0  0  0  0  0  0  0  0  # atno 8010 bound_to 7997
  139.4960  144.3850  151.9580 H   0  0  0  0  0  0  0  0  0  0  0  0  # atno 10167 bound_to 10162
  156.4121  130.7987  151.2205 H   0  0  0  0  0  0  0  0  0  0  0  0  # atno 10718 bound_to 10713
  154.0760  135.6598  153.4831 H   0  0  0  0  0  0  0  0  0  0  0  0  # atno 10763 bound_to 10752
  153.0373  135.5168  154.7520 H   0  0  0  0  0  0  0  0  0  0  0  0  # atno 10764 bound_to 10752
  154.6600  135.3013  154.9846 H   0  0  0  0  0  0  0  0  0  0  0  0  # atno 10765 bound_to 10752
  140.4943  134.5955  157.4965 H   0  0  0  0  0  0  0  0  0  0  0  0  # atno 11005 bound_to 11000
  146.3221  140.3259  142.8636 LP  0  0  0  0  0  0  0  0  0  0  0  0  # atno 17320 bound_to 7965
  144.9265  140.7927  143.5715 LP  0  0  0  0  0  0  0  0  0  0  0  0  # atno 17321 bound_to 7965
  140.3287  144.3342  150.5992 LP  0  0  0  0  0  0  0  0  0  0  0  0  # atno 17342 bound_to 10162
  140.5663  143.2186  151.7678 LP  0  0  0  0  0  0  0  0  0  0  0  0  # atno 17343 bound_to 10162
  157.7507  131.0254  150.3919 LP  0  0  0  0  0  0  0  0  0  0  0  0  # atno 17370 bound_to 10713
  156.4219  130.3954  149.6819 LP  0  0  0  0  0  0  0  0  0  0  0  0  # atno 17371 bound_to 10713
  139.9751  134.7229  155.9966 LP  0  0  0  0  0  0  0  0  0  0  0  0  # atno 17394 bound_to 11000
  141.1468  133.6554  156.3892 LP  0  0  0  0  0  0  0  0  0  0  0  0  # atno 17395 bound_to 11000

$$$$
