AV-unprocessed.smi:48|AV-procd|sdf|456|dock4
  -GOLD-   2262016323D 1   1.00000     0.00000
 Structure written by MMmdl.
 30 32  0  0  0  0  0  0  0  0  1 V2000
  145.4378  142.0113  154.3574 O   0  0  0  0  0  0  0  0  0  0  0  0
  146.7230  142.1793  153.7980 C   0  0  0  0  0  0  0  0  0  0  0  0
  147.7543  141.3561  154.5844 C   0  0  2  0  0  0  0  0  0  0  0  0
  149.0584  141.6246  154.0905 O   0  0  0  0  0  0  0  0  0  0  0  0
  149.9064  140.5663  154.4026 C   0  0  1  0  0  0  0  0  0  0  0  0
  150.6227  140.8952  155.6853 N   0  0  0  0  0  0  0  0  0  0  0  0
  150.4067  141.9943  156.4377 C   0  0  0  0  0  0  0  0  0  0  0  0
  151.1002  142.1217  157.5665 N   0  0  0  0  0  0  0  0  0  0  0  0
  151.8457  140.9565  157.5625 C   0  0  0  0  0  0  0  0  0  0  0  0
  152.7961  140.4306  158.4713 C   0  0  0  0  0  0  0  0  0  0  0  0
  153.2227  141.2889  159.9066 Cl  0  0  0  0  0  0  0  0  0  0  0  0
  153.3654  139.2350  158.1912 N   0  0  0  0  0  0  0  0  0  0  0  0
  153.0148  138.5909  157.0726 C   0  0  0  0  0  0  0  0  0  0  0  0
  152.1427  138.9623  156.1292 N   0  0  0  0  0  0  0  0  0  0  0  0
  151.5654  140.1692  156.4075 C   0  0  0  0  0  0  0  0  0  0  0  0
  149.0408  139.2970  154.4865 C   0  0  2  0  0  0  0  0  0  0  0  0
  149.3141  138.4215  153.4114 O   0  0  0  0  0  0  0  0  0  0  0  0
  147.6131  139.8407  154.3729 C   0  0  1  0  0  0  0  0  0  0  0  0
  146.7843  139.2812  155.3717 O   0  0  0  0  0  0  0  0  0  0  0  0
  147.7100  141.6024  155.6455 H   0  0  0  0  0  0  0  0  0  0  0  0
  150.7077  140.4957  153.6655 H   0  0  0  0  0  0  0  0  0  0  0  0
  149.2282  138.7598  155.4156 H   0  0  0  0  0  0  0  0  0  0  0  0
  147.1954  139.6354  153.3855 H   0  0  0  0  0  0  0  0  0  0  0  0
  144.9218  141.4802  153.7704 H   0  0  0  0  0  0  0  0  0  0  0  0
  146.6762  141.8318  152.7655 H   0  0  0  0  0  0  0  0  0  0  0  0
  146.9929  143.2355  153.7729 H   0  0  0  0  0  0  0  0  0  0  0  0
  149.6941  142.7491  156.1386 H   0  0  0  0  0  0  0  0  0  0  0  0
  153.5049  137.6431  156.9069 H   0  0  0  0  0  0  0  0  0  0  0  0
  149.3526  138.9278  152.6144 H   0  0  0  0  0  0  0  0  0  0  0  0
  146.6931  138.3564  155.2000 H   0  0  0  0  0  0  0  0  0  0  0  0
  1  2  1  0  0  0  0
  1 24  1  0  0  0  0
  2  3  1  0  0  0  0
  2 25  1  0  0  0  0
  2 26  1  0  0  0  0
  3 20  1  0  0  0  0
  3 18  1  0  0  0  0
  3  4  1  0  0  0  0
  4  5  1  0  0  0  0
  5 21  1  0  0  0  0
  5  6  1  0  0  0  0
  5 16  1  0  0  0  0
  6 15  1  0  0  0  0
  6  7  1  0  0  0  0
  7  8  2  0  0  0  0
  7 27  1  0  0  0  0
  8  9  1  0  0  0  0
  9 15  2  0  0  0  0
  9 10  1  0  0  0  0
 10 11  1  0  0  0  0
 10 12  2  0  0  0  0
 12 13  1  0  0  0  0
 13 14  2  0  0  0  0
 13 28  1  0  0  0  0
 14 15  1  0  0  0  0
 16 22  1  0  0  0  0
 16 17  1  0  0  0  0
 16 18  1  0  0  0  0
 17 29  1  0  0  0  0
 18 23  1  0  0  0  0
 18 19  1  0  0  0  0
 19 30  1  0  0  0  0
M  END
> <s_m_source_file>
AV-unprocessed.smi

> <i_m_source_file_index>
48

> <i_lp_mmshare_version>
43012

> <i_f3d_flags>
0

> <s_epik_input>
W09IXVtDSDJdW0NASF0xT1tDQEhdKFtDQEhdKFtPSF0pW0NAQEhdMVtPSF0pbihbY0hdbjIpYyhjMjMpbltjSF1uYzNDbA==

> <s_epik_cmdline>
J2VwaWtfcHl0aG9uJywgJy1waCcsICc3LjAnLCAnLXRuJywgJzgnLCAnLW1hJywgJzIwMCcsICctbWV0YWxfYmluZGluZycsICctaW1hZScsICc8aW5maWxlLm1hZT4nLCAnLW9tYWUnLCAnPG91dGZpbGUubWFlPic=

> <r_lp_tautomer_probability>
1

> <r_epik_Ionization_Penalty>
3.45505e-06

> <r_epik_Ionization_Penalty_Charging>
0

> <r_epik_Ionization_Penalty_Neutral>
3.45505e-06

> <r_epik_State_Penalty>
-0

> <r_epik_Charging_Adjusted_Penalty>
0

> <i_epik_Tot_Q>
0

> <i_epik_Tot_abs_Q>
0

> <r_epik_Metal_State_Penalty>
-0

> <b_epik_Metal_Only>
0

> <s_epik_Chemistry_Notes>
This compound contains an acetal/aminal-like group ( X-CH(R)-Y where X, Y are N, S, or O) that may be acid/base labile, releasing an aldehyde.

> <s_lp_Force_Field>
OPLS_2005

> <r_lp_Energy>
32.3387

> <b_lp_Chiralities_Consistent>
1

> <s_lp_Variant>
AV-unprocessed.smi:48-10

> <Gold.Version>
5.8.1

> <Gold.Id.Protein>
6NUR|6NUR_protein|mol2

> <Gold.PLP.Fitness>
42.4947

> <Gold.PLP.PLP>
-30.9217

> <Gold.PLP.part.hbond>
-5.4049

> <Gold.PLP.part.metal>
0.0000

> <Gold.PLP.part.buried>
-0.0625

> <Gold.PLP.part.nonpolar>
-24.1600

> <Gold.PLP.part.repulsive>
0.2458

> <Gold.PLP.ligand.clash>
0.0000

> <Gold.PLP.ligand.torsion>
0.0547

> <Gold.PLP.Chemscore.Hbond>
2.8862

> <Gold.PLP.Chemscore.CHOScore>
1.0000

> <Gold.PLP.Chemscore.Metal>
0.0000

> <Gold.Chemscore.Hbonds>
donor molecule, donor type, donor heavy atom, donor atom, acceptor molecule, acceptor atom, score
      L1  H     1    24       P1 10175  0.95
      L1  H    17    29       P1  7957  1.00
      P1  H  7997  8008       L1    12  0.37
      P1  H  8011  8017       L1     4  0.56
      L1  C     7    27       P1  8028  1.00

> <Gold.PLP.Chemscore.Internal.Correction>
0.0239

> <Gold.Rescore>
     Score         DG    S(hbond)    S(metal)    S(lipo)     H(rot)  DE(clash)    DE(int)     intcor
      4.78      -5.88       1.48        0.00      44.36       3.80       1.08       0.03       ----

> <Gold.Chemscore.Fitness>
4.7767

> <Gold.Chemscore.DG>
-5.8805

> <Gold.Chemscore.ZeroCoef>
-5.4800

> <Gold.Chemscore.Hbond>
1.4799

> <Gold.Chemscore.Metal>
0.0000

> <Gold.Chemscore.Lipo>
44.3588

> <Gold.Chemscore.Internal_Hbond>
0.0000

> <Gold.Chemscore.DEClash>
1.0763

> <Gold.Chemscore.DEInternal>
0.0274

> <Gold.Chemscore.Rot>
3.8017

> <Gold.Chemscore.Internal.Correction>
   9.000000E+99

> <Gold.Chemscore.Hbonds>
donor molecule, donor type, donor heavy atom, donor atom, acceptor molecule, acceptor atom, score
      L1  H     1    24       P1 10175  0.20
      L1  H    17    29       P1  7957  0.94
      P1  H  8011  8017       L1     4  0.29

> <Gold.Chemscore.Hbond.Weighted>
-4.9429

> <Gold.Chemscore.Metal.Weighted>
-0.0000

> <Gold.Chemscore.Lipo.Weighted>
-5.1900

> <Gold.Chemscore.Internal_Hbond.Weighted>
0.0000

> <Gold.Chemscore.DEClash.Weighted>
1.0763

> <Gold.Chemscore.DEInternal.Weighted>
0.0274

> <Gold.Chemscore.Rot.Weighted>
9.7324

> <Gold.Chemscore.Internal.Correction.Weighted>
   9.000000E+99

> <Gold.Protein.RotatedTorsions>
[ 6907 6896 6895 6894 ] final -122.21 input  -60.11 | X-H torsion
[ 7974 7965 7964 7962 ] final  162.93 input  175.53 | X-H torsion
[ 8008 7997 7996 7995 ] final -117.18 input   59.86 | X-H torsion
[ 10167 10162 10161 10158 ] final  -60.61 input  -65.29 | X-H torsion
[ 10718 10713 10712 10709 ] final  167.80 input   66.30 | X-H torsion
[ 10763 10752 10751 10750 ] final -137.42 input  -60.55 | X-H torsion
[ 11005 11000 10999 10996 ] final  179.94 input  -57.11 | X-H torsion

> <Gold.Protein.ActiveResidues>
 VAL166  LYS551  ARG553  GLY616  TRP617  ASP618  TYR619  PRO620  LYS621  CYS622 
 ASP623  PHE694  ASN695  SER759  ASP760  ASP761  ALA762  ILE779  LEU786  VAL792 
 PHE793  MET794  SER795  GLU796  ALA797  LYS798  CYS799  TRP800  GLU811  SER814 

> <Gold.Protein.RotatedAtoms>
  150.8555  133.7722  159.3010 H   0  0  0  0  0  0  0  0  0  0  0  0  # atno 6907 bound_to 6896
  151.5381  135.1067  159.9929 H   0  0  0  0  0  0  0  0  0  0  0  0  # atno 6908 bound_to 6896
  152.4586  133.7731  159.6866 H   0  0  0  0  0  0  0  0  0  0  0  0  # atno 6909 bound_to 6896
  144.7613  139.8110  143.6331 H   0  0  0  0  0  0  0  0  0  0  0  0  # atno 7974 bound_to 7965
  155.0796  140.0394  157.2635 H   0  0  0  0  0  0  0  0  0  0  0  0  # atno 8008 bound_to 7997
  154.6917  140.2654  155.6781 H   0  0  0  0  0  0  0  0  0  0  0  0  # atno 8009 bound_to 7997
  156.2731  140.2758  156.1497 H   0  0  0  0  0  0  0  0  0  0  0  0  # atno 8010 bound_to 7997
  140.6060  143.2373  151.5820 H   0  0  0  0  0  0  0  0  0  0  0  0  # atno 10167 bound_to 10162
  157.0463  131.0301  151.2696 H   0  0  0  0  0  0  0  0  0  0  0  0  # atno 10718 bound_to 10713
  154.8662  135.3643  154.5220 H   0  0  0  0  0  0  0  0  0  0  0  0  # atno 10763 bound_to 10752
  153.5849  135.7017  153.5452 H   0  0  0  0  0  0  0  0  0  0  0  0  # atno 10764 bound_to 10752
  153.3424  135.4094  155.1544 H   0  0  0  0  0  0  0  0  0  0  0  0  # atno 10765 bound_to 10752
  140.4117  134.6685  157.4617 H   0  0  0  0  0  0  0  0  0  0  0  0  # atno 11005 bound_to 11000
  146.1679  139.4818  142.9946 LP  0  0  0  0  0  0  0  0  0  0  0  0  # atno 17320 bound_to 7965
  145.6609  141.0240  143.1709 LP  0  0  0  0  0  0  0  0  0  0  0  0  # atno 17321 bound_to 7965
  139.5325  144.2874  152.1180 LP  0  0  0  0  0  0  0  0  0  0  0  0  # atno 17342 bound_to 10162
  140.2064  144.4606  150.6406 LP  0  0  0  0  0  0  0  0  0  0  0  0  # atno 17343 bound_to 10162
  157.5065  130.7912  149.7659 LP  0  0  0  0  0  0  0  0  0  0  0  0  # atno 17370 bound_to 10713
  156.0022  130.3874  150.2564 LP  0  0  0  0  0  0  0  0  0  0  0  0  # atno 17371 bound_to 10713
  140.0262  134.6473  155.9169 LP  0  0  0  0  0  0  0  0  0  0  0  0  # atno 17394 bound_to 11000
  141.1818  133.6548  156.5053 LP  0  0  0  0  0  0  0  0  0  0  0  0  # atno 17395 bound_to 11000

$$$$
