AV-unprocessed.smi:2414|AV-procd|sdf|9541|dock8
  -GOLD-   2272013173D 1   1.00000     0.00000
 Structure written by MMmdl.
 43 44  0  0  0  0  0  0  0  0  1 V2000
  151.2116  142.2599  158.4415 C   0  0  0  0  0  0  0  0  0  0  0  0
  150.8661  141.4983  157.2068 C   0  0  0  0  0  0  0  0  0  0  0  0
  150.4676  142.0056  155.9951 C   0  0  0  0  0  0  0  0  0  0  0  0
  150.2173  141.0288  155.0288 N   0  0  0  0  0  0  0  0  0  0  0  0
  150.4192  139.7905  155.4884 C   0  0  0  0  0  0  0  0  0  0  0  0
  150.2264  138.5555  154.6655 C   0  0  1  0  0  0  0  0  0  0  0  0
  151.5643  137.8524  154.3767 C   0  0  0  0  0  0  0  0  0  0  0  0
  149.1447  137.6346  155.2703 C   0  0  0  0  0  0  0  0  0  0  0  0
  148.5070  136.7854  154.2695 N   0  0  0  0  0  0  0  0  0  0  0  0
  147.2819  136.2546  154.3797 C   0  0  0  0  0  0  0  0  0  0  0  0
  146.5516  136.4001  155.3601 O   0  0  0  0  0  0  0  0  0  0  0  0
  146.9460  135.5553  153.2890 N   0  0  0  0  0  0  0  0  0  0  0  0
  145.6715  134.8735  153.0955 C   0  0  0  0  0  0  0  0  0  0  0  0
  145.4131  134.5544  151.6069 C   0  0  2  0  0  0  0  0  0  0  0  0
  145.5512  135.7971  150.7070 C   0  0  0  0  0  0  0  0  0  0  0  0
  144.0480  133.8677  151.4174 C   0  0  0  0  0  0  0  0  0  0  0  0
  144.3958  132.3953  151.3969 C   0  0  0  0  0  0  0  0  0  0  0  0
  145.7410  132.4214  150.6885 C   0  0  0  0  0  0  0  0  0  0  0  0
  146.3812  133.5831  151.1998 O   0  0  0  0  0  0  0  0  0  0  0  0
  150.9419  139.7558  157.1689 S   0  0  0  0  0  0  0  0  0  0  0  0
  150.5790  143.1419  158.5448 H   0  0  0  0  0  0  0  0  0  0  0  0
  152.2499  142.5907  158.4121 H   0  0  0  0  0  0  0  0  0  0  0  0
  151.0780  141.6459  159.3325 H   0  0  0  0  0  0  0  0  0  0  0  0
  150.3363  143.0452  155.7332 H   0  0  0  0  0  0  0  0  0  0  0  0
  149.8480  138.8963  153.7008 H   0  0  0  0  0  0  0  0  0  0  0  0
  152.2710  138.5375  153.9078 H   0  0  0  0  0  0  0  0  0  0  0  0
  151.4367  137.0067  153.7010 H   0  0  0  0  0  0  0  0  0  0  0  0
  152.0208  137.4792  155.2939 H   0  0  0  0  0  0  0  0  0  0  0  0
  149.5877  136.9853  156.0259 H   0  0  0  0  0  0  0  0  0  0  0  0
  148.3856  138.2281  155.7833 H   0  0  0  0  0  0  0  0  0  0  0  0
  149.0299  136.6061  153.4248 H   0  0  0  0  0  0  0  0  0  0  0  0
  147.6137  135.4912  152.5344 H   0  0  0  0  0  0  0  0  0  0  0  0
  145.6778  133.9566  153.6863 H   0  0  0  0  0  0  0  0  0  0  0  0
  144.8571  135.4903  153.4800 H   0  0  0  0  0  0  0  0  0  0  0  0
  144.8313  136.5666  150.9874 H   0  0  0  0  0  0  0  0  0  0  0  0
  145.3779  135.5464  149.6602 H   0  0  0  0  0  0  0  0  0  0  0  0
  146.5474  136.2352  150.7707 H   0  0  0  0  0  0  0  0  0  0  0  0
  143.3236  134.1203  152.1926 H   0  0  0  0  0  0  0  0  0  0  0  0
  143.6068  134.1414  150.4577 H   0  0  0  0  0  0  0  0  0  0  0  0
  144.5101  132.0165  152.4134 H   0  0  0  0  0  0  0  0  0  0  0  0
  143.6533  131.7853  150.8821 H   0  0  0  0  0  0  0  0  0  0  0  0
  146.3324  131.5236  150.8682 H   0  0  0  0  0  0  0  0  0  0  0  0
  145.6056  132.5336  149.6118 H   0  0  0  0  0  0  0  0  0  0  0  0
  1  2  1  0  0  0  0
  1 21  1  0  0  0  0
  1 22  1  0  0  0  0
  1 23  1  0  0  0  0
  2 20  1  0  0  0  0
  2  3  2  0  0  0  0
  3  4  1  0  0  0  0
  3 24  1  0  0  0  0
  4  5  2  0  0  0  0
  5  6  1  0  0  0  0
  5 20  1  0  0  0  0
  6  7  1  0  0  0  0
  6  8  1  0  0  0  0
  6 25  1  0  0  0  0
  7 26  1  0  0  0  0
  7 27  1  0  0  0  0
  7 28  1  0  0  0  0
  8  9  1  0  0  0  0
  8 29  1  0  0  0  0
  8 30  1  0  0  0  0
  9 10  1  0  0  0  0
  9 31  1  0  0  0  0
 10 11  2  0  0  0  0
 10 12  1  0  0  0  0
 12 13  1  0  0  0  0
 12 32  1  0  0  0  0
 13 14  1  0  0  0  0
 13 33  1  0  0  0  0
 13 34  1  0  0  0  0
 14 19  1  0  0  0  0
 14 15  1  0  0  0  0
 14 16  1  0  0  0  0
 15 35  1  0  0  0  0
 15 36  1  0  0  0  0
 15 37  1  0  0  0  0
 16 17  1  0  0  0  0
 16 38  1  0  0  0  0
 16 39  1  0  0  0  0
 17 18  1  0  0  0  0
 17 40  1  0  0  0  0
 17 41  1  0  0  0  0
 18 19  1  0  0  0  0
 18 42  1  0  0  0  0
 18 43  1  0  0  0  0
M  END
> <s_m_source_file>
AV-unprocessed.smi

> <i_m_source_file_index>
2414

> <i_lp_mmshare_version>
43012

> <i_f3d_flags>
0

> <s_epik_input>
W0NIM11jMVtjSF1uYyhzMSlbQ0BIXShbQ0gzXSlbQ0gyXVtOSF1DKD1PKVtOSF1bQ0gyXVtDQEBdMihbQ0gzXSlbQ0gyXVtDSDJdW0NIMl1PMg==

> <s_epik_cmdline>
J2VwaWtfcHl0aG9uJywgJy1waCcsICc3LjAnLCAnLXRuJywgJzgnLCAnLW1hJywgJzIwMCcsICctbWV0YWxfYmluZGluZycsICctaW1hZScsICc8aW5maWxlLm1hZT4nLCAnLW9tYWUnLCAnPG91dGZpbGUubWFlPic=

> <r_epik_Ionization_Penalty>
0.000646956

> <r_epik_Ionization_Penalty_Charging>
0

> <r_epik_Ionization_Penalty_Neutral>
0.000646956

> <r_epik_State_Penalty>
0.000375727

> <r_epik_Charging_Adjusted_Penalty>
0.000375727

> <i_epik_Tot_Q>
0

> <i_epik_Tot_abs_Q>
0

> <r_epik_Metal_State_Penalty>
-0

> <b_epik_Metal_Only>
0

> <s_lp_Force_Field>
OPLS_2005

> <r_lp_Energy>
8.05024

> <b_lp_Chiralities_Consistent>
1

> <s_lp_Variant>
AV-unprocessed.smi:2414-4

> <Gold.Version>
5.8.1

> <Gold.Id.Protein>
6NUR|6NUR_protein|mol2

> <Gold.PLP.Fitness>
42.0897

> <Gold.PLP.PLP>
-32.2573

> <Gold.PLP.part.hbond>
-2.9347

> <Gold.PLP.part.metal>
0.0000

> <Gold.PLP.part.buried>
-4.5126

> <Gold.PLP.part.nonpolar>
-25.9884

> <Gold.PLP.part.repulsive>
0.3111

> <Gold.PLP.ligand.clash>
0.0000

> <Gold.PLP.ligand.torsion>
0.6132

> <Gold.PLP.Chemscore.Hbond>
2.6400

> <Gold.PLP.Chemscore.CHOScore>
1.0000

> <Gold.PLP.Chemscore.Metal>
0.0000

> <Gold.Chemscore.Hbonds>
donor molecule, donor type, donor heavy atom, donor atom, acceptor molecule, acceptor atom, score
      L1  H     9    31       P1  7948  0.96
      L1  H    12    32       P1  7948  0.90
      P1  H  7989  7998       L1     4  0.48
      L1  C     3    24       P1  8028  1.00

> <Gold.PLP.Chemscore.Internal.Correction>
0.1388

> <Gold.Rescore>
     Score         DG    S(hbond)    S(metal)    S(lipo)     H(rot)  DE(clash)    DE(int)     intcor
     18.89     -19.74       2.65        0.00      82.37       1.65       0.11       0.75       ----

> <Gold.Chemscore.Fitness>
18.8874

> <Gold.Chemscore.DG>
-19.7447

> <Gold.Chemscore.ZeroCoef>
-5.4800

> <Gold.Chemscore.Hbond>
2.6517

> <Gold.Chemscore.Metal>
0.0000

> <Gold.Chemscore.Lipo>
82.3715

> <Gold.Chemscore.Internal_Hbond>
0.0000

> <Gold.Chemscore.DEClash>
0.1052

> <Gold.Chemscore.DEInternal>
0.7521

> <Gold.Chemscore.Rot>
1.6522

> <Gold.Chemscore.Internal.Correction>
   9.000000E+99

> <Gold.Chemscore.Hbonds>
donor molecule, donor type, donor heavy atom, donor atom, acceptor molecule, acceptor atom, score
      L1  H     9    31       P1  7948  0.90
      L1  H    12    32       P1  7948  0.88
      P1  H  7989  7998       L1     4  0.06

> <Gold.Chemscore.Hbond.Weighted>
-8.8568

> <Gold.Chemscore.Metal.Weighted>
-0.0000

> <Gold.Chemscore.Lipo.Weighted>
-9.6375

> <Gold.Chemscore.Internal_Hbond.Weighted>
0.0000

> <Gold.Chemscore.DEClash.Weighted>
0.1052

> <Gold.Chemscore.DEInternal.Weighted>
0.7521

> <Gold.Chemscore.Rot.Weighted>
4.2295

> <Gold.Chemscore.Internal.Correction.Weighted>
   9.000000E+99

> <Gold.Protein.RotatedTorsions>
[ 6907 6896 6895 6894 ] final   -8.36 input  -60.11 | X-H torsion
[ 7974 7965 7964 7962 ] final -154.07 input  175.53 | X-H torsion
[ 8008 7997 7996 7995 ] final   47.40 input   59.86 | X-H torsion
[ 10167 10162 10161 10158 ] final  118.64 input  -65.29 | X-H torsion
[ 10718 10713 10712 10709 ] final   56.58 input   66.30 | X-H torsion
[ 10763 10752 10751 10750 ] final  -75.19 input  -60.55 | X-H torsion
[ 11005 11000 10999 10996 ] final  111.71 input  -57.11 | X-H torsion

> <Gold.Protein.ActiveResidues>
 VAL166  LYS551  ARG553  GLY616  TRP617  ASP618  TYR619  PRO620  LYS621  CYS622 
 ASP623  PHE694  ASN695  SER759  ASP760  ASP761  ALA762  ILE779  LEU786  VAL792 
 PHE793  MET794  SER795  GLU796  ALA797  LYS798  CYS799  TRP800  GLU811  SER814 

> <Gold.Protein.RotatedAtoms>
  151.4349  135.1014  159.9652 H   0  0  0  0  0  0  0  0  0  0  0  0  # atno 6907 bound_to 6896
  152.4943  133.8583  159.7247 H   0  0  0  0  0  0  0  0  0  0  0  0  # atno 6908 bound_to 6896
  150.9129  133.6917  159.2878 H   0  0  0  0  0  0  0  0  0  0  0  0  # atno 6909 bound_to 6896
  144.7708  140.4438  143.5909 H   0  0  0  0  0  0  0  0  0  0  0  0  # atno 7974 bound_to 7965
  155.3684  140.3422  155.4242 H   0  0  0  0  0  0  0  0  0  0  0  0  # atno 8008 bound_to 7997
  156.1676  140.1621  156.8539 H   0  0  0  0  0  0  0  0  0  0  0  0  # atno 8009 bound_to 7997
  154.5200  140.0769  156.8136 H   0  0  0  0  0  0  0  0  0  0  0  0  # atno 8010 bound_to 7997
  139.6098  144.7079  151.2870 H   0  0  0  0  0  0  0  0  0  0  0  0  # atno 10167 bound_to 10162
  157.5443  130.8719  149.8868 H   0  0  0  0  0  0  0  0  0  0  0  0  # atno 10718 bound_to 10713
  154.4832  135.5839  153.6404 H   0  0  0  0  0  0  0  0  0  0  0  0  # atno 10763 bound_to 10752
  152.9850  135.6095  154.3220 H   0  0  0  0  0  0  0  0  0  0  0  0  # atno 10764 bound_to 10752
  154.3113  135.2845  155.2544 H   0  0  0  0  0  0  0  0  0  0  0  0  # atno 10765 bound_to 10752
  139.8910  134.9514  156.6474 H   0  0  0  0  0  0  0  0  0  0  0  0  # atno 11005 bound_to 11000
  145.6330  139.1539  143.2958 LP  0  0  0  0  0  0  0  0  0  0  0  0  # atno 17320 bound_to 7965
  146.1852  140.6433  142.9170 LP  0  0  0  0  0  0  0  0  0  0  0  0  # atno 17321 bound_to 7965
  140.7311  143.6862  150.7960 LP  0  0  0  0  0  0  0  0  0  0  0  0  # atno 17342 bound_to 10162
  140.0454  143.5303  152.2698 LP  0  0  0  0  0  0  0  0  0  0  0  0  # atno 17343 bound_to 10162
  156.0522  130.3715  150.1174 LP  0  0  0  0  0  0  0  0  0  0  0  0  # atno 17370 bound_to 10713
  156.9352  130.9726  151.3526 LP  0  0  0  0  0  0  0  0  0  0  0  0  # atno 17371 bound_to 10713
  140.7547  133.8868  155.8373 LP  0  0  0  0  0  0  0  0  0  0  0  0  # atno 17394 bound_to 11000
  140.9971  134.1200  157.4353 LP  0  0  0  0  0  0  0  0  0  0  0  0  # atno 17395 bound_to 11000

$$$$
