AV-unprocessed.smi:2265|AV-procd|sdf|9145|dock10
  -GOLD-   2272012353D 1   1.00000     0.00000
 Structure written by MMmdl.
 36 37  0  0  0  0  0  0  0  0  1 V2000
  152.0624  138.3655  154.3628 C   0  0  0  0  0  0  0  0  0  0  0  0
  150.5403  138.5429  154.3753 C   0  0  0  0  0  0  0  0  0  0  0  0
  150.1205  140.0142  154.4915 C   0  0  0  0  0  0  0  0  0  0  0  0
  148.6119  140.1831  154.5181 C   0  0  2  0  0  0  0  0  0  0  0  0
  147.9510  141.3647  153.8596 C   0  0  0  0  0  0  0  0  0  0  0  0
  147.9301  141.2359  155.3694 C   0  0  2  0  0  0  0  0  0  0  0  0
  148.7277  142.1650  156.1135 N   0  0  0  0  0  0  0  0  0  0  0  0
  149.5311  141.9033  157.1598 C   0  0  0  0  0  0  0  0  0  0  0  0
  149.6236  140.7625  157.6128 O   0  0  0  0  0  0  0  0  0  0  0  0
  150.1572  142.9944  157.6542 N   0  0  0  0  0  0  0  0  0  0  0  0
  151.0285  143.0771  158.7472 C   0  0  0  0  0  0  0  0  0  0  0  0
  150.9451  144.0034  159.6610 N   0  0  0  0  0  0  0  0  0  0  0  0
  151.8313  144.0540  160.7371 C   0  0  0  0  0  0  0  0  0  0  0  0
  152.8077  143.1385  160.8705 C   0  0  0  0  0  0  0  0  0  0  0  0
  152.9580  142.1100  159.9296 N   0  0  0  0  0  0  0  0  0  0  0  0
  154.0393  141.1430  160.1208 C   0  0  0  0  0  0  0  0  0  0  0  0
  152.1254  142.0141  158.8576 C   0  0  0  0  0  0  0  0  0  0  0  0
  152.2214  141.1320  158.0018 O   0  0  0  0  0  0  0  0  0  0  0  0
  152.3298  137.3123  154.2756 H   0  0  0  0  0  0  0  0  0  0  0  0
  152.5108  138.7480  155.2801 H   0  0  0  0  0  0  0  0  0  0  0  0
  152.5138  138.8941  153.5229 H   0  0  0  0  0  0  0  0  0  0  0  0
  150.1205  138.1145  153.4645 H   0  0  0  0  0  0  0  0  0  0  0  0
  150.1197  137.9751  155.2060 H   0  0  0  0  0  0  0  0  0  0  0  0
  150.5310  140.4488  155.4035 H   0  0  0  0  0  0  0  0  0  0  0  0
  150.5380  140.5800  153.6578 H   0  0  0  0  0  0  0  0  0  0  0  0
  148.0767  139.2382  154.4435 H   0  0  0  0  0  0  0  0  0  0  0  0
  148.5958  142.1246  153.4216 H   0  0  0  0  0  0  0  0  0  0  0  0
  147.0200  141.1840  153.3264 H   0  0  0  0  0  0  0  0  0  0  0  0
  146.9605  140.9703  155.7886 H   0  0  0  0  0  0  0  0  0  0  0  0
  148.6115  143.1375  155.8679 H   0  0  0  0  0  0  0  0  0  0  0  0
  149.9558  143.8607  157.1766 H   0  0  0  0  0  0  0  0  0  0  0  0
  151.6908  144.8574  161.4452 H   0  0  0  0  0  0  0  0  0  0  0  0
  153.5175  143.1371  161.6849 H   0  0  0  0  0  0  0  0  0  0  0  0
  154.7804  141.2415  159.3267 H   0  0  0  0  0  0  0  0  0  0  0  0
  153.6536  140.1226  160.1020 H   0  0  0  0  0  0  0  0  0  0  0  0
  154.5547  141.2772  161.0724 H   0  0  0  0  0  0  0  0  0  0  0  0
  1  2  1  0  0  0  0
  1 19  1  0  0  0  0
  1 20  1  0  0  0  0
  1 21  1  0  0  0  0
  2  3  1  0  0  0  0
  2 22  1  0  0  0  0
  2 23  1  0  0  0  0
  3  4  1  0  0  0  0
  3 24  1  0  0  0  0
  3 25  1  0  0  0  0
  4  6  1  0  0  0  0
  4  5  1  0  0  0  0
  4 26  1  0  0  0  0
  5  6  1  0  0  0  0
  5 27  1  0  0  0  0
  5 28  1  0  0  0  0
  6  7  1  0  0  0  0
  6 29  1  0  0  0  0
  7  8  1  0  0  0  0
  7 30  1  0  0  0  0
  8  9  2  0  0  0  0
  8 10  1  0  0  0  0
 10 11  1  0  0  0  0
 10 31  1  0  0  0  0
 11 17  1  0  0  0  0
 11 12  2  0  0  0  0
 12 13  1  0  0  0  0
 13 14  2  0  0  0  0
 13 32  1  0  0  0  0
 14 15  1  0  0  0  0
 14 33  1  0  0  0  0
 15 16  1  0  0  0  0
 15 17  1  0  0  0  0
 16 34  1  0  0  0  0
 16 35  1  0  0  0  0
 16 36  1  0  0  0  0
 17 18  2  0  0  0  0
M  END
> <s_m_source_file>
AV-unprocessed.smi

> <i_m_source_file_index>
2265

> <i_lp_mmshare_version>
43012

> <i_f3d_flags>
0

> <s_epik_input>
W0NIM11bQ0gyXVtDSDJdW0NAQEhdMVtDSDJdW0NASF0xW05IXUMoPU8pW05IXWMybltjSF1bY0hdbihbQ0gzXSljMj1P

> <s_epik_cmdline>
J2VwaWtfcHl0aG9uJywgJy1waCcsICc3LjAnLCAnLXRuJywgJzgnLCAnLW1hJywgJzIwMCcsICctbWV0YWxfYmluZGluZycsICctaW1hZScsICc8aW5maWxlLm1hZT4nLCAnLW9tYWUnLCAnPG91dGZpbGUubWFlPic=

> <r_lp_tautomer_probability>
1

> <r_epik_Ionization_Penalty>
0.000728552

> <r_epik_Ionization_Penalty_Charging>
1.67739e-07

> <r_epik_Ionization_Penalty_Neutral>
0.000728385

> <r_epik_State_Penalty>
-0

> <r_epik_Charging_Adjusted_Penalty>
1.67739e-07

> <i_epik_Tot_Q>
0

> <i_epik_Tot_abs_Q>
0

> <r_epik_Metal_State_Penalty>
-0

> <b_epik_Metal_Only>
0

> <s_lp_Force_Field>
OPLS_2005

> <r_lp_Energy>
43.9494

> <b_lp_Chiralities_Consistent>
1

> <s_lp_Variant>
AV-unprocessed.smi:2265-3

> <Gold.Version>
5.8.1

> <Gold.Id.Protein>
6NUR|6NUR_protein|mol2

> <Gold.PLP.Fitness>
42.2794

> <Gold.PLP.PLP>
-38.0758

> <Gold.PLP.part.hbond>
-1.9985

> <Gold.PLP.part.metal>
0.0000

> <Gold.PLP.part.buried>
-3.4744

> <Gold.PLP.part.nonpolar>
-32.3326

> <Gold.PLP.part.repulsive>
0.2167

> <Gold.PLP.ligand.clash>
0.0000

> <Gold.PLP.ligand.torsion>
0.9995

> <Gold.PLP.Chemscore.Hbond>
1.8800

> <Gold.PLP.Chemscore.CHOScore>
0.0000

> <Gold.PLP.Chemscore.Metal>
0.0000

> <Gold.Chemscore.Hbonds>
donor molecule, donor type, donor heavy atom, donor atom, acceptor molecule, acceptor atom, score
      L1  H     7    30       P1  8028  1.00
      L1  H    10    31       P1  8028  0.91

> <Gold.PLP.Chemscore.Internal.Correction>
0.5626

> <Gold.Rescore>
     Score         DG    S(hbond)    S(metal)    S(lipo)     H(rot)  DE(clash)    DE(int)     intcor
     13.47     -16.91       1.93        0.00      74.44       1.46       0.04       3.40       ----

> <Gold.Chemscore.Fitness>
13.4683

> <Gold.Chemscore.DG>
-16.9115

> <Gold.Chemscore.ZeroCoef>
-5.4800

> <Gold.Chemscore.Hbond>
1.9344

> <Gold.Chemscore.Metal>
0.0000

> <Gold.Chemscore.Lipo>
74.4390

> <Gold.Chemscore.Internal_Hbond>
0.0000

> <Gold.Chemscore.DEClash>
0.0411

> <Gold.Chemscore.DEInternal>
3.4021

> <Gold.Chemscore.Rot>
1.4604

> <Gold.Chemscore.Internal.Correction>
   9.000000E+99

> <Gold.Chemscore.Hbonds>
donor molecule, donor type, donor heavy atom, donor atom, acceptor molecule, acceptor atom, score
      L1  H     7    30       P1  8028  0.98
      L1  H    10    31       P1  8028  0.76

> <Gold.Chemscore.Hbond.Weighted>
-6.4609

> <Gold.Chemscore.Metal.Weighted>
-0.0000

> <Gold.Chemscore.Lipo.Weighted>
-8.7094

> <Gold.Chemscore.Internal_Hbond.Weighted>
0.0000

> <Gold.Chemscore.DEClash.Weighted>
0.0411

> <Gold.Chemscore.DEInternal.Weighted>
3.4021

> <Gold.Chemscore.Rot.Weighted>
3.7387

> <Gold.Chemscore.Internal.Correction.Weighted>
   9.000000E+99

> <Gold.Protein.RotatedTorsions>
[ 6907 6896 6895 6894 ] final   41.45 input  -60.11 | X-H torsion
[ 7974 7965 7964 7962 ] final  139.22 input  175.53 | X-H torsion
[ 8008 7997 7996 7995 ] final -139.39 input   59.86 | X-H torsion
[ 10167 10162 10161 10158 ] final  -87.13 input  -65.29 | X-H torsion
[ 10718 10713 10712 10709 ] final  142.87 input   66.30 | X-H torsion
[ 10763 10752 10751 10750 ] final  -96.99 input  -60.55 | X-H torsion
[ 11005 11000 10999 10996 ] final  -21.74 input  -57.11 | X-H torsion

> <Gold.Protein.ActiveResidues>
 VAL166  LYS551  ARG553  GLY616  TRP617  ASP618  TYR619  PRO620  LYS621  CYS622 
 ASP623  PHE694  ASN695  SER759  ASP760  ASP761  ALA762  ILE779  LEU786  VAL792 
 PHE793  MET794  SER795  GLU796  ALA797  LYS798  CYS799  TRP800  GLU811  SER814 

> <Gold.Protein.RotatedAtoms>
  152.1954  134.8635  160.0513 H   0  0  0  0  0  0  0  0  0  0  0  0  # atno 6907 bound_to 6896
  151.9508  133.3660  159.4007 H   0  0  0  0  0  0  0  0  0  0  0  0  # atno 6908 bound_to 6896
  150.6943  134.4266  159.5273 H   0  0  0  0  0  0  0  0  0  0  0  0  # atno 6909 bound_to 6896
  144.9299  139.5060  143.5623 H   0  0  0  0  0  0  0  0  0  0  0  0  # atno 7974 bound_to 7965
  155.4440  140.0534  157.3007 H   0  0  0  0  0  0  0  0  0  0  0  0  # atno 8008 bound_to 7997
  154.4805  140.2079  155.9731 H   0  0  0  0  0  0  0  0  0  0  0  0  # atno 8009 bound_to 7997
  156.1199  140.3190  155.8198 H   0  0  0  0  0  0  0  0  0  0  0  0  # atno 8010 bound_to 7997
  140.3874  143.2720  151.9307 H   0  0  0  0  0  0  0  0  0  0  0  0  # atno 10167 bound_to 10162
  157.3755  131.0985  151.0788 H   0  0  0  0  0  0  0  0  0  0  0  0  # atno 10718 bound_to 10713
  154.7288  135.5063  153.8930 H   0  0  0  0  0  0  0  0  0  0  0  0  # atno 10763 bound_to 10752
  153.0930  135.6664  153.9825 H   0  0  0  0  0  0  0  0  0  0  0  0  # atno 10764 bound_to 10752
  153.9631  135.3046  155.3411 H   0  0  0  0  0  0  0  0  0  0  0  0  # atno 10765 bound_to 10752
  140.8590  133.7802  156.0053 H   0  0  0  0  0  0  0  0  0  0  0  0  # atno 11005 bound_to 11000
  146.3242  139.8241  142.8921 LP  0  0  0  0  0  0  0  0  0  0  0  0  # atno 17320 bound_to 7965
  145.3159  141.0231  143.3528 LP  0  0  0  0  0  0  0  0  0  0  0  0  # atno 17321 bound_to 7965
  139.4791  144.5760  151.8011 LP  0  0  0  0  0  0  0  0  0  0  0  0  # atno 17342 bound_to 10162
  140.4875  144.1360  150.5944 LP  0  0  0  0  0  0  0  0  0  0  0  0  # atno 17343 bound_to 10162
  157.1876  130.6337  149.5693 LP  0  0  0  0  0  0  0  0  0  0  0  0  # atno 17370 bound_to 10713
  155.9764  130.4733  150.6528 LP  0  0  0  0  0  0  0  0  0  0  0  0  # atno 17371 bound_to 10713
  140.8704  134.2733  157.5193 LP  0  0  0  0  0  0  0  0  0  0  0  0  # atno 17394 bound_to 11000
  139.8706  134.9564  156.4237 LP  0  0  0  0  0  0  0  0  0  0  0  0  # atno 17395 bound_to 11000

$$$$
