AV-unprocessed.smi:2557|AV-procd|sdf|10031|dock9
  -GOLD-   2272014 73D 1   1.00000     0.00000
 Structure written by MMmdl.
 39 41  0  0  0  0  0  0  0  0  3 V2000
  151.8948  137.0022  154.1120 O   0  5  0  0  0  0  0  0  0  0  0  0
  151.1695  137.3958  155.0555 C   0  0  0  0  0  0  0  0  0  0  0  0
  151.1902  138.5476  155.8450 C   0  0  0  0  0  0  0  0  0  0  0  0
  152.1992  139.5857  155.6019 C   0  0  0  0  0  0  0  0  0  0  0  0
  153.0728  139.5905  154.7362 O   0  0  0  0  0  0  0  0  0  0  0  0
  152.1405  140.7062  156.4869 N   0  0  0  0  0  0  0  0  0  0  0  0
  151.2238  140.8044  157.4696 C   0  0  0  0  0  0  0  0  0  0  0  0
  151.2575  142.0200  158.3510 C   0  0  0  0  0  0  0  0  0  0  0  0
  151.1500  143.2938  157.4913 C   0  0  0  0  0  0  0  0  0  0  0  0
  151.2277  144.5566  158.3650 C   0  0  0  0  0  0  0  0  0  0  0  0
  152.5084  144.5676  159.2167 C   0  0  0  0  0  0  0  0  0  0  0  0
  152.6261  143.2919  160.0676 C   0  0  0  0  0  0  0  0  0  0  0  0
  152.5490  142.0306  159.1921 C   0  0  0  0  0  0  0  0  0  0  0  0
  150.2935  139.8529  157.6810 N   0  3  0  0  0  0  0  0  0  0  0  0
  150.2466  138.7355  156.8538 N   0  0  0  0  0  0  0  0  0  0  0  0
  150.1605  136.3601  155.3429 C   0  0  0  0  0  0  0  0  0  0  0  0
  150.5489  135.0498  155.6969 C   0  0  0  0  0  0  0  0  0  0  0  0
  149.5473  134.0925  155.9511 C   0  0  0  0  0  0  0  0  0  0  0  0
  148.2265  134.3624  155.8755 N   0  0  0  0  0  0  0  0  0  0  0  0
  147.8590  135.6148  155.5297 C   0  0  0  0  0  0  0  0  0  0  0  0
  148.7804  136.6437  155.2529 C   0  0  0  0  0  0  0  0  0  0  0  0
  150.4033  141.9863  159.0301 H   0  0  0  0  0  0  0  0  0  0  0  0
  151.9520  143.3178  156.7532 H   0  0  0  0  0  0  0  0  0  0  0  0
  150.2145  143.2836  156.9315 H   0  0  0  0  0  0  0  0  0  0  0  0
  151.1910  145.4470  157.7367 H   0  0  0  0  0  0  0  0  0  0  0  0
  150.3552  144.6034  159.0180 H   0  0  0  0  0  0  0  0  0  0  0  0
  153.3792  144.6536  158.5652 H   0  0  0  0  0  0  0  0  0  0  0  0
  152.5182  145.4466  159.8618 H   0  0  0  0  0  0  0  0  0  0  0  0
  153.5633  143.3011  160.6249 H   0  0  0  0  0  0  0  0  0  0  0  0
  151.8262  143.2719  160.8088 H   0  0  0  0  0  0  0  0  0  0  0  0
  152.5900  141.1385  159.8175 H   0  0  0  0  0  0  0  0  0  0  0  0
  153.4241  141.9940  158.5426 H   0  0  0  0  0  0  0  0  0  0  0  0
  149.6204  139.9520  158.4281 H   0  0  0  0  0  0  0  0  0  0  0  0
  149.5753  138.0336  157.1328 H   0  0  0  0  0  0  0  0  0  0  0  0
  151.5935  134.7851  155.7684 H   0  0  0  0  0  0  0  0  0  0  0  0
  149.8143  133.0826  156.2243 H   0  0  0  0  0  0  0  0  0  0  0  0
  146.7973  135.8037  155.4729 H   0  0  0  0  0  0  0  0  0  0  0  0
  148.4368  137.6305  154.9790 H   0  0  0  0  0  0  0  0  0  0  0  0
  152.7858  141.4794  156.4193 H   0  0  0  0  0  0  0  0  0  0  0  0
  1  2  1  0  0  0  0
  2  3  2  0  0  0  0
  2 16  1  0  0  0  0
  3 15  1  0  0  0  0
  3  4  1  0  0  0  0
  4  5  2  0  0  0  0
  4  6  1  0  0  0  0
  6  7  1  0  0  0  0
  6 39  1  0  0  0  0
  7  8  1  0  0  0  0
  7 14  2  0  0  0  0
  8 13  1  0  0  0  0
  8  9  1  0  0  0  0
  8 22  1  0  0  0  0
  9 10  1  0  0  0  0
  9 23  1  0  0  0  0
  9 24  1  0  0  0  0
 10 11  1  0  0  0  0
 10 25  1  0  0  0  0
 10 26  1  0  0  0  0
 11 12  1  0  0  0  0
 11 27  1  0  0  0  0
 11 28  1  0  0  0  0
 12 13  1  0  0  0  0
 12 29  1  0  0  0  0
 12 30  1  0  0  0  0
 13 31  1  0  0  0  0
 13 32  1  0  0  0  0
 14 15  1  0  0  0  0
 14 33  1  0  0  0  0
 15 34  1  0  0  0  0
 16 21  1  0  0  0  0
 16 17  2  0  0  0  0
 17 18  1  0  0  0  0
 17 35  1  0  0  0  0
 18 19  2  0  0  0  0
 18 36  1  0  0  0  0
 19 20  1  0  0  0  0
 20 21  2  0  0  0  0
 20 37  1  0  0  0  0
 21 38  1  0  0  0  0
M  CHG  1   1  -1
M  CHG  1  14   1
M  END
> <s_m_source_file>
AV-unprocessed.smi

> <i_m_source_file_index>
2557

> <i_lp_mmshare_version>
43012

> <i_f3d_flags>
0

> <s_epik_input>
W2NIXTFbY0hdbltjSF1bY0hdYzFDKD1PKUMyPUMoW09IXSlOPUMoW05IXVtOSF0yKVtDSF0zW0NIMl1bQ0gyXVtDSDJdW0NIMl1bQ0gyXTM=

> <s_epik_cmdline>
J2VwaWtfcHl0aG9uJywgJy1waCcsICc3LjAnLCAnLXRuJywgJzgnLCAnLW1hJywgJzIwMCcsICctbWV0YWxfYmluZGluZycsICctaW1hZScsICc8aW5maWxlLm1hZT4nLCAnLW9tYWUnLCAnPG91dGZpbGUubWFlPic=

> <r_epik_Ionization_Penalty>
2.4889

> <r_epik_Ionization_Penalty_Charging>
1.64109

> <r_epik_Ionization_Penalty_Neutral>
0.84781

> <r_epik_State_Penalty>
2.44612

> <r_epik_Charging_Adjusted_Penalty>
4.08721

> <i_epik_Tot_Q>
0

> <i_epik_Tot_abs_Q>
2

> <r_epik_Metal_State_Penalty>
1.55557

> <b_epik_Metal_Only>
0

> <s_epik_Chemistry_Notes>
This compound has an imine and may undergo hydrolysis.

> <s_lp_Force_Field>
OPLS_2005

> <r_lp_Energy>
23.4412

> <b_lp_Chiralities_Consistent>
1

> <s_lp_Variant>
AV-unprocessed.smi:2557-5

> <Gold.Version>
5.8.1

> <Gold.Id.Protein>
6NUR|6NUR_protein|mol2

> <Gold.PLP.Fitness>
43.0161

> <Gold.PLP.PLP>
-33.9269

> <Gold.PLP.part.hbond>
-3.0000

> <Gold.PLP.part.metal>
0.0000

> <Gold.PLP.part.buried>
-2.7317

> <Gold.PLP.part.nonpolar>
-30.1810

> <Gold.PLP.part.repulsive>
1.8953

> <Gold.PLP.ligand.clash>
0.0000

> <Gold.PLP.ligand.torsion>
1.1720

> <Gold.PLP.Chemscore.Hbond>
3.0694

> <Gold.PLP.Chemscore.CHOScore>
0.0000

> <Gold.PLP.Chemscore.Metal>
0.0000

> <Gold.Chemscore.Hbonds>
donor molecule, donor type, donor heavy atom, donor atom, acceptor molecule, acceptor atom, score
      P1  H  7989  7998       L1     5  0.07
      P1  H  7997  8009       L1     5  1.00
      P1  H 10752 10765       L1     1  2.00

> <Gold.PLP.Chemscore.Internal.Correction>
2.2250

> <Gold.Rescore>
     Score         DG    S(hbond)    S(metal)    S(lipo)     H(rot)  DE(clash)    DE(int)     intcor
     18.17     -19.58       1.83        0.00      90.25       1.00       0.15       1.27       ----

> <Gold.Chemscore.Fitness>
18.1697

> <Gold.Chemscore.DG>
-19.5803

> <Gold.Chemscore.ZeroCoef>
-5.4800

> <Gold.Chemscore.Hbond>
1.8266

> <Gold.Chemscore.Metal>
0.0000

> <Gold.Chemscore.Lipo>
90.2519

> <Gold.Chemscore.Internal_Hbond>
0.0000

> <Gold.Chemscore.DEClash>
0.1455

> <Gold.Chemscore.DEInternal>
1.2652

> <Gold.Chemscore.Rot>
1.0000

> <Gold.Chemscore.Internal.Correction>
   9.000000E+99

> <Gold.Chemscore.Hbonds>
donor molecule, donor type, donor heavy atom, donor atom, acceptor molecule, acceptor atom, score
      P1  H  7997  8009       L1     5  0.60
      P1  H 10752 10765       L1     1  0.99

> <Gold.Chemscore.Hbond.Weighted>
-6.1009

> <Gold.Chemscore.Metal.Weighted>
-0.0000

> <Gold.Chemscore.Lipo.Weighted>
-10.5595

> <Gold.Chemscore.Internal_Hbond.Weighted>
0.0000

> <Gold.Chemscore.DEClash.Weighted>
0.1455

> <Gold.Chemscore.DEInternal.Weighted>
1.2652

> <Gold.Chemscore.Rot.Weighted>
2.5600

> <Gold.Chemscore.Internal.Correction.Weighted>
   9.000000E+99

> <Gold.Protein.RotatedTorsions>
[ 6907 6896 6895 6894 ] final -124.10 input  -60.11 | X-H torsion
[ 7974 7965 7964 7962 ] final  120.86 input  175.53 | X-H torsion
[ 8008 7997 7996 7995 ] final -108.99 input   59.86 | X-H torsion
[ 10167 10162 10161 10158 ] final -155.53 input  -65.29 | X-H torsion
[ 10718 10713 10712 10709 ] final  -23.66 input   66.30 | X-H torsion
[ 10763 10752 10751 10750 ] final  154.54 input  -60.55 | X-H torsion
[ 11005 11000 10999 10996 ] final -159.13 input  -57.11 | X-H torsion

> <Gold.Protein.ActiveResidues>
 VAL166  LYS551  ARG553  GLY616  TRP617  ASP618  TYR619  PRO620  LYS621  CYS622 
 ASP623  PHE694  ASN695  SER759  ASP760  ASP761  ALA762  ILE779  LEU786  VAL792 
 PHE793  MET794  SER795  GLU796  ALA797  LYS798  CYS799  TRP800  GLU811  SER814 

> <Gold.Protein.RotatedAtoms>
  150.8735  133.7472  159.2953 H   0  0  0  0  0  0  0  0  0  0  0  0  # atno 6907 bound_to 6896
  151.5076  135.1062  159.9855 H   0  0  0  0  0  0  0  0  0  0  0  0  # atno 6908 bound_to 6896
  152.4711  133.7987  159.6997 H   0  0  0  0  0  0  0  0  0  0  0  0  # atno 6909 bound_to 6896
  145.1262  139.3357  143.4689 H   0  0  0  0  0  0  0  0  0  0  0  0  # atno 7974 bound_to 7965
  154.9525  140.0400  157.2151 H   0  0  0  0  0  0  0  0  0  0  0  0  # atno 8008 bound_to 7997
  154.7965  140.2844  155.5931 H   0  0  0  0  0  0  0  0  0  0  0  0  # atno 8009 bound_to 7997
  156.2956  140.2563  156.2824 H   0  0  0  0  0  0  0  0  0  0  0  0  # atno 8010 bound_to 7997
  139.6924  143.9399  152.2391 H   0  0  0  0  0  0  0  0  0  0  0  0  # atno 10167 bound_to 10162
  156.4880  130.4560  149.6772 H   0  0  0  0  0  0  0  0  0  0  0  0  # atno 10718 bound_to 10713
  154.1539  135.2813  155.3128 H   0  0  0  0  0  0  0  0  0  0  0  0  # atno 10763 bound_to 10752
  154.6197  135.5471  153.7565 H   0  0  0  0  0  0  0  0  0  0  0  0  # atno 10764 bound_to 10752
  153.0212  135.6436  154.1682 H   0  0  0  0  0  0  0  0  0  0  0  0  # atno 10765 bound_to 10752
  140.6460  134.4501  157.5234 H   0  0  0  0  0  0  0  0  0  0  0  0  # atno 11005 bound_to 11000
  146.3517  140.1241  142.8599 LP  0  0  0  0  0  0  0  0  0  0  0  0  # atno 17320 bound_to 7965
  145.0686  140.9139  143.4895 LP  0  0  0  0  0  0  0  0  0  0  0  0  # atno 17321 bound_to 7965
  139.9218  144.6795  150.8453 LP  0  0  0  0  0  0  0  0  0  0  0  0  # atno 17342 bound_to 10162
  140.7686  143.3369  151.2289 LP  0  0  0  0  0  0  0  0  0  0  0  0  # atno 17343 bound_to 10162
  156.3455  130.7404  151.2356 LP  0  0  0  0  0  0  0  0  0  0  0  0  # atno 17370 bound_to 10713
  157.7477  131.0392  150.4538 LP  0  0  0  0  0  0  0  0  0  0  0  0  # atno 17371 bound_to 10713
  139.9063  134.8442  156.1695 LP  0  0  0  0  0  0  0  0  0  0  0  0  # atno 17394 bound_to 11000
  141.0572  133.6859  156.1883 LP  0  0  0  0  0  0  0  0  0  0  0  0  # atno 17395 bound_to 11000

$$$$
