AV-unprocessed.smi:193|AV-procd|sdf|1513|dock1
  -GOLD-   2262019343D 1   1.00000     0.00000
 Structure written by MMmdl.
 61 65  0  0  0  0  0  0  0  0  1 V2000
  153.3131  138.5471  154.7624 C   0  0  0  0  0  0  0  0  0  0  0  0
  151.9470  139.1459  155.1276 C   0  0  1  0  0  0  0  0  0  0  0  0
  150.8000  138.1478  154.8565 C   0  0  0  0  0  0  0  0  0  0  0  0
  150.4602  137.2837  155.9863 N   0  0  0  0  0  0  0  0  0  0  0  0
  150.1821  136.0133  155.5966 C   0  0  0  0  0  0  0  0  0  0  0  0
  151.1562  135.0632  155.6110 N   0  0  0  0  0  0  0  0  0  0  0  0
  150.8759  133.8047  155.2600 C   0  0  0  0  0  0  0  0  0  0  0  0
  149.7092  133.2869  154.8720 N   0  0  0  0  0  0  0  0  0  0  0  0
  148.7290  134.2349  154.8528 C   0  0  0  0  0  0  0  0  0  0  0  0
  148.8776  135.6073  155.2006 C   0  0  0  0  0  0  0  0  0  0  0  0
  147.6612  136.2641  155.0659 N   0  0  0  0  0  0  0  0  0  0  0  0
  146.8395  135.3337  154.6641 C   0  0  0  0  0  0  0  0  0  0  0  0
  147.3985  134.0860  154.5013 N   0  0  0  0  0  0  0  0  0  0  0  0
  146.7151  132.8779  154.0646 C   0  0  0  0  0  0  0  0  0  0  0  0
  146.5460  132.7665  152.5284 C   0  0  0  0  0  0  0  0  0  0  0  0
  147.8385  132.7820  151.9485 O   0  0  0  0  0  0  0  0  0  0  0  0
  145.8647  131.4333  152.1593 C   0  0  0  0  0  0  0  0  0  0  0  0
  145.5242  131.3499  150.6607 C   0  0  0  0  0  0  0  0  0  0  0  0
  144.7246  132.4632  150.2804 O   0  0  0  0  0  0  0  0  0  0  0  0
  145.3979  133.7053  150.4448 C   0  0  0  0  0  0  0  0  0  0  0  0
  145.7317  133.9345  151.9297 C   0  0  0  0  0  0  0  0  0  0  0  0
  149.5421  137.8814  156.9578 C   0  0  0  0  0  0  0  0  0  0  0  0
  150.1995  138.9401  157.8546 C   0  0  0  0  0  0  0  0  0  0  0  0
  150.6950  140.0952  157.1044 N   0  0  0  0  0  0  0  0  0  0  0  0
  150.8727  141.1903  158.0461 C   0  0  2  0  0  0  0  0  0  0  0  0
  149.7969  142.2519  158.0927 C   0  0  0  0  0  0  0  0  0  0  0  0
  151.1376  142.5654  157.4712 C   0  0  1  0  0  0  0  0  0  0  0  0
  152.1012  143.5126  158.1518 C   0  0  0  0  0  0  0  0  0  0  0  0
  152.0057  139.7730  156.5374 C   0  0  0  0  0  0  0  0  0  0  0  0
  153.5812  137.7351  155.4378 H   0  0  0  0  0  0  0  0  0  0  0  0
  154.0992  139.3003  154.8250 H   0  0  0  0  0  0  0  0  0  0  0  0
  153.3165  138.1532  153.7455 H   0  0  0  0  0  0  0  0  0  0  0  0
  151.7835  139.9670  154.4284 H   0  0  0  0  0  0  0  0  0  0  0  0
  149.9054  138.7162  154.5985 H   0  0  0  0  0  0  0  0  0  0  0  0
  151.0266  137.5662  153.9613 H   0  0  0  0  0  0  0  0  0  0  0  0
  151.7044  133.1131  155.2991 H   0  0  0  0  0  0  0  0  0  0  0  0
  145.7964  135.5347  154.4672 H   0  0  0  0  0  0  0  0  0  0  0  0
  147.2598  132.0153  154.4519 H   0  0  0  0  0  0  0  0  0  0  0  0
  145.7372  132.8580  154.5471 H   0  0  0  0  0  0  0  0  0  0  0  0
  147.9900  131.9495  151.5281 H   0  0  0  0  0  0  0  0  0  0  0  0
  146.4924  130.5895  152.4487 H   0  0  0  0  0  0  0  0  0  0  0  0
  144.9385  131.3324  152.7265 H   0  0  0  0  0  0  0  0  0  0  0  0
  146.4289  131.3116  150.0521 H   0  0  0  0  0  0  0  0  0  0  0  0
  144.9686  130.4346  150.4562 H   0  0  0  0  0  0  0  0  0  0  0  0
  146.2995  133.7277  149.8306 H   0  0  0  0  0  0  0  0  0  0  0  0
  144.7515  134.5044  150.0819 H   0  0  0  0  0  0  0  0  0  0  0  0
  144.7980  134.0420  152.4832 H   0  0  0  0  0  0  0  0  0  0  0  0
  146.2653  134.8792  152.0404 H   0  0  0  0  0  0  0  0  0  0  0  0
  148.6869  138.3143  156.4369 H   0  0  0  0  0  0  0  0  0  0  0  0
  149.1427  137.1047  157.6117 H   0  0  0  0  0  0  0  0  0  0  0  0
  149.4300  139.2817  158.5484 H   0  0  0  0  0  0  0  0  0  0  0  0
  150.9813  138.4987  158.4746 H   0  0  0  0  0  0  0  0  0  0  0  0
  151.3572  140.9811  158.9987 H   0  0  0  0  0  0  0  0  0  0  0  0
  148.9463  142.1455  157.4219 H   0  0  0  0  0  0  0  0  0  0  0  0
  149.5706  142.6901  159.0626 H   0  0  0  0  0  0  0  0  0  0  0  0
  151.1512  142.6395  156.3851 H   0  0  0  0  0  0  0  0  0  0  0  0
  152.0445  143.4117  159.2361 H   0  0  0  0  0  0  0  0  0  0  0  0
  151.8640  144.5424  157.8849 H   0  0  0  0  0  0  0  0  0  0  0  0
  153.1217  143.2970  157.8356 H   0  0  0  0  0  0  0  0  0  0  0  0
  152.5696  139.1353  157.2200 H   0  0  0  0  0  0  0  0  0  0  0  0
  152.5962  140.6866  156.4481 H   0  0  0  0  0  0  0  0  0  0  0  0
  1  2  1  0  0  0  0
  1 30  1  0  0  0  0
  1 31  1  0  0  0  0
  1 32  1  0  0  0  0
  2 29  1  0  0  0  0
  2  3  1  0  0  0  0
  2 33  1  0  0  0  0
  3  4  1  0  0  0  0
  3 34  1  0  0  0  0
  3 35  1  0  0  0  0
  4  5  1  0  0  0  0
  4 22  1  0  0  0  0
  5 10  1  0  0  0  0
  5  6  2  0  0  0  0
  6  7  1  0  0  0  0
  7  8  2  0  0  0  0
  7 36  1  0  0  0  0
  8  9  1  0  0  0  0
  9 13  1  0  0  0  0
  9 10  2  0  0  0  0
 10 11  1  0  0  0  0
 11 12  2  0  0  0  0
 12 13  1  0  0  0  0
 12 37  1  0  0  0  0
 13 14  1  0  0  0  0
 14 15  1  0  0  0  0
 14 38  1  0  0  0  0
 14 39  1  0  0  0  0
 15 21  1  0  0  0  0
 15 16  1  0  0  0  0
 15 17  1  0  0  0  0
 16 40  1  0  0  0  0
 17 18  1  0  0  0  0
 17 41  1  0  0  0  0
 17 42  1  0  0  0  0
 18 19  1  0  0  0  0
 18 43  1  0  0  0  0
 18 44  1  0  0  0  0
 19 20  1  0  0  0  0
 20 21  1  0  0  0  0
 20 45  1  0  0  0  0
 20 46  1  0  0  0  0
 21 47  1  0  0  0  0
 21 48  1  0  0  0  0
 22 23  1  0  0  0  0
 22 49  1  0  0  0  0
 22 50  1  0  0  0  0
 23 24  1  0  0  0  0
 23 51  1  0  0  0  0
 23 52  1  0  0  0  0
 24 25  1  0  0  0  0
 24 29  1  0  0  0  0
 25 27  1  0  0  0  0
 25 26  1  0  0  0  0
 25 53  1  0  0  0  0
 26 27  1  0  0  0  0
 26 54  1  0  0  0  0
 26 55  1  0  0  0  0
 27 28  1  0  0  0  0
 27 56  1  0  0  0  0
 28 57  1  0  0  0  0
 28 58  1  0  0  0  0
 28 59  1  0  0  0  0
 29 60  1  0  0  0  0
 29 61  1  0  0  0  0
M  END
> <s_m_source_file>
AV-unprocessed.smi

> <i_m_source_file_index>
193

> <i_lp_mmshare_version>
43012

> <i_f3d_flags>
0

> <s_epik_input>
W0NIM11bQ0BASF0xW0NIMl1bQ0BIXTFOKFtDSDJdMilbQ0gyXVtDSDJdTihbQ0gyXVtDQEhdMltDSDNdKWMobltjSF1uMyljKGMzNCluW2NIXW40W0NIMl1DNShbT0hdKVtDSDJdW0NIMl1PW0NIMl1bQ0gyXTU=

> <s_epik_cmdline>
J2VwaWtfcHl0aG9uJywgJy1waCcsICc3LjAnLCAnLXRuJywgJzgnLCAnLW1hJywgJzIwMCcsICctbWV0YWxfYmluZGluZycsICctaW1hZScsICc8aW5maWxlLm1hZT4nLCAnLW9tYWUnLCAnPG91dGZpbGUubWFlPic=

> <r_lp_tautomer_probability>
1

> <r_epik_Ionization_Penalty>
1.45227

> <r_epik_Ionization_Penalty_Charging>
0

> <r_epik_Ionization_Penalty_Neutral>
1.45227

> <r_epik_State_Penalty>
2.02377

> <r_epik_Charging_Adjusted_Penalty>
2.02377

> <i_epik_Tot_Q>
0

> <i_epik_Tot_abs_Q>
0

> <r_epik_Metal_State_Penalty>
2.01937

> <b_epik_Metal_Only>
0

> <s_lp_Force_Field>
OPLS_2005

> <r_lp_Energy>
55.7491

> <b_lp_Chiralities_Consistent>
1

> <s_lp_Variant>
AV-unprocessed.smi:193-18

> <Gold.Version>
5.8.1

> <Gold.Id.Protein>
6NUR|6NUR_protein|mol2

> <Gold.PLP.Fitness>
43.3934

> <Gold.PLP.PLP>
-38.9251

> <Gold.PLP.part.hbond>
-2.0000

> <Gold.PLP.part.metal>
0.0000

> <Gold.PLP.part.buried>
-6.9598

> <Gold.PLP.part.nonpolar>
-30.1120

> <Gold.PLP.part.repulsive>
0.4244

> <Gold.PLP.ligand.clash>
0.0000

> <Gold.PLP.ligand.torsion>
1.4110

> <Gold.PLP.Chemscore.Hbond>
1.9500

> <Gold.PLP.Chemscore.CHOScore>
0.0000

> <Gold.PLP.Chemscore.Metal>
0.0000

> <Gold.Chemscore.Hbonds>
donor molecule, donor type, donor heavy atom, donor atom, acceptor molecule, acceptor atom, score
      L1  H    16    40       P1 10747  0.99
      P1  H 10752 10763       L1     6  0.92

> <Gold.PLP.Chemscore.Internal.Correction>
1.4403

> <Gold.Rescore>
     Score         DG    S(hbond)    S(metal)    S(lipo)     H(rot)  DE(clash)    DE(int)     intcor
     14.62     -16.20       1.25        0.00     103.23       2.17       0.22       1.35       ----

> <Gold.Chemscore.Fitness>
14.6250

> <Gold.Chemscore.DG>
-16.1987

> <Gold.Chemscore.ZeroCoef>
-5.4800

> <Gold.Chemscore.Hbond>
1.2535

> <Gold.Chemscore.Metal>
0.0000

> <Gold.Chemscore.Lipo>
103.2289

> <Gold.Chemscore.Internal_Hbond>
0.0000

> <Gold.Chemscore.DEClash>
0.2235

> <Gold.Chemscore.DEInternal>
1.3501

> <Gold.Chemscore.Rot>
2.1664

> <Gold.Chemscore.Internal.Correction>
   9.000000E+99

> <Gold.Chemscore.Hbonds>
donor molecule, donor type, donor heavy atom, donor atom, acceptor molecule, acceptor atom, score
      L1  H    16    40       P1 10747  0.94
      P1  H 10752 10763       L1     6  0.45

> <Gold.Chemscore.Hbond.Weighted>
-4.1868

> <Gold.Chemscore.Metal.Weighted>
-0.0000

> <Gold.Chemscore.Lipo.Weighted>
-12.0778

> <Gold.Chemscore.Internal_Hbond.Weighted>
0.0000

> <Gold.Chemscore.DEClash.Weighted>
0.2235

> <Gold.Chemscore.DEInternal.Weighted>
1.3501

> <Gold.Chemscore.Rot.Weighted>
5.5459

> <Gold.Chemscore.Internal.Correction.Weighted>
   9.000000E+99

> <Gold.Protein.RotatedTorsions>
[ 6907 6896 6895 6894 ] final  124.29 input  -60.11 | X-H torsion
[ 7974 7965 7964 7962 ] final -155.23 input  175.53 | X-H torsion
[ 8008 7997 7996 7995 ] final  -46.78 input   59.86 | X-H torsion
[ 10167 10162 10161 10158 ] final  178.71 input  -65.29 | X-H torsion
[ 10718 10713 10712 10709 ] final   33.87 input   66.30 | X-H torsion
[ 10763 10752 10751 10750 ] final   72.96 input  -60.55 | X-H torsion
[ 11005 11000 10999 10996 ] final   32.21 input  -57.11 | X-H torsion

> <Gold.Protein.ActiveResidues>
 VAL166  LYS551  ARG553  GLY616  TRP617  ASP618  TYR619  PRO620  LYS621  CYS622 
 ASP623  PHE694  ASN695  SER759  ASP760  ASP761  ALA762  ILE779  LEU786  VAL792 
 PHE793  MET794  SER795  GLU796  ALA797  LYS798  CYS799  TRP800  GLU811  SER814 

> <Gold.Protein.RotatedAtoms>
  152.4091  133.6934  159.6381 H   0  0  0  0  0  0  0  0  0  0  0  0  # atno 6907 bound_to 6896
  150.7972  133.8657  159.3253 H   0  0  0  0  0  0  0  0  0  0  0  0  # atno 6908 bound_to 6896
  151.6404  135.1015  160.0191 H   0  0  0  0  0  0  0  0  0  0  0  0  # atno 6909 bound_to 6896
  144.7650  140.4279  143.5948 H   0  0  0  0  0  0  0  0  0  0  0  0  # atno 7974 bound_to 7965
  154.4010  140.1363  156.4068 H   0  0  0  0  0  0  0  0  0  0  0  0  # atno 8008 bound_to 7997
  155.7772  140.3482  155.5257 H   0  0  0  0  0  0  0  0  0  0  0  0  # atno 8009 bound_to 7997
  155.8709  140.0971  157.1541 H   0  0  0  0  0  0  0  0  0  0  0  0  # atno 8010 bound_to 7997
  139.5305  144.2648  152.0677 H   0  0  0  0  0  0  0  0  0  0  0  0  # atno 10167 bound_to 10162
  157.3033  130.7362  149.6680 H   0  0  0  0  0  0  0  0  0  0  0  0  # atno 10718 bound_to 10713
  153.0491  135.5081  154.7822 H   0  0  0  0  0  0  0  0  0  0  0  0  # atno 10763 bound_to 10752
  154.6698  135.2951  154.9759 H   0  0  0  0  0  0  0  0  0  0  0  0  # atno 10764 bound_to 10752
  154.0581  135.6694  153.4861 H   0  0  0  0  0  0  0  0  0  0  0  0  # atno 10765 bound_to 10752
  140.2759  134.3029  155.7814 H   0  0  0  0  0  0  0  0  0  0  0  0  # atno 11005 bound_to 11000
  145.6498  139.1563  143.2869 LP  0  0  0  0  0  0  0  0  0  0  0  0  # atno 17320 bound_to 7965
  146.1750  140.6587  142.9216 LP  0  0  0  0  0  0  0  0  0  0  0  0  # atno 17321 bound_to 7965
  140.2110  144.4562  150.6385 LP  0  0  0  0  0  0  0  0  0  0  0  0  # atno 17342 bound_to 10162
  140.6480  143.2218  151.6142 LP  0  0  0  0  0  0  0  0  0  0  0  0  # atno 17343 bound_to 10162
  155.9673  130.4273  150.4739 LP  0  0  0  0  0  0  0  0  0  0  0  0  # atno 17370 bound_to 10713
  157.2724  131.0590  151.2251 LP  0  0  0  0  0  0  0  0  0  0  0  0  # atno 17371 bound_to 10713
  141.2170  133.7495  156.9406 LP  0  0  0  0  0  0  0  0  0  0  0  0  # atno 17394 bound_to 11000
  140.1329  134.9344  157.2362 LP  0  0  0  0  0  0  0  0  0  0  0  0  # atno 17395 bound_to 11000

$$$$
