AV-unprocessed.smi:3056|AV-procd|sdf|11646|dock7
  -GOLD-   2272017 43D 1   1.00000     0.00000
 Structure written by MMmdl.
 48 49  0  0  0  0  0  0  0  0  2 V2000
  144.3566  132.4199  149.7796 C   0  0  0  0  0  0  0  0  0  0  0  0
  144.7880  133.6162  150.5770 C   0  0  0  0  0  0  0  0  0  0  0  0
  146.1136  134.0146  150.9085 C   0  0  0  0  0  0  0  0  0  0  0  0
  146.1506  135.1131  151.6446 N   0  0  0  0  0  0  0  0  0  0  0  0
  144.8557  135.4661  151.7976 N   0  0  0  0  0  0  0  0  0  0  0  0
  144.5181  136.6287  152.6118 C   0  0  1  0  0  0  0  0  0  0  0  0
  143.6936  136.1883  153.8370 C   0  0  0  0  0  0  0  0  0  0  0  0
  145.7951  137.4313  152.9774 C   0  0  2  0  0  0  0  0  0  0  0  0
  146.4345  138.1132  151.7524 C   0  0  0  0  0  0  0  0  0  0  0  0
  146.7865  136.5347  153.6237 N   0  3  0  0  0  0  0  0  0  0  0  0
  147.4358  137.0585  154.8487 C   0  0  0  0  0  0  0  0  0  0  0  0
  148.9585  136.8386  154.8778 C   0  0  0  0  0  0  0  0  0  0  0  0
  149.3935  135.7403  155.2261 O   0  0  0  0  0  0  0  0  0  0  0  0
  149.7771  137.8551  154.5153 N   0  0  0  0  0  0  0  0  0  0  0  0
  151.2430  137.8425  154.5594 C   0  0  0  0  0  0  0  0  0  0  0  0
  151.7092  138.9177  155.5568 C   0  0  0  0  0  0  0  0  0  0  0  0
  151.1959  140.1892  155.1683 O   0  0  0  0  0  0  0  0  0  0  0  0
  149.7715  140.2275  155.1061 C   0  0  1  0  0  0  0  0  0  0  0  0
  149.3464  141.6458  154.7108 C   0  0  0  0  0  0  0  0  0  0  0  0
  149.2841  139.1703  154.0952 C   0  0  0  0  0  0  0  0  0  0  0  0
  144.0119  134.5722  151.1681 C   0  0  0  0  0  0  0  0  0  0  0  0
  145.1520  132.0607  149.1262 H   0  0  0  0  0  0  0  0  0  0  0  0
  143.4981  132.6442  149.1465 H   0  0  0  0  0  0  0  0  0  0  0  0
  144.0721  131.5896  150.4262 H   0  0  0  0  0  0  0  0  0  0  0  0
  147.0446  133.5346  150.6449 H   0  0  0  0  0  0  0  0  0  0  0  0
  143.8722  137.2717  152.0103 H   0  0  0  0  0  0  0  0  0  0  0  0
  143.2618  137.0416  154.3593 H   0  0  0  0  0  0  0  0  0  0  0  0
  144.3005  135.6321  154.5519 H   0  0  0  0  0  0  0  0  0  0  0  0
  142.8622  135.5488  153.5381 H   0  0  0  0  0  0  0  0  0  0  0  0
  145.5099  138.2055  153.6916 H   0  0  0  0  0  0  0  0  0  0  0  0
  145.7706  138.8580  151.3145 H   0  0  0  0  0  0  0  0  0  0  0  0
  146.6781  137.3862  150.9771 H   0  0  0  0  0  0  0  0  0  0  0  0
  147.3543  138.6360  152.0133 H   0  0  0  0  0  0  0  0  0  0  0  0
  146.3145  135.6779  153.8788 H   0  0  0  0  0  0  0  0  0  0  0  0
  147.2513  138.1325  154.8823 H   0  0  0  0  0  0  0  0  0  0  0  0
  146.9712  136.6216  155.7322 H   0  0  0  0  0  0  0  0  0  0  0  0
  151.6700  136.8828  154.8441 H   0  0  0  0  0  0  0  0  0  0  0  0
  151.6330  138.0612  153.5643 H   0  0  0  0  0  0  0  0  0  0  0  0
  151.3823  138.6774  156.5698 H   0  0  0  0  0  0  0  0  0  0  0  0
  152.7980  138.9685  155.5760 H   0  0  0  0  0  0  0  0  0  0  0  0
  149.3668  140.0048  156.0951 H   0  0  0  0  0  0  0  0  0  0  0  0
  148.2604  141.7317  154.6664 H   0  0  0  0  0  0  0  0  0  0  0  0
  149.7450  141.9198  153.7335 H   0  0  0  0  0  0  0  0  0  0  0  0
  149.7074  142.3767  155.4346 H   0  0  0  0  0  0  0  0  0  0  0  0
  149.6663  139.3936  153.0979 H   0  0  0  0  0  0  0  0  0  0  0  0
  148.1968  139.2098  154.0164 H   0  0  0  0  0  0  0  0  0  0  0  0
  142.9378  134.6807  151.1995 H   0  0  0  0  0  0  0  0  0  0  0  0
  147.4978  136.3139  152.9416 H   0  0  0  0  0  0  0  0  0  0  0  0
  1  2  1  0  0  0  0
  1 22  1  0  0  0  0
  1 23  1  0  0  0  0
  1 24  1  0  0  0  0
  2 21  2  0  0  0  0
  2  3  1  0  0  0  0
  3  4  2  0  0  0  0
  3 25  1  0  0  0  0
  4  5  1  0  0  0  0
  5  6  1  0  0  0  0
  5 21  1  0  0  0  0
  6  7  1  0  0  0  0
  6  8  1  0  0  0  0
  6 26  1  0  0  0  0
  7 27  1  0  0  0  0
  7 28  1  0  0  0  0
  7 29  1  0  0  0  0
  8  9  1  0  0  0  0
  8 10  1  0  0  0  0
  8 30  1  0  0  0  0
  9 31  1  0  0  0  0
  9 32  1  0  0  0  0
  9 33  1  0  0  0  0
 10 11  1  0  0  0  0
 10 34  1  0  0  0  0
 10 48  1  0  0  0  0
 11 12  1  0  0  0  0
 11 35  1  0  0  0  0
 11 36  1  0  0  0  0
 12 13  2  0  0  0  0
 12 14  1  0  0  0  0
 14 20  1  0  0  0  0
 14 15  1  0  0  0  0
 15 16  1  0  0  0  0
 15 37  1  0  0  0  0
 15 38  1  0  0  0  0
 16 17  1  0  0  0  0
 16 39  1  0  0  0  0
 16 40  1  0  0  0  0
 17 18  1  0  0  0  0
 18 19  1  0  0  0  0
 18 20  1  0  0  0  0
 18 41  1  0  0  0  0
 19 42  1  0  0  0  0
 19 43  1  0  0  0  0
 19 44  1  0  0  0  0
 20 45  1  0  0  0  0
 20 46  1  0  0  0  0
 21 47  1  0  0  0  0
M  CHG  1  10   1
M  END
> <s_m_source_file>
AV-unprocessed.smi

> <i_m_source_file_index>
3056

> <i_lp_mmshare_version>
43012

> <i_f3d_flags>
0

> <s_epik_input>
W0NIM11jMVtjSF1ubihbY0hdMSlbQ0BIXShbQ0gzXSlbQ0BIXShbQ0gzXSlbTkhdW0NIMl1DKD1PKU4yW0NIMl1bQ0gyXU9bQ0BASF0oW0NIM10pW0NIMl0y

> <s_epik_cmdline>
J2VwaWtfcHl0aG9uJywgJy1waCcsICc3LjAnLCAnLXRuJywgJzgnLCAnLW1hJywgJzIwMCcsICctbWV0YWxfYmluZGluZycsICctaW1hZScsICc8aW5maWxlLm1hZT4nLCAnLW9tYWUnLCAnPG91dGZpbGUubWFlPic=

> <r_lp_tautomer_probability>
1

> <r_epik_Ionization_Penalty>
0.233715

> <r_epik_Ionization_Penalty_Charging>
0.233698

> <r_epik_Ionization_Penalty_Neutral>
1.68157e-05

> <r_epik_State_Penalty>
0.225221

> <r_epik_Charging_Adjusted_Penalty>
0.458919

> <i_epik_Tot_Q>
1

> <i_epik_Tot_abs_Q>
1

> <r_epik_Metal_State_Penalty>
0.225535

> <b_epik_Metal_Only>
0

> <s_lp_Force_Field>
OPLS_2005

> <r_lp_Energy>
27.0437

> <b_lp_Chiralities_Consistent>
1

> <s_lp_Variant>
AV-unprocessed.smi:3056-2

> <Gold.Version>
5.8.1

> <Gold.Id.Protein>
6NUR|6NUR_protein|mol2

> <Gold.PLP.Fitness>
43.3654

> <Gold.PLP.PLP>
-34.6069

> <Gold.PLP.part.hbond>
-2.0000

> <Gold.PLP.part.metal>
0.0000

> <Gold.PLP.part.buried>
-0.5419

> <Gold.PLP.part.nonpolar>
-32.8915

> <Gold.PLP.part.repulsive>
1.6170

> <Gold.PLP.ligand.clash>
0.0000

> <Gold.PLP.ligand.torsion>
1.4179

> <Gold.PLP.Chemscore.Hbond>
3.0000

> <Gold.PLP.Chemscore.CHOScore>
0.8120

> <Gold.PLP.Chemscore.Metal>
0.0000

> <Gold.Chemscore.Hbonds>
donor molecule, donor type, donor heavy atom, donor atom, acceptor molecule, acceptor atom, score
      L1  H    10    48       P1  7948  2.00
      P1  H  7989  7998       L1    17  1.00
      L1  C    21    47       P1 10186  0.67

> <Gold.PLP.Chemscore.Internal.Correction>
0.1584

> <Gold.Rescore>
     Score         DG    S(hbond)    S(metal)    S(lipo)     H(rot)  DE(clash)    DE(int)     intcor
     13.35     -15.50       1.46        0.00      81.92       1.74       0.55       1.60       ----

> <Gold.Chemscore.Fitness>
13.3500

> <Gold.Chemscore.DG>
-15.4972

> <Gold.Chemscore.ZeroCoef>
-5.4800

> <Gold.Chemscore.Hbond>
1.4596

> <Gold.Chemscore.Metal>
0.0000

> <Gold.Chemscore.Lipo>
81.9217

> <Gold.Chemscore.Internal_Hbond>
0.0000

> <Gold.Chemscore.DEClash>
0.5461

> <Gold.Chemscore.DEInternal>
1.6011

> <Gold.Chemscore.Rot>
1.7354

> <Gold.Chemscore.Internal.Correction>
   9.000000E+99

> <Gold.Chemscore.Hbonds>
donor molecule, donor type, donor heavy atom, donor atom, acceptor molecule, acceptor atom, score
      L1  H    10    48       P1  7948  1.00
      P1  H  7989  7998       L1    17  0.29

> <Gold.Chemscore.Hbond.Weighted>
-4.8750

> <Gold.Chemscore.Metal.Weighted>
-0.0000

> <Gold.Chemscore.Lipo.Weighted>
-9.5848

> <Gold.Chemscore.Internal_Hbond.Weighted>
0.0000

> <Gold.Chemscore.DEClash.Weighted>
0.5461

> <Gold.Chemscore.DEInternal.Weighted>
1.6011

> <Gold.Chemscore.Rot.Weighted>
4.4426

> <Gold.Chemscore.Internal.Correction.Weighted>
   9.000000E+99

> <Gold.Protein.RotatedTorsions>
[ 6907 6896 6895 6894 ] final   31.80 input  -60.11 | X-H torsion
[ 7974 7965 7964 7962 ] final  -35.58 input  175.53 | X-H torsion
[ 8008 7997 7996 7995 ] final  135.35 input   59.86 | X-H torsion
[ 10167 10162 10161 10158 ] final  128.19 input  -65.29 | X-H torsion
[ 10718 10713 10712 10709 ] final  143.36 input   66.30 | X-H torsion
[ 10763 10752 10751 10750 ] final  -35.09 input  -60.55 | X-H torsion
[ 11005 11000 10999 10996 ] final  -44.55 input  -57.11 | X-H torsion

> <Gold.Protein.ActiveResidues>
 VAL166  LYS551  ARG553  GLY616  TRP617  ASP618  TYR619  PRO620  LYS621  CYS622 
 ASP623  PHE694  ASN695  SER759  ASP760  ASP761  ALA762  ILE779  LEU786  VAL792 
 PHE793  MET794  SER795  GLU796  ALA797  LYS798  CYS799  TRP800  GLU811  SER814 

> <Gold.Protein.RotatedAtoms>
  152.0655  134.9567  160.0574 H   0  0  0  0  0  0  0  0  0  0  0  0  # atno 6907 bound_to 6896
  152.0914  133.4197  159.4554 H   0  0  0  0  0  0  0  0  0  0  0  0  # atno 6908 bound_to 6896
  150.6837  134.2787  159.4661 H   0  0  0  0  0  0  0  0  0  0  0  0  # atno 6909 bound_to 6896
  146.0734  140.6177  142.8942 H   0  0  0  0  0  0  0  0  0  0  0  0  # atno 7974 bound_to 7965
  156.3002  140.2473  156.3567 H   0  0  0  0  0  0  0  0  0  0  0  0  # atno 8008 bound_to 7997
  154.8915  140.0409  157.1861 H   0  0  0  0  0  0  0  0  0  0  0  0  # atno 8009 bound_to 7997
  154.8592  140.2918  155.5553 H   0  0  0  0  0  0  0  0  0  0  0  0  # atno 8010 bound_to 7997
  139.5540  144.6835  151.4238 H   0  0  0  0  0  0  0  0  0  0  0  0  # atno 10167 bound_to 10162
  157.3699  131.0977  151.0838 H   0  0  0  0  0  0  0  0  0  0  0  0  # atno 10718 bound_to 10713
  153.8575  135.6843  153.4786 H   0  0  0  0  0  0  0  0  0  0  0  0  # atno 10763 bound_to 10752
  153.1361  135.4677  154.9422 H   0  0  0  0  0  0  0  0  0  0  0  0  # atno 10764 bound_to 10752
  154.7774  135.3257  154.8012 H   0  0  0  0  0  0  0  0  0  0  0  0  # atno 10765 bound_to 10752
  141.0458  133.6762  156.2889 H   0  0  0  0  0  0  0  0  0  0  0  0  # atno 11005 bound_to 11000
  144.7246  140.4483  143.6983 LP  0  0  0  0  0  0  0  0  0  0  0  0  # atno 17320 bound_to 7965
  145.6350  139.1541  143.2947 LP  0  0  0  0  0  0  0  0  0  0  0  0  # atno 17321 bound_to 7965
  140.6809  143.8084  150.7120 LP  0  0  0  0  0  0  0  0  0  0  0  0  # atno 17342 bound_to 10162
  140.1537  143.4335  152.2114 LP  0  0  0  0  0  0  0  0  0  0  0  0  # atno 17343 bound_to 10162
  157.1946  130.6367  149.5716 LP  0  0  0  0  0  0  0  0  0  0  0  0  # atno 17370 bound_to 10713
  155.9753  130.4711  150.6452 LP  0  0  0  0  0  0  0  0  0  0  0  0  # atno 17371 bound_to 10713
  140.6149  134.5420  157.5539 LP  0  0  0  0  0  0  0  0  0  0  0  0  # atno 17394 bound_to 11000
  139.9310  134.7963  156.0930 LP  0  0  0  0  0  0  0  0  0  0  0  0  # atno 17395 bound_to 11000

$$$$
