AV-unprocessed.smi:2448|AV-procd|sdf|9659|dock4
  -GOLD-   2272013293D 1   1.00000     0.00000
 Structure written by MMmdl.
 38 39  0  0  0  0  0  0  0  0  2 V2000
  144.4164  135.5125  149.8124 O   0  0  0  0  0  0  0  0  0  0  0  0
  145.0981  135.0319  150.9579 C   0  0  1  0  0  0  0  0  0  0  0  0
  145.8746  136.2087  151.5835 C   0  0  0  0  0  0  0  0  0  0  0  0
  144.9892  137.3130  151.9594 N   0  0  0  0  0  0  0  0  0  0  0  0
  145.5359  138.3057  152.8964 C   0  0  2  0  0  0  0  0  0  0  0  0
  146.9356  138.8288  152.4789 C   0  0  0  0  0  0  0  0  0  0  0  0
  147.4134  140.0744  153.2083 C   0  0  0  0  0  0  0  0  0  0  0  0
  146.6615  141.2696  153.1488 C   0  0  0  0  0  0  0  0  0  0  0  0
  147.1273  142.4127  153.8297 C   0  0  0  0  0  0  0  0  0  0  0  0
  148.2846  142.3569  154.5243 N   0  3  0  0  0  0  0  0  0  0  0  0
  149.0390  141.2388  154.6002 C   0  0  0  0  0  0  0  0  0  0  0  0
  148.6234  140.0650  153.9388 C   0  0  0  0  0  0  0  0  0  0  0  0
  145.5725  137.7027  154.3168 C   0  0  0  0  0  0  0  0  0  0  0  0
  146.5976  136.8563  154.4234 F   0  0  0  0  0  0  0  0  0  0  0  0
  145.7075  138.6615  155.2338 F   0  0  0  0  0  0  0  0  0  0  0  0
  144.4504  137.0252  154.5599 F   0  0  0  0  0  0  0  0  0  0  0  0
  144.0397  134.4749  151.9246 C   0  0  0  0  0  0  0  0  0  0  0  0
  143.5450  133.1380  151.3627 C   0  0  0  0  0  0  0  0  0  0  0  0
  144.9435  132.3442  150.5324 S   0  0  0  0  0  0  0  0  0  0  0  0
  145.9823  133.8294  150.5789 C   0  0  0  0  0  0  0  0  0  0  0  0
  144.8143  135.1355  149.0430 H   0  0  0  0  0  0  0  0  0  0  0  0
  146.4338  135.8480  152.4443 H   0  0  0  0  0  0  0  0  0  0  0  0
  146.6091  136.5685  150.8621 H   0  0  0  0  0  0  0  0  0  0  0  0
  144.6638  137.7860  151.1217 H   0  0  0  0  0  0  0  0  0  0  0  0
  144.8485  139.1503  152.9521 H   0  0  0  0  0  0  0  0  0  0  0  0
  147.6855  138.0619  152.6733 H   0  0  0  0  0  0  0  0  0  0  0  0
  146.9606  138.9954  151.4011 H   0  0  0  0  0  0  0  0  0  0  0  0
  145.7361  141.3117  152.5925 H   0  0  0  0  0  0  0  0  0  0  0  0
  146.6136  143.3629  153.8382 H   0  0  0  0  0  0  0  0  0  0  0  0
  149.9465  141.3172  155.1809 H   0  0  0  0  0  0  0  0  0  0  0  0
  149.2285  139.1717  153.9935 H   0  0  0  0  0  0  0  0  0  0  0  0
  144.4989  134.2932  152.8974 H   0  0  0  0  0  0  0  0  0  0  0  0
  143.2175  135.1724  152.0899 H   0  0  0  0  0  0  0  0  0  0  0  0
  143.1331  132.4933  152.1393 H   0  0  0  0  0  0  0  0  0  0  0  0
  142.7623  133.3078  150.6228 H   0  0  0  0  0  0  0  0  0  0  0  0
  146.5041  133.9712  149.6316 H   0  0  0  0  0  0  0  0  0  0  0  0
  146.7398  133.6679  151.3466 H   0  0  0  0  0  0  0  0  0  0  0  0
  148.6043  143.1960  155.0090 H   0  0  0  0  0  0  0  0  0  0  0  0
  1  2  1  0  0  0  0
  1 21  1  0  0  0  0
  2 20  1  0  0  0  0
  2  3  1  0  0  0  0
  2 17  1  0  0  0  0
  3  4  1  0  0  0  0
  3 22  1  0  0  0  0
  3 23  1  0  0  0  0
  4  5  1  0  0  0  0
  4 24  1  0  0  0  0
  5  6  1  0  0  0  0
  5 13  1  0  0  0  0
  5 25  1  0  0  0  0
  6  7  1  0  0  0  0
  6 26  1  0  0  0  0
  6 27  1  0  0  0  0
  7 12  1  0  0  0  0
  7  8  2  0  0  0  0
  8  9  1  0  0  0  0
  8 28  1  0  0  0  0
  9 10  2  0  0  0  0
  9 29  1  0  0  0  0
 10 11  1  0  0  0  0
 10 38  1  0  0  0  0
 11 12  2  0  0  0  0
 11 30  1  0  0  0  0
 12 31  1  0  0  0  0
 13 14  1  0  0  0  0
 13 15  1  0  0  0  0
 13 16  1  0  0  0  0
 17 18  1  0  0  0  0
 17 32  1  0  0  0  0
 17 33  1  0  0  0  0
 18 19  1  0  0  0  0
 18 34  1  0  0  0  0
 18 35  1  0  0  0  0
 19 20  1  0  0  0  0
 20 36  1  0  0  0  0
 20 37  1  0  0  0  0
M  CHG  1  10   1
M  END
> <s_m_source_file>
AV-unprocessed.smi

> <i_m_source_file_index>
2448

> <i_lp_mmshare_version>
43012

> <i_f3d_flags>
0

> <s_epik_input>
W0NIMl0xU1tDSDJdW0NIMl1bQ0BAXTEoW09IXSlbQ0gyXVtOSF1bQ0BASF0oQyhGKShGKUYpW0NIMl1jMltjSF1bY0hdbltjSF1bY0hdMg==

> <s_epik_cmdline>
J2VwaWtfcHl0aG9uJywgJy1waCcsICc3LjAnLCAnLXRuJywgJzgnLCAnLW1hJywgJzIwMCcsICctbWV0YWxfYmluZGluZycsICctaW1hZScsICc8aW5maWxlLm1hZT4nLCAnLW9tYWUnLCAnPG91dGZpbGUubWFlPic=

> <r_epik_Ionization_Penalty>
1.11129

> <r_epik_Ionization_Penalty_Charging>
1.08366

> <r_epik_Ionization_Penalty_Neutral>
0.0276276

> <r_epik_State_Penalty>
1.93785

> <r_epik_Charging_Adjusted_Penalty>
3.02151

> <i_epik_Tot_Q>
1

> <i_epik_Tot_abs_Q>
1

> <r_epik_Metal_State_Penalty>
5.97911

> <b_epik_Metal_Only>
0

> <s_lp_Force_Field>
OPLS_2005

> <r_lp_Energy>
39.4187

> <b_lp_Chiralities_Consistent>
1

> <s_lp_Variant>
AV-unprocessed.smi:2448-9

> <Gold.Version>
5.8.1

> <Gold.Id.Protein>
6NUR|6NUR_protein|mol2

> <Gold.PLP.Fitness>
44.7341

> <Gold.PLP.PLP>
-33.1856

> <Gold.PLP.part.hbond>
-3.9020

> <Gold.PLP.part.metal>
0.0000

> <Gold.PLP.part.buried>
-0.0094

> <Gold.PLP.part.nonpolar>
-29.3909

> <Gold.PLP.part.repulsive>
0.1897

> <Gold.PLP.ligand.clash>
0.0000

> <Gold.PLP.ligand.torsion>
0.5412

> <Gold.PLP.Chemscore.Hbond>
4.0000

> <Gold.PLP.Chemscore.CHOScore>
0.0000

> <Gold.PLP.Chemscore.Metal>
0.0000

> <Gold.Chemscore.Hbonds>
donor molecule, donor type, donor heavy atom, donor atom, acceptor molecule, acceptor atom, score
      L1  H     1    21       P1  7921  1.00
      L1  H     4    24       P1 10171  1.00
      L1  H    10    38       P1  8028  2.00

> <Gold.PLP.Chemscore.Internal.Correction>
0.6309

> <Gold.Rescore>
     Score         DG    S(hbond)    S(metal)    S(lipo)     H(rot)  DE(clash)    DE(int)     intcor
     17.09     -19.28       2.85        0.00      89.59       2.42       1.33       0.87       ----

> <Gold.Chemscore.Fitness>
17.0855

> <Gold.Chemscore.DG>
-19.2843

> <Gold.Chemscore.ZeroCoef>
-5.4800

> <Gold.Chemscore.Hbond>
2.8533

> <Gold.Chemscore.Metal>
0.0000

> <Gold.Chemscore.Lipo>
89.5858

> <Gold.Chemscore.Internal_Hbond>
0.0000

> <Gold.Chemscore.DEClash>
1.3253

> <Gold.Chemscore.DEInternal>
0.8736

> <Gold.Chemscore.Rot>
2.4247

> <Gold.Chemscore.Internal.Correction>
   9.000000E+99

> <Gold.Chemscore.Hbonds>
donor molecule, donor type, donor heavy atom, donor atom, acceptor molecule, acceptor atom, score
      L1  H     1    21       P1  7921  0.98
      L1  H     4    24       P1 10171  1.00
      L1  H    10    38       P1  8028  1.00

> <Gold.Chemscore.Hbond.Weighted>
-9.5300

> <Gold.Chemscore.Metal.Weighted>
-0.0000

> <Gold.Chemscore.Lipo.Weighted>
-10.4815

> <Gold.Chemscore.Internal_Hbond.Weighted>
0.0000

> <Gold.Chemscore.DEClash.Weighted>
1.3253

> <Gold.Chemscore.DEInternal.Weighted>
0.8736

> <Gold.Chemscore.Rot.Weighted>
6.2072

> <Gold.Chemscore.Internal.Correction.Weighted>
   9.000000E+99

> <Gold.Protein.RotatedTorsions>
[ 6907 6896 6895 6894 ] final  103.73 input  -60.11 | X-H torsion
[ 7974 7965 7964 7962 ] final -100.54 input  175.53 | X-H torsion
[ 8008 7997 7996 7995 ] final -166.92 input   59.86 | X-H torsion
[ 10167 10162 10161 10158 ] final  126.96 input  -65.29 | X-H torsion
[ 10718 10713 10712 10709 ] final   29.20 input   66.30 | X-H torsion
[ 10763 10752 10751 10750 ] final  -11.55 input  -60.55 | X-H torsion
[ 11005 11000 10999 10996 ] final   94.17 input  -57.11 | X-H torsion

> <Gold.Protein.ActiveResidues>
 VAL166  LYS551  ARG553  GLY616  TRP617  ASP618  TYR619  PRO620  LYS621  CYS622 
 ASP623  PHE694  ASN695  SER759  ASP760  ASP761  ALA762  ILE779  LEU786  VAL792 
 PHE793  MET794  SER795  GLU796  ALA797  LYS798  CYS799  TRP800  GLU811  SER814 

> <Gold.Protein.RotatedAtoms>
  152.5286  133.9783  159.7794 H   0  0  0  0  0  0  0  0  0  0  0  0  # atno 6907 bound_to 6896
  151.0041  133.6019  159.2698 H   0  0  0  0  0  0  0  0  0  0  0  0  # atno 6908 bound_to 6896
  151.3118  135.0802  159.9328 H   0  0  0  0  0  0  0  0  0  0  0  0  # atno 6909 bound_to 6896
  145.2932  140.9358  143.2866 H   0  0  0  0  0  0  0  0  0  0  0  0  # atno 7974 bound_to 7965
  155.8705  140.0992  157.1553 H   0  0  0  0  0  0  0  0  0  0  0  0  # atno 8008 bound_to 7997
  154.3997  140.1348  156.4136 H   0  0  0  0  0  0  0  0  0  0  0  0  # atno 8009 bound_to 7997
  155.7755  140.3460  155.5272 H   0  0  0  0  0  0  0  0  0  0  0  0  # atno 8010 bound_to 7997
  139.5603  144.6877  151.4062 H   0  0  0  0  0  0  0  0  0  0  0  0  # atno 10167 bound_to 10162
  157.2435  130.7080  149.6370 H   0  0  0  0  0  0  0  0  0  0  0  0  # atno 10718 bound_to 10713
  153.4855  135.7017  153.5914 H   0  0  0  0  0  0  0  0  0  0  0  0  # atno 10763 bound_to 10752
  153.4109  135.3849  155.2050 H   0  0  0  0  0  0  0  0  0  0  0  0  # atno 10764 bound_to 10752
  154.8719  135.3904  154.4309 H   0  0  0  0  0  0  0  0  0  0  0  0  # atno 10765 bound_to 10752
  139.8801  134.8830  156.3824 H   0  0  0  0  0  0  0  0  0  0  0  0  # atno 11005 bound_to 11000
  144.9155  139.4475  143.6566 LP  0  0  0  0  0  0  0  0  0  0  0  0  # atno 17320 bound_to 7965
  146.3178  139.7987  142.8970 LP  0  0  0  0  0  0  0  0  0  0  0  0  # atno 17321 bound_to 7965
  140.6882  143.7924  150.7216 LP  0  0  0  0  0  0  0  0  0  0  0  0  # atno 17342 bound_to 10162
  140.1398  143.4451  152.2201 LP  0  0  0  0  0  0  0  0  0  0  0  0  # atno 17343 bound_to 10162
  155.9669  130.4450  150.5485 LP  0  0  0  0  0  0  0  0  0  0  0  0  # atno 17370 bound_to 10713
  157.3353  131.0707  151.1829 LP  0  0  0  0  0  0  0  0  0  0  0  0  # atno 17371 bound_to 10713
  140.9389  133.7528  156.0121 LP  0  0  0  0  0  0  0  0  0  0  0  0  # atno 17394 bound_to 11000
  140.8242  134.3253  157.5371 LP  0  0  0  0  0  0  0  0  0  0  0  0  # atno 17395 bound_to 11000

$$$$
