AV-unprocessed.smi:3116|AV-procd|sdf|11870|dock9
  -GOLD-   2272017253D 1   1.00000     0.00000
 Structure written by MMmdl.
 33 33  0  0  0  0  0  0  0  0  1 V2000
  146.5197  138.8061  151.6274 C   0  0  0  0  0  0  0  0  0  0  0  0
  146.8817  139.1609  153.0847 C   0  0  2  0  0  0  0  0  0  0  0  0
  148.3351  139.3077  153.2642 N   0  0  0  0  0  0  0  0  0  0  0  0
  148.7216  140.0153  154.4831 C   0  0  2  0  0  0  0  0  0  0  0  0
  148.4126  141.5103  154.2705 C   0  0  0  0  0  0  0  0  0  0  0  0
  150.2196  139.7260  154.7692 C   0  0  2  0  0  0  0  0  0  0  0  0
  150.5395  138.2182  154.7676 C   0  0  0  0  0  0  0  0  0  0  0  0
  150.6675  140.3343  156.0163 N   0  0  0  0  0  0  0  0  0  0  0  0
  150.6728  141.6710  156.3585 C   0  0  0  0  0  0  0  0  0  0  0  0
  151.1689  141.7672  157.6269 C   0  0  0  0  0  0  0  0  0  0  0  0
  151.4449  140.4182  157.9845 C   0  0  0  0  0  0  0  0  0  0  0  0
  151.1432  139.5633  157.0210 N   0  0  0  0  0  0  0  0  0  0  0  0
  146.3430  138.1201  154.0763 C   0  0  0  0  0  0  0  0  0  0  0  0
  146.8116  136.8755  153.9528 N   0  0  0  0  0  0  0  0  0  0  0  0
  145.5107  138.4191  154.9310 O   0  0  0  0  0  0  0  0  0  0  0  0
  145.4495  138.6258  151.5182 H   0  0  0  0  0  0  0  0  0  0  0  0
  147.0441  137.9113  151.2893 H   0  0  0  0  0  0  0  0  0  0  0  0
  146.7742  139.6161  150.9439 H   0  0  0  0  0  0  0  0  0  0  0  0
  146.3973  140.1054  153.3397 H   0  0  0  0  0  0  0  0  0  0  0  0
  148.7712  139.7388  152.4617 H   0  0  0  0  0  0  0  0  0  0  0  0
  148.1383  139.6672  155.3373 H   0  0  0  0  0  0  0  0  0  0  0  0
  148.5978  142.0905  155.1745 H   0  0  0  0  0  0  0  0  0  0  0  0
  147.3675  141.6685  154.0039 H   0  0  0  0  0  0  0  0  0  0  0  0
  149.0252  141.9336  153.4737 H   0  0  0  0  0  0  0  0  0  0  0  0
  150.8109  140.1866  153.9756 H   0  0  0  0  0  0  0  0  0  0  0  0
  150.3324  137.7687  153.7964 H   0  0  0  0  0  0  0  0  0  0  0  0
  149.9486  137.6823  155.5110 H   0  0  0  0  0  0  0  0  0  0  0  0
  151.5926  138.0410  154.9883 H   0  0  0  0  0  0  0  0  0  0  0  0
  150.3243  142.4344  155.6787 H   0  0  0  0  0  0  0  0  0  0  0  0
  151.3123  142.6645  158.2104 H   0  0  0  0  0  0  0  0  0  0  0  0
  151.8515  140.0370  158.9096 H   0  0  0  0  0  0  0  0  0  0  0  0
  146.4918  136.1539  154.5824 H   0  0  0  0  0  0  0  0  0  0  0  0
  147.4862  136.6625  153.2324 H   0  0  0  0  0  0  0  0  0  0  0  0
  1  2  1  0  0  0  0
  1 16  1  0  0  0  0
  1 17  1  0  0  0  0
  1 18  1  0  0  0  0
  2  3  1  0  0  0  0
  2 13  1  0  0  0  0
  2 19  1  0  0  0  0
  3  4  1  0  0  0  0
  3 20  1  0  0  0  0
  4  5  1  0  0  0  0
  4  6  1  0  0  0  0
  4 21  1  0  0  0  0
  5 22  1  0  0  0  0
  5 23  1  0  0  0  0
  5 24  1  0  0  0  0
  6  7  1  0  0  0  0
  6  8  1  0  0  0  0
  6 25  1  0  0  0  0
  7 26  1  0  0  0  0
  7 27  1  0  0  0  0
  7 28  1  0  0  0  0
  8 12  1  0  0  0  0
  8  9  1  0  0  0  0
  9 10  2  0  0  0  0
  9 29  1  0  0  0  0
 10 11  1  0  0  0  0
 10 30  1  0  0  0  0
 11 12  2  0  0  0  0
 11 31  1  0  0  0  0
 13 14  1  0  0  0  0
 13 15  2  0  0  0  0
 14 32  1  0  0  0  0
 14 33  1  0  0  0  0
M  END
> <s_m_source_file>
AV-unprocessed.smi

> <i_m_source_file_index>
3116

> <i_lp_mmshare_version>
43012

> <i_f3d_flags>
0

> <s_epik_input>
W05IMl1DKD1PKVtDQEhdKFtDSDNdKVtOSF1bQ0BIXShbQ0gzXSlbQ0BIXShbQ0gzXSluMVtjSF1bY0hdW2NIXW4x

> <s_epik_cmdline>
J2VwaWtfcHl0aG9uJywgJy1waCcsICc3LjAnLCAnLXRuJywgJzgnLCAnLW1hJywgJzIwMCcsICctbWV0YWxfYmluZGluZycsICctaW1hZScsICc8aW5maWxlLm1hZT4nLCAnLW9tYWUnLCAnPG91dGZpbGUubWFlPic=

> <r_lp_tautomer_probability>
1

> <r_epik_Ionization_Penalty>
0.865977

> <r_epik_Ionization_Penalty_Charging>
0

> <r_epik_Ionization_Penalty_Neutral>
0.865977

> <r_epik_State_Penalty>
0.901888

> <r_epik_Charging_Adjusted_Penalty>
0.901888

> <i_epik_Tot_Q>
0

> <i_epik_Tot_abs_Q>
0

> <r_epik_Metal_State_Penalty>
0.901181

> <b_epik_Metal_Only>
0

> <s_lp_Force_Field>
OPLS_2005

> <r_lp_Energy>
9.43225

> <b_lp_Chiralities_Consistent>
1

> <s_lp_Variant>
AV-unprocessed.smi:3116-9

> <Gold.Version>
5.8.1

> <Gold.Id.Protein>
6NUR|6NUR_protein|mol2

> <Gold.PLP.Fitness>
38.3328

> <Gold.PLP.PLP>
-29.8669

> <Gold.PLP.part.hbond>
-1.8060

> <Gold.PLP.part.metal>
0.0000

> <Gold.PLP.part.buried>
-2.2218

> <Gold.PLP.part.nonpolar>
-27.1252

> <Gold.PLP.part.repulsive>
0.0502

> <Gold.PLP.ligand.clash>
0.0000

> <Gold.PLP.ligand.torsion>
0.3208

> <Gold.PLP.Chemscore.Hbond>
1.9913

> <Gold.PLP.Chemscore.CHOScore>
1.0000

> <Gold.PLP.Chemscore.Metal>
0.0000

> <Gold.Chemscore.Hbonds>
donor molecule, donor type, donor heavy atom, donor atom, acceptor molecule, acceptor atom, score
      L1  H     3    20       P1  7957  1.00
      L1  H    14    33       P1  7948  0.94
      L1  C     9    29       P1  8028  0.58

> <Gold.PLP.Chemscore.Internal.Correction>
0.1338

> <Gold.Rescore>
     Score         DG    S(hbond)    S(metal)    S(lipo)     H(rot)  DE(clash)    DE(int)     intcor
     12.96     -13.52       1.99        0.00      64.22       2.38       0.20       0.36       ----

> <Gold.Chemscore.Fitness>
12.9605

> <Gold.Chemscore.DG>
-13.5216

> <Gold.Chemscore.ZeroCoef>
-5.4800

> <Gold.Chemscore.Hbond>
1.9851

> <Gold.Chemscore.Metal>
0.0000

> <Gold.Chemscore.Lipo>
64.2171

> <Gold.Chemscore.Internal_Hbond>
0.0000

> <Gold.Chemscore.DEClash>
0.2047

> <Gold.Chemscore.DEInternal>
0.3563

> <Gold.Chemscore.Rot>
2.3836

> <Gold.Chemscore.Internal.Correction>
   9.000000E+99

> <Gold.Chemscore.Hbonds>
donor molecule, donor type, donor heavy atom, donor atom, acceptor molecule, acceptor atom, score
      L1  H     3    20       P1  7957  0.97
      L1  H    14    33       P1  7948  0.90

> <Gold.Chemscore.Hbond.Weighted>
-6.6302

> <Gold.Chemscore.Metal.Weighted>
-0.0000

> <Gold.Chemscore.Lipo.Weighted>
-7.5134

> <Gold.Chemscore.Internal_Hbond.Weighted>
0.0000

> <Gold.Chemscore.DEClash.Weighted>
0.2047

> <Gold.Chemscore.DEInternal.Weighted>
0.3563

> <Gold.Chemscore.Rot.Weighted>
6.1020

> <Gold.Chemscore.Internal.Correction.Weighted>
   9.000000E+99

> <Gold.Protein.RotatedTorsions>
[ 6907 6896 6895 6894 ] final  -38.43 input  -60.11 | X-H torsion
[ 7974 7965 7964 7962 ] final  -74.63 input  175.53 | X-H torsion
[ 8008 7997 7996 7995 ] final   11.80 input   59.86 | X-H torsion
[ 10167 10162 10161 10158 ] final   27.82 input  -65.29 | X-H torsion
[ 10718 10713 10712 10709 ] final -158.26 input   66.30 | X-H torsion
[ 10763 10752 10751 10750 ] final -104.42 input  -60.55 | X-H torsion
[ 11005 11000 10999 10996 ] final  -83.52 input  -57.11 | X-H torsion

> <Gold.Protein.ActiveResidues>
 VAL166  LYS551  ARG553  GLY616  TRP617  ASP618  TYR619  PRO620  LYS621  CYS622 
 ASP623  PHE694  ASN695  SER759  ASP760  ASP761  ALA762  ILE779  LEU786  VAL792 
 PHE793  MET794  SER795  GLU796  ALA797  LYS798  CYS799  TRP800  GLU811  SER814 

> <Gold.Protein.RotatedAtoms>
  151.0025  134.9333  159.7961 H   0  0  0  0  0  0  0  0  0  0  0  0  # atno 6907 bound_to 6896
  152.5282  134.3135  159.9132 H   0  0  0  0  0  0  0  0  0  0  0  0  # atno 6908 bound_to 6896
  151.3140  133.4026  159.2683 H   0  0  0  0  0  0  0  0  0  0  0  0  # atno 6909 bound_to 6896
  145.6366  140.9323  143.1058 H   0  0  0  0  0  0  0  0  0  0  0  0  # atno 7974 bound_to 7965
  154.8119  140.2869  155.5847 H   0  0  0  0  0  0  0  0  0  0  0  0  # atno 8008 bound_to 7997
  156.2989  140.2566  156.2938 H   0  0  0  0  0  0  0  0  0  0  0  0  # atno 8009 bound_to 7997
  154.9438  140.0381  157.2099 H   0  0  0  0  0  0  0  0  0  0  0  0  # atno 8010 bound_to 7997
  140.4905  144.0474  150.6295 H   0  0  0  0  0  0  0  0  0  0  0  0  # atno 10167 bound_to 10162
  156.5517  130.8608  151.2782 H   0  0  0  0  0  0  0  0  0  0  0  0  # atno 10718 bound_to 10713
  154.7877  135.4787  153.9982 H   0  0  0  0  0  0  0  0  0  0  0  0  # atno 10763 bound_to 10752
  153.1584  135.6804  153.8785 H   0  0  0  0  0  0  0  0  0  0  0  0  # atno 10764 bound_to 10752
  153.8407  135.3180  155.3404 H   0  0  0  0  0  0  0  0  0  0  0  0  # atno 10765 bound_to 10752
  141.1657  133.7298  156.8732 H   0  0  0  0  0  0  0  0  0  0  0  0  # atno 11005 bound_to 11000
  144.7173  139.8151  143.7394 LP  0  0  0  0  0  0  0  0  0  0  0  0  # atno 17320 bound_to 7965
  146.1314  139.4350  143.0166 LP  0  0  0  0  0  0  0  0  0  0  0  0  # atno 17321 bound_to 7965
  140.3742  143.2838  152.0244 LP  0  0  0  0  0  0  0  0  0  0  0  0  # atno 17342 bound_to 10162
  139.4850  144.6206  151.7262 LP  0  0  0  0  0  0  0  0  0  0  0  0  # atno 17343 bound_to 10162
  157.7386  130.9817  150.2263 LP  0  0  0  0  0  0  0  0  0  0  0  0  # atno 17370 bound_to 10713
  156.2879  130.3742  149.7870 LP  0  0  0  0  0  0  0  0  0  0  0  0  # atno 17371 bound_to 10713
  140.1767  134.9062  157.2899 LP  0  0  0  0  0  0  0  0  0  0  0  0  # atno 17394 bound_to 11000
  140.2441  134.3761  155.7468 LP  0  0  0  0  0  0  0  0  0  0  0  0  # atno 17395 bound_to 11000

$$$$
