AV-unprocessed.smi:3017|AV-procd|sdf|11476|dock2
  -GOLD-   2272016413D 1   1.00000     0.00000
 Structure written by MMmdl.
 37 38  0  0  0  0  0  0  0  0  1 V2000
  151.9781  145.4934  159.2822 C   0  0  0  0  0  0  0  0  0  0  0  0
  152.4015  144.0308  159.0853 C   0  0  1  0  0  0  0  0  0  0  0  0
  152.6702  143.3350  160.4334 C   0  0  0  0  0  0  0  0  0  0  0  0
  153.0952  141.8715  160.2353 C   0  0  0  0  0  0  0  0  0  0  0  0
  152.0517  141.0935  159.4187 C   0  0  0  0  0  0  0  0  0  0  0  0
  151.7765  141.7778  158.0643 C   0  0  1  0  0  0  0  0  0  0  0  0
  150.7167  141.1197  157.3826 O   0  0  0  0  0  0  0  0  0  0  0  0
  150.9144  140.9910  155.9793 C   0  0  0  0  0  0  0  0  0  0  0  0
  149.6236  141.3385  155.2335 C   0  0  0  0  0  0  0  0  0  0  0  0
  149.5988  141.2315  154.0076 O   0  0  0  0  0  0  0  0  0  0  0  0
  148.5859  141.7599  155.9817 N   0  0  0  0  0  0  0  0  0  0  0  0
  147.2835  142.1240  155.5494 C   0  0  0  0  0  0  0  0  0  0  0  0
  147.1702  142.5075  154.1922 C   0  0  0  0  0  0  0  0  0  0  0  0
  145.9976  142.8855  153.6360 N   0  0  0  0  0  0  0  0  0  0  0  0
  144.9167  142.8820  154.4450 C   0  0  0  0  0  0  0  0  0  0  0  0
  145.0099  142.5016  155.7987 C   0  0  0  0  0  0  0  0  0  0  0  0
  146.1851  142.1248  156.3478 N   0  0  0  0  0  0  0  0  0  0  0  0
  151.3538  143.2428  158.2743 C   0  0  0  0  0  0  0  0  0  0  0  0
  151.0436  145.5653  159.8397 H   0  0  0  0  0  0  0  0  0  0  0  0
  151.8332  145.9921  158.3235 H   0  0  0  0  0  0  0  0  0  0  0  0
  152.7372  146.0510  159.8314 H   0  0  0  0  0  0  0  0  0  0  0  0
  153.3330  144.0343  158.5174 H   0  0  0  0  0  0  0  0  0  0  0  0
  153.4469  143.8691  160.9821 H   0  0  0  0  0  0  0  0  0  0  0  0
  151.7735  143.3720  161.0539 H   0  0  0  0  0  0  0  0  0  0  0  0
  154.0589  141.8364  159.7254 H   0  0  0  0  0  0  0  0  0  0  0  0
  153.2407  141.3929  161.2041 H   0  0  0  0  0  0  0  0  0  0  0  0
  152.4001  140.0715  159.2716 H   0  0  0  0  0  0  0  0  0  0  0  0
  151.1238  141.0244  159.9878 H   0  0  0  0  0  0  0  0  0  0  0  0
  152.6804  141.7668  157.4520 H   0  0  0  0  0  0  0  0  0  0  0  0
  151.7069  141.6627  155.6468 H   0  0  0  0  0  0  0  0  0  0  0  0
  151.2081  139.9742  155.7176 H   0  0  0  0  0  0  0  0  0  0  0  0
  148.7457  141.8049  156.9777 H   0  0  0  0  0  0  0  0  0  0  0  0
  148.0323  142.5145  153.5409 H   0  0  0  0  0  0  0  0  0  0  0  0
  143.9747  143.1843  154.0120 H   0  0  0  0  0  0  0  0  0  0  0  0
  144.1422  142.5009  156.4417 H   0  0  0  0  0  0  0  0  0  0  0  0
  150.3918  143.2758  158.7883 H   0  0  0  0  0  0  0  0  0  0  0  0
  151.2014  143.7185  157.3049 H   0  0  0  0  0  0  0  0  0  0  0  0
  1  2  1  0  0  0  0
  1 19  1  0  0  0  0
  1 20  1  0  0  0  0
  1 21  1  0  0  0  0
  2 18  1  0  0  0  0
  2  3  1  0  0  0  0
  2 22  1  0  0  0  0
  3  4  1  0  0  0  0
  3 23  1  0  0  0  0
  3 24  1  0  0  0  0
  4  5  1  0  0  0  0
  4 25  1  0  0  0  0
  4 26  1  0  0  0  0
  5  6  1  0  0  0  0
  5 27  1  0  0  0  0
  5 28  1  0  0  0  0
  6  7  1  0  0  0  0
  6 18  1  0  0  0  0
  6 29  1  0  0  0  0
  7  8  1  0  0  0  0
  8  9  1  0  0  0  0
  8 30  1  0  0  0  0
  8 31  1  0  0  0  0
  9 10  2  0  0  0  0
  9 11  1  0  0  0  0
 11 12  1  0  0  0  0
 11 32  1  0  0  0  0
 12 17  1  0  0  0  0
 12 13  2  0  0  0  0
 13 14  1  0  0  0  0
 13 33  1  0  0  0  0
 14 15  2  0  0  0  0
 15 16  1  0  0  0  0
 15 34  1  0  0  0  0
 16 17  2  0  0  0  0
 16 35  1  0  0  0  0
 18 36  1  0  0  0  0
 18 37  1  0  0  0  0
M  END
> <s_m_source_file>
AV-unprocessed.smi

> <i_m_source_file_index>
3017

> <i_lp_mmshare_version>
43012

> <i_f3d_flags>
0

> <s_epik_input>
W0NIM11bQ0BASF0xW0NIMl1bQ0gyXVtDSDJdW0NASF0oW0NIMl0xKU9bQ0gyXUMoPU8pW05IXWMyW2NIXW5bY0hdW2NIXW4y

> <s_epik_cmdline>
J2VwaWtfcHl0aG9uJywgJy1waCcsICc3LjAnLCAnLXRuJywgJzgnLCAnLW1hJywgJzIwMCcsICctbWV0YWxfYmluZGluZycsICctaW1hZScsICc8aW5maWxlLm1hZT4nLCAnLW9tYWUnLCAnPG91dGZpbGUubWFlPic=

> <r_lp_tautomer_probability>
1

> <r_epik_Ionization_Penalty>
2.89243e-06

> <r_epik_Ionization_Penalty_Charging>
0

> <r_epik_Ionization_Penalty_Neutral>
2.89243e-06

> <r_epik_State_Penalty>
-0

> <r_epik_Charging_Adjusted_Penalty>
0

> <i_epik_Tot_Q>
0

> <i_epik_Tot_abs_Q>
0

> <r_epik_Metal_State_Penalty>
-0

> <b_epik_Metal_Only>
0

> <s_lp_Force_Field>
OPLS_2005

> <r_lp_Energy>
20.2083

> <b_lp_Chiralities_Consistent>
1

> <s_lp_Variant>
AV-unprocessed.smi:3017-2

> <Gold.Version>
5.8.1

> <Gold.Id.Protein>
6NUR|6NUR_protein|mol2

> <Gold.PLP.Fitness>
42.4838

> <Gold.PLP.PLP>
-38.7806

> <Gold.PLP.part.hbond>
-3.0000

> <Gold.PLP.part.metal>
0.0000

> <Gold.PLP.part.buried>
-3.0442

> <Gold.PLP.part.nonpolar>
-34.0865

> <Gold.PLP.part.repulsive>
0.5616

> <Gold.PLP.ligand.clash>
0.0148

> <Gold.PLP.ligand.torsion>
0.9795

> <Gold.PLP.Chemscore.Hbond>
0.8876

> <Gold.PLP.Chemscore.CHOScore>
1.0000

> <Gold.PLP.Chemscore.Metal>
0.0000

> <Gold.Chemscore.Hbonds>
donor molecule, donor type, donor heavy atom, donor atom, acceptor molecule, acceptor atom, score
      P1  H  7989  7998       L1    10  0.28
      P1  H  8011  8017       L1    10  0.73
      L1  C    15    34       P1 10174  0.97

> <Gold.PLP.Chemscore.Internal.Correction>
0.0141

> <Gold.Rescore>
     Score         DG    S(hbond)    S(metal)    S(lipo)     H(rot)  DE(clash)    DE(int)     intcor
     13.35     -15.66       0.82        0.00      96.71       1.51       0.08       2.23       ----

> <Gold.Chemscore.Fitness>
13.3498

> <Gold.Chemscore.DG>
-15.6618

> <Gold.Chemscore.ZeroCoef>
-5.4800

> <Gold.Chemscore.Hbond>
0.8195

> <Gold.Chemscore.Metal>
0.0000

> <Gold.Chemscore.Lipo>
96.7126

> <Gold.Chemscore.Internal_Hbond>
0.0000

> <Gold.Chemscore.DEClash>
0.0833

> <Gold.Chemscore.DEInternal>
2.2288

> <Gold.Chemscore.Rot>
1.5119

> <Gold.Chemscore.Internal.Correction>
   9.000000E+99

> <Gold.Chemscore.Hbonds>
donor molecule, donor type, donor heavy atom, donor atom, acceptor molecule, acceptor atom, score
      P1  H  7989  7998       L1    10  0.14
      P1  H  8011  8017       L1    10  0.69

> <Gold.Chemscore.Hbond.Weighted>
-2.7371

> <Gold.Chemscore.Metal.Weighted>
-0.0000

> <Gold.Chemscore.Lipo.Weighted>
-11.3154

> <Gold.Chemscore.Internal_Hbond.Weighted>
0.0000

> <Gold.Chemscore.DEClash.Weighted>
0.0833

> <Gold.Chemscore.DEInternal.Weighted>
2.2288

> <Gold.Chemscore.Rot.Weighted>
3.8706

> <Gold.Chemscore.Internal.Correction.Weighted>
   9.000000E+99

> <Gold.Protein.RotatedTorsions>
[ 6907 6896 6895 6894 ] final  146.70 input  -60.11 | X-H torsion
[ 7974 7965 7964 7962 ] final   59.51 input  175.53 | X-H torsion
[ 8008 7997 7996 7995 ] final  119.65 input   59.86 | X-H torsion
[ 10167 10162 10161 10158 ] final  -61.95 input  -65.29 | X-H torsion
[ 10718 10713 10712 10709 ] final   85.93 input   66.30 | X-H torsion
[ 10763 10752 10751 10750 ] final -125.80 input  -60.55 | X-H torsion
[ 11005 11000 10999 10996 ] final   66.45 input  -57.11 | X-H torsion

> <Gold.Protein.ActiveResidues>
 VAL166  LYS551  ARG553  GLY616  TRP617  ASP618  TYR619  PRO620  LYS621  CYS622 
 ASP623  PHE694  ASN695  SER759  ASP760  ASP761  ALA762  ILE779  LEU786  VAL792 
 PHE793  MET794  SER795  GLU796  ALA797  LYS798  CYS799  TRP800  GLU811  SER814 

> <Gold.Protein.RotatedAtoms>
  152.1644  133.4602  159.4877 H   0  0  0  0  0  0  0  0  0  0  0  0  # atno 6907 bound_to 6896
  150.6911  134.2031  159.4339 H   0  0  0  0  0  0  0  0  0  0  0  0  # atno 6908 bound_to 6896
  151.9935  134.9966  160.0613 H   0  0  0  0  0  0  0  0  0  0  0  0  # atno 6909 bound_to 6896
  145.9063  139.3620  143.0562 H   0  0  0  0  0  0  0  0  0  0  0  0  # atno 7974 bound_to 7965
  156.2606  140.2848  156.1025 H   0  0  0  0  0  0  0  0  0  0  0  0  # atno 8008 bound_to 7997
  155.1344  140.0394  157.2800 H   0  0  0  0  0  0  0  0  0  0  0  0  # atno 8009 bound_to 7997
  154.6576  140.2559  155.7151 H   0  0  0  0  0  0  0  0  0  0  0  0  # atno 8010 bound_to 7997
  140.5971  143.2353  151.6011 H   0  0  0  0  0  0  0  0  0  0  0  0  # atno 10167 bound_to 10162
  157.6922  131.0195  150.2896 H   0  0  0  0  0  0  0  0  0  0  0  0  # atno 10718 bound_to 10713
  154.8739  135.4017  154.3327 H   0  0  0  0  0  0  0  0  0  0  0  0  # atno 10763 bound_to 10752
  153.4139  135.7021  153.6346 H   0  0  0  0  0  0  0  0  0  0  0  0  # atno 10764 bound_to 10752
  153.5037  135.3722  155.2523 H   0  0  0  0  0  0  0  0  0  0  0  0  # atno 10765 bound_to 10752
  139.9831  134.6712  156.0226 H   0  0  0  0  0  0  0  0  0  0  0  0  # atno 11005 bound_to 11000
  145.8727  140.9410  143.0642 LP  0  0  0  0  0  0  0  0  0  0  0  0  # atno 17320 bound_to 7965
  144.6739  140.0676  143.7474 LP  0  0  0  0  0  0  0  0  0  0  0  0  # atno 17321 bound_to 7965
  139.5266  144.3041  152.1048 LP  0  0  0  0  0  0  0  0  0  0  0  0  # atno 17342 bound_to 10162
  140.2216  144.4461  150.6339 LP  0  0  0  0  0  0  0  0  0  0  0  0  # atno 17343 bound_to 10162
  156.3429  130.3818  149.7393 LP  0  0  0  0  0  0  0  0  0  0  0  0  # atno 17370 bound_to 10713
  156.4896  130.8079  151.3089 LP  0  0  0  0  0  0  0  0  0  0  0  0  # atno 17371 bound_to 10713
  141.1500  133.6550  156.3984 LP  0  0  0  0  0  0  0  0  0  0  0  0  # atno 17394 bound_to 11000
  140.5057  134.6443  157.5265 LP  0  0  0  0  0  0  0  0  0  0  0  0  # atno 17395 bound_to 11000

$$$$
