AV-unprocessed.smi:1622|AV-procd|sdf|6497|dock8
  -GOLD-   22720 7163D 1   1.00000     0.00000
 Structure written by MMmdl.
 41 42  0  0  0  0  0  0  0  0  2 V2000
  145.8012  135.8677  151.7691 C   0  0  0  0  0  0  0  0  0  0  0  0
  146.3146  134.9047  152.8519 C   0  0  0  0  0  0  0  0  0  0  0  0
  145.2046  134.1464  153.6293 C   0  0  2  0  0  0  0  0  0  0  0  0
  145.7116  133.5378  154.9637 C   0  0  0  0  0  0  0  0  0  0  0  0
  146.4688  134.4957  155.7668 N   0  0  0  0  0  0  0  0  0  0  0  0
  146.4179  134.6035  157.1028 C   0  0  0  0  0  0  0  0  0  0  0  0
  145.7062  133.8950  157.8146 O   0  0  0  0  0  0  0  0  0  0  0  0
  147.2377  135.5730  157.5461 N   0  0  0  0  0  0  0  0  0  0  0  0
  147.4898  135.9631  158.8883 C   0  0  0  0  0  0  0  0  0  0  0  0
  148.1436  137.0828  159.2272 N   0  0  0  0  0  0  0  0  0  0  0  0
  148.2457  137.2262  160.6036 N   0  0  0  0  0  0  0  0  0  0  0  0
  147.6693  136.2143  161.2634 C   0  0  0  0  0  0  0  0  0  0  0  0
  147.6408  136.1348  162.7514 C   0  0  0  0  0  0  0  0  0  0  0  0
  146.9390  134.9851  160.2378 S   0  0  0  0  0  0  0  0  0  0  0  0
  144.5446  133.1158  152.7726 N   0  3  0  0  0  0  0  0  0  0  0  0
  143.7762  133.6378  151.6224 C   0  0  0  0  0  0  0  0  0  0  0  0
  143.5713  132.4472  150.6856 C   0  0  0  0  0  0  0  0  0  0  0  0
  144.7109  131.4781  151.0087 C   0  0  0  0  0  0  0  0  0  0  0  0
  145.4493  132.0927  152.2021 C   0  0  0  0  0  0  0  0  0  0  0  0
  146.6355  136.3550  151.2643 H   0  0  0  0  0  0  0  0  0  0  0  0
  145.1731  136.6513  152.1925 H   0  0  0  0  0  0  0  0  0  0  0  0
  145.2200  135.3496  151.0079 H   0  0  0  0  0  0  0  0  0  0  0  0
  146.9959  134.1905  152.3899 H   0  0  0  0  0  0  0  0  0  0  0  0
  146.9418  135.4619  153.5477 H   0  0  0  0  0  0  0  0  0  0  0  0
  144.4397  134.8815  153.8856 H   0  0  0  0  0  0  0  0  0  0  0  0
  144.8711  133.2294  155.5848 H   0  0  0  0  0  0  0  0  0  0  0  0
  146.2886  132.6319  154.7719 H   0  0  0  0  0  0  0  0  0  0  0  0
  147.0799  135.1242  155.2655 H   0  0  0  0  0  0  0  0  0  0  0  0
  147.7492  136.0868  156.8439 H   0  0  0  0  0  0  0  0  0  0  0  0
  148.4498  136.7262  163.1816 H   0  0  0  0  0  0  0  0  0  0  0  0
  147.7571  135.1001  163.0744 H   0  0  0  0  0  0  0  0  0  0  0  0
  146.6905  136.5151  163.1259 H   0  0  0  0  0  0  0  0  0  0  0  0
  142.8250  134.0754  151.9272 H   0  0  0  0  0  0  0  0  0  0  0  0
  144.3592  134.4079  151.1145 H   0  0  0  0  0  0  0  0  0  0  0  0
  142.6132  131.9692  150.8941 H   0  0  0  0  0  0  0  0  0  0  0  0
  143.5668  132.7499  149.6380 H   0  0  0  0  0  0  0  0  0  0  0  0
  144.3073  130.4984  151.2678 H   0  0  0  0  0  0  0  0  0  0  0  0
  145.3813  131.3423  150.1594 H   0  0  0  0  0  0  0  0  0  0  0  0
  146.3663  132.5706  151.8531 H   0  0  0  0  0  0  0  0  0  0  0  0
  145.7228  131.3368  152.9387 H   0  0  0  0  0  0  0  0  0  0  0  0
  143.8835  132.6205  153.3540 H   0  0  0  0  0  0  0  0  0  0  0  0
  1  2  1  0  0  0  0
  1 20  1  0  0  0  0
  1 21  1  0  0  0  0
  1 22  1  0  0  0  0
  2  3  1  0  0  0  0
  2 23  1  0  0  0  0
  2 24  1  0  0  0  0
  3  4  1  0  0  0  0
  3 15  1  0  0  0  0
  3 25  1  0  0  0  0
  4  5  1  0  0  0  0
  4 26  1  0  0  0  0
  4 27  1  0  0  0  0
  5  6  1  0  0  0  0
  5 28  1  0  0  0  0
  6  7  2  0  0  0  0
  6  8  1  0  0  0  0
  8  9  1  0  0  0  0
  8 29  1  0  0  0  0
  9 14  1  0  0  0  0
  9 10  2  0  0  0  0
 10 11  1  0  0  0  0
 11 12  2  0  0  0  0
 12 13  1  0  0  0  0
 12 14  1  0  0  0  0
 13 30  1  0  0  0  0
 13 31  1  0  0  0  0
 13 32  1  0  0  0  0
 15 19  1  0  0  0  0
 15 16  1  0  0  0  0
 15 41  1  0  0  0  0
 16 17  1  0  0  0  0
 16 33  1  0  0  0  0
 16 34  1  0  0  0  0
 17 18  1  0  0  0  0
 17 35  1  0  0  0  0
 17 36  1  0  0  0  0
 18 19  1  0  0  0  0
 18 37  1  0  0  0  0
 18 38  1  0  0  0  0
 19 39  1  0  0  0  0
 19 40  1  0  0  0  0
M  CHG  1  15   1
M  END
> <s_m_source_file>
AV-unprocessed.smi

> <i_m_source_file_index>
1622

> <i_lp_mmshare_version>
43012

> <i_f3d_flags>
0

> <s_epik_input>
W0NIMl0xW0NIMl1bQ0gyXVtDSDJdTjFbQ0BIXShbQ0gyXVtDSDNdKVtDSDJdW05IXUMoPU8pW05IXWMybm5jKHMyKVtDSDNd

> <s_epik_cmdline>
J2VwaWtfcHl0aG9uJywgJy1waCcsICc3LjAnLCAnLXRuJywgJzgnLCAnLW1hJywgJzIwMCcsICctbWV0YWxfYmluZGluZycsICctaW1hZScsICc8aW5maWxlLm1hZT4nLCAnLW9tYWUnLCAnPG91dGZpbGUubWFlPic=

> <r_lp_tautomer_probability>
1

> <r_epik_Ionization_Penalty>
0.00164835

> <r_epik_Ionization_Penalty_Charging>
0.00115997

> <r_epik_Ionization_Penalty_Neutral>
0.00048838

> <r_epik_State_Penalty>
-0

> <r_epik_Charging_Adjusted_Penalty>
0.00115997

> <i_epik_Tot_Q>
1

> <i_epik_Tot_abs_Q>
1

> <r_epik_Metal_State_Penalty>
0.216651

> <b_epik_Metal_Only>
0

> <s_lp_Force_Field>
OPLS_2005

> <r_lp_Energy>
32.351

> <b_lp_Chiralities_Consistent>
1

> <s_lp_Variant>
AV-unprocessed.smi:1622-1

> <Gold.Version>
5.8.1

> <Gold.Id.Protein>
6NUR|6NUR_protein|mol2

> <Gold.PLP.Fitness>
37.5043

> <Gold.PLP.PLP>
-27.8813

> <Gold.PLP.part.hbond>
-3.0000

> <Gold.PLP.part.metal>
0.0000

> <Gold.PLP.part.buried>
-3.6344

> <Gold.PLP.part.nonpolar>
-21.0392

> <Gold.PLP.part.repulsive>
0.0089

> <Gold.PLP.ligand.clash>
0.0000

> <Gold.PLP.ligand.torsion>
0.4003

> <Gold.PLP.Chemscore.Hbond>
3.4496

> <Gold.PLP.Chemscore.CHOScore>
0.0000

> <Gold.PLP.Chemscore.Metal>
0.0000

> <Gold.Chemscore.Hbonds>
donor molecule, donor type, donor heavy atom, donor atom, acceptor molecule, acceptor atom, score
      L1  H    15    41       P1 10957  1.89
      P1  H  6931  6943       L1    11  0.78
      P1  H  6934  6947       L1    11  0.52

> <Gold.PLP.Chemscore.Internal.Correction>
0.0749

> <Gold.Rescore>
     Score         DG    S(hbond)    S(metal)    S(lipo)     H(rot)  DE(clash)    DE(int)     intcor
     12.68     -14.45       1.87        0.00      62.19       1.77       0.05       1.73       ----

> <Gold.Chemscore.Fitness>
12.6803

> <Gold.Chemscore.DG>
-14.4514

> <Gold.Chemscore.ZeroCoef>
-5.4800

> <Gold.Chemscore.Hbond>
1.8671

> <Gold.Chemscore.Metal>
0.0000

> <Gold.Chemscore.Lipo>
62.1912

> <Gold.Chemscore.Internal_Hbond>
0.0000

> <Gold.Chemscore.DEClash>
0.0451

> <Gold.Chemscore.DEInternal>
1.7260

> <Gold.Chemscore.Rot>
1.7738

> <Gold.Chemscore.Internal.Correction>
   9.000000E+99

> <Gold.Chemscore.Hbonds>
donor molecule, donor type, donor heavy atom, donor atom, acceptor molecule, acceptor atom, score
      L1  H    15    41       P1 10957  0.31
      P1  H  6931  6943       L1    11  0.43
      P1  H  6934  6947       L1    11  0.14

> <Gold.Chemscore.Hbond.Weighted>
-6.2360

> <Gold.Chemscore.Metal.Weighted>
-0.0000

> <Gold.Chemscore.Lipo.Weighted>
-7.2764

> <Gold.Chemscore.Internal_Hbond.Weighted>
0.0000

> <Gold.Chemscore.DEClash.Weighted>
0.0451

> <Gold.Chemscore.DEInternal.Weighted>
1.7260

> <Gold.Chemscore.Rot.Weighted>
4.5411

> <Gold.Chemscore.Internal.Correction.Weighted>
   9.000000E+99

> <Gold.Protein.RotatedTorsions>
[ 6907 6896 6895 6894 ] final  152.82 input  -60.11 | X-H torsion
[ 7974 7965 7964 7962 ] final   69.02 input  175.53 | X-H torsion
[ 8008 7997 7996 7995 ] final   74.62 input   59.86 | X-H torsion
[ 10167 10162 10161 10158 ] final  112.68 input  -65.29 | X-H torsion
[ 10718 10713 10712 10709 ] final   79.56 input   66.30 | X-H torsion
[ 10763 10752 10751 10750 ] final  178.36 input  -60.55 | X-H torsion
[ 11005 11000 10999 10996 ] final   65.59 input  -57.11 | X-H torsion

> <Gold.Protein.ActiveResidues>
 VAL166  LYS551  ARG553  GLY616  TRP617  ASP618  TYR619  PRO620  LYS621  CYS622 
 ASP623  PHE694  ASN695  SER759  ASP760  ASP761  ALA762  ILE779  LEU786  VAL792 
 PHE793  MET794  SER795  GLU796  ALA797  LYS798  CYS799  TRP800  GLU811  SER814 

> <Gold.Protein.RotatedAtoms>
  152.0814  133.4155  159.4502 H   0  0  0  0  0  0  0  0  0  0  0  0  # atno 6907 bound_to 6896
  150.6862  134.2977  159.4702 H   0  0  0  0  0  0  0  0  0  0  0  0  # atno 6908 bound_to 6896
  152.0819  134.9465  160.0624 H   0  0  0  0  0  0  0  0  0  0  0  0  # atno 6909 bound_to 6896
  145.7956  139.2956  143.1185 H   0  0  0  0  0  0  0  0  0  0  0  0  # atno 7974 bound_to 7965
  155.8011  140.3476  155.5403 H   0  0  0  0  0  0  0  0  0  0  0  0  # atno 8008 bound_to 7997
  155.8537  140.0960  157.1678 H   0  0  0  0  0  0  0  0  0  0  0  0  # atno 8009 bound_to 7997
  154.4009  140.1371  156.3863 H   0  0  0  0  0  0  0  0  0  0  0  0  # atno 8010 bound_to 7997
  139.6518  144.7128  151.2034 H   0  0  0  0  0  0  0  0  0  0  0  0  # atno 10167 bound_to 10162
  157.6780  130.9920  150.1951 H   0  0  0  0  0  0  0  0  0  0  0  0  # atno 10718 bound_to 10713
  154.5066  135.2786  155.1377 H   0  0  0  0  0  0  0  0  0  0  0  0  # atno 10763 bound_to 10752
  154.2989  135.6252  153.5420 H   0  0  0  0  0  0  0  0  0  0  0  0  # atno 10764 bound_to 10752
  152.9911  135.5692  154.5521 H   0  0  0  0  0  0  0  0  0  0  0  0  # atno 10765 bound_to 10752
  139.9885  134.6630  156.0134 H   0  0  0  0  0  0  0  0  0  0  0  0  # atno 11005 bound_to 11000
  145.9932  140.8585  143.0056 LP  0  0  0  0  0  0  0  0  0  0  0  0  # atno 17320 bound_to 7965
  144.6775  140.2245  143.7362 LP  0  0  0  0  0  0  0  0  0  0  0  0  # atno 17321 bound_to 7965
  140.7541  143.6138  150.8579 LP  0  0  0  0  0  0  0  0  0  0  0  0  # atno 17342 bound_to 10162
  139.9787  143.5976  152.2950 LP  0  0  0  0  0  0  0  0  0  0  0  0  # atno 17343 bound_to 10162
  156.2654  130.3715  149.8087 LP  0  0  0  0  0  0  0  0  0  0  0  0  # atno 17370 bound_to 10713
  156.5820  130.8469  151.3385 LP  0  0  0  0  0  0  0  0  0  0  0  0  # atno 17371 bound_to 10713
  141.1545  133.6544  156.4118 LP  0  0  0  0  0  0  0  0  0  0  0  0  # atno 17394 bound_to 11000
  140.4956  134.6534  157.5228 LP  0  0  0  0  0  0  0  0  0  0  0  0  # atno 17395 bound_to 11000

$$$$
