AV-unprocessed.smi:2252|AV-procd|sdf|9114|dock10
  -GOLD-   2272012323D 1   1.00000     0.00000
 Structure written by MMmdl.
 44 46  0  0  0  0  0  0  0  0  1 V2000
  151.8622  145.9333  160.0915 C   0  0  0  0  0  0  0  0  0  0  0  0
  152.0112  144.5542  160.5157 N   0  0  0  0  0  0  0  0  0  0  0  0
  152.4322  144.1255  161.7676 C   0  0  0  0  0  0  0  0  0  0  0  0
  152.4190  142.7517  161.7384 C   0  0  0  0  0  0  0  0  0  0  0  0
  151.9962  142.3205  160.4856 N   0  0  0  0  0  0  0  0  0  0  0  0
  151.7764  143.4378  159.7992 C   0  0  0  0  0  0  0  0  0  0  0  0
  151.2802  143.4626  158.3875 C   0  0  0  0  0  0  0  0  0  0  0  0
  149.8597  142.8894  158.2557 C   0  0  0  0  0  0  0  0  0  0  0  0
  149.7545  141.9854  157.1176 N   0  0  0  0  0  0  0  0  0  0  0  0
  148.9439  140.9172  157.0584 C   0  0  0  0  0  0  0  0  0  0  0  0
  148.2005  140.5843  157.9823 O   0  0  0  0  0  0  0  0  0  0  0  0
  148.9504  140.1196  155.7416 C   0  0  1  0  0  0  0  0  0  0  0  0
  148.8370  141.0854  154.5413 C   0  0  0  0  0  0  0  0  0  0  0  0
  147.6428  142.0081  154.3993 C   0  0  0  0  0  0  0  0  0  0  0  0
  147.8131  140.8531  153.4502 C   0  0  0  0  0  0  0  0  0  0  0  0
  150.1456  139.2498  155.6060 N   0  0  0  0  0  0  0  0  0  0  0  0
  150.1953  138.4374  154.3910 C   0  0  0  0  0  0  0  0  0  0  0  0
  151.6405  137.9402  154.3385 C   0  0  0  0  0  0  0  0  0  0  0  0
  152.4341  138.9625  155.1460 C   0  0  0  0  0  0  0  0  0  0  0  0
  151.3989  139.9982  155.5841 C   0  0  0  0  0  0  0  0  0  0  0  0
  151.9987  146.6052  160.9395 H   0  0  0  0  0  0  0  0  0  0  0  0
  150.8660  146.0901  159.6769 H   0  0  0  0  0  0  0  0  0  0  0  0
  152.6083  146.1672  159.3318 H   0  0  0  0  0  0  0  0  0  0  0  0
  152.6961  144.8147  162.5564 H   0  0  0  0  0  0  0  0  0  0  0  0
  152.6765  142.0473  162.5157 H   0  0  0  0  0  0  0  0  0  0  0  0
  151.3205  144.4843  158.0087 H   0  0  0  0  0  0  0  0  0  0  0  0
  151.9691  142.8856  157.7693 H   0  0  0  0  0  0  0  0  0  0  0  0
  149.5959  142.3360  159.1572 H   0  0  0  0  0  0  0  0  0  0  0  0
  149.1281  143.6937  158.1602 H   0  0  0  0  0  0  0  0  0  0  0  0
  150.3275  142.1933  156.3126 H   0  0  0  0  0  0  0  0  0  0  0  0
  148.0637  139.4821  155.7526 H   0  0  0  0  0  0  0  0  0  0  0  0
  149.7882  141.5134  154.2283 H   0  0  0  0  0  0  0  0  0  0  0  0
  146.8478  141.9332  155.1388 H   0  0  0  0  0  0  0  0  0  0  0  0
  147.8268  143.0084  154.0133 H   0  0  0  0  0  0  0  0  0  0  0  0
  148.1116  141.0797  152.4288 H   0  0  0  0  0  0  0  0  0  0  0  0
  147.1375  140.0072  153.5605 H   0  0  0  0  0  0  0  0  0  0  0  0
  149.4834  137.6113  154.4071 H   0  0  0  0  0  0  0  0  0  0  0  0
  149.9817  139.0568  153.5177 H   0  0  0  0  0  0  0  0  0  0  0  0
  151.7237  136.9544  154.7981 H   0  0  0  0  0  0  0  0  0  0  0  0
  151.9973  137.8585  153.3113 H   0  0  0  0  0  0  0  0  0  0  0  0
  152.8839  138.4830  156.0164 H   0  0  0  0  0  0  0  0  0  0  0  0
  153.2368  139.4173  154.5647 H   0  0  0  0  0  0  0  0  0  0  0  0
  151.3461  140.8058  154.8512 H   0  0  0  0  0  0  0  0  0  0  0  0
  151.6408  140.4329  156.5544 H   0  0  0  0  0  0  0  0  0  0  0  0
  1  2  1  0  0  0  0
  1 21  1  0  0  0  0
  1 22  1  0  0  0  0
  1 23  1  0  0  0  0
  2  6  1  0  0  0  0
  2  3  1  0  0  0  0
  3  4  2  0  0  0  0
  3 24  1  0  0  0  0
  4  5  1  0  0  0  0
  4 25  1  0  0  0  0
  5  6  2  0  0  0  0
  6  7  1  0  0  0  0
  7  8  1  0  0  0  0
  7 26  1  0  0  0  0
  7 27  1  0  0  0  0
  8  9  1  0  0  0  0
  8 28  1  0  0  0  0
  8 29  1  0  0  0  0
  9 10  1  0  0  0  0
  9 30  1  0  0  0  0
 10 11  2  0  0  0  0
 10 12  1  0  0  0  0
 12 13  1  0  0  0  0
 12 16  1  0  0  0  0
 12 31  1  0  0  0  0
 13 15  1  0  0  0  0
 13 14  1  0  0  0  0
 13 32  1  0  0  0  0
 14 15  1  0  0  0  0
 14 33  1  0  0  0  0
 14 34  1  0  0  0  0
 15 35  1  0  0  0  0
 15 36  1  0  0  0  0
 16 20  1  0  0  0  0
 16 17  1  0  0  0  0
 17 18  1  0  0  0  0
 17 37  1  0  0  0  0
 17 38  1  0  0  0  0
 18 19  1  0  0  0  0
 18 39  1  0  0  0  0
 18 40  1  0  0  0  0
 19 20  1  0  0  0  0
 19 41  1  0  0  0  0
 19 42  1  0  0  0  0
 20 43  1  0  0  0  0
 20 44  1  0  0  0  0
M  END
> <s_m_source_file>
AV-unprocessed.smi

> <i_m_source_file_index>
2252

> <i_lp_mmshare_version>
43012

> <i_f3d_flags>
0

> <s_epik_input>
W0NIM11uMVtjSF1bY0hdbmMxW0NIMl1bQ0gyXVtOSF1DKD1PKVtDQEhdKFtDSF0yW0NIMl1bQ0gyXTIpTjNbQ0gyXVtDSDJdW0NIMl1bQ0gyXTM=

> <s_epik_cmdline>
J2VwaWtfcHl0aG9uJywgJy1waCcsICc3LjAnLCAnLXRuJywgJzgnLCAnLW1hJywgJzIwMCcsICctbWV0YWxfYmluZGluZycsICctaW1hZScsICc8aW5maWxlLm1hZT4nLCAnLW9tYWUnLCAnPG91dGZpbGUubWFlPic=

> <r_epik_Ionization_Penalty>
3.7689

> <r_epik_Ionization_Penalty_Charging>
1.29411

> <r_epik_Ionization_Penalty_Neutral>
2.4748

> <r_epik_State_Penalty>
3.85943

> <r_epik_Charging_Adjusted_Penalty>
5.15353

> <i_epik_Tot_Q>
0

> <i_epik_Tot_abs_Q>
0

> <r_epik_Metal_State_Penalty>
2.88358

> <b_epik_Metal_Only>
1

> <s_lp_Force_Field>
OPLS_2005

> <r_lp_Energy>
29.995

> <b_lp_Chiralities_Consistent>
1

> <s_lp_Variant>
AV-unprocessed.smi:2252-12

> <Gold.Version>
5.8.1

> <Gold.Id.Protein>
6NUR|6NUR_protein|mol2

> <Gold.PLP.Fitness>
45.3781

> <Gold.PLP.PLP>
-47.3101

> <Gold.PLP.part.hbond>
-1.1561

> <Gold.PLP.part.metal>
0.0000

> <Gold.PLP.part.buried>
-4.0951

> <Gold.PLP.part.nonpolar>
-40.7396

> <Gold.PLP.part.repulsive>
0.0771

> <Gold.PLP.ligand.clash>
0.0000

> <Gold.PLP.ligand.torsion>
1.5535

> <Gold.PLP.Chemscore.Hbond>
0.0000

> <Gold.PLP.Chemscore.CHOScore>
0.0000

> <Gold.PLP.Chemscore.Metal>
0.0000

> <Gold.PLP.Chemscore.Internal.Correction>
1.1750

> <Gold.Rescore>
     Score         DG    S(hbond)    S(metal)    S(lipo)     H(rot)  DE(clash)    DE(int)     intcor
     10.17     -13.95       0.00        0.00     113.11       1.86       1.17       2.61       ----

> <Gold.Chemscore.Fitness>
10.1665

> <Gold.Chemscore.DG>
-13.9470

> <Gold.Chemscore.ZeroCoef>
-5.4800

> <Gold.Chemscore.Hbond>
0.0000

> <Gold.Chemscore.Metal>
0.0000

> <Gold.Chemscore.Lipo>
113.1074

> <Gold.Chemscore.Internal_Hbond>
0.0000

> <Gold.Chemscore.DEClash>
1.1697

> <Gold.Chemscore.DEInternal>
2.6109

> <Gold.Chemscore.Rot>
1.8619

> <Gold.Chemscore.Internal.Correction>
   9.000000E+99

> <Gold.Chemscore.Hbond.Weighted>
-0.0000

> <Gold.Chemscore.Metal.Weighted>
-0.0000

> <Gold.Chemscore.Lipo.Weighted>
-13.2336

> <Gold.Chemscore.Internal_Hbond.Weighted>
0.0000

> <Gold.Chemscore.DEClash.Weighted>
1.1697

> <Gold.Chemscore.DEInternal.Weighted>
2.6109

> <Gold.Chemscore.Rot.Weighted>
4.7665

> <Gold.Chemscore.Internal.Correction.Weighted>
   9.000000E+99

> <Gold.Protein.RotatedTorsions>
[ 6907 6896 6895 6894 ] final  127.57 input  -60.11 | X-H torsion
[ 7974 7965 7964 7962 ] final -137.76 input  175.53 | X-H torsion
[ 8008 7997 7996 7995 ] final  170.32 input   59.86 | X-H torsion
[ 10167 10162 10161 10158 ] final   94.72 input  -65.29 | X-H torsion
[ 10718 10713 10712 10709 ] final  -87.58 input   66.30 | X-H torsion
[ 10763 10752 10751 10750 ] final  128.00 input  -60.55 | X-H torsion
[ 11005 11000 10999 10996 ] final  -40.71 input  -57.11 | X-H torsion

> <Gold.Protein.ActiveResidues>
 VAL166  LYS551  ARG553  GLY616  TRP617  ASP618  TYR619  PRO620  LYS621  CYS622 
 ASP623  PHE694  ASN695  SER759  ASP760  ASP761  ALA762  ILE779  LEU786  VAL792 
 PHE793  MET794  SER795  GLU796  ALA797  LYS798  CYS799  TRP800  GLU811  SER814 

> <Gold.Protein.RotatedAtoms>
  152.3800  133.6534  159.6153 H   0  0  0  0  0  0  0  0  0  0  0  0  # atno 6907 bound_to 6896
  150.7734  133.9129  159.3383 H   0  0  0  0  0  0  0  0  0  0  0  0  # atno 6908 bound_to 6896
  151.6936  135.0943  160.0289 H   0  0  0  0  0  0  0  0  0  0  0  0  # atno 6909 bound_to 6896
  144.8814  140.6513  143.5203 H   0  0  0  0  0  0  0  0  0  0  0  0  # atno 7974 bound_to 7965
  156.1376  140.1541  156.8970 H   0  0  0  0  0  0  0  0  0  0  0  0  # atno 8008 bound_to 7997
  154.4960  140.0838  156.7736 H   0  0  0  0  0  0  0  0  0  0  0  0  # atno 8009 bound_to 7997
  155.4139  140.3420  155.4268 H   0  0  0  0  0  0  0  0  0  0  0  0  # atno 8010 bound_to 7997
  139.8057  144.6795  150.9706 H   0  0  0  0  0  0  0  0  0  0  0  0  # atno 10167 bound_to 10162
  155.9985  130.4805  150.4889 H   0  0  0  0  0  0  0  0  0  0  0  0  # atno 10718 bound_to 10713
  153.7185  135.3257  155.3261 H   0  0  0  0  0  0  0  0  0  0  0  0  # atno 10763 bound_to 10752
  154.8363  135.4494  154.1242 H   0  0  0  0  0  0  0  0  0  0  0  0  # atno 10764 bound_to 10752
  153.2355  135.6965  153.7921 H   0  0  0  0  0  0  0  0  0  0  0  0  # atno 10765 bound_to 10752
  141.0194  133.6870  156.2359 H   0  0  0  0  0  0  0  0  0  0  0  0  # atno 11005 bound_to 11000
  145.3946  139.1609  143.4210 LP  0  0  0  0  0  0  0  0  0  0  0  0  # atno 17320 bound_to 7965
  146.2997  140.4038  142.8708 LP  0  0  0  0  0  0  0  0  0  0  0  0  # atno 17321 bound_to 7965
  140.7819  143.4236  151.0803 LP  0  0  0  0  0  0  0  0  0  0  0  0  # atno 17342 bound_to 10162
  139.7906  143.8224  152.3151 LP  0  0  0  0  0  0  0  0  0  0  0  0  # atno 17343 bound_to 10162
  157.2886  131.0621  151.2149 LP  0  0  0  0  0  0  0  0  0  0  0  0  # atno 17370 bound_to 10713
  157.3170  130.6918  149.6247 LP  0  0  0  0  0  0  0  0  0  0  0  0  # atno 17371 bound_to 10713
  140.6598  134.4979  157.5582 LP  0  0  0  0  0  0  0  0  0  0  0  0  # atno 17394 bound_to 11000
  139.9137  134.8291  156.1440 LP  0  0  0  0  0  0  0  0  0  0  0  0  # atno 17395 bound_to 11000

$$$$
