AV-unprocessed.smi:2440|AV-procd|sdf|9618|dock6
  -GOLD-   2272013253D 1   1.00000     0.00000
 Structure written by MMmdl.
 53 55  0  0  0  0  0  0  0  0  3 V2000
  152.9012  139.9386  159.4246 C   0  0  0  0  0  0  0  0  0  0  0  0
  152.6156  141.4299  159.3798 C   0  0  0  0  0  0  0  0  0  0  0  0
  153.0770  142.2584  160.4262 C   0  0  0  0  0  0  0  0  0  0  0  0
  152.8284  143.5849  160.4012 N   0  3  0  0  0  0  0  0  0  0  0  0
  152.1394  144.1795  159.4052 C   0  0  0  0  0  0  0  0  0  0  0  0
  151.6516  143.4091  158.3313 C   0  0  0  0  0  0  0  0  0  0  0  0
  151.8998  142.0127  158.3024 C   0  0  0  0  0  0  0  0  0  0  0  0
  151.4201  141.1658  157.2632 N   0  0  0  0  0  0  0  0  0  0  0  0
  150.2332  141.2071  156.6336 C   0  0  0  0  0  0  0  0  0  0  0  0
  149.3465  142.0333  156.8478 O   0  0  0  0  0  0  0  0  0  0  0  0
  150.1381  140.2355  155.7139 N   0  0  0  0  0  0  0  0  0  0  0  0
  148.9895  139.9932  154.8438 C   0  0  2  0  0  0  0  0  0  0  0  0
  148.6179  141.2861  154.0948 C   0  0  0  0  0  0  0  0  0  0  0  0
  147.3128  141.1062  153.2955 C   0  0  0  0  0  0  0  0  0  0  0  0
  146.1803  140.6902  154.1724 N   0  3  2  0  0  0  0  0  0  0  0  0
  145.6562  141.7495  155.1032 C   0  0  0  0  0  0  0  0  0  0  0  0
  144.3738  141.2829  155.8446 C   0  0  0  0  0  0  0  0  0  0  0  0
  143.7769  142.3695  156.7527 C   0  0  0  0  0  0  0  0  0  0  0  0
  143.4808  143.6516  155.9697 C   0  0  0  0  0  0  0  0  0  0  0  0
  144.7519  144.1560  155.2810 C   0  0  0  0  0  0  0  0  0  0  0  0
  145.3568  143.0819  154.3631 C   0  0  0  0  0  0  0  0  0  0  0  0
  146.5202  139.3864  154.8133 C   0  0  0  0  0  0  0  0  0  0  0  0
  147.7961  139.4828  155.6732 C   0  0  0  0  0  0  0  0  0  0  0  0
  153.4623  139.6694  160.3200 H   0  0  0  0  0  0  0  0  0  0  0  0
  153.4884  139.6373  158.5566 H   0  0  0  0  0  0  0  0  0  0  0  0
  151.9706  139.3704  159.4271 H   0  0  0  0  0  0  0  0  0  0  0  0
  153.6336  141.9027  161.2812 H   0  0  0  0  0  0  0  0  0  0  0  0
  151.9938  145.2458  159.4989 H   0  0  0  0  0  0  0  0  0  0  0  0
  151.0846  143.9022  157.5564 H   0  0  0  0  0  0  0  0  0  0  0  0
  152.0852  140.4916  156.9133 H   0  0  0  0  0  0  0  0  0  0  0  0
  150.9240  139.6107  155.6061 H   0  0  0  0  0  0  0  0  0  0  0  0
  149.2295  139.2347  154.0962 H   0  0  0  0  0  0  0  0  0  0  0  0
  148.5141  142.1150  154.7959 H   0  0  0  0  0  0  0  0  0  0  0  0
  149.4263  141.5633  153.4168 H   0  0  0  0  0  0  0  0  0  0  0  0
  147.0822  141.9950  152.7123 H   0  0  0  0  0  0  0  0  0  0  0  0
  147.4649  140.3265  152.5477 H   0  0  0  0  0  0  0  0  0  0  0  0
  146.4161  141.9578  155.8564 H   0  0  0  0  0  0  0  0  0  0  0  0
  143.6237  140.9657  155.1189 H   0  0  0  0  0  0  0  0  0  0  0  0
  144.5770  140.4235  156.4809 H   0  0  0  0  0  0  0  0  0  0  0  0
  142.8621  142.0018  157.2186 H   0  0  0  0  0  0  0  0  0  0  0  0
  144.4702  142.5888  157.5659 H   0  0  0  0  0  0  0  0  0  0  0  0
  142.7056  143.4620  155.2260 H   0  0  0  0  0  0  0  0  0  0  0  0
  143.0895  144.4175  156.6399 H   0  0  0  0  0  0  0  0  0  0  0  0
  144.5278  145.0534  154.7036 H   0  0  0  0  0  0  0  0  0  0  0  0
  145.4848  144.4491  156.0341 H   0  0  0  0  0  0  0  0  0  0  0  0
  146.2653  143.5100  153.9428 H   0  0  0  0  0  0  0  0  0  0  0  0
  144.6797  142.8963  153.5282 H   0  0  0  0  0  0  0  0  0  0  0  0
  145.6921  138.9773  155.3874 H   0  0  0  0  0  0  0  0  0  0  0  0
  146.6868  138.6552  154.0208 H   0  0  0  0  0  0  0  0  0  0  0  0
  148.0305  138.5020  156.0892 H   0  0  0  0  0  0  0  0  0  0  0  0
  147.6204  140.1376  156.5273 H   0  0  0  0  0  0  0  0  0  0  0  0
  145.4122  140.4938  153.5462 H   0  0  0  0  0  0  0  0  0  0  0  0
  153.1715  144.1613  161.1701 H   0  0  0  0  0  0  0  0  0  0  0  0
  1  2  1  0  0  0  0
  1 24  1  0  0  0  0
  1 25  1  0  0  0  0
  1 26  1  0  0  0  0
  2  7  1  0  0  0  0
  2  3  2  0  0  0  0
  3  4  1  0  0  0  0
  3 27  1  0  0  0  0
  4  5  2  0  0  0  0
  4 53  1  0  0  0  0
  5  6  1  0  0  0  0
  5 28  1  0  0  0  0
  6  7  2  0  0  0  0
  6 29  1  0  0  0  0
  7  8  1  0  0  0  0
  8  9  1  0  0  0  0
  8 30  1  0  0  0  0
  9 10  2  0  0  0  0
  9 11  1  0  0  0  0
 11 12  1  0  0  0  0
 11 31  1  0  0  0  0
 12 23  1  0  0  0  0
 12 13  1  0  0  0  0
 12 32  1  0  0  0  0
 13 14  1  0  0  0  0
 13 33  1  0  0  0  0
 13 34  1  0  0  0  0
 14 15  1  0  0  0  0
 14 35  1  0  0  0  0
 14 36  1  0  0  0  0
 15 16  1  0  0  0  0
 15 22  1  0  0  0  0
 15 52  1  0  0  0  0
 16 21  1  0  0  0  0
 16 17  1  0  0  0  0
 16 37  1  0  0  0  0
 17 18  1  0  0  0  0
 17 38  1  0  0  0  0
 17 39  1  0  0  0  0
 18 19  1  0  0  0  0
 18 40  1  0  0  0  0
 18 41  1  0  0  0  0
 19 20  1  0  0  0  0
 19 42  1  0  0  0  0
 19 43  1  0  0  0  0
 20 21  1  0  0  0  0
 20 44  1  0  0  0  0
 20 45  1  0  0  0  0
 21 46  1  0  0  0  0
 21 47  1  0  0  0  0
 22 23  1  0  0  0  0
 22 48  1  0  0  0  0
 22 49  1  0  0  0  0
 23 50  1  0  0  0  0
 23 51  1  0  0  0  0
M  CHG  1   4   1
M  CHG  1  15   1
M  END
> <s_m_source_file>
AV-unprocessed.smi

> <i_m_source_file_index>
2440

> <i_lp_mmshare_version>
43012

> <i_f3d_flags>
0

> <s_epik_input>
W0NIM11jMVtjSF1uW2NIXVtjSF1jMVtOSF1DKD1PKVtOSF1bQ0hdMltDSDJdW0NIMl1OKFtDSDJdW0NIMl0yKVtDSF0zW0NIMl1bQ0gyXVtDSDJdW0NIMl1bQ0gyXTM=

> <s_epik_cmdline>
J2VwaWtfcHl0aG9uJywgJy1waCcsICc3LjAnLCAnLXRuJywgJzgnLCAnLW1hJywgJzIwMCcsICctbWV0YWxfYmluZGluZycsICctaW1hZScsICc8aW5maWxlLm1hZT4nLCAnLW9tYWUnLCAnPG91dGZpbGUubWFlPic=

> <r_epik_Ionization_Penalty>
0.799454

> <r_epik_Ionization_Penalty_Charging>
0.799436

> <r_epik_Ionization_Penalty_Neutral>
1.84398e-05

> <r_epik_State_Penalty>
0.81805

> <r_epik_Charging_Adjusted_Penalty>
1.61749

> <i_epik_Tot_Q>
2

> <i_epik_Tot_abs_Q>
2

> <r_epik_Metal_State_Penalty>
0.955144

> <b_epik_Metal_Only>
0

> <s_lp_Force_Field>
OPLS_2005

> <r_lp_Energy>
43.248

> <b_lp_Chiralities_Consistent>
1

> <s_lp_Variant>
AV-unprocessed.smi:2440-4

> <Gold.Version>
5.8.1

> <Gold.Id.Protein>
6NUR|6NUR_protein|mol2

> <Gold.PLP.Fitness>
42.1395

> <Gold.PLP.PLP>
-36.9146

> <Gold.PLP.part.hbond>
-1.0000

> <Gold.PLP.part.metal>
0.0000

> <Gold.PLP.part.buried>
-6.9932

> <Gold.PLP.part.nonpolar>
-30.2921

> <Gold.PLP.part.repulsive>
1.1218

> <Gold.PLP.ligand.clash>
0.0000

> <Gold.PLP.ligand.torsion>
0.4106

> <Gold.PLP.Chemscore.Hbond>
2.0000

> <Gold.PLP.Chemscore.CHOScore>
0.0000

> <Gold.PLP.Chemscore.Metal>
0.0000

> <Gold.Chemscore.Hbonds>
donor molecule, donor type, donor heavy atom, donor atom, acceptor molecule, acceptor atom, score
      L1  H    15    52       P1 10175  1.98

> <Gold.PLP.Chemscore.Internal.Correction>
0.0461

> <Gold.Rescore>
     Score         DG    S(hbond)    S(metal)    S(lipo)     H(rot)  DE(clash)    DE(int)     intcor
     15.21     -17.22       0.96        0.00      98.84       1.18       0.04       1.97       ----

> <Gold.Chemscore.Fitness>
15.2072

> <Gold.Chemscore.DG>
-17.2203

> <Gold.Chemscore.ZeroCoef>
-5.4800

> <Gold.Chemscore.Hbond>
0.9605

> <Gold.Chemscore.Metal>
0.0000

> <Gold.Chemscore.Lipo>
98.8433

> <Gold.Chemscore.Internal_Hbond>
0.0000

> <Gold.Chemscore.DEClash>
0.0384

> <Gold.Chemscore.DEInternal>
1.9747

> <Gold.Chemscore.Rot>
1.1846

> <Gold.Chemscore.Internal.Correction>
   9.000000E+99

> <Gold.Chemscore.Hbonds>
donor molecule, donor type, donor heavy atom, donor atom, acceptor molecule, acceptor atom, score
      L1  H    15    52       P1 10175  0.91

> <Gold.Chemscore.Hbond.Weighted>
-3.2082

> <Gold.Chemscore.Metal.Weighted>
-0.0000

> <Gold.Chemscore.Lipo.Weighted>
-11.5647

> <Gold.Chemscore.Internal_Hbond.Weighted>
0.0000

> <Gold.Chemscore.DEClash.Weighted>
0.0384

> <Gold.Chemscore.DEInternal.Weighted>
1.9747

> <Gold.Chemscore.Rot.Weighted>
3.0326

> <Gold.Chemscore.Internal.Correction.Weighted>
   9.000000E+99

> <Gold.Protein.RotatedTorsions>
[ 6907 6896 6895 6894 ] final  -58.68 input  -60.11 | X-H torsion
[ 7974 7965 7964 7962 ] final -139.58 input  175.53 | X-H torsion
[ 8008 7997 7996 7995 ] final -138.64 input   59.86 | X-H torsion
[ 10167 10162 10161 10158 ] final  -55.87 input  -65.29 | X-H torsion
[ 10718 10713 10712 10709 ] final  119.59 input   66.30 | X-H torsion
[ 10763 10752 10751 10750 ] final -171.28 input  -60.55 | X-H torsion
[ 11005 11000 10999 10996 ] final   30.20 input  -57.11 | X-H torsion

> <Gold.Protein.ActiveResidues>
 VAL166  LYS551  ARG553  GLY616  TRP617  ASP618  TYR619  PRO620  LYS621  CYS622 
 ASP623  PHE694  ASN695  SER759  ASP760  ASP761  ALA762  ILE779  LEU786  VAL792 
 PHE793  MET794  SER795  GLU796  ALA797  LYS798  CYS799  TRP800  GLU811  SER814 

> <Gold.Protein.RotatedAtoms>
  150.7988  134.7067  159.6580 H   0  0  0  0  0  0  0  0  0  0  0  0  # atno 6907 bound_to 6896
  152.4103  134.6133  160.0041 H   0  0  0  0  0  0  0  0  0  0  0  0  # atno 6908 bound_to 6896
  151.6378  133.3291  159.3159 H   0  0  0  0  0  0  0  0  0  0  0  0  # atno 6909 bound_to 6896
  144.8665  140.6301  143.5294 H   0  0  0  0  0  0  0  0  0  0  0  0  # atno 7974 bound_to 7965
  155.4317  140.0525  157.3018 H   0  0  0  0  0  0  0  0  0  0  0  0  # atno 8008 bound_to 7997
  154.4857  140.2099  155.9619 H   0  0  0  0  0  0  0  0  0  0  0  0  # atno 8009 bound_to 7997
  156.1271  140.3178  155.8298 H   0  0  0  0  0  0  0  0  0  0  0  0  # atno 8010 bound_to 7997
  140.6350  143.2477  151.5142 H   0  0  0  0  0  0  0  0  0  0  0  0  # atno 10167 bound_to 10162
  157.5951  131.1059  150.7917 H   0  0  0  0  0  0  0  0  0  0  0  0  # atno 10718 bound_to 10713
  154.6322  135.2888  155.0203 H   0  0  0  0  0  0  0  0  0  0  0  0  # atno 10763 bound_to 10752
  154.1360  135.6526  153.4936 H   0  0  0  0  0  0  0  0  0  0  0  0  # atno 10764 bound_to 10752
  153.0285  135.5321  154.7154 H   0  0  0  0  0  0  0  0  0  0  0  0  # atno 10765 bound_to 10752
  140.2969  134.2800  155.7762 H   0  0  0  0  0  0  0  0  0  0  0  0  # atno 11005 bound_to 11000
  145.4212  139.1564  143.4073 LP  0  0  0  0  0  0  0  0  0  0  0  0  # atno 17320 bound_to 7965
  146.2899  140.4322  142.8743 LP  0  0  0  0  0  0  0  0  0  0  0  0  # atno 17321 bound_to 7965
  139.5561  144.2273  152.1614 LP  0  0  0  0  0  0  0  0  0  0  0  0  # atno 17342 bound_to 10162
  140.1526  144.5100  150.6678 LP  0  0  0  0  0  0  0  0  0  0  0  0  # atno 17343 bound_to 10162
  156.8329  130.5022  149.5329 LP  0  0  0  0  0  0  0  0  0  0  0  0  # atno 17370 bound_to 10713
  156.1012  130.5970  150.9897 LP  0  0  0  0  0  0  0  0  0  0  0  0  # atno 17371 bound_to 10713
  141.2135  133.7621  156.9709 LP  0  0  0  0  0  0  0  0  0  0  0  0  # atno 17394 bound_to 11000
  140.1144  134.9456  157.2113 LP  0  0  0  0  0  0  0  0  0  0  0  0  # atno 17395 bound_to 11000

$$$$
