AV-unprocessed.smi:3149|AV-procd|sdf|12006|dock10
  -GOLD-   2272017413D 1   1.00000     0.00000
 Structure written by MMmdl.
 37 38  0  0  0  0  0  0  0  0  1 V2000
  154.0606  140.3067  161.0863 C   0  0  0  0  0  0  0  0  0  0  0  0
  153.7365  141.5276  160.2019 C   0  0  1  0  0  0  0  0  0  0  0  0
  153.4346  141.0965  158.8392 N   0  0  0  0  0  0  0  0  0  0  0  0
  152.2114  140.2945  158.7266 C   0  0  0  0  0  0  0  0  0  0  0  0
  152.0549  139.7278  157.3136 C   0  0  0  0  0  0  0  0  0  0  0  0
  152.8651  138.9061  156.8858 O   0  0  0  0  0  0  0  0  0  0  0  0
  150.9235  140.0972  156.5807 N   0  0  0  0  0  0  0  0  0  0  0  0
  150.2676  141.3760  156.8062 C   0  0  0  0  0  0  0  0  0  0  0  0
  149.8492  141.2960  155.3342 C   0  0  0  0  0  0  0  0  0  0  0  0
  150.9585  140.2584  155.1345 C   0  0  0  0  0  0  0  0  0  0  0  0
  152.5570  142.3690  160.7620 C   0  0  1  0  0  0  0  0  0  0  0  0
  152.8373  142.9485  162.1630 C   0  0  0  0  0  0  0  0  0  0  0  0
  152.0753  143.3875  159.8308 N   0  0  0  0  0  0  0  0  0  0  0  0
  151.8923  144.7350  160.0677 C   0  0  0  0  0  0  0  0  0  0  0  0
  151.4017  145.2921  158.9219 C   0  0  0  0  0  0  0  0  0  0  0  0
  151.3090  144.1923  158.0252 C   0  0  0  0  0  0  0  0  0  0  0  0
  151.7072  143.0558  158.5717 N   0  0  0  0  0  0  0  0  0  0  0  0
  154.1858  140.6051  162.1274 H   0  0  0  0  0  0  0  0  0  0  0  0
  154.9879  139.8213  160.7835 H   0  0  0  0  0  0  0  0  0  0  0  0
  153.2680  139.5586  161.0501 H   0  0  0  0  0  0  0  0  0  0  0  0
  154.6121  142.1782  160.1752 H   0  0  0  0  0  0  0  0  0  0  0  0
  153.4232  141.8954  158.2207 H   0  0  0  0  0  0  0  0  0  0  0  0
  152.2220  139.4808  159.4530 H   0  0  0  0  0  0  0  0  0  0  0  0
  151.3390  140.9092  158.9477 H   0  0  0  0  0  0  0  0  0  0  0  0
  149.4428  141.3325  157.5180 H   0  0  0  0  0  0  0  0  0  0  0  0
  150.9622  142.1930  157.0126 H   0  0  0  0  0  0  0  0  0  0  0  0
  148.8462  140.8903  155.1909 H   0  0  0  0  0  0  0  0  0  0  0  0
  149.9961  142.2211  154.7760 H   0  0  0  0  0  0  0  0  0  0  0  0
  151.8861  140.6952  154.7603 H   0  0  0  0  0  0  0  0  0  0  0  0
  150.6559  139.3697  154.5798 H   0  0  0  0  0  0  0  0  0  0  0  0
  151.7257  141.6748  160.8952 H   0  0  0  0  0  0  0  0  0  0  0  0
  153.1041  142.1585  162.8656 H   0  0  0  0  0  0  0  0  0  0  0  0
  151.9570  143.4558  162.5583 H   0  0  0  0  0  0  0  0  0  0  0  0
  153.6558  143.6688  162.1530 H   0  0  0  0  0  0  0  0  0  0  0  0
  152.1226  145.1810  161.0241 H   0  0  0  0  0  0  0  0  0  0  0  0
  151.1448  146.3270  158.7511 H   0  0  0  0  0  0  0  0  0  0  0  0
  150.9639  144.1851  157.0018 H   0  0  0  0  0  0  0  0  0  0  0  0
  1  2  1  0  0  0  0
  1 18  1  0  0  0  0
  1 19  1  0  0  0  0
  1 20  1  0  0  0  0
  2  3  1  0  0  0  0
  2 11  1  0  0  0  0
  2 21  1  0  0  0  0
  3  4  1  0  0  0  0
  3 22  1  0  0  0  0
  4  5  1  0  0  0  0
  4 23  1  0  0  0  0
  4 24  1  0  0  0  0
  5  6  2  0  0  0  0
  5  7  1  0  0  0  0
  7 10  1  0  0  0  0
  7  8  1  0  0  0  0
  8  9  1  0  0  0  0
  8 25  1  0  0  0  0
  8 26  1  0  0  0  0
  9 10  1  0  0  0  0
  9 27  1  0  0  0  0
  9 28  1  0  0  0  0
 10 29  1  0  0  0  0
 10 30  1  0  0  0  0
 11 12  1  0  0  0  0
 11 13  1  0  0  0  0
 11 31  1  0  0  0  0
 12 32  1  0  0  0  0
 12 33  1  0  0  0  0
 12 34  1  0  0  0  0
 13 17  1  0  0  0  0
 13 14  1  0  0  0  0
 14 15  2  0  0  0  0
 14 35  1  0  0  0  0
 15 16  1  0  0  0  0
 15 36  1  0  0  0  0
 16 17  2  0  0  0  0
 16 37  1  0  0  0  0
M  END
> <s_m_source_file>
AV-unprocessed.smi

> <i_m_source_file_index>
3149

> <i_lp_mmshare_version>
43012

> <i_f3d_flags>
0

> <s_epik_input>
bjFbY0hdW2NIXVtjSF1uMVtDQEBIXShbQ0gzXSlbQ0BIXShbQ0gzXSlbTkhdW0NIMl1DKD1PKU4yW0NIMl1bQ0gyXVtDSDJdMg==

> <s_epik_cmdline>
J2VwaWtfcHl0aG9uJywgJy1waCcsICc3LjAnLCAnLXRuJywgJzgnLCAnLW1hJywgJzIwMCcsICctbWV0YWxfYmluZGluZycsICctaW1hZScsICc8aW5maWxlLm1hZT4nLCAnLW9tYWUnLCAnPG91dGZpbGUubWFlPic=

> <r_lp_tautomer_probability>
1

> <r_epik_Ionization_Penalty>
0.918674

> <r_epik_Ionization_Penalty_Charging>
0

> <r_epik_Ionization_Penalty_Neutral>
0.918674

> <r_epik_State_Penalty>
0.958258

> <r_epik_Charging_Adjusted_Penalty>
0.958258

> <i_epik_Tot_Q>
0

> <i_epik_Tot_abs_Q>
0

> <r_epik_Metal_State_Penalty>
0.956881

> <b_epik_Metal_Only>
0

> <s_lp_Force_Field>
OPLS_2005

> <r_lp_Energy>
24.8849

> <b_lp_Chiralities_Consistent>
1

> <s_lp_Variant>
AV-unprocessed.smi:3149-8

> <Gold.Version>
5.8.1

> <Gold.Id.Protein>
6NUR|6NUR_protein|mol2

> <Gold.PLP.Fitness>
48.1362

> <Gold.PLP.PLP>
-42.2877

> <Gold.PLP.part.hbond>
-1.7514

> <Gold.PLP.part.metal>
0.0000

> <Gold.PLP.part.buried>
-1.0725

> <Gold.PLP.part.nonpolar>
-39.9775

> <Gold.PLP.part.repulsive>
0.0307

> <Gold.PLP.ligand.clash>
0.0000

> <Gold.PLP.ligand.torsion>
0.5725

> <Gold.PLP.Chemscore.Hbond>
1.0000

> <Gold.PLP.Chemscore.CHOScore>
0.9998

> <Gold.PLP.Chemscore.Metal>
0.0000

> <Gold.Chemscore.Hbonds>
donor molecule, donor type, donor heavy atom, donor atom, acceptor molecule, acceptor atom, score
      P1  H  7997  8010       L1     6  1.00
      L1  C    16    37       P1  8028  1.00

> <Gold.PLP.Chemscore.Internal.Correction>
0.9941

> <Gold.Rescore>
     Score         DG    S(hbond)    S(metal)    S(lipo)     H(rot)  DE(clash)    DE(int)     intcor
     14.25     -16.37       0.98        0.00     104.07       1.79       0.06       2.06       ----

> <Gold.Chemscore.Fitness>
14.2484

> <Gold.Chemscore.DG>
-16.3668

> <Gold.Chemscore.ZeroCoef>
-5.4800

> <Gold.Chemscore.Hbond>
0.9841

> <Gold.Chemscore.Metal>
0.0000

> <Gold.Chemscore.Lipo>
104.0664

> <Gold.Chemscore.Internal_Hbond>
0.0000

> <Gold.Chemscore.DEClash>
0.0598

> <Gold.Chemscore.DEInternal>
2.0586

> <Gold.Chemscore.Rot>
1.7874

> <Gold.Chemscore.Internal.Correction>
   9.000000E+99

> <Gold.Chemscore.Hbonds>
donor molecule, donor type, donor heavy atom, donor atom, acceptor molecule, acceptor atom, score
      P1  H  7997  8010       L1     6  0.25

> <Gold.Chemscore.Hbond.Weighted>
-3.2869

> <Gold.Chemscore.Metal.Weighted>
-0.0000

> <Gold.Chemscore.Lipo.Weighted>
-12.1758

> <Gold.Chemscore.Internal_Hbond.Weighted>
0.0000

> <Gold.Chemscore.DEClash.Weighted>
0.0598

> <Gold.Chemscore.DEInternal.Weighted>
2.0586

> <Gold.Chemscore.Rot.Weighted>
4.5758

> <Gold.Chemscore.Internal.Correction.Weighted>
   9.000000E+99

> <Gold.Protein.RotatedTorsions>
[ 6907 6896 6895 6894 ] final   97.01 input  -60.11 | X-H torsion
[ 7974 7965 7964 7962 ] final  -98.21 input  175.53 | X-H torsion
[ 8008 7997 7996 7995 ] final   62.98 input   59.86 | X-H torsion
[ 10167 10162 10161 10158 ] final   93.60 input  -65.29 | X-H torsion
[ 10718 10713 10712 10709 ] final  -93.41 input   66.30 | X-H torsion
[ 10763 10752 10751 10750 ] final  -86.01 input  -60.55 | X-H torsion
[ 11005 11000 10999 10996 ] final   17.02 input  -57.11 | X-H torsion

> <Gold.Protein.ActiveResidues>
 VAL166  LYS551  ARG553  GLY616  TRP617  ASP618  TYR619  PRO620  LYS621  CYS622 
 ASP623  PHE694  ASN695  SER759  ASP760  ASP761  ALA762  ILE779  LEU786  VAL792 
 PHE793  MET794  SER795  GLU796  ALA797  LYS798  CYS799  TRP800  GLU811  SER814 

> <Gold.Protein.RotatedAtoms>
  152.5428  134.0799  159.8230 H   0  0  0  0  0  0  0  0  0  0  0  0  # atno 6907 bound_to 6896
  151.0902  133.5314  159.2622 H   0  0  0  0  0  0  0  0  0  0  0  0  # atno 6908 bound_to 6896
  151.2109  135.0489  159.8965 H   0  0  0  0  0  0  0  0  0  0  0  0  # atno 6909 bound_to 6896
  145.3235  140.9427  143.2702 H   0  0  0  0  0  0  0  0  0  0  0  0  # atno 7974 bound_to 7965
  155.6229  140.3496  155.4658 H   0  0  0  0  0  0  0  0  0  0  0  0  # atno 8008 bound_to 7997
  156.0065  140.1224  157.0520 H   0  0  0  0  0  0  0  0  0  0  0  0  # atno 8009 bound_to 7997
  154.4266  140.1090  156.5755 H   0  0  0  0  0  0  0  0  0  0  0  0  # atno 8010 bound_to 7997
  139.8164  144.6751  150.9575 H   0  0  0  0  0  0  0  0  0  0  0  0  # atno 10167 bound_to 10162
  156.0013  130.5026  150.5771 H   0  0  0  0  0  0  0  0  0  0  0  0  # atno 10718 bound_to 10713
  154.6176  135.5464  153.7540 H   0  0  0  0  0  0  0  0  0  0  0  0  # atno 10763 bound_to 10752
  153.0223  135.6405  154.1488 H   0  0  0  0  0  0  0  0  0  0  0  0  # atno 10764 bound_to 10752
  154.1423  135.2907  155.3137 H   0  0  0  0  0  0  0  0  0  0  0  0  # atno 10765 bound_to 10752
  140.4406  134.1326  155.7690 H   0  0  0  0  0  0  0  0  0  0  0  0  # atno 11005 bound_to 11000
  144.8920  139.4762  143.6673 LP  0  0  0  0  0  0  0  0  0  0  0  0  # atno 17320 bound_to 7965
  146.3073  139.7624  142.9046 LP  0  0  0  0  0  0  0  0  0  0  0  0  # atno 17321 bound_to 7965
  140.7815  143.4135  151.0955 LP  0  0  0  0  0  0  0  0  0  0  0  0  # atno 17342 bound_to 10162
  139.7798  143.8372  152.3135 LP  0  0  0  0  0  0  0  0  0  0  0  0  # atno 17343 bound_to 10162
  157.3657  131.0757  151.1599 LP  0  0  0  0  0  0  0  0  0  0  0  0  # atno 17370 bound_to 10713
  157.2369  130.6551  149.5873 LP  0  0  0  0  0  0  0  0  0  0  0  0  # atno 17371 bound_to 10713
  141.1707  133.8614  157.1579 LP  0  0  0  0  0  0  0  0  0  0  0  0  # atno 17394 bound_to 11000
  140.0073  135.0003  157.0319 LP  0  0  0  0  0  0  0  0  0  0  0  0  # atno 17395 bound_to 11000

$$$$
