AV-unprocessed.smi:1605|AV-procd|sdf|6454|dock4
  -GOLD-   22720 7103D 1   1.00000     0.00000
 Structure written by MMmdl.
 51 53  0  0  0  0  0  0  0  0  2 V2000
  143.5298  141.7798  157.5693 C   0  0  0  0  0  0  0  0  0  0  0  0
  143.8796  142.5692  156.4428 O   0  0  0  0  0  0  0  0  0  0  0  0
  144.8869  143.5414  156.6977 C   0  0  2  0  0  0  0  0  0  0  0  0
  145.2975  144.1628  155.3542 C   0  0  0  0  0  0  0  0  0  0  0  0
  146.0278  143.1478  154.4578 C   0  0  0  0  0  0  0  0  0  0  0  0
  147.2085  142.5728  155.1515 N   0  3  2  0  0  0  0  0  0  0  0  0
  148.0330  141.7199  154.2574 C   0  0  0  0  0  0  0  0  0  0  0  0
  149.2290  141.0388  154.9668 C   0  0  1  0  0  0  0  0  0  0  0  0
  149.8206  140.1563  154.0371 O   0  0  0  0  0  0  0  0  0  0  0  0
  150.3342  142.0005  155.4575 C   0  0  0  0  0  0  0  0  0  0  0  0
  151.2140  141.3955  156.4409 N   0  0  0  0  0  0  0  0  0  0  0  0
  151.7649  140.1676  156.3860 C   0  0  0  0  0  0  0  0  0  0  0  0
  152.5184  139.7931  157.4153 N   0  0  0  0  0  0  0  0  0  0  0  0
  152.4636  140.9135  158.2255 C   0  0  0  0  0  0  0  0  0  0  0  0
  153.0451  141.1618  159.4877 C   0  0  0  0  0  0  0  0  0  0  0  0
  152.8382  142.3921  160.1510 C   0  0  0  0  0  0  0  0  0  0  0  0
  153.4768  142.6140  161.5107 C   0  0  0  0  0  0  0  0  0  0  0  0
  152.0428  143.3996  159.5483 C   0  0  0  0  0  0  0  0  0  0  0  0
  151.8025  144.7274  160.2445 C   0  0  0  0  0  0  0  0  0  0  0  0
  151.4572  143.1691  158.2864 C   0  0  0  0  0  0  0  0  0  0  0  0
  151.6644  141.9382  157.6399 C   0  0  0  0  0  0  0  0  0  0  0  0
  146.8275  141.9165  156.4293 C   0  0  0  0  0  0  0  0  0  0  0  0
  146.1223  142.9107  157.3676 C   0  0  0  0  0  0  0  0  0  0  0  0
  142.7409  141.0816  157.2899 H   0  0  0  0  0  0  0  0  0  0  0  0
  143.1522  142.4001  158.3833 H   0  0  0  0  0  0  0  0  0  0  0  0
  144.3730  141.1954  157.9364 H   0  0  0  0  0  0  0  0  0  0  0  0
  144.4806  144.3314  157.3317 H   0  0  0  0  0  0  0  0  0  0  0  0
  144.4204  144.5552  154.8390 H   0  0  0  0  0  0  0  0  0  0  0  0
  145.9507  145.0161  155.5375 H   0  0  0  0  0  0  0  0  0  0  0  0
  145.3514  142.3454  154.1594 H   0  0  0  0  0  0  0  0  0  0  0  0
  146.3457  143.6502  153.5435 H   0  0  0  0  0  0  0  0  0  0  0  0
  147.3840  140.9715  153.7991 H   0  0  0  0  0  0  0  0  0  0  0  0
  148.4243  142.3244  153.4376 H   0  0  0  0  0  0  0  0  0  0  0  0
  148.8865  140.4222  155.7968 H   0  0  0  0  0  0  0  0  0  0  0  0
  149.2925  140.1422  153.2531 H   0  0  0  0  0  0  0  0  0  0  0  0
  150.9505  142.3233  154.6170 H   0  0  0  0  0  0  0  0  0  0  0  0
  149.8959  142.9042  155.8832 H   0  0  0  0  0  0  0  0  0  0  0  0
  151.5887  139.5052  155.5509 H   0  0  0  0  0  0  0  0  0  0  0  0
  153.6515  140.3947  159.9465 H   0  0  0  0  0  0  0  0  0  0  0  0
  154.2033  143.4253  161.4617 H   0  0  0  0  0  0  0  0  0  0  0  0
  153.9952  141.7202  161.8581 H   0  0  0  0  0  0  0  0  0  0  0  0
  152.7205  142.8697  162.2529 H   0  0  0  0  0  0  0  0  0  0  0  0
  151.2159  145.4030  159.6212 H   0  0  0  0  0  0  0  0  0  0  0  0
  152.7489  145.2190  160.4704 H   0  0  0  0  0  0  0  0  0  0  0  0
  151.2592  144.5751  161.1772 H   0  0  0  0  0  0  0  0  0  0  0  0
  150.8437  143.9264  157.8209 H   0  0  0  0  0  0  0  0  0  0  0  0
  146.1797  141.0628  156.2253 H   0  0  0  0  0  0  0  0  0  0  0  0
  147.7091  141.5282  156.9368 H   0  0  0  0  0  0  0  0  0  0  0  0
  146.8226  143.7010  157.6406 H   0  0  0  0  0  0  0  0  0  0  0  0
  145.8534  142.4176  158.3011 H   0  0  0  0  0  0  0  0  0  0  0  0
  147.7925  143.3605  155.3948 H   0  0  0  0  0  0  0  0  0  0  0  0
  1  2  1  0  0  0  0
  1 24  1  0  0  0  0
  1 25  1  0  0  0  0
  1 26  1  0  0  0  0
  2  3  1  0  0  0  0
  3 23  1  0  0  0  0
  3  4  1  0  0  0  0
  3 27  1  0  0  0  0
  4  5  1  0  0  0  0
  4 28  1  0  0  0  0
  4 29  1  0  0  0  0
  5  6  1  0  0  0  0
  5 30  1  0  0  0  0
  5 31  1  0  0  0  0
  6  7  1  0  0  0  0
  6 22  1  0  0  0  0
  6 51  1  0  0  0  0
  7  8  1  0  0  0  0
  7 32  1  0  0  0  0
  7 33  1  0  0  0  0
  8  9  1  0  0  0  0
  8 10  1  0  0  0  0
  8 34  1  0  0  0  0
  9 35  1  0  0  0  0
 10 11  1  0  0  0  0
 10 36  1  0  0  0  0
 10 37  1  0  0  0  0
 11 21  1  0  0  0  0
 11 12  1  0  0  0  0
 12 13  2  0  0  0  0
 12 38  1  0  0  0  0
 13 14  1  0  0  0  0
 14 21  2  0  0  0  0
 14 15  1  0  0  0  0
 15 16  2  0  0  0  0
 15 39  1  0  0  0  0
 16 17  1  0  0  0  0
 16 18  1  0  0  0  0
 17 40  1  0  0  0  0
 17 41  1  0  0  0  0
 17 42  1  0  0  0  0
 18 19  1  0  0  0  0
 18 20  2  0  0  0  0
 19 43  1  0  0  0  0
 19 44  1  0  0  0  0
 19 45  1  0  0  0  0
 20 21  1  0  0  0  0
 20 46  1  0  0  0  0
 22 23  1  0  0  0  0
 22 47  1  0  0  0  0
 22 48  1  0  0  0  0
 23 49  1  0  0  0  0
 23 50  1  0  0  0  0
M  CHG  1   6   1
M  END
> <s_m_source_file>
AV-unprocessed.smi

> <i_m_source_file_index>
1605

> <i_lp_mmshare_version>
43012

> <i_f3d_flags>
0

> <s_epik_input>
W0NIM11PW0NIXTFbQ0gyXVtDSDJdTihbQ0gyXVtDSDJdMSlbQ0gyXVtDQEhdKFtPSF0pW0NIMl1uKFtjSF1uMiljKGMyMylbY0hdYyhbQ0gzXSljKFtjSF0zKVtDSDNd

> <s_epik_cmdline>
J2VwaWtfcHl0aG9uJywgJy1waCcsICc3LjAnLCAnLXRuJywgJzgnLCAnLW1hJywgJzIwMCcsICctbWV0YWxfYmluZGluZycsICctaW1hZScsICc8aW5maWxlLm1hZT4nLCAnLW9tYWUnLCAnPG91dGZpbGUubWFlPic=

> <r_epik_Ionization_Penalty>
0.110943

> <r_epik_Ionization_Penalty_Charging>
0.0229283

> <r_epik_Ionization_Penalty_Neutral>
0.0880146

> <r_epik_State_Penalty>
0.0947554

> <r_epik_Charging_Adjusted_Penalty>
0.117684

> <i_epik_Tot_Q>
1

> <i_epik_Tot_abs_Q>
1

> <r_epik_Metal_State_Penalty>
0.0192456

> <b_epik_Metal_Only>
0

> <s_lp_Force_Field>
OPLS_2005

> <r_lp_Energy>
21.431

> <b_lp_Chiralities_Consistent>
1

> <s_lp_Variant>
AV-unprocessed.smi:1605-4

> <Gold.Version>
5.8.1

> <Gold.Id.Protein>
6NUR|6NUR_protein|mol2

> <Gold.PLP.Fitness>
61.7329

> <Gold.PLP.PLP>
-47.5926

> <Gold.PLP.part.hbond>
-4.0000

> <Gold.PLP.part.metal>
0.0000

> <Gold.PLP.part.buried>
-6.2828

> <Gold.PLP.part.nonpolar>
-36.4173

> <Gold.PLP.part.repulsive>
0.2145

> <Gold.PLP.ligand.clash>
0.0000

> <Gold.PLP.ligand.torsion>
0.4259

> <Gold.PLP.Chemscore.Hbond>
4.9600

> <Gold.PLP.Chemscore.CHOScore>
0.0000

> <Gold.PLP.Chemscore.Metal>
0.0000

> <Gold.Chemscore.Hbonds>
donor molecule, donor type, donor heavy atom, donor atom, acceptor molecule, acceptor atom, score
      L1  H     6    51       P1  8028  2.00
      L1  H     9    35       P1  7957  0.59
      P1  H  7989  7998       L1     9  0.83
      P1  H  7997  8010       L1    13  0.69

> <Gold.PLP.Chemscore.Internal.Correction>
0.1120

> <Gold.Rescore>
     Score         DG    S(hbond)    S(metal)    S(lipo)     H(rot)  DE(clash)    DE(int)     intcor
     17.42     -19.22       1.70        0.00     117.57       2.22       0.37       1.44       ----

> <Gold.Chemscore.Fitness>
17.4156

> <Gold.Chemscore.DG>
-19.2249

> <Gold.Chemscore.ZeroCoef>
-5.4800

> <Gold.Chemscore.Hbond>
1.6960

> <Gold.Chemscore.Metal>
0.0000

> <Gold.Chemscore.Lipo>
117.5677

> <Gold.Chemscore.Internal_Hbond>
0.0000

> <Gold.Chemscore.DEClash>
0.3678

> <Gold.Chemscore.DEInternal>
1.4415

> <Gold.Chemscore.Rot>
2.2169

> <Gold.Chemscore.Internal.Correction>
   9.000000E+99

> <Gold.Chemscore.Hbonds>
donor molecule, donor type, donor heavy atom, donor atom, acceptor molecule, acceptor atom, score
      L1  H     6    51       P1  8028  0.35
      L1  H     9    35       P1  7957  0.57
      P1  H  7989  7998       L1     9  0.29
      P1  H  7997  8010       L1    13  0.05

> <Gold.Chemscore.Hbond.Weighted>
-5.6648

> <Gold.Chemscore.Metal.Weighted>
-0.0000

> <Gold.Chemscore.Lipo.Weighted>
-13.7554

> <Gold.Chemscore.Internal_Hbond.Weighted>
0.0000

> <Gold.Chemscore.DEClash.Weighted>
0.3678

> <Gold.Chemscore.DEInternal.Weighted>
1.4415

> <Gold.Chemscore.Rot.Weighted>
5.6753

> <Gold.Chemscore.Internal.Correction.Weighted>
   9.000000E+99

> <Gold.Protein.RotatedTorsions>
[ 6907 6896 6895 6894 ] final   72.90 input  -60.11 | X-H torsion
[ 7974 7965 7964 7962 ] final  -98.42 input  175.53 | X-H torsion
[ 8008 7997 7996 7995 ] final   42.36 input   59.86 | X-H torsion
[ 10167 10162 10161 10158 ] final   24.25 input  -65.29 | X-H torsion
[ 10718 10713 10712 10709 ] final  -32.27 input   66.30 | X-H torsion
[ 10763 10752 10751 10750 ] final   60.61 input  -60.55 | X-H torsion
[ 11005 11000 10999 10996 ] final    8.18 input  -57.11 | X-H torsion

> <Gold.Protein.ActiveResidues>
 VAL166  LYS551  ARG553  GLY616  TRP617  ASP618  TYR619  PRO620  LYS621  CYS622 
 ASP623  PHE694  ASN695  SER759  ASP760  ASP761  ALA762  ILE779  LEU786  VAL792 
 PHE793  MET794  SER795  GLU796  ALA797  LYS798  CYS799  TRP800  GLU811  SER814 

> <Gold.Protein.RotatedAtoms>
  152.4894  134.4502  159.9571 H   0  0  0  0  0  0  0  0  0  0  0  0  # atno 6907 bound_to 6896
  151.4492  133.3616  159.2800 H   0  0  0  0  0  0  0  0  0  0  0  0  # atno 6908 bound_to 6896
  150.9034  134.8471  159.7436 H   0  0  0  0  0  0  0  0  0  0  0  0  # atno 6909 bound_to 6896
  145.3208  140.9421  143.2716 H   0  0  0  0  0  0  0  0  0  0  0  0  # atno 7974 bound_to 7965
  155.2848  140.3375  155.4256 H   0  0  0  0  0  0  0  0  0  0  0  0  # atno 8008 bound_to 7997
  156.2073  140.1756  156.7812 H   0  0  0  0  0  0  0  0  0  0  0  0  # atno 8009 bound_to 7997
  154.5638  140.0682  156.8844 H   0  0  0  0  0  0  0  0  0  0  0  0  # atno 8010 bound_to 7997
  140.5203  144.0013  150.6413 H   0  0  0  0  0  0  0  0  0  0  0  0  # atno 10167 bound_to 10162
  156.3770  130.4349  149.7499 H   0  0  0  0  0  0  0  0  0  0  0  0  # atno 10718 bound_to 10713
  152.9926  135.5530  154.5902 H   0  0  0  0  0  0  0  0  0  0  0  0  # atno 10763 bound_to 10752
  154.5265  135.2811  155.1219 H   0  0  0  0  0  0  0  0  0  0  0  0  # atno 10764 bound_to 10752
  154.2552  135.6391  153.5307 H   0  0  0  0  0  0  0  0  0  0  0  0  # atno 10765 bound_to 10752
  140.5399  134.0384  155.7900 H   0  0  0  0  0  0  0  0  0  0  0  0  # atno 11005 bound_to 11000
  144.8941  139.4736  143.6664 LP  0  0  0  0  0  0  0  0  0  0  0  0  # atno 17320 bound_to 7965
  146.3083  139.7656  142.9039 LP  0  0  0  0  0  0  0  0  0  0  0  0  # atno 17321 bound_to 7965
  140.3360  143.3048  152.0637 LP  0  0  0  0  0  0  0  0  0  0  0  0  # atno 17342 bound_to 10162
  139.4921  144.6476  151.6746 LP  0  0  0  0  0  0  0  0  0  0  0  0  # atno 17343 bound_to 10162
  156.4605  130.7949  151.2970 LP  0  0  0  0  0  0  0  0  0  0  0  0  # atno 17370 bound_to 10713
  157.7489  131.0067  150.3163 LP  0  0  0  0  0  0  0  0  0  0  0  0  # atno 17371 bound_to 10713
  141.1233  133.9425  157.2686 LP  0  0  0  0  0  0  0  0  0  0  0  0  # atno 17394 bound_to 11000
  139.9509  135.0175  156.8992 LP  0  0  0  0  0  0  0  0  0  0  0  0  # atno 17395 bound_to 11000

$$$$
