AV-unprocessed.smi:3225|AV-procd|sdf|12312|dock9
  -GOLD-   2272018153D 1   1.00000     0.00000
 Structure written by MMmdl.
 41 42  0  0  0  0  0  0  0  0  2 V2000
  145.3148  135.7747  150.5588 C   0  0  0  0  0  0  0  0  0  0  0  0
  145.3634  135.7075  152.0941 C   0  0  1  0  0  0  0  0  0  0  0  0
  145.7567  134.3129  152.6229 C   0  0  0  0  0  0  0  0  0  0  0  0
  145.2220  133.2293  151.8178 N   0  0  0  0  0  0  0  0  0  0  0  0
  145.9052  132.2207  151.1709 C   0  0  0  0  0  0  0  0  0  0  0  0
  144.9769  131.4356  150.5496 C   0  0  0  0  0  0  0  0  0  0  0  0
  143.7367  132.0475  150.8848 C   0  0  0  0  0  0  0  0  0  0  0  0
  143.8869  133.1199  151.6457 N   0  0  0  0  0  0  0  0  0  0  0  0
  146.3072  136.7225  152.6109 N   0  3  0  0  0  0  0  0  0  0  0  0
  146.1311  138.0750  152.0449 C   0  0  0  0  0  0  0  0  0  0  0  0
  147.2634  139.0107  152.4858 C   0  0  0  0  0  0  0  0  0  0  0  0
  147.3626  139.1253  154.0164 C   0  0  0  0  0  0  0  0  0  0  0  0
  148.7492  139.2413  154.4610 N   0  0  0  0  0  0  0  0  0  0  0  0
  149.4491  138.0957  155.0184 C   0  0  0  0  0  0  0  0  0  0  0  0
  150.9033  138.5574  155.1965 C   0  0  0  0  0  0  0  0  0  0  0  0
  150.9012  140.0705  154.9510 C   0  0  0  0  0  0  0  0  0  0  0  0
  149.5105  140.3403  154.4037 C   0  0  0  0  0  0  0  0  0  0  0  0
  149.1632  141.4399  153.9751 O   0  0  0  0  0  0  0  0  0  0  0  0
  144.5707  135.0894  150.1518 H   0  0  0  0  0  0  0  0  0  0  0  0
  146.2792  135.5184  150.1192 H   0  0  0  0  0  0  0  0  0  0  0  0
  145.0492  136.7765  150.2192 H   0  0  0  0  0  0  0  0  0  0  0  0
  144.3617  135.9377  152.4615 H   0  0  0  0  0  0  0  0  0  0  0  0
  146.8427  134.2132  152.6550 H   0  0  0  0  0  0  0  0  0  0  0  0
  145.4017  134.1827  153.6463 H   0  0  0  0  0  0  0  0  0  0  0  0
  146.9823  132.1471  151.2033 H   0  0  0  0  0  0  0  0  0  0  0  0
  145.1562  130.5561  149.9489 H   0  0  0  0  0  0  0  0  0  0  0  0
  142.7391  131.7459  150.6010 H   0  0  0  0  0  0  0  0  0  0  0  0
  146.1960  136.7790  153.6133 H   0  0  0  0  0  0  0  0  0  0  0  0
  146.1067  138.0071  150.9564 H   0  0  0  0  0  0  0  0  0  0  0  0
  145.1692  138.4754  152.3686 H   0  0  0  0  0  0  0  0  0  0  0  0
  148.2088  138.6474  152.0804 H   0  0  0  0  0  0  0  0  0  0  0  0
  147.1044  140.0024  152.0594 H   0  0  0  0  0  0  0  0  0  0  0  0
  146.7989  139.9929  154.3613 H   0  0  0  0  0  0  0  0  0  0  0  0
  146.9047  138.2553  154.4900 H   0  0  0  0  0  0  0  0  0  0  0  0
  149.0010  137.8285  155.9763 H   0  0  0  0  0  0  0  0  0  0  0  0
  149.3824  137.2314  154.3563 H   0  0  0  0  0  0  0  0  0  0  0  0
  151.2819  138.3109  156.1891 H   0  0  0  0  0  0  0  0  0  0  0  0
  151.5480  138.0622  154.4694 H   0  0  0  0  0  0  0  0  0  0  0  0
  151.0430  140.6261  155.8784 H   0  0  0  0  0  0  0  0  0  0  0  0
  151.6710  140.3720  154.2400 H   0  0  0  0  0  0  0  0  0  0  0  0
  147.2477  136.4133  152.4107 H   0  0  0  0  0  0  0  0  0  0  0  0
  1  2  1  0  0  0  0
  1 19  1  0  0  0  0
  1 20  1  0  0  0  0
  1 21  1  0  0  0  0
  2  3  1  0  0  0  0
  2  9  1  0  0  0  0
  2 22  1  0  0  0  0
  3  4  1  0  0  0  0
  3 23  1  0  0  0  0
  3 24  1  0  0  0  0
  4  8  1  0  0  0  0
  4  5  1  0  0  0  0
  5  6  2  0  0  0  0
  5 25  1  0  0  0  0
  6  7  1  0  0  0  0
  6 26  1  0  0  0  0
  7  8  2  0  0  0  0
  7 27  1  0  0  0  0
  9 10  1  0  0  0  0
  9 28  1  0  0  0  0
  9 41  1  0  0  0  0
 10 11  1  0  0  0  0
 10 29  1  0  0  0  0
 10 30  1  0  0  0  0
 11 12  1  0  0  0  0
 11 31  1  0  0  0  0
 11 32  1  0  0  0  0
 12 13  1  0  0  0  0
 12 33  1  0  0  0  0
 12 34  1  0  0  0  0
 13 17  1  0  0  0  0
 13 14  1  0  0  0  0
 14 15  1  0  0  0  0
 14 35  1  0  0  0  0
 14 36  1  0  0  0  0
 15 16  1  0  0  0  0
 15 37  1  0  0  0  0
 15 38  1  0  0  0  0
 16 17  1  0  0  0  0
 16 39  1  0  0  0  0
 16 40  1  0  0  0  0
 17 18  2  0  0  0  0
M  CHG  1   9   1
M  END
> <s_m_source_file>
AV-unprocessed.smi

> <i_m_source_file_index>
3225

> <i_lp_mmshare_version>
43012

> <i_f3d_flags>
0

> <s_epik_input>
bjFbY0hdW2NIXVtjSF1uMVtDSDJdW0NAQEhdKFtDSDNdKVtOSF1bQ0gyXVtDSDJdW0NIMl1OMltDSDJdW0NIMl1bQ0gyXUMyPU8=

> <s_epik_cmdline>
J2VwaWtfcHl0aG9uJywgJy1waCcsICc3LjAnLCAnLXRuJywgJzgnLCAnLW1hJywgJzIwMCcsICctbWV0YWxfYmluZGluZycsICctaW1hZScsICc8aW5maWxlLm1hZT4nLCAnLW9tYWUnLCAnPG91dGZpbGUubWFlPic=

> <r_lp_tautomer_probability>
1

> <r_epik_Ionization_Penalty>
0.00490443

> <r_epik_Ionization_Penalty_Charging>
0.00490019

> <r_epik_Ionization_Penalty_Neutral>
4.24076e-06

> <r_epik_State_Penalty>
0.00355741

> <r_epik_Charging_Adjusted_Penalty>
0.0084576

> <i_epik_Tot_Q>
1

> <i_epik_Tot_abs_Q>
1

> <r_epik_Metal_State_Penalty>
-0

> <b_epik_Metal_Only>
0

> <s_lp_Force_Field>
OPLS_2005

> <r_lp_Energy>
22.636

> <b_lp_Chiralities_Consistent>
1

> <s_lp_Variant>
AV-unprocessed.smi:3225-2

> <Gold.Version>
5.8.1

> <Gold.Id.Protein>
6NUR|6NUR_protein|mol2

> <Gold.PLP.Fitness>
45.0059

> <Gold.PLP.PLP>
-32.5417

> <Gold.PLP.part.hbond>
-2.9333

> <Gold.PLP.part.metal>
0.0000

> <Gold.PLP.part.buried>
2.5758

> <Gold.PLP.part.nonpolar>
-33.1805

> <Gold.PLP.part.repulsive>
0.3787

> <Gold.PLP.ligand.clash>
0.0000

> <Gold.PLP.ligand.torsion>
0.7820

> <Gold.PLP.Chemscore.Hbond>
2.7296

> <Gold.PLP.Chemscore.CHOScore>
1.9268

> <Gold.PLP.Chemscore.Metal>
0.0000

> <Gold.Chemscore.Hbonds>
donor molecule, donor type, donor heavy atom, donor atom, acceptor molecule, acceptor atom, score
      L1  H     9    41       P1  7948  2.00
      P1  H  8011  8017       L1    18  0.72
      L1  C     5    25       P1 10747  0.95
      L1  C     7    27       P1 10952  0.87

> <Gold.PLP.Chemscore.Internal.Correction>
0.0591

> <Gold.Rescore>
     Score         DG    S(hbond)    S(metal)    S(lipo)     H(rot)  DE(clash)    DE(int)     intcor
     12.52     -15.93       1.78        0.00      86.41       2.19       2.54       0.86       ----

> <Gold.Chemscore.Fitness>
12.5235

> <Gold.Chemscore.DG>
-15.9267

> <Gold.Chemscore.ZeroCoef>
-5.4800

> <Gold.Chemscore.Hbond>
1.7783

> <Gold.Chemscore.Metal>
0.0000

> <Gold.Chemscore.Lipo>
86.4068

> <Gold.Chemscore.Internal_Hbond>
0.0000

> <Gold.Chemscore.DEClash>
2.5383

> <Gold.Chemscore.DEInternal>
0.8649

> <Gold.Chemscore.Rot>
2.1884

> <Gold.Chemscore.Internal.Correction>
   9.000000E+99

> <Gold.Chemscore.Hbonds>
donor molecule, donor type, donor heavy atom, donor atom, acceptor molecule, acceptor atom, score
      L1  H     9    41       P1  7948  1.00
      P1  H  8011  8017       L1    18  0.69

> <Gold.Chemscore.Hbond.Weighted>
-5.9394

> <Gold.Chemscore.Metal.Weighted>
-0.0000

> <Gold.Chemscore.Lipo.Weighted>
-10.1096

> <Gold.Chemscore.Internal_Hbond.Weighted>
0.0000

> <Gold.Chemscore.DEClash.Weighted>
2.5383

> <Gold.Chemscore.DEInternal.Weighted>
0.8649

> <Gold.Chemscore.Rot.Weighted>
5.6023

> <Gold.Chemscore.Internal.Correction.Weighted>
   9.000000E+99

> <Gold.Protein.RotatedTorsions>
[ 6907 6896 6895 6894 ] final  -57.12 input  -60.11 | X-H torsion
[ 7974 7965 7964 7962 ] final -108.89 input  175.53 | X-H torsion
[ 8008 7997 7996 7995 ] final  169.72 input   59.86 | X-H torsion
[ 10167 10162 10161 10158 ] final   -1.31 input  -65.29 | X-H torsion
[ 10718 10713 10712 10709 ] final -131.85 input   66.30 | X-H torsion
[ 10763 10752 10751 10750 ] final   17.42 input  -60.55 | X-H torsion
[ 11005 11000 10999 10996 ] final -153.99 input  -57.11 | X-H torsion

> <Gold.Protein.ActiveResidues>
 VAL166  LYS551  ARG553  GLY616  TRP617  ASP618  TYR619  PRO620  LYS621  CYS622 
 ASP623  PHE694  ASN695  SER759  ASP760  ASP761  ALA762  ILE779  LEU786  VAL792 
 PHE793  MET794  SER795  GLU796  ALA797  LYS798  CYS799  TRP800  GLU811  SER814 

> <Gold.Protein.RotatedAtoms>
  150.8112  134.7267  159.6688 H   0  0  0  0  0  0  0  0  0  0  0  0  # atno 6907 bound_to 6896
  152.4231  134.5914  159.9985 H   0  0  0  0  0  0  0  0  0  0  0  0  # atno 6908 bound_to 6896
  151.6124  133.3309  159.3106 H   0  0  0  0  0  0  0  0  0  0  0  0  # atno 6909 bound_to 6896
  145.1873  140.8999  143.3445 H   0  0  0  0  0  0  0  0  0  0  0  0  # atno 7974 bound_to 7965
  156.1431  140.1557  156.8889 H   0  0  0  0  0  0  0  0  0  0  0  0  # atno 8008 bound_to 7997
  154.5005  140.0826  156.7825 H   0  0  0  0  0  0  0  0  0  0  0  0  # atno 8009 bound_to 7997
  155.4040  140.3416  155.4261 H   0  0  0  0  0  0  0  0  0  0  0  0  # atno 8010 bound_to 7997
  140.6805  143.6790  150.8121 H   0  0  0  0  0  0  0  0  0  0  0  0  # atno 10167 bound_to 10162
  156.2285  130.7023  151.0833 H   0  0  0  0  0  0  0  0  0  0  0  0  # atno 10718 bound_to 10713
  153.1340  135.6746  153.9132 H   0  0  0  0  0  0  0  0  0  0  0  0  # atno 10763 bound_to 10752
  153.8609  135.3081  155.3439 H   0  0  0  0  0  0  0  0  0  0  0  0  # atno 10764 bound_to 10752
  154.7732  135.4928  153.9773 H   0  0  0  0  0  0  0  0  0  0  0  0  # atno 10765 bound_to 10752
  140.7021  134.3925  157.5208 H   0  0  0  0  0  0  0  0  0  0  0  0  # atno 11005 bound_to 11000
  145.0076  139.3540  143.6136 LP  0  0  0  0  0  0  0  0  0  0  0  0  # atno 17320 bound_to 7965
  146.3442  139.9325  142.8751 LP  0  0  0  0  0  0  0  0  0  0  0  0  # atno 17321 bound_to 7965
  140.0490  143.5269  152.2682 LP  0  0  0  0  0  0  0  0  0  0  0  0  # atno 17342 bound_to 10162
  139.6124  144.7612  151.2922 LP  0  0  0  0  0  0  0  0  0  0  0  0  # atno 17343 bound_to 10162
  157.7122  131.0728  150.6459 LP  0  0  0  0  0  0  0  0  0  0  0  0  # atno 17370 bound_to 10713
  156.6526  130.4489  149.5714 LP  0  0  0  0  0  0  0  0  0  0  0  0  # atno 17371 bound_to 10713
  139.8894  134.8832  156.2424 LP  0  0  0  0  0  0  0  0  0  0  0  0  # atno 17394 bound_to 11000
  141.0155  133.7071  156.1181 LP  0  0  0  0  0  0  0  0  0  0  0  0  # atno 17395 bound_to 11000

$$$$
