AV-unprocessed.smi:1056|AV-procd|sdf|4640|dock4
  -GOLD-   22720 3143D 1   1.00000     0.00000
 Structure written by MMmdl.
 45 47  0  0  0  0  0  0  0  0  2 V2000
  152.2611  144.7985  160.5423 C   0  0  0  0  0  0  0  0  0  0  0  0
  152.0939  143.5900  159.6369 C   0  0  0  0  0  0  0  0  0  0  0  0
  151.3644  143.7435  158.4362 C   0  0  0  0  0  0  0  0  0  0  0  0
  151.2255  142.6196  157.6306 C   0  0  0  0  0  0  0  0  0  0  0  0
  150.5768  142.4451  156.4061 N   0  3  0  0  0  0  0  0  0  0  0  0
  150.7120  141.1520  156.0006 C   0  0  0  0  0  0  0  0  0  0  0  0
  151.4370  140.4992  156.9490 N   0  0  0  0  0  0  0  0  0  0  0  0
  151.8669  139.0958  157.0092 C   0  0  0  0  0  0  0  0  0  0  0  0
  151.2095  138.3124  158.1643 C   0  0  2  0  0  0  0  0  0  0  0  0
  152.1679  138.1558  159.1943 O   0  0  0  0  0  0  0  0  0  0  0  0
  150.7117  136.9206  157.7120 C   0  0  0  0  0  0  0  0  0  0  0  0
  149.8381  136.2254  158.6630 N   0  0  0  0  0  0  0  0  0  0  0  0
  148.9534  135.2459  158.0310 C   0  0  0  0  0  0  0  0  0  0  0  0
  148.1465  134.4502  159.0688 C   0  0  0  0  0  0  0  0  0  0  0  0
  147.5537  135.3152  160.0833 N   0  0  0  0  0  0  0  0  0  0  0  0
  147.9645  136.5650  160.3527 C   0  0  0  0  0  0  0  0  0  0  0  0
  147.4638  137.2289  161.2576 O   0  0  0  0  0  0  0  0  0  0  0  0
  149.0710  137.1823  159.4762 C   0  0  0  0  0  0  0  0  0  0  0  0
  151.7810  141.3746  157.9837 C   0  0  0  0  0  0  0  0  0  0  0  0
  152.5044  141.2059  159.1616 C   0  0  0  0  0  0  0  0  0  0  0  0
  152.6586  142.3377  159.9939 C   0  0  0  0  0  0  0  0  0  0  0  0
  153.4431  142.1853  161.2861 C   0  0  0  0  0  0  0  0  0  0  0  0
  151.7622  145.6769  160.1317 H   0  0  0  0  0  0  0  0  0  0  0  0
  153.3166  145.0421  160.6653 H   0  0  0  0  0  0  0  0  0  0  0  0
  151.8332  144.6020  161.5257 H   0  0  0  0  0  0  0  0  0  0  0  0
  150.9328  144.6936  158.1571 H   0  0  0  0  0  0  0  0  0  0  0  0
  150.3181  140.7224  155.0908 H   0  0  0  0  0  0  0  0  0  0  0  0
  151.6502  138.6310  156.0465 H   0  0  0  0  0  0  0  0  0  0  0  0
  152.9524  139.0909  157.1180 H   0  0  0  0  0  0  0  0  0  0  0  0
  150.3730  138.8947  158.5529 H   0  0  0  0  0  0  0  0  0  0  0  0
  151.7122  138.0841  160.0191 H   0  0  0  0  0  0  0  0  0  0  0  0
  150.1422  137.0634  156.7920 H   0  0  0  0  0  0  0  0  0  0  0  0
  151.5521  136.2848  157.4262 H   0  0  0  0  0  0  0  0  0  0  0  0
  148.2725  135.7535  157.3449 H   0  0  0  0  0  0  0  0  0  0  0  0
  149.5237  134.5364  157.4330 H   0  0  0  0  0  0  0  0  0  0  0  0
  147.3614  133.8730  158.5804 H   0  0  0  0  0  0  0  0  0  0  0  0
  148.7972  133.7367  159.5754 H   0  0  0  0  0  0  0  0  0  0  0  0
  146.8117  134.9256  160.6466 H   0  0  0  0  0  0  0  0  0  0  0  0
  149.7490  137.7465  160.1182 H   0  0  0  0  0  0  0  0  0  0  0  0
  148.5830  137.9103  158.8260 H   0  0  0  0  0  0  0  0  0  0  0  0
  152.9327  140.2519  159.4320 H   0  0  0  0  0  0  0  0  0  0  0  0
  153.8521  141.1796  161.3887 H   0  0  0  0  0  0  0  0  0  0  0  0
  152.8012  142.3739  162.1471 H   0  0  0  0  0  0  0  0  0  0  0  0
  154.2776  142.8862  161.3150 H   0  0  0  0  0  0  0  0  0  0  0  0
  150.0784  143.1535  155.8831 H   0  0  0  0  0  0  0  0  0  0  0  0
  1  2  1  0  0  0  0
  1 23  1  0  0  0  0
  1 24  1  0  0  0  0
  1 25  1  0  0  0  0
  2 21  1  0  0  0  0
  2  3  2  0  0  0  0
  3  4  1  0  0  0  0
  3 26  1  0  0  0  0
  4 19  2  0  0  0  0
  4  5  1  0  0  0  0
  5  6  2  0  0  0  0
  5 45  1  0  0  0  0
  6  7  1  0  0  0  0
  6 27  1  0  0  0  0
  7  8  1  0  0  0  0
  7 19  1  0  0  0  0
  8  9  1  0  0  0  0
  8 28  1  0  0  0  0
  8 29  1  0  0  0  0
  9 10  1  0  0  0  0
  9 11  1  0  0  0  0
  9 30  1  0  0  0  0
 10 31  1  0  0  0  0
 11 12  1  0  0  0  0
 11 32  1  0  0  0  0
 11 33  1  0  0  0  0
 12 18  1  0  0  0  0
 12 13  1  0  0  0  0
 13 14  1  0  0  0  0
 13 34  1  0  0  0  0
 13 35  1  0  0  0  0
 14 15  1  0  0  0  0
 14 36  1  0  0  0  0
 14 37  1  0  0  0  0
 15 16  1  0  0  0  0
 15 38  1  0  0  0  0
 16 17  2  0  0  0  0
 16 18  1  0  0  0  0
 18 39  1  0  0  0  0
 18 40  1  0  0  0  0
 19 20  1  0  0  0  0
 20 21  2  0  0  0  0
 20 41  1  0  0  0  0
 21 22  1  0  0  0  0
 22 42  1  0  0  0  0
 22 43  1  0  0  0  0
 22 44  1  0  0  0  0
M  CHG  1   5   1
M  END
> <s_m_source_file>
AV-unprocessed.smi

> <i_m_source_file_index>
1056

> <i_lp_mmshare_version>
43012

> <i_f3d_flags>
0

> <s_epik_input>
W0NIM11jKFtjSF0xKWMoW0NIM10pW2NIXWMoYzEyKW4oW2NIXW4yKVtDSDJdW0NASF0oW09IXSlbQ0gyXU4zW0NIMl1bQ0gyXVtOSF1DKD1PKVtDSDJdMw==

> <s_epik_cmdline>
J2VwaWtfcHl0aG9uJywgJy1waCcsICc3LjAnLCAnLXRuJywgJzgnLCAnLW1hJywgJzIwMCcsICctbWV0YWxfYmluZGluZycsICctaW1hZScsICc8aW5maWxlLm1hZT4nLCAnLW9tYWUnLCAnPG91dGZpbGUubWFlPic=

> <r_epik_Ionization_Penalty>
2.47196

> <r_epik_Ionization_Penalty_Charging>
1.21809

> <r_epik_Ionization_Penalty_Neutral>
1.25387

> <r_epik_State_Penalty>
2.6255

> <r_epik_Charging_Adjusted_Penalty>
3.84359

> <i_epik_Tot_Q>
1

> <i_epik_Tot_abs_Q>
1

> <r_epik_Metal_State_Penalty>
2.76698

> <b_epik_Metal_Only>
0

> <s_lp_Force_Field>
OPLS_2005

> <r_lp_Energy>
35.3562

> <b_lp_Chiralities_Consistent>
1

> <s_lp_Variant>
AV-unprocessed.smi:1056-11

> <Gold.Version>
5.8.1

> <Gold.Id.Protein>
6NUR|6NUR_protein|mol2

> <Gold.PLP.Fitness>
54.6040

> <Gold.PLP.PLP>
-42.2925

> <Gold.PLP.part.hbond>
-4.0000

> <Gold.PLP.part.metal>
0.0000

> <Gold.PLP.part.buried>
-6.1929

> <Gold.PLP.part.nonpolar>
-32.9015

> <Gold.PLP.part.repulsive>
0.1547

> <Gold.PLP.ligand.clash>
0.0000

> <Gold.PLP.ligand.torsion>
1.0669

> <Gold.PLP.Chemscore.Hbond>
4.8060

> <Gold.PLP.Chemscore.CHOScore>
0.0000

> <Gold.PLP.Chemscore.Metal>
0.0000

> <Gold.Chemscore.Hbonds>
donor molecule, donor type, donor heavy atom, donor atom, acceptor molecule, acceptor atom, score
      L1  H     5    45       P1  8028  2.00
      P1  H  6896  6909       L1    12  0.85
      P1  H  6931  6943       L1    17  0.88
      P1  H  6934  6947       L1    17  0.94

> <Gold.PLP.Chemscore.Internal.Correction>
0.0274

> <Gold.Rescore>
     Score         DG    S(hbond)    S(metal)    S(lipo)     H(rot)  DE(clash)    DE(int)     intcor
     17.90     -19.15       2.44        0.00      99.23       2.37       0.03       1.22       ----

> <Gold.Chemscore.Fitness>
17.8973

> <Gold.Chemscore.DG>
-19.1518

> <Gold.Chemscore.ZeroCoef>
-5.4800

> <Gold.Chemscore.Hbond>
2.4356

> <Gold.Chemscore.Metal>
0.0000

> <Gold.Chemscore.Lipo>
99.2345

> <Gold.Chemscore.Internal_Hbond>
0.0000

> <Gold.Chemscore.DEClash>
0.0310

> <Gold.Chemscore.DEInternal>
1.2236

> <Gold.Chemscore.Rot>
2.3724

> <Gold.Chemscore.Internal.Correction>
   9.000000E+99

> <Gold.Chemscore.Hbonds>
donor molecule, donor type, donor heavy atom, donor atom, acceptor molecule, acceptor atom, score
      L1  H     5    45       P1  8028  0.96
      P1  H  6896  6909       L1    12  0.09
      P1  H  6931  6943       L1    17  0.29
      P1  H  6934  6947       L1    17  0.86

> <Gold.Chemscore.Hbond.Weighted>
-8.1348

> <Gold.Chemscore.Metal.Weighted>
-0.0000

> <Gold.Chemscore.Lipo.Weighted>
-11.6104

> <Gold.Chemscore.Internal_Hbond.Weighted>
0.0000

> <Gold.Chemscore.DEClash.Weighted>
0.0310

> <Gold.Chemscore.DEInternal.Weighted>
1.2236

> <Gold.Chemscore.Rot.Weighted>
6.0734

> <Gold.Chemscore.Internal.Correction.Weighted>
   9.000000E+99

> <Gold.Protein.RotatedTorsions>
[ 6907 6896 6895 6894 ] final   76.21 input  -60.11 | X-H torsion
[ 7974 7965 7964 7962 ] final  -22.35 input  175.53 | X-H torsion
[ 8008 7997 7996 7995 ] final -126.31 input   59.86 | X-H torsion
[ 10167 10162 10161 10158 ] final -128.76 input  -65.29 | X-H torsion
[ 10718 10713 10712 10709 ] final   64.98 input   66.30 | X-H torsion
[ 10763 10752 10751 10750 ] final -150.07 input  -60.55 | X-H torsion
[ 11005 11000 10999 10996 ] final   33.04 input  -57.11 | X-H torsion

> <Gold.Protein.ActiveResidues>
 VAL166  LYS551  ARG553  GLY616  TRP617  ASP618  TYR619  PRO620  LYS621  CYS622 
 ASP623  PHE694  ASN695  SER759  ASP760  ASP761  ALA762  ILE779  LEU786  VAL792 
 PHE793  MET794  SER795  GLU796  ALA797  LYS798  CYS799  TRP800  GLU811  SER814 

> <Gold.Protein.RotatedAtoms>
  152.5062  134.4004  159.9414 H   0  0  0  0  0  0  0  0  0  0  0  0  # atno 6907 bound_to 6896
  151.3968  133.3764  159.2735 H   0  0  0  0  0  0  0  0  0  0  0  0  # atno 6908 bound_to 6896
  150.9391  134.8823  159.7660 H   0  0  0  0  0  0  0  0  0  0  0  0  # atno 6909 bound_to 6896
  146.1681  140.4467  142.8544 H   0  0  0  0  0  0  0  0  0  0  0  0  # atno 7974 bound_to 7965
  155.2275  140.0424  157.2957 H   0  0  0  0  0  0  0  0  0  0  0  0  # atno 8008 bound_to 7997
  154.5909  140.2426  155.7892 H   0  0  0  0  0  0  0  0  0  0  0  0  # atno 8009 bound_to 7997
  156.2258  140.2955  156.0073 H   0  0  0  0  0  0  0  0  0  0  0  0  # atno 8010 bound_to 7997
  139.9469  143.6100  152.2487 H   0  0  0  0  0  0  0  0  0  0  0  0  # atno 10167 bound_to 10162
  157.6075  130.9189  149.9916 H   0  0  0  0  0  0  0  0  0  0  0  0  # atno 10718 bound_to 10713
  154.8140  135.3293  154.7226 H   0  0  0  0  0  0  0  0  0  0  0  0  # atno 10763 bound_to 10752
  153.7870  135.6914  153.4882 H   0  0  0  0  0  0  0  0  0  0  0  0  # atno 10764 bound_to 10752
  153.1942  135.4540  155.0134 H   0  0  0  0  0  0  0  0  0  0  0  0  # atno 10765 bound_to 10752
  140.2672  134.3124  155.7839 H   0  0  0  0  0  0  0  0  0  0  0  0  # atno 11005 bound_to 11000
  144.8122  140.6405  143.6408 LP  0  0  0  0  0  0  0  0  0  0  0  0  # atno 17320 bound_to 7965
  145.4414  139.1535  143.3968 LP  0  0  0  0  0  0  0  0  0  0  0  0  # atno 17321 bound_to 7965
  139.6660  144.7662  151.1873 LP  0  0  0  0  0  0  0  0  0  0  0  0  # atno 17342 bound_to 10162
  140.7594  143.5938  150.8769 LP  0  0  0  0  0  0  0  0  0  0  0  0  # atno 17343 bound_to 10162
  156.1166  130.3647  149.9957 LP  0  0  0  0  0  0  0  0  0  0  0  0  # atno 17370 bound_to 10713
  156.8045  130.9302  151.3645 LP  0  0  0  0  0  0  0  0  0  0  0  0  # atno 17371 bound_to 10713
  141.2182  133.7445  156.9279 LP  0  0  0  0  0  0  0  0  0  0  0  0  # atno 17394 bound_to 11000
  140.1408  134.9295  157.2463 LP  0  0  0  0  0  0  0  0  0  0  0  0  # atno 17395 bound_to 11000

$$$$
