AV-unprocessed.smi:2226|AV-procd|sdf|9017|dock2
  -GOLD-   2272012223D 1   1.00000     0.00000
 Structure written by MMmdl.
 39 41  0  0  0  0  0  0  0  0  3 V2000
  148.6054  133.0345  152.8519 C   0  0  0  0  0  0  0  0  0  0  0  0
  148.7746  134.1213  153.8457 N   0  3  2  0  0  0  0  0  0  0  0  0
  150.1138  134.1851  154.4776 C   0  0  2  0  0  0  0  0  0  0  0  0
  150.3434  132.9918  155.4393 C   0  0  0  0  0  0  0  0  0  0  0  0
  149.2173  132.7843  156.4684 C   0  0  0  0  0  0  0  0  0  0  0  0
  147.8160  132.9926  155.8668 C   0  0  0  0  0  0  0  0  0  0  0  0
  147.7185  134.1857  154.8835 C   0  0  1  0  0  0  0  0  0  0  0  0
  147.7422  135.5851  155.5396 C   0  0  0  0  0  0  0  0  0  0  0  0
  149.1406  136.1015  155.9790 C   0  0  1  0  0  0  0  0  0  0  0  0
  149.4071  135.8927  157.4000 N   0  0  0  0  0  0  0  0  0  0  0  0
  148.6231  136.2603  158.4241 C   0  0  0  0  0  0  0  0  0  0  0  0
  147.5629  136.8513  158.2069 O   0  0  0  0  0  0  0  0  0  0  0  0
  149.1145  135.9112  159.6335 N   0  5  0  0  0  0  0  0  0  0  0  0
  148.3007  135.8831  160.7011 C   0  0  0  0  0  0  0  0  0  0  0  0
  147.7538  134.7977  161.2514 N   0  0  0  0  0  0  0  0  0  0  0  0
  146.9938  135.2552  162.3168 C   0  0  0  0  0  0  0  0  0  0  0  0
  147.1096  136.6175  162.3605 C   0  0  0  0  0  0  0  0  0  0  0  0
  147.9289  137.0258  161.3447 O   0  0  0  0  0  0  0  0  0  0  0  0
  150.3100  135.5867  155.1016 C   0  0  0  0  0  0  0  0  0  0  0  0
  148.6853  132.0455  153.3022 H   0  0  0  0  0  0  0  0  0  0  0  0
  149.3634  133.1129  152.0723 H   0  0  0  0  0  0  0  0  0  0  0  0
  147.6298  133.1080  152.3706 H   0  0  0  0  0  0  0  0  0  0  0  0
  150.8583  134.1000  153.6848 H   0  0  0  0  0  0  0  0  0  0  0  0
  150.4379  132.0804  154.8487 H   0  0  0  0  0  0  0  0  0  0  0  0
  151.2981  133.1018  155.9547 H   0  0  0  0  0  0  0  0  0  0  0  0
  149.2872  131.7790  156.8848 H   0  0  0  0  0  0  0  0  0  0  0  0
  149.3600  133.4369  157.3228 H   0  0  0  0  0  0  0  0  0  0  0  0
  147.5309  132.0815  155.3404 H   0  0  0  0  0  0  0  0  0  0  0  0
  147.0841  133.1044  156.6673 H   0  0  0  0  0  0  0  0  0  0  0  0
  146.7541  134.1032  154.3802 H   0  0  0  0  0  0  0  0  0  0  0  0
  147.3628  136.2894  154.7979 H   0  0  0  0  0  0  0  0  0  0  0  0
  147.0242  135.6300  156.3592 H   0  0  0  0  0  0  0  0  0  0  0  0
  149.1313  137.1865  155.8573 H   0  0  0  0  0  0  0  0  0  0  0  0
  150.2666  135.4177  157.6345 H   0  0  0  0  0  0  0  0  0  0  0  0
  146.4359  134.5830  162.9517 H   0  0  0  0  0  0  0  0  0  0  0  0
  146.7060  137.3878  163.0002 H   0  0  0  0  0  0  0  0  0  0  0  0
  151.2554  135.6365  155.6441 H   0  0  0  0  0  0  0  0  0  0  0  0
  150.4226  136.2894  154.2746 H   0  0  0  0  0  0  0  0  0  0  0  0
  148.6838  134.9738  153.3117 H   0  0  0  0  0  0  0  0  0  0  0  0
  1  2  1  0  0  0  0
  1 20  1  0  0  0  0
  1 21  1  0  0  0  0
  1 22  1  0  0  0  0
  2  7  1  0  0  0  0
  2  3  1  0  0  0  0
  2 39  1  0  0  0  0
  3 19  1  0  0  0  0
  3  4  1  0  0  0  0
  3 23  1  0  0  0  0
  4  5  1  0  0  0  0
  4 24  1  0  0  0  0
  4 25  1  0  0  0  0
  5  6  1  0  0  0  0
  5 26  1  0  0  0  0
  5 27  1  0  0  0  0
  6  7  1  0  0  0  0
  6 28  1  0  0  0  0
  6 29  1  0  0  0  0
  7  8  1  0  0  0  0
  7 30  1  0  0  0  0
  8  9  1  0  0  0  0
  8 31  1  0  0  0  0
  8 32  1  0  0  0  0
  9 10  1  0  0  0  0
  9 19  1  0  0  0  0
  9 33  1  0  0  0  0
 10 34  1  0  0  0  0
 10 11  1  0  0  0  0
 11 13  1  0  0  0  0
 11 12  2  0  0  0  0
 13 14  1  0  0  0  0
 14 18  1  0  0  0  0
 14 15  2  0  0  0  0
 15 16  1  0  0  0  0
 16 35  1  0  0  0  0
 16 17  2  0  0  0  0
 17 36  1  0  0  0  0
 17 18  1  0  0  0  0
 19 37  1  0  0  0  0
 19 38  1  0  0  0  0
M  CHG  1   2   1
M  CHG  1  13  -1
M  END
> <s_m_source_file>
AV-unprocessed.smi

> <i_m_source_file_index>
2226

> <i_lp_mmshare_version>
43012

> <i_f3d_flags>
0

> <s_epik_input>
W0NIMl0xW0NIMl1bQ0gyXVtDQEhdKE4oW0NIM10pW0NIXTEyKVtDSDJdW0NASF0oW0NIMl0yKVtOSF1DKD1PKVtOSF1jM25bY0hdW2NIXW8z

> <s_epik_cmdline>
J2VwaWtfcHl0aG9uJywgJy1waCcsICc3LjAnLCAnLXRuJywgJzgnLCAnLW1hJywgJzIwMCcsICctbWV0YWxfYmluZGluZycsICctaW1hZScsICc8aW5maWxlLm1hZT4nLCAnLW9tYWUnLCAnPG91dGZpbGUubWFlPic=

> <r_lp_tautomer_probability>
0.107061

> <r_epik_Ionization_Penalty>
10.5612

> <r_epik_Ionization_Penalty_Charging>
7.48913

> <r_epik_Ionization_Penalty_Neutral>
3.07202

> <r_epik_State_Penalty>
5.6431

> <r_epik_Charging_Adjusted_Penalty>
13.1322

> <i_epik_Tot_Q>
0

> <i_epik_Tot_abs_Q>
2

> <r_epik_Metal_State_Penalty>
1.58163

> <b_epik_Metal_Only>
1

> <s_lp_Force_Field>
OPLS_2005

> <r_lp_Energy>
26.2411

> <b_lp_Chiralities_Consistent>
1

> <s_lp_Variant>
AV-unprocessed.smi:2226-17

> <Gold.Version>
5.8.1

> <Gold.Id.Protein>
6NUR|6NUR_protein|mol2

> <Gold.PLP.Fitness>
41.1803

> <Gold.PLP.PLP>
-25.8722

> <Gold.PLP.part.hbond>
-4.0000

> <Gold.PLP.part.metal>
0.0000

> <Gold.PLP.part.buried>
-4.0422

> <Gold.PLP.part.nonpolar>
-18.0073

> <Gold.PLP.part.repulsive>
0.0655

> <Gold.PLP.ligand.clash>
0.0000

> <Gold.PLP.ligand.torsion>
0.8209

> <Gold.PLP.Chemscore.Hbond>
5.6318

> <Gold.PLP.Chemscore.CHOScore>
0.0000

> <Gold.PLP.Chemscore.Metal>
0.0000

> <Gold.Chemscore.Hbonds>
donor molecule, donor type, donor heavy atom, donor atom, acceptor molecule, acceptor atom, score
      L1  H     2    39       P1  7948  2.00
      P1  H  6896  6909       L1    13  2.00
      P1  H  6931  6943       L1    18  1.00
      P1  H  6934  6947       L1    18  0.49

> <Gold.PLP.Chemscore.Internal.Correction>
0.0546

> <Gold.Rescore>
     Score         DG    S(hbond)    S(metal)    S(lipo)     H(rot)  DE(clash)    DE(int)     intcor
     16.27     -18.36       2.76        0.00      53.17       1.00       0.01       2.09       ----

> <Gold.Chemscore.Fitness>
16.2669

> <Gold.Chemscore.DG>
-18.3616

> <Gold.Chemscore.ZeroCoef>
-5.4800

> <Gold.Chemscore.Hbond>
2.7608

> <Gold.Chemscore.Metal>
0.0000

> <Gold.Chemscore.Lipo>
53.1684

> <Gold.Chemscore.Internal_Hbond>
0.0000

> <Gold.Chemscore.DEClash>
0.0086

> <Gold.Chemscore.DEInternal>
2.0861

> <Gold.Chemscore.Rot>
1.0000

> <Gold.Chemscore.Internal.Correction>
   9.000000E+99

> <Gold.Chemscore.Hbonds>
donor molecule, donor type, donor heavy atom, donor atom, acceptor molecule, acceptor atom, score
      L1  H     2    39       P1  7948  0.60
      P1  H  6896  6909       L1    13  0.88
      P1  H  6931  6943       L1    18  0.73
      P1  H  6934  6947       L1    18  0.17

> <Gold.Chemscore.Hbond.Weighted>
-9.2209

> <Gold.Chemscore.Metal.Weighted>
-0.0000

> <Gold.Chemscore.Lipo.Weighted>
-6.2207

> <Gold.Chemscore.Internal_Hbond.Weighted>
0.0000

> <Gold.Chemscore.DEClash.Weighted>
0.0086

> <Gold.Chemscore.DEInternal.Weighted>
2.0861

> <Gold.Chemscore.Rot.Weighted>
2.5600

> <Gold.Chemscore.Internal.Correction.Weighted>
   9.000000E+99

> <Gold.Protein.RotatedTorsions>
[ 6907 6896 6895 6894 ] final   63.24 input  -60.11 | X-H torsion
[ 7974 7965 7964 7962 ] final -134.12 input  175.53 | X-H torsion
[ 8008 7997 7996 7995 ] final  150.16 input   59.86 | X-H torsion
[ 10167 10162 10161 10158 ] final  -31.26 input  -65.29 | X-H torsion
[ 10718 10713 10712 10709 ] final  -86.00 input   66.30 | X-H torsion
[ 10763 10752 10751 10750 ] final   96.40 input  -60.55 | X-H torsion
[ 11005 11000 10999 10996 ] final  -70.48 input  -57.11 | X-H torsion

> <Gold.Protein.ActiveResidues>
 VAL166  LYS551  ARG553  GLY616  TRP617  ASP618  TYR619  PRO620  LYS621  CYS622 
 ASP623  PHE694  ASN695  SER759  ASP760  ASP761  ALA762  ILE779  LEU786  VAL792 
 PHE793  MET794  SER795  GLU796  ALA797  LYS798  CYS799  TRP800  GLU811  SER814 

> <Gold.Protein.RotatedAtoms>
  152.4237  134.5908  159.9973 H   0  0  0  0  0  0  0  0  0  0  0  0  # atno 6907 bound_to 6896
  151.6051  133.3347  159.3063 H   0  0  0  0  0  0  0  0  0  0  0  0  # atno 6908 bound_to 6896
  150.8125  134.7326  159.6766 H   0  0  0  0  0  0  0  0  0  0  0  0  # atno 6909 bound_to 6896
  144.9131  140.6920  143.5012 H   0  0  0  0  0  0  0  0  0  0  0  0  # atno 7974 bound_to 7965
  156.2726  140.2082  156.5974 H   0  0  0  0  0  0  0  0  0  0  0  0  # atno 8008 bound_to 7997
  154.6934  140.0528  157.0410 H   0  0  0  0  0  0  0  0  0  0  0  0  # atno 8009 bound_to 7997
  155.0835  140.3189  155.4597 H   0  0  0  0  0  0  0  0  0  0  0  0  # atno 8010 bound_to 7997
  140.7238  143.3785  151.1645 H   0  0  0  0  0  0  0  0  0  0  0  0  # atno 10167 bound_to 10162
  155.9992  130.4750  150.4648 H   0  0  0  0  0  0  0  0  0  0  0  0  # atno 10718 bound_to 10713
  153.2645  135.4220  155.0926 H   0  0  0  0  0  0  0  0  0  0  0  0  # atno 10763 bound_to 10752
  154.8432  135.3457  154.6331 H   0  0  0  0  0  0  0  0  0  0  0  0  # atno 10764 bound_to 10752
  153.6751  135.7041  153.5192 H   0  0  0  0  0  0  0  0  0  0  0  0  # atno 10765 bound_to 10752
  141.1575  133.6791  156.6759 H   0  0  0  0  0  0  0  0  0  0  0  0  # atno 11005 bound_to 11000
  145.3421  139.1729  143.4480 LP  0  0  0  0  0  0  0  0  0  0  0  0  # atno 17320 bound_to 7965
  146.3168  140.3463  142.8652 LP  0  0  0  0  0  0  0  0  0  0  0  0  # atno 17321 bound_to 7965
  139.7369  143.8985  152.3038 LP  0  0  0  0  0  0  0  0  0  0  0  0  # atno 17342 bound_to 10162
  139.8793  144.7026  150.8897 LP  0  0  0  0  0  0  0  0  0  0  0  0  # atno 17343 bound_to 10162
  157.2668  131.0579  151.2285 LP  0  0  0  0  0  0  0  0  0  0  0  0  # atno 17370 bound_to 10713
  157.3379  130.7018  149.6364 LP  0  0  0  0  0  0  0  0  0  0  0  0  # atno 17371 bound_to 10713
  140.3140  134.8063  157.4199 LP  0  0  0  0  0  0  0  0  0  0  0  0  # atno 17394 bound_to 11000
  140.1154  134.5290  155.8229 LP  0  0  0  0  0  0  0  0  0  0  0  0  # atno 17395 bound_to 11000

$$$$
