AV-unprocessed.smi:550|AV-procd|sdf|2896|dock5
  -GOLD-   2262023393D 1   1.00000     0.00000
 Structure written by MMmdl.
 46 48  0  0  0  0  0  0  0  0  2 V2000
  146.7414  139.9056  153.9470 O   0  0  0  0  0  0  0  0  0  0  0  0
  147.6681  139.2533  153.4672 C   0  0  0  0  0  0  0  0  0  0  0  0
  147.5003  138.3242  152.5155 N   0  0  0  0  0  0  0  0  0  0  0  0
  146.2227  137.9757  151.9010 C   0  0  0  0  0  0  0  0  0  0  0  0
  145.7186  136.5756  152.3211 C   0  0  2  0  0  0  0  0  0  0  0  0
  144.2554  136.3154  151.8960 C   0  0  0  0  0  0  0  0  0  0  0  0
  143.3081  137.0241  152.8742 C   0  0  0  0  0  0  0  0  0  0  0  0
  144.1790  137.0510  154.4868 S   0  0  0  0  0  0  0  0  0  0  0  0
  144.3573  138.4490  154.9072 O   0  0  0  0  0  0  0  0  0  0  0  0
  143.5802  136.0584  155.3920 O   0  0  0  0  0  0  0  0  0  0  0  0
  145.7689  136.4002  153.8474 C   0  0  0  0  0  0  0  0  0  0  0  0
  148.9598  139.3562  153.8264 N   0  0  0  0  0  0  0  0  0  0  0  0
  149.5548  140.2469  154.7620 C   0  0  0  0  0  0  0  0  0  0  0  0
  150.7164  139.8108  155.4355 C   0  0  0  0  0  0  0  0  0  0  0  0
  151.3539  140.6637  156.3598 C   0  0  0  0  0  0  0  0  0  0  0  0
  150.8240  141.9543  156.5919 C   0  0  0  0  0  0  0  0  0  0  0  0
  151.3795  142.8790  157.4873 N   0  0  0  0  0  0  0  0  0  0  0  0
  150.4094  143.5565  158.3298 C   0  0  0  0  0  0  0  0  0  0  0  0
  151.2242  144.1913  159.4589 C   0  0  0  0  0  0  0  0  0  0  0  0
  152.5183  143.3707  159.5189 C   0  0  0  0  0  0  0  0  0  0  0  0
  152.3920  142.3481  158.3856 C   0  0  0  0  0  0  0  0  0  0  0  0
  149.7153  142.3380  155.9231 N   0  3  0  0  0  0  0  0  0  0  0  0
  149.0733  141.5518  155.0319 C   0  0  0  0  0  0  0  0  0  0  0  0
  148.3145  137.8300  152.1802 H   0  0  0  0  0  0  0  0  0  0  0  0
  145.4806  138.7343  152.1560 H   0  0  0  0  0  0  0  0  0  0  0  0
  146.3461  138.0281  150.8191 H   0  0  0  0  0  0  0  0  0  0  0  0
  146.3674  135.8295  151.8605 H   0  0  0  0  0  0  0  0  0  0  0  0
  144.0562  136.6031  150.8637 H   0  0  0  0  0  0  0  0  0  0  0  0
  144.0685  135.2425  151.9546 H   0  0  0  0  0  0  0  0  0  0  0  0
  143.1294  138.0553  152.5692 H   0  0  0  0  0  0  0  0  0  0  0  0
  142.3468  136.5196  152.9739 H   0  0  0  0  0  0  0  0  0  0  0  0
  145.8222  135.3426  154.1072 H   0  0  0  0  0  0  0  0  0  0  0  0
  146.6066  136.9113  154.3227 H   0  0  0  0  0  0  0  0  0  0  0  0
  149.5918  138.6990  153.3933 H   0  0  0  0  0  0  0  0  0  0  0  0
  151.1188  138.8253  155.2503 H   0  0  0  0  0  0  0  0  0  0  0  0
  152.2376  140.3249  156.8804 H   0  0  0  0  0  0  0  0  0  0  0  0
  149.8539  144.3063  157.7657 H   0  0  0  0  0  0  0  0  0  0  0  0
  149.6935  142.8414  158.7375 H   0  0  0  0  0  0  0  0  0  0  0  0
  151.4559  145.2295  159.2181 H   0  0  0  0  0  0  0  0  0  0  0  0
  150.6803  144.1830  160.4042 H   0  0  0  0  0  0  0  0  0  0  0  0
  153.3798  144.0194  159.3555 H   0  0  0  0  0  0  0  0  0  0  0  0
  152.6510  142.8798  160.4835 H   0  0  0  0  0  0  0  0  0  0  0  0
  152.0877  141.3817  158.7885 H   0  0  0  0  0  0  0  0  0  0  0  0
  153.3402  142.2101  157.8649 H   0  0  0  0  0  0  0  0  0  0  0  0
  148.2126  142.0088  154.5677 H   0  0  0  0  0  0  0  0  0  0  0  0
  149.3458  143.2733  156.0963 H   0  0  0  0  0  0  0  0  0  0  0  0
  1  2  2  0  0  0  0
  2  3  1  0  0  0  0
  2 12  1  0  0  0  0
  3  4  1  0  0  0  0
  3 24  1  0  0  0  0
  4  5  1  0  0  0  0
  4 25  1  0  0  0  0
  4 26  1  0  0  0  0
  5 11  1  0  0  0  0
  5  6  1  0  0  0  0
  5 27  1  0  0  0  0
  6  7  1  0  0  0  0
  6 28  1  0  0  0  0
  6 29  1  0  0  0  0
  7  8  1  0  0  0  0
  7 30  1  0  0  0  0
  7 31  1  0  0  0  0
  8  9  2  0  0  0  0
  8 10  2  0  0  0  0
  8 11  1  0  0  0  0
 11 32  1  0  0  0  0
 11 33  1  0  0  0  0
 12 13  1  0  0  0  0
 12 34  1  0  0  0  0
 13 23  1  0  0  0  0
 13 14  2  0  0  0  0
 14 15  1  0  0  0  0
 14 35  1  0  0  0  0
 15 16  2  0  0  0  0
 15 36  1  0  0  0  0
 16 17  1  0  0  0  0
 16 22  1  0  0  0  0
 17 21  1  0  0  0  0
 17 18  1  0  0  0  0
 18 19  1  0  0  0  0
 18 37  1  0  0  0  0
 18 38  1  0  0  0  0
 19 20  1  0  0  0  0
 19 39  1  0  0  0  0
 19 40  1  0  0  0  0
 20 21  1  0  0  0  0
 20 41  1  0  0  0  0
 20 42  1  0  0  0  0
 21 43  1  0  0  0  0
 21 44  1  0  0  0  0
 22 23  2  0  0  0  0
 22 46  1  0  0  0  0
 23 45  1  0  0  0  0
M  CHG  1  22   1
M  END
> <s_m_source_file>
AV-unprocessed.smi

> <i_m_source_file_index>
550

> <i_lp_mmshare_version>
43012

> <i_f3d_flags>
0

> <s_epik_input>
Tz1TMSg9TylbQ0gyXVtDSDJdW0NASF0oW0NIMl0xKVtDSDJdW05IXUMoPU8pW05IXWMyW2NIXVtjSF1jKG5bY0hdMilOM1tDSDJdW0NIMl1bQ0gyXVtDSDJdMw==

> <s_epik_cmdline>
J2VwaWtfcHl0aG9uJywgJy1waCcsICc3LjAnLCAnLXRuJywgJzgnLCAnLW1hJywgJzIwMCcsICctbWV0YWxfYmluZGluZycsICctaW1hZScsICc8aW5maWxlLm1hZT4nLCAnLW9tYWUnLCAnPG91dGZpbGUubWFlPic=

> <r_lp_tautomer_probability>
0.999994

> <r_epik_Ionization_Penalty>
1.12573

> <r_epik_Ionization_Penalty_Charging>
1.12571

> <r_epik_Ionization_Penalty_Neutral>
1.93198e-05

> <r_epik_State_Penalty>
1.18495

> <r_epik_Charging_Adjusted_Penalty>
2.31065

> <i_epik_Tot_Q>
1

> <i_epik_Tot_abs_Q>
1

> <r_epik_Metal_State_Penalty>
1.26884

> <b_epik_Metal_Only>
0

> <s_lp_Force_Field>
OPLS_2005

> <r_lp_Energy>
42.4783

> <b_lp_Chiralities_Consistent>
1

> <s_lp_Variant>
AV-unprocessed.smi:550-3

> <Gold.Version>
5.8.1

> <Gold.Id.Protein>
6NUR|6NUR_protein|mol2

> <Gold.PLP.Fitness>
44.8514

> <Gold.PLP.PLP>
-37.3065

> <Gold.PLP.part.hbond>
-3.9167

> <Gold.PLP.part.metal>
0.0000

> <Gold.PLP.part.buried>
-2.8595

> <Gold.PLP.part.nonpolar>
-32.3948

> <Gold.PLP.part.repulsive>
0.6440

> <Gold.PLP.ligand.clash>
0.0000

> <Gold.PLP.ligand.torsion>
0.6308

> <Gold.PLP.Chemscore.Hbond>
2.9280

> <Gold.PLP.Chemscore.CHOScore>
0.0000

> <Gold.PLP.Chemscore.Metal>
0.0000

> <Gold.Chemscore.Hbonds>
donor molecule, donor type, donor heavy atom, donor atom, acceptor molecule, acceptor atom, score
      L1  H     3    24       P1  7948  0.90
      L1  H    22    46       P1  8028  2.00

> <Gold.PLP.Chemscore.Internal.Correction>
0.0225

> <Gold.Rescore>
     Score         DG    S(hbond)    S(metal)    S(lipo)     H(rot)  DE(clash)    DE(int)     intcor
     18.31     -18.88       1.93        0.00      92.08       1.50       0.13       0.45       ----

> <Gold.Chemscore.Fitness>
18.3050

> <Gold.Chemscore.DG>
-18.8804

> <Gold.Chemscore.ZeroCoef>
-5.4800

> <Gold.Chemscore.Hbond>
1.9333

> <Gold.Chemscore.Metal>
0.0000

> <Gold.Chemscore.Lipo>
92.0824

> <Gold.Chemscore.Internal_Hbond>
0.0000

> <Gold.Chemscore.DEClash>
0.1283

> <Gold.Chemscore.DEInternal>
0.4471

> <Gold.Chemscore.Rot>
1.4962

> <Gold.Chemscore.Internal.Correction>
   9.000000E+99

> <Gold.Chemscore.Hbonds>
donor molecule, donor type, donor heavy atom, donor atom, acceptor molecule, acceptor atom, score
      L1  H     3    24       P1  7948  0.88
      L1  H    22    46       P1  8028  0.95

> <Gold.Chemscore.Hbond.Weighted>
-6.4571

> <Gold.Chemscore.Metal.Weighted>
-0.0000

> <Gold.Chemscore.Lipo.Weighted>
-10.7736

> <Gold.Chemscore.Internal_Hbond.Weighted>
0.0000

> <Gold.Chemscore.DEClash.Weighted>
0.1283

> <Gold.Chemscore.DEInternal.Weighted>
0.4471

> <Gold.Chemscore.Rot.Weighted>
3.8303

> <Gold.Chemscore.Internal.Correction.Weighted>
   9.000000E+99

> <Gold.Protein.RotatedTorsions>
[ 6907 6896 6895 6894 ] final   80.94 input  -60.11 | X-H torsion
[ 7974 7965 7964 7962 ] final  145.04 input  175.53 | X-H torsion
[ 8008 7997 7996 7995 ] final   79.34 input   59.86 | X-H torsion
[ 10167 10162 10161 10158 ] final  164.02 input  -65.29 | X-H torsion
[ 10718 10713 10712 10709 ] final  156.37 input   66.30 | X-H torsion
[ 10763 10752 10751 10750 ] final   49.96 input  -60.55 | X-H torsion
[ 11005 11000 10999 10996 ] final  126.52 input  -57.11 | X-H torsion

> <Gold.Protein.ActiveResidues>
 VAL166  LYS551  ARG553  GLY616  TRP617  ASP618  TYR619  PRO620  LYS621  CYS622 
 ASP623  PHE694  ASN695  SER759  ASP760  ASP761  ALA762  ILE779  LEU786  VAL792 
 PHE793  MET794  SER795  GLU796  ALA797  LYS798  CYS799  TRP800  GLU811  SER814 

> <Gold.Protein.RotatedAtoms>
  152.5252  134.3280  159.9172 H   0  0  0  0  0  0  0  0  0  0  0  0  # atno 6907 bound_to 6896
  151.3229  133.4026  159.2663 H   0  0  0  0  0  0  0  0  0  0  0  0  # atno 6908 bound_to 6896
  150.9944  134.9289  159.7975 H   0  0  0  0  0  0  0  0  0  0  0  0  # atno 6909 bound_to 6896
  144.8785  139.5735  143.5854 H   0  0  0  0  0  0  0  0  0  0  0  0  # atno 7974 bound_to 7965
  155.8683  140.3450  155.5803 H   0  0  0  0  0  0  0  0  0  0  0  0  # atno 8008 bound_to 7997
  155.7856  140.0864  157.2055 H   0  0  0  0  0  0  0  0  0  0  0  0  # atno 8009 bound_to 7997
  154.4016  140.1492  156.3090 H   0  0  0  0  0  0  0  0  0  0  0  0  # atno 8010 bound_to 7997
  139.4882  144.4278  151.9108 H   0  0  0  0  0  0  0  0  0  0  0  0  # atno 10167 bound_to 10162
  157.2059  131.0686  151.1998 H   0  0  0  0  0  0  0  0  0  0  0  0  # atno 10718 bound_to 10713
  152.9785  135.5894  154.4174 H   0  0  0  0  0  0  0  0  0  0  0  0  # atno 10763 bound_to 10752
  154.3803  135.2767  155.2217 H   0  0  0  0  0  0  0  0  0  0  0  0  # atno 10764 bound_to 10752
  154.4134  135.6076  153.6021 H   0  0  0  0  0  0  0  0  0  0  0  0  # atno 10765 bound_to 10752
  139.9460  134.9629  156.8719 H   0  0  0  0  0  0  0  0  0  0  0  0  # atno 11005 bound_to 11000
  146.2979  139.7334  142.9113 LP  0  0  0  0  0  0  0  0  0  0  0  0  # atno 17320 bound_to 7965
  145.3998  141.0383  143.3077 LP  0  0  0  0  0  0  0  0  0  0  0  0  # atno 17321 bound_to 7965
  140.3724  144.2838  150.5918 LP  0  0  0  0  0  0  0  0  0  0  0  0  # atno 17342 bound_to 10162
  140.5307  143.2244  151.8243 LP  0  0  0  0  0  0  0  0  0  0  0  0  # atno 17343 bound_to 10162
  157.3721  130.7186  149.6572 LP  0  0  0  0  0  0  0  0  0  0  0  0  # atno 17370 bound_to 10713
  155.9695  130.4196  150.4382 LP  0  0  0  0  0  0  0  0  0  0  0  0  # atno 17371 bound_to 10713
  140.5833  134.0331  155.7472 LP  0  0  0  0  0  0  0  0  0  0  0  0  # atno 17394 bound_to 11000
  141.1111  133.9615  157.2909 LP  0  0  0  0  0  0  0  0  0  0  0  0  # atno 17395 bound_to 11000

$$$$
