AV-unprocessed.smi:1093|AV-procd|sdf|4744|dock8
  -GOLD-   22720 3283D 1   1.00000     0.00000
 Structure written by MMmdl.
 47 48  0  0  0  0  0  0  0  0  2 V2000
  145.8844  131.7784  151.9640 C   0  0  0  0  0  0  0  0  0  0  0  0
  147.0933  132.7242  152.0013 C   0  0  0  0  0  0  0  0  0  0  0  0
  146.6909  134.1523  152.0154 N   0  3  1  0  0  0  0  0  0  0  0  0
  145.8730  134.5247  150.8318 C   0  0  0  0  0  0  0  0  0  0  0  0
  145.6034  136.0394  150.7950 C   0  0  0  0  0  0  0  0  0  0  0  0
  144.9647  136.5291  152.1057 C   0  0  0  0  0  0  0  0  0  0  0  0
  145.7974  136.0896  153.3232 C   0  0  2  0  0  0  0  0  0  0  0  0
  147.0638  136.8226  153.3522 N   0  0  0  0  0  0  0  0  0  0  0  0
  147.4781  137.6165  154.3501 C   0  0  0  0  0  0  0  0  0  0  0  0
  146.8275  137.8077  155.3770 O   0  0  0  0  0  0  0  0  0  0  0  0
  148.6875  138.1386  154.0856 N   0  0  0  0  0  0  0  0  0  0  0  0
  149.4668  139.0113  154.8915 C   0  0  0  0  0  0  0  0  0  0  0  0
  150.8602  139.2001  154.7458 C   0  0  0  0  0  0  0  0  0  0  0  0
  151.5255  140.0810  155.6199 C   0  0  0  0  0  0  0  0  0  0  0  0
  150.7874  140.7504  156.6277 C   0  0  0  0  0  0  0  0  0  0  0  0
  151.4095  141.6460  157.5273 N   0  0  0  0  0  0  0  0  0  0  0  0
  150.9172  143.0147  157.6459 C   0  0  0  0  0  0  0  0  0  0  0  0
  152.4885  141.1852  158.3923 C   0  0  0  0  0  0  0  0  0  0  0  0
  149.4538  140.5535  156.7693 N   0  0  0  0  0  0  0  0  0  0  0  0
  148.8208  139.7073  155.9314 C   0  0  0  0  0  0  0  0  0  0  0  0
  146.0202  134.5617  153.2781 C   0  0  0  0  0  0  0  0  0  0  0  0
  146.2085  130.7403  152.0383 H   0  0  0  0  0  0  0  0  0  0  0  0
  145.3151  131.8725  151.0396 H   0  0  0  0  0  0  0  0  0  0  0  0
  145.2073  131.9720  152.7964 H   0  0  0  0  0  0  0  0  0  0  0  0
  147.6588  132.5005  152.9070 H   0  0  0  0  0  0  0  0  0  0  0  0
  147.7636  132.5305  151.1625 H   0  0  0  0  0  0  0  0  0  0  0  0
  146.3905  134.2335  149.9170 H   0  0  0  0  0  0  0  0  0  0  0  0
  144.9310  133.9744  150.8524 H   0  0  0  0  0  0  0  0  0  0  0  0
  146.5390  136.5713  150.6187 H   0  0  0  0  0  0  0  0  0  0  0  0
  144.9532  136.2802  149.9533 H   0  0  0  0  0  0  0  0  0  0  0  0
  144.8498  137.6136  152.0895 H   0  0  0  0  0  0  0  0  0  0  0  0
  143.9584  136.1168  152.1904 H   0  0  0  0  0  0  0  0  0  0  0  0
  145.2405  136.3410  154.2276 H   0  0  0  0  0  0  0  0  0  0  0  0
  147.6616  136.7287  152.5438 H   0  0  0  0  0  0  0  0  0  0  0  0
  149.1322  137.8268  153.2347 H   0  0  0  0  0  0  0  0  0  0  0  0
  151.4336  138.6798  153.9944 H   0  0  0  0  0  0  0  0  0  0  0  0
  152.5890  140.2220  155.5012 H   0  0  0  0  0  0  0  0  0  0  0  0
  149.8792  143.0197  157.9802 H   0  0  0  0  0  0  0  0  0  0  0  0
  150.9750  143.5273  156.6852 H   0  0  0  0  0  0  0  0  0  0  0  0
  151.5026  143.5883  158.3643 H   0  0  0  0  0  0  0  0  0  0  0  0
  153.3331  140.8345  157.7985 H   0  0  0  0  0  0  0  0  0  0  0  0
  152.1468  140.3700  159.0306 H   0  0  0  0  0  0  0  0  0  0  0  0
  152.8475  141.9856  159.0393 H   0  0  0  0  0  0  0  0  0  0  0  0
  147.7596  139.5886  156.0945 H   0  0  0  0  0  0  0  0  0  0  0  0
  145.0631  134.0442  153.3614 H   0  0  0  0  0  0  0  0  0  0  0  0
  146.6070  134.2504  154.1413 H   0  0  0  0  0  0  0  0  0  0  0  0
  147.5448  134.6878  151.9492 H   0  0  0  0  0  0  0  0  0  0  0  0
  1  2  1  0  0  0  0
  1 22  1  0  0  0  0
  1 23  1  0  0  0  0
  1 24  1  0  0  0  0
  2  3  1  0  0  0  0
  2 25  1  0  0  0  0
  2 26  1  0  0  0  0
  3 21  1  0  0  0  0
  3  4  1  0  0  0  0
  3 47  1  0  0  0  0
  4  5  1  0  0  0  0
  4 27  1  0  0  0  0
  4 28  1  0  0  0  0
  5  6  1  0  0  0  0
  5 29  1  0  0  0  0
  5 30  1  0  0  0  0
  6  7  1  0  0  0  0
  6 31  1  0  0  0  0
  6 32  1  0  0  0  0
  7  8  1  0  0  0  0
  7 21  1  0  0  0  0
  7 33  1  0  0  0  0
  8  9  1  0  0  0  0
  8 34  1  0  0  0  0
  9 10  2  0  0  0  0
  9 11  1  0  0  0  0
 11 12  1  0  0  0  0
 11 35  1  0  0  0  0
 12 20  1  0  0  0  0
 12 13  2  0  0  0  0
 13 14  1  0  0  0  0
 13 36  1  0  0  0  0
 14 15  2  0  0  0  0
 14 37  1  0  0  0  0
 15 16  1  0  0  0  0
 15 19  1  0  0  0  0
 16 17  1  0  0  0  0
 16 18  1  0  0  0  0
 17 38  1  0  0  0  0
 17 39  1  0  0  0  0
 17 40  1  0  0  0  0
 18 41  1  0  0  0  0
 18 42  1  0  0  0  0
 18 43  1  0  0  0  0
 19 20  2  0  0  0  0
 20 44  1  0  0  0  0
 21 45  1  0  0  0  0
 21 46  1  0  0  0  0
M  CHG  1   3   1
M  END
> <s_m_source_file>
AV-unprocessed.smi

> <i_m_source_file_index>
1093

> <i_lp_mmshare_version>
43012

> <i_f3d_flags>
0

> <s_epik_input>
W0NIM11bQ0gyXU4xW0NIMl1bQ0gyXVtDSDJdW0NASF0oW0NIMl0xKVtOSF1DKD1PKVtOSF1jMltjSF1bY0hdYyhOKFtDSDNdKVtDSDNdKW5bY0hdMg==

> <s_epik_cmdline>
J2VwaWtfcHl0aG9uJywgJy1waCcsICc3LjAnLCAnLXRuJywgJzgnLCAnLW1hJywgJzIwMCcsICctbWV0YWxfYmluZGluZycsICctaW1hZScsICc8aW5maWxlLm1hZT4nLCAnLW9tYWUnLCAnPG91dGZpbGUubWFlPic=

> <r_lp_tautomer_probability>
1

> <r_epik_Ionization_Penalty>
0.489418

> <r_epik_Ionization_Penalty_Charging>
0.00268196

> <r_epik_Ionization_Penalty_Neutral>
0.486736

> <r_epik_State_Penalty>
0.491157

> <r_epik_Charging_Adjusted_Penalty>
0.493839

> <i_epik_Tot_Q>
1

> <i_epik_Tot_abs_Q>
1

> <r_epik_Metal_State_Penalty>
0.266953

> <b_epik_Metal_Only>
0

> <s_lp_Force_Field>
OPLS_2005

> <r_lp_Energy>
27.6013

> <b_lp_Chiralities_Consistent>
1

> <s_lp_Variant>
AV-unprocessed.smi:1093-7

> <Gold.Version>
5.8.1

> <Gold.Id.Protein>
6NUR|6NUR_protein|mol2

> <Gold.PLP.Fitness>
39.6161

> <Gold.PLP.PLP>
-31.1097

> <Gold.PLP.part.hbond>
-2.8094

> <Gold.PLP.part.metal>
0.0000

> <Gold.PLP.part.buried>
-1.3788

> <Gold.PLP.part.nonpolar>
-26.3204

> <Gold.PLP.part.repulsive>
0.0990

> <Gold.PLP.ligand.clash>
0.0000

> <Gold.PLP.ligand.torsion>
1.1693

> <Gold.PLP.Chemscore.Hbond>
3.6065

> <Gold.PLP.Chemscore.CHOScore>
0.0000

> <Gold.PLP.Chemscore.Metal>
0.0000

> <Gold.Chemscore.Hbonds>
donor molecule, donor type, donor heavy atom, donor atom, acceptor molecule, acceptor atom, score
      L1  H     3    47       P1  7948  1.95
      L1  H     8    34       P1  7948  1.00
      L1  H    11    35       P1  7948  0.68

> <Gold.PLP.Chemscore.Internal.Correction>
0.0254

> <Gold.Rescore>
     Score         DG    S(hbond)    S(metal)    S(lipo)     H(rot)  DE(clash)    DE(int)     intcor
     16.53     -18.94       2.27        0.00      76.18       1.18       0.04       2.37       ----

> <Gold.Chemscore.Fitness>
16.5335

> <Gold.Chemscore.DG>
-18.9433

> <Gold.Chemscore.ZeroCoef>
-5.4800

> <Gold.Chemscore.Hbond>
2.2702

> <Gold.Chemscore.Metal>
0.0000

> <Gold.Chemscore.Lipo>
76.1751

> <Gold.Chemscore.Internal_Hbond>
0.0000

> <Gold.Chemscore.DEClash>
0.0398

> <Gold.Chemscore.DEInternal>
2.3699

> <Gold.Chemscore.Rot>
1.1842

> <Gold.Chemscore.Internal.Correction>
   9.000000E+99

> <Gold.Chemscore.Hbonds>
donor molecule, donor type, donor heavy atom, donor atom, acceptor molecule, acceptor atom, score
      L1  H     3    47       P1  7948  0.60
      L1  H     8    34       P1  7948  0.91
      L1  H    11    35       P1  7948  0.66

> <Gold.Chemscore.Hbond.Weighted>
-7.5824

> <Gold.Chemscore.Metal.Weighted>
-0.0000

> <Gold.Chemscore.Lipo.Weighted>
-8.9125

> <Gold.Chemscore.Internal_Hbond.Weighted>
0.0000

> <Gold.Chemscore.DEClash.Weighted>
0.0398

> <Gold.Chemscore.DEInternal.Weighted>
2.3699

> <Gold.Chemscore.Rot.Weighted>
3.0317

> <Gold.Chemscore.Internal.Correction.Weighted>
   9.000000E+99

> <Gold.Protein.RotatedTorsions>
[ 6907 6896 6895 6894 ] final -135.70 input  -60.11 | X-H torsion
[ 7974 7965 7964 7962 ] final -173.79 input  175.53 | X-H torsion
[ 8008 7997 7996 7995 ] final -169.10 input   59.86 | X-H torsion
[ 10167 10162 10161 10158 ] final -131.20 input  -65.29 | X-H torsion
[ 10718 10713 10712 10709 ] final  -51.53 input   66.30 | X-H torsion
[ 10763 10752 10751 10750 ] final -157.41 input  -60.55 | X-H torsion
[ 11005 11000 10999 10996 ] final   41.59 input  -57.11 | X-H torsion

> <Gold.Protein.ActiveResidues>
 VAL166  LYS551  ARG553  GLY616  TRP617  ASP618  TYR619  PRO620  LYS621  CYS622 
 ASP623  PHE694  ASN695  SER759  ASP760  ASP761  ALA762  ILE779  LEU786  VAL792 
 PHE793  MET794  SER795  GLU796  ALA797  LYS798  CYS799  TRP800  GLU811  SER814 

> <Gold.Protein.RotatedAtoms>
  151.0011  133.6055  159.2694 H   0  0  0  0  0  0  0  0  0  0  0  0  # atno 6907 bound_to 6896
  151.3241  135.0825  159.9326 H   0  0  0  0  0  0  0  0  0  0  0  0  # atno 6908 bound_to 6896
  152.5274  133.9652  159.7790 H   0  0  0  0  0  0  0  0  0  0  0  0  # atno 6909 bound_to 6896
  144.7135  140.1568  143.6379 H   0  0  0  0  0  0  0  0  0  0  0  0  # atno 7974 bound_to 7965
  155.9004  140.1040  157.1354 H   0  0  0  0  0  0  0  0  0  0  0  0  # atno 8008 bound_to 7997
  154.4025  140.1293  156.4493 H   0  0  0  0  0  0  0  0  0  0  0  0  # atno 8009 bound_to 7997
  155.7430  140.3466  155.5115 H   0  0  0  0  0  0  0  0  0  0  0  0  # atno 8010 bound_to 7997
  139.9214  143.6378  152.2553 H   0  0  0  0  0  0  0  0  0  0  0  0  # atno 10167 bound_to 10162
  156.1702  130.4149  149.9659 H   0  0  0  0  0  0  0  0  0  0  0  0  # atno 10718 bound_to 10713
  154.7638  135.3125  154.8327 H   0  0  0  0  0  0  0  0  0  0  0  0  # atno 10763 bound_to 10752
  153.9080  135.6808  153.4756 H   0  0  0  0  0  0  0  0  0  0  0  0  # atno 10764 bound_to 10752
  153.1241  135.4809  154.9176 H   0  0  0  0  0  0  0  0  0  0  0  0  # atno 10765 bound_to 10752
  140.1820  134.4093  155.8195 H   0  0  0  0  0  0  0  0  0  0  0  0  # atno 11005 bound_to 11000
  145.9066  139.2462  143.1462 LP  0  0  0  0  0  0  0  0  0  0  0  0  # atno 17320 bound_to 7965
  145.9758  140.8723  143.0139 LP  0  0  0  0  0  0  0  0  0  0  0  0  # atno 17321 bound_to 7965
  139.6859  144.7651  151.1525 LP  0  0  0  0  0  0  0  0  0  0  0  0  # atno 17342 bound_to 10162
  140.7661  143.5658  150.9049 LP  0  0  0  0  0  0  0  0  0  0  0  0  # atno 17343 bound_to 10162
  156.7462  130.9098  151.3635 LP  0  0  0  0  0  0  0  0  0  0  0  0  # atno 17370 bound_to 10713
  157.6797  130.9128  150.0236 LP  0  0  0  0  0  0  0  0  0  0  0  0  # atno 17371 bound_to 10713
  141.2223  133.7005  156.7946 LP  0  0  0  0  0  0  0  0  0  0  0  0  # atno 17394 bound_to 11000
  140.2257  134.8723  157.3424 LP  0  0  0  0  0  0  0  0  0  0  0  0  # atno 17395 bound_to 11000

$$$$
