AV-unprocessed.smi:234|AV-procd|sdf|1792|dock5
  -GOLD-   2262020353D 1   1.00000     0.00000
 Structure written by MMmdl.
 59 62  0  0  0  0  0  0  0  0  1 V2000
  153.9675  141.7832  160.1321 C   0  0  0  0  0  0  0  0  0  0  0  0
  152.6946  142.5463  159.7430 C   0  0  0  0  0  0  0  0  0  0  0  0
  151.5861  141.6661  159.6218 O   0  0  0  0  0  0  0  0  0  0  0  0
  151.6748  140.7608  158.5255 C   0  0  1  0  0  0  0  0  0  0  0  0
  150.5637  139.7058  158.5675 C   0  0  0  0  0  0  0  0  0  0  0  0
  149.7165  140.7116  157.7779 C   0  0  2  0  0  0  0  0  0  0  0  0
  148.8487  140.1110  156.7634 N   0  0  0  0  0  0  0  0  0  0  0  0
  148.5067  140.9548  155.6264 C   0  0  0  0  0  0  0  0  0  0  0  0
  147.7503  139.5034  157.2629 C   0  0  0  0  0  0  0  0  0  0  0  0
  146.5446  140.0098  156.9065 N   0  0  0  0  0  0  0  0  0  0  0  0
  145.4229  139.4395  157.3570 C   0  0  0  0  0  0  0  0  0  0  0  0
  145.2874  138.3796  158.1573 N   0  0  0  0  0  0  0  0  0  0  0  0
  146.5004  137.8734  158.5226 C   0  0  0  0  0  0  0  0  0  0  0  0
  147.7729  138.3747  158.1301 C   0  0  0  0  0  0  0  0  0  0  0  0
  148.7820  137.6155  158.7094 N   0  0  0  0  0  0  0  0  0  0  0  0
  148.1425  136.7122  159.4000 C   0  0  0  0  0  0  0  0  0  0  0  0
  146.7689  136.7818  159.3305 N   0  0  0  0  0  0  0  0  0  0  0  0
  145.8179  135.8943  159.9826 C   0  0  0  0  0  0  0  0  0  0  0  0
  145.9437  135.8777  161.5268 C   0  0  2  0  0  0  0  0  0  0  0  0
  145.7317  137.1950  162.0055 O   0  0  0  0  0  0  0  0  0  0  0  0
  147.3331  135.4224  161.9849 C   0  0  0  0  0  0  0  0  0  0  0  0
  147.0875  134.0484  162.5964 C   0  0  0  0  0  0  0  0  0  0  0  0
  145.7981  134.1859  163.1658 O   0  0  0  0  0  0  0  0  0  0  0  0
  144.9913  134.8612  162.2115 C   0  0  1  0  0  0  0  0  0  0  0  0
  143.7260  135.4259  162.8789 C   0  0  0  0  0  0  0  0  0  0  0  0
  151.0328  141.3258  157.2316 C   0  0  0  0  0  0  0  0  0  0  0  0
  151.0618  142.8480  157.0731 C   0  0  0  0  0  0  0  0  0  0  0  0
  151.6152  140.7343  155.9369 C   0  0  0  0  0  0  0  0  0  0  0  0
  154.8259  142.4545  160.1602 H   0  0  0  0  0  0  0  0  0  0  0  0
  154.1849  140.9962  159.4098 H   0  0  0  0  0  0  0  0  0  0  0  0
  153.8806  141.3214  161.1149 H   0  0  0  0  0  0  0  0  0  0  0  0
  152.4881  143.3510  160.4497 H   0  0  0  0  0  0  0  0  0  0  0  0
  152.8492  143.0177  158.7726 H   0  0  0  0  0  0  0  0  0  0  0  0
  152.6743  140.3539  158.3680 H   0  0  0  0  0  0  0  0  0  0  0  0
  150.8151  138.8018  158.0105 H   0  0  0  0  0  0  0  0  0  0  0  0
  150.1759  139.4714  159.5590 H   0  0  0  0  0  0  0  0  0  0  0  0
  149.1983  141.4058  158.4420 H   0  0  0  0  0  0  0  0  0  0  0  0
  147.8813  140.4166  154.9128 H   0  0  0  0  0  0  0  0  0  0  0  0
  149.4042  141.2778  155.1009 H   0  0  0  0  0  0  0  0  0  0  0  0
  147.9677  141.8450  155.9528 H   0  0  0  0  0  0  0  0  0  0  0  0
  144.5016  139.8956  157.0264 H   0  0  0  0  0  0  0  0  0  0  0  0
  148.6612  135.9593  159.9755 H   0  0  0  0  0  0  0  0  0  0  0  0
  144.8133  136.2057  159.6932 H   0  0  0  0  0  0  0  0  0  0  0  0
  145.9526  134.8896  159.5793 H   0  0  0  0  0  0  0  0  0  0  0  0
  145.1245  137.6293  161.4262 H   0  0  0  0  0  0  0  0  0  0  0  0
  148.0684  135.3898  161.1800 H   0  0  0  0  0  0  0  0  0  0  0  0
  147.7285  136.0843  162.7574 H   0  0  0  0  0  0  0  0  0  0  0  0
  147.0721  133.2737  161.8281 H   0  0  0  0  0  0  0  0  0  0  0  0
  147.8333  133.7792  163.3446 H   0  0  0  0  0  0  0  0  0  0  0  0
  144.6916  134.1037  161.4861 H   0  0  0  0  0  0  0  0  0  0  0  0
  143.1117  135.9730  162.1630 H   0  0  0  0  0  0  0  0  0  0  0  0
  143.9712  136.1013  163.6988 H   0  0  0  0  0  0  0  0  0  0  0  0
  143.1160  134.6212  163.2895 H   0  0  0  0  0  0  0  0  0  0  0  0
  150.5479  143.1701  156.1673 H   0  0  0  0  0  0  0  0  0  0  0  0
  152.0845  143.2226  157.0224 H   0  0  0  0  0  0  0  0  0  0  0  0
  150.5744  143.3498  157.9092 H   0  0  0  0  0  0  0  0  0  0  0  0
  151.0579  141.0539  155.0564 H   0  0  0  0  0  0  0  0  0  0  0  0
  151.6063  139.6444  155.9420 H   0  0  0  0  0  0  0  0  0  0  0  0
  152.6508  141.0434  155.7930 H   0  0  0  0  0  0  0  0  0  0  0  0
  1  2  1  0  0  0  0
  1 29  1  0  0  0  0
  1 30  1  0  0  0  0
  1 31  1  0  0  0  0
  2  3  1  0  0  0  0
  2 32  1  0  0  0  0
  2 33  1  0  0  0  0
  3  4  1  0  0  0  0
  4 26  1  0  0  0  0
  4  5  1  0  0  0  0
  4 34  1  0  0  0  0
  5  6  1  0  0  0  0
  5 35  1  0  0  0  0
  5 36  1  0  0  0  0
  6  7  1  0  0  0  0
  6 26  1  0  0  0  0
  6 37  1  0  0  0  0
  7  8  1  0  0  0  0
  7  9  1  0  0  0  0
  8 38  1  0  0  0  0
  8 39  1  0  0  0  0
  8 40  1  0  0  0  0
  9 14  1  0  0  0  0
  9 10  2  0  0  0  0
 10 11  1  0  0  0  0
 11 12  2  0  0  0  0
 11 41  1  0  0  0  0
 12 13  1  0  0  0  0
 13 17  1  0  0  0  0
 13 14  2  0  0  0  0
 14 15  1  0  0  0  0
 15 16  2  0  0  0  0
 16 17  1  0  0  0  0
 16 42  1  0  0  0  0
 17 18  1  0  0  0  0
 18 19  1  0  0  0  0
 18 43  1  0  0  0  0
 18 44  1  0  0  0  0
 19 24  1  0  0  0  0
 19 20  1  0  0  0  0
 19 21  1  0  0  0  0
 20 45  1  0  0  0  0
 21 22  1  0  0  0  0
 21 46  1  0  0  0  0
 21 47  1  0  0  0  0
 22 23  1  0  0  0  0
 22 48  1  0  0  0  0
 22 49  1  0  0  0  0
 23 24  1  0  0  0  0
 24 25  1  0  0  0  0
 24 50  1  0  0  0  0
 25 51  1  0  0  0  0
 25 52  1  0  0  0  0
 25 53  1  0  0  0  0
 26 27  1  0  0  0  0
 26 28  1  0  0  0  0
 27 54  1  0  0  0  0
 27 55  1  0  0  0  0
 27 56  1  0  0  0  0
 28 57  1  0  0  0  0
 28 58  1  0  0  0  0
 28 59  1  0  0  0  0
M  END
> <s_m_source_file>
AV-unprocessed.smi

> <i_m_source_file_index>
234

> <i_lp_mmshare_version>
43012

> <i_f3d_flags>
0

> <s_epik_input>
W0NIM11bQ0gyXU9bQ0BASF0oQzEoW0NIM10pW0NIM10pW0NIMl1bQ0BIXTFOKFtDSDNdKWMobltjSF1uMiljKGMyMyluW2NIXW4zW0NIMl1bQ0BAXTQoW09IXSlbQ0gyXVtDSDJdT1tDQEhdNFtDSDNd

> <s_epik_cmdline>
J2VwaWtfcHl0aG9uJywgJy1waCcsICc3LjAnLCAnLXRuJywgJzgnLCAnLW1hJywgJzIwMCcsICctbWV0YWxfYmluZGluZycsICctaW1hZScsICc8aW5maWxlLm1hZT4nLCAnLW9tYWUnLCAnPG91dGZpbGUubWFlPic=

> <r_lp_tautomer_probability>
1

> <r_epik_Ionization_Penalty>
0.00349132

> <r_epik_Ionization_Penalty_Charging>
0

> <r_epik_Ionization_Penalty_Neutral>
0.00349132

> <r_epik_State_Penalty>
0.00242418

> <r_epik_Charging_Adjusted_Penalty>
0.00242418

> <i_epik_Tot_Q>
0

> <i_epik_Tot_abs_Q>
0

> <r_epik_Metal_State_Penalty>
-0

> <b_epik_Metal_Only>
0

> <s_lp_Force_Field>
OPLS_2005

> <r_lp_Energy>
49.6192

> <b_lp_Chiralities_Consistent>
1

> <s_lp_Variant>
AV-unprocessed.smi:234-8

> <Gold.Version>
5.8.1

> <Gold.Id.Protein>
6NUR|6NUR_protein|mol2

> <Gold.PLP.Fitness>
38.7689

> <Gold.PLP.PLP>
-39.3171

> <Gold.PLP.part.hbond>
-1.3903

> <Gold.PLP.part.metal>
0.0000

> <Gold.PLP.part.buried>
-6.7282

> <Gold.PLP.part.nonpolar>
-30.7603

> <Gold.PLP.part.repulsive>
0.0451

> <Gold.PLP.ligand.clash>
0.0000

> <Gold.PLP.ligand.torsion>
0.6949

> <Gold.PLP.Chemscore.Hbond>
0.0000

> <Gold.PLP.Chemscore.CHOScore>
0.0000

> <Gold.PLP.Chemscore.Metal>
0.0000

> <Gold.PLP.Chemscore.Internal.Correction>
0.8415

> <Gold.Rescore>
     Score         DG    S(hbond)    S(metal)    S(lipo)     H(rot)  DE(clash)    DE(int)     intcor
      7.73     -10.23       0.00        0.00      97.97       2.62       0.31       2.19       ----

> <Gold.Chemscore.Fitness>
7.7305

> <Gold.Chemscore.DG>
-10.2302

> <Gold.Chemscore.ZeroCoef>
-5.4800

> <Gold.Chemscore.Hbond>
0.0000

> <Gold.Chemscore.Metal>
0.0000

> <Gold.Chemscore.Lipo>
97.9685

> <Gold.Chemscore.Internal_Hbond>
0.0000

> <Gold.Chemscore.DEClash>
0.3109

> <Gold.Chemscore.DEInternal>
2.1887

> <Gold.Chemscore.Rot>
2.6219

> <Gold.Chemscore.Internal.Correction>
   9.000000E+99

> <Gold.Chemscore.Hbond.Weighted>
-0.0000

> <Gold.Chemscore.Metal.Weighted>
-0.0000

> <Gold.Chemscore.Lipo.Weighted>
-11.4623

> <Gold.Chemscore.Internal_Hbond.Weighted>
0.0000

> <Gold.Chemscore.DEClash.Weighted>
0.3109

> <Gold.Chemscore.DEInternal.Weighted>
2.1887

> <Gold.Chemscore.Rot.Weighted>
6.7121

> <Gold.Chemscore.Internal.Correction.Weighted>
   9.000000E+99

> <Gold.Protein.RotatedTorsions>
[ 6907 6896 6895 6894 ] final -148.21 input  -60.11 | X-H torsion
[ 7974 7965 7964 7962 ] final -167.08 input  175.53 | X-H torsion
[ 8008 7997 7996 7995 ] final -176.32 input   59.86 | X-H torsion
[ 10167 10162 10161 10158 ] final  -61.03 input  -65.29 | X-H torsion
[ 10718 10713 10712 10709 ] final  -24.78 input   66.30 | X-H torsion
[ 10763 10752 10751 10750 ] final  -82.25 input  -60.55 | X-H torsion
[ 11005 11000 10999 10996 ] final -137.99 input  -57.11 | X-H torsion

> <Gold.Protein.ActiveResidues>
 VAL166  LYS551  ARG553  GLY616  TRP617  ASP618  TYR619  PRO620  LYS621  CYS622 
 ASP623  PHE694  ASN695  SER759  ASP760  ASP761  ALA762  ILE779  LEU786  VAL792 
 PHE793  MET794  SER795  GLU796  ALA797  LYS798  CYS799  TRP800  GLU811  SER814 

> <Gold.Protein.RotatedAtoms>
  151.1666  133.4810  159.2593 H   0  0  0  0  0  0  0  0  0  0  0  0  # atno 6907 bound_to 6896
  151.1399  135.0174  159.8631 H   0  0  0  0  0  0  0  0  0  0  0  0  # atno 6908 bound_to 6896
  152.5462  134.1561  159.8591 H   0  0  0  0  0  0  0  0  0  0  0  0  # atno 6909 bound_to 6896
  144.7231  140.2572  143.6270 H   0  0  0  0  0  0  0  0  0  0  0  0  # atno 7974 bound_to 7965
  155.9934  140.1205  157.0617 H   0  0  0  0  0  0  0  0  0  0  0  0  # atno 8008 bound_to 7997
  154.4219  140.1121  156.5665 H   0  0  0  0  0  0  0  0  0  0  0  0  # atno 8009 bound_to 7997
  155.6312  140.3473  155.4685 H   0  0  0  0  0  0  0  0  0  0  0  0  # atno 8010 bound_to 7997
  140.6033  143.2367  151.5879 H   0  0  0  0  0  0  0  0  0  0  0  0  # atno 10167 bound_to 10162
  156.4730  130.4528  149.6857 H   0  0  0  0  0  0  0  0  0  0  0  0  # atno 10718 bound_to 10713
  154.5734  135.5598  153.7116 H   0  0  0  0  0  0  0  0  0  0  0  0  # atno 10763 bound_to 10752
  153.0056  135.6302  154.2082 H   0  0  0  0  0  0  0  0  0  0  0  0  # atno 10764 bound_to 10752
  154.2022  135.2877  155.2966 H   0  0  0  0  0  0  0  0  0  0  0  0  # atno 10765 bound_to 10752
  140.8659  134.2111  157.4680 H   0  0  0  0  0  0  0  0  0  0  0  0  # atno 11005 bound_to 11000
  145.8171  139.2028  143.1959 LP  0  0  0  0  0  0  0  0  0  0  0  0  # atno 17320 bound_to 7965
  146.0546  140.8034  142.9765 LP  0  0  0  0  0  0  0  0  0  0  0  0  # atno 17321 bound_to 7965
  139.5306  144.2926  152.1139 LP  0  0  0  0  0  0  0  0  0  0  0  0  # atno 17342 bound_to 10162
  140.2111  144.4561  150.6385 LP  0  0  0  0  0  0  0  0  0  0  0  0  # atno 17343 bound_to 10162
  156.3598  130.7476  151.2446 LP  0  0  0  0  0  0  0  0  0  0  0  0  # atno 17370 bound_to 10713
  157.7490  131.0353  150.4358 LP  0  0  0  0  0  0  0  0  0  0  0  0  # atno 17371 bound_to 10713
  139.8709  134.9751  156.4872 LP  0  0  0  0  0  0  0  0  0  0  0  0  # atno 17394 bound_to 11000
  140.8630  133.8046  155.9284 LP  0  0  0  0  0  0  0  0  0  0  0  0  # atno 17395 bound_to 11000

$$$$
