AV-unprocessed.smi:845|AV-procd|sdf|3931|dock5
  -GOLD-   22720 1393D 1   1.00000     0.00000
 Structure written by MMmdl.
 42 43  0  0  0  0  0  0  0  0  3 V2000
  150.9648  138.5082  153.9841 C   0  0  0  0  0  0  0  0  0  0  0  0
  149.4958  138.6169  154.4288 C   0  0  0  0  0  0  0  0  0  0  0  0
  149.1469  140.0685  154.8011 C   0  0  0  0  0  0  0  0  0  0  0  0
  149.1420  137.5633  155.5187 C   0  0  2  0  0  0  0  0  0  0  0  0
  150.0467  137.5891  156.7799 C   0  0  0  0  0  0  0  0  0  0  0  0
  149.7201  136.5153  157.7147 N   0  0  0  0  0  0  0  0  0  0  0  0
  149.3486  136.6546  158.9956 C   0  0  0  0  0  0  0  0  0  0  0  0
  149.2779  137.7767  159.5017 O   0  0  0  0  0  0  0  0  0  0  0  0
  149.0731  135.4813  159.6075 N   0  5  0  0  0  0  0  0  0  0  0  0
  148.5103  135.4769  160.8267 C   0  0  0  0  0  0  0  0  0  0  0  0
  148.4203  136.5706  161.5925 N   0  0  0  0  0  0  0  0  0  0  0  0
  147.7944  136.3394  162.8188 C   0  0  0  0  0  0  0  0  0  0  0  0
  147.3911  135.0412  162.9871 C   0  0  0  0  0  0  0  0  0  0  0  0
  147.7873  134.0646  161.6019 S   0  0  0  0  0  0  0  0  0  0  0  0
  148.9896  136.2005  154.9191 N   0  3  0  0  0  0  0  0  0  0  0  0
  150.1815  135.3128  154.9675 C   0  0  0  0  0  0  0  0  0  0  0  0
  149.9156  134.0320  154.1612 C   0  0  0  0  0  0  0  0  0  0  0  0
  148.7742  133.3699  154.6929 O   0  0  0  0  0  0  0  0  0  0  0  0
  147.6018  134.1703  154.6028 C   0  0  0  0  0  0  0  0  0  0  0  0
  147.7910  135.4720  155.4011 C   0  0  0  0  0  0  0  0  0  0  0  0
  151.6509  138.7661  154.7910 H   0  0  0  0  0  0  0  0  0  0  0  0
  151.1702  139.1802  153.1503 H   0  0  0  0  0  0  0  0  0  0  0  0
  151.2036  137.4970  153.6528 H   0  0  0  0  0  0  0  0  0  0  0  0
  148.9088  138.3779  153.5420 H   0  0  0  0  0  0  0  0  0  0  0  0
  149.7921  140.4472  155.5935 H   0  0  0  0  0  0  0  0  0  0  0  0
  148.1132  140.1658  155.1305 H   0  0  0  0  0  0  0  0  0  0  0  0
  149.2731  140.7269  153.9413 H   0  0  0  0  0  0  0  0  0  0  0  0
  148.1555  137.8631  155.8766 H   0  0  0  0  0  0  0  0  0  0  0  0
  151.0867  137.4456  156.4855 H   0  0  0  0  0  0  0  0  0  0  0  0
  150.0068  138.5564  157.2815 H   0  0  0  0  0  0  0  0  0  0  0  0
  149.7648  135.5730  157.3549 H   0  0  0  0  0  0  0  0  0  0  0  0
  147.6772  137.1585  163.5128 H   0  0  0  0  0  0  0  0  0  0  0  0
  146.8875  134.6022  163.8349 H   0  0  0  0  0  0  0  0  0  0  0  0
  151.0601  135.8181  154.5702 H   0  0  0  0  0  0  0  0  0  0  0  0
  150.4086  135.0400  155.9989 H   0  0  0  0  0  0  0  0  0  0  0  0
  149.7645  134.2589  153.1045 H   0  0  0  0  0  0  0  0  0  0  0  0
  150.7737  133.3628  154.2250 H   0  0  0  0  0  0  0  0  0  0  0  0
  147.3767  134.3860  153.5573 H   0  0  0  0  0  0  0  0  0  0  0  0
  146.7576  133.6060  154.9995 H   0  0  0  0  0  0  0  0  0  0  0  0
  147.8976  135.2531  156.4647 H   0  0  0  0  0  0  0  0  0  0  0  0
  146.9020  136.0934  155.2865 H   0  0  0  0  0  0  0  0  0  0  0  0
  148.8131  136.3726  153.9397 H   0  0  0  0  0  0  0  0  0  0  0  0
  1  2  1  0  0  0  0
  1 21  1  0  0  0  0
  1 22  1  0  0  0  0
  1 23  1  0  0  0  0
  2  3  1  0  0  0  0
  2  4  1  0  0  0  0
  2 24  1  0  0  0  0
  3 25  1  0  0  0  0
  3 26  1  0  0  0  0
  3 27  1  0  0  0  0
  4  5  1  0  0  0  0
  4 15  1  0  0  0  0
  4 28  1  0  0  0  0
  5  6  1  0  0  0  0
  5 29  1  0  0  0  0
  5 30  1  0  0  0  0
  6  7  1  0  0  0  0
  6 31  1  0  0  0  0
  7  8  2  0  0  0  0
  7  9  1  0  0  0  0
  9 10  1  0  0  0  0
 10 14  1  0  0  0  0
 10 11  2  0  0  0  0
 11 12  1  0  0  0  0
 12 13  2  0  0  0  0
 12 32  1  0  0  0  0
 13 14  1  0  0  0  0
 13 33  1  0  0  0  0
 15 20  1  0  0  0  0
 15 16  1  0  0  0  0
 15 42  1  0  0  0  0
 16 17  1  0  0  0  0
 16 34  1  0  0  0  0
 16 35  1  0  0  0  0
 17 18  1  0  0  0  0
 17 36  1  0  0  0  0
 17 37  1  0  0  0  0
 18 19  1  0  0  0  0
 19 20  1  0  0  0  0
 19 38  1  0  0  0  0
 19 39  1  0  0  0  0
 20 40  1  0  0  0  0
 20 41  1  0  0  0  0
M  CHG  1   9  -1
M  CHG  1  15   1
M  END
> <s_m_source_file>
AV-unprocessed.smi

> <i_m_source_file_index>
845

> <i_lp_mmshare_version>
43012

> <i_f3d_flags>
0

> <s_epik_input>
W0NIMl0xW0NIMl1PW0NIMl1bQ0gyXU4xW0NASF0oW0NIXShbQ0gzXSlbQ0gzXSlbQ0gyXVtOSF1DKD1PKVtOSF1jMm5bY0hdW2NIXXMy

> <s_epik_cmdline>
J2VwaWtfcHl0aG9uJywgJy1waCcsICc3LjAnLCAnLXRuJywgJzgnLCAnLW1hJywgJzIwMCcsICctbWV0YWxfYmluZGluZycsICctaW1hZScsICc8aW5maWxlLm1hZT4nLCAnLW9tYWUnLCAnPG91dGZpbGUubWFlPic=

> <r_lp_tautomer_probability>
0.999

> <r_epik_Ionization_Penalty>
7.97104

> <r_epik_Ionization_Penalty_Charging>
6.58021

> <r_epik_Ionization_Penalty_Neutral>
1.39083

> <r_epik_State_Penalty>
6.69807

> <r_epik_Charging_Adjusted_Penalty>
13.2783

> <i_epik_Tot_Q>
0

> <i_epik_Tot_abs_Q>
2

> <r_epik_Metal_State_Penalty>
2.62985

> <b_epik_Metal_Only>
1

> <s_lp_Force_Field>
OPLS_2005

> <r_lp_Energy>
16.3382

> <b_lp_Chiralities_Consistent>
1

> <s_lp_Variant>
AV-unprocessed.smi:845-5

> <Gold.Version>
5.8.1

> <Gold.Id.Protein>
6NUR|6NUR_protein|mol2

> <Gold.PLP.Fitness>
44.5219

> <Gold.PLP.PLP>
-31.4235

> <Gold.PLP.part.hbond>
-4.5504

> <Gold.PLP.part.metal>
0.0000

> <Gold.PLP.part.buried>
-5.7858

> <Gold.PLP.part.nonpolar>
-22.3016

> <Gold.PLP.part.repulsive>
0.1223

> <Gold.PLP.ligand.clash>
0.0000

> <Gold.PLP.ligand.torsion>
1.2427

> <Gold.PLP.Chemscore.Hbond>
5.0000

> <Gold.PLP.Chemscore.CHOScore>
0.0000

> <Gold.PLP.Chemscore.Metal>
0.0000

> <Gold.Chemscore.Hbonds>
donor molecule, donor type, donor heavy atom, donor atom, acceptor molecule, acceptor atom, score
      L1  H    15    42       P1  7948  1.79
      P1  H  6896  6908       L1     9  2.00
      P1  H  6931  6943       L1    11  0.95

> <Gold.PLP.Chemscore.Internal.Correction>
0.5839

> <Gold.Rescore>
     Score         DG    S(hbond)    S(metal)    S(lipo)     H(rot)  DE(clash)    DE(int)     intcor
     12.03     -16.90       2.36        0.00      68.89       1.76       1.66       3.22       ----

> <Gold.Chemscore.Fitness>
12.0324

> <Gold.Chemscore.DG>
-16.9037

> <Gold.Chemscore.ZeroCoef>
-5.4800

> <Gold.Chemscore.Hbond>
2.3577

> <Gold.Chemscore.Metal>
0.0000

> <Gold.Chemscore.Lipo>
68.8948

> <Gold.Chemscore.Internal_Hbond>
0.0000

> <Gold.Chemscore.DEClash>
1.6561

> <Gold.Chemscore.DEInternal>
3.2152

> <Gold.Chemscore.Rot>
1.7623

> <Gold.Chemscore.Internal.Correction>
   9.000000E+99

> <Gold.Chemscore.Hbonds>
donor molecule, donor type, donor heavy atom, donor atom, acceptor molecule, acceptor atom, score
      L1  H    15    42       P1  7948  0.85
      P1  H  6896  6908       L1     9  0.36
      P1  H  6931  6943       L1    11  0.22

> <Gold.Chemscore.Hbond.Weighted>
-7.8746

> <Gold.Chemscore.Metal.Weighted>
-0.0000

> <Gold.Chemscore.Lipo.Weighted>
-8.0607

> <Gold.Chemscore.Internal_Hbond.Weighted>
0.0000

> <Gold.Chemscore.DEClash.Weighted>
1.6561

> <Gold.Chemscore.DEInternal.Weighted>
3.2152

> <Gold.Chemscore.Rot.Weighted>
4.5116

> <Gold.Chemscore.Internal.Correction.Weighted>
   9.000000E+99

> <Gold.Protein.RotatedTorsions>
[ 6907 6896 6895 6894 ] final  169.59 input  -60.11 | X-H torsion
[ 7974 7965 7964 7962 ] final  150.78 input  175.53 | X-H torsion
[ 8008 7997 7996 7995 ] final -100.43 input   59.86 | X-H torsion
[ 10167 10162 10161 10158 ] final   36.88 input  -65.29 | X-H torsion
[ 10718 10713 10712 10709 ] final  177.29 input   66.30 | X-H torsion
[ 10763 10752 10751 10750 ] final -155.28 input  -60.55 | X-H torsion
[ 11005 11000 10999 10996 ] final -141.37 input  -57.11 | X-H torsion

> <Gold.Protein.ActiveResidues>
 VAL166  LYS551  ARG553  GLY616  TRP617  ASP618  TYR619  PRO620  LYS621  CYS622 
 ASP623  PHE694  ASN695  SER759  ASP760  ASP761  ALA762  ILE779  LEU786  VAL792 
 PHE793  MET794  SER795  GLU796  ALA797  LYS798  CYS799  TRP800  GLU811  SER814 

> <Gold.Protein.RotatedAtoms>
  151.8295  133.3406  159.3608 H   0  0  0  0  0  0  0  0  0  0  0  0  # atno 6907 bound_to 6896
  150.7269  134.5497  159.5797 H   0  0  0  0  0  0  0  0  0  0  0  0  # atno 6908 bound_to 6896
  152.2947  134.7682  160.0422 H   0  0  0  0  0  0  0  0  0  0  0  0  # atno 6909 bound_to 6896
  144.8339  139.6453  143.6046 H   0  0  0  0  0  0  0  0  0  0  0  0  # atno 7974 bound_to 7965
  154.8286  140.0441  157.1461 H   0  0  0  0  0  0  0  0  0  0  0  0  # atno 8008 bound_to 7997
  154.9178  140.3022  155.5212 H   0  0  0  0  0  0  0  0  0  0  0  0  # atno 8009 bound_to 7997
  156.2985  140.2346  156.4225 H   0  0  0  0  0  0  0  0  0  0  0  0  # atno 8010 bound_to 7997
  140.4085  144.1625  150.6138 H   0  0  0  0  0  0  0  0  0  0  0  0  # atno 10167 bound_to 10162
  156.9075  130.9899  151.3026 H   0  0  0  0  0  0  0  0  0  0  0  0  # atno 10718 bound_to 10713
  154.7799  135.3171  154.8013 H   0  0  0  0  0  0  0  0  0  0  0  0  # atno 10763 bound_to 10752
  153.8727  135.6842  153.4777 H   0  0  0  0  0  0  0  0  0  0  0  0  # atno 10764 bound_to 10752
  153.1432  135.4730  154.9464 H   0  0  0  0  0  0  0  0  0  0  0  0  # atno 10765 bound_to 10752
  140.8331  134.2493  157.4847 H   0  0  0  0  0  0  0  0  0  0  0  0  # atno 11005 bound_to 11000
  146.2640  139.6476  142.9342 LP  0  0  0  0  0  0  0  0  0  0  0  0  # atno 17320 bound_to 7965
  145.4836  141.0438  143.2632 LP  0  0  0  0  0  0  0  0  0  0  0  0  # atno 17321 bound_to 7965
  140.4663  143.2429  151.9151 LP  0  0  0  0  0  0  0  0  0  0  0  0  # atno 17342 bound_to 10162
  139.4783  144.5416  151.8520 LP  0  0  0  0  0  0  0  0  0  0  0  0  # atno 17343 bound_to 10162
  157.5988  130.8497  149.8770 LP  0  0  0  0  0  0  0  0  0  0  0  0  # atno 17370 bound_to 10713
  156.0552  130.3710  150.1108 LP  0  0  0  0  0  0  0  0  0  0  0  0  # atno 17371 bound_to 10713
  139.8704  134.9596  156.4338 LP  0  0  0  0  0  0  0  0  0  0  0  0  # atno 17394 bound_to 11000
  140.8977  133.7802  155.9644 LP  0  0  0  0  0  0  0  0  0  0  0  0  # atno 17395 bound_to 11000

$$$$
