AV-unprocessed.smi:644|AV-procd|sdf|3158|dock4
  -GOLD-   22720 0 83D 1   1.00000     0.00000
 Structure written by MMmdl.
 38 40  0  0  0  0  0  0  0  0  2 V2000
  152.1821  144.3353  161.0139 C   0  0  0  0  0  0  0  0  0  0  0  0
  152.0537  143.3304  159.8817 C   0  0  0  0  0  0  0  0  0  0  0  0
  151.2654  143.6745  158.7602 C   0  0  0  0  0  0  0  0  0  0  0  0
  151.1658  142.7338  157.7419 C   0  0  0  0  0  0  0  0  0  0  0  0
  150.4761  142.7667  156.5276 N   0  3  0  0  0  0  0  0  0  0  0  0
  150.6788  141.5982  155.8579 C   0  0  0  0  0  0  0  0  0  0  0  0
  151.4887  140.8210  156.6270 N   0  0  0  0  0  0  0  0  0  0  0  0
  152.0095  139.4694  156.3850 C   0  0  0  0  0  0  0  0  0  0  0  0
  151.6973  138.9561  154.9662 C   0  0  1  0  0  0  0  0  0  0  0  0
  152.7421  138.1052  154.5343 O   0  0  0  0  0  0  0  0  0  0  0  0
  150.3637  138.1949  154.9104 C   0  0  0  0  0  0  0  0  0  0  0  0
  150.5305  136.4867  155.5149 S   0  0  0  0  0  0  0  0  0  0  0  0
  150.9339  136.7916  157.2053 C   0  0  0  0  0  0  0  0  0  0  0  0
  152.0046  136.3004  157.8461 N   0  0  0  0  0  0  0  0  0  0  0  0
  152.0618  136.7109  159.1713 N   0  0  0  0  0  0  0  0  0  0  0  0
  151.0302  137.4990  159.4833 C   0  0  0  0  0  0  0  0  0  0  0  0
  149.8912  137.8138  158.1876 S   0  0  0  0  0  0  0  0  0  0  0  0
  151.8182  141.4878  157.8110 C   0  0  0  0  0  0  0  0  0  0  0  0
  152.5992  141.1323  158.9076 C   0  0  0  0  0  0  0  0  0  0  0  0
  152.7121  142.0752  159.9543 C   0  0  0  0  0  0  0  0  0  0  0  0
  153.5566  141.7151  161.1650 C   0  0  0  0  0  0  0  0  0  0  0  0
  151.6157  145.2438  160.8074 H   0  0  0  0  0  0  0  0  0  0  0  0
  153.2250  144.6187  161.1582 H   0  0  0  0  0  0  0  0  0  0  0  0
  151.8052  143.9130  161.9457 H   0  0  0  0  0  0  0  0  0  0  0  0
  150.7605  144.6276  158.6985 H   0  0  0  0  0  0  0  0  0  0  0  0
  150.2675  141.3330  154.8945 H   0  0  0  0  0  0  0  0  0  0  0  0
  153.0877  139.4989  156.5493 H   0  0  0  0  0  0  0  0  0  0  0  0
  151.5988  138.8016  157.1433 H   0  0  0  0  0  0  0  0  0  0  0  0
  151.6493  139.8029  154.2806 H   0  0  0  0  0  0  0  0  0  0  0  0
  152.5057  137.7458  153.6923 H   0  0  0  0  0  0  0  0  0  0  0  0
  149.6048  138.7167  155.4951 H   0  0  0  0  0  0  0  0  0  0  0  0
  150.0086  138.1588  153.8799 H   0  0  0  0  0  0  0  0  0  0  0  0
  150.9393  137.8973  160.4829 H   0  0  0  0  0  0  0  0  0  0  0  0
  153.0984  140.1762  158.9619 H   0  0  0  0  0  0  0  0  0  0  0  0
  153.9833  140.7162  161.0713 H   0  0  0  0  0  0  0  0  0  0  0  0
  152.9531  141.7347  162.0728 H   0  0  0  0  0  0  0  0  0  0  0  0
  154.3805  142.4198  161.2806 H   0  0  0  0  0  0  0  0  0  0  0  0
  149.9061  143.5273  156.1802 H   0  0  0  0  0  0  0  0  0  0  0  0
  1  2  1  0  0  0  0
  1 22  1  0  0  0  0
  1 23  1  0  0  0  0
  1 24  1  0  0  0  0
  2 20  1  0  0  0  0
  2  3  2  0  0  0  0
  3  4  1  0  0  0  0
  3 25  1  0  0  0  0
  4 18  2  0  0  0  0
  4  5  1  0  0  0  0
  5  6  2  0  0  0  0
  5 38  1  0  0  0  0
  6  7  1  0  0  0  0
  6 26  1  0  0  0  0
  7  8  1  0  0  0  0
  7 18  1  0  0  0  0
  8  9  1  0  0  0  0
  8 27  1  0  0  0  0
  8 28  1  0  0  0  0
  9 10  1  0  0  0  0
  9 11  1  0  0  0  0
  9 29  1  0  0  0  0
 10 30  1  0  0  0  0
 11 12  1  0  0  0  0
 11 31  1  0  0  0  0
 11 32  1  0  0  0  0
 12 13  1  0  0  0  0
 13 17  1  0  0  0  0
 13 14  2  0  0  0  0
 14 15  1  0  0  0  0
 15 16  2  0  0  0  0
 16 17  1  0  0  0  0
 16 33  1  0  0  0  0
 18 19  1  0  0  0  0
 19 20  2  0  0  0  0
 19 34  1  0  0  0  0
 20 21  1  0  0  0  0
 21 35  1  0  0  0  0
 21 36  1  0  0  0  0
 21 37  1  0  0  0  0
M  CHG  1   5   1
M  END
> <s_m_source_file>
AV-unprocessed.smi

> <i_m_source_file_index>
644

> <i_lp_mmshare_version>
43012

> <i_f3d_flags>
0

> <s_epik_input>
W0NIM11jKFtjSF0xKWMoW0NIM10pW2NIXWMoYzEyKW4oW2NIXW4yKVtDSDJdW0NASF0oW09IXSlbQ0gyXVNjM25uW2NIXXMz

> <s_epik_cmdline>
J2VwaWtfcHl0aG9uJywgJy1waCcsICc3LjAnLCAnLXRuJywgJzgnLCAnLW1hJywgJzIwMCcsICctbWV0YWxfYmluZGluZycsICctaW1hZScsICc8aW5maWxlLm1hZT4nLCAnLW9tYWUnLCAnPG91dGZpbGUubWFlPic=

> <r_lp_tautomer_probability>
1

> <r_epik_Ionization_Penalty>
1.07492

> <r_epik_Ionization_Penalty_Charging>
1.07491

> <r_epik_Ionization_Penalty_Neutral>
3.80549e-06

> <r_epik_State_Penalty>
1.12982

> <r_epik_Charging_Adjusted_Penalty>
2.20473

> <i_epik_Tot_Q>
1

> <i_epik_Tot_abs_Q>
1

> <r_epik_Metal_State_Penalty>
1.2206

> <b_epik_Metal_Only>
0

> <s_lp_Force_Field>
OPLS_2005

> <r_lp_Energy>
12.6095

> <b_lp_Chiralities_Consistent>
1

> <s_lp_Variant>
AV-unprocessed.smi:644-4

> <Gold.Version>
5.8.1

> <Gold.Id.Protein>
6NUR|6NUR_protein|mol2

> <Gold.PLP.Fitness>
53.7539

> <Gold.PLP.PLP>
-46.0375

> <Gold.PLP.part.hbond>
-3.7876

> <Gold.PLP.part.metal>
0.0000

> <Gold.PLP.part.buried>
-7.4276

> <Gold.PLP.part.nonpolar>
-35.3545

> <Gold.PLP.part.repulsive>
0.0687

> <Gold.PLP.ligand.clash>
0.0000

> <Gold.PLP.ligand.torsion>
0.6732

> <Gold.PLP.Chemscore.Hbond>
2.9920

> <Gold.PLP.Chemscore.CHOScore>
0.0000

> <Gold.PLP.Chemscore.Metal>
0.0000

> <Gold.Chemscore.Hbonds>
donor molecule, donor type, donor heavy atom, donor atom, acceptor molecule, acceptor atom, score
      L1  H     5    38       P1  8028  2.00
      P1  H  6896  6907       L1    15  0.99

> <Gold.PLP.Chemscore.Internal.Correction>
0.0867

> <Gold.Rescore>
     Score         DG    S(hbond)    S(metal)    S(lipo)     H(rot)  DE(clash)    DE(int)     intcor
     17.51     -18.32       1.73        0.00     115.83       2.53       0.02       0.78       ----

> <Gold.Chemscore.Fitness>
17.5108

> <Gold.Chemscore.DG>
-18.3156

> <Gold.Chemscore.ZeroCoef>
-5.4800

> <Gold.Chemscore.Hbond>
1.7256

> <Gold.Chemscore.Metal>
0.0000

> <Gold.Chemscore.Lipo>
115.8340

> <Gold.Chemscore.Internal_Hbond>
0.0000

> <Gold.Chemscore.DEClash>
0.0202

> <Gold.Chemscore.DEInternal>
0.7845

> <Gold.Chemscore.Rot>
2.5315

> <Gold.Chemscore.Internal.Correction>
   9.000000E+99

> <Gold.Chemscore.Hbonds>
donor molecule, donor type, donor heavy atom, donor atom, acceptor molecule, acceptor atom, score
      L1  H     5    38       P1  8028  1.00
      P1  H  6896  6907       L1    15  0.11

> <Gold.Chemscore.Hbond.Weighted>
-5.7635

> <Gold.Chemscore.Metal.Weighted>
-0.0000

> <Gold.Chemscore.Lipo.Weighted>
-13.5526

> <Gold.Chemscore.Internal_Hbond.Weighted>
0.0000

> <Gold.Chemscore.DEClash.Weighted>
0.0202

> <Gold.Chemscore.DEInternal.Weighted>
0.7845

> <Gold.Chemscore.Rot.Weighted>
6.4805

> <Gold.Chemscore.Internal.Correction.Weighted>
   9.000000E+99

> <Gold.Protein.RotatedTorsions>
[ 6907 6896 6895 6894 ] final    6.05 input  -60.11 | X-H torsion
[ 7974 7965 7964 7962 ] final  -78.59 input  175.53 | X-H torsion
[ 8008 7997 7996 7995 ] final -144.54 input   59.86 | X-H torsion
[ 10167 10162 10161 10158 ] final  170.94 input  -65.29 | X-H torsion
[ 10718 10713 10712 10709 ] final   42.76 input   66.30 | X-H torsion
[ 10763 10752 10751 10750 ] final  176.40 input  -60.55 | X-H torsion
[ 11005 11000 10999 10996 ] final  -49.43 input  -57.11 | X-H torsion

> <Gold.Protein.ActiveResidues>
 VAL166  LYS551  ARG553  GLY616  TRP617  ASP618  TYR619  PRO620  LYS621  CYS622 
 ASP623  PHE694  ASN695  SER759  ASP760  ASP761  ALA762  ILE779  LEU786  VAL792 
 PHE793  MET794  SER795  GLU796  ALA797  LYS798  CYS799  TRP800  GLU811  SER814 

> <Gold.Protein.RotatedAtoms>
  151.6674  135.0981  160.0191 H   0  0  0  0  0  0  0  0  0  0  0  0  # atno 6907 bound_to 6896
  152.3911  133.6676  159.6247 H   0  0  0  0  0  0  0  0  0  0  0  0  # atno 6908 bound_to 6896
  150.7827  133.8869  159.3343 H   0  0  0  0  0  0  0  0  0  0  0  0  # atno 6909 bound_to 6896
  145.5844  140.9442  143.1326 H   0  0  0  0  0  0  0  0  0  0  0  0  # atno 7974 bound_to 7965
  155.5286  140.0597  157.2893 H   0  0  0  0  0  0  0  0  0  0  0  0  # atno 8008 bound_to 7997
  154.4492  140.1940  156.0517 H   0  0  0  0  0  0  0  0  0  0  0  0  # atno 8009 bound_to 7997
  156.0668  140.3265  155.7531 H   0  0  0  0  0  0  0  0  0  0  0  0  # atno 8010 bound_to 7997
  139.5032  144.3540  151.9893 H   0  0  0  0  0  0  0  0  0  0  0  0  # atno 10167 bound_to 10162
  157.4084  130.7900  149.7409 H   0  0  0  0  0  0  0  0  0  0  0  0  # atno 10718 bound_to 10713
  154.4807  135.2775  155.1573 H   0  0  0  0  0  0  0  0  0  0  0  0  # atno 10763 bound_to 10752
  154.3284  135.6195  153.5544 H   0  0  0  0  0  0  0  0  0  0  0  0  # atno 10764 bound_to 10752
  152.9875  135.5759  154.5207 H   0  0  0  0  0  0  0  0  0  0  0  0  # atno 10765 bound_to 10752
  141.0759  133.6666  156.3585 H   0  0  0  0  0  0  0  0  0  0  0  0  # atno 11005 bound_to 11000
  144.7379  139.7532  143.7322 LP  0  0  0  0  0  0  0  0  0  0  0  0  # atno 17320 bound_to 7965
  146.1693  139.4837  142.9938 LP  0  0  0  0  0  0  0  0  0  0  0  0  # atno 17321 bound_to 7965
  140.2977  144.3682  150.6069 LP  0  0  0  0  0  0  0  0  0  0  0  0  # atno 17342 bound_to 10162
  140.5897  143.2168  151.7275 LP  0  0  0  0  0  0  0  0  0  0  0  0  # atno 17343 bound_to 10162
  155.9843  130.3992  150.3317 LP  0  0  0  0  0  0  0  0  0  0  0  0  # atno 17370 bound_to 10713
  157.1453  131.0307  151.2909 LP  0  0  0  0  0  0  0  0  0  0  0  0  # atno 17371 bound_to 10713
  140.5575  134.5967  157.5424 LP  0  0  0  0  0  0  0  0  0  0  0  0  # atno 17394 bound_to 11000
  139.9571  134.7516  156.0318 LP  0  0  0  0  0  0  0  0  0  0  0  0  # atno 17395 bound_to 11000

$$$$
