AV-unprocessed.smi:1888|AV-procd|sdf|7658|dock2
  -GOLD-   22720 9393D 1   1.00000     0.00000
 Structure written by MMmdl.
 43 45  0  0  0  0  0  0  0  0  2 V2000
  151.5520  145.5643  160.1604 C   0  0  0  0  0  0  0  0  0  0  0  0
  151.1911  145.1346  158.7366 C   0  0  0  0  0  0  0  0  0  0  0  0
  152.3024  144.4681  158.1624 O   0  0  0  0  0  0  0  0  0  0  0  0
  152.7591  143.3858  158.9557 C   0  0  0  0  0  0  0  0  0  0  0  0
  151.7791  142.2152  158.8052 C   0  0  0  0  0  0  0  0  0  0  0  0
  152.4567  140.9257  158.8874 N   0  0  0  0  0  0  0  0  0  0  0  0
  152.4487  139.9255  157.9697 C   0  0  0  0  0  0  0  0  0  0  0  0
  151.7288  140.0414  156.7617 N   0  0  0  0  0  0  0  0  0  0  0  0
  150.6591  140.8626  156.6839 N   0  0  0  0  0  0  0  0  0  0  0  0
  150.2237  140.7373  155.4414 C   0  0  0  0  0  0  0  0  0  0  0  0
  149.0322  141.5314  154.9946 C   0  0  0  0  0  0  0  0  0  0  0  0
  151.0027  139.8149  154.6882 C   0  0  0  0  0  0  0  0  0  0  0  0
  151.9575  139.3851  155.5664 C   0  0  0  0  0  0  0  0  0  0  0  0
  153.0763  138.4136  155.3790 C   0  0  0  0  0  0  0  0  0  0  0  0
  153.1815  138.8579  158.2923 N   0  0  0  0  0  0  0  0  0  0  0  0
  153.6912  139.2053  159.5358 C   0  0  0  0  0  0  0  0  0  0  0  0
  153.2680  140.4412  159.9162 C   0  0  0  0  0  0  0  0  0  0  0  0
  153.6426  141.0856  161.1931 C   0  0  0  0  0  0  0  0  0  0  0  0
  153.2244  142.2041  161.4850 O   0  0  0  0  0  0  0  0  0  0  0  0
  154.4694  140.2939  161.9471 N   0  5  0  0  0  0  0  0  0  0  0  0
  154.9253  139.0391  161.6027 C   0  0  0  0  0  0  0  0  0  0  0  0
  155.6687  138.3922  162.3418 O   0  0  0  0  0  0  0  0  0  0  0  0
  154.5502  138.4819  160.4078 N   0  0  0  0  0  0  0  0  0  0  0  0
  155.0220  137.1510  160.0149 C   0  0  0  0  0  0  0  0  0  0  0  0
  150.7194  146.0861  160.6325 H   0  0  0  0  0  0  0  0  0  0  0  0
  152.4114  146.2352  160.1607 H   0  0  0  0  0  0  0  0  0  0  0  0
  151.7995  144.7006  160.7779 H   0  0  0  0  0  0  0  0  0  0  0  0
  150.3235  144.4732  158.7564 H   0  0  0  0  0  0  0  0  0  0  0  0
  150.9276  146.0089  158.1395 H   0  0  0  0  0  0  0  0  0  0  0  0
  153.7598  143.0871  158.6408 H   0  0  0  0  0  0  0  0  0  0  0  0
  152.8231  143.6926  160.0004 H   0  0  0  0  0  0  0  0  0  0  0  0
  151.0123  142.2697  159.5781 H   0  0  0  0  0  0  0  0  0  0  0  0
  151.2433  142.2779  157.8586 H   0  0  0  0  0  0  0  0  0  0  0  0
  148.8401  141.3890  153.9311 H   0  0  0  0  0  0  0  0  0  0  0  0
  149.1846  142.5978  155.1637 H   0  0  0  0  0  0  0  0  0  0  0  0
  148.1356  141.2317  155.5373 H   0  0  0  0  0  0  0  0  0  0  0  0
  150.8795  139.5153  153.6580 H   0  0  0  0  0  0  0  0  0  0  0  0
  153.1617  138.1136  154.3346 H   0  0  0  0  0  0  0  0  0  0  0  0
  152.9126  137.5158  155.9751 H   0  0  0  0  0  0  0  0  0  0  0  0
  154.0275  138.8526  155.6812 H   0  0  0  0  0  0  0  0  0  0  0  0
  154.7007  136.4033  160.7407 H   0  0  0  0  0  0  0  0  0  0  0  0
  156.1113  137.1319  159.9638 H   0  0  0  0  0  0  0  0  0  0  0  0
  154.6450  136.8408  159.0409 H   0  0  0  0  0  0  0  0  0  0  0  0
  1  2  1  0  0  0  0
  1 25  1  0  0  0  0
  1 26  1  0  0  0  0
  1 27  1  0  0  0  0
  2  3  1  0  0  0  0
  2 28  1  0  0  0  0
  2 29  1  0  0  0  0
  3  4  1  0  0  0  0
  4  5  1  0  0  0  0
  4 30  1  0  0  0  0
  4 31  1  0  0  0  0
  5  6  1  0  0  0  0
  5 32  1  0  0  0  0
  5 33  1  0  0  0  0
  6 17  1  0  0  0  0
  6  7  1  0  0  0  0
  7  8  1  0  0  0  0
  7 15  2  0  0  0  0
  8 13  1  0  0  0  0
  8  9  1  0  0  0  0
  9 10  2  0  0  0  0
 10 11  1  0  0  0  0
 10 12  1  0  0  0  0
 11 34  1  0  0  0  0
 11 35  1  0  0  0  0
 11 36  1  0  0  0  0
 12 13  2  0  0  0  0
 12 37  1  0  0  0  0
 13 14  1  0  0  0  0
 14 38  1  0  0  0  0
 14 39  1  0  0  0  0
 14 40  1  0  0  0  0
 15 16  1  0  0  0  0
 16 23  1  0  0  0  0
 16 17  2  0  0  0  0
 17 18  1  0  0  0  0
 18 19  2  0  0  0  0
 18 20  1  0  0  0  0
 20 21  1  0  0  0  0
 21 22  2  0  0  0  0
 21 23  1  0  0  0  0
 23 24  1  0  0  0  0
 24 41  1  0  0  0  0
 24 42  1  0  0  0  0
 24 43  1  0  0  0  0
M  CHG  1  20  -1
M  END
> <s_m_source_file>
AV-unprocessed.smi

> <i_m_source_file_index>
1888

> <i_lp_mmshare_version>
43012

> <i_f3d_flags>
0

> <s_epik_input>
W0NIM11uMWMoPU8pW25IXWMoPU8pYyhjMTIpbihbQ0gyXVtDSDJdT1tDSDJdW0NIM10pYyhuMiktbjNuYyhbQ0gzXSlbY0hdYzNbQ0gzXQ==

> <s_epik_cmdline>
J2VwaWtfcHl0aG9uJywgJy1waCcsICc3LjAnLCAnLXRuJywgJzgnLCAnLW1hJywgJzIwMCcsICctbWV0YWxfYmluZGluZycsICctaW1hZScsICc8aW5maWxlLm1hZT4nLCAnLW9tYWUnLCAnPG91dGZpbGUubWFlPic=

> <r_lp_tautomer_probability>
1

> <r_epik_Ionization_Penalty>
3.99912

> <r_epik_Ionization_Penalty_Charging>
0.0169474

> <r_epik_Ionization_Penalty_Neutral>
3.98217

> <r_epik_State_Penalty>
3.98062

> <r_epik_Charging_Adjusted_Penalty>
3.99756

> <i_epik_Tot_Q>
-1

> <i_epik_Tot_abs_Q>
1

> <r_epik_Metal_State_Penalty>
0.61592

> <b_epik_Metal_Only>
1

> <s_lp_Force_Field>
OPLS_2005

> <r_lp_Energy>
30.4579

> <b_lp_Chiralities_Consistent>
1

> <s_lp_Variant>
AV-unprocessed.smi:1888-2

> <Gold.Version>
5.8.1

> <Gold.Id.Protein>
6NUR|6NUR_protein|mol2

> <Gold.PLP.Fitness>
43.6577

> <Gold.PLP.PLP>
-44.1947

> <Gold.PLP.part.hbond>
-0.4245

> <Gold.PLP.part.metal>
0.0000

> <Gold.PLP.part.buried>
-3.0055

> <Gold.PLP.part.nonpolar>
-40.5348

> <Gold.PLP.part.repulsive>
0.1089

> <Gold.PLP.ligand.clash>
0.0000

> <Gold.PLP.ligand.torsion>
0.5490

> <Gold.PLP.Chemscore.Hbond>
0.0000

> <Gold.PLP.Chemscore.CHOScore>
0.0000

> <Gold.PLP.Chemscore.Metal>
0.0000

> <Gold.PLP.Chemscore.Internal.Correction>
0.5609

> <Gold.Rescore>
     Score         DG    S(hbond)    S(metal)    S(lipo)     H(rot)  DE(clash)    DE(int)     intcor
      8.49     -11.76       0.00        0.00      90.12       1.67       0.04       3.22       ----

> <Gold.Chemscore.Fitness>
8.4918

> <Gold.Chemscore.DG>
-11.7550

> <Gold.Chemscore.ZeroCoef>
-5.4800

> <Gold.Chemscore.Hbond>
0.0000

> <Gold.Chemscore.Metal>
0.0000

> <Gold.Chemscore.Lipo>
90.1187

> <Gold.Chemscore.Internal_Hbond>
0.0000

> <Gold.Chemscore.DEClash>
0.0436

> <Gold.Chemscore.DEInternal>
3.2195

> <Gold.Chemscore.Rot>
1.6675

> <Gold.Chemscore.Internal.Correction>
   9.000000E+99

> <Gold.Chemscore.Hbond.Weighted>
-0.0000

> <Gold.Chemscore.Metal.Weighted>
-0.0000

> <Gold.Chemscore.Lipo.Weighted>
-10.5439

> <Gold.Chemscore.Internal_Hbond.Weighted>
0.0000

> <Gold.Chemscore.DEClash.Weighted>
0.0436

> <Gold.Chemscore.DEInternal.Weighted>
3.2195

> <Gold.Chemscore.Rot.Weighted>
4.2689

> <Gold.Chemscore.Internal.Correction.Weighted>
   9.000000E+99

> <Gold.Protein.RotatedTorsions>
[ 6907 6896 6895 6894 ] final   37.11 input  -60.11 | X-H torsion
[ 7974 7965 7964 7962 ] final  159.50 input  175.53 | X-H torsion
[ 8008 7997 7996 7995 ] final  -76.14 input   59.86 | X-H torsion
[ 10167 10162 10161 10158 ] final   50.43 input  -65.29 | X-H torsion
[ 10718 10713 10712 10709 ] final  -54.08 input   66.30 | X-H torsion
[ 10763 10752 10751 10750 ] final -171.96 input  -60.55 | X-H torsion
[ 11005 11000 10999 10996 ] final  122.21 input  -57.11 | X-H torsion

> <Gold.Protein.ActiveResidues>
 VAL166  LYS551  ARG553  GLY616  TRP617  ASP618  TYR619  PRO620  LYS621  CYS622 
 ASP623  PHE694  ASN695  SER759  ASP760  ASP761  ALA762  ILE779  LEU786  VAL792 
 PHE793  MET794  SER795  GLU796  ALA797  LYS798  CYS799  TRP800  GLU811  SER814 

> <Gold.Protein.RotatedAtoms>
  152.1388  134.9078  160.0554 H   0  0  0  0  0  0  0  0  0  0  0  0  # atno 6907 bound_to 6896
  152.0154  133.3873  159.4245 H   0  0  0  0  0  0  0  0  0  0  0  0  # atno 6908 bound_to 6896
  150.6863  134.3606  159.4992 H   0  0  0  0  0  0  0  0  0  0  0  0  # atno 6909 bound_to 6896
  144.7787  139.7626  143.6268 H   0  0  0  0  0  0  0  0  0  0  0  0  # atno 7974 bound_to 7965
  154.5478  140.0732  156.8618 H   0  0  0  0  0  0  0  0  0  0  0  0  # atno 8008 bound_to 7997
  155.3052  140.3387  155.4228 H   0  0  0  0  0  0  0  0  0  0  0  0  # atno 8009 bound_to 7997
  156.1934  140.1694  156.8032 H   0  0  0  0  0  0  0  0  0  0  0  0  # atno 8010 bound_to 7997
  140.2725  144.3249  150.6286 H   0  0  0  0  0  0  0  0  0  0  0  0  # atno 10167 bound_to 10162
  156.1481  130.4152  149.9990 H   0  0  0  0  0  0  0  0  0  0  0  0  # atno 10718 bound_to 10713
  154.6246  135.2879  155.0286 H   0  0  0  0  0  0  0  0  0  0  0  0  # atno 10763 bound_to 10752
  154.1469  135.6509  153.4958 H   0  0  0  0  0  0  0  0  0  0  0  0  # atno 10764 bound_to 10752
  153.0251  135.5346  154.7050 H   0  0  0  0  0  0  0  0  0  0  0  0  # atno 10765 bound_to 10752
  139.9259  134.9640  156.8075 H   0  0  0  0  0  0  0  0  0  0  0  0  # atno 11005 bound_to 11000
  146.1982  139.5261  142.9760 LP  0  0  0  0  0  0  0  0  0  0  0  0  # atno 17320 bound_to 7965
  145.6112  141.0339  143.1965 LP  0  0  0  0  0  0  0  0  0  0  0  0  # atno 17321 bound_to 7965
  140.5878  143.2169  151.7310 LP  0  0  0  0  0  0  0  0  0  0  0  0  # atno 17342 bound_to 10162
  139.4985  144.3985  152.0206 LP  0  0  0  0  0  0  0  0  0  0  0  0  # atno 17343 bound_to 10162
  156.7856  130.9237  151.3646 LP  0  0  0  0  0  0  0  0  0  0  0  0  # atno 17370 bound_to 10713
  157.6634  130.8986  149.9879 LP  0  0  0  0  0  0  0  0  0  0  0  0  # atno 17371 bound_to 10713
  140.6339  133.9880  155.7675 LP  0  0  0  0  0  0  0  0  0  0  0  0  # atno 17394 bound_to 11000
  141.0815  134.0055  157.3378 LP  0  0  0  0  0  0  0  0  0  0  0  0  # atno 17395 bound_to 11000

$$$$
