AV-unprocessed.smi:3171|AV-procd|sdf|12112|dock10
  -GOLD-   2272017553D 1   1.00000     0.00000
 Structure written by MMmdl.
 33 34  0  0  0  0  0  0  0  0  1 V2000
  156.4977  139.5725  164.5650 C   0  0  0  0  0  0  0  0  0  0  0  0
  155.6326  139.6323  163.3186 C   0  0  0  0  0  0  0  0  0  0  0  0
  155.4651  140.8683  162.7995 N   0  0  0  0  0  0  0  0  0  0  0  0
  154.7277  141.0464  161.7026 N   0  0  0  0  0  0  0  0  0  0  0  0
  154.1287  139.9987  161.0862 C   0  0  0  0  0  0  0  0  0  0  0  0
  153.3680  140.2666  159.9323 N   0  0  0  0  0  0  0  0  0  0  0  0
  153.4798  141.5351  159.2219 C   0  0  0  0  0  0  0  0  0  0  0  0
  152.4794  142.5829  159.7364 C   0  0  1  0  0  0  0  0  0  0  0  0
  152.8382  143.1440  161.1089 C   0  0  0  0  0  0  0  0  0  0  0  0
  152.0795  144.4520  161.1071 C   0  0  0  0  0  0  0  0  0  0  0  0
  152.2132  144.9038  159.6534 C   0  0  0  0  0  0  0  0  0  0  0  0
  152.4748  143.7279  158.8896 O   0  0  0  0  0  0  0  0  0  0  0  0
  154.2645  138.6733  161.5756 C   0  0  0  0  0  0  0  0  0  0  0  0
  153.6207  137.5453  160.9053 C   0  0  0  0  0  0  0  0  0  0  0  0
  153.1111  136.6522  160.3743 N   0  0  0  0  0  0  0  0  0  0  0  0
  155.0469  138.4792  162.7418 C   0  0  0  0  0  0  0  0  0  0  0  0
  155.2482  137.0890  163.3397 C   0  0  0  0  0  0  0  0  0  0  0  0
  157.3575  138.9223  164.4022 H   0  0  0  0  0  0  0  0  0  0  0  0
  155.9240  139.1896  165.4092 H   0  0  0  0  0  0  0  0  0  0  0  0
  156.8739  140.5591  164.8389 H   0  0  0  0  0  0  0  0  0  0  0  0
  152.5515  139.7002  159.7516 H   0  0  0  0  0  0  0  0  0  0  0  0
  154.4998  141.9124  159.3028 H   0  0  0  0  0  0  0  0  0  0  0  0
  153.3093  141.3515  158.1607 H   0  0  0  0  0  0  0  0  0  0  0  0
  151.4676  142.1757  159.7743 H   0  0  0  0  0  0  0  0  0  0  0  0
  152.5502  142.4836  161.9272 H   0  0  0  0  0  0  0  0  0  0  0  0
  153.9103  143.3331  161.1798 H   0  0  0  0  0  0  0  0  0  0  0  0
  151.0308  144.2727  161.3486 H   0  0  0  0  0  0  0  0  0  0  0  0
  152.4738  145.1784  161.8182 H   0  0  0  0  0  0  0  0  0  0  0  0
  151.3147  145.4105  159.3008 H   0  0  0  0  0  0  0  0  0  0  0  0
  153.0550  145.5870  159.5363 H   0  0  0  0  0  0  0  0  0  0  0  0
  154.2851  136.6172  163.5372 H   0  0  0  0  0  0  0  0  0  0  0  0
  155.7977  137.0981  164.2792 H   0  0  0  0  0  0  0  0  0  0  0  0
  155.8001  136.4583  162.6423 H   0  0  0  0  0  0  0  0  0  0  0  0
  1  2  1  0  0  0  0
  1 18  1  0  0  0  0
  1 19  1  0  0  0  0
  1 20  1  0  0  0  0
  2 16  1  0  0  0  0
  2  3  2  0  0  0  0
  3  4  1  0  0  0  0
  4  5  2  0  0  0  0
  5  6  1  0  0  0  0
  5 13  1  0  0  0  0
  6  7  1  0  0  0  0
  6 21  1  0  0  0  0
  7  8  1  0  0  0  0
  7 22  1  0  0  0  0
  7 23  1  0  0  0  0
  8 12  1  0  0  0  0
  8  9  1  0  0  0  0
  8 24  1  0  0  0  0
  9 10  1  0  0  0  0
  9 25  1  0  0  0  0
  9 26  1  0  0  0  0
 10 11  1  0  0  0  0
 10 27  1  0  0  0  0
 10 28  1  0  0  0  0
 11 12  1  0  0  0  0
 11 29  1  0  0  0  0
 11 30  1  0  0  0  0
 13 14  1  0  0  0  0
 13 16  2  0  0  0  0
 14 15  3  0  0  0  0
 16 17  1  0  0  0  0
 17 31  1  0  0  0  0
 17 32  1  0  0  0  0
 17 33  1  0  0  0  0
M  END
> <s_m_source_file>
AV-unprocessed.smi

> <i_m_source_file_index>
3171

> <i_lp_mmshare_version>
43012

> <i_f3d_flags>
0

> <s_epik_input>
W0NIM11jMW5uYyhjKEMjTiljMVtDSDNdKVtOSF1bQ0gyXVtDQEBIXTJbQ0gyXVtDSDJdW0NIMl1PMg==

> <s_epik_cmdline>
J2VwaWtfcHl0aG9uJywgJy1waCcsICc3LjAnLCAnLXRuJywgJzgnLCAnLW1hJywgJzIwMCcsICctbWV0YWxfYmluZGluZycsICctaW1hZScsICc8aW5maWxlLm1hZT4nLCAnLW9tYWUnLCAnPG91dGZpbGUubWFlPic=

> <r_lp_tautomer_probability>
1

> <r_epik_Ionization_Penalty>
0.00108228

> <r_epik_Ionization_Penalty_Charging>
0

> <r_epik_Ionization_Penalty_Neutral>
0.00108228

> <r_epik_State_Penalty>
-0

> <r_epik_Charging_Adjusted_Penalty>
0

> <i_epik_Tot_Q>
0

> <i_epik_Tot_abs_Q>
0

> <r_epik_Metal_State_Penalty>
-0

> <b_epik_Metal_Only>
0

> <s_lp_Force_Field>
OPLS_2005

> <r_lp_Energy>
28.3967

> <b_lp_Chiralities_Consistent>
1

> <s_lp_Variant>
AV-unprocessed.smi:3171-2

> <Gold.Version>
5.8.1

> <Gold.Id.Protein>
6NUR|6NUR_protein|mol2

> <Gold.PLP.Fitness>
37.3485

> <Gold.PLP.PLP>
-34.9417

> <Gold.PLP.part.hbond>
-3.0000

> <Gold.PLP.part.metal>
0.0000

> <Gold.PLP.part.buried>
-6.1334

> <Gold.PLP.part.nonpolar>
-26.2360

> <Gold.PLP.part.repulsive>
0.0903

> <Gold.PLP.ligand.clash>
0.0000

> <Gold.PLP.ligand.torsion>
0.2997

> <Gold.PLP.Chemscore.Hbond>
1.0000

> <Gold.PLP.Chemscore.CHOScore>
0.0000

> <Gold.PLP.Chemscore.Metal>
0.0000

> <Gold.Chemscore.Hbonds>
donor molecule, donor type, donor heavy atom, donor atom, acceptor molecule, acceptor atom, score
      P1  H  6896  6909       L1    15  1.00

> <Gold.PLP.Chemscore.Internal.Correction>
0.0063

> <Gold.Rescore>
     Score         DG    S(hbond)    S(metal)    S(lipo)     H(rot)  DE(clash)    DE(int)     intcor
     14.11     -15.96       1.00        0.00      87.70       1.22       0.05       1.80       ----

> <Gold.Chemscore.Fitness>
14.1122

> <Gold.Chemscore.DG>
-15.9627

> <Gold.Chemscore.ZeroCoef>
-5.4800

> <Gold.Chemscore.Hbond>
1.0000

> <Gold.Chemscore.Metal>
0.0000

> <Gold.Chemscore.Lipo>
87.6999

> <Gold.Chemscore.Internal_Hbond>
0.0000

> <Gold.Chemscore.DEClash>
0.0518

> <Gold.Chemscore.DEInternal>
1.7987

> <Gold.Chemscore.Rot>
1.2181

> <Gold.Chemscore.Internal.Correction>
   9.000000E+99

> <Gold.Chemscore.Hbonds>
donor molecule, donor type, donor heavy atom, donor atom, acceptor molecule, acceptor atom, score
      P1  H  6896  6909       L1    15  0.99

> <Gold.Chemscore.Hbond.Weighted>
-3.3400

> <Gold.Chemscore.Metal.Weighted>
-0.0000

> <Gold.Chemscore.Lipo.Weighted>
-10.2609

> <Gold.Chemscore.Internal_Hbond.Weighted>
0.0000

> <Gold.Chemscore.DEClash.Weighted>
0.0518

> <Gold.Chemscore.DEInternal.Weighted>
1.7987

> <Gold.Chemscore.Rot.Weighted>
3.1182

> <Gold.Chemscore.Internal.Correction.Weighted>
   9.000000E+99

> <Gold.Protein.RotatedTorsions>
[ 6907 6896 6895 6894 ] final  147.04 input  -60.11 | X-H torsion
[ 7974 7965 7964 7962 ] final -165.67 input  175.53 | X-H torsion
[ 8008 7997 7996 7995 ] final   21.20 input   59.86 | X-H torsion
[ 10167 10162 10161 10158 ] final  105.83 input  -65.29 | X-H torsion
[ 10718 10713 10712 10709 ] final  -58.02 input   66.30 | X-H torsion
[ 10763 10752 10751 10750 ] final  -29.17 input  -60.55 | X-H torsion
[ 11005 11000 10999 10996 ] final -116.30 input  -57.11 | X-H torsion

> <Gold.Protein.ActiveResidues>
 VAL166  LYS551  ARG553  GLY616  TRP617  ASP618  TYR619  PRO620  LYS621  CYS622 
 ASP623  PHE694  ASN695  SER759  ASP760  ASP761  ALA762  ILE779  LEU786  VAL792 
 PHE793  MET794  SER795  GLU796  ALA797  LYS798  CYS799  TRP800  GLU811  SER814 

> <Gold.Protein.RotatedAtoms>
  152.1601  133.4576  159.4856 H   0  0  0  0  0  0  0  0  0  0  0  0  # atno 6907 bound_to 6896
  150.6905  134.2083  159.4358 H   0  0  0  0  0  0  0  0  0  0  0  0  # atno 6908 bound_to 6896
  151.9984  134.9941  160.0615 H   0  0  0  0  0  0  0  0  0  0  0  0  # atno 6909 bound_to 6896
  144.7264  140.2780  143.6240 H   0  0  0  0  0  0  0  0  0  0  0  0  # atno 7974 bound_to 7965
  154.9470  140.3060  155.5093 H   0  0  0  0  0  0  0  0  0  0  0  0  # atno 8008 bound_to 7997
  156.2991  140.2326  156.4482 H   0  0  0  0  0  0  0  0  0  0  0  0  # atno 8009 bound_to 7997
  154.8090  140.0429  157.1317 H   0  0  0  0  0  0  0  0  0  0  0  0  # atno 8010 bound_to 7997
  139.7060  144.7086  151.1106 H   0  0  0  0  0  0  0  0  0  0  0  0  # atno 10167 bound_to 10162
  156.1167  130.4170  150.0519 H   0  0  0  0  0  0  0  0  0  0  0  0  # atno 10718 bound_to 10713
  153.7602  135.6920  153.4927 H   0  0  0  0  0  0  0  0  0  0  0  0  # atno 10763 bound_to 10752
  153.1944  135.4459  155.0188 H   0  0  0  0  0  0  0  0  0  0  0  0  # atno 10764 bound_to 10752
  154.8156  135.3397  154.7118 H   0  0  0  0  0  0  0  0  0  0  0  0  # atno 10765 bound_to 10752
  141.0431  133.9805  157.2962 H   0  0  0  0  0  0  0  0  0  0  0  0  # atno 11005 bound_to 11000
  145.7978  139.1952  143.2066 LP  0  0  0  0  0  0  0  0  0  0  0  0  # atno 17320 bound_to 7965
  146.0702  140.7877  142.9692 LP  0  0  0  0  0  0  0  0  0  0  0  0  # atno 17321 bound_to 7965
  140.7722  143.5358  150.9370 LP  0  0  0  0  0  0  0  0  0  0  0  0  # atno 17342 bound_to 10162
  139.9041  143.6800  152.3126 LP  0  0  0  0  0  0  0  0  0  0  0  0  # atno 17343 bound_to 10162
  156.8469  130.9445  151.3628 LP  0  0  0  0  0  0  0  0  0  0  0  0  # atno 17370 bound_to 10713
  157.6350  130.8759  149.9342 LP  0  0  0  0  0  0  0  0  0  0  0  0  # atno 17371 bound_to 10713
  139.9291  135.0200  156.8337 LP  0  0  0  0  0  0  0  0  0  0  0  0  # atno 17394 bound_to 11000
  140.6198  134.0005  155.7613 LP  0  0  0  0  0  0  0  0  0  0  0  0  # atno 17395 bound_to 11000

$$$$
