AV-unprocessed.smi:1671|AV-procd|sdf|6698|dock8
  -GOLD-   22720 7433D 1   1.00000     0.00000
 Structure written by MMmdl.
 44 45  0  0  0  0  0  0  0  0  1 V2000
  152.5464  133.3871  152.3890 C   0  0  0  0  0  0  0  0  0  0  0  0
  151.0339  134.3796  152.5156 S   0  0  0  0  0  0  0  0  0  0  0  0
  151.2869  135.1908  154.1225 C   0  0  1  0  0  0  0  0  0  0  0  0
  152.0991  134.2796  155.0562 C   0  0  0  0  0  0  0  0  0  0  0  0
  151.9545  136.5632  153.9719 C   0  0  0  0  0  0  0  0  0  0  0  0
  153.0789  136.7626  154.4326 O   0  0  0  0  0  0  0  0  0  0  0  0
  151.2514  137.5027  153.3200 N   0  0  0  0  0  0  0  0  0  0  0  0
  151.7066  138.8675  153.0755 C   0  0  0  0  0  0  0  0  0  0  0  0
  151.7544  139.7483  154.3166 C   0  0  0  0  0  0  0  0  0  0  0  0
  150.6056  140.3849  154.8318 C   0  0  0  0  0  0  0  0  0  0  0  0
  150.7263  141.1871  155.9823 C   0  0  0  0  0  0  0  0  0  0  0  0
  151.9953  141.3372  156.5905 C   0  0  0  0  0  0  0  0  0  0  0  0
  152.1379  142.1320  157.7490 N   0  0  0  0  0  0  0  0  0  0  0  0
  150.9181  142.7784  158.2260 C   0  0  0  0  0  0  0  0  0  0  0  0
  151.2557  143.8417  159.2844 C   0  0  0  0  0  0  0  0  0  0  0  0
  152.0183  143.2533  160.3329 O   0  0  0  0  0  0  0  0  0  0  0  0
  153.2576  142.7281  159.8659 C   0  0  1  0  0  0  0  0  0  0  0  0
  154.0429  142.2020  161.0718 C   0  0  0  0  0  0  0  0  0  0  0  0
  152.9800  141.6223  158.8298 C   0  0  0  0  0  0  0  0  0  0  0  0
  153.0996  140.7363  156.0824 N   0  0  0  0  0  0  0  0  0  0  0  0
  152.9780  139.9664  154.9808 C   0  0  0  0  0  0  0  0  0  0  0  0
  152.5684  132.8609  151.4349 H   0  0  0  0  0  0  0  0  0  0  0  0
  152.5921  132.6475  153.1881 H   0  0  0  0  0  0  0  0  0  0  0  0
  153.4282  134.0248  152.4516 H   0  0  0  0  0  0  0  0  0  0  0  0
  150.3029  135.3276  154.5738 H   0  0  0  0  0  0  0  0  0  0  0  0
  152.2731  134.7548  156.0224 H   0  0  0  0  0  0  0  0  0  0  0  0
  153.0701  134.0277  154.6276 H   0  0  0  0  0  0  0  0  0  0  0  0
  151.5698  133.3450  155.2428 H   0  0  0  0  0  0  0  0  0  0  0  0
  150.3374  137.2553  152.9692 H   0  0  0  0  0  0  0  0  0  0  0  0
  152.6895  138.8452  152.6014 H   0  0  0  0  0  0  0  0  0  0  0  0
  151.0293  139.3279  152.3562 H   0  0  0  0  0  0  0  0  0  0  0  0
  149.6424  140.2682  154.3573 H   0  0  0  0  0  0  0  0  0  0  0  0
  149.8519  141.6856  156.3735 H   0  0  0  0  0  0  0  0  0  0  0  0
  150.3645  143.2499  157.4153 H   0  0  0  0  0  0  0  0  0  0  0  0
  150.2643  142.0189  158.6568 H   0  0  0  0  0  0  0  0  0  0  0  0
  151.8071  144.6719  158.8397 H   0  0  0  0  0  0  0  0  0  0  0  0
  150.3392  144.2573  159.7034 H   0  0  0  0  0  0  0  0  0  0  0  0
  153.8334  143.5303  159.4007 H   0  0  0  0  0  0  0  0  0  0  0  0
  155.0067  141.7948  160.7652 H   0  0  0  0  0  0  0  0  0  0  0  0
  153.4944  141.4125  161.5862 H   0  0  0  0  0  0  0  0  0  0  0  0
  154.2325  142.9990  161.7912 H   0  0  0  0  0  0  0  0  0  0  0  0
  152.4812  140.7766  159.3057 H   0  0  0  0  0  0  0  0  0  0  0  0
  153.9267  141.2588  158.4281 H   0  0  0  0  0  0  0  0  0  0  0  0
  153.8880  139.5101  154.6196 H   0  0  0  0  0  0  0  0  0  0  0  0
  1  2  1  0  0  0  0
  1 22  1  0  0  0  0
  1 23  1  0  0  0  0
  1 24  1  0  0  0  0
  2  3  1  0  0  0  0
  3  4  1  0  0  0  0
  3  5  1  0  0  0  0
  3 25  1  0  0  0  0
  4 26  1  0  0  0  0
  4 27  1  0  0  0  0
  4 28  1  0  0  0  0
  5  6  2  0  0  0  0
  5  7  1  0  0  0  0
  7  8  1  0  0  0  0
  7 29  1  0  0  0  0
  8  9  1  0  0  0  0
  8 30  1  0  0  0  0
  8 31  1  0  0  0  0
  9 21  1  0  0  0  0
  9 10  2  0  0  0  0
 10 11  1  0  0  0  0
 10 32  1  0  0  0  0
 11 12  2  0  0  0  0
 11 33  1  0  0  0  0
 12 13  1  0  0  0  0
 12 20  1  0  0  0  0
 13 19  1  0  0  0  0
 13 14  1  0  0  0  0
 14 15  1  0  0  0  0
 14 34  1  0  0  0  0
 14 35  1  0  0  0  0
 15 16  1  0  0  0  0
 15 36  1  0  0  0  0
 15 37  1  0  0  0  0
 16 17  1  0  0  0  0
 17 18  1  0  0  0  0
 17 19  1  0  0  0  0
 17 38  1  0  0  0  0
 18 39  1  0  0  0  0
 18 40  1  0  0  0  0
 18 41  1  0  0  0  0
 19 42  1  0  0  0  0
 19 43  1  0  0  0  0
 20 21  2  0  0  0  0
 21 44  1  0  0  0  0
M  END
> <s_m_source_file>
AV-unprocessed.smi

> <i_m_source_file_index>
1671

> <i_lp_mmshare_version>
43012

> <i_f3d_flags>
0

> <s_epik_input>
W0NIM11TW0NASF0oW0NIM10pQyg9TylbTkhdW0NIMl1jMVtjSF1bY0hdYyhuW2NIXTEpTjJbQ0gyXVtDSDJdT1tDQEBIXShbQ0gzXSlbQ0gyXTI=

> <s_epik_cmdline>
J2VwaWtfcHl0aG9uJywgJy1waCcsICc3LjAnLCAnLXRuJywgJzgnLCAnLW1hJywgJzIwMCcsICctbWV0YWxfYmluZGluZycsICctaW1hZScsICc8aW5maWxlLm1hZT4nLCAnLW9tYWUnLCAnPG91dGZpbGUubWFlPic=

> <r_lp_tautomer_probability>
1

> <r_epik_Ionization_Penalty>
0.00480033

> <r_epik_Ionization_Penalty_Charging>
0

> <r_epik_Ionization_Penalty_Neutral>
0.00480033

> <r_epik_State_Penalty>
0.00347981

> <r_epik_Charging_Adjusted_Penalty>
0.00347981

> <i_epik_Tot_Q>
0

> <i_epik_Tot_abs_Q>
0

> <r_epik_Metal_State_Penalty>
-0

> <b_epik_Metal_Only>
0

> <s_lp_Force_Field>
OPLS_2005

> <r_lp_Energy>
15.4739

> <b_lp_Chiralities_Consistent>
1

> <s_lp_Variant>
AV-unprocessed.smi:1671-2

> <Gold.Version>
5.8.1

> <Gold.Id.Protein>
6NUR|6NUR_protein|mol2

> <Gold.PLP.Fitness>
48.6161

> <Gold.PLP.PLP>
-42.6345

> <Gold.PLP.part.hbond>
-3.7065

> <Gold.PLP.part.metal>
0.0000

> <Gold.PLP.part.buried>
-3.0973

> <Gold.PLP.part.nonpolar>
-35.6413

> <Gold.PLP.part.repulsive>
0.1287

> <Gold.PLP.ligand.clash>
0.0000

> <Gold.PLP.ligand.torsion>
1.0685

> <Gold.PLP.Chemscore.Hbond>
2.5834

> <Gold.PLP.Chemscore.CHOScore>
0.0000

> <Gold.PLP.Chemscore.Metal>
0.0000

> <Gold.Chemscore.Hbonds>
donor molecule, donor type, donor heavy atom, donor atom, acceptor molecule, acceptor atom, score
      L1  H     7    29       P1  7948  0.40
      P1  H  7997  8010       L1    20  0.16

> <Gold.PLP.Chemscore.Internal.Correction>
0.3682

> <Gold.Rescore>
     Score         DG    S(hbond)    S(metal)    S(lipo)     H(rot)  DE(clash)    DE(int)     intcor
     16.80     -18.05       1.39        0.00     103.31       1.63       0.63       0.61       ----

> <Gold.Chemscore.Fitness>
16.8032

> <Gold.Chemscore.DG>
-18.0492

> <Gold.Chemscore.ZeroCoef>
-5.4800

> <Gold.Chemscore.Hbond>
1.3917

> <Gold.Chemscore.Metal>
0.0000

> <Gold.Chemscore.Lipo>
103.3060

> <Gold.Chemscore.Internal_Hbond>
0.0000

> <Gold.Chemscore.DEClash>
0.6312

> <Gold.Chemscore.DEInternal>
0.6149

> <Gold.Chemscore.Rot>
1.6272

> <Gold.Chemscore.Internal.Correction>
   9.000000E+99

> <Gold.Chemscore.Hbonds>
donor molecule, donor type, donor heavy atom, donor atom, acceptor molecule, acceptor atom, score
      L1  H     7    29       P1  7948  0.01
      P1  H  7997  8010       L1    20  0.06

> <Gold.Chemscore.Hbond.Weighted>
-4.6482

> <Gold.Chemscore.Metal.Weighted>
-0.0000

> <Gold.Chemscore.Lipo.Weighted>
-12.0868

> <Gold.Chemscore.Internal_Hbond.Weighted>
0.0000

> <Gold.Chemscore.DEClash.Weighted>
0.6312

> <Gold.Chemscore.DEInternal.Weighted>
0.6149

> <Gold.Chemscore.Rot.Weighted>
4.1657

> <Gold.Chemscore.Internal.Correction.Weighted>
   9.000000E+99

> <Gold.Protein.RotatedTorsions>
[ 6907 6896 6895 6894 ] final  -52.81 input  -60.11 | X-H torsion
[ 7974 7965 7964 7962 ] final   -0.06 input  175.53 | X-H torsion
[ 8008 7997 7996 7995 ] final   46.32 input   59.86 | X-H torsion
[ 10167 10162 10161 10158 ] final  -45.44 input  -65.29 | X-H torsion
[ 10718 10713 10712 10709 ] final   -8.67 input   66.30 | X-H torsion
[ 10763 10752 10751 10750 ] final  -51.25 input  -60.55 | X-H torsion
[ 11005 11000 10999 10996 ] final -109.84 input  -57.11 | X-H torsion

> <Gold.Protein.ActiveResidues>
 VAL166  LYS551  ARG553  GLY616  TRP617  ASP618  TYR619  PRO620  LYS621  CYS622 
 ASP623  PHE694  ASN695  SER759  ASP760  ASP761  ALA762  ILE779  LEU786  VAL792 
 PHE793  MET794  SER795  GLU796  ALA797  LYS798  CYS799  TRP800  GLU811  SER814 

> <Gold.Protein.RotatedAtoms>
  150.8484  134.7801  159.6988 H   0  0  0  0  0  0  0  0  0  0  0  0  # atno 6907 bound_to 6896
  152.4555  134.5297  159.9817 H   0  0  0  0  0  0  0  0  0  0  0  0  # atno 6908 bound_to 6896
  151.5423  133.3393  159.2973 H   0  0  0  0  0  0  0  0  0  0  0  0  # atno 6909 bound_to 6896
  146.2430  140.1212  142.8340 H   0  0  0  0  0  0  0  0  0  0  0  0  # atno 7974 bound_to 7965
  155.3505  140.3413  155.4239 H   0  0  0  0  0  0  0  0  0  0  0  0  # atno 8008 bound_to 7997
  156.1766  140.1649  156.8386 H   0  0  0  0  0  0  0  0  0  0  0  0  # atno 8009 bound_to 7997
  154.5289  140.0750  156.8291 H   0  0  0  0  0  0  0  0  0  0  0  0  # atno 8010 bound_to 7997
  140.6858  143.2879  151.3640 H   0  0  0  0  0  0  0  0  0  0  0  0  # atno 10167 bound_to 10162
  156.6992  130.5088  149.5922 H   0  0  0  0  0  0  0  0  0  0  0  0  # atno 10718 bound_to 10713
  154.1235  135.6531  153.4908 H   0  0  0  0  0  0  0  0  0  0  0  0  # atno 10763 bound_to 10752
  153.0217  135.5276  154.7073 H   0  0  0  0  0  0  0  0  0  0  0  0  # atno 10764 bound_to 10752
  154.6287  135.2973  155.0212 H   0  0  0  0  0  0  0  0  0  0  0  0  # atno 10765 bound_to 10752
  141.0825  133.9195  157.2257 H   0  0  0  0  0  0  0  0  0  0  0  0  # atno 11005 bound_to 11000
  145.0405  140.8941  143.5055 LP  0  0  0  0  0  0  0  0  0  0  0  0  # atno 17320 bound_to 7965
  145.1292  139.2643  143.5548 LP  0  0  0  0  0  0  0  0  0  0  0  0  # atno 17321 bound_to 7965
  139.6215  144.0898  152.2395 LP  0  0  0  0  0  0  0  0  0  0  0  0  # atno 17342 bound_to 10162
  140.0344  144.6056  150.7462 LP  0  0  0  0  0  0  0  0  0  0  0  0  # atno 17343 bound_to 10162
  156.1741  130.6456  151.0873 LP  0  0  0  0  0  0  0  0  0  0  0  0  # atno 17370 bound_to 10713
  157.6980  131.0787  150.6910 LP  0  0  0  0  0  0  0  0  0  0  0  0  # atno 17371 bound_to 10713
  139.9640  135.0147  156.9338 LP  0  0  0  0  0  0  0  0  0  0  0  0  # atno 17394 bound_to 11000
  140.5436  134.0696  155.7348 LP  0  0  0  0  0  0  0  0  0  0  0  0  # atno 17395 bound_to 11000

$$$$
