AV-unprocessed.smi:2597|AV-procd|sdf|10174|dock10
  -GOLD-   2272014193D 1   1.00000     0.00000
 Structure written by MMmdl.
 30 31  0  0  0  0  0  0  0  0  1 V2000
  150.2223  145.2919  158.2278 N   0  0  0  0  0  0  0  0  0  0  0  0
  151.3439  144.8921  159.0596 C   0  0  1  0  0  0  0  0  0  0  0  0
  150.8416  144.3963  160.4318 C   0  0  0  0  0  0  0  0  0  0  0  0
  152.0119  143.9430  161.3195 C   0  0  0  0  0  0  0  0  0  0  0  0
  152.8856  142.8907  160.6178 C   0  0  0  0  0  0  0  0  0  0  0  0
  153.4027  143.4085  159.2632 C   0  0  0  0  0  0  0  0  0  0  0  0
  152.2715  143.8834  158.3245 C   0  0  1  0  0  0  0  0  0  0  0  0
  151.5919  142.7557  157.6813 N   0  0  0  0  0  0  0  0  0  0  0  0
  150.8470  142.7859  156.5194 C   0  0  0  0  0  0  0  0  0  0  0  0
  150.4716  141.4842  156.3337 C   0  0  0  0  0  0  0  0  0  0  0  0
  149.6499  140.8519  155.2470 C   0  0  0  0  0  0  0  0  0  0  0  0
  150.4870  139.9695  154.5280 O   0  0  0  0  0  0  0  0  0  0  0  0
  151.0084  140.7210  157.3677 N   0  0  0  0  0  0  0  0  0  0  0  0
  151.6824  141.4907  158.1621 N   0  0  0  0  0  0  0  0  0  0  0  0
  151.9280  145.7955  159.2394 H   0  0  0  0  0  0  0  0  0  0  0  0
  152.7495  144.4347  157.5132 H   0  0  0  0  0  0  0  0  0  0  0  0
  150.2887  144.8438  157.3252 H   0  0  0  0  0  0  0  0  0  0  0  0
  149.3573  144.9790  158.6449 H   0  0  0  0  0  0  0  0  0  0  0  0
  150.2982  145.1961  160.9362 H   0  0  0  0  0  0  0  0  0  0  0  0
  150.1285  143.5804  160.3200 H   0  0  0  0  0  0  0  0  0  0  0  0
  152.6251  144.8071  161.5777 H   0  0  0  0  0  0  0  0  0  0  0  0
  151.6311  143.5435  162.2598 H   0  0  0  0  0  0  0  0  0  0  0  0
  153.7305  142.6322  161.2566 H   0  0  0  0  0  0  0  0  0  0  0  0
  152.3197  141.9695  160.4811 H   0  0  0  0  0  0  0  0  0  0  0  0
  154.0797  144.2434  159.4473 H   0  0  0  0  0  0  0  0  0  0  0  0
  154.0019  142.6403  158.7727 H   0  0  0  0  0  0  0  0  0  0  0  0
  150.6574  143.6860  155.9537 H   0  0  0  0  0  0  0  0  0  0  0  0
  148.8080  140.2985  155.6630 H   0  0  0  0  0  0  0  0  0  0  0  0
  149.2499  141.6034  154.5658 H   0  0  0  0  0  0  0  0  0  0  0  0
  150.1038  139.1061  154.5544 H   0  0  0  0  0  0  0  0  0  0  0  0
  1  2  1  0  0  0  0
  1 17  1  0  0  0  0
  1 18  1  0  0  0  0
  2 15  1  0  0  0  0
  2  7  1  0  0  0  0
  2  3  1  0  0  0  0
  3  4  1  0  0  0  0
  3 19  1  0  0  0  0
  3 20  1  0  0  0  0
  4  5  1  0  0  0  0
  4 21  1  0  0  0  0
  4 22  1  0  0  0  0
  5  6  1  0  0  0  0
  5 23  1  0  0  0  0
  5 24  1  0  0  0  0
  6  7  1  0  0  0  0
  6 25  1  0  0  0  0
  6 26  1  0  0  0  0
  7 16  1  0  0  0  0
  7  8  1  0  0  0  0
  8 14  1  0  0  0  0
  8  9  1  0  0  0  0
  9 10  2  0  0  0  0
  9 27  1  0  0  0  0
 10 11  1  0  0  0  0
 10 13  1  0  0  0  0
 11 12  1  0  0  0  0
 11 28  1  0  0  0  0
 11 29  1  0  0  0  0
 12 30  1  0  0  0  0
 13 14  2  0  0  0  0
M  END
> <s_m_source_file>
AV-unprocessed.smi

> <i_m_source_file_index>
2597

> <i_lp_mmshare_version>
43012

> <i_f3d_flags>
0

> <s_epik_input>
W05IMl1bQ0BIXTFbQ0gyXVtDSDJdW0NIMl1bQ0gyXVtDQEhdMW4yW2NIXWMobm4yKVtDSDJdW09IXQ==

> <s_epik_cmdline>
J2VwaWtfcHl0aG9uJywgJy1waCcsICc3LjAnLCAnLXRuJywgJzgnLCAnLW1hJywgJzIwMCcsICctbWV0YWxfYmluZGluZycsICctaW1hZScsICc8aW5maWxlLm1hZT4nLCAnLW9tYWUnLCAnPG91dGZpbGUubWFlPic=

> <r_lp_tautomer_probability>
1

> <r_epik_Ionization_Penalty>
2.21303

> <r_epik_Ionization_Penalty_Charging>
0

> <r_epik_Ionization_Penalty_Neutral>
2.21303

> <r_epik_State_Penalty>
2.3573

> <r_epik_Charging_Adjusted_Penalty>
2.3573

> <i_epik_Tot_Q>
0

> <i_epik_Tot_abs_Q>
0

> <r_epik_Metal_State_Penalty>
2.35724

> <b_epik_Metal_Only>
0

> <s_lp_Force_Field>
OPLS_2005

> <r_lp_Energy>
16.8416

> <b_lp_Chiralities_Consistent>
1

> <s_lp_Variant>
AV-unprocessed.smi:2597-5

> <Gold.Version>
5.8.1

> <Gold.Id.Protein>
6NUR|6NUR_protein|mol2

> <Gold.PLP.Fitness>
39.7055

> <Gold.PLP.PLP>
-33.2234

> <Gold.PLP.part.hbond>
-3.0000

> <Gold.PLP.part.metal>
0.0000

> <Gold.PLP.part.buried>
-1.1518

> <Gold.PLP.part.nonpolar>
-28.8997

> <Gold.PLP.part.repulsive>
0.0060

> <Gold.PLP.ligand.clash>
0.0000

> <Gold.PLP.ligand.torsion>
0.4408

> <Gold.PLP.Chemscore.Hbond>
1.4335

> <Gold.PLP.Chemscore.CHOScore>
1.0000

> <Gold.PLP.Chemscore.Metal>
0.0000

> <Gold.Chemscore.Hbonds>
donor molecule, donor type, donor heavy atom, donor atom, acceptor molecule, acceptor atom, score
      L1  H     1    17       P1  8028  0.42
      P1  H  7989  7998       L1    12  1.00
      L1  C     9    27       P1  8028  1.00

> <Gold.PLP.Chemscore.Internal.Correction>
0.0631

> <Gold.Rescore>
     Score         DG    S(hbond)    S(metal)    S(lipo)     H(rot)  DE(clash)    DE(int)     intcor
     13.23     -15.62       1.01        0.00      97.61       1.82       0.74       1.66       ----

> <Gold.Chemscore.Fitness>
13.2275

> <Gold.Chemscore.DG>
-15.6188

> <Gold.Chemscore.ZeroCoef>
-5.4800

> <Gold.Chemscore.Hbond>
1.0129

> <Gold.Chemscore.Metal>
0.0000

> <Gold.Chemscore.Lipo>
97.6133

> <Gold.Chemscore.Internal_Hbond>
0.0000

> <Gold.Chemscore.DEClash>
0.7360

> <Gold.Chemscore.DEInternal>
1.6553

> <Gold.Chemscore.Rot>
1.8222

> <Gold.Chemscore.Internal.Correction>
   9.000000E+99

> <Gold.Chemscore.Hbonds>
donor molecule, donor type, donor heavy atom, donor atom, acceptor molecule, acceptor atom, score
      L1  H     1    17       P1  8028  0.10
      L1  H     1    18       P1  8029  0.02
      P1  H  7989  7998       L1    12  0.78

> <Gold.Chemscore.Hbond.Weighted>
-3.3830

> <Gold.Chemscore.Metal.Weighted>
-0.0000

> <Gold.Chemscore.Lipo.Weighted>
-11.4208

> <Gold.Chemscore.Internal_Hbond.Weighted>
0.0000

> <Gold.Chemscore.DEClash.Weighted>
0.7360

> <Gold.Chemscore.DEInternal.Weighted>
1.6553

> <Gold.Chemscore.Rot.Weighted>
4.6649

> <Gold.Chemscore.Internal.Correction.Weighted>
   9.000000E+99

> <Gold.Protein.RotatedTorsions>
[ 6907 6896 6895 6894 ] final -123.74 input  -60.11 | X-H torsion
[ 7974 7965 7964 7962 ] final   72.76 input  175.53 | X-H torsion
[ 8008 7997 7996 7995 ] final   49.72 input   59.86 | X-H torsion
[ 10167 10162 10161 10158 ] final  -41.87 input  -65.29 | X-H torsion
[ 10718 10713 10712 10709 ] final   70.55 input   66.30 | X-H torsion
[ 10763 10752 10751 10750 ] final   21.15 input  -60.55 | X-H torsion
[ 11005 11000 10999 10996 ] final -140.27 input  -57.11 | X-H torsion

> <Gold.Protein.ActiveResidues>
 VAL166  LYS551  ARG553  GLY616  TRP617  ASP618  TYR619  PRO620  LYS621  CYS622 
 ASP623  PHE694  ASN695  SER759  ASP760  ASP761  ALA762  ILE779  LEU786  VAL792 
 PHE793  MET794  SER795  GLU796  ALA797  LYS798  CYS799  TRP800  GLU811  SER814 

> <Gold.Protein.RotatedAtoms>
  150.8700  133.7519  159.2964 H   0  0  0  0  0  0  0  0  0  0  0  0  # atno 6907 bound_to 6896
  151.5134  135.1064  159.9869 H   0  0  0  0  0  0  0  0  0  0  0  0  # atno 6908 bound_to 6896
  152.4688  133.7939  159.6972 H   0  0  0  0  0  0  0  0  0  0  0  0  # atno 6909 bound_to 6896
  145.7493  139.2753  143.1440 H   0  0  0  0  0  0  0  0  0  0  0  0  # atno 7974 bound_to 7965
  155.4069  140.3440  155.4261 H   0  0  0  0  0  0  0  0  0  0  0  0  # atno 8008 bound_to 7997
  156.1471  140.1559  156.8861 H   0  0  0  0  0  0  0  0  0  0  0  0  # atno 8009 bound_to 7997
  154.5020  140.0812  156.7798 H   0  0  0  0  0  0  0  0  0  0  0  0  # atno 8010 bound_to 7997
  140.6988  143.3070  151.3128 H   0  0  0  0  0  0  0  0  0  0  0  0  # atno 10167 bound_to 10162
  157.6406  130.9483  150.0667 H   0  0  0  0  0  0  0  0  0  0  0  0  # atno 10718 bound_to 10713
  153.1019  135.6675  153.9657 H   0  0  0  0  0  0  0  0  0  0  0  0  # atno 10763 bound_to 10752
  153.9225  135.3013  155.3449 H   0  0  0  0  0  0  0  0  0  0  0  0  # atno 10764 bound_to 10752
  154.7440  135.5066  153.9247 H   0  0  0  0  0  0  0  0  0  0  0  0  # atno 10765 bound_to 10752
  140.8438  134.2369  157.4796 H   0  0  0  0  0  0  0  0  0  0  0  0  # atno 11005 bound_to 11000
  146.0372  140.8201  142.9847 LP  0  0  0  0  0  0  0  0  0  0  0  0  # atno 17320 bound_to 7965
  144.6853  140.2856  143.7285 LP  0  0  0  0  0  0  0  0  0  0  0  0  # atno 17321 bound_to 7965
  139.6479  144.0417  152.2604 LP  0  0  0  0  0  0  0  0  0  0  0  0  # atno 17342 bound_to 10162
  139.9943  144.6339  150.7786 LP  0  0  0  0  0  0  0  0  0  0  0  0  # atno 17343 bound_to 10162
  156.1683  130.3645  149.9201 LP  0  0  0  0  0  0  0  0  0  0  0  0  # atno 17370 bound_to 10713
  156.7182  130.8996  151.3616 LP  0  0  0  0  0  0  0  0  0  0  0  0  # atno 17371 bound_to 10713
  139.8703  134.9649  156.4511 LP  0  0  0  0  0  0  0  0  0  0  0  0  # atno 17394 bound_to 11000
  140.8865  133.7879  155.9524 LP  0  0  0  0  0  0  0  0  0  0  0  0  # atno 17395 bound_to 11000

$$$$
