AV-unprocessed.smi:72|AV-procd|sdf|695|dock9
  -GOLD-   2262017 13D 1   1.00000     0.00000
 Structure written by MMmdl.
 30 31  0  0  0  0  0  0  0  0  2 V2000
  149.6879  134.5249  156.7142 N   0  0  0  0  0  0  0  0  0  0  0  0
  150.0285  135.7740  156.2383 C   0  0  0  0  0  0  0  0  0  0  0  0
  149.0124  136.5720  155.7424 N   0  3  0  0  0  0  0  0  0  0  0  0
  149.1738  137.8091  155.2529 C   0  0  0  0  0  0  0  0  0  0  0  0
  150.3797  138.3391  155.2406 N   0  0  0  0  0  0  0  0  0  0  0  0
  150.6118  139.7244  154.7043 C   0  0  2  0  0  0  0  0  0  0  0  0
  151.3177  140.4429  155.6707 O   0  0  0  0  0  0  0  0  0  0  0  0
  150.7011  141.7080  155.8894 C   0  0  2  0  0  0  0  0  0  0  0  0
  151.0074  142.1973  157.3133 C   0  0  0  0  0  0  0  0  0  0  0  0
  150.4861  143.4952  157.5007 O   0  0  0  0  0  0  0  0  0  0  0  0
  149.2234  141.3988  155.6506 C   0  0  1  0  0  0  0  0  0  0  0  0
  148.4465  142.5543  155.4000 O   0  0  0  0  0  0  0  0  0  0  0  0
  149.2695  140.4348  154.4706 C   0  0  1  0  0  0  0  0  0  0  0  0
  149.2617  141.0985  153.2203 O   0  0  0  0  0  0  0  0  0  0  0  0
  151.4903  137.5858  155.6982 C   0  0  0  0  0  0  0  0  0  0  0  0
  152.6262  138.0560  155.6457 O   0  0  0  0  0  0  0  0  0  0  0  0
  151.2207  136.3017  156.1938 N   0  0  0  0  0  0  0  0  0  0  0  0
  151.2274  139.6128  153.8097 H   0  0  0  0  0  0  0  0  0  0  0  0
  151.0549  142.4182  155.1389 H   0  0  0  0  0  0  0  0  0  0  0  0
  148.8144  140.8794  156.5185 H   0  0  0  0  0  0  0  0  0  0  0  0
  148.4359  139.7313  154.4916 H   0  0  0  0  0  0  0  0  0  0  0  0
  150.3627  133.8732  157.0898 H   0  0  0  0  0  0  0  0  0  0  0  0
  148.7454  134.1624  156.7259 H   0  0  0  0  0  0  0  0  0  0  0  0
  148.3160  138.3490  154.8718 H   0  0  0  0  0  0  0  0  0  0  0  0
  150.5305  141.5454  158.0457 H   0  0  0  0  0  0  0  0  0  0  0  0
  152.0784  142.1845  157.5171 H   0  0  0  0  0  0  0  0  0  0  0  0
  149.9737  143.7275  156.7413 H   0  0  0  0  0  0  0  0  0  0  0  0
  149.0276  143.2767  155.2175 H   0  0  0  0  0  0  0  0  0  0  0  0
  148.9673  140.4932  152.5563 H   0  0  0  0  0  0  0  0  0  0  0  0
  148.0778  136.1889  155.7521 H   0  0  0  0  0  0  0  0  0  0  0  0
  1  2  1  0  0  0  0
  1 22  1  0  0  0  0
  1 23  1  0  0  0  0
  2 17  2  0  0  0  0
  2  3  1  0  0  0  0
  3  4  2  0  0  0  0
  3 30  1  0  0  0  0
  4  5  1  0  0  0  0
  4 24  1  0  0  0  0
  5  6  1  0  0  0  0
  5 15  1  0  0  0  0
  6 18  1  0  0  0  0
  6 13  1  0  0  0  0
  6  7  1  0  0  0  0
  7  8  1  0  0  0  0
  8 19  1  0  0  0  0
  8  9  1  0  0  0  0
  8 11  1  0  0  0  0
  9 10  1  0  0  0  0
  9 25  1  0  0  0  0
  9 26  1  0  0  0  0
 10 27  1  0  0  0  0
 11 20  1  0  0  0  0
 11 12  1  0  0  0  0
 11 13  1  0  0  0  0
 12 28  1  0  0  0  0
 13 21  1  0  0  0  0
 13 14  1  0  0  0  0
 14 29  1  0  0  0  0
 15 16  2  0  0  0  0
 15 17  1  0  0  0  0
M  CHG  1   3   1
M  END
> <s_m_source_file>
AV-unprocessed.smi

> <i_m_source_file_index>
72

> <i_lp_mmshare_version>
43012

> <i_f3d_flags>
0

> <s_epik_input>
W05IMl1jMW5bY0hdbihjKD1PKW4xKVtDQEBIXTJPW0NASF0oW0NIMl1bT0hdKVtDQEBIXShbT0hdKVtDQEhdMltPSF0=

> <s_epik_cmdline>
J2VwaWtfcHl0aG9uJywgJy1waCcsICc3LjAnLCAnLXRuJywgJzgnLCAnLW1hJywgJzIwMCcsICctbWV0YWxfYmluZGluZycsICctaW1hZScsICc8aW5maWxlLm1hZT4nLCAnLW9tYWUnLCAnPG91dGZpbGUubWFlPic=

> <r_lp_tautomer_probability>
4.77166e-05

> <r_epik_Ionization_Penalty>
0.104979

> <r_epik_Ionization_Penalty_Charging>
0.0999619

> <r_epik_Ionization_Penalty_Neutral>
0.00501745

> <r_epik_State_Penalty>
2.51541

> <r_epik_Charging_Adjusted_Penalty>
2.61537

> <i_epik_Tot_Q>
1

> <i_epik_Tot_abs_Q>
1

> <r_epik_Metal_State_Penalty>
3.53763

> <b_epik_Metal_Only>
0

> <s_epik_Chemistry_Notes>
This compound contains an acetal/aminal-like group ( X-CH(R)-Y where X, Y are N, S, or O) that may be acid/base labile, releasing an aldehyde.

> <s_lp_Force_Field>
OPLS_2005

> <r_lp_Energy>
34.3488

> <b_lp_Chiralities_Consistent>
1

> <s_lp_Variant>
AV-unprocessed.smi:72-33

> <Gold.Version>
5.8.1

> <Gold.Id.Protein>
6NUR|6NUR_protein|mol2

> <Gold.PLP.Fitness>
43.4997

> <Gold.PLP.PLP>
-27.2820

> <Gold.PLP.part.hbond>
-7.2762

> <Gold.PLP.part.metal>
0.0000

> <Gold.PLP.part.buried>
-1.8859

> <Gold.PLP.part.nonpolar>
-17.8545

> <Gold.PLP.part.repulsive>
0.2146

> <Gold.PLP.ligand.clash>
0.3120

> <Gold.PLP.ligand.torsion>
0.1758

> <Gold.PLP.Chemscore.Hbond>
5.6208

> <Gold.PLP.Chemscore.CHOScore>
0.0000

> <Gold.PLP.Chemscore.Metal>
0.0000

> <Gold.Chemscore.Hbonds>
donor molecule, donor type, donor heavy atom, donor atom, acceptor molecule, acceptor atom, score
      L1  H    10    27       P1  8028  1.00
      L1  H    12    28       P1  8028  0.53
      L1  H    14    29       P1  7957  0.64
      P1  H  8011  8017       L1    14  1.00
      P1  H 10752 10763       L1    17  0.07

> <Gold.PLP.Chemscore.Internal.Correction>
0.0190

> <Gold.Rescore>
     Score         DG    S(hbond)    S(metal)    S(lipo)     H(rot)  DE(clash)    DE(int)     intcor
      8.56     -11.52       3.89        0.00      29.90       4.08       1.55       1.42       ----

> <Gold.Chemscore.Fitness>
8.5558

> <Gold.Chemscore.DG>
-11.5185

> <Gold.Chemscore.ZeroCoef>
-5.4800

> <Gold.Chemscore.Hbond>
3.8866

> <Gold.Chemscore.Metal>
0.0000

> <Gold.Chemscore.Lipo>
29.8960

> <Gold.Chemscore.Internal_Hbond>
0.0000

> <Gold.Chemscore.DEClash>
1.5460

> <Gold.Chemscore.DEInternal>
1.4167

> <Gold.Chemscore.Rot>
4.0783

> <Gold.Chemscore.Internal.Correction>
   9.000000E+99

> <Gold.Chemscore.Hbonds>
donor molecule, donor type, donor heavy atom, donor atom, acceptor molecule, acceptor atom, score
      L1  H    10    27       P1  8028  0.99
      L1  H    12    28       P1  8028  0.50
      L1  H    14    29       P1  7957  0.63
      P1  H  8011  8017       L1    14  0.39

> <Gold.Chemscore.Hbond.Weighted>
-12.9811

> <Gold.Chemscore.Metal.Weighted>
-0.0000

> <Gold.Chemscore.Lipo.Weighted>
-3.4978

> <Gold.Chemscore.Internal_Hbond.Weighted>
0.0000

> <Gold.Chemscore.DEClash.Weighted>
1.5460

> <Gold.Chemscore.DEInternal.Weighted>
1.4167

> <Gold.Chemscore.Rot.Weighted>
10.4404

> <Gold.Chemscore.Internal.Correction.Weighted>
   9.000000E+99

> <Gold.Protein.RotatedTorsions>
[ 6907 6896 6895 6894 ] final   99.10 input  -60.11 | X-H torsion
[ 7974 7965 7964 7962 ] final  -88.88 input  175.53 | X-H torsion
[ 8008 7997 7996 7995 ] final  -27.22 input   59.86 | X-H torsion
[ 10167 10162 10161 10158 ] final -164.94 input  -65.29 | X-H torsion
[ 10718 10713 10712 10709 ] final -172.41 input   66.30 | X-H torsion
[ 10763 10752 10751 10750 ] final   86.58 input  -60.55 | X-H torsion
[ 11005 11000 10999 10996 ] final  175.95 input  -57.11 | X-H torsion

> <Gold.Protein.ActiveResidues>
 VAL166  LYS551  ARG553  GLY616  TRP617  ASP618  TYR619  PRO620  LYS621  CYS622 
 ASP623  PHE694  ASN695  SER759  ASP760  ASP761  ALA762  ILE779  LEU786  VAL792 
 PHE793  MET794  SER795  GLU796  ALA797  LYS798  CYS799  TRP800  GLU811  SER814 

> <Gold.Protein.RotatedAtoms>
  152.5398  134.0479  159.8096 H   0  0  0  0  0  0  0  0  0  0  0  0  # atno 6907 bound_to 6896
  151.0625  133.5524  159.2640 H   0  0  0  0  0  0  0  0  0  0  0  0  # atno 6908 bound_to 6896
  151.2418  135.0599  159.9082 H   0  0  0  0  0  0  0  0  0  0  0  0  # atno 6909 bound_to 6896
  145.4473  140.9560  143.2042 H   0  0  0  0  0  0  0  0  0  0  0  0  # atno 7974 bound_to 7965
  154.4388  140.1878  156.0897 H   0  0  0  0  0  0  0  0  0  0  0  0  # atno 8008 bound_to 7997
  156.0375  140.3323  155.7181 H   0  0  0  0  0  0  0  0  0  0  0  0  # atno 8009 bound_to 7997
  155.5749  140.0616  157.2788 H   0  0  0  0  0  0  0  0  0  0  0  0  # atno 8010 bound_to 7997
  139.6216  144.0614  152.1937 H   0  0  0  0  0  0  0  0  0  0  0  0  # atno 10167 bound_to 10162
  156.7551  130.9392  151.3116 H   0  0  0  0  0  0  0  0  0  0  0  0  # atno 10718 bound_to 10713
  153.1585  135.4575  154.9738 H   0  0  0  0  0  0  0  0  0  0  0  0  # atno 10763 bound_to 10752
  154.7879  135.3210  154.7846 H   0  0  0  0  0  0  0  0  0  0  0  0  # atno 10764 bound_to 10752
  153.8340  135.6936  153.4865 H   0  0  0  0  0  0  0  0  0  0  0  0  # atno 10765 bound_to 10752
  140.3677  134.7057  157.4372 H   0  0  0  0  0  0  0  0  0  0  0  0  # atno 11005 bound_to 11000
  144.8083  139.6009  143.7041 LP  0  0  0  0  0  0  0  0  0  0  0  0  # atno 17320 bound_to 7965
  146.2523  139.6227  142.9418 LP  0  0  0  0  0  0  0  0  0  0  0  0  # atno 17321 bound_to 7965
  140.0257  144.6119  150.7529 LP  0  0  0  0  0  0  0  0  0  0  0  0  # atno 17342 bound_to 10162
  140.7385  143.2779  151.3686 LP  0  0  0  0  0  0  0  0  0  0  0  0  # atno 17343 bound_to 10162
  157.6760  130.9094  150.0151 LP  0  0  0  0  0  0  0  0  0  0  0  0  # atno 17370 bound_to 10713
  156.1376  130.3642  149.9633 LP  0  0  0  0  0  0  0  0  0  0  0  0  # atno 17371 bound_to 10713
  140.0576  134.6041  155.8787 LP  0  0  0  0  0  0  0  0  0  0  0  0  # atno 17394 bound_to 11000
  141.1964  133.6591  156.5691 LP  0  0  0  0  0  0  0  0  0  0  0  0  # atno 17395 bound_to 11000

$$$$
