AV-unprocessed.smi:1295|AV-procd|sdf|5412|dock9
  -GOLD-   22720 4573D 1   1.00000     0.00000
 Structure written by MMmdl.
 42 43  0  0  0  0  0  0  0  0  2 V2000
  147.5581  136.0142  160.6297 C   0  0  0  0  0  0  0  0  0  0  0  0
  148.3112  136.8347  159.6049 C   0  0  0  0  0  0  0  0  0  0  0  0
  147.6980  137.7613  158.9726 N   0  0  0  0  0  0  0  0  0  0  0  0
  148.3926  138.5224  158.0169 C   0  0  0  0  0  0  0  0  0  0  0  0
  147.5863  139.6018  157.3151 C   0  0  0  0  0  0  0  0  0  0  0  0
  149.7096  138.2886  157.7500 C   0  0  0  0  0  0  0  0  0  0  0  0
  150.5067  139.0881  156.7200 C   0  0  0  0  0  0  0  0  0  0  0  0
  151.5418  140.0586  157.2926 C   0  0  0  0  0  0  0  0  0  0  0  0
  152.7257  139.7303  157.3699 O   0  0  0  0  0  0  0  0  0  0  0  0
  151.0762  141.2543  157.6864 N   0  0  0  0  0  0  0  0  0  0  0  0
  151.8762  142.3554  158.2202 C   0  0  1  0  0  0  0  0  0  0  0  0
  151.0918  143.6681  158.0267 C   0  0  0  0  0  0  0  0  0  0  0  0
  151.8353  144.8710  158.6246 C   0  0  0  0  0  0  0  0  0  0  0  0
  152.1531  144.6380  160.1075 C   0  0  0  0  0  0  0  0  0  0  0  0
  152.9551  143.3427  160.3000 C   0  0  0  0  0  0  0  0  0  0  0  0
  152.2234  142.1184  159.7131 C   0  0  2  0  0  0  0  0  0  0  0  0
  153.0530  140.8413  159.9366 C   0  0  0  0  0  0  0  0  0  0  0  0
  150.3788  137.2102  158.4995 C   0  0  0  0  0  0  0  0  0  0  0  0
  151.5631  136.9500  158.2908 O   0  0  0  0  0  0  0  0  0  0  0  0
  149.6390  136.5240  159.4165 N   0  5  0  0  0  0  0  0  0  0  0  0
  146.4848  136.1994  160.5698 H   0  0  0  0  0  0  0  0  0  0  0  0
  147.8954  136.2674  161.6349 H   0  0  0  0  0  0  0  0  0  0  0  0
  147.7287  134.9496  160.4650 H   0  0  0  0  0  0  0  0  0  0  0  0
  148.0021  140.5874  157.5249 H   0  0  0  0  0  0  0  0  0  0  0  0
  146.5480  139.5986  157.6490 H   0  0  0  0  0  0  0  0  0  0  0  0
  147.5898  139.4444  156.2364 H   0  0  0  0  0  0  0  0  0  0  0  0
  151.0111  138.3817  156.0599 H   0  0  0  0  0  0  0  0  0  0  0  0
  149.8424  139.6502  156.0634 H   0  0  0  0  0  0  0  0  0  0  0  0
  150.0862  141.4246  157.5866 H   0  0  0  0  0  0  0  0  0  0  0  0
  152.8101  142.4449  157.6619 H   0  0  0  0  0  0  0  0  0  0  0  0
  150.9129  143.8410  156.9645 H   0  0  0  0  0  0  0  0  0  0  0  0
  150.1097  143.5848  158.4946 H   0  0  0  0  0  0  0  0  0  0  0  0
  152.7608  145.0414  158.0731 H   0  0  0  0  0  0  0  0  0  0  0  0
  151.2346  145.7736  158.5101 H   0  0  0  0  0  0  0  0  0  0  0  0
  152.7133  145.4848  160.5051 H   0  0  0  0  0  0  0  0  0  0  0  0
  151.2255  144.5842  160.6789 H   0  0  0  0  0  0  0  0  0  0  0  0
  153.9320  143.4487  159.8260 H   0  0  0  0  0  0  0  0  0  0  0  0
  153.1447  143.1894  161.3629 H   0  0  0  0  0  0  0  0  0  0  0  0
  151.2882  142.0005  160.2630 H   0  0  0  0  0  0  0  0  0  0  0  0
  153.9854  140.8726  159.3721 H   0  0  0  0  0  0  0  0  0  0  0  0
  152.5090  139.9476  159.6307 H   0  0  0  0  0  0  0  0  0  0  0  0
  153.3063  140.7175  160.9898 H   0  0  0  0  0  0  0  0  0  0  0  0
  1  2  1  0  0  0  0
  1 21  1  0  0  0  0
  1 22  1  0  0  0  0
  1 23  1  0  0  0  0
  2 20  1  0  0  0  0
  2  3  2  0  0  0  0
  3  4  1  0  0  0  0
  4  5  1  0  0  0  0
  4  6  2  0  0  0  0
  5 24  1  0  0  0  0
  5 25  1  0  0  0  0
  5 26  1  0  0  0  0
  6  7  1  0  0  0  0
  6 18  1  0  0  0  0
  7  8  1  0  0  0  0
  7 27  1  0  0  0  0
  7 28  1  0  0  0  0
  8  9  2  0  0  0  0
  8 10  1  0  0  0  0
 10 11  1  0  0  0  0
 10 29  1  0  0  0  0
 11 16  1  0  0  0  0
 11 12  1  0  0  0  0
 11 30  1  0  0  0  0
 12 13  1  0  0  0  0
 12 31  1  0  0  0  0
 12 32  1  0  0  0  0
 13 14  1  0  0  0  0
 13 33  1  0  0  0  0
 13 34  1  0  0  0  0
 14 15  1  0  0  0  0
 14 35  1  0  0  0  0
 14 36  1  0  0  0  0
 15 16  1  0  0  0  0
 15 37  1  0  0  0  0
 15 38  1  0  0  0  0
 16 17  1  0  0  0  0
 16 39  1  0  0  0  0
 17 40  1  0  0  0  0
 17 41  1  0  0  0  0
 17 42  1  0  0  0  0
 18 19  2  0  0  0  0
 18 20  1  0  0  0  0
M  CHG  1  20  -1
M  END
> <s_m_source_file>
AV-unprocessed.smi

> <i_m_source_file_index>
1295

> <i_lp_mmshare_version>
43012

> <i_f3d_flags>
0

> <s_epik_input>
W0NIM11jMW5jKFtDSDNdKWMoYyg9TylbbkhdMSlbQ0gyXUMoPU8pW05IXVtDQEBIXTJbQ0gyXVtDSDJdW0NIMl1bQ0gyXVtDQEhdMltDSDNd

> <s_epik_cmdline>
J2VwaWtfcHl0aG9uJywgJy1waCcsICc3LjAnLCAnLXRuJywgJzgnLCAnLW1hJywgJzIwMCcsICctbWV0YWxfYmluZGluZycsICctaW1hZScsICc8aW5maWxlLm1hZT4nLCAnLW9tYWUnLCAnPG91dGZpbGUubWFlPic=

> <r_lp_tautomer_probability>
0.839158

> <r_epik_Ionization_Penalty>
6.67742

> <r_epik_Ionization_Penalty_Charging>
7.78154e-08

> <r_epik_Ionization_Penalty_Neutral>
6.67742

> <r_epik_State_Penalty>
4.51991

> <r_epik_Charging_Adjusted_Penalty>
4.51991

> <i_epik_Tot_Q>
-1

> <i_epik_Tot_abs_Q>
1

> <r_epik_Metal_State_Penalty>
0.853272

> <b_epik_Metal_Only>
1

> <s_lp_Force_Field>
OPLS_2005

> <r_lp_Energy>
15.3241

> <b_lp_Chiralities_Consistent>
1

> <s_lp_Variant>
AV-unprocessed.smi:1295-12

> <Gold.Version>
5.8.1

> <Gold.Id.Protein>
6NUR|6NUR_protein|mol2

> <Gold.PLP.Fitness>
44.5841

> <Gold.PLP.PLP>
-36.3722

> <Gold.PLP.part.hbond>
-3.3571

> <Gold.PLP.part.metal>
0.0000

> <Gold.PLP.part.buried>
-5.9193

> <Gold.PLP.part.nonpolar>
-27.6425

> <Gold.PLP.part.repulsive>
0.0540

> <Gold.PLP.ligand.clash>
0.0000

> <Gold.PLP.ligand.torsion>
0.7358

> <Gold.PLP.Chemscore.Hbond>
3.2262

> <Gold.PLP.Chemscore.CHOScore>
0.0000

> <Gold.PLP.Chemscore.Metal>
0.0000

> <Gold.Chemscore.Hbonds>
donor molecule, donor type, donor heavy atom, donor atom, acceptor molecule, acceptor atom, score
      P1  H  6896  6907       L1    20  1.79
      P1  H  6934  6947       L1     3  0.07
      P1  H  7997  8008       L1     9  1.00

> <Gold.PLP.Chemscore.Internal.Correction>
0.0050

> <Gold.Rescore>
     Score         DG    S(hbond)    S(metal)    S(lipo)     H(rot)  DE(clash)    DE(int)     intcor
     18.66     -19.50       2.01        0.00      94.12       1.45       0.05       0.78       ----

> <Gold.Chemscore.Fitness>
18.6624

> <Gold.Chemscore.DG>
-19.5009

> <Gold.Chemscore.ZeroCoef>
-5.4800

> <Gold.Chemscore.Hbond>
2.0085

> <Gold.Chemscore.Metal>
0.0000

> <Gold.Chemscore.Lipo>
94.1180

> <Gold.Chemscore.Internal_Hbond>
0.0000

> <Gold.Chemscore.DEClash>
0.0542

> <Gold.Chemscore.DEInternal>
0.7843

> <Gold.Chemscore.Rot>
1.4450

> <Gold.Chemscore.Internal.Correction>
   9.000000E+99

> <Gold.Chemscore.Hbonds>
donor molecule, donor type, donor heavy atom, donor atom, acceptor molecule, acceptor atom, score
      P1  H  6896  6907       L1    20  0.26
      P1  H  6934  6947       L1     3  0.01
      P1  H  7997  8008       L1     9  1.00

> <Gold.Chemscore.Hbond.Weighted>
-6.7083

> <Gold.Chemscore.Metal.Weighted>
-0.0000

> <Gold.Chemscore.Lipo.Weighted>
-11.0118

> <Gold.Chemscore.Internal_Hbond.Weighted>
0.0000

> <Gold.Chemscore.DEClash.Weighted>
0.0542

> <Gold.Chemscore.DEInternal.Weighted>
0.7843

> <Gold.Chemscore.Rot.Weighted>
3.6992

> <Gold.Chemscore.Internal.Correction.Weighted>
   9.000000E+99

> <Gold.Protein.RotatedTorsions>
[ 6907 6896 6895 6894 ] final  -52.75 input  -60.11 | X-H torsion
[ 7974 7965 7964 7962 ] final  152.43 input  175.53 | X-H torsion
[ 8008 7997 7996 7995 ] final  -71.71 input   59.86 | X-H torsion
[ 10167 10162 10161 10158 ] final   61.46 input  -65.29 | X-H torsion
[ 10718 10713 10712 10709 ] final  -67.49 input   66.30 | X-H torsion
[ 10763 10752 10751 10750 ] final -125.92 input  -60.55 | X-H torsion
[ 11005 11000 10999 10996 ] final  -91.64 input  -57.11 | X-H torsion

> <Gold.Protein.ActiveResidues>
 VAL166  LYS551  ARG553  GLY616  TRP617  ASP618  TYR619  PRO620  LYS621  CYS622 
 ASP623  PHE694  ASN695  SER759  ASP760  ASP761  ALA762  ILE779  LEU786  VAL792 
 PHE793  MET794  SER795  GLU796  ALA797  LYS798  CYS799  TRP800  GLU811  SER814 

> <Gold.Protein.RotatedAtoms>
  150.8489  134.7807  159.6992 H   0  0  0  0  0  0  0  0  0  0  0  0  # atno 6907 bound_to 6896
  152.4559  134.5290  159.9815 H   0  0  0  0  0  0  0  0  0  0  0  0  # atno 6908 bound_to 6896
  151.5415  133.3394  159.2972 H   0  0  0  0  0  0  0  0  0  0  0  0  # atno 6909 bound_to 6896
  144.8223  139.6668  143.6095 H   0  0  0  0  0  0  0  0  0  0  0  0  # atno 7974 bound_to 7965
  154.5109  140.0810  156.7987 H   0  0  0  0  0  0  0  0  0  0  0  0  # atno 8008 bound_to 7997
  155.3788  140.3427  155.4228 H   0  0  0  0  0  0  0  0  0  0  0  0  # atno 8009 bound_to 7997
  156.1571  140.1577  156.8661 H   0  0  0  0  0  0  0  0  0  0  0  0  # atno 8010 bound_to 7997
  140.1545  144.4430  150.6741 H   0  0  0  0  0  0  0  0  0  0  0  0  # atno 10167 bound_to 10162
  156.0555  130.4279  150.1861 H   0  0  0  0  0  0  0  0  0  0  0  0  # atno 10718 bound_to 10713
  154.8741  135.4013  154.3347 H   0  0  0  0  0  0  0  0  0  0  0  0  # atno 10763 bound_to 10752
  153.4155  135.7022  153.6335 H   0  0  0  0  0  0  0  0  0  0  0  0  # atno 10764 bound_to 10752
  153.5019  135.3726  155.2514 H   0  0  0  0  0  0  0  0  0  0  0  0  # atno 10765 bound_to 10752
  141.1540  133.7769  156.9908 H   0  0  0  0  0  0  0  0  0  0  0  0  # atno 11005 bound_to 11000
  146.2528  139.6237  142.9415 LP  0  0  0  0  0  0  0  0  0  0  0  0  # atno 17320 bound_to 7965
  145.5078  141.0436  143.2505 LP  0  0  0  0  0  0  0  0  0  0  0  0  # atno 17321 bound_to 7965
  140.6681  143.2275  151.5692 LP  0  0  0  0  0  0  0  0  0  0  0  0  # atno 17342 bound_to 10162
  139.5410  144.2648  152.1350 LP  0  0  0  0  0  0  0  0  0  0  0  0  # atno 17343 bound_to 10162
  156.9938  130.9901  151.3408 LP  0  0  0  0  0  0  0  0  0  0  0  0  # atno 17370 bound_to 10713
  157.5521  130.8189  149.8158 LP  0  0  0  0  0  0  0  0  0  0  0  0  # atno 17371 bound_to 10713
  140.1004  134.9539  157.1914 LP  0  0  0  0  0  0  0  0  0  0  0  0  # atno 17394 bound_to 11000
  140.3326  134.2793  155.7225 LP  0  0  0  0  0  0  0  0  0  0  0  0  # atno 17395 bound_to 11000

$$$$
