AV-unprocessed.smi:2568|AV-procd|sdf|10101|dock1
  -GOLD-   2272014113D 1   1.00000     0.00000
 Structure written by MMmdl.
 23 24  0  0  0  0  0  0  0  0  2 V2000
  151.9551  141.1390  158.9557 C   0  0  0  0  0  0  0  0  0  0  0  0
  151.6994  140.6558  157.5468 C   0  0  0  0  0  0  0  0  0  0  0  0
  152.5370  139.9117  156.8033 N   0  5  0  0  0  0  0  0  0  0  0  0
  151.9954  139.6748  155.6258 N   0  0  0  0  0  0  0  0  0  0  0  0
  150.8056  140.2959  155.6471 C   0  0  0  0  0  0  0  0  0  0  0  0
  149.8054  140.2695  154.5079 C   0  0  1  0  0  0  0  0  0  0  0  0
  149.5000  138.8224  154.0711 C   0  0  0  0  0  0  0  0  0  0  0  0
  148.5279  138.8069  152.9776 N   0  0  0  0  0  0  0  0  0  0  0  0
  147.3154  139.5393  153.3363 C   0  0  0  0  0  0  0  0  0  0  0  0
  147.6686  140.9671  153.7861 C   0  0  0  0  0  0  0  0  0  0  0  0
  148.5835  140.9080  154.8743 O   0  0  0  0  0  0  0  0  0  0  0  0
  150.6056  140.8944  156.8309 N   0  0  0  0  0  0  0  0  0  0  0  0
  152.9068  140.7583  159.3270 H   0  0  0  0  0  0  0  0  0  0  0  0
  151.1626  140.7984  159.6220 H   0  0  0  0  0  0  0  0  0  0  0  0
  151.9848  142.2282  158.9801 H   0  0  0  0  0  0  0  0  0  0  0  0
  150.2516  140.8175  153.6756 H   0  0  0  0  0  0  0  0  0  0  0  0
  150.4184  138.3254  153.7577 H   0  0  0  0  0  0  0  0  0  0  0  0
  149.1122  138.2574  154.9198 H   0  0  0  0  0  0  0  0  0  0  0  0
  148.2912  137.8471  152.7492 H   0  0  0  0  0  0  0  0  0  0  0  0
  146.6328  139.5715  152.4870 H   0  0  0  0  0  0  0  0  0  0  0  0
  146.7923  139.0210  154.1409 H   0  0  0  0  0  0  0  0  0  0  0  0
  148.0948  141.5442  152.9638 H   0  0  0  0  0  0  0  0  0  0  0  0
  146.7694  141.4911  154.1100 H   0  0  0  0  0  0  0  0  0  0  0  0
  1 13  1  0  0  0  0
  1 14  1  0  0  0  0
  1 15  1  0  0  0  0
  1  2  1  0  0  0  0
  2 12  2  0  0  0  0
  2  3  1  0  0  0  0
  3  4  1  0  0  0  0
  4  5  2  0  0  0  0
  5 12  1  0  0  0  0
  5  6  1  0  0  0  0
  6 11  1  0  0  0  0
  6  7  1  0  0  0  0
  6 16  1  0  0  0  0
  7  8  1  0  0  0  0
  7 17  1  0  0  0  0
  7 18  1  0  0  0  0
  8  9  1  0  0  0  0
  8 19  1  0  0  0  0
  9 10  1  0  0  0  0
  9 20  1  0  0  0  0
  9 21  1  0  0  0  0
 10 11  1  0  0  0  0
 10 22  1  0  0  0  0
 10 23  1  0  0  0  0
M  CHG  1   3  -1
M  END
> <s_m_source_file>
AV-unprocessed.smi

> <i_m_source_file_index>
2568

> <i_lp_mmshare_version>
43012

> <i_f3d_flags>
0

> <s_epik_input>
W0NIM11jMW5bbkhdYyhuMSlbQ0BASF0yW0NIMl1bTkhdW0NIMl1bQ0gyXU8y

> <s_epik_cmdline>
J2VwaWtfcHl0aG9uJywgJy1waCcsICc3LjAnLCAnLXRuJywgJzgnLCAnLW1hJywgJzIwMCcsICctbWV0YWxfYmluZGluZycsICctaW1hZScsICc8aW5maWxlLm1hZT4nLCAnLW9tYWUnLCAnPG91dGZpbGUubWFlPic=

> <r_epik_Ionization_Penalty>
17.7898

> <r_epik_Ionization_Penalty_Charging>
16.2165

> <r_epik_Ionization_Penalty_Neutral>
1.5733

> <r_epik_State_Penalty>
6.78491

> <r_epik_Charging_Adjusted_Penalty>
23.0014

> <i_epik_Tot_Q>
-1

> <i_epik_Tot_abs_Q>
1

> <r_epik_Metal_State_Penalty>
3.02615

> <b_epik_Metal_Only>
1

> <s_lp_Force_Field>
OPLS_2005

> <r_lp_Energy>
14.4772

> <b_lp_Chiralities_Consistent>
1

> <s_lp_Variant>
AV-unprocessed.smi:2568-14

> <Gold.Version>
5.8.1

> <Gold.Id.Protein>
6NUR|6NUR_protein|mol2

> <Gold.PLP.Fitness>
29.3457

> <Gold.PLP.PLP>
-21.0000

> <Gold.PLP.part.hbond>
-2.8053

> <Gold.PLP.part.metal>
0.0000

> <Gold.PLP.part.buried>
-1.6763

> <Gold.PLP.part.nonpolar>
-16.0883

> <Gold.PLP.part.repulsive>
0.1444

> <Gold.PLP.ligand.clash>
0.0000

> <Gold.PLP.ligand.torsion>
0.0564

> <Gold.PLP.Chemscore.Hbond>
2.8160

> <Gold.PLP.Chemscore.CHOScore>
0.0000

> <Gold.PLP.Chemscore.Metal>
0.0000

> <Gold.Chemscore.Hbonds>
donor molecule, donor type, donor heavy atom, donor atom, acceptor molecule, acceptor atom, score
      L1  H     8    19       P1  7948  0.85
      P1  H  7997  8008       L1     3  2.00

> <Gold.PLP.Chemscore.Internal.Correction>
0.0105

> <Gold.Rescore>
     Score         DG    S(hbond)    S(metal)    S(lipo)     H(rot)  DE(clash)    DE(int)     intcor
     13.03     -13.23       1.86        0.00      34.97       1.00       0.09       0.11       ----

> <Gold.Chemscore.Fitness>
13.0303

> <Gold.Chemscore.DG>
-13.2316

> <Gold.Chemscore.ZeroCoef>
-5.4800

> <Gold.Chemscore.Hbond>
1.8624

> <Gold.Chemscore.Metal>
0.0000

> <Gold.Chemscore.Lipo>
34.9673

> <Gold.Chemscore.Internal_Hbond>
0.0000

> <Gold.Chemscore.DEClash>
0.0909

> <Gold.Chemscore.DEInternal>
0.1104

> <Gold.Chemscore.Rot>
1.0000

> <Gold.Chemscore.Internal.Correction>
   9.000000E+99

> <Gold.Chemscore.Hbonds>
donor molecule, donor type, donor heavy atom, donor atom, acceptor molecule, acceptor atom, score
      L1  H     8    19       P1  7948  0.82
      P1  H  7997  8008       L1     3  0.25

> <Gold.Chemscore.Hbond.Weighted>
-6.2204

> <Gold.Chemscore.Metal.Weighted>
-0.0000

> <Gold.Chemscore.Lipo.Weighted>
-4.0912

> <Gold.Chemscore.Internal_Hbond.Weighted>
0.0000

> <Gold.Chemscore.DEClash.Weighted>
0.0909

> <Gold.Chemscore.DEInternal.Weighted>
0.1104

> <Gold.Chemscore.Rot.Weighted>
2.5600

> <Gold.Chemscore.Internal.Correction.Weighted>
   9.000000E+99

> <Gold.Protein.RotatedTorsions>
[ 6907 6896 6895 6894 ] final   90.21 input  -60.11 | X-H torsion
[ 7974 7965 7964 7962 ] final -162.88 input  175.53 | X-H torsion
[ 8008 7997 7996 7995 ] final  -39.30 input   59.86 | X-H torsion
[ 10167 10162 10161 10158 ] final -153.82 input  -65.29 | X-H torsion
[ 10718 10713 10712 10709 ] final  125.83 input   66.30 | X-H torsion
[ 10763 10752 10751 10750 ] final    2.30 input  -60.55 | X-H torsion
[ 11005 11000 10999 10996 ] final   -1.43 input  -57.11 | X-H torsion

> <Gold.Protein.ActiveResidues>
 VAL166  LYS551  ARG553  GLY616  TRP617  ASP618  TYR619  PRO620  LYS621  CYS622 
 ASP623  PHE694  ASN695  SER759  ASP760  ASP761  ALA762  ILE779  LEU786  VAL792 
 PHE793  MET794  SER795  GLU796  ALA797  LYS798  CYS799  TRP800  GLU811  SER814 

> <Gold.Protein.RotatedAtoms>
  152.5443  134.1847  159.8649 H   0  0  0  0  0  0  0  0  0  0  0  0  # atno 6907 bound_to 6896
  151.1847  133.4697  159.2602 H   0  0  0  0  0  0  0  0  0  0  0  0  # atno 6908 bound_to 6896
  151.1143  135.0056  159.8564 H   0  0  0  0  0  0  0  0  0  0  0  0  # atno 6909 bound_to 6896
  144.7343  140.3188  143.6174 H   0  0  0  0  0  0  0  0  0  0  0  0  # atno 7974 bound_to 7965
  154.4025  140.1555  156.2841 H   0  0  0  0  0  0  0  0  0  0  0  0  # atno 8008 bound_to 7997
  155.8844  140.3442  155.5889 H   0  0  0  0  0  0  0  0  0  0  0  0  # atno 8009 bound_to 7997
  155.7631  140.0820  157.2136 H   0  0  0  0  0  0  0  0  0  0  0  0  # atno 8010 bound_to 7997
  139.7064  143.9179  152.2450 H   0  0  0  0  0  0  0  0  0  0  0  0  # atno 10167 bound_to 10162
  157.5470  131.1095  150.8765 H   0  0  0  0  0  0  0  0  0  0  0  0  # atno 10718 bound_to 10713
  153.2972  135.6953  153.7237 H   0  0  0  0  0  0  0  0  0  0  0  0  # atno 10763 bound_to 10752
  153.6165  135.3435  155.2997 H   0  0  0  0  0  0  0  0  0  0  0  0  # atno 10764 bound_to 10752
  154.8541  135.4376  154.2073 H   0  0  0  0  0  0  0  0  0  0  0  0  # atno 10765 bound_to 10752
  140.6473  133.9436  155.8360 H   0  0  0  0  0  0  0  0  0  0  0  0  # atno 11005 bound_to 11000
  145.7590  139.1818  143.2278 LP  0  0  0  0  0  0  0  0  0  0  0  0  # atno 17320 bound_to 7965
  146.1001  140.7553  142.9553 LP  0  0  0  0  0  0  0  0  0  0  0  0  # atno 17321 bound_to 7965
  139.9036  144.6898  150.8639 LP  0  0  0  0  0  0  0  0  0  0  0  0  # atno 17342 bound_to 10162
  140.7723  143.3495  151.2042 LP  0  0  0  0  0  0  0  0  0  0  0  0  # atno 17343 bound_to 10162
  156.9301  130.5346  149.5279 LP  0  0  0  0  0  0  0  0  0  0  0  0  # atno 17370 bound_to 10713
  156.0544  130.5608  150.9060 LP  0  0  0  0  0  0  0  0  0  0  0  0  # atno 17371 bound_to 10713
  141.0563  134.0412  157.3718 LP  0  0  0  0  0  0  0  0  0  0  0  0  # atno 17394 bound_to 11000
  139.9058  135.0179  156.7480 LP  0  0  0  0  0  0  0  0  0  0  0  0  # atno 17395 bound_to 11000

$$$$
