AV-unprocessed.smi:672|AV-procd|sdf|3295|dock5
  -GOLD-   22720 0253D 1   1.00000     0.00000
 Structure written by MMmdl.
 35 36  0  0  0  0  0  0  0  0  2 V2000
  148.1374  141.3067  154.0222 C   0  0  0  0  0  0  0  0  0  0  0  0
  149.2067  141.2242  155.1166 C   0  0  0  0  0  0  0  0  0  0  0  0
  150.0931  140.0339  154.9627 C   0  0  0  0  0  0  0  0  0  0  0  0
  151.4158  140.1297  154.8033 N   0  0  0  0  0  0  0  0  0  0  0  0
  152.0157  138.8879  154.6542 N   0  0  0  0  0  0  0  0  0  0  0  0
  151.1380  137.8747  154.6728 C   0  0  0  0  0  0  0  0  0  0  0  0
  151.5120  136.5916  154.5393 N   0  5  0  0  0  0  0  0  0  0  0  0
  150.7031  135.6035  154.9854 C   0  0  0  0  0  0  0  0  0  0  0  0
  150.9119  134.8703  155.9549 O   0  0  0  0  0  0  0  0  0  0  0  0
  149.5854  135.4519  154.2607 N   0  0  0  0  0  0  0  0  0  0  0  0
  148.5278  134.4752  154.5121 C   0  0  2  0  0  0  0  0  0  0  0  0
  148.8835  133.0859  153.9438 C   0  0  0  0  0  0  0  0  0  0  0  0
  147.9534  132.8682  152.7505 C   0  0  0  0  0  0  0  0  0  0  0  0
  146.6892  133.6408  153.1177 C   0  0  2  0  0  0  0  0  0  0  0  0
  145.6527  134.0054  151.6713 S   0  0  0  0  0  0  0  0  0  0  0  0
  145.3737  132.3282  151.0445 C   0  0  0  0  0  0  0  0  0  0  0  0
  147.2182  134.8965  153.8184 C   0  0  0  0  0  0  0  0  0  0  0  0
  149.4697  138.3937  154.9084 S   0  0  0  0  0  0  0  0  0  0  0  0
  147.5060  142.1843  154.1606 H   0  0  0  0  0  0  0  0  0  0  0  0
  147.4932  140.4270  154.0359 H   0  0  0  0  0  0  0  0  0  0  0  0
  148.5908  141.3741  153.0329 H   0  0  0  0  0  0  0  0  0  0  0  0
  149.8207  142.1255  155.1055 H   0  0  0  0  0  0  0  0  0  0  0  0
  148.7327  141.1816  156.0975 H   0  0  0  0  0  0  0  0  0  0  0  0
  149.4571  136.0710  153.4739 H   0  0  0  0  0  0  0  0  0  0  0  0
  148.3575  134.3949  155.5873 H   0  0  0  0  0  0  0  0  0  0  0  0
  149.9329  132.9844  153.6640 H   0  0  0  0  0  0  0  0  0  0  0  0
  148.6814  132.3277  154.7014 H   0  0  0  0  0  0  0  0  0  0  0  0
  148.4068  133.2953  151.8546 H   0  0  0  0  0  0  0  0  0  0  0  0
  147.7607  131.8126  152.5567 H   0  0  0  0  0  0  0  0  0  0  0  0
  146.1100  133.0480  153.8270 H   0  0  0  0  0  0  0  0  0  0  0  0
  144.7900  132.3649  150.1248 H   0  0  0  0  0  0  0  0  0  0  0  0
  144.8269  131.7314  151.7744 H   0  0  0  0  0  0  0  0  0  0  0  0
  146.3233  131.8370  150.8326 H   0  0  0  0  0  0  0  0  0  0  0  0
  146.4956  135.3052  154.5255 H   0  0  0  0  0  0  0  0  0  0  0  0
  147.4141  135.6718  153.0754 H   0  0  0  0  0  0  0  0  0  0  0  0
  1  2  1  0  0  0  0
  1 19  1  0  0  0  0
  1 20  1  0  0  0  0
  1 21  1  0  0  0  0
  2  3  1  0  0  0  0
  2 22  1  0  0  0  0
  2 23  1  0  0  0  0
  3 18  1  0  0  0  0
  3  4  2  0  0  0  0
  4  5  1  0  0  0  0
  5  6  2  0  0  0  0
  6  7  1  0  0  0  0
  6 18  1  0  0  0  0
  7  8  1  0  0  0  0
  8  9  2  0  0  0  0
  8 10  1  0  0  0  0
 10 11  1  0  0  0  0
 10 24  1  0  0  0  0
 11 17  1  0  0  0  0
 11 12  1  0  0  0  0
 11 25  1  0  0  0  0
 12 13  1  0  0  0  0
 12 26  1  0  0  0  0
 12 27  1  0  0  0  0
 13 14  1  0  0  0  0
 13 28  1  0  0  0  0
 13 29  1  0  0  0  0
 14 15  1  0  0  0  0
 14 17  1  0  0  0  0
 14 30  1  0  0  0  0
 15 16  1  0  0  0  0
 16 31  1  0  0  0  0
 16 32  1  0  0  0  0
 16 33  1  0  0  0  0
 17 34  1  0  0  0  0
 17 35  1  0  0  0  0
M  CHG  1   7  -1
M  END
> <s_m_source_file>
AV-unprocessed.smi

> <i_m_source_file_index>
672

> <i_lp_mmshare_version>
43012

> <i_f3d_flags>
0

> <s_epik_input>
W0NIM11bQ0gyXWMxbm5jKHMxKVtOSF1DKD1PKVtOSF1bQ0BASF0yW0NIMl1bQ0gyXVtDQEhdKFtDSDJdMilTW0NIM10=

> <s_epik_cmdline>
J2VwaWtfcHl0aG9uJywgJy1waCcsICc3LjAnLCAnLXRuJywgJzgnLCAnLW1hJywgJzIwMCcsICctbWV0YWxfYmluZGluZycsICctaW1hZScsICc8aW5maWxlLm1hZT4nLCAnLW9tYWUnLCAnPG91dGZpbGUubWFlPic=

> <r_lp_tautomer_probability>
1

> <r_epik_Ionization_Penalty>
4.49964

> <r_epik_Ionization_Penalty_Charging>
4.32991

> <r_epik_Ionization_Penalty_Neutral>
0.169727

> <r_epik_State_Penalty>
4.32952

> <r_epik_Charging_Adjusted_Penalty>
8.65943

> <i_epik_Tot_Q>
-1

> <i_epik_Tot_abs_Q>
1

> <r_epik_Metal_State_Penalty>
0.740482

> <b_epik_Metal_Only>
1

> <s_lp_Force_Field>
OPLS_2005

> <r_lp_Energy>
9.98036

> <b_lp_Chiralities_Consistent>
1

> <s_lp_Variant>
AV-unprocessed.smi:672-7

> <Gold.Version>
5.8.1

> <Gold.Id.Protein>
6NUR|6NUR_protein|mol2

> <Gold.PLP.Fitness>
41.4561

> <Gold.PLP.PLP>
-31.5740

> <Gold.PLP.part.hbond>
-3.1197

> <Gold.PLP.part.metal>
0.0000

> <Gold.PLP.part.buried>
-2.6429

> <Gold.PLP.part.nonpolar>
-25.6883

> <Gold.PLP.part.repulsive>
0.3406

> <Gold.PLP.ligand.clash>
0.0000

> <Gold.PLP.ligand.torsion>
1.0664

> <Gold.PLP.Chemscore.Hbond>
3.9913

> <Gold.PLP.Chemscore.CHOScore>
0.0000

> <Gold.PLP.Chemscore.Metal>
0.0000

> <Gold.Chemscore.Hbonds>
donor molecule, donor type, donor heavy atom, donor atom, acceptor molecule, acceptor atom, score
      L1  H    10    24       P1  7948  0.93
      P1  H  7989  7998       L1     4  0.96
      P1  H 10752 10765       L1     7  1.60

> <Gold.PLP.Chemscore.Internal.Correction>
0.0413

> <Gold.Rescore>
     Score         DG    S(hbond)    S(metal)    S(lipo)     H(rot)  DE(clash)    DE(int)     intcor
     15.61     -17.83       2.59        0.00      61.02       1.34       0.21       2.01       ----

> <Gold.Chemscore.Fitness>
15.6066

> <Gold.Chemscore.DG>
-17.8259

> <Gold.Chemscore.ZeroCoef>
-5.4800

> <Gold.Chemscore.Hbond>
2.5867

> <Gold.Chemscore.Metal>
0.0000

> <Gold.Chemscore.Lipo>
61.0195

> <Gold.Chemscore.Internal_Hbond>
0.0000

> <Gold.Chemscore.DEClash>
0.2070

> <Gold.Chemscore.DEInternal>
2.0123

> <Gold.Chemscore.Rot>
1.3410

> <Gold.Chemscore.Internal.Correction>
   9.000000E+99

> <Gold.Chemscore.Hbonds>
donor molecule, donor type, donor heavy atom, donor atom, acceptor molecule, acceptor atom, score
      L1  H    10    24       P1  7948  0.45
      P1  H  7989  7998       L1     4  0.30
      P1  H 10752 10765       L1     7  0.12

> <Gold.Chemscore.Hbond.Weighted>
-8.6396

> <Gold.Chemscore.Metal.Weighted>
-0.0000

> <Gold.Chemscore.Lipo.Weighted>
-7.1393

> <Gold.Chemscore.Internal_Hbond.Weighted>
0.0000

> <Gold.Chemscore.DEClash.Weighted>
0.2070

> <Gold.Chemscore.DEInternal.Weighted>
2.0123

> <Gold.Chemscore.Rot.Weighted>
3.4329

> <Gold.Chemscore.Internal.Correction.Weighted>
   9.000000E+99

> <Gold.Protein.RotatedTorsions>
[ 6907 6896 6895 6894 ] final    8.46 input  -60.11 | X-H torsion
[ 7974 7965 7964 7962 ] final  179.31 input  175.53 | X-H torsion
[ 8008 7997 7996 7995 ] final  107.56 input   59.86 | X-H torsion
[ 10167 10162 10161 10158 ] final -103.68 input  -65.29 | X-H torsion
[ 10718 10713 10712 10709 ] final   12.85 input   66.30 | X-H torsion
[ 10763 10752 10751 10750 ] final  169.31 input  -60.55 | X-H torsion
[ 11005 11000 10999 10996 ] final -122.90 input  -57.11 | X-H torsion

> <Gold.Protein.ActiveResidues>
 VAL166  LYS551  ARG553  GLY616  TRP617  ASP618  TYR619  PRO620  LYS621  CYS622 
 ASP623  PHE694  ASN695  SER759  ASP760  ASP761  ALA762  ILE779  LEU786  VAL792 
 PHE793  MET794  SER795  GLU796  ALA797  LYS798  CYS799  TRP800  GLU811  SER814 

> <Gold.Protein.RotatedAtoms>
  151.7064  135.0921  160.0259 H   0  0  0  0  0  0  0  0  0  0  0  0  # atno 6907 bound_to 6896
  152.3689  133.6388  159.6080 H   0  0  0  0  0  0  0  0  0  0  0  0  # atno 6908 bound_to 6896
  150.7658  133.9219  159.3442 H   0  0  0  0  0  0  0  0  0  0  0  0  # atno 6909 bound_to 6896
  144.7147  140.0529  143.6435 H   0  0  0  0  0  0  0  0  0  0  0  0  # atno 7974 bound_to 7965
  156.1834  140.3092  155.9191 H   0  0  0  0  0  0  0  0  0  0  0  0  # atno 8008 bound_to 7997
  155.3334  140.0462  157.3060 H   0  0  0  0  0  0  0  0  0  0  0  0  # atno 8009 bound_to 7997
  154.5368  140.2248  155.8719 H   0  0  0  0  0  0  0  0  0  0  0  0  # atno 8010 bound_to 7997
  140.2174  143.3701  152.0999 H   0  0  0  0  0  0  0  0  0  0  0  0  # atno 10167 bound_to 10162
  157.0161  130.6136  149.5714 H   0  0  0  0  0  0  0  0  0  0  0  0  # atno 10718 bound_to 10713
  154.3813  135.2753  155.2209 H   0  0  0  0  0  0  0  0  0  0  0  0  # atno 10763 bound_to 10752
  154.4315  135.5976  153.6075 H   0  0  0  0  0  0  0  0  0  0  0  0  # atno 10764 bound_to 10752
  152.9834  135.5996  154.4057 H   0  0  0  0  0  0  0  0  0  0  0  0  # atno 10765 bound_to 10752
  140.9960  134.0471  157.3596 H   0  0  0  0  0  0  0  0  0  0  0  0  # atno 11005 bound_to 11000
  145.9929  139.3029  143.0974 LP  0  0  0  0  0  0  0  0  0  0  0  0  # atno 17320 bound_to 7965
  145.8882  140.9320  143.0566 LP  0  0  0  0  0  0  0  0  0  0  0  0  # atno 17321 bound_to 7965
  139.5157  144.6966  151.5611 LP  0  0  0  0  0  0  0  0  0  0  0  0  # atno 17342 bound_to 10162
  140.6280  143.9131  150.6581 LP  0  0  0  0  0  0  0  0  0  0  0  0  # atno 17343 bound_to 10162
  156.0118  130.5210  150.8013 LP  0  0  0  0  0  0  0  0  0  0  0  0  # atno 17370 bound_to 10713
  157.5284  131.0935  150.9987 LP  0  0  0  0  0  0  0  0  0  0  0  0  # atno 17371 bound_to 10713
  139.9015  135.0166  156.7290 LP  0  0  0  0  0  0  0  0  0  0  0  0  # atno 17394 bound_to 11000
  140.6965  133.9344  155.7998 LP  0  0  0  0  0  0  0  0  0  0  0  0  # atno 17395 bound_to 11000

$$$$
