AV-unprocessed.smi:1900|AV-procd|sdf|7714|dock10
  -GOLD-   22720 9453D 1   1.00000     0.00000
 Structure written by MMmdl.
 43 44  0  0  0  0  0  0  0  0  1 V2000
  153.6642  141.3725  161.4314 C   0  0  0  0  0  0  0  0  0  0  0  0
  153.3652  141.9132  160.0291 C   0  0  1  0  0  0  0  0  0  0  0  0
  152.2728  141.0979  159.3118 C   0  0  0  0  0  0  0  0  0  0  0  0
  151.9370  141.6573  158.0072 N   0  0  0  0  0  0  0  0  0  0  0  0
  150.9016  140.8600  157.3511 C   0  0  0  0  0  0  0  0  0  0  0  0
  150.6576  141.1953  155.8697 C   0  0  0  0  0  0  0  0  0  0  0  0
  151.1565  140.0794  154.9381 C   0  0  0  0  0  0  0  0  0  0  0  0
  150.1059  139.6227  154.0353 N   0  0  0  0  0  0  0  0  0  0  0  0
  148.8761  139.2469  154.4147 C   0  0  0  0  0  0  0  0  0  0  0  0
  148.4990  139.2367  155.5864 O   0  0  0  0  0  0  0  0  0  0  0  0
  148.1268  138.8904  153.3588 N   0  0  0  0  0  0  0  0  0  0  0  0
  146.7737  138.4684  153.3711 C   0  0  0  0  0  0  0  0  0  0  0  0
  146.1237  137.4969  152.5544 C   0  0  0  0  0  0  0  0  0  0  0  0
  144.8427  137.3809  152.8748 N   0  0  0  0  0  0  0  0  0  0  0  0
  144.6695  138.2639  153.8839 N   0  0  0  0  0  0  0  0  0  0  0  0
  145.8184  138.9469  154.2171 C   0  0  0  0  0  0  0  0  0  0  0  0
  151.5451  143.0544  158.1795 C   0  0  0  0  0  0  0  0  0  0  0  0
  152.6313  143.8759  158.9012 C   0  0  1  0  0  0  0  0  0  0  0  0
  152.1870  145.3185  159.1652 C   0  0  0  0  0  0  0  0  0  0  0  0
  152.9280  143.2635  160.1532 O   0  0  0  0  0  0  0  0  0  0  0  0
  143.7714  138.3871  154.3297 H   0  0  0  0  0  0  0  0  0  0  0  0
  154.0150  140.3411  161.3870 H   0  0  0  0  0  0  0  0  0  0  0  0
  152.7748  141.3978  162.0620 H   0  0  0  0  0  0  0  0  0  0  0  0
  154.4369  141.9655  161.9210 H   0  0  0  0  0  0  0  0  0  0  0  0
  154.2845  141.8908  159.4411 H   0  0  0  0  0  0  0  0  0  0  0  0
  152.6130  140.0682  159.1940 H   0  0  0  0  0  0  0  0  0  0  0  0
  151.3792  141.0602  159.9370 H   0  0  0  0  0  0  0  0  0  0  0  0
  151.1861  139.8082  157.4057 H   0  0  0  0  0  0  0  0  0  0  0  0
  149.9651  140.9448  157.9046 H   0  0  0  0  0  0  0  0  0  0  0  0
  149.5956  141.3572  155.6867 H   0  0  0  0  0  0  0  0  0  0  0  0
  151.1629  142.1307  155.6252 H   0  0  0  0  0  0  0  0  0  0  0  0
  152.0234  140.4158  154.3669 H   0  0  0  0  0  0  0  0  0  0  0  0
  151.4884  139.2251  155.5288 H   0  0  0  0  0  0  0  0  0  0  0  0
  150.3299  139.5980  153.0513 H   0  0  0  0  0  0  0  0  0  0  0  0
  148.5655  138.9386  152.4511 H   0  0  0  0  0  0  0  0  0  0  0  0
  146.5189  136.8823  151.7593 H   0  0  0  0  0  0  0  0  0  0  0  0
  145.8522  139.6879  155.0022 H   0  0  0  0  0  0  0  0  0  0  0  0
  151.3500  143.5135  157.2109 H   0  0  0  0  0  0  0  0  0  0  0  0
  150.6134  143.1080  158.7452 H   0  0  0  0  0  0  0  0  0  0  0  0
  153.5379  143.8944  158.2938 H   0  0  0  0  0  0  0  0  0  0  0  0
  151.9569  145.8351  158.2331 H   0  0  0  0  0  0  0  0  0  0  0  0
  152.9717  145.8810  159.6716 H   0  0  0  0  0  0  0  0  0  0  0  0
  151.2968  145.3487  159.7941 H   0  0  0  0  0  0  0  0  0  0  0  0
  1  2  1  0  0  0  0
  1 22  1  0  0  0  0
  1 23  1  0  0  0  0
  1 24  1  0  0  0  0
  2 20  1  0  0  0  0
  2  3  1  0  0  0  0
  2 25  1  0  0  0  0
  3  4  1  0  0  0  0
  3 26  1  0  0  0  0
  3 27  1  0  0  0  0
  4  5  1  0  0  0  0
  4 17  1  0  0  0  0
  5  6  1  0  0  0  0
  5 28  1  0  0  0  0
  5 29  1  0  0  0  0
  6  7  1  0  0  0  0
  6 30  1  0  0  0  0
  6 31  1  0  0  0  0
  7  8  1  0  0  0  0
  7 32  1  0  0  0  0
  7 33  1  0  0  0  0
  8  9  1  0  0  0  0
  8 34  1  0  0  0  0
  9 10  2  0  0  0  0
  9 11  1  0  0  0  0
 11 12  1  0  0  0  0
 11 35  1  0  0  0  0
 12 16  2  0  0  0  0
 12 13  1  0  0  0  0
 13 14  2  0  0  0  0
 13 36  1  0  0  0  0
 14 15  1  0  0  0  0
 15 21  1  0  0  0  0
 15 16  1  0  0  0  0
 16 37  1  0  0  0  0
 17 18  1  0  0  0  0
 17 38  1  0  0  0  0
 17 39  1  0  0  0  0
 18 19  1  0  0  0  0
 18 20  1  0  0  0  0
 18 40  1  0  0  0  0
 19 41  1  0  0  0  0
 19 42  1  0  0  0  0
 19 43  1  0  0  0  0
M  END
> <s_m_source_file>
AV-unprocessed.smi

> <i_m_source_file_index>
1900

> <i_lp_mmshare_version>
43012

> <i_f3d_flags>
0

> <s_epik_input>
W0NIM11bQ0BASF0xW0NIMl1OKFtDSDJdW0NASF0oTzEpW0NIM10pW0NIMl1bQ0gyXVtDSDJdW05IXUMoPU8pW05IXWMyW2NIXW5bbkhdW2NIXTI=

> <s_epik_cmdline>
J2VwaWtfcHl0aG9uJywgJy1waCcsICc3LjAnLCAnLXRuJywgJzgnLCAnLW1hJywgJzIwMCcsICctbWV0YWxfYmluZGluZycsICctaW1hZScsICc8aW5maWxlLm1hZT4nLCAnLW9tYWUnLCAnPG91dGZpbGUubWFlPic=

> <r_lp_tautomer_probability>
0.5

> <r_epik_Ionization_Penalty>
0.594715

> <r_epik_Ionization_Penalty_Charging>
0

> <r_epik_Ionization_Penalty_Neutral>
0.594715

> <r_epik_State_Penalty>
0.608529

> <r_epik_Charging_Adjusted_Penalty>
0.608529

> <i_epik_Tot_Q>
0

> <i_epik_Tot_abs_Q>
0

> <r_epik_Metal_State_Penalty>
0.608528

> <b_epik_Metal_Only>
0

> <s_lp_Force_Field>
OPLS_2005

> <r_lp_Energy>
22.5064

> <b_lp_Chiralities_Consistent>
1

> <s_lp_Variant>
AV-unprocessed.smi:1900-6

> <Gold.Version>
5.8.1

> <Gold.Id.Protein>
6NUR|6NUR_protein|mol2

> <Gold.PLP.Fitness>
41.9487

> <Gold.PLP.PLP>
-35.8647

> <Gold.PLP.part.hbond>
-3.5272

> <Gold.PLP.part.metal>
0.0000

> <Gold.PLP.part.buried>
-1.5864

> <Gold.PLP.part.nonpolar>
-31.7756

> <Gold.PLP.part.repulsive>
1.5385

> <Gold.PLP.ligand.clash>
0.0000

> <Gold.PLP.ligand.torsion>
1.0505

> <Gold.PLP.Chemscore.Hbond>
1.9360

> <Gold.PLP.Chemscore.CHOScore>
0.7785

> <Gold.PLP.Chemscore.Metal>
0.0000

> <Gold.Chemscore.Hbonds>
donor molecule, donor type, donor heavy atom, donor atom, acceptor molecule, acceptor atom, score
      L1  H     8    34       P1  7957  0.83
      L1  H    11    35       P1  7957  0.96
      L1  C    13    36       P1  7948  0.78

> <Gold.PLP.Chemscore.Internal.Correction>
0.0413

> <Gold.Rescore>
     Score         DG    S(hbond)    S(metal)    S(lipo)     H(rot)  DE(clash)    DE(int)     intcor
     12.92     -19.12       1.93        0.00     102.59       1.88       3.02       3.18       ----

> <Gold.Chemscore.Fitness>
12.9217

> <Gold.Chemscore.DG>
-19.1209

> <Gold.Chemscore.ZeroCoef>
-5.4800

> <Gold.Chemscore.Hbond>
1.9314

> <Gold.Chemscore.Metal>
0.0000

> <Gold.Chemscore.Lipo>
102.5857

> <Gold.Chemscore.Internal_Hbond>
0.0000

> <Gold.Chemscore.DEClash>
3.0151

> <Gold.Chemscore.DEInternal>
3.1841

> <Gold.Chemscore.Rot>
1.8799

> <Gold.Chemscore.Internal.Correction>
   9.000000E+99

> <Gold.Chemscore.Hbonds>
donor molecule, donor type, donor heavy atom, donor atom, acceptor molecule, acceptor atom, score
      L1  H     8    34       P1  7957  0.75
      L1  H    11    35       P1  7957  0.90

> <Gold.Chemscore.Hbond.Weighted>
-6.4509

> <Gold.Chemscore.Metal.Weighted>
-0.0000

> <Gold.Chemscore.Lipo.Weighted>
-12.0025

> <Gold.Chemscore.Internal_Hbond.Weighted>
0.0000

> <Gold.Chemscore.DEClash.Weighted>
3.0151

> <Gold.Chemscore.DEInternal.Weighted>
3.1841

> <Gold.Chemscore.Rot.Weighted>
4.8126

> <Gold.Chemscore.Internal.Correction.Weighted>
   9.000000E+99

> <Gold.Protein.RotatedTorsions>
[ 6907 6896 6895 6894 ] final   53.99 input  -60.11 | X-H torsion
[ 7974 7965 7964 7962 ] final  -58.91 input  175.53 | X-H torsion
[ 8008 7997 7996 7995 ] final   57.49 input   59.86 | X-H torsion
[ 10167 10162 10161 10158 ] final -140.06 input  -65.29 | X-H torsion
[ 10718 10713 10712 10709 ] final -135.93 input   66.30 | X-H torsion
[ 10763 10752 10751 10750 ] final   15.93 input  -60.55 | X-H torsion
[ 11005 11000 10999 10996 ] final   72.73 input  -57.11 | X-H torsion

> <Gold.Protein.ActiveResidues>
 VAL166  LYS551  ARG553  GLY616  TRP617  ASP618  TYR619  PRO620  LYS621  CYS622 
 ASP623  PHE694  ASN695  SER759  ASP760  ASP761  ALA762  ILE779  LEU786  VAL792 
 PHE793  MET794  SER795  GLU796  ALA797  LYS798  CYS799  TRP800  GLU811  SER814 

> <Gold.Protein.RotatedAtoms>
  152.3394  134.7155  160.0267 H   0  0  0  0  0  0  0  0  0  0  0  0  # atno 6907 bound_to 6896
  151.7545  133.3324  159.3409 H   0  0  0  0  0  0  0  0  0  0  0  0  # atno 6908 bound_to 6896
  150.7470  134.6094  159.6123 H   0  0  0  0  0  0  0  0  0  0  0  0  # atno 6909 bound_to 6896
  145.8337  140.8463  143.0070 H   0  0  0  0  0  0  0  0  0  0  0  0  # atno 7974 bound_to 7965
  155.5346  140.3483  155.4433 H   0  0  0  0  0  0  0  0  0  0  0  0  # atno 8008 bound_to 7997
  156.0694  140.1359  156.9873 H   0  0  0  0  0  0  0  0  0  0  0  0  # atno 8009 bound_to 7997
  154.4520  140.0969  156.6621 H   0  0  0  0  0  0  0  0  0  0  0  0  # atno 8010 bound_to 7997
  139.8318  143.7437  152.2666 H   0  0  0  0  0  0  0  0  0  0  0  0  # atno 10167 bound_to 10162
  156.2716  130.7268  151.1237 H   0  0  0  0  0  0  0  0  0  0  0  0  # atno 10718 bound_to 10713
  153.1479  135.6773  153.8927 H   0  0  0  0  0  0  0  0  0  0  0  0  # atno 10763 bound_to 10752
  153.8363  135.3111  155.3424 H   0  0  0  0  0  0  0  0  0  0  0  0  # atno 10764 bound_to 10752
  154.7839  135.4873  153.9989 H   0  0  0  0  0  0  0  0  0  0  0  0  # atno 10765 bound_to 10752
  139.9476  134.7285  156.0942 H   0  0  0  0  0  0  0  0  0  0  0  0  # atno 11005 bound_to 11000
  144.6738  140.0710  143.7473 LP  0  0  0  0  0  0  0  0  0  0  0  0  # atno 17320 bound_to 7965
  145.9542  139.2755  143.1194 LP  0  0  0  0  0  0  0  0  0  0  0  0  # atno 17321 bound_to 7965
  139.7647  144.7496  151.0313 LP  0  0  0  0  0  0  0  0  0  0  0  0  # atno 17342 bound_to 10162
  140.7806  143.4712  151.0144 LP  0  0  0  0  0  0  0  0  0  0  0  0  # atno 17343 bound_to 10162
  157.7285  131.0631  150.5815 LP  0  0  0  0  0  0  0  0  0  0  0  0  # atno 17370 bound_to 10713
  156.5912  130.4329  149.5936 LP  0  0  0  0  0  0  0  0  0  0  0  0  # atno 17371 bound_to 10713
  141.1130  133.6637  156.3025 LP  0  0  0  0  0  0  0  0  0  0  0  0  # atno 17394 bound_to 11000
  140.5797  134.5757  157.5477 LP  0  0  0  0  0  0  0  0  0  0  0  0  # atno 17395 bound_to 11000

$$$$
