AV-unprocessed.smi:34|AV-procd|sdf|240|dock10
  -GOLD-   2262015593D 1   1.00000     0.00000
 Structure written by MMmdl.
 54 58  0  0  0  0  0  0  0  0  2 V2000
  151.7743  139.6654  158.8626 O   0  0  0  0  0  0  0  0  0  0  0  0
  152.0097  140.5073  157.9933 C   0  0  0  0  0  0  0  0  0  0  0  0
  152.4080  140.2961  156.7134 N   0  5  0  0  0  0  0  0  0  0  0  0
  151.8600  139.3019  155.9983 C   0  0  0  0  0  0  0  0  0  0  0  0
  151.3357  139.5473  154.7704 N   0  0  0  0  0  0  0  0  0  0  0  0
  150.7861  138.5559  154.0595 C   0  0  0  0  0  0  0  0  0  0  0  0
  150.6513  137.2659  154.3817 N   0  0  0  0  0  0  0  0  0  0  0  0
  151.1649  137.0078  155.6195 C   0  0  0  0  0  0  0  0  0  0  0  0
  151.7754  137.9666  156.4797 C   0  0  0  0  0  0  0  0  0  0  0  0
  152.1830  137.3743  157.6661 N   0  0  0  0  0  0  0  0  0  0  0  0
  151.8113  136.1101  157.4768 C   0  0  0  0  0  0  0  0  0  0  0  0
  151.2148  135.8061  156.3071 N   0  0  0  0  0  0  0  0  0  0  0  0
  150.7150  134.4711  155.8632 C   0  0  1  0  0  0  0  0  0  0  0  0
  150.6685  133.6377  156.9782 O   0  0  0  0  0  0  0  0  0  0  0  0
  149.5752  132.7469  156.8232 C   0  0  1  0  0  0  0  0  0  0  0  0
  149.1794  132.1230  158.1669 C   0  0  0  0  0  0  0  0  0  0  0  0
  148.8634  133.1550  159.0872 O   0  0  0  0  0  0  0  0  0  0  0  0
  148.0411  132.9040  160.1246 C   0  0  0  0  0  0  0  0  0  0  0  0
  147.5722  131.7904  160.3697 O   0  0  0  0  0  0  0  0  0  0  0  0
  147.7571  134.1156  160.9471 C   0  0  0  0  0  0  0  0  0  0  0  0
  147.9555  135.3977  160.3832 C   0  0  0  0  0  0  0  0  0  0  0  0
  147.6958  136.5602  161.1349 C   0  0  0  0  0  0  0  0  0  0  0  0
  147.2345  136.4551  162.4599 C   0  0  0  0  0  0  0  0  0  0  0  0
  147.0334  135.1856  163.0326 C   0  0  0  0  0  0  0  0  0  0  0  0
  147.2926  134.0217  162.2824 C   0  0  0  0  0  0  0  0  0  0  0  0
  148.4959  133.6303  156.1946 C   0  0  1  0  0  0  0  0  0  0  0  0
  147.8556  134.3372  157.1275 F   0  0  0  0  0  0  0  0  0  0  0  0
  149.2873  134.5734  155.2959 C   0  0  2  0  0  0  0  0  0  0  0  0
  149.2196  134.1257  153.9572 O   0  0  0  0  0  0  0  0  0  0  0  0
  151.9240  141.9657  158.3545 C   0  0  0  0  0  0  0  0  0  0  0  0
  152.2729  142.3859  159.6584 C   0  0  0  0  0  0  0  0  0  0  0  0
  152.1770  143.7429  160.0230 C   0  0  0  0  0  0  0  0  0  0  0  0
  151.7203  144.6932  159.0906 C   0  0  0  0  0  0  0  0  0  0  0  0
  151.3560  144.2846  157.7940 C   0  0  0  0  0  0  0  0  0  0  0  0
  151.4531  142.9279  157.4279 C   0  0  0  0  0  0  0  0  0  0  0  0
  150.3964  138.8376  153.0925 H   0  0  0  0  0  0  0  0  0  0  0  0
  151.9867  135.3595  158.2332 H   0  0  0  0  0  0  0  0  0  0  0  0
  151.4516  134.1109  155.1430 H   0  0  0  0  0  0  0  0  0  0  0  0
  149.8544  131.9676  156.1112 H   0  0  0  0  0  0  0  0  0  0  0  0
  148.3330  131.4462  158.0397 H   0  0  0  0  0  0  0  0  0  0  0  0
  150.0119  131.5407  158.5646 H   0  0  0  0  0  0  0  0  0  0  0  0
  148.3091  135.5038  159.3678 H   0  0  0  0  0  0  0  0  0  0  0  0
  147.8510  137.5338  160.6936 H   0  0  0  0  0  0  0  0  0  0  0  0
  147.0355  137.3466  163.0361 H   0  0  0  0  0  0  0  0  0  0  0  0
  146.6794  135.1035  164.0498 H   0  0  0  0  0  0  0  0  0  0  0  0
  147.1276  133.0631  162.7523 H   0  0  0  0  0  0  0  0  0  0  0  0
  147.7352  133.0548  155.6657 H   0  0  0  0  0  0  0  0  0  0  0  0
  148.9087  135.5955  155.3503 H   0  0  0  0  0  0  0  0  0  0  0  0
  149.0745  134.8742  153.3986 H   0  0  0  0  0  0  0  0  0  0  0  0
  152.6236  141.6684  160.3861 H   0  0  0  0  0  0  0  0  0  0  0  0
  152.4533  144.0540  161.0196 H   0  0  0  0  0  0  0  0  0  0  0  0
  151.6458  145.7334  159.3707 H   0  0  0  0  0  0  0  0  0  0  0  0
  150.9995  145.0113  157.0790 H   0  0  0  0  0  0  0  0  0  0  0  0
  151.1596  142.6333  156.4308 H   0  0  0  0  0  0  0  0  0  0  0  0
  1  2  2  0  0  0  0
  2  3  1  0  0  0  0
  2 30  1  0  0  0  0
  3  4  1  0  0  0  0
  4  9  1  0  0  0  0
  4  5  2  0  0  0  0
  5  6  1  0  0  0  0
  6  7  2  0  0  0  0
  6 36  1  0  0  0  0
  7  8  1  0  0  0  0
  8 12  1  0  0  0  0
  8  9  2  0  0  0  0
  9 10  1  0  0  0  0
 10 11  2  0  0  0  0
 11 12  1  0  0  0  0
 11 37  1  0  0  0  0
 12 13  1  0  0  0  0
 13 28  1  0  0  0  0
 13 14  1  0  0  0  0
 13 38  1  0  0  0  0
 14 15  1  0  0  0  0
 15 16  1  0  0  0  0
 15 26  1  0  0  0  0
 15 39  1  0  0  0  0
 16 17  1  0  0  0  0
 16 40  1  0  0  0  0
 16 41  1  0  0  0  0
 17 18  1  0  0  0  0
 18 19  2  0  0  0  0
 18 20  1  0  0  0  0
 20 25  1  0  0  0  0
 20 21  2  0  0  0  0
 21 22  1  0  0  0  0
 21 42  1  0  0  0  0
 22 23  2  0  0  0  0
 22 43  1  0  0  0  0
 23 24  1  0  0  0  0
 23 44  1  0  0  0  0
 24 25  2  0  0  0  0
 24 45  1  0  0  0  0
 25 46  1  0  0  0  0
 26 27  1  0  0  0  0
 26 28  1  0  0  0  0
 26 47  1  0  0  0  0
 28 29  1  0  0  0  0
 28 48  1  0  0  0  0
 29 49  1  0  0  0  0
 30 35  1  0  0  0  0
 30 31  2  0  0  0  0
 31 32  1  0  0  0  0
 31 50  1  0  0  0  0
 32 33  2  0  0  0  0
 32 51  1  0  0  0  0
 33 34  1  0  0  0  0
 33 52  1  0  0  0  0
 34 35  2  0  0  0  0
 34 53  1  0  0  0  0
 35 54  1  0  0  0  0
M  CHG  1   3  -1
M  END
> <s_m_source_file>
AV-unprocessed.smi

> <i_m_source_file_index>
34

> <i_lp_mmshare_version>
43012

> <i_f3d_flags>
0

> <s_epik_input>
W2NIXTFbY0hdW2NIXVtjSF1bY0hdYzFDKD1PKVtOSF1jKG5bY0hdbjIpYyhjMjMpbltjSF1uM1tDQEBIXTRPW0NASF0oW0NAQEhdKEYpW0NASF00W09IXSlbQ0gyXU9DKD1PKWM1W2NIXVtjSF1bY0hdW2NIXVtjSF01

> <s_epik_cmdline>
J2VwaWtfcHl0aG9uJywgJy1waCcsICc3LjAnLCAnLXRuJywgJzgnLCAnLW1hJywgJzIwMCcsICctbWV0YWxfYmluZGluZycsICctaW1hZScsICc8aW5maWxlLm1hZT4nLCAnLW9tYWUnLCAnPG91dGZpbGUubWFlPic=

> <r_lp_tautomer_probability>
1

> <r_epik_Ionization_Penalty>
4.33227

> <r_epik_Ionization_Penalty_Charging>
3.41027

> <r_epik_Ionization_Penalty_Neutral>
0.922001

> <r_epik_State_Penalty>
3.41358

> <r_epik_Charging_Adjusted_Penalty>
6.82385

> <i_epik_Tot_Q>
-1

> <i_epik_Tot_abs_Q>
1

> <r_epik_Metal_State_Penalty>
0.496292

> <b_epik_Metal_Only>
1

> <s_epik_Chemistry_Notes>
This compound has an ester and may undergo hydrolysis at high or low pH. This compound contains an acetal/aminal-like group ( X-CH(R)-Y where X, Y are N, S, or O) that may be acid/base labile, releasing an aldehyde.

> <s_lp_Force_Field>
OPLS_2005

> <r_lp_Energy>
44.0615

> <b_lp_Chiralities_Consistent>
1

> <s_lp_Variant>
AV-unprocessed.smi:34-26

> <Gold.Version>
5.8.1

> <Gold.Id.Protein>
6NUR|6NUR_protein|mol2

> <Gold.PLP.Fitness>
70.2815

> <Gold.PLP.PLP>
-58.0056

> <Gold.PLP.part.hbond>
-4.6488

> <Gold.PLP.part.metal>
0.0000

> <Gold.PLP.part.buried>
-4.4652

> <Gold.PLP.part.nonpolar>
-49.1150

> <Gold.PLP.part.repulsive>
0.2748

> <Gold.PLP.ligand.clash>
0.0000

> <Gold.PLP.ligand.torsion>
1.9117

> <Gold.PLP.Chemscore.Hbond>
4.2548

> <Gold.PLP.Chemscore.CHOScore>
1.0000

> <Gold.PLP.Chemscore.Metal>
0.0000

> <Gold.Chemscore.Hbonds>
donor molecule, donor type, donor heavy atom, donor atom, acceptor molecule, acceptor atom, score
      L1  H    29    49       P1  7948  0.90
      P1  H  6896  6909       L1    14  0.34
      P1  H  7989  7998       L1     5  1.00
      P1  H  7997  8009       L1     3  2.00
      L1  C     6    36       P1  7957  1.00

> <Gold.PLP.Chemscore.Internal.Correction>
0.3349

> <Gold.Rescore>
     Score         DG    S(hbond)    S(metal)    S(lipo)     H(rot)  DE(clash)    DE(int)     intcor
     13.91     -20.49       1.94        0.00     131.93       2.69       0.29       6.28       ----

> <Gold.Chemscore.Fitness>
13.9116

> <Gold.Chemscore.DG>
-20.4861

> <Gold.Chemscore.ZeroCoef>
-5.4800

> <Gold.Chemscore.Hbond>
1.9365

> <Gold.Chemscore.Metal>
0.0000

> <Gold.Chemscore.Lipo>
131.9296

> <Gold.Chemscore.Internal_Hbond>
0.0000

> <Gold.Chemscore.DEClash>
0.2949

> <Gold.Chemscore.DEInternal>
6.2797

> <Gold.Chemscore.Rot>
2.6944

> <Gold.Chemscore.Internal.Correction>
   9.000000E+99

> <Gold.Chemscore.Hbonds>
donor molecule, donor type, donor heavy atom, donor atom, acceptor molecule, acceptor atom, score
      L1  H    29    49       P1  7948  0.17
      P1  H  6896  6909       L1    14  0.12
      P1  H  7989  7998       L1     5  0.40
      P1  H  7997  8009       L1     3  0.50

> <Gold.Chemscore.Hbond.Weighted>
-6.4679

> <Gold.Chemscore.Metal.Weighted>
-0.0000

> <Gold.Chemscore.Lipo.Weighted>
-15.4358

> <Gold.Chemscore.Internal_Hbond.Weighted>
0.0000

> <Gold.Chemscore.DEClash.Weighted>
0.2949

> <Gold.Chemscore.DEInternal.Weighted>
6.2797

> <Gold.Chemscore.Rot.Weighted>
6.8975

> <Gold.Chemscore.Internal.Correction.Weighted>
   9.000000E+99

> <Gold.Protein.RotatedTorsions>
[ 6907 6896 6895 6894 ] final   -9.62 input  -60.11 | X-H torsion
[ 7974 7965 7964 7962 ] final  121.23 input  175.53 | X-H torsion
[ 8008 7997 7996 7995 ] final -172.12 input   59.86 | X-H torsion
[ 10167 10162 10161 10158 ] final -120.92 input  -65.29 | X-H torsion
[ 10718 10713 10712 10709 ] final   18.12 input   66.30 | X-H torsion
[ 10763 10752 10751 10750 ] final  -46.04 input  -60.55 | X-H torsion
[ 11005 11000 10999 10996 ] final  122.79 input  -57.11 | X-H torsion

> <Gold.Protein.ActiveResidues>
 VAL166  LYS551  ARG553  GLY616  TRP617  ASP618  TYR619  PRO620  LYS621  CYS622 
 ASP623  PHE694  ASN695  SER759  ASP760  ASP761  ALA762  ILE779  LEU786  VAL792 
 PHE793  MET794  SER795  GLU796  ALA797  LYS798  CYS799  TRP800  GLU811  SER814 

> <Gold.Protein.RotatedAtoms>
  151.4149  135.0990  159.9596 H   0  0  0  0  0  0  0  0  0  0  0  0  # atno 6907 bound_to 6896
  152.5007  133.8762  159.7333 H   0  0  0  0  0  0  0  0  0  0  0  0  # atno 6908 bound_to 6896
  150.9265  133.6761  159.2848 H   0  0  0  0  0  0  0  0  0  0  0  0  # atno 6909 bound_to 6896
  145.1218  139.3384  143.4710 H   0  0  0  0  0  0  0  0  0  0  0  0  # atno 7974 bound_to 7965
  155.9405  140.1107  157.1060 H   0  0  0  0  0  0  0  0  0  0  0  0  # atno 8008 bound_to 7997
  154.4088  140.1220  156.4986 H   0  0  0  0  0  0  0  0  0  0  0  0  # atno 8009 bound_to 7997
  155.6968  140.3472  155.4919 H   0  0  0  0  0  0  0  0  0  0  0  0  # atno 8010 bound_to 7997
  140.0306  143.5252  152.2178 H   0  0  0  0  0  0  0  0  0  0  0  0  # atno 10167 bound_to 10162
  157.0919  130.6431  149.5851 H   0  0  0  0  0  0  0  0  0  0  0  0  # atno 10718 bound_to 10713
  154.0385  135.6647  153.4787 H   0  0  0  0  0  0  0  0  0  0  0  0  # atno 10763 bound_to 10752
  153.0511  135.5084  154.7865 H   0  0  0  0  0  0  0  0  0  0  0  0  # atno 10764 bound_to 10752
  154.6833  135.3049  154.9548 H   0  0  0  0  0  0  0  0  0  0  0  0  # atno 10765 bound_to 10752
  139.9284  134.9641  156.8162 H   0  0  0  0  0  0  0  0  0  0  0  0  # atno 11005 bound_to 11000
  146.3520  140.1180  142.8601 LP  0  0  0  0  0  0  0  0  0  0  0  0  # atno 17320 bound_to 7965
  145.0732  140.9170  143.4869 LP  0  0  0  0  0  0  0  0  0  0  0  0  # atno 17321 bound_to 7965
  139.6079  144.7601  151.3020 LP  0  0  0  0  0  0  0  0  0  0  0  0  # atno 17342 bound_to 10162
  140.7304  143.6882  150.7944 LP  0  0  0  0  0  0  0  0  0  0  0  0  # atno 17343 bound_to 10162
  155.9896  130.4944  150.7220 LP  0  0  0  0  0  0  0  0  0  0  0  0  # atno 17370 bound_to 10713
  157.4714  131.0893  151.0638 LP  0  0  0  0  0  0  0  0  0  0  0  0  # atno 17371 bound_to 10713
  140.6271  133.9940  155.7645 LP  0  0  0  0  0  0  0  0  0  0  0  0  # atno 17394 bound_to 11000
  141.0857  133.9994  157.3317 LP  0  0  0  0  0  0  0  0  0  0  0  0  # atno 17395 bound_to 11000

$$$$
