AV-unprocessed.smi:2397|AV-procd|sdf|9493|dock10
  -GOLD-   2272013123D 1   1.00000     0.00000
 Structure written by MMmdl.
 36 37  0  0  0  0  0  0  0  0  1 V2000
  153.7967  141.5832  160.8160 C   0  0  0  0  0  0  0  0  0  0  0  0
  153.1011  140.7706  159.7126 C   0  0  0  0  0  0  0  0  0  0  0  0
  154.0204  139.7215  159.0687 C   0  0  0  0  0  0  0  0  0  0  0  0
  152.4449  141.6682  158.6719 C   0  0  0  0  0  0  0  0  0  0  0  0
  152.5235  142.9865  158.8758 N   0  0  0  0  0  0  0  0  0  0  0  0
  151.9439  143.7819  157.9526 C   0  0  0  0  0  0  0  0  0  0  0  0
  151.2836  143.2547  156.8252 C   0  0  0  0  0  0  0  0  0  0  0  0
  151.2509  141.8436  156.7104 C   0  0  0  0  0  0  0  0  0  0  0  0
  150.6346  141.1731  155.6343 N   0  0  0  0  0  0  0  0  0  0  0  0
  149.2525  141.6109  155.4499 C   0  0  0  0  0  0  0  0  0  0  0  0
  148.6723  141.0453  154.1458 C   0  0  0  0  0  0  0  0  0  0  0  0
  148.7977  139.6300  154.1545 O   0  0  0  0  0  0  0  0  0  0  0  0
  150.1617  139.2282  154.1964 C   0  0  0  0  0  0  0  0  0  0  0  0
  150.8343  139.7222  155.4990 C   0  0  1  0  0  0  0  0  0  0  0  0
  152.3061  139.2696  155.4778 C   0  0  0  0  0  0  0  0  0  0  0  0
  152.6969  138.4346  156.4438 N   0  0  0  0  0  0  0  0  0  0  0  0
  153.0744  139.6558  154.5984 O   0  0  0  0  0  0  0  0  0  0  0  0
  151.8453  141.0629  157.6413 N   0  0  0  0  0  0  0  0  0  0  0  0
  153.0967  142.2643  161.3005 H   0  0  0  0  0  0  0  0  0  0  0  0
  154.6178  142.1782  160.4151 H   0  0  0  0  0  0  0  0  0  0  0  0
  154.2073  140.9289  161.5852 H   0  0  0  0  0  0  0  0  0  0  0  0
  152.3026  140.2125  160.2050 H   0  0  0  0  0  0  0  0  0  0  0  0
  153.4760  139.1177  158.3423 H   0  0  0  0  0  0  0  0  0  0  0  0
  154.4300  139.0455  159.8196 H   0  0  0  0  0  0  0  0  0  0  0  0
  154.8586  140.1894  158.5518 H   0  0  0  0  0  0  0  0  0  0  0  0
  152.0098  144.8478  158.1120 H   0  0  0  0  0  0  0  0  0  0  0  0
  150.8340  143.9108  156.0956 H   0  0  0  0  0  0  0  0  0  0  0  0
  148.6536  141.2767  156.2984 H   0  0  0  0  0  0  0  0  0  0  0  0
  149.1880  142.6996  155.4249 H   0  0  0  0  0  0  0  0  0  0  0  0
  147.6180  141.3080  154.0581 H   0  0  0  0  0  0  0  0  0  0  0  0
  149.1797  141.4662  153.2760 H   0  0  0  0  0  0  0  0  0  0  0  0
  150.1969  138.1395  154.1385 H   0  0  0  0  0  0  0  0  0  0  0  0
  150.6810  139.6064  153.3133 H   0  0  0  0  0  0  0  0  0  0  0  0
  150.3302  139.2358  156.3359 H   0  0  0  0  0  0  0  0  0  0  0  0
  153.6520  138.1087  156.4741 H   0  0  0  0  0  0  0  0  0  0  0  0
  152.0330  138.1323  157.1418 H   0  0  0  0  0  0  0  0  0  0  0  0
  1  2  1  0  0  0  0
  1 19  1  0  0  0  0
  1 20  1  0  0  0  0
  1 21  1  0  0  0  0
  2  3  1  0  0  0  0
  2  4  1  0  0  0  0
  2 22  1  0  0  0  0
  3 23  1  0  0  0  0
  3 24  1  0  0  0  0
  3 25  1  0  0  0  0
  4 18  1  0  0  0  0
  4  5  2  0  0  0  0
  5  6  1  0  0  0  0
  6  7  2  0  0  0  0
  6 26  1  0  0  0  0
  7  8  1  0  0  0  0
  7 27  1  0  0  0  0
  8  9  1  0  0  0  0
  8 18  2  0  0  0  0
  9 14  1  0  0  0  0
  9 10  1  0  0  0  0
 10 11  1  0  0  0  0
 10 28  1  0  0  0  0
 10 29  1  0  0  0  0
 11 12  1  0  0  0  0
 11 30  1  0  0  0  0
 11 31  1  0  0  0  0
 12 13  1  0  0  0  0
 13 14  1  0  0  0  0
 13 32  1  0  0  0  0
 13 33  1  0  0  0  0
 14 15  1  0  0  0  0
 14 34  1  0  0  0  0
 15 16  1  0  0  0  0
 15 17  2  0  0  0  0
 16 35  1  0  0  0  0
 16 36  1  0  0  0  0
M  END
> <s_m_source_file>
AV-unprocessed.smi

> <i_m_source_file_index>
2397

> <i_lp_mmshare_version>
43012

> <i_f3d_flags>
0

> <s_epik_input>
W0NIM11bQ0hdKFtDSDNdKWMxbltjSF1bY0hdYyhuMSlOMltDSDJdW0NIMl1PW0NIMl1bQ0BIXTJDKD1PKVtOSDJd

> <s_epik_cmdline>
J2VwaWtfcHl0aG9uJywgJy1waCcsICc3LjAnLCAnLXRuJywgJzgnLCAnLW1hJywgJzIwMCcsICctbWV0YWxfYmluZGluZycsICctaW1hZScsICc8aW5maWxlLm1hZT4nLCAnLW9tYWUnLCAnPG91dGZpbGUubWFlPic=

> <r_lp_tautomer_probability>
1

> <r_epik_Ionization_Penalty>
0.0323151

> <r_epik_Ionization_Penalty_Charging>
0

> <r_epik_Ionization_Penalty_Neutral>
0.0323151

> <r_epik_State_Penalty>
0.0267324

> <r_epik_Charging_Adjusted_Penalty>
0.0267324

> <i_epik_Tot_Q>
0

> <i_epik_Tot_abs_Q>
0

> <r_epik_Metal_State_Penalty>
0.0253461

> <b_epik_Metal_Only>
0

> <s_lp_Force_Field>
OPLS_2005

> <r_lp_Energy>
6.33426

> <b_lp_Chiralities_Consistent>
1

> <s_lp_Variant>
AV-unprocessed.smi:2397-1

> <Gold.Version>
5.8.1

> <Gold.Id.Protein>
6NUR|6NUR_protein|mol2

> <Gold.PLP.Fitness>
37.0276

> <Gold.PLP.PLP>
-33.5069

> <Gold.PLP.part.hbond>
-2.5230

> <Gold.PLP.part.metal>
0.0000

> <Gold.PLP.part.buried>
-1.4445

> <Gold.PLP.part.nonpolar>
-29.2330

> <Gold.PLP.part.repulsive>
0.4082

> <Gold.PLP.ligand.clash>
0.0000

> <Gold.PLP.ligand.torsion>
0.2321

> <Gold.PLP.Chemscore.Hbond>
1.2184

> <Gold.PLP.Chemscore.CHOScore>
0.0000

> <Gold.PLP.Chemscore.Metal>
0.0000

> <Gold.Chemscore.Hbonds>
donor molecule, donor type, donor heavy atom, donor atom, acceptor molecule, acceptor atom, score
      P1  H  7989  7998       L1    17  0.22
      P1  H  7997  8010       L1    17  0.75

> <Gold.PLP.Chemscore.Internal.Correction>
0.3297

> <Gold.Rescore>
     Score         DG    S(hbond)    S(metal)    S(lipo)     H(rot)  DE(clash)    DE(int)     intcor
     11.29     -13.16       0.96        0.00      76.21       1.74       0.11       1.76       ----

> <Gold.Chemscore.Fitness>
11.2894

> <Gold.Chemscore.DG>
-13.1559

> <Gold.Chemscore.ZeroCoef>
-5.4800

> <Gold.Chemscore.Hbond>
0.9641

> <Gold.Chemscore.Metal>
0.0000

> <Gold.Chemscore.Lipo>
76.2125

> <Gold.Chemscore.Internal_Hbond>
0.0000

> <Gold.Chemscore.DEClash>
0.1081

> <Gold.Chemscore.DEInternal>
1.7584

> <Gold.Chemscore.Rot>
1.7426

> <Gold.Chemscore.Internal.Correction>
   9.000000E+99

> <Gold.Chemscore.Hbonds>
donor molecule, donor type, donor heavy atom, donor atom, acceptor molecule, acceptor atom, score
      P1  H  7989  7998       L1    17  0.05
      P1  H  7997  8010       L1    17  0.09

> <Gold.Chemscore.Hbond.Weighted>
-3.2200

> <Gold.Chemscore.Metal.Weighted>
-0.0000

> <Gold.Chemscore.Lipo.Weighted>
-8.9169

> <Gold.Chemscore.Internal_Hbond.Weighted>
0.0000

> <Gold.Chemscore.DEClash.Weighted>
0.1081

> <Gold.Chemscore.DEInternal.Weighted>
1.7584

> <Gold.Chemscore.Rot.Weighted>
4.4610

> <Gold.Chemscore.Internal.Correction.Weighted>
   9.000000E+99

> <Gold.Protein.RotatedTorsions>
[ 6907 6896 6895 6894 ] final   39.61 input  -60.11 | X-H torsion
[ 7974 7965 7964 7962 ] final -132.73 input  175.53 | X-H torsion
[ 8008 7997 7996 7995 ] final  106.52 input   59.86 | X-H torsion
[ 10167 10162 10161 10158 ] final -175.93 input  -65.29 | X-H torsion
[ 10718 10713 10712 10709 ] final  159.04 input   66.30 | X-H torsion
[ 10763 10752 10751 10750 ] final    5.01 input  -60.55 | X-H torsion
[ 11005 11000 10999 10996 ] final  112.26 input  -57.11 | X-H torsion

> <Gold.Protein.ActiveResidues>
 VAL166  LYS551  ARG553  GLY616  TRP617  ASP618  TYR619  PRO620  LYS621  CYS622 
 ASP623  PHE694  ASN695  SER759  ASP760  ASP761  ALA762  ILE779  LEU786  VAL792 
 PHE793  MET794  SER795  GLU796  ALA797  LYS798  CYS799  TRP800  GLU811  SER814 

> <Gold.Protein.RotatedAtoms>
  152.1719  134.8827  160.0533 H   0  0  0  0  0  0  0  0  0  0  0  0  # atno 6907 bound_to 6896
  151.9784  133.3744  159.4106 H   0  0  0  0  0  0  0  0  0  0  0  0  # atno 6908 bound_to 6896
  150.6903  134.3988  159.5153 H   0  0  0  0  0  0  0  0  0  0  0  0  # atno 6909 bound_to 6896
  144.9258  140.7069  143.4937 H   0  0  0  0  0  0  0  0  0  0  0  0  # atno 7974 bound_to 7965
  156.1750  140.3111  155.9042 H   0  0  0  0  0  0  0  0  0  0  0  0  # atno 8008 bound_to 7997
  155.3507  140.0471  157.3063 H   0  0  0  0  0  0  0  0  0  0  0  0  # atno 8009 bound_to 7997
  154.5280  140.2221  155.8865 H   0  0  0  0  0  0  0  0  0  0  0  0  # atno 8010 bound_to 7997
  139.5556  144.1998  152.1153 H   0  0  0  0  0  0  0  0  0  0  0  0  # atno 10167 bound_to 10162
  157.1697  131.0607  151.2189 H   0  0  0  0  0  0  0  0  0  0  0  0  # atno 10718 bound_to 10713
  153.2645  135.6926  153.7544 H   0  0  0  0  0  0  0  0  0  0  0  0  # atno 10763 bound_to 10752
  153.6591  135.3363  155.3123 H   0  0  0  0  0  0  0  0  0  0  0  0  # atno 10764 bound_to 10752
  154.8442  135.4473  154.1646 H   0  0  0  0  0  0  0  0  0  0  0  0  # atno 10765 bound_to 10752
  139.8923  134.9526  156.6558 H   0  0  0  0  0  0  0  0  0  0  0  0  # atno 11005 bound_to 11000
  145.3222  139.1785  143.4582 LP  0  0  0  0  0  0  0  0  0  0  0  0  # atno 17320 bound_to 7965
  146.3225  140.3240  142.8635 LP  0  0  0  0  0  0  0  0  0  0  0  0  # atno 17321 bound_to 7965
  140.1502  144.5122  150.6692 LP  0  0  0  0  0  0  0  0  0  0  0  0  # atno 17342 bound_to 10162
  140.6828  143.2335  151.5340 LP  0  0  0  0  0  0  0  0  0  0  0  0  # atno 17343 bound_to 10162
  157.4055  130.7356  149.6799 LP  0  0  0  0  0  0  0  0  0  0  0  0  # atno 17370 bound_to 10713
  155.9740  130.4109  150.3955 LP  0  0  0  0  0  0  0  0  0  0  0  0  # atno 17371 bound_to 10713
  140.7485  133.8917  155.8329 LP  0  0  0  0  0  0  0  0  0  0  0  0  # atno 17394 bound_to 11000
  141.0020  134.1137  157.4308 LP  0  0  0  0  0  0  0  0  0  0  0  0  # atno 17395 bound_to 11000

$$$$
