AV-unprocessed.smi:1641|AV-procd|sdf|6568|dock2
  -GOLD-   22720 7253D 1   1.00000     0.00000
 Structure written by MMmdl.
 41 42  0  0  0  0  0  0  0  0  3 V2000
  148.9123  140.8038  154.5705 C   0  0  0  0  0  0  0  0  0  0  0  0
  149.7946  139.6026  154.5813 C   0  0  0  0  0  0  0  0  0  0  0  0
  151.1251  139.6807  154.4986 N   0  0  0  0  0  0  0  0  0  0  0  0
  151.7250  138.4299  154.5260 N   0  0  0  0  0  0  0  0  0  0  0  0
  150.8417  137.4254  154.6170 C   0  0  0  0  0  0  0  0  0  0  0  0
  151.2152  136.1357  154.6568 N   0  5  0  0  0  0  0  0  0  0  0  0
  150.3301  135.1889  155.0406 C   0  0  0  0  0  0  0  0  0  0  0  0
  150.3557  134.5469  156.0933 O   0  0  0  0  0  0  0  0  0  0  0  0
  149.3580  134.9646  154.1453 N   0  0  0  0  0  0  0  0  0  0  0  0
  148.2823  133.9902  154.2841 C   0  0  0  0  0  0  0  0  0  0  0  0
  146.8998  134.6513  154.1211 C   0  0  0  0  0  0  0  0  0  0  0  0
  146.1614  134.1388  152.9410 N   0  3  1  0  0  0  0  0  0  0  0  0
  146.3505  132.6825  152.7479 C   0  0  0  0  0  0  0  0  0  0  0  0
  145.6558  132.2138  151.4569 C   0  0  1  0  0  0  0  0  0  0  0  0
  145.7508  130.6952  151.2726 C   0  0  0  0  0  0  0  0  0  0  0  0
  144.2748  132.5623  151.5058 O   0  0  0  0  0  0  0  0  0  0  0  0
  144.0133  133.9543  151.6844 C   0  0  2  0  0  0  0  0  0  0  0  0
  144.3430  134.7758  150.4250 C   0  0  0  0  0  0  0  0  0  0  0  0
  144.7148  134.4697  152.9563 C   0  0  0  0  0  0  0  0  0  0  0  0
  149.1660  137.9680  154.6992 S   0  0  0  0  0  0  0  0  0  0  0  0
  148.6971  141.0977  153.5431 H   0  0  0  0  0  0  0  0  0  0  0  0
  149.3976  141.6362  155.0809 H   0  0  0  0  0  0  0  0  0  0  0  0
  147.9720  140.5856  155.0772 H   0  0  0  0  0  0  0  0  0  0  0  0
  149.3723  135.5158  153.2994 H   0  0  0  0  0  0  0  0  0  0  0  0
  148.4350  133.1892  153.5606 H   0  0  0  0  0  0  0  0  0  0  0  0
  148.3629  133.5364  155.2720 H   0  0  0  0  0  0  0  0  0  0  0  0
  146.3202  134.4460  155.0222 H   0  0  0  0  0  0  0  0  0  0  0  0
  146.9855  135.7369  154.0519 H   0  0  0  0  0  0  0  0  0  0  0  0
  147.4154  132.4535  152.6921 H   0  0  0  0  0  0  0  0  0  0  0  0
  145.9522  132.1466  153.6114 H   0  0  0  0  0  0  0  0  0  0  0  0
  146.1254  132.6882  150.5950 H   0  0  0  0  0  0  0  0  0  0  0  0
  146.7898  130.3689  151.2208 H   0  0  0  0  0  0  0  0  0  0  0  0
  145.2593  130.3837  150.3506 H   0  0  0  0  0  0  0  0  0  0  0  0
  145.2744  130.1660  152.0983 H   0  0  0  0  0  0  0  0  0  0  0  0
  142.9379  134.0404  151.8420 H   0  0  0  0  0  0  0  0  0  0  0  0
  144.0088  135.8074  150.5389 H   0  0  0  0  0  0  0  0  0  0  0  0
  143.8416  134.3629  149.5493 H   0  0  0  0  0  0  0  0  0  0  0  0
  145.4122  134.8047  150.2165 H   0  0  0  0  0  0  0  0  0  0  0  0
  144.2562  134.0150  153.8359 H   0  0  0  0  0  0  0  0  0  0  0  0
  144.5607  135.5445  153.0449 H   0  0  0  0  0  0  0  0  0  0  0  0
  146.5631  134.5895  152.1314 H   0  0  0  0  0  0  0  0  0  0  0  0
  1  2  1  0  0  0  0
  1 21  1  0  0  0  0
  1 22  1  0  0  0  0
  1 23  1  0  0  0  0
  2 20  1  0  0  0  0
  2  3  2  0  0  0  0
  3  4  1  0  0  0  0
  4  5  2  0  0  0  0
  5  6  1  0  0  0  0
  5 20  1  0  0  0  0
  6  7  1  0  0  0  0
  7  8  2  0  0  0  0
  7  9  1  0  0  0  0
  9 10  1  0  0  0  0
  9 24  1  0  0  0  0
 10 11  1  0  0  0  0
 10 25  1  0  0  0  0
 10 26  1  0  0  0  0
 11 12  1  0  0  0  0
 11 27  1  0  0  0  0
 11 28  1  0  0  0  0
 12 19  1  0  0  0  0
 12 13  1  0  0  0  0
 12 41  1  0  0  0  0
 13 14  1  0  0  0  0
 13 29  1  0  0  0  0
 13 30  1  0  0  0  0
 14 15  1  0  0  0  0
 14 16  1  0  0  0  0
 14 31  1  0  0  0  0
 15 32  1  0  0  0  0
 15 33  1  0  0  0  0
 15 34  1  0  0  0  0
 16 17  1  0  0  0  0
 17 18  1  0  0  0  0
 17 19  1  0  0  0  0
 17 35  1  0  0  0  0
 18 36  1  0  0  0  0
 18 37  1  0  0  0  0
 18 38  1  0  0  0  0
 19 39  1  0  0  0  0
 19 40  1  0  0  0  0
M  CHG  1   6  -1
M  CHG  1  12   1
M  END
> <s_m_source_file>
AV-unprocessed.smi

> <i_m_source_file_index>
1641

> <i_lp_mmshare_version>
43012

> <i_f3d_flags>
0

> <s_epik_input>
W0NIM11jMW5uYyhzMSlbTkhdQyg9TylbTkhdW0NIMl1bQ0gyXU4yW0NIMl1bQ0BASF0oW0NIM10pT1tDQEBIXShbQ0gzXSlbQ0gyXTI=

> <s_epik_cmdline>
J2VwaWtfcHl0aG9uJywgJy1waCcsICc3LjAnLCAnLXRuJywgJzgnLCAnLW1hJywgJzIwMCcsICctbWV0YWxfYmluZGluZycsICctaW1hZScsICc8aW5maWxlLm1hZT4nLCAnLW9tYWUnLCAnPG91dGZpbGUubWFlPic=

> <r_lp_tautomer_probability>
1

> <r_epik_Ionization_Penalty>
3.5343

> <r_epik_Ionization_Penalty_Charging>
3.42778

> <r_epik_Ionization_Penalty_Neutral>
0.106519

> <r_epik_State_Penalty>
3.62118

> <r_epik_Charging_Adjusted_Penalty>
7.04896

> <i_epik_Tot_Q>
0

> <i_epik_Tot_abs_Q>
2

> <r_epik_Metal_State_Penalty>
1.13984

> <b_epik_Metal_Only>
1

> <s_lp_Force_Field>
OPLS_2005

> <r_lp_Energy>
9.90371

> <b_lp_Chiralities_Consistent>
1

> <s_lp_Variant>
AV-unprocessed.smi:1641-13

> <Gold.Version>
5.8.1

> <Gold.Id.Protein>
6NUR|6NUR_protein|mol2

> <Gold.PLP.Fitness>
39.2783

> <Gold.PLP.PLP>
-29.7244

> <Gold.PLP.part.hbond>
-3.0000

> <Gold.PLP.part.metal>
0.0000

> <Gold.PLP.part.buried>
-6.0785

> <Gold.PLP.part.nonpolar>
-22.0753

> <Gold.PLP.part.repulsive>
0.5646

> <Gold.PLP.ligand.clash>
0.0000

> <Gold.PLP.ligand.torsion>
1.2624

> <Gold.PLP.Chemscore.Hbond>
4.0000

> <Gold.PLP.Chemscore.CHOScore>
0.0000

> <Gold.PLP.Chemscore.Metal>
0.0000

> <Gold.Chemscore.Hbonds>
donor molecule, donor type, donor heavy atom, donor atom, acceptor molecule, acceptor atom, score
      L1  H     9    24       P1  7948  0.90
      P1  H  7989  7998       L1     3  1.00
      P1  H 10752 10764       L1     6  2.00

> <Gold.PLP.Chemscore.Internal.Correction>
0.0788

> <Gold.Rescore>
     Score         DG    S(hbond)    S(metal)    S(lipo)     H(rot)  DE(clash)    DE(int)     intcor
     14.17     -15.40       2.10        0.00      59.96       1.61       0.04       1.19       ----

> <Gold.Chemscore.Fitness>
14.1737

> <Gold.Chemscore.DG>
-15.4027

> <Gold.Chemscore.ZeroCoef>
-5.4800

> <Gold.Chemscore.Hbond>
2.1020

> <Gold.Chemscore.Metal>
0.0000

> <Gold.Chemscore.Lipo>
59.9640

> <Gold.Chemscore.Internal_Hbond>
0.0000

> <Gold.Chemscore.DEClash>
0.0383

> <Gold.Chemscore.DEInternal>
1.1907

> <Gold.Chemscore.Rot>
1.6070

> <Gold.Chemscore.Internal.Correction>
   9.000000E+99

> <Gold.Chemscore.Hbonds>
donor molecule, donor type, donor heavy atom, donor atom, acceptor molecule, acceptor atom, score
      L1  H     9    24       P1  7948  0.18
      P1  H  7989  7998       L1     3  0.84
      P1  H 10752 10764       L1     6  0.95

> <Gold.Chemscore.Hbond.Weighted>
-7.0208

> <Gold.Chemscore.Metal.Weighted>
-0.0000

> <Gold.Chemscore.Lipo.Weighted>
-7.0158

> <Gold.Chemscore.Internal_Hbond.Weighted>
0.0000

> <Gold.Chemscore.DEClash.Weighted>
0.0383

> <Gold.Chemscore.DEInternal.Weighted>
1.1907

> <Gold.Chemscore.Rot.Weighted>
4.1139

> <Gold.Chemscore.Internal.Correction.Weighted>
   9.000000E+99

> <Gold.Protein.RotatedTorsions>
[ 6907 6896 6895 6894 ] final    3.45 input  -60.11 | X-H torsion
[ 7974 7965 7964 7962 ] final  -36.19 input  175.53 | X-H torsion
[ 8008 7997 7996 7995 ] final -104.36 input   59.86 | X-H torsion
[ 10167 10162 10161 10158 ] final -126.06 input  -65.29 | X-H torsion
[ 10718 10713 10712 10709 ] final   94.77 input   66.30 | X-H torsion
[ 10763 10752 10751 10750 ] final  -73.45 input  -60.55 | X-H torsion
[ 11005 11000 10999 10996 ] final  -38.96 input  -57.11 | X-H torsion

> <Gold.Protein.ActiveResidues>
 VAL166  LYS551  ARG553  GLY616  TRP617  ASP618  TYR619  PRO620  LYS621  CYS622 
 ASP623  PHE694  ASN695  SER759  ASP760  ASP761  ALA762  ILE779  LEU786  VAL792 
 PHE793  MET794  SER795  GLU796  ALA797  LYS798  CYS799  TRP800  GLU811  SER814 

> <Gold.Protein.RotatedAtoms>
  151.6253  135.1028  160.0110 H   0  0  0  0  0  0  0  0  0  0  0  0  # atno 6907 bound_to 6896
  152.4135  133.6997  159.6427 H   0  0  0  0  0  0  0  0  0  0  0  0  # atno 6908 bound_to 6896
  150.8024  133.8498  159.3243 H   0  0  0  0  0  0  0  0  0  0  0  0  # atno 6909 bound_to 6896
  146.0683  140.6249  142.8965 H   0  0  0  0  0  0  0  0  0  0  0  0  # atno 7974 bound_to 7965
  154.8842  140.0418  157.1800 H   0  0  0  0  0  0  0  0  0  0  0  0  # atno 8008 bound_to 7997
  154.8608  140.2943  155.5519 H   0  0  0  0  0  0  0  0  0  0  0  0  # atno 8009 bound_to 7997
  156.2998  140.2447  156.3581 H   0  0  0  0  0  0  0  0  0  0  0  0  # atno 8010 bound_to 7997
  139.9754  143.5800  152.2397 H   0  0  0  0  0  0  0  0  0  0  0  0  # atno 10167 bound_to 10162
  157.6945  131.0523  150.4238 H   0  0  0  0  0  0  0  0  0  0  0  0  # atno 10718 bound_to 10713
  154.4597  135.5897  153.6247 H   0  0  0  0  0  0  0  0  0  0  0  0  # atno 10763 bound_to 10752
  152.9822  135.6041  154.3502 H   0  0  0  0  0  0  0  0  0  0  0  0  # atno 10764 bound_to 10752
  154.3372  135.2842  155.2420 H   0  0  0  0  0  0  0  0  0  0  0  0  # atno 10765 bound_to 10752
  141.0067  133.6928  156.2123 H   0  0  0  0  0  0  0  0  0  0  0  0  # atno 11005 bound_to 11000
  144.7216  140.4390  143.7004 LP  0  0  0  0  0  0  0  0  0  0  0  0  # atno 17320 bound_to 7965
  145.6438  139.1554  143.2900 LP  0  0  0  0  0  0  0  0  0  0  0  0  # atno 17321 bound_to 7965
  139.6449  144.7657  151.2263 LP  0  0  0  0  0  0  0  0  0  0  0  0  # atno 17342 bound_to 10162
  140.7507  143.6255  150.8472 LP  0  0  0  0  0  0  0  0  0  0  0  0  # atno 17343 bound_to 10162
  156.4610  130.4032  149.6576 LP  0  0  0  0  0  0  0  0  0  0  0  0  # atno 17370 bound_to 10713
  156.3691  130.7521  151.2502 LP  0  0  0  0  0  0  0  0  0  0  0  0  # atno 17371 bound_to 10713
  140.6802  134.4776  157.5589 LP  0  0  0  0  0  0  0  0  0  0  0  0  # atno 17394 bound_to 11000
  139.9067  134.8434  156.1680 LP  0  0  0  0  0  0  0  0  0  0  0  0  # atno 17395 bound_to 11000

$$$$
