AV-unprocessed.smi:522|AV-procd|sdf|2801|dock4
  -GOLD-   2262023273D 1   1.00000     0.00000
 Structure written by MMmdl.
 41 42  0  0  0  0  0  0  0  0  1 V2000
  148.8629  140.0147  154.2499 C   0  0  0  0  0  0  0  0  0  0  0  0
  150.2294  140.3206  154.4650 O   0  0  0  0  0  0  0  0  0  0  0  0
  150.4363  141.0179  155.6830 C   0  0  0  0  0  0  0  0  0  0  0  0
  150.0175  140.1432  156.8723 C   0  0  0  0  0  0  0  0  0  0  0  0
  151.0115  140.1551  157.9357 N   0  0  0  0  0  0  0  0  0  0  0  0
  151.6505  139.1015  158.5024 C   0  0  0  0  0  0  0  0  0  0  0  0
  151.3434  137.4394  157.9835 S   0  0  0  0  0  0  0  0  0  0  0  0
  149.6003  137.2702  158.4769 C   0  0  0  0  0  0  0  0  0  0  0  0
  149.2138  135.8025  158.6736 C   0  0  0  0  0  0  0  0  0  0  0  0
  149.6335  134.9879  157.8508 O   0  0  0  0  0  0  0  0  0  0  0  0
  148.3571  135.4643  159.8437 C   0  0  0  0  0  0  0  0  0  0  0  0
  147.8537  136.4855  160.7069 C   0  0  0  0  0  0  0  0  0  0  0  0
  147.4557  137.3066  161.4197 N   0  0  0  0  0  0  0  0  0  0  0  0
  148.0118  134.1835  160.1436 C   0  0  0  0  0  0  0  0  0  0  0  0
  147.1369  133.8433  161.3407 C   0  0  0  0  0  0  0  0  0  0  0  0
  148.3909  133.0566  159.4329 N   0  0  0  0  0  0  0  0  0  0  0  0
  152.5273  139.4102  159.4597 N   0  0  0  0  0  0  0  0  0  0  0  0
  152.4330  140.7854  159.5335 C   0  0  0  0  0  0  0  0  0  0  0  0
  153.1031  141.7095  160.3666 C   0  0  0  0  0  0  0  0  0  0  0  0
  152.8368  143.0902  160.2590 C   0  0  0  0  0  0  0  0  0  0  0  0
  151.9002  143.5656  159.3182 C   0  0  0  0  0  0  0  0  0  0  0  0
  151.2226  142.6612  158.4780 C   0  0  0  0  0  0  0  0  0  0  0  0
  151.4915  141.2840  158.5908 C   0  0  0  0  0  0  0  0  0  0  0  0
  148.7449  139.4951  153.3005 H   0  0  0  0  0  0  0  0  0  0  0  0
  148.2566  140.9203  154.2121 H   0  0  0  0  0  0  0  0  0  0  0  0
  148.4761  139.3658  155.0369 H   0  0  0  0  0  0  0  0  0  0  0  0
  151.4879  141.2909  155.7814 H   0  0  0  0  0  0  0  0  0  0  0  0
  149.8594  141.9443  155.6838 H   0  0  0  0  0  0  0  0  0  0  0  0
  149.0531  140.4667  157.2630 H   0  0  0  0  0  0  0  0  0  0  0  0
  149.8792  139.1131  156.5427 H   0  0  0  0  0  0  0  0  0  0  0  0
  149.4445  137.8102  159.4109 H   0  0  0  0  0  0  0  0  0  0  0  0
  148.9516  137.7353  157.7347 H   0  0  0  0  0  0  0  0  0  0  0  0
  147.6094  134.1790  162.2646 H   0  0  0  0  0  0  0  0  0  0  0  0
  146.9619  132.7699  161.4288 H   0  0  0  0  0  0  0  0  0  0  0  0
  146.1659  134.3323  161.2544 H   0  0  0  0  0  0  0  0  0  0  0  0
  148.9736  133.1126  158.6098 H   0  0  0  0  0  0  0  0  0  0  0  0
  148.0868  132.1315  159.7048 H   0  0  0  0  0  0  0  0  0  0  0  0
  153.8226  141.3555  161.0898 H   0  0  0  0  0  0  0  0  0  0  0  0
  153.3538  143.7879  160.9013 H   0  0  0  0  0  0  0  0  0  0  0  0
  151.7024  144.6248  159.2424 H   0  0  0  0  0  0  0  0  0  0  0  0
  150.5041  143.0214  157.7567 H   0  0  0  0  0  0  0  0  0  0  0  0
  1  2  1  0  0  0  0
  1 24  1  0  0  0  0
  1 25  1  0  0  0  0
  1 26  1  0  0  0  0
  2  3  1  0  0  0  0
  3  4  1  0  0  0  0
  3 27  1  0  0  0  0
  3 28  1  0  0  0  0
  4  5  1  0  0  0  0
  4 29  1  0  0  0  0
  4 30  1  0  0  0  0
  5 23  1  0  0  0  0
  5  6  1  0  0  0  0
  6  7  1  0  0  0  0
  6 17  2  0  0  0  0
  7  8  1  0  0  0  0
  8  9  1  0  0  0  0
  8 31  1  0  0  0  0
  8 32  1  0  0  0  0
  9 10  2  0  0  0  0
  9 11  1  0  0  0  0
 11 12  1  0  0  0  0
 11 14  2  0  0  0  0
 12 13  3  0  0  0  0
 14 15  1  0  0  0  0
 14 16  1  0  0  0  0
 15 33  1  0  0  0  0
 15 34  1  0  0  0  0
 15 35  1  0  0  0  0
 16 36  1  0  0  0  0
 16 37  1  0  0  0  0
 17 18  1  0  0  0  0
 18 23  2  0  0  0  0
 18 19  1  0  0  0  0
 19 20  2  0  0  0  0
 19 38  1  0  0  0  0
 20 21  1  0  0  0  0
 20 39  1  0  0  0  0
 21 22  2  0  0  0  0
 21 40  1  0  0  0  0
 22 23  1  0  0  0  0
 22 41  1  0  0  0  0
M  END
> <s_m_source_file>
AV-unprocessed.smi

> <i_m_source_file_index>
522

> <i_lp_mmshare_version>
43012

> <i_f3d_flags>
0

> <s_epik_input>
W2NIXTFbY0hdW2NIXVtjSF1jKGMxMiluKFtDSDJdW0NIMl1PW0NIM10pYyhuMilTW0NIMl1DKD1PKS9DKEMjTik9QygvW0NIM10pW05IMl0=

> <s_epik_cmdline>
J2VwaWtfcHl0aG9uJywgJy1waCcsICc3LjAnLCAnLXRuJywgJzgnLCAnLW1hJywgJzIwMCcsICctbWV0YWxfYmluZGluZycsICctaW1hZScsICc8aW5maWxlLm1hZT4nLCAnLW9tYWUnLCAnPG91dGZpbGUubWFlPic=

> <r_lp_tautomer_probability>
0.5

> <r_epik_Ionization_Penalty>
0.0129021

> <r_epik_Ionization_Penalty_Charging>
0

> <r_epik_Ionization_Penalty_Neutral>
0.0129021

> <r_epik_State_Penalty>
0.42069

> <r_epik_Charging_Adjusted_Penalty>
0.42069

> <i_epik_Tot_Q>
0

> <i_epik_Tot_abs_Q>
0

> <r_epik_Metal_State_Penalty>
0.41068

> <b_epik_Metal_Only>
0

> <s_lp_Force_Field>
OPLS_2005

> <r_lp_Energy>
14.5632

> <b_lp_Chiralities_Consistent>
1

> <s_lp_Variant>
AV-unprocessed.smi:522-1

> <Gold.Version>
5.8.1

> <Gold.Id.Protein>
6NUR|6NUR_protein|mol2

> <Gold.PLP.Fitness>
49.5993

> <Gold.PLP.PLP>
-41.1972

> <Gold.PLP.part.hbond>
-4.0000

> <Gold.PLP.part.metal>
0.0000

> <Gold.PLP.part.buried>
-3.7169

> <Gold.PLP.part.nonpolar>
-33.7736

> <Gold.PLP.part.repulsive>
0.1893

> <Gold.PLP.ligand.clash>
0.0000

> <Gold.PLP.ligand.torsion>
0.7352

> <Gold.PLP.Chemscore.Hbond>
3.2256

> <Gold.PLP.Chemscore.CHOScore>
0.0000

> <Gold.PLP.Chemscore.Metal>
0.0000

> <Gold.Chemscore.Hbonds>
donor molecule, donor type, donor heavy atom, donor atom, acceptor molecule, acceptor atom, score
      P1  H  6896  6907       L1    10  0.38
      P1  H  6931  6943       L1    13  0.86
      P1  H  6934  6947       L1    13  0.88
      P1  H  7989  7998       L1     2  1.00

> <Gold.PLP.Chemscore.Internal.Correction>
0.1956

> <Gold.Rescore>
     Score         DG    S(hbond)    S(metal)    S(lipo)     H(rot)  DE(clash)    DE(int)     intcor
     18.16     -18.99       2.51        0.00      94.63       2.33       0.14       0.70       ----

> <Gold.Chemscore.Fitness>
18.1590

> <Gold.Chemscore.DG>
-18.9904

> <Gold.Chemscore.ZeroCoef>
-5.4800

> <Gold.Chemscore.Hbond>
2.5145

> <Gold.Chemscore.Metal>
0.0000

> <Gold.Chemscore.Lipo>
94.6301

> <Gold.Chemscore.Internal_Hbond>
0.0000

> <Gold.Chemscore.DEClash>
0.1360

> <Gold.Chemscore.DEInternal>
0.6954

> <Gold.Chemscore.Rot>
2.3280

> <Gold.Chemscore.Internal.Correction>
   9.000000E+99

> <Gold.Chemscore.Hbonds>
donor molecule, donor type, donor heavy atom, donor atom, acceptor molecule, acceptor atom, score
      P1  H  6896  6907       L1    10  0.01
      P1  H  6931  6943       L1    13  0.38
      P1  H  6934  6947       L1    13  0.86
      P1  H  7989  7998       L1     2  0.33

> <Gold.Chemscore.Hbond.Weighted>
-8.3985

> <Gold.Chemscore.Metal.Weighted>
-0.0000

> <Gold.Chemscore.Lipo.Weighted>
-11.0717

> <Gold.Chemscore.Internal_Hbond.Weighted>
0.0000

> <Gold.Chemscore.DEClash.Weighted>
0.1360

> <Gold.Chemscore.DEInternal.Weighted>
0.6954

> <Gold.Chemscore.Rot.Weighted>
5.9598

> <Gold.Chemscore.Internal.Correction.Weighted>
   9.000000E+99

> <Gold.Protein.RotatedTorsions>
[ 6907 6896 6895 6894 ] final -100.43 input  -60.11 | X-H torsion
[ 7974 7965 7964 7962 ] final  154.11 input  175.53 | X-H torsion
[ 8008 7997 7996 7995 ] final  -90.95 input   59.86 | X-H torsion
[ 10167 10162 10161 10158 ] final  132.27 input  -65.29 | X-H torsion
[ 10718 10713 10712 10709 ] final  -31.45 input   66.30 | X-H torsion
[ 10763 10752 10751 10750 ] final   52.94 input  -60.55 | X-H torsion
[ 11005 11000 10999 10996 ] final  131.29 input  -57.11 | X-H torsion

> <Gold.Protein.ActiveResidues>
 VAL166  LYS551  ARG553  GLY616  TRP617  ASP618  TYR619  PRO620  LYS621  CYS622 
 ASP623  PHE694  ASN695  SER759  ASP760  ASP761  ALA762  ILE779  LEU786  VAL792 
 PHE793  MET794  SER795  GLU796  ALA797  LYS798  CYS799  TRP800  GLU811  SER814 

> <Gold.Protein.RotatedAtoms>
  150.7115  134.0889  159.3924 H   0  0  0  0  0  0  0  0  0  0  0  0  # atno 6907 bound_to 6896
  151.8874  135.0427  160.0504 H   0  0  0  0  0  0  0  0  0  0  0  0  # atno 6908 bound_to 6896
  152.2519  133.5187  159.5367 H   0  0  0  0  0  0  0  0  0  0  0  0  # atno 6909 bound_to 6896
  144.8110  139.6890  143.6141 H   0  0  0  0  0  0  0  0  0  0  0  0  # atno 7974 bound_to 7965
  154.7047  140.0525  157.0493 H   0  0  0  0  0  0  0  0  0  0  0  0  # atno 8008 bound_to 7997
  155.0636  140.3192  155.4634 H   0  0  0  0  0  0  0  0  0  0  0  0  # atno 8009 bound_to 7997
  156.2771  140.2094  156.5763 H   0  0  0  0  0  0  0  0  0  0  0  0  # atno 8010 bound_to 7997
  139.5347  144.6669  151.4827 H   0  0  0  0  0  0  0  0  0  0  0  0  # atno 10167 bound_to 10162
  156.3871  130.4366  149.7423 H   0  0  0  0  0  0  0  0  0  0  0  0  # atno 10718 bound_to 10713
  152.9792  135.5796  154.4660 H   0  0  0  0  0  0  0  0  0  0  0  0  # atno 10763 bound_to 10752
  154.4229  135.2772  155.1965 H   0  0  0  0  0  0  0  0  0  0  0  0  # atno 10764 bound_to 10752
  154.3706  135.6168  153.5792 H   0  0  0  0  0  0  0  0  0  0  0  0  # atno 10765 bound_to 10752
  139.9721  134.9574  156.9417 H   0  0  0  0  0  0  0  0  0  0  0  0  # atno 11005 bound_to 11000
  146.2409  139.5999  142.9492 LP  0  0  0  0  0  0  0  0  0  0  0  0  # atno 17320 bound_to 7965
  145.5324  141.0426  143.2376 LP  0  0  0  0  0  0  0  0  0  0  0  0  # atno 17321 bound_to 7965
  140.6546  143.8625  150.6822 LP  0  0  0  0  0  0  0  0  0  0  0  0  # atno 17342 bound_to 10162
  140.2000  143.3966  152.1798 LP  0  0  0  0  0  0  0  0  0  0  0  0  # atno 17343 bound_to 10162
  156.4491  130.7898  151.2919 LP  0  0  0  0  0  0  0  0  0  0  0  0  # atno 17370 bound_to 10713
  157.7496  131.0101  150.3292 LP  0  0  0  0  0  0  0  0  0  0  0  0  # atno 17371 bound_to 10713
  140.5270  134.0851  155.7306 LP  0  0  0  0  0  0  0  0  0  0  0  0  # atno 17394 bound_to 11000
  141.1401  133.9154  157.2346 LP  0  0  0  0  0  0  0  0  0  0  0  0  # atno 17395 bound_to 11000

$$$$
