AV-unprocessed.smi:283|AV-procd|sdf|2156|dock1
  -GOLD-   2262021503D 1   1.00000     0.00000
 Structure written by MMmdl.
 48 51  0  0  0  0  0  0  0  0  1 V2000
  150.7807  140.6198  158.2937 C   0  0  0  0  0  0  0  0  0  0  0  0
  151.5219  141.8034  157.6462 C   0  0  1  0  0  0  0  0  0  0  0  0
  150.8700  142.2229  156.4060 N   0  0  0  0  0  0  0  0  0  0  0  0
  149.9846  141.4303  155.7623 C   0  0  0  0  0  0  0  0  0  0  0  0
  150.3869  140.5353  154.8227 N   0  0  0  0  0  0  0  0  0  0  0  0
  149.4869  139.7668  154.2022 C   0  0  0  0  0  0  0  0  0  0  0  0
  148.1618  139.7398  154.3611 N   0  0  0  0  0  0  0  0  0  0  0  0
  147.7513  140.6452  155.2959 C   0  0  0  0  0  0  0  0  0  0  0  0
  148.5959  141.5146  156.0401 C   0  0  0  0  0  0  0  0  0  0  0  0
  147.8322  142.2783  156.9121 N   0  0  0  0  0  0  0  0  0  0  0  0
  146.6091  141.8747  156.6964 C   0  0  0  0  0  0  0  0  0  0  0  0
  146.4647  140.9163  155.7138 N   0  0  0  0  0  0  0  0  0  0  0  0
  145.2180  140.2319  155.2366 C   0  0  1  0  0  0  0  0  0  0  0  0
  145.3193  138.8746  155.5602 O   0  0  0  0  0  0  0  0  0  0  0  0
  144.4958  138.5470  156.6778 C   0  0  1  0  0  0  0  0  0  0  0  0
  145.2873  138.6921  157.9923 C   0  0  0  0  0  0  0  0  0  0  0  0
  146.3755  137.7930  158.0135 O   0  0  0  0  0  0  0  0  0  0  0  0
  143.3259  139.5256  156.5487 C   0  0  2  0  0  0  0  0  0  0  0  0
  142.3499  138.9497  155.6967 O   0  0  0  0  0  0  0  0  0  0  0  0
  143.9725  140.7796  155.9626 C   0  0  2  0  0  0  0  0  0  0  0  0
  143.0889  141.4812  155.1082 O   0  0  0  0  0  0  0  0  0  0  0  0
  151.6571  142.9459  158.6513 C   0  0  0  0  0  0  0  0  0  0  0  0
  151.1076  144.2156  158.3544 C   0  0  0  0  0  0  0  0  0  0  0  0
  151.2159  145.2779  159.2715 C   0  0  0  0  0  0  0  0  0  0  0  0
  151.8711  145.0817  160.5000 C   0  0  0  0  0  0  0  0  0  0  0  0
  152.4110  143.8205  160.8118 C   0  0  0  0  0  0  0  0  0  0  0  0
  152.3040  142.7523  159.8986 C   0  0  0  0  0  0  0  0  0  0  0  0
  152.9698  141.2205  160.3472 Cl  0  0  0  0  0  0  0  0  0  0  0  0
  145.2191  140.3808  154.1561 H   0  0  0  0  0  0  0  0  0  0  0  0
  144.1690  137.5101  156.5815 H   0  0  0  0  0  0  0  0  0  0  0  0
  142.8487  139.7301  157.5077 H   0  0  0  0  0  0  0  0  0  0  0  0
  144.2819  141.4350  156.7782 H   0  0  0  0  0  0  0  0  0  0  0  0
  151.2964  140.2826  159.1933 H   0  0  0  0  0  0  0  0  0  0  0  0
  150.7127  139.7650  157.6215 H   0  0  0  0  0  0  0  0  0  0  0  0
  149.7654  140.8970  158.5788 H   0  0  0  0  0  0  0  0  0  0  0  0
  152.5272  141.4803  157.3793 H   0  0  0  0  0  0  0  0  0  0  0  0
  151.0990  143.1537  156.0885 H   0  0  0  0  0  0  0  0  0  0  0  0
  149.8850  139.0772  153.4725 H   0  0  0  0  0  0  0  0  0  0  0  0
  145.7756  142.2769  157.2533 H   0  0  0  0  0  0  0  0  0  0  0  0
  145.6853  139.7031  158.0785 H   0  0  0  0  0  0  0  0  0  0  0  0
  144.6573  138.5156  158.8645 H   0  0  0  0  0  0  0  0  0  0  0  0
  147.1749  138.2900  158.0986 H   0  0  0  0  0  0  0  0  0  0  0  0
  141.6478  138.6134  156.2326 H   0  0  0  0  0  0  0  0  0  0  0  0
  143.2246  141.1743  154.2247 H   0  0  0  0  0  0  0  0  0  0  0  0
  150.5925  144.3847  157.4201 H   0  0  0  0  0  0  0  0  0  0  0  0
  150.7939  146.2431  159.0326 H   0  0  0  0  0  0  0  0  0  0  0  0
  151.9557  145.8957  161.2047 H   0  0  0  0  0  0  0  0  0  0  0  0
  152.9080  143.6715  161.7593 H   0  0  0  0  0  0  0  0  0  0  0  0
  1  2  1  0  0  0  0
  1 33  1  0  0  0  0
  1 34  1  0  0  0  0
  1 35  1  0  0  0  0
  2  3  1  0  0  0  0
  2 22  1  0  0  0  0
  2 36  1  0  0  0  0
  3  4  1  0  0  0  0
  3 37  1  0  0  0  0
  4  9  1  0  0  0  0
  4  5  2  0  0  0  0
  5  6  1  0  0  0  0
  6  7  2  0  0  0  0
  6 38  1  0  0  0  0
  7  8  1  0  0  0  0
  8 12  1  0  0  0  0
  8  9  2  0  0  0  0
  9 10  1  0  0  0  0
 10 11  2  0  0  0  0
 11 12  1  0  0  0  0
 11 39  1  0  0  0  0
 12 13  1  0  0  0  0
 13 29  1  0  0  0  0
 13 20  1  0  0  0  0
 13 14  1  0  0  0  0
 14 15  1  0  0  0  0
 15 30  1  0  0  0  0
 15 16  1  0  0  0  0
 15 18  1  0  0  0  0
 16 17  1  0  0  0  0
 16 40  1  0  0  0  0
 16 41  1  0  0  0  0
 17 42  1  0  0  0  0
 18 31  1  0  0  0  0
 18 19  1  0  0  0  0
 18 20  1  0  0  0  0
 19 43  1  0  0  0  0
 20 32  1  0  0  0  0
 20 21  1  0  0  0  0
 21 44  1  0  0  0  0
 22 27  1  0  0  0  0
 22 23  2  0  0  0  0
 23 24  1  0  0  0  0
 23 45  1  0  0  0  0
 24 25  2  0  0  0  0
 24 46  1  0  0  0  0
 25 26  1  0  0  0  0
 25 47  1  0  0  0  0
 26 27  2  0  0  0  0
 26 48  1  0  0  0  0
 27 28  1  0  0  0  0
M  END
> <s_m_source_file>
AV-unprocessed.smi

> <i_m_source_file_index>
283

> <i_lp_mmshare_version>
43012

> <i_f3d_flags>
0

> <s_epik_input>
Q2xjMVtjSF1bY0hdW2NIXVtjSF1jMVtDQEhdKFtDSDNdKVtOSF1jKG5bY0hdbjIpYyhjMjMpbltjSF1uM1tDQEBIXTRPW0NASF0oW0NIMl1bT0hdKVtDQEBIXShbT0hdKVtDQEhdNFtPSF0=

> <s_epik_cmdline>
J2VwaWtfcHl0aG9uJywgJy1waCcsICc3LjAnLCAnLXRuJywgJzgnLCAnLW1hJywgJzIwMCcsICctbWV0YWxfYmluZGluZycsICctaW1hZScsICc8aW5maWxlLm1hZT4nLCAnLW9tYWUnLCAnPG91dGZpbGUubWFlPic=

> <r_lp_tautomer_probability>
1

> <r_epik_Ionization_Penalty>
0.000266407

> <r_epik_Ionization_Penalty_Charging>
0

> <r_epik_Ionization_Penalty_Neutral>
0.000266407

> <r_epik_State_Penalty>
-0

> <r_epik_Charging_Adjusted_Penalty>
0

> <i_epik_Tot_Q>
0

> <i_epik_Tot_abs_Q>
0

> <r_epik_Metal_State_Penalty>
-0

> <b_epik_Metal_Only>
0

> <s_epik_Chemistry_Notes>
This compound contains an acetal/aminal-like group ( X-CH(R)-Y where X, Y are N, S, or O) that may be acid/base labile, releasing an aldehyde.

> <s_lp_Force_Field>
OPLS_2005

> <r_lp_Energy>
46.4468

> <b_lp_Chiralities_Consistent>
1

> <s_lp_Variant>
AV-unprocessed.smi:283-32

> <Gold.Version>
5.8.1

> <Gold.Id.Protein>
6NUR|6NUR_protein|mol2

> <Gold.PLP.Fitness>
45.3731

> <Gold.PLP.PLP>
-39.5642

> <Gold.PLP.part.hbond>
-2.2130

> <Gold.PLP.part.metal>
0.0000

> <Gold.PLP.part.buried>
-5.4657

> <Gold.PLP.part.nonpolar>
-32.8322

> <Gold.PLP.part.repulsive>
1.4707

> <Gold.PLP.ligand.clash>
0.0000

> <Gold.PLP.ligand.torsion>
1.0437

> <Gold.PLP.Chemscore.Hbond>
2.0000

> <Gold.PLP.Chemscore.CHOScore>
0.5659

> <Gold.PLP.Chemscore.Metal>
0.0000

> <Gold.Chemscore.Hbonds>
donor molecule, donor type, donor heavy atom, donor atom, acceptor molecule, acceptor atom, score
      L1  H    21    44       P1 10175  1.00
      P1  H  7989  7998       L1     5  0.98
      L1  C     6    38       P1  7957  0.61

> <Gold.PLP.Chemscore.Internal.Correction>
0.1984

> <Gold.Rescore>
     Score         DG    S(hbond)    S(metal)    S(lipo)     H(rot)  DE(clash)    DE(int)     intcor
     10.24     -11.44       1.58        0.00      95.44       4.10       0.14       1.06       ----

> <Gold.Chemscore.Fitness>
10.2416

> <Gold.Chemscore.DG>
-11.4360

> <Gold.Chemscore.ZeroCoef>
-5.4800

> <Gold.Chemscore.Hbond>
1.5801

> <Gold.Chemscore.Metal>
0.0000

> <Gold.Chemscore.Lipo>
95.4382

> <Gold.Chemscore.Internal_Hbond>
0.0000

> <Gold.Chemscore.DEClash>
0.1359

> <Gold.Chemscore.DEInternal>
1.0585

> <Gold.Chemscore.Rot>
4.0968

> <Gold.Chemscore.Internal.Correction>
   9.000000E+99

> <Gold.Chemscore.Hbonds>
donor molecule, donor type, donor heavy atom, donor atom, acceptor molecule, acceptor atom, score
      L1  H    21    44       P1 10175  0.35
      P1  H  7989  7998       L1     5  0.37

> <Gold.Chemscore.Hbond.Weighted>
-5.2777

> <Gold.Chemscore.Metal.Weighted>
-0.0000

> <Gold.Chemscore.Lipo.Weighted>
-11.1663

> <Gold.Chemscore.Internal_Hbond.Weighted>
0.0000

> <Gold.Chemscore.DEClash.Weighted>
0.1359

> <Gold.Chemscore.DEInternal.Weighted>
1.0585

> <Gold.Chemscore.Rot.Weighted>
10.4879

> <Gold.Chemscore.Internal.Correction.Weighted>
   9.000000E+99

> <Gold.Protein.RotatedTorsions>
[ 6907 6896 6895 6894 ] final -103.41 input  -60.11 | X-H torsion
[ 7974 7965 7964 7962 ] final  166.86 input  175.53 | X-H torsion
[ 8008 7997 7996 7995 ] final  113.70 input   59.86 | X-H torsion
[ 10167 10162 10161 10158 ] final   84.73 input  -65.29 | X-H torsion
[ 10718 10713 10712 10709 ] final  -41.19 input   66.30 | X-H torsion
[ 10763 10752 10751 10750 ] final  -90.03 input  -60.55 | X-H torsion
[ 11005 11000 10999 10996 ] final   58.01 input  -57.11 | X-H torsion

> <Gold.Protein.ActiveResidues>
 VAL166  LYS551  ARG553  GLY616  TRP617  ASP618  TYR619  PRO620  LYS621  CYS622 
 ASP623  PHE694  ASN695  SER759  ASP760  ASP761  ALA762  ILE779  LEU786  VAL792 
 PHE793  MET794  SER795  GLU796  ALA797  LYS798  CYS799  TRP800  GLU811  SER814 

> <Gold.Protein.RotatedAtoms>
  150.7239  134.0433  159.3772 H   0  0  0  0  0  0  0  0  0  0  0  0  # atno 6907 bound_to 6896
  151.8407  135.0589  160.0457 H   0  0  0  0  0  0  0  0  0  0  0  0  # atno 6908 bound_to 6896
  152.2864  133.5483  159.5566 H   0  0  0  0  0  0  0  0  0  0  0  0  # atno 6909 bound_to 6896
  144.7446  139.8676  143.6386 H   0  0  0  0  0  0  0  0  0  0  0  0  # atno 7974 bound_to 7965
  156.2275  140.2974  156.0103 H   0  0  0  0  0  0  0  0  0  0  0  0  # atno 8008 bound_to 7997
  155.2317  140.0419  157.2980 H   0  0  0  0  0  0  0  0  0  0  0  0  # atno 8009 bound_to 7997
  154.5939  140.2409  155.7890 H   0  0  0  0  0  0  0  0  0  0  0  0  # atno 8010 bound_to 7997
  139.9050  144.6306  150.8596 H   0  0  0  0  0  0  0  0  0  0  0  0  # atno 10167 bound_to 10162
  156.2731  130.4209  149.8417 H   0  0  0  0  0  0  0  0  0  0  0  0  # atno 10718 bound_to 10713
  154.6615  135.5319  153.8024 H   0  0  0  0  0  0  0  0  0  0  0  0  # atno 10763 bound_to 10752
  153.0445  135.6507  154.0864 H   0  0  0  0  0  0  0  0  0  0  0  0  # atno 10764 bound_to 10752
  154.0772  135.2950  155.3277 H   0  0  0  0  0  0  0  0  0  0  0  0  # atno 10765 bound_to 10752
  140.0409  134.5875  155.9383 H   0  0  0  0  0  0  0  0  0  0  0  0  # atno 11005 bound_to 11000
  146.1303  139.4337  143.0173 LP  0  0  0  0  0  0  0  0  0  0  0  0  # atno 17320 bound_to 7965
  145.7173  141.0087  143.1421 LP  0  0  0  0  0  0  0  0  0  0  0  0  # atno 17321 bound_to 7965
  140.7698  143.3408  151.2212 LP  0  0  0  0  0  0  0  0  0  0  0  0  # atno 17342 bound_to 10162
  139.6992  143.9562  152.2897 LP  0  0  0  0  0  0  0  0  0  0  0  0  # atno 17343 bound_to 10162
  156.5891  130.8499  151.3403 LP  0  0  0  0  0  0  0  0  0  0  0  0  # atno 17370 bound_to 10713
  157.7290  130.9665  150.1768 LP  0  0  0  0  0  0  0  0  0  0  0  0  # atno 17371 bound_to 10713
  141.1882  133.6562  156.5316 LP  0  0  0  0  0  0  0  0  0  0  0  0  # atno 17394 bound_to 11000
  140.4071  134.7305  157.4814 LP  0  0  0  0  0  0  0  0  0  0  0  0  # atno 17395 bound_to 11000

$$$$
