AV-unprocessed.smi:100|AV-procd|sdf|899|dock6
  -GOLD-   2262017393D 1   1.00000     0.00000
 Structure written by MMmdl.
 31 33  0  0  0  0  0  0  0  0  1 V2000
  153.1790  137.0303  161.2348 N   0  0  0  0  0  0  0  0  0  0  0  0
  153.1533  136.9263  159.8990 C   0  0  0  0  0  0  0  0  0  0  0  0
  153.6632  135.8081  159.3308 N   0  0  0  0  0  0  0  0  0  0  0  0
  153.6491  135.6795  157.9997 C   0  0  0  0  0  0  0  0  0  0  0  0
  153.1831  136.5319  157.0820 N   0  0  0  0  0  0  0  0  0  0  0  0
  152.6735  137.6594  157.6592 C   0  0  0  0  0  0  0  0  0  0  0  0
  152.6187  137.9312  159.0538 C   0  0  0  0  0  0  0  0  0  0  0  0
  152.0287  139.1697  159.2710 N   0  0  0  0  0  0  0  0  0  0  0  0
  151.7529  139.6017  158.0689 C   0  0  0  0  0  0  0  0  0  0  0  0
  152.1124  138.7556  157.0415 N   0  0  0  0  0  0  0  0  0  0  0  0
  151.9339  138.9458  155.5718 C   0  0  2  0  0  0  0  0  0  0  0  0
  151.1025  140.0535  155.3933 O   0  0  0  0  0  0  0  0  0  0  0  0
  150.1449  139.7604  154.3868 C   0  0  2  0  0  0  0  0  0  0  0  0
  148.9314  140.6972  154.4923 C   0  0  0  0  0  0  0  0  0  0  0  0
  149.3378  142.0427  154.3591 O   0  0  0  0  0  0  0  0  0  0  0  0
  149.8564  138.2731  154.5991 C   0  0  2  0  0  0  0  0  0  0  0  0
  149.0185  138.0924  155.6223 F   0  0  0  0  0  0  0  0  0  0  0  0
  151.2235  137.7194  154.9696 C   0  0  1  0  0  0  0  0  0  0  0  0
  151.8890  137.2306  153.8223 O   0  0  0  0  0  0  0  0  0  0  0  0
  152.8052  137.8550  161.6820 H   0  0  0  0  0  0  0  0  0  0  0  0
  153.5746  136.2863  161.7909 H   0  0  0  0  0  0  0  0  0  0  0  0
  154.0731  134.7637  157.6149 H   0  0  0  0  0  0  0  0  0  0  0  0
  151.2770  140.5565  157.8981 H   0  0  0  0  0  0  0  0  0  0  0  0
  152.9318  139.1336  155.1726 H   0  0  0  0  0  0  0  0  0  0  0  0
  150.6333  139.8994  153.4202 H   0  0  0  0  0  0  0  0  0  0  0  0
  148.1822  140.4624  153.7361 H   0  0  0  0  0  0  0  0  0  0  0  0
  148.4522  140.5783  155.4645 H   0  0  0  0  0  0  0  0  0  0  0  0
  148.8848  142.5583  155.0087 H   0  0  0  0  0  0  0  0  0  0  0  0
  149.4070  137.7930  153.7290 H   0  0  0  0  0  0  0  0  0  0  0  0
  151.1515  136.9069  155.6947 H   0  0  0  0  0  0  0  0  0  0  0  0
  151.2915  137.2697  153.0909 H   0  0  0  0  0  0  0  0  0  0  0  0
  1  2  1  0  0  0  0
  1 20  1  0  0  0  0
  1 21  1  0  0  0  0
  2  7  1  0  0  0  0
  2  3  2  0  0  0  0
  3  4  1  0  0  0  0
  4  5  2  0  0  0  0
  4 22  1  0  0  0  0
  5  6  1  0  0  0  0
  6 10  1  0  0  0  0
  6  7  2  0  0  0  0
  7  8  1  0  0  0  0
  8  9  2  0  0  0  0
  9 10  1  0  0  0  0
  9 23  1  0  0  0  0
 10 11  1  0  0  0  0
 11 18  1  0  0  0  0
 11 12  1  0  0  0  0
 11 24  1  0  0  0  0
 12 13  1  0  0  0  0
 13 14  1  0  0  0  0
 13 16  1  0  0  0  0
 13 25  1  0  0  0  0
 14 15  1  0  0  0  0
 14 26  1  0  0  0  0
 14 27  1  0  0  0  0
 15 28  1  0  0  0  0
 16 17  1  0  0  0  0
 16 18  1  0  0  0  0
 16 29  1  0  0  0  0
 18 19  1  0  0  0  0
 18 30  1  0  0  0  0
 19 31  1  0  0  0  0
M  END
> <s_m_source_file>
AV-unprocessed.smi

> <i_m_source_file_index>
100

> <i_lp_mmshare_version>
43012

> <i_f3d_flags>
0

> <s_epik_input>
bjFbY0hdbmMoW05IMl0pYyhjMTIpbltjSF1uMltDQEBIXTNPW0NAQEhdKFtDSDJdW09IXSlbQ0BIXShGKVtDQEhdM1tPSF0=

> <s_epik_cmdline>
J2VwaWtfcHl0aG9uJywgJy1waCcsICc3LjAnLCAnLXRuJywgJzgnLCAnLW1hJywgJzIwMCcsICctbWV0YWxfYmluZGluZycsICctaW1hZScsICc8aW5maWxlLm1hZT4nLCAnLW9tYWUnLCAnPG91dGZpbGUubWFlPic=

> <r_lp_tautomer_probability>
1

> <r_epik_Ionization_Penalty>
0.000750324

> <r_epik_Ionization_Penalty_Charging>
0

> <r_epik_Ionization_Penalty_Neutral>
0.000750324

> <r_epik_State_Penalty>
-0

> <r_epik_Charging_Adjusted_Penalty>
0

> <i_epik_Tot_Q>
0

> <i_epik_Tot_abs_Q>
0

> <r_epik_Metal_State_Penalty>
-0

> <b_epik_Metal_Only>
0

> <s_epik_Chemistry_Notes>
This compound contains an acetal/aminal-like group ( X-CH(R)-Y where X, Y are N, S, or O) that may be acid/base labile, releasing an aldehyde.

> <s_lp_Force_Field>
OPLS_2005

> <r_lp_Energy>
28.7864

> <b_lp_Chiralities_Consistent>
1

> <s_lp_Variant>
AV-unprocessed.smi:100-3

> <Gold.Version>
5.8.1

> <Gold.Id.Protein>
6NUR|6NUR_protein|mol2

> <Gold.PLP.Fitness>
37.9594

> <Gold.PLP.PLP>
-26.5886

> <Gold.PLP.part.hbond>
-7.7646

> <Gold.PLP.part.metal>
0.0000

> <Gold.PLP.part.buried>
-2.9040

> <Gold.PLP.part.nonpolar>
-17.5941

> <Gold.PLP.part.repulsive>
0.1089

> <Gold.PLP.ligand.clash>
0.0000

> <Gold.PLP.ligand.torsion>
0.1751

> <Gold.PLP.Chemscore.Hbond>
3.9031

> <Gold.PLP.Chemscore.CHOScore>
0.0000

> <Gold.PLP.Chemscore.Metal>
0.0000

> <Gold.Chemscore.Hbonds>
donor molecule, donor type, donor heavy atom, donor atom, acceptor molecule, acceptor atom, score
      L1  H    15    28       P1  8028  0.34
      L1  H    19    31       P1  7949  0.53
      P1  H  6896  6909       L1     3  0.99
      P1  H  8011  8017       L1    15  0.28
      P1  H 10752 10763       L1    19  0.94
      P1  H 10752 10764       L1     5  0.60

> <Gold.PLP.Chemscore.Internal.Correction>
0.0117

> <Gold.Rescore>
     Score         DG    S(hbond)    S(metal)    S(lipo)     H(rot)  DE(clash)    DE(int)     intcor
      9.64      -9.87       2.60        0.00      32.96       3.19       0.05       0.19       ----

> <Gold.Chemscore.Fitness>
9.6355

> <Gold.Chemscore.DG>
-9.8671

> <Gold.Chemscore.ZeroCoef>
-5.4800

> <Gold.Chemscore.Hbond>
2.6041

> <Gold.Chemscore.Metal>
0.0000

> <Gold.Chemscore.Lipo>
32.9587

> <Gold.Chemscore.Internal_Hbond>
0.0000

> <Gold.Chemscore.DEClash>
0.0451

> <Gold.Chemscore.DEInternal>
0.1865

> <Gold.Chemscore.Rot>
3.1901

> <Gold.Chemscore.Internal.Correction>
   9.000000E+99

> <Gold.Chemscore.Hbonds>
donor molecule, donor type, donor heavy atom, donor atom, acceptor molecule, acceptor atom, score
      L1  H    15    28       P1  8028  0.33
      L1  H    19    31       P1  7949  0.35
      P1  H  6896  6909       L1     3  0.13
      P1  H  8011  8017       L1    15  0.20
      P1  H 10752 10763       L1    19  0.83
      P1  H 10752 10764       L1     5  0.08

> <Gold.Chemscore.Hbond.Weighted>
-8.6976

> <Gold.Chemscore.Metal.Weighted>
-0.0000

> <Gold.Chemscore.Lipo.Weighted>
-3.8562

> <Gold.Chemscore.Internal_Hbond.Weighted>
0.0000

> <Gold.Chemscore.DEClash.Weighted>
0.0451

> <Gold.Chemscore.DEInternal.Weighted>
0.1865

> <Gold.Chemscore.Rot.Weighted>
8.1667

> <Gold.Chemscore.Internal.Correction.Weighted>
   9.000000E+99

> <Gold.Protein.RotatedTorsions>
[ 6907 6896 6895 6894 ] final -172.63 input  -60.11 | X-H torsion
[ 7974 7965 7964 7962 ] final -139.25 input  175.53 | X-H torsion
[ 8008 7997 7996 7995 ] final  178.25 input   59.86 | X-H torsion
[ 10167 10162 10161 10158 ] final  126.89 input  -65.29 | X-H torsion
[ 10718 10713 10712 10709 ] final -123.58 input   66.30 | X-H torsion
[ 10763 10752 10751 10750 ] final   11.42 input  -60.55 | X-H torsion
[ 11005 11000 10999 10996 ] final   91.35 input  -57.11 | X-H torsion

> <Gold.Protein.ActiveResidues>
 VAL166  LYS551  ARG553  GLY616  TRP617  ASP618  TYR619  PRO620  LYS621  CYS622 
 ASP623  PHE694  ASN695  SER759  ASP760  ASP761  ALA762  ILE779  LEU786  VAL792 
 PHE793  MET794  SER795  GLU796  ALA797  LYS798  CYS799  TRP800  GLU811  SER814 

> <Gold.Protein.RotatedAtoms>
  151.5431  133.3429  159.2938 H   0  0  0  0  0  0  0  0  0  0  0  0  # atno 6907 bound_to 6896
  150.8523  134.7855  159.7030 H   0  0  0  0  0  0  0  0  0  0  0  0  # atno 6908 bound_to 6896
  152.4566  134.5285  159.9855 H   0  0  0  0  0  0  0  0  0  0  0  0  # atno 6909 bound_to 6896
  144.8692  140.6341  143.5278 H   0  0  0  0  0  0  0  0  0  0  0  0  # atno 7974 bound_to 7965
  156.0567  140.1338  156.9988 H   0  0  0  0  0  0  0  0  0  0  0  0  # atno 8008 bound_to 7997
  154.4461  140.1000  156.6527 H   0  0  0  0  0  0  0  0  0  0  0  0  # atno 8009 bound_to 7997
  155.5440  140.3461  155.4455 H   0  0  0  0  0  0  0  0  0  0  0  0  # atno 8010 bound_to 7997
  139.5607  144.6879  151.4052 H   0  0  0  0  0  0  0  0  0  0  0  0  # atno 10167 bound_to 10162
  156.1514  130.6537  150.9919 H   0  0  0  0  0  0  0  0  0  0  0  0  # atno 10718 bound_to 10713
  153.1928  135.6845  153.8330 H   0  0  0  0  0  0  0  0  0  0  0  0  # atno 10763 bound_to 10752
  153.7623  135.3208  155.3340 H   0  0  0  0  0  0  0  0  0  0  0  0  # atno 10764 bound_to 10752
  154.8127  135.4706  154.0659 H   0  0  0  0  0  0  0  0  0  0  0  0  # atno 10765 bound_to 10752
  139.8840  134.8669  156.3416 H   0  0  0  0  0  0  0  0  0  0  0  0  # atno 11005 bound_to 11000
  145.4163  139.1571  143.4098 LP  0  0  0  0  0  0  0  0  0  0  0  0  # atno 17320 bound_to 7965
  146.2918  140.4270  142.8736 LP  0  0  0  0  0  0  0  0  0  0  0  0  # atno 17321 bound_to 7965
  140.6886  143.7915  150.7222 LP  0  0  0  0  0  0  0  0  0  0  0  0  # atno 17342 bound_to 10162
  140.1390  143.4458  152.2206 LP  0  0  0  0  0  0  0  0  0  0  0  0  # atno 17343 bound_to 10162
  157.6660  131.0871  150.7727 LP  0  0  0  0  0  0  0  0  0  0  0  0  # atno 17370 bound_to 10713
  156.7795  130.4854  149.5403 LP  0  0  0  0  0  0  0  0  0  0  0  0  # atno 17371 bound_to 10713
  140.9655  133.7361  156.0461 LP  0  0  0  0  0  0  0  0  0  0  0  0  # atno 17394 bound_to 11000
  140.7936  134.3589  157.5458 LP  0  0  0  0  0  0  0  0  0  0  0  0  # atno 17395 bound_to 11000

$$$$
