AV-unprocessed.smi:1762|AV-procd|sdf|7112|dock9
  -GOLD-   22720 8343D 1   1.00000     0.00000
 Structure written by MMmdl.
 53 54  0  0  0  0  0  0  0  0  2 V2000
  145.9818  130.8162  151.5912 C   0  0  0  0  0  0  0  0  0  0  0  0
  146.0186  132.1229  152.3912 C   0  0  1  0  0  0  0  0  0  0  0  0
  147.2123  133.0136  151.9913 C   0  0  0  0  0  0  0  0  0  0  0  0
  147.2034  134.2985  152.7436 N   0  3  2  0  0  0  0  0  0  0  0  0
  147.6157  134.2337  154.1910 C   0  0  2  0  0  0  0  0  0  0  0  0
  147.1672  135.4982  154.9541 C   0  0  0  0  0  0  0  0  0  0  0  0
  146.3716  135.4080  155.8897 O   0  0  0  0  0  0  0  0  0  0  0  0
  147.6852  136.6660  154.5419 N   0  0  0  0  0  0  0  0  0  0  0  0
  147.3859  137.9671  155.1273 C   0  0  0  0  0  0  0  0  0  0  0  0
  148.2267  139.0840  154.4875 C   0  0  0  0  0  0  0  0  0  0  0  0
  149.6609  139.0700  154.9810 C   0  0  0  0  0  0  0  0  0  0  0  0
  150.1030  140.0089  155.9371 C   0  0  0  0  0  0  0  0  0  0  0  0
  151.4483  139.9616  156.3516 C   0  0  0  0  0  0  0  0  0  0  0  0
  152.2951  138.9833  155.7957 C   0  0  0  0  0  0  0  0  0  0  0  0
  151.7571  138.0927  154.8453 C   0  0  0  0  0  0  0  0  0  0  0  0
  150.4690  138.1305  154.4402 N   0  0  0  0  0  0  0  0  0  0  0  0
  149.1442  133.9718  154.4086 C   0  0  0  0  0  0  0  0  0  0  0  0
  149.6354  132.6575  153.7690 C   0  0  0  0  0  0  0  0  0  0  0  0
  149.5908  134.0402  155.8837 C   0  0  0  0  0  0  0  0  0  0  0  0
  145.8940  134.9688  152.4956 C   0  0  0  0  0  0  0  0  0  0  0  0
  144.7069  134.0500  152.8596 C   0  0  1  0  0  0  0  0  0  0  0  0
  143.3588  134.6934  152.5175 C   0  0  0  0  0  0  0  0  0  0  0  0
  144.8125  132.8329  152.1282 O   0  0  0  0  0  0  0  0  0  0  0  0
  146.8815  130.2251  151.7634 H   0  0  0  0  0  0  0  0  0  0  0  0
  145.9079  131.0098  150.5206 H   0  0  0  0  0  0  0  0  0  0  0  0
  145.1247  130.2070  151.8787 H   0  0  0  0  0  0  0  0  0  0  0  0
  146.0702  131.8738  153.4520 H   0  0  0  0  0  0  0  0  0  0  0  0
  148.1550  132.4790  152.0821 H   0  0  0  0  0  0  0  0  0  0  0  0
  147.1345  133.2509  150.9292 H   0  0  0  0  0  0  0  0  0  0  0  0
  147.0926  133.3879  154.6374 H   0  0  0  0  0  0  0  0  0  0  0  0
  148.3281  136.6547  153.7632 H   0  0  0  0  0  0  0  0  0  0  0  0
  146.3205  138.1845  155.0321 H   0  0  0  0  0  0  0  0  0  0  0  0
  147.5968  137.9124  156.1958 H   0  0  0  0  0  0  0  0  0  0  0  0
  148.2197  138.9822  153.4013 H   0  0  0  0  0  0  0  0  0  0  0  0
  147.7891  140.0597  154.7049 H   0  0  0  0  0  0  0  0  0  0  0  0
  149.4301  140.7506  156.3422 H   0  0  0  0  0  0  0  0  0  0  0  0
  151.8239  140.6636  157.0812 H   0  0  0  0  0  0  0  0  0  0  0  0
  153.3324  138.9173  156.0895 H   0  0  0  0  0  0  0  0  0  0  0  0
  152.3779  137.3308  154.3978 H   0  0  0  0  0  0  0  0  0  0  0  0
  149.6913  134.7419  153.8668 H   0  0  0  0  0  0  0  0  0  0  0  0
  149.2538  131.7792  154.2908 H   0  0  0  0  0  0  0  0  0  0  0  0
  150.7239  132.5976  153.7933 H   0  0  0  0  0  0  0  0  0  0  0  0
  149.3293  132.5874  152.7250 H   0  0  0  0  0  0  0  0  0  0  0  0
  149.1717  133.2230  156.4710 H   0  0  0  0  0  0  0  0  0  0  0  0
  149.2934  134.9741  156.3596 H   0  0  0  0  0  0  0  0  0  0  0  0
  150.6760  133.9704  155.9622 H   0  0  0  0  0  0  0  0  0  0  0  0
  145.8112  135.9217  153.0170 H   0  0  0  0  0  0  0  0  0  0  0  0
  145.8414  135.2178  151.4346 H   0  0  0  0  0  0  0  0  0  0  0  0
  144.7123  133.8268  153.9270 H   0  0  0  0  0  0  0  0  0  0  0  0
  143.2190  135.6247  153.0670 H   0  0  0  0  0  0  0  0  0  0  0  0
  142.5327  134.0298  152.7745 H   0  0  0  0  0  0  0  0  0  0  0  0
  143.2857  134.9184  151.4531 H   0  0  0  0  0  0  0  0  0  0  0  0
  147.9040  134.8808  152.3063 H   0  0  0  0  0  0  0  0  0  0  0  0
  1  2  1  0  0  0  0
  1 24  1  0  0  0  0
  1 25  1  0  0  0  0
  1 26  1  0  0  0  0
  2 23  1  0  0  0  0
  2  3  1  0  0  0  0
  2 27  1  0  0  0  0
  3  4  1  0  0  0  0
  3 28  1  0  0  0  0
  3 29  1  0  0  0  0
  4  5  1  0  0  0  0
  4 20  1  0  0  0  0
  4 53  1  0  0  0  0
  5  6  1  0  0  0  0
  5 17  1  0  0  0  0
  5 30  1  0  0  0  0
  6  7  2  0  0  0  0
  6  8  1  0  0  0  0
  8  9  1  0  0  0  0
  8 31  1  0  0  0  0
  9 10  1  0  0  0  0
  9 32  1  0  0  0  0
  9 33  1  0  0  0  0
 10 11  1  0  0  0  0
 10 34  1  0  0  0  0
 10 35  1  0  0  0  0
 11 16  1  0  0  0  0
 11 12  2  0  0  0  0
 12 13  1  0  0  0  0
 12 36  1  0  0  0  0
 13 14  2  0  0  0  0
 13 37  1  0  0  0  0
 14 15  1  0  0  0  0
 14 38  1  0  0  0  0
 15 16  2  0  0  0  0
 15 39  1  0  0  0  0
 17 18  1  0  0  0  0
 17 19  1  0  0  0  0
 17 40  1  0  0  0  0
 18 41  1  0  0  0  0
 18 42  1  0  0  0  0
 18 43  1  0  0  0  0
 19 44  1  0  0  0  0
 19 45  1  0  0  0  0
 19 46  1  0  0  0  0
 20 21  1  0  0  0  0
 20 47  1  0  0  0  0
 20 48  1  0  0  0  0
 21 22  1  0  0  0  0
 21 23  1  0  0  0  0
 21 49  1  0  0  0  0
 22 50  1  0  0  0  0
 22 51  1  0  0  0  0
 22 52  1  0  0  0  0
M  CHG  1   4   1
M  END
> <s_m_source_file>
AV-unprocessed.smi

> <i_m_source_file_index>
1762

> <i_lp_mmshare_version>
43012

> <i_f3d_flags>
0

> <s_epik_input>
W0NIM11bQ0BASF0xW0NIMl1OKFtDSDJdW0NASF0oTzEpW0NIM10pW0NAQEhdKFtDSF0oW0NIM10pW0NIM10pQyg9TylbTkhdW0NIMl1bQ0gyXWMyW2NIXVtjSF1bY0hdW2NIXW4y

> <s_epik_cmdline>
J2VwaWtfcHl0aG9uJywgJy1waCcsICc3LjAnLCAnLXRuJywgJzgnLCAnLW1hJywgJzIwMCcsICctbWV0YWxfYmluZGluZycsICctaW1hZScsICc8aW5maWxlLm1hZT4nLCAnLW9tYWUnLCAnPG91dGZpbGUubWFlPic=

> <r_epik_Ionization_Penalty>
2.27005

> <r_epik_Ionization_Penalty_Charging>
2.24983

> <r_epik_Ionization_Penalty_Neutral>
0.0202209

> <r_epik_State_Penalty>
2.40228

> <r_epik_Charging_Adjusted_Penalty>
4.65211

> <i_epik_Tot_Q>
1

> <i_epik_Tot_abs_Q>
1

> <r_epik_Metal_State_Penalty>
2.40762

> <b_epik_Metal_Only>
0

> <s_lp_Force_Field>
OPLS_2005

> <r_lp_Energy>
22.1735

> <b_lp_Chiralities_Consistent>
1

> <s_lp_Variant>
AV-unprocessed.smi:1762-14

> <Gold.Version>
5.8.1

> <Gold.Id.Protein>
6NUR|6NUR_protein|mol2

> <Gold.PLP.Fitness>
45.6858

> <Gold.PLP.PLP>
-37.9257

> <Gold.PLP.part.hbond>
-2.0000

> <Gold.PLP.part.metal>
0.0000

> <Gold.PLP.part.buried>
-2.6161

> <Gold.PLP.part.nonpolar>
-32.5011

> <Gold.PLP.part.repulsive>
0.3988

> <Gold.PLP.ligand.clash>
0.0000

> <Gold.PLP.ligand.torsion>
0.7122

> <Gold.PLP.Chemscore.Hbond>
3.0000

> <Gold.PLP.Chemscore.CHOScore>
0.0000

> <Gold.PLP.Chemscore.Metal>
0.0000

> <Gold.Chemscore.Hbonds>
donor molecule, donor type, donor heavy atom, donor atom, acceptor molecule, acceptor atom, score
      L1  H     4    53       P1  7948  2.00
      L1  H     8    31       P1  7948  0.98

> <Gold.PLP.Chemscore.Internal.Correction>
0.1844

> <Gold.Rescore>
     Score         DG    S(hbond)    S(metal)    S(lipo)     H(rot)  DE(clash)    DE(int)     intcor
     16.73     -18.63       1.88        0.00      95.14       1.66       0.25       1.65       ----

> <Gold.Chemscore.Fitness>
16.7293

> <Gold.Chemscore.DG>
-18.6268

> <Gold.Chemscore.ZeroCoef>
-5.4800

> <Gold.Chemscore.Hbond>
1.8783

> <Gold.Chemscore.Metal>
0.0000

> <Gold.Chemscore.Lipo>
95.1440

> <Gold.Chemscore.Internal_Hbond>
0.0000

> <Gold.Chemscore.DEClash>
0.2464

> <Gold.Chemscore.DEInternal>
1.6511

> <Gold.Chemscore.Rot>
1.6635

> <Gold.Chemscore.Internal.Correction>
   9.000000E+99

> <Gold.Chemscore.Hbonds>
donor molecule, donor type, donor heavy atom, donor atom, acceptor molecule, acceptor atom, score
      L1  H     4    53       P1  7948  0.74
      L1  H     8    31       P1  7948  0.90

> <Gold.Chemscore.Hbond.Weighted>
-6.2735

> <Gold.Chemscore.Metal.Weighted>
-0.0000

> <Gold.Chemscore.Lipo.Weighted>
-11.1319

> <Gold.Chemscore.Internal_Hbond.Weighted>
0.0000

> <Gold.Chemscore.DEClash.Weighted>
0.2464

> <Gold.Chemscore.DEInternal.Weighted>
1.6511

> <Gold.Chemscore.Rot.Weighted>
4.2586

> <Gold.Chemscore.Internal.Correction.Weighted>
   9.000000E+99

> <Gold.Protein.RotatedTorsions>
[ 6907 6896 6895 6894 ] final -114.62 input  -60.11 | X-H torsion
[ 7974 7965 7964 7962 ] final   85.72 input  175.53 | X-H torsion
[ 8008 7997 7996 7995 ] final  -47.74 input   59.86 | X-H torsion
[ 10167 10162 10161 10158 ] final  -24.64 input  -65.29 | X-H torsion
[ 10718 10713 10712 10709 ] final   39.11 input   66.30 | X-H torsion
[ 10763 10752 10751 10750 ] final -123.23 input  -60.55 | X-H torsion
[ 11005 11000 10999 10996 ] final  137.33 input  -57.11 | X-H torsion

> <Gold.Protein.ActiveResidues>
 VAL166  LYS551  ARG553  GLY616  TRP617  ASP618  TYR619  PRO620  LYS621  CYS622 
 ASP623  PHE694  ASN695  SER759  ASP760  ASP761  ALA762  ILE779  LEU786  VAL792 
 PHE793  MET794  SER795  GLU796  ALA797  LYS798  CYS799  TRP800  GLU811  SER814 

> <Gold.Protein.RotatedAtoms>
  150.7916  133.8775  159.3276 H   0  0  0  0  0  0  0  0  0  0  0  0  # atno 6907 bound_to 6896
  151.6612  135.0987  160.0189 H   0  0  0  0  0  0  0  0  0  0  0  0  # atno 6908 bound_to 6896
  152.3990  133.6751  159.6336 H   0  0  0  0  0  0  0  0  0  0  0  0  # atno 6909 bound_to 6896
  145.5818  139.2326  143.2349 H   0  0  0  0  0  0  0  0  0  0  0  0  # atno 7974 bound_to 7965
  154.4020  140.1339  156.4224 H   0  0  0  0  0  0  0  0  0  0  0  0  # atno 8008 bound_to 7997
  155.7629  140.3485  155.5187 H   0  0  0  0  0  0  0  0  0  0  0  0  # atno 8009 bound_to 7997
  155.8841  140.0992  157.1455 H   0  0  0  0  0  0  0  0  0  0  0  0  # atno 8010 bound_to 7997
  140.7288  143.4335  151.0765 H   0  0  0  0  0  0  0  0  0  0  0  0  # atno 10167 bound_to 10162
  157.3668  130.7679  149.7088 H   0  0  0  0  0  0  0  0  0  0  0  0  # atno 10718 bound_to 10713
  154.8704  135.4105  154.2910 H   0  0  0  0  0  0  0  0  0  0  0  0  # atno 10763 bound_to 10752
  153.3786  135.7010  153.6588 H   0  0  0  0  0  0  0  0  0  0  0  0  # atno 10764 bound_to 10752
  153.5420  135.3646  155.2694 H   0  0  0  0  0  0  0  0  0  0  0  0  # atno 10765 bound_to 10752
  140.0107  134.9440  157.0271 H   0  0  0  0  0  0  0  0  0  0  0  0  # atno 11005 bound_to 11000
  146.1711  140.6644  142.9233 LP  0  0  0  0  0  0  0  0  0  0  0  0  # atno 17320 bound_to 7965
  144.7391  140.4891  143.6882 LP  0  0  0  0  0  0  0  0  0  0  0  0  # atno 17321 bound_to 7965
  139.7994  143.8105  152.3161 LP  0  0  0  0  0  0  0  0  0  0  0  0  # atno 17342 bound_to 10162
  139.8116  144.7333  150.9689 LP  0  0  0  0  0  0  0  0  0  0  0  0  # atno 17343 bound_to 10162
  155.9747  130.4098  150.3899 LP  0  0  0  0  0  0  0  0  0  0  0  0  # atno 17370 bound_to 10713
  157.1985  131.0432  151.2663 LP  0  0  0  0  0  0  0  0  0  0  0  0  # atno 17371 bound_to 10713
  140.4560  134.1533  155.7186 LP  0  0  0  0  0  0  0  0  0  0  0  0  # atno 17394 bound_to 11000
  141.1709  133.8611  157.1574 LP  0  0  0  0  0  0  0  0  0  0  0  0  # atno 17395 bound_to 11000

$$$$
