AV-unprocessed.smi:2987|AV-procd|sdf|11386|dock1
  -GOLD-   2272016313D 1   1.00000     0.00000
 Structure written by MMmdl.
 26 27  0  0  0  0  0  0  0  0  2 V2000
  149.7027  141.2111  155.1887 C   0  0  0  0  0  0  0  0  0  0  0  0
  150.4387  141.7863  156.3517 C   0  0  0  0  0  0  0  0  0  0  0  0
  150.5773  143.1114  156.6392 N   0  3  0  0  0  0  0  0  0  0  0  0
  151.3318  143.2660  157.8033 C   0  0  0  0  0  0  0  0  0  0  0  0
  151.7341  144.4107  158.4845 C   0  0  0  0  0  0  0  0  0  0  0  0
  152.5053  144.2153  159.6493 C   0  0  0  0  0  0  0  0  0  0  0  0
  152.8490  142.9223  160.0948 C   0  0  0  0  0  0  0  0  0  0  0  0
  152.4355  141.7691  159.3958 C   0  0  0  0  0  0  0  0  0  0  0  0
  151.6717  141.9712  158.2466 C   0  0  0  0  0  0  0  0  0  0  0  0
  151.0983  141.0917  157.3221 N   0  0  0  0  0  0  0  0  0  0  0  0
  151.2746  139.6452  157.5016 C   0  0  0  0  0  0  0  0  0  0  0  0
  151.8490  138.9797  156.2434 C   0  0  0  0  0  0  0  0  0  0  0  0
  153.2573  139.0482  156.2733 O   0  0  0  0  0  0  0  0  0  0  0  0
  149.3383  142.0036  154.5346 H   0  0  0  0  0  0  0  0  0  0  0  0
  148.8496  140.6277  155.5354 H   0  0  0  0  0  0  0  0  0  0  0  0
  150.3599  140.5600  154.6118 H   0  0  0  0  0  0  0  0  0  0  0  0
  151.4734  145.4024  158.1449 H   0  0  0  0  0  0  0  0  0  0  0  0
  152.8408  145.0746  160.2118 H   0  0  0  0  0  0  0  0  0  0  0  0
  153.4423  142.8121  160.9911 H   0  0  0  0  0  0  0  0  0  0  0  0
  152.7046  140.7826  159.7442 H   0  0  0  0  0  0  0  0  0  0  0  0
  151.9134  139.4736  158.3689 H   0  0  0  0  0  0  0  0  0  0  0  0
  150.3006  139.2185  157.7449 H   0  0  0  0  0  0  0  0  0  0  0  0
  151.5439  137.9344  156.1874 H   0  0  0  0  0  0  0  0  0  0  0  0
  151.4895  139.4749  155.3411 H   0  0  0  0  0  0  0  0  0  0  0  0
  153.6057  138.3154  155.7883 H   0  0  0  0  0  0  0  0  0  0  0  0
  150.1835  143.8550  156.0769 H   0  0  0  0  0  0  0  0  0  0  0  0
  1  2  1  0  0  0  0
  1 14  1  0  0  0  0
  1 15  1  0  0  0  0
  1 16  1  0  0  0  0
  2 10  1  0  0  0  0
  2  3  2  0  0  0  0
  3  4  1  0  0  0  0
  3 26  1  0  0  0  0
  4  9  2  0  0  0  0
  4  5  1  0  0  0  0
  5  6  2  0  0  0  0
  5 17  1  0  0  0  0
  6  7  1  0  0  0  0
  6 18  1  0  0  0  0
  7  8  2  0  0  0  0
  7 19  1  0  0  0  0
  8  9  1  0  0  0  0
  8 20  1  0  0  0  0
  9 10  1  0  0  0  0
 10 11  1  0  0  0  0
 11 12  1  0  0  0  0
 11 21  1  0  0  0  0
 11 22  1  0  0  0  0
 12 13  1  0  0  0  0
 12 23  1  0  0  0  0
 12 24  1  0  0  0  0
 13 25  1  0  0  0  0
M  CHG  1   3   1
M  END
> <s_m_source_file>
AV-unprocessed.smi

> <i_m_source_file_index>
2987

> <i_lp_mmshare_version>
43012

> <i_f3d_flags>
0

> <s_epik_input>
W09IXVtDSDJdW0NIMl1uKGMobjEpW0NIM10pYyhjMTIpW2NIXVtjSF1bY0hdW2NIXTI=

> <s_epik_cmdline>
J2VwaWtfcHl0aG9uJywgJy1waCcsICc3LjAnLCAnLXRuJywgJzgnLCAnLW1hJywgJzIwMCcsICctbWV0YWxfYmluZGluZycsICctaW1hZScsICc8aW5maWxlLm1hZT4nLCAnLW9tYWUnLCAnPG91dGZpbGUubWFlPic=

> <r_epik_Ionization_Penalty>
0.963868

> <r_epik_Ionization_Penalty_Charging>
0.963868

> <r_epik_Ionization_Penalty_Neutral>
5.76694e-08

> <r_epik_State_Penalty>
1.00924

> <r_epik_Charging_Adjusted_Penalty>
1.9731

> <i_epik_Tot_Q>
1

> <i_epik_Tot_abs_Q>
1

> <r_epik_Metal_State_Penalty>
4.98304

> <b_epik_Metal_Only>
0

> <s_lp_Force_Field>
OPLS_2005

> <r_lp_Energy>
11.6112

> <b_lp_Chiralities_Consistent>
1

> <s_lp_Variant>
AV-unprocessed.smi:2987-2

> <Gold.Version>
5.8.1

> <Gold.Id.Protein>
6NUR|6NUR_protein|mol2

> <Gold.PLP.Fitness>
41.3616

> <Gold.PLP.PLP>
-32.8006

> <Gold.PLP.part.hbond>
-1.8172

> <Gold.PLP.part.metal>
0.0000

> <Gold.PLP.part.buried>
-4.8169

> <Gold.PLP.part.nonpolar>
-28.0610

> <Gold.PLP.part.repulsive>
0.0579

> <Gold.PLP.ligand.clash>
0.0000

> <Gold.PLP.ligand.torsion>
0.1956

> <Gold.PLP.Chemscore.Hbond>
2.9840

> <Gold.PLP.Chemscore.CHOScore>
0.0000

> <Gold.PLP.Chemscore.Metal>
0.0000

> <Gold.Chemscore.Hbonds>
donor molecule, donor type, donor heavy atom, donor atom, acceptor molecule, acceptor atom, score
      L1  H     3    26       P1  8028  1.98
      P1  H  7997  8010       L1    13  1.00

> <Gold.PLP.Chemscore.Internal.Correction>
0.0002

> <Gold.Rescore>
     Score         DG    S(hbond)    S(metal)    S(lipo)     H(rot)  DE(clash)    DE(int)     intcor
     17.06     -17.32       1.95        0.00      83.81       1.74       0.00       0.26       ----

> <Gold.Chemscore.Fitness>
17.0603

> <Gold.Chemscore.DG>
-17.3243

> <Gold.Chemscore.ZeroCoef>
-5.4800

> <Gold.Chemscore.Hbond>
1.9464

> <Gold.Chemscore.Metal>
0.0000

> <Gold.Chemscore.Lipo>
83.8084

> <Gold.Chemscore.Internal_Hbond>
0.0000

> <Gold.Chemscore.DEClash>
0.0000

> <Gold.Chemscore.DEInternal>
0.2640

> <Gold.Chemscore.Rot>
1.7431

> <Gold.Chemscore.Internal.Correction>
   9.000000E+99

> <Gold.Chemscore.Hbonds>
donor molecule, donor type, donor heavy atom, donor atom, acceptor molecule, acceptor atom, score
      L1  H     3    26       P1  8028  0.92
      P1  H  7997  8010       L1    13  0.68

> <Gold.Chemscore.Hbond.Weighted>
-6.5011

> <Gold.Chemscore.Metal.Weighted>
-0.0000

> <Gold.Chemscore.Lipo.Weighted>
-9.8056

> <Gold.Chemscore.Internal_Hbond.Weighted>
0.0000

> <Gold.Chemscore.DEClash.Weighted>
0.0000

> <Gold.Chemscore.DEInternal.Weighted>
0.2640

> <Gold.Chemscore.Rot.Weighted>
4.4624

> <Gold.Chemscore.Internal.Correction.Weighted>
   9.000000E+99

> <Gold.Protein.RotatedTorsions>
[ 6907 6896 6895 6894 ] final  116.92 input  -60.11 | X-H torsion
[ 7974 7965 7964 7962 ] final  -65.09 input  175.53 | X-H torsion
[ 8008 7997 7996 7995 ] final   62.28 input   59.86 | X-H torsion
[ 10167 10162 10161 10158 ] final -136.26 input  -65.29 | X-H torsion
[ 10718 10713 10712 10709 ] final   10.19 input   66.30 | X-H torsion
[ 10763 10752 10751 10750 ] final  174.38 input  -60.55 | X-H torsion
[ 11005 11000 10999 10996 ] final -172.21 input  -57.11 | X-H torsion

> <Gold.Protein.ActiveResidues>
 VAL166  LYS551  ARG553  GLY616  TRP617  ASP618  TYR619  PRO620  LYS621  CYS622 
 ASP623  PHE694  ASN695  SER759  ASP760  ASP761  ALA762  ILE779  LEU786  VAL792 
 PHE793  MET794  SER795  GLU796  ALA797  LYS798  CYS799  TRP800  GLU811  SER814 

> <Gold.Protein.RotatedAtoms>
  152.4646  133.7896  159.6894 H   0  0  0  0  0  0  0  0  0  0  0  0  # atno 6907 bound_to 6896
  150.8605  133.7641  159.3000 H   0  0  0  0  0  0  0  0  0  0  0  0  # atno 6908 bound_to 6896
  151.5208  135.1070  159.9930 H   0  0  0  0  0  0  0  0  0  0  0  0  # atno 6909 bound_to 6896
  145.7586  140.8873  143.0442 H   0  0  0  0  0  0  0  0  0  0  0  0  # atno 7974 bound_to 7965
  155.6118  140.3495  155.4624 H   0  0  0  0  0  0  0  0  0  0  0  0  # atno 8008 bound_to 7997
  156.0148  140.1241  157.0441 H   0  0  0  0  0  0  0  0  0  0  0  0  # atno 8009 bound_to 7997
  154.4294  140.1074  156.5867 H   0  0  0  0  0  0  0  0  0  0  0  0  # atno 8010 bound_to 7997
  139.8695  143.6975  152.2641 H   0  0  0  0  0  0  0  0  0  0  0  0  # atno 10167 bound_to 10162
  156.9773  130.5992  149.5673 H   0  0  0  0  0  0  0  0  0  0  0  0  # atno 10718 bound_to 10713
  154.4531  135.2765  155.1767 H   0  0  0  0  0  0  0  0  0  0  0  0  # atno 10763 bound_to 10752
  154.3586  135.6134  153.5682 H   0  0  0  0  0  0  0  0  0  0  0  0  # atno 10764 bound_to 10752
  152.9848  135.5829  154.4879 H   0  0  0  0  0  0  0  0  0  0  0  0  # atno 10765 bound_to 10752
  140.4995  134.5907  157.4983 H   0  0  0  0  0  0  0  0  0  0  0  0  # atno 11005 bound_to 11000
  144.6835  139.9692  143.7482 LP  0  0  0  0  0  0  0  0  0  0  0  0  # atno 17320 bound_to 7965
  146.0286  139.3314  143.0769 LP  0  0  0  0  0  0  0  0  0  0  0  0  # atno 17321 bound_to 7965
  139.7297  144.7585  151.0822 LP  0  0  0  0  0  0  0  0  0  0  0  0  # atno 17342 bound_to 10162
  140.7763  143.5104  150.9660 LP  0  0  0  0  0  0  0  0  0  0  0  0  # atno 17343 bound_to 10162
  156.0258  130.5352  150.8403 LP  0  0  0  0  0  0  0  0  0  0  0  0  # atno 17370 bound_to 10713
  157.5551  131.0945  150.9640 LP  0  0  0  0  0  0  0  0  0  0  0  0  # atno 17371 bound_to 10713
  139.9722  134.7275  156.0020 LP  0  0  0  0  0  0  0  0  0  0  0  0  # atno 17394 bound_to 11000
  141.1443  133.6559  156.3821 LP  0  0  0  0  0  0  0  0  0  0  0  0  # atno 17395 bound_to 11000

$$$$
