AV-unprocessed.smi:3061|AV-procd|sdf|11679|dock8
  -GOLD-   2272017 83D 1   1.00000     0.00000
 Structure written by MMmdl.
 35 36  0  0  0  0  0  0  0  0  1 V2000
  150.2194  138.9966  156.9158 C   0  0  0  0  0  0  0  0  0  0  0  0
  150.0542  140.4641  156.4920 C   0  0  2  0  0  0  0  0  0  0  0  0
  150.1010  140.6188  154.9597 C   0  0  0  0  0  0  0  0  0  0  0  0
  148.7874  140.8569  154.3888 N   0  0  0  0  0  0  0  0  0  0  0  0
  148.0217  141.9492  154.3976 C   0  0  0  0  0  0  0  0  0  0  0  0
  146.8608  141.7940  153.7766 N   0  0  0  0  0  0  0  0  0  0  0  0
  146.9876  140.4931  153.3782 C   0  0  0  0  0  0  0  0  0  0  0  0
  148.1234  139.8850  153.7207 N   0  0  0  0  0  0  0  0  0  0  0  0
  151.0989  141.2798  157.1079 N   0  0  0  0  0  0  0  0  0  0  0  0
  151.5237  141.1757  158.3762 C   0  0  0  0  0  0  0  0  0  0  0  0
  151.0851  140.3438  159.1711 O   0  0  0  0  0  0  0  0  0  0  0  0
  152.6098  142.1700  158.8151 C   0  0  2  0  0  0  0  0  0  0  0  0
  152.9241  142.0384  160.3194 C   0  0  0  0  0  0  0  0  0  0  0  0
  152.4481  143.3538  160.9131 C   0  0  0  0  0  0  0  0  0  0  0  0
  152.4636  143.5864  162.1209 O   0  0  0  0  0  0  0  0  0  0  0  0
  152.0209  144.1832  159.9571 N   0  0  0  0  0  0  0  0  0  0  0  0
  151.4966  145.5258  160.1669 C   0  0  0  0  0  0  0  0  0  0  0  0
  152.1749  143.6392  158.6187 C   0  0  0  0  0  0  0  0  0  0  0  0
  149.4401  138.3728  156.4774 H   0  0  0  0  0  0  0  0  0  0  0  0
  150.1541  138.8884  157.9992 H   0  0  0  0  0  0  0  0  0  0  0  0
  151.1831  138.5971  156.5984 H   0  0  0  0  0  0  0  0  0  0  0  0
  149.0761  140.8066  156.8360 H   0  0  0  0  0  0  0  0  0  0  0  0
  150.7600  141.4404  154.6753 H   0  0  0  0  0  0  0  0  0  0  0  0
  150.5117  139.7177  154.5017 H   0  0  0  0  0  0  0  0  0  0  0  0
  148.3164  142.8732  154.8731 H   0  0  0  0  0  0  0  0  0  0  0  0
  146.2196  139.9787  152.8197 H   0  0  0  0  0  0  0  0  0  0  0  0
  151.5218  141.9890  156.5270 H   0  0  0  0  0  0  0  0  0  0  0  0
  153.5162  141.9838  158.2361 H   0  0  0  0  0  0  0  0  0  0  0  0
  152.4193  141.2000  160.8024 H   0  0  0  0  0  0  0  0  0  0  0  0
  153.9955  141.9287  160.4891 H   0  0  0  0  0  0  0  0  0  0  0  0
  152.2748  146.1819  160.5579 H   0  0  0  0  0  0  0  0  0  0  0  0
  150.6702  145.5095  160.8787 H   0  0  0  0  0  0  0  0  0  0  0  0
  151.1291  145.9538  159.2338 H   0  0  0  0  0  0  0  0  0  0  0  0
  152.9418  144.2023  158.0852 H   0  0  0  0  0  0  0  0  0  0  0  0
  151.2441  143.7389  158.0569 H   0  0  0  0  0  0  0  0  0  0  0  0
  1  2  1  0  0  0  0
  1 19  1  0  0  0  0
  1 20  1  0  0  0  0
  1 21  1  0  0  0  0
  2  3  1  0  0  0  0
  2  9  1  0  0  0  0
  2 22  1  0  0  0  0
  3  4  1  0  0  0  0
  3 23  1  0  0  0  0
  3 24  1  0  0  0  0
  4  8  1  0  0  0  0
  4  5  1  0  0  0  0
  5  6  2  0  0  0  0
  5 25  1  0  0  0  0
  6  7  1  0  0  0  0
  7  8  2  0  0  0  0
  7 26  1  0  0  0  0
  9 10  1  0  0  0  0
  9 27  1  0  0  0  0
 10 11  2  0  0  0  0
 10 12  1  0  0  0  0
 12 18  1  0  0  0  0
 12 13  1  0  0  0  0
 12 28  1  0  0  0  0
 13 14  1  0  0  0  0
 13 29  1  0  0  0  0
 13 30  1  0  0  0  0
 14 15  2  0  0  0  0
 14 16  1  0  0  0  0
 16 17  1  0  0  0  0
 16 18  1  0  0  0  0
 17 31  1  0  0  0  0
 17 32  1  0  0  0  0
 17 33  1  0  0  0  0
 18 34  1  0  0  0  0
 18 35  1  0  0  0  0
M  END
> <s_m_source_file>
AV-unprocessed.smi

> <i_m_source_file_index>
3061

> <i_lp_mmshare_version>
43012

> <i_f3d_flags>
0

> <s_epik_input>
bjFbY0hdbltjSF1uMVtDSDJdW0NAQEhdKFtDSDNdKVtOSF1DKD1PKVtDQEBIXTJbQ0gyXUMoPU8pTihbQ0gzXSlbQ0gyXTI=

> <s_epik_cmdline>
J2VwaWtfcHl0aG9uJywgJy1waCcsICc3LjAnLCAnLXRuJywgJzgnLCAnLW1hJywgJzIwMCcsICctbWV0YWxfYmluZGluZycsICctaW1hZScsICc8aW5maWxlLm1hZT4nLCAnLW9tYWUnLCAnPG91dGZpbGUubWFlPic=

> <r_lp_tautomer_probability>
1

> <r_epik_Ionization_Penalty>
4.97611e-05

> <r_epik_Ionization_Penalty_Charging>
0

> <r_epik_Ionization_Penalty_Neutral>
4.97611e-05

> <r_epik_State_Penalty>
-0

> <r_epik_Charging_Adjusted_Penalty>
0

> <i_epik_Tot_Q>
0

> <i_epik_Tot_abs_Q>
0

> <r_epik_Metal_State_Penalty>
-0

> <b_epik_Metal_Only>
0

> <s_lp_Force_Field>
OPLS_2005

> <r_lp_Energy>
14.0738

> <b_lp_Chiralities_Consistent>
1

> <s_lp_Variant>
AV-unprocessed.smi:3061-1

> <Gold.Version>
5.8.1

> <Gold.Id.Protein>
6NUR|6NUR_protein|mol2

> <Gold.PLP.Fitness>
41.3328

> <Gold.PLP.PLP>
-37.4699

> <Gold.PLP.part.hbond>
0.0000

> <Gold.PLP.part.metal>
0.0000

> <Gold.PLP.part.buried>
-3.9276

> <Gold.PLP.part.nonpolar>
-34.8801

> <Gold.PLP.part.repulsive>
1.1235

> <Gold.PLP.ligand.clash>
0.0000

> <Gold.PLP.ligand.torsion>
1.0787

> <Gold.PLP.Chemscore.Hbond>
0.0000

> <Gold.PLP.Chemscore.CHOScore>
2.0000

> <Gold.PLP.Chemscore.Metal>
0.0000

> <Gold.Chemscore.Hbonds>
donor molecule, donor type, donor heavy atom, donor atom, acceptor molecule, acceptor atom, score
      L1  C     5    25       P1  8028  1.00
      L1  C     7    26       P1 10175  0.82

> <Gold.PLP.Chemscore.Internal.Correction>
0.0204

> <Gold.Rescore>
     Score         DG    S(hbond)    S(metal)    S(lipo)     H(rot)  DE(clash)    DE(int)     intcor
      5.92      -6.49       0.00        0.00      61.58       2.42       0.11       0.47       ----

> <Gold.Chemscore.Fitness>
5.9174

> <Gold.Chemscore.DG>
-6.4899

> <Gold.Chemscore.ZeroCoef>
-5.4800

> <Gold.Chemscore.Hbond>
0.0000

> <Gold.Chemscore.Metal>
0.0000

> <Gold.Chemscore.Lipo>
61.5762

> <Gold.Chemscore.Internal_Hbond>
0.0000

> <Gold.Chemscore.DEClash>
0.1066

> <Gold.Chemscore.DEInternal>
0.4659

> <Gold.Chemscore.Rot>
2.4197

> <Gold.Chemscore.Internal.Correction>
   9.000000E+99

> <Gold.Chemscore.Hbond.Weighted>
-0.0000

> <Gold.Chemscore.Metal.Weighted>
-0.0000

> <Gold.Chemscore.Lipo.Weighted>
-7.2044

> <Gold.Chemscore.Internal_Hbond.Weighted>
0.0000

> <Gold.Chemscore.DEClash.Weighted>
0.1066

> <Gold.Chemscore.DEInternal.Weighted>
0.4659

> <Gold.Chemscore.Rot.Weighted>
6.1945

> <Gold.Chemscore.Internal.Correction.Weighted>
   9.000000E+99

> <Gold.Protein.RotatedTorsions>
[ 6907 6896 6895 6894 ] final  146.94 input  -60.11 | X-H torsion
[ 7974 7965 7964 7962 ] final  120.02 input  175.53 | X-H torsion
[ 8008 7997 7996 7995 ] final -131.40 input   59.86 | X-H torsion
[ 10167 10162 10161 10158 ] final  -37.83 input  -65.29 | X-H torsion
[ 10718 10713 10712 10709 ] final   69.38 input   66.30 | X-H torsion
[ 10763 10752 10751 10750 ] final -163.31 input  -60.55 | X-H torsion
[ 11005 11000 10999 10996 ] final   16.79 input  -57.11 | X-H torsion

> <Gold.Protein.ActiveResidues>
 VAL166  LYS551  ARG553  GLY616  TRP617  ASP618  TYR619  PRO620  LYS621  CYS622 
 ASP623  PHE694  ASN695  SER759  ASP760  ASP761  ALA762  ILE779  LEU786  VAL792 
 PHE793  MET794  SER795  GLU796  ALA797  LYS798  CYS799  TRP800  GLU811  SER814 

> <Gold.Protein.RotatedAtoms>
  152.1613  133.4583  159.4862 H   0  0  0  0  0  0  0  0  0  0  0  0  # atno 6907 bound_to 6896
  150.6907  134.2068  159.4352 H   0  0  0  0  0  0  0  0  0  0  0  0  # atno 6908 bound_to 6896
  151.9970  134.9948  160.0614 H   0  0  0  0  0  0  0  0  0  0  0  0  # atno 6909 bound_to 6896
  145.1362  139.3296  143.4639 H   0  0  0  0  0  0  0  0  0  0  0  0  # atno 7974 bound_to 7965
  155.3117  140.0457  157.3035 H   0  0  0  0  0  0  0  0  0  0  0  0  # atno 8008 bound_to 7997
  154.5429  140.2293  155.8578 H   0  0  0  0  0  0  0  0  0  0  0  0  # atno 8009 bound_to 7997
  156.1897  140.3053  155.9315 H   0  0  0  0  0  0  0  0  0  0  0  0  # atno 8010 bound_to 7997
  140.7108  143.3316  151.2556 H   0  0  0  0  0  0  0  0  0  0  0  0  # atno 10167 bound_to 10162
  157.6342  130.9422  150.0505 H   0  0  0  0  0  0  0  0  0  0  0  0  # atno 10718 bound_to 10713
  154.7134  135.3011  154.9162 H   0  0  0  0  0  0  0  0  0  0  0  0  # atno 10763 bound_to 10752
  154.0056  135.6701  153.4766 H   0  0  0  0  0  0  0  0  0  0  0  0  # atno 10764 bound_to 10752
  153.0773  135.5027  154.8346 H   0  0  0  0  0  0  0  0  0  0  0  0  # atno 10765 bound_to 10752
  140.4432  134.1300  155.7693 H   0  0  0  0  0  0  0  0  0  0  0  0  # atno 11005 bound_to 11000
  146.3509  140.1380  142.8595 LP  0  0  0  0  0  0  0  0  0  0  0  0  # atno 17320 bound_to 7965
  145.0582  140.9068  143.4955 LP  0  0  0  0  0  0  0  0  0  0  0  0  # atno 17321 bound_to 7965
  139.6800  143.9871  152.2803 LP  0  0  0  0  0  0  0  0  0  0  0  0  # atno 17342 bound_to 10162
  139.9498  144.6628  150.8183 LP  0  0  0  0  0  0  0  0  0  0  0  0  # atno 17343 bound_to 10162
  156.1569  130.3643  149.9356 LP  0  0  0  0  0  0  0  0  0  0  0  0  # atno 17370 bound_to 10713
  156.7363  130.9062  151.3629 LP  0  0  0  0  0  0  0  0  0  0  0  0  # atno 17371 bound_to 10713
  141.1696  133.8634  157.1610 LP  0  0  0  0  0  0  0  0  0  0  0  0  # atno 17394 bound_to 11000
  140.0056  135.0010  157.0284 LP  0  0  0  0  0  0  0  0  0  0  0  0  # atno 17395 bound_to 11000

$$$$
