AV-unprocessed.smi:234|AV-procd|sdf|1792|dock8
  -GOLD-   2262020353D 1   1.00000     0.00000
 Structure written by MMmdl.
 59 62  0  0  0  0  0  0  0  0  1 V2000
  145.5342  132.0830  152.0338 C   0  0  0  0  0  0  0  0  0  0  0  0
  146.0863  133.3920  152.6132 C   0  0  0  0  0  0  0  0  0  0  0  0
  147.4443  133.2469  153.0046 O   0  0  0  0  0  0  0  0  0  0  0  0
  147.6277  132.9722  154.3902 C   0  0  1  0  0  0  0  0  0  0  0  0
  149.0011  132.3519  154.6703 C   0  0  0  0  0  0  0  0  0  0  0  0
  149.5134  133.7917  154.8014 C   0  0  2  0  0  0  0  0  0  0  0  0
  150.5205  133.9857  155.8459 N   0  0  0  0  0  0  0  0  0  0  0  0
  150.4641  133.0663  156.9743 C   0  0  0  0  0  0  0  0  0  0  0  0
  150.6423  135.2632  156.2681 C   0  0  0  0  0  0  0  0  0  0  0  0
  150.0906  135.5762  157.4660 N   0  0  0  0  0  0  0  0  0  0  0  0
  150.1941  136.8209  157.9422 C   0  0  0  0  0  0  0  0  0  0  0  0
  150.7926  137.8794  157.3913 N   0  0  0  0  0  0  0  0  0  0  0  0
  151.3420  137.5673  156.1823 C   0  0  0  0  0  0  0  0  0  0  0  0
  151.3072  136.2947  155.5468 C   0  0  0  0  0  0  0  0  0  0  0  0
  151.9557  136.3584  154.3197 N   0  0  0  0  0  0  0  0  0  0  0  0
  152.3571  137.5969  154.2372 C   0  0  0  0  0  0  0  0  0  0  0  0
  152.0469  138.3894  155.3199 N   0  0  0  0  0  0  0  0  0  0  0  0
  152.3871  139.7929  155.4977 C   0  0  0  0  0  0  0  0  0  0  0  0
  151.1644  140.7415  155.4226 C   0  0  2  0  0  0  0  0  0  0  0  0
  150.5849  140.6208  154.1347 O   0  0  0  0  0  0  0  0  0  0  0  0
  151.5607  142.2068  155.6310 C   0  0  0  0  0  0  0  0  0  0  0  0
  150.9811  142.5547  156.9967 C   0  0  0  0  0  0  0  0  0  0  0  0
  149.7948  141.7824  157.0384 O   0  0  0  0  0  0  0  0  0  0  0  0
  150.1208  140.4912  156.5440 C   0  0  1  0  0  0  0  0  0  0  0  0
  148.8450  139.7249  156.1560 C   0  0  0  0  0  0  0  0  0  0  0  0
  148.0746  134.2221  155.1924 C   0  0  0  0  0  0  0  0  0  0  0  0
  147.5968  135.5740  154.6565 C   0  0  0  0  0  0  0  0  0  0  0  0
  147.6938  134.1762  156.6817 C   0  0  0  0  0  0  0  0  0  0  0  0
  144.4752  132.1833  151.7958 H   0  0  0  0  0  0  0  0  0  0  0  0
  145.6380  131.2671  152.7492 H   0  0  0  0  0  0  0  0  0  0  0  0
  146.0496  131.7939  151.1187 H   0  0  0  0  0  0  0  0  0  0  0  0
  145.9609  134.2161  151.9097 H   0  0  0  0  0  0  0  0  0  0  0  0
  145.5128  133.6532  153.5024 H   0  0  0  0  0  0  0  0  0  0  0  0
  146.7933  132.4413  154.8499 H   0  0  0  0  0  0  0  0  0  0  0  0
  149.0286  131.7834  155.6013 H   0  0  0  0  0  0  0  0  0  0  0  0
  149.4404  131.7914  153.8449 H   0  0  0  0  0  0  0  0  0  0  0  0
  149.8028  134.2026  153.8323 H   0  0  0  0  0  0  0  0  0  0  0  0
  151.2655  133.2693  157.6859 H   0  0  0  0  0  0  0  0  0  0  0  0
  150.5733  132.0358  156.6392 H   0  0  0  0  0  0  0  0  0  0  0  0
  149.5105  133.1521  157.4967 H   0  0  0  0  0  0  0  0  0  0  0  0
  149.7342  136.9927  158.9040 H   0  0  0  0  0  0  0  0  0  0  0  0
  152.9031  137.9651  153.3808 H   0  0  0  0  0  0  0  0  0  0  0  0
  152.8836  139.8996  156.4631 H   0  0  0  0  0  0  0  0  0  0  0  0
  153.1270  140.0658  154.7437 H   0  0  0  0  0  0  0  0  0  0  0  0
  149.6715  140.4013  154.2374 H   0  0  0  0  0  0  0  0  0  0  0  0
  152.6369  142.3780  155.5843 H   0  0  0  0  0  0  0  0  0  0  0  0
  151.0982  142.8495  154.8798 H   0  0  0  0  0  0  0  0  0  0  0  0
  151.6529  142.2449  157.7989 H   0  0  0  0  0  0  0  0  0  0  0  0
  150.7748  143.6191  157.1096 H   0  0  0  0  0  0  0  0  0  0  0  0
  150.6007  139.9681  157.3722 H   0  0  0  0  0  0  0  0  0  0  0  0
  149.0827  138.7425  155.7466 H   0  0  0  0  0  0  0  0  0  0  0  0
  148.2603  140.2677  155.4131 H   0  0  0  0  0  0  0  0  0  0  0  0
  148.2074  139.5736  157.0271 H   0  0  0  0  0  0  0  0  0  0  0  0
  147.9930  136.4039  155.2419 H   0  0  0  0  0  0  0  0  0  0  0  0
  146.5091  135.6470  154.6759 H   0  0  0  0  0  0  0  0  0  0  0  0
  147.9136  135.7340  153.6258 H   0  0  0  0  0  0  0  0  0  0  0  0
  148.1321  135.0035  157.2399 H   0  0  0  0  0  0  0  0  0  0  0  0
  148.0246  133.2558  157.1629 H   0  0  0  0  0  0  0  0  0  0  0  0
  146.6131  134.2341  156.8145 H   0  0  0  0  0  0  0  0  0  0  0  0
  1  2  1  0  0  0  0
  1 29  1  0  0  0  0
  1 30  1  0  0  0  0
  1 31  1  0  0  0  0
  2  3  1  0  0  0  0
  2 32  1  0  0  0  0
  2 33  1  0  0  0  0
  3  4  1  0  0  0  0
  4 26  1  0  0  0  0
  4  5  1  0  0  0  0
  4 34  1  0  0  0  0
  5  6  1  0  0  0  0
  5 35  1  0  0  0  0
  5 36  1  0  0  0  0
  6  7  1  0  0  0  0
  6 26  1  0  0  0  0
  6 37  1  0  0  0  0
  7  8  1  0  0  0  0
  7  9  1  0  0  0  0
  8 38  1  0  0  0  0
  8 39  1  0  0  0  0
  8 40  1  0  0  0  0
  9 14  1  0  0  0  0
  9 10  2  0  0  0  0
 10 11  1  0  0  0  0
 11 12  2  0  0  0  0
 11 41  1  0  0  0  0
 12 13  1  0  0  0  0
 13 17  1  0  0  0  0
 13 14  2  0  0  0  0
 14 15  1  0  0  0  0
 15 16  2  0  0  0  0
 16 17  1  0  0  0  0
 16 42  1  0  0  0  0
 17 18  1  0  0  0  0
 18 19  1  0  0  0  0
 18 43  1  0  0  0  0
 18 44  1  0  0  0  0
 19 24  1  0  0  0  0
 19 20  1  0  0  0  0
 19 21  1  0  0  0  0
 20 45  1  0  0  0  0
 21 22  1  0  0  0  0
 21 46  1  0  0  0  0
 21 47  1  0  0  0  0
 22 23  1  0  0  0  0
 22 48  1  0  0  0  0
 22 49  1  0  0  0  0
 23 24  1  0  0  0  0
 24 25  1  0  0  0  0
 24 50  1  0  0  0  0
 25 51  1  0  0  0  0
 25 52  1  0  0  0  0
 25 53  1  0  0  0  0
 26 27  1  0  0  0  0
 26 28  1  0  0  0  0
 27 54  1  0  0  0  0
 27 55  1  0  0  0  0
 27 56  1  0  0  0  0
 28 57  1  0  0  0  0
 28 58  1  0  0  0  0
 28 59  1  0  0  0  0
M  END
> <s_m_source_file>
AV-unprocessed.smi

> <i_m_source_file_index>
234

> <i_lp_mmshare_version>
43012

> <i_f3d_flags>
0

> <s_epik_input>
W0NIM11bQ0gyXU9bQ0BASF0oQzEoW0NIM10pW0NIM10pW0NIMl1bQ0BIXTFOKFtDSDNdKWMobltjSF1uMiljKGMyMyluW2NIXW4zW0NIMl1bQ0BAXTQoW09IXSlbQ0gyXVtDSDJdT1tDQEhdNFtDSDNd

> <s_epik_cmdline>
J2VwaWtfcHl0aG9uJywgJy1waCcsICc3LjAnLCAnLXRuJywgJzgnLCAnLW1hJywgJzIwMCcsICctbWV0YWxfYmluZGluZycsICctaW1hZScsICc8aW5maWxlLm1hZT4nLCAnLW9tYWUnLCAnPG91dGZpbGUubWFlPic=

> <r_lp_tautomer_probability>
1

> <r_epik_Ionization_Penalty>
0.00349132

> <r_epik_Ionization_Penalty_Charging>
0

> <r_epik_Ionization_Penalty_Neutral>
0.00349132

> <r_epik_State_Penalty>
0.00242418

> <r_epik_Charging_Adjusted_Penalty>
0.00242418

> <i_epik_Tot_Q>
0

> <i_epik_Tot_abs_Q>
0

> <r_epik_Metal_State_Penalty>
-0

> <b_epik_Metal_Only>
0

> <s_lp_Force_Field>
OPLS_2005

> <r_lp_Energy>
49.6192

> <b_lp_Chiralities_Consistent>
1

> <s_lp_Variant>
AV-unprocessed.smi:234-8

> <Gold.Version>
5.8.1

> <Gold.Id.Protein>
6NUR|6NUR_protein|mol2

> <Gold.PLP.Fitness>
39.6427

> <Gold.PLP.PLP>
-36.9145

> <Gold.PLP.part.hbond>
-2.6498

> <Gold.PLP.part.metal>
0.0000

> <Gold.PLP.part.buried>
-4.6511

> <Gold.PLP.part.nonpolar>
-30.6132

> <Gold.PLP.part.repulsive>
1.1727

> <Gold.PLP.ligand.clash>
0.0433

> <Gold.PLP.ligand.torsion>
1.6765

> <Gold.PLP.Chemscore.Hbond>
1.7793

> <Gold.PLP.Chemscore.CHOScore>
0.0000

> <Gold.PLP.Chemscore.Metal>
0.0000

> <Gold.Chemscore.Hbonds>
donor molecule, donor type, donor heavy atom, donor atom, acceptor molecule, acceptor atom, score
      P1  H  6896  6909       L1    10  0.02
      P1  H  7989  7998       L1    20  0.21
      P1  H 10752 10764       L1    15  0.23

> <Gold.PLP.Chemscore.Internal.Correction>
0.7865

> <Gold.Rescore>
     Score         DG    S(hbond)    S(metal)    S(lipo)     H(rot)  DE(clash)    DE(int)     intcor
      9.38     -12.53       1.53        0.00      73.94       2.62       0.10       3.05       ----

> <Gold.Chemscore.Fitness>
9.3830

> <Gold.Chemscore.DG>
-12.5261

> <Gold.Chemscore.ZeroCoef>
-5.4800

> <Gold.Chemscore.Hbond>
1.5290

> <Gold.Chemscore.Metal>
0.0000

> <Gold.Chemscore.Lipo>
73.9429

> <Gold.Chemscore.Internal_Hbond>
0.0000

> <Gold.Chemscore.DEClash>
0.0978

> <Gold.Chemscore.DEInternal>
3.0453

> <Gold.Chemscore.Rot>
2.6219

> <Gold.Chemscore.Internal.Correction>
   9.000000E+99

> <Gold.Chemscore.Hbonds>
donor molecule, donor type, donor heavy atom, donor atom, acceptor molecule, acceptor atom, score
      P1  H  6896  6909       L1    10  0.02
      P1  H  7989  7998       L1    20  0.04
      P1  H 10752 10764       L1    15  0.12

> <Gold.Chemscore.Hbond.Weighted>
-5.1069

> <Gold.Chemscore.Metal.Weighted>
-0.0000

> <Gold.Chemscore.Lipo.Weighted>
-8.6513

> <Gold.Chemscore.Internal_Hbond.Weighted>
0.0000

> <Gold.Chemscore.DEClash.Weighted>
0.0978

> <Gold.Chemscore.DEInternal.Weighted>
3.0453

> <Gold.Chemscore.Rot.Weighted>
6.7121

> <Gold.Chemscore.Internal.Correction.Weighted>
   9.000000E+99

> <Gold.Protein.RotatedTorsions>
[ 6907 6896 6895 6894 ] final   24.88 input  -60.11 | X-H torsion
[ 7974 7965 7964 7962 ] final   63.08 input  175.53 | X-H torsion
[ 8008 7997 7996 7995 ] final  129.91 input   59.86 | X-H torsion
[ 10167 10162 10161 10158 ] final -160.00 input  -65.29 | X-H torsion
[ 10718 10713 10712 10709 ] final  -37.46 input   66.30 | X-H torsion
[ 10763 10752 10751 10750 ] final  -84.70 input  -60.55 | X-H torsion
[ 11005 11000 10999 10996 ] final   34.40 input  -57.11 | X-H torsion

> <Gold.Protein.ActiveResidues>
 VAL166  LYS551  ARG553  GLY616  TRP617  ASP618  TYR619  PRO620  LYS621  CYS622 
 ASP623  PHE694  ASN695  SER759  ASP760  ASP761  ALA762  ILE779  LEU786  VAL792 
 PHE793  MET794  SER795  GLU796  ALA797  LYS798  CYS799  TRP800  GLU811  SER814 

> <Gold.Protein.RotatedAtoms>
  151.9642  135.0109  160.0549 H   0  0  0  0  0  0  0  0  0  0  0  0  # atno 6907 bound_to 6896
  152.1841  133.4723  159.4982 H   0  0  0  0  0  0  0  0  0  0  0  0  # atno 6908 bound_to 6896
  150.6923  134.1713  159.4256 H   0  0  0  0  0  0  0  0  0  0  0  0  # atno 6909 bound_to 6896
  145.8660  139.3346  143.0791 H   0  0  0  0  0  0  0  0  0  0  0  0  # atno 7974 bound_to 7965
  156.2945  140.2609  156.2675 H   0  0  0  0  0  0  0  0  0  0  0  0  # atno 8008 bound_to 7997
  154.9728  140.0391  157.2260 H   0  0  0  0  0  0  0  0  0  0  0  0  # atno 8009 bound_to 7997
  154.7843  140.2800  155.6044 H   0  0  0  0  0  0  0  0  0  0  0  0  # atno 8010 bound_to 7997
  139.6573  143.9976  152.2202 H   0  0  0  0  0  0  0  0  0  0  0  0  # atno 10167 bound_to 10162
  156.3150  130.4257  149.8014 H   0  0  0  0  0  0  0  0  0  0  0  0  # atno 10718 bound_to 10713
  154.6025  135.5511  153.7389 H   0  0  0  0  0  0  0  0  0  0  0  0  # atno 10763 bound_to 10752
  153.0161  135.6370  154.1693 H   0  0  0  0  0  0  0  0  0  0  0  0  # atno 10764 bound_to 10752
  154.1633  135.2896  155.3082 H   0  0  0  0  0  0  0  0  0  0  0  0  # atno 10765 bound_to 10752
  140.2533  134.3278  155.7883 H   0  0  0  0  0  0  0  0  0  0  0  0  # atno 11005 bound_to 11000
  145.9193  140.9126  143.0413 LP  0  0  0  0  0  0  0  0  0  0  0  0  # atno 17320 bound_to 7965
  144.6726  140.1267  143.7446 LP  0  0  0  0  0  0  0  0  0  0  0  0  # atno 17321 bound_to 7965
  139.9706  144.6496  150.7993 LP  0  0  0  0  0  0  0  0  0  0  0  0  # atno 17342 bound_to 10162
  140.7564  143.3066  151.2947 LP  0  0  0  0  0  0  0  0  0  0  0  0  # atno 17343 bound_to 10162
  156.5343  130.8272  151.3248 LP  0  0  0  0  0  0  0  0  0  0  0  0  # atno 17370 bound_to 10713
  157.7399  130.9841  150.2345 LP  0  0  0  0  0  0  0  0  0  0  0  0  # atno 17371 bound_to 10713
  141.2199  133.7366  156.9071 LP  0  0  0  0  0  0  0  0  0  0  0  0  # atno 17394 bound_to 11000
  140.1537  134.9213  157.2625 LP  0  0  0  0  0  0  0  0  0  0  0  0  # atno 17395 bound_to 11000

$$$$
