AV-unprocessed.smi:2586|AV-procd|sdf|10145|dock4
  -GOLD-   2272014153D 1   1.00000     0.00000
 Structure written by MMmdl.
 30 31  0  0  0  0  0  0  0  0  1 V2000
  144.7350  132.1303  150.0721 C   0  0  0  0  0  0  0  0  0  0  0  0
  144.3200  132.8421  151.2318 O   0  0  0  0  0  0  0  0  0  0  0  0
  145.2574  133.7692  151.7904 C   0  0  0  0  0  0  0  0  0  0  0  0
  146.5241  133.0713  152.3007 C   0  0  0  0  0  0  0  0  0  0  0  0
  147.4113  134.0268  152.9569 N   0  0  0  0  0  0  0  0  0  0  0  0
  147.8424  133.9495  154.2235 C   0  0  0  0  0  0  0  0  0  0  0  0
  147.4968  133.0656  155.0076 O   0  0  0  0  0  0  0  0  0  0  0  0
  148.6923  134.9525  154.5042 N   0  0  0  0  0  0  0  0  0  0  0  0
  149.3485  135.2078  155.6657 C   0  0  0  0  0  0  0  0  0  0  0  0
  149.3785  134.4038  156.7731 C   0  0  0  0  0  0  0  0  0  0  0  0
  150.1378  134.9173  157.8368 N   0  0  0  0  0  0  0  0  0  0  0  0
  150.6868  136.0705  157.5913 N   0  0  0  0  0  0  0  0  0  0  0  0
  150.3108  136.6012  156.0486 S   0  0  0  0  0  0  0  0  0  0  0  0
  145.4229  134.9105  150.7691 C   0  0  0  0  0  0  0  0  0  0  0  0
  144.2719  135.6526  151.4505 C   0  0  0  0  0  0  0  0  0  0  0  0
  144.5432  134.7992  152.6909 C   0  0  0  0  0  0  0  0  0  0  0  0
  143.9876  131.3741  149.8332 H   0  0  0  0  0  0  0  0  0  0  0  0
  145.6866  131.6198  150.2157 H   0  0  0  0  0  0  0  0  0  0  0  0
  144.8184  132.7832  149.2042 H   0  0  0  0  0  0  0  0  0  0  0  0
  146.2598  132.3132  153.0386 H   0  0  0  0  0  0  0  0  0  0  0  0
  147.0235  132.5278  151.4978 H   0  0  0  0  0  0  0  0  0  0  0  0
  147.7495  134.7889  152.3880 H   0  0  0  0  0  0  0  0  0  0  0  0
  148.8802  135.5987  153.7519 H   0  0  0  0  0  0  0  0  0  0  0  0
  148.8899  133.4487  156.8977 H   0  0  0  0  0  0  0  0  0  0  0  0
  146.3741  135.4352  150.8722 H   0  0  0  0  0  0  0  0  0  0  0  0
  145.2349  134.6319  149.7317 H   0  0  0  0  0  0  0  0  0  0  0  0
  144.4330  136.7225  151.5865 H   0  0  0  0  0  0  0  0  0  0  0  0
  143.3035  135.4414  150.9943 H   0  0  0  0  0  0  0  0  0  0  0  0
  143.6438  134.4532  153.1991 H   0  0  0  0  0  0  0  0  0  0  0  0
  145.2235  135.2899  153.3889 H   0  0  0  0  0  0  0  0  0  0  0  0
  1  2  1  0  0  0  0
  1 17  1  0  0  0  0
  1 18  1  0  0  0  0
  1 19  1  0  0  0  0
  2  3  1  0  0  0  0
  3 16  1  0  0  0  0
  3  4  1  0  0  0  0
  3 14  1  0  0  0  0
  4  5  1  0  0  0  0
  4 20  1  0  0  0  0
  4 21  1  0  0  0  0
  5  6  1  0  0  0  0
  5 22  1  0  0  0  0
  6  7  2  0  0  0  0
  6  8  1  0  0  0  0
  8  9  1  0  0  0  0
  8 23  1  0  0  0  0
  9 13  1  0  0  0  0
  9 10  2  0  0  0  0
 10 11  1  0  0  0  0
 10 24  1  0  0  0  0
 11 12  2  0  0  0  0
 12 13  1  0  0  0  0
 14 15  1  0  0  0  0
 14 25  1  0  0  0  0
 14 26  1  0  0  0  0
 15 16  1  0  0  0  0
 15 27  1  0  0  0  0
 15 28  1  0  0  0  0
 16 29  1  0  0  0  0
 16 30  1  0  0  0  0
M  END
> <s_m_source_file>
AV-unprocessed.smi

> <i_m_source_file_index>
2586

> <i_lp_mmshare_version>
43012

> <i_f3d_flags>
0

> <s_epik_input>
W0NIMl0xW0NIMl1bQ0gyXUMxKE9bQ0gzXSlbQ0gyXVtOSF1DKD1PKVtOSF1jMltjSF1ubnMy

> <s_epik_cmdline>
J2VwaWtfcHl0aG9uJywgJy1waCcsICc3LjAnLCAnLXRuJywgJzgnLCAnLW1hJywgJzIwMCcsICctbWV0YWxfYmluZGluZycsICctaW1hZScsICc8aW5maWxlLm1hZT4nLCAnLW9tYWUnLCAnPG91dGZpbGUubWFlPic=

> <r_lp_tautomer_probability>
1

> <r_epik_Ionization_Penalty>
2.25632e-05

> <r_epik_Ionization_Penalty_Charging>
0

> <r_epik_Ionization_Penalty_Neutral>
2.25632e-05

> <r_epik_State_Penalty>
-0

> <r_epik_Charging_Adjusted_Penalty>
0

> <i_epik_Tot_Q>
0

> <i_epik_Tot_abs_Q>
0

> <r_epik_Metal_State_Penalty>
-0

> <b_epik_Metal_Only>
0

> <s_lp_Force_Field>
OPLS_2005

> <r_lp_Energy>
14.9091

> <b_lp_Chiralities_Consistent>
1

> <s_lp_Variant>
AV-unprocessed.smi:2586-1

> <Gold.Version>
5.8.1

> <Gold.Id.Protein>
6NUR|6NUR_protein|mol2

> <Gold.PLP.Fitness>
34.1780

> <Gold.PLP.PLP>
-26.6643

> <Gold.PLP.part.hbond>
-4.0000

> <Gold.PLP.part.metal>
0.0000

> <Gold.PLP.part.buried>
-5.0489

> <Gold.PLP.part.nonpolar>
-17.7332

> <Gold.PLP.part.repulsive>
0.2071

> <Gold.PLP.ligand.clash>
0.0000

> <Gold.PLP.ligand.torsion>
0.1929

> <Gold.PLP.Chemscore.Hbond>
2.5429

> <Gold.PLP.Chemscore.CHOScore>
0.0000

> <Gold.PLP.Chemscore.Metal>
0.0000

> <Gold.Chemscore.Hbonds>
donor molecule, donor type, donor heavy atom, donor atom, acceptor molecule, acceptor atom, score
      L1  H     5    22       P1  7948  1.00
      L1  H     8    23       P1  7948  1.00
      P1  H  6896  6907       L1    11  0.06
      P1  H  6896  6908       L1    11  0.01

> <Gold.PLP.Chemscore.Internal.Correction>
0.2708

> <Gold.Rescore>
     Score         DG    S(hbond)    S(metal)    S(lipo)     H(rot)  DE(clash)    DE(int)     intcor
     11.65     -13.11       1.84        0.00      47.92       1.61       0.00       1.46       ----

> <Gold.Chemscore.Fitness>
11.6498

> <Gold.Chemscore.DG>
-13.1111

> <Gold.Chemscore.ZeroCoef>
-5.4800

> <Gold.Chemscore.Hbond>
1.8432

> <Gold.Chemscore.Metal>
0.0000

> <Gold.Chemscore.Lipo>
47.9225

> <Gold.Chemscore.Internal_Hbond>
0.0000

> <Gold.Chemscore.DEClash>
0.0029

> <Gold.Chemscore.DEInternal>
1.4583

> <Gold.Chemscore.Rot>
1.6141

> <Gold.Chemscore.Internal.Correction>
   9.000000E+99

> <Gold.Chemscore.Hbonds>
donor molecule, donor type, donor heavy atom, donor atom, acceptor molecule, acceptor atom, score
      L1  H     5    22       P1  7948  0.81
      L1  H     8    23       P1  7948  0.87
      P1  H  6896  6907       L1    11  0.06

> <Gold.Chemscore.Hbond.Weighted>
-6.1562

> <Gold.Chemscore.Metal.Weighted>
-0.0000

> <Gold.Chemscore.Lipo.Weighted>
-5.6069

> <Gold.Chemscore.Internal_Hbond.Weighted>
0.0000

> <Gold.Chemscore.DEClash.Weighted>
0.0029

> <Gold.Chemscore.DEInternal.Weighted>
1.4583

> <Gold.Chemscore.Rot.Weighted>
4.1320

> <Gold.Chemscore.Internal.Correction.Weighted>
   9.000000E+99

> <Gold.Protein.RotatedTorsions>
[ 6907 6896 6895 6894 ] final -146.10 input  -60.11 | X-H torsion
[ 7974 7965 7964 7962 ] final  -40.62 input  175.53 | X-H torsion
[ 8008 7997 7996 7995 ] final -169.33 input   59.86 | X-H torsion
[ 10167 10162 10161 10158 ] final -107.72 input  -65.29 | X-H torsion
[ 10718 10713 10712 10709 ] final -127.08 input   66.30 | X-H torsion
[ 10763 10752 10751 10750 ] final -127.11 input  -60.55 | X-H torsion
[ 11005 11000 10999 10996 ] final   33.26 input  -57.11 | X-H torsion

> <Gold.Protein.ActiveResidues>
 VAL166  LYS551  ARG553  GLY616  TRP617  ASP618  TYR619  PRO620  LYS621  CYS622 
 ASP623  PHE694  ASN695  SER759  ASP760  ASP761  ALA762  ILE779  LEU786  VAL792 
 PHE793  MET794  SER795  GLU796  ALA797  LYS798  CYS799  TRP800  GLU811  SER814 

> <Gold.Protein.RotatedAtoms>
  151.1369  133.4998  159.2597 H   0  0  0  0  0  0  0  0  0  0  0  0  # atno 6907 bound_to 6896
  151.1696  135.0311  159.8756 H   0  0  0  0  0  0  0  0  0  0  0  0  # atno 6908 bound_to 6896
  152.5461  134.1234  159.8462 H   0  0  0  0  0  0  0  0  0  0  0  0  # atno 6909 bound_to 6896
  146.0287  140.6758  142.9143 H   0  0  0  0  0  0  0  0  0  0  0  0  # atno 7974 bound_to 7965
  155.9034  140.1045  157.1333 H   0  0  0  0  0  0  0  0  0  0  0  0  # atno 8008 bound_to 7997
  154.4029  140.1288  156.4530 H   0  0  0  0  0  0  0  0  0  0  0  0  # atno 8009 bound_to 7997
  155.7395  140.3467  155.5100 H   0  0  0  0  0  0  0  0  0  0  0  0  # atno 8010 bound_to 7997
  140.1739  143.4021  152.1333 H   0  0  0  0  0  0  0  0  0  0  0  0  # atno 10167 bound_to 10162
  156.1824  130.6741  151.0321 H   0  0  0  0  0  0  0  0  0  0  0  0  # atno 10718 bound_to 10713
  154.8750  135.3973  154.3540 H   0  0  0  0  0  0  0  0  0  0  0  0  # atno 10763 bound_to 10752
  153.4322  135.7025  153.6229 H   0  0  0  0  0  0  0  0  0  0  0  0  # atno 10764 bound_to 10752
  153.4845  135.3762  155.2429 H   0  0  0  0  0  0  0  0  0  0  0  0  # atno 10765 bound_to 10752
  140.2650  134.3148  155.7845 H   0  0  0  0  0  0  0  0  0  0  0  0  # atno 11005 bound_to 11000
  144.7021  140.3697  143.7147 LP  0  0  0  0  0  0  0  0  0  0  0  0  # atno 17320 bound_to 7965
  145.7075  139.1676  143.2557 LP  0  0  0  0  0  0  0  0  0  0  0  0  # atno 17321 bound_to 7965
  139.5326  144.7175  151.5004 LP  0  0  0  0  0  0  0  0  0  0  0  0  # atno 17342 bound_to 10162
  140.6564  143.8590  150.6840 LP  0  0  0  0  0  0  0  0  0  0  0  0  # atno 17343 bound_to 10162
  157.6877  131.0820  150.7197 LP  0  0  0  0  0  0  0  0  0  0  0  0  # atno 17370 bound_to 10713
  156.7254  130.4693  149.5512 LP  0  0  0  0  0  0  0  0  0  0  0  0  # atno 17371 bound_to 10713
  141.2185  133.7432  156.9246 LP  0  0  0  0  0  0  0  0  0  0  0  0  # atno 17394 bound_to 11000
  140.1428  134.9282  157.2489 LP  0  0  0  0  0  0  0  0  0  0  0  0  # atno 17395 bound_to 11000

$$$$
