AV-unprocessed.smi:2355|AV-procd|sdf|9390|dock2
  -GOLD-   2272013 23D 1   1.00000     0.00000
 Structure written by MMmdl.
 49 50  0  0  0  0  0  0  0  0  2 V2000
  151.7593  145.5669  159.6100 C   0  0  0  0  0  0  0  0  0  0  0  0
  152.0175  144.0965  159.3577 C   0  0  0  0  0  0  0  0  0  0  0  0
  152.8077  143.3476  160.2498 C   0  0  0  0  0  0  0  0  0  0  0  0
  153.0199  141.9843  159.9673 C   0  0  0  0  0  0  0  0  0  0  0  0
  153.8582  141.1208  160.8860 C   0  0  0  0  0  0  0  0  0  0  0  0
  152.5004  141.3672  158.8846 N   0  0  0  0  0  0  0  0  0  0  0  0
  151.7356  142.0781  158.0194 C   0  0  0  0  0  0  0  0  0  0  0  0
  151.1551  141.5244  156.8477 N   0  0  0  0  0  0  0  0  0  0  0  0
  151.2353  140.2573  156.4063 C   0  0  0  0  0  0  0  0  0  0  0  0
  151.7569  139.3238  157.0158 O   0  0  0  0  0  0  0  0  0  0  0  0
  150.6787  140.1275  155.1922 N   0  0  0  0  0  0  0  0  0  0  0  0
  150.5817  138.8911  154.4110 C   0  0  1  0  0  0  0  0  0  0  0  0
  152.0035  138.3307  154.2381 C   0  0  0  0  0  0  0  0  0  0  0  0
  149.6044  137.8796  155.0775 C   0  0  2  0  0  0  0  0  0  0  0  0
  150.2846  136.5552  155.4868 C   0  0  0  0  0  0  0  0  0  0  0  0
  148.3908  137.6585  154.2353 N   0  3  0  0  0  0  0  0  0  0  0  0
  147.3161  136.8401  154.8518 C   0  0  0  0  0  0  0  0  0  0  0  0
  146.2380  136.5260  153.8024 C   0  0  0  0  0  0  0  0  0  0  0  0
  145.7184  137.7448  153.2828 O   0  0  0  0  0  0  0  0  0  0  0  0
  146.7182  138.5216  152.6326 C   0  0  0  0  0  0  0  0  0  0  0  0
  147.8283  138.8900  153.6328 C   0  0  0  0  0  0  0  0  0  0  0  0
  151.4776  143.4517  158.2260 C   0  0  0  0  0  0  0  0  0  0  0  0
  151.5615  145.7446  160.6675 H   0  0  0  0  0  0  0  0  0  0  0  0
  150.8983  145.9186  159.0408 H   0  0  0  0  0  0  0  0  0  0  0  0
  152.6285  146.1566  159.3186 H   0  0  0  0  0  0  0  0  0  0  0  0
  153.2391  143.8075  161.1270 H   0  0  0  0  0  0  0  0  0  0  0  0
  154.4604  141.7322  161.5585 H   0  0  0  0  0  0  0  0  0  0  0  0
  154.5331  140.4880  160.3090 H   0  0  0  0  0  0  0  0  0  0  0  0
  153.2155  140.4790  161.4892 H   0  0  0  0  0  0  0  0  0  0  0  0
  150.6496  142.1756  156.2654 H   0  0  0  0  0  0  0  0  0  0  0  0
  150.2724  140.9522  154.7743 H   0  0  0  0  0  0  0  0  0  0  0  0
  150.2136  139.1315  153.4122 H   0  0  0  0  0  0  0  0  0  0  0  0
  152.0235  137.4839  153.5526 H   0  0  0  0  0  0  0  0  0  0  0  0
  152.4213  138.0019  155.1903 H   0  0  0  0  0  0  0  0  0  0  0  0
  152.6737  139.0859  153.8257 H   0  0  0  0  0  0  0  0  0  0  0  0
  149.2625  138.3557  155.9978 H   0  0  0  0  0  0  0  0  0  0  0  0
  151.0335  136.7158  156.2618 H   0  0  0  0  0  0  0  0  0  0  0  0
  150.7859  136.0802  154.6433 H   0  0  0  0  0  0  0  0  0  0  0  0
  149.5648  135.8445  155.8926 H   0  0  0  0  0  0  0  0  0  0  0  0
  147.7243  135.9117  155.2503 H   0  0  0  0  0  0  0  0  0  0  0  0
  146.8615  137.3758  155.6861 H   0  0  0  0  0  0  0  0  0  0  0  0
  146.6435  135.9130  152.9956 H   0  0  0  0  0  0  0  0  0  0  0  0
  145.4252  135.9591  154.2563 H   0  0  0  0  0  0  0  0  0  0  0  0
  147.1274  137.9691  151.7851 H   0  0  0  0  0  0  0  0  0  0  0  0
  146.2586  139.4249  152.2313 H   0  0  0  0  0  0  0  0  0  0  0  0
  147.4304  139.5394  154.4134 H   0  0  0  0  0  0  0  0  0  0  0  0
  148.6108  139.4472  153.1165 H   0  0  0  0  0  0  0  0  0  0  0  0
  150.8703  144.0066  157.5252 H   0  0  0  0  0  0  0  0  0  0  0  0
  148.7233  137.1162  153.4505 H   0  0  0  0  0  0  0  0  0  0  0  0
  1  2  1  0  0  0  0
  1 23  1  0  0  0  0
  1 24  1  0  0  0  0
  1 25  1  0  0  0  0
  2 22  1  0  0  0  0
  2  3  2  0  0  0  0
  3  4  1  0  0  0  0
  3 26  1  0  0  0  0
  4  5  1  0  0  0  0
  4  6  2  0  0  0  0
  5 27  1  0  0  0  0
  5 28  1  0  0  0  0
  5 29  1  0  0  0  0
  6  7  1  0  0  0  0
  7  8  1  0  0  0  0
  7 22  2  0  0  0  0
  8  9  1  0  0  0  0
  8 30  1  0  0  0  0
  9 10  2  0  0  0  0
  9 11  1  0  0  0  0
 11 12  1  0  0  0  0
 11 31  1  0  0  0  0
 12 13  1  0  0  0  0
 12 14  1  0  0  0  0
 12 32  1  0  0  0  0
 13 33  1  0  0  0  0
 13 34  1  0  0  0  0
 13 35  1  0  0  0  0
 14 15  1  0  0  0  0
 14 16  1  0  0  0  0
 14 36  1  0  0  0  0
 15 37  1  0  0  0  0
 15 38  1  0  0  0  0
 15 39  1  0  0  0  0
 16 21  1  0  0  0  0
 16 17  1  0  0  0  0
 16 49  1  0  0  0  0
 17 18  1  0  0  0  0
 17 40  1  0  0  0  0
 17 41  1  0  0  0  0
 18 19  1  0  0  0  0
 18 42  1  0  0  0  0
 18 43  1  0  0  0  0
 19 20  1  0  0  0  0
 20 21  1  0  0  0  0
 20 44  1  0  0  0  0
 20 45  1  0  0  0  0
 21 46  1  0  0  0  0
 21 47  1  0  0  0  0
 22 48  1  0  0  0  0
M  CHG  1  16   1
M  END
> <s_m_source_file>
AV-unprocessed.smi

> <i_m_source_file_index>
2355

> <i_lp_mmshare_version>
43012

> <i_f3d_flags>
0

> <s_epik_input>
W0NIM11jMVtjSF1jKFtDSDNdKW5jKFtjSF0xKVtOSF1DKD1PKVtOSF1bQ0BIXShbQ0gzXSlbQ0BIXShbQ0gzXSlOMltDSDJdW0NIMl1PW0NIMl1bQ0gyXTI=

> <s_epik_cmdline>
J2VwaWtfcHl0aG9uJywgJy1waCcsICc3LjAnLCAnLXRuJywgJzgnLCAnLW1hJywgJzIwMCcsICctbWV0YWxfYmluZGluZycsICctaW1hZScsICc8aW5maWxlLm1hZT4nLCAnLW9tYWUnLCAnPG91dGZpbGUubWFlPic=

> <r_epik_Ionization_Penalty>
0.602711

> <r_epik_Ionization_Penalty_Charging>
0.602531

> <r_epik_Ionization_Penalty_Neutral>
0.000180055

> <r_epik_State_Penalty>
0.617039

> <r_epik_Charging_Adjusted_Penalty>
1.21957

> <i_epik_Tot_Q>
1

> <i_epik_Tot_abs_Q>
1

> <r_epik_Metal_State_Penalty>
0.617075

> <b_epik_Metal_Only>
0

> <s_lp_Force_Field>
OPLS_2005

> <r_lp_Energy>
26.6532

> <b_lp_Chiralities_Consistent>
1

> <s_lp_Variant>
AV-unprocessed.smi:2355-6

> <Gold.Version>
5.8.1

> <Gold.Id.Protein>
6NUR|6NUR_protein|mol2

> <Gold.PLP.Fitness>
45.8677

> <Gold.PLP.PLP>
-42.9799

> <Gold.PLP.part.hbond>
-1.0000

> <Gold.PLP.part.metal>
0.0000

> <Gold.PLP.part.buried>
-5.5966

> <Gold.PLP.part.nonpolar>
-36.9908

> <Gold.PLP.part.repulsive>
1.2940

> <Gold.PLP.ligand.clash>
0.0000

> <Gold.PLP.ligand.torsion>
1.6315

> <Gold.PLP.Chemscore.Hbond>
2.0000

> <Gold.PLP.Chemscore.CHOScore>
0.0000

> <Gold.PLP.Chemscore.Metal>
0.0000

> <Gold.Chemscore.Hbonds>
donor molecule, donor type, donor heavy atom, donor atom, acceptor molecule, acceptor atom, score
      L1  H    16    49       P1  7948  2.00

> <Gold.PLP.Chemscore.Internal.Correction>
0.1508

> <Gold.Rescore>
     Score         DG    S(hbond)    S(metal)    S(lipo)     H(rot)  DE(clash)    DE(int)     intcor
     14.07     -17.69       1.00        0.00     107.59       1.45       0.11       3.50       ----

> <Gold.Chemscore.Fitness>
14.0721

> <Gold.Chemscore.DG>
-17.6891

> <Gold.Chemscore.ZeroCoef>
-5.4800

> <Gold.Chemscore.Hbond>
0.9950

> <Gold.Chemscore.Metal>
0.0000

> <Gold.Chemscore.Lipo>
107.5906

> <Gold.Chemscore.Internal_Hbond>
0.0000

> <Gold.Chemscore.DEClash>
0.1145

> <Gold.Chemscore.DEInternal>
3.5025

> <Gold.Chemscore.Rot>
1.4462

> <Gold.Chemscore.Internal.Correction>
   9.000000E+99

> <Gold.Chemscore.Hbonds>
donor molecule, donor type, donor heavy atom, donor atom, acceptor molecule, acceptor atom, score
      L1  H    16    49       P1  7948  1.00

> <Gold.Chemscore.Hbond.Weighted>
-3.3233

> <Gold.Chemscore.Metal.Weighted>
-0.0000

> <Gold.Chemscore.Lipo.Weighted>
-12.5881

> <Gold.Chemscore.Internal_Hbond.Weighted>
0.0000

> <Gold.Chemscore.DEClash.Weighted>
0.1145

> <Gold.Chemscore.DEInternal.Weighted>
3.5025

> <Gold.Chemscore.Rot.Weighted>
3.7023

> <Gold.Chemscore.Internal.Correction.Weighted>
   9.000000E+99

> <Gold.Protein.RotatedTorsions>
[ 6907 6896 6895 6894 ] final  -48.39 input  -60.11 | X-H torsion
[ 7974 7965 7964 7962 ] final  -89.80 input  175.53 | X-H torsion
[ 8008 7997 7996 7995 ] final   48.77 input   59.86 | X-H torsion
[ 10167 10162 10161 10158 ] final  119.51 input  -65.29 | X-H torsion
[ 10718 10713 10712 10709 ] final  105.68 input   66.30 | X-H torsion
[ 10763 10752 10751 10750 ] final  -70.89 input  -60.55 | X-H torsion
[ 11005 11000 10999 10996 ] final   -8.24 input  -57.11 | X-H torsion

> <Gold.Protein.ActiveResidues>
 VAL166  LYS551  ARG553  GLY616  TRP617  ASP618  TYR619  PRO620  LYS621  CYS622 
 ASP623  PHE694  ASN695  SER759  ASP760  ASP761  ALA762  ILE779  LEU786  VAL792 
 PHE793  MET794  SER795  GLU796  ALA797  LYS798  CYS799  TRP800  GLU811  SER814 

> <Gold.Protein.RotatedAtoms>
  150.8910  134.8314  159.7293 H   0  0  0  0  0  0  0  0  0  0  0  0  # atno 6907 bound_to 6896
  152.4837  134.4648  159.9626 H   0  0  0  0  0  0  0  0  0  0  0  0  # atno 6908 bound_to 6896
  151.4710  133.3530  159.2859 H   0  0  0  0  0  0  0  0  0  0  0  0  # atno 6909 bound_to 6896
  145.4349  140.9557  143.2107 H   0  0  0  0  0  0  0  0  0  0  0  0  # atno 7974 bound_to 7965
  155.3911  140.3433  155.4251 H   0  0  0  0  0  0  0  0  0  0  0  0  # atno 8008 bound_to 7997
  156.1557  140.1585  156.8730 H   0  0  0  0  0  0  0  0  0  0  0  0  # atno 8009 bound_to 7997
  154.5092  140.0794  156.7938 H   0  0  0  0  0  0  0  0  0  0  0  0  # atno 8010 bound_to 7997
  139.6041  144.7065  151.2994 H   0  0  0  0  0  0  0  0  0  0  0  0  # atno 10167 bound_to 10162
  157.6697  131.0833  150.5892 H   0  0  0  0  0  0  0  0  0  0  0  0  # atno 10718 bound_to 10713
  154.4240  135.5980  153.6027 H   0  0  0  0  0  0  0  0  0  0  0  0  # atno 10763 bound_to 10752
  152.9795  135.5959  154.3920 H   0  0  0  0  0  0  0  0  0  0  0  0  # atno 10764 bound_to 10752
  154.3749  135.2841  155.2223 H   0  0  0  0  0  0  0  0  0  0  0  0  # atno 10765 bound_to 10752
  140.7213  133.8826  155.8823 H   0  0  0  0  0  0  0  0  0  0  0  0  # atno 11005 bound_to 11000
  144.8158  139.5879  143.7009 LP  0  0  0  0  0  0  0  0  0  0  0  0  # atno 17320 bound_to 7965
  146.2587  139.6361  142.9377 LP  0  0  0  0  0  0  0  0  0  0  0  0  # atno 17321 bound_to 7965
  140.7272  143.6970  150.7875 LP  0  0  0  0  0  0  0  0  0  0  0  0  # atno 17342 bound_to 10162
  140.0552  143.5209  152.2654 LP  0  0  0  0  0  0  0  0  0  0  0  0  # atno 17343 bound_to 10162
  156.6193  130.4401  149.5828 LP  0  0  0  0  0  0  0  0  0  0  0  0  # atno 17370 bound_to 10713
  156.2368  130.6827  151.1517 LP  0  0  0  0  0  0  0  0  0  0  0  0  # atno 17371 bound_to 10713
  141.0001  134.1162  157.4326 LP  0  0  0  0  0  0  0  0  0  0  0  0  # atno 17394 bound_to 11000
  139.8847  135.0066  156.6389 LP  0  0  0  0  0  0  0  0  0  0  0  0  # atno 17395 bound_to 11000

$$$$
