AV-unprocessed.smi:2663|AV-procd|sdf|10325|dock4
  -GOLD-   2272014343D 1   1.00000     0.00000
 Structure written by MMmdl.
 38 39  0  0  0  0  0  0  0  0  2 V2000
  150.2640  138.2789  156.4446 C   0  0  0  0  0  0  0  0  0  0  0  0
  151.0158  138.1935  157.7980 C   0  0  2  0  0  0  0  0  0  0  0  0
  151.9518  136.9497  157.7679 C   0  0  0  0  0  0  0  0  0  0  0  0
  152.6211  136.8075  156.5301 O   0  0  0  0  0  0  0  0  0  0  0  0
  150.0518  138.0465  158.9008 N   0  0  0  0  0  0  0  0  0  0  0  0
  149.3221  136.9810  159.2721 C   0  0  0  0  0  0  0  0  0  0  0  0
  149.4077  135.9154  158.6590 O   0  0  0  0  0  0  0  0  0  0  0  0
  148.5316  137.2213  160.3430 N   0  5  0  0  0  0  0  0  0  0  0  0
  147.9102  136.2042  160.9627 C   0  0  0  0  0  0  0  0  0  0  0  0
  147.5533  135.0819  160.3174 N   0  0  0  0  0  0  0  0  0  0  0  0
  146.9192  134.1582  161.1374 N   0  0  0  0  0  0  0  0  0  0  0  0
  146.8055  134.6137  162.3848 C   0  0  0  0  0  0  0  0  0  0  0  0
  147.4596  136.2128  162.6704 S   0  0  0  0  0  0  0  0  0  0  0  0
  151.8194  139.5185  158.0538 C   0  0  0  0  0  0  0  0  0  0  0  0
  152.6810  139.4844  159.3452 C   0  0  0  0  0  0  0  0  0  0  0  0
  153.4971  140.7731  159.5360 C   0  0  0  0  0  0  0  0  0  0  0  0
  152.5917  142.0109  159.5482 C   0  0  0  0  0  0  0  0  0  0  0  0
  151.7464  142.0750  158.2703 C   0  0  0  0  0  0  0  0  0  0  0  0
  150.9263  140.7893  158.0790 C   0  0  0  0  0  0  0  0  0  0  0  0
  150.9301  138.5951  155.6415 H   0  0  0  0  0  0  0  0  0  0  0  0
  149.4306  138.9803  156.4804 H   0  0  0  0  0  0  0  0  0  0  0  0
  149.8485  137.3163  156.1469 H   0  0  0  0  0  0  0  0  0  0  0  0
  152.6970  136.9976  158.5619 H   0  0  0  0  0  0  0  0  0  0  0  0
  151.3913  136.0314  157.9422 H   0  0  0  0  0  0  0  0  0  0  0  0
  152.4360  137.5688  156.0019 H   0  0  0  0  0  0  0  0  0  0  0  0
  149.9166  138.8764  159.4594 H   0  0  0  0  0  0  0  0  0  0  0  0
  146.3303  134.0059  163.1401 H   0  0  0  0  0  0  0  0  0  0  0  0
  152.5097  139.6469  157.2185 H   0  0  0  0  0  0  0  0  0  0  0  0
  152.0459  139.3297  160.2181 H   0  0  0  0  0  0  0  0  0  0  0  0
  153.3803  138.6498  159.3223 H   0  0  0  0  0  0  0  0  0  0  0  0
  154.0632  140.7194  160.4662 H   0  0  0  0  0  0  0  0  0  0  0  0
  154.2302  140.8635  158.7335 H   0  0  0  0  0  0  0  0  0  0  0  0
  151.9380  141.9799  160.4210 H   0  0  0  0  0  0  0  0  0  0  0  0
  153.1950  142.9142  159.6429 H   0  0  0  0  0  0  0  0  0  0  0  0
  151.0800  142.9371  158.3100 H   0  0  0  0  0  0  0  0  0  0  0  0
  152.3962  142.2256  157.4072 H   0  0  0  0  0  0  0  0  0  0  0  0
  150.3641  140.8865  157.1514 H   0  0  0  0  0  0  0  0  0  0  0  0
  150.1891  140.7184  158.8794 H   0  0  0  0  0  0  0  0  0  0  0  0
  1  2  1  0  0  0  0
  1 20  1  0  0  0  0
  1 21  1  0  0  0  0
  1 22  1  0  0  0  0
  2  3  1  0  0  0  0
  2  5  1  0  0  0  0
  2 14  1  0  0  0  0
  3  4  1  0  0  0  0
  3 23  1  0  0  0  0
  3 24  1  0  0  0  0
  4 25  1  0  0  0  0
  5  6  1  0  0  0  0
  5 26  1  0  0  0  0
  6  7  2  0  0  0  0
  6  8  1  0  0  0  0
  8  9  1  0  0  0  0
  9 13  1  0  0  0  0
  9 10  2  0  0  0  0
 10 11  1  0  0  0  0
 11 12  2  0  0  0  0
 12 13  1  0  0  0  0
 12 27  1  0  0  0  0
 14 19  1  0  0  0  0
 14 15  1  0  0  0  0
 14 28  1  0  0  0  0
 15 16  1  0  0  0  0
 15 29  1  0  0  0  0
 15 30  1  0  0  0  0
 16 17  1  0  0  0  0
 16 31  1  0  0  0  0
 16 32  1  0  0  0  0
 17 18  1  0  0  0  0
 17 33  1  0  0  0  0
 17 34  1  0  0  0  0
 18 19  1  0  0  0  0
 18 35  1  0  0  0  0
 18 36  1  0  0  0  0
 19 37  1  0  0  0  0
 19 38  1  0  0  0  0
M  CHG  1   8  -1
M  END
> <s_m_source_file>
AV-unprocessed.smi

> <i_m_source_file_index>
2663

> <i_lp_mmshare_version>
43012

> <i_f3d_flags>
0

> <s_epik_input>
W0NIMl0xW0NIMl1bQ0gyXVtDSDJdW0NIMl1bQ0hdMVtDQF0oW0NIM10pKFtDSDJdW09IXSlbTkhdQyg9TylbTkhdYzJubltjSF1zMg==

> <s_epik_cmdline>
J2VwaWtfcHl0aG9uJywgJy1waCcsICc3LjAnLCAnLXRuJywgJzgnLCAnLW1hJywgJzIwMCcsICctbWV0YWxfYmluZGluZycsICctaW1hZScsICc8aW5maWxlLm1hZT4nLCAnLW9tYWUnLCAnPG91dGZpbGUubWFlPic=

> <r_lp_tautomer_probability>
1

> <r_epik_Ionization_Penalty>
4.39194

> <r_epik_Ionization_Penalty_Charging>
4.34423

> <r_epik_Ionization_Penalty_Neutral>
0.047714

> <r_epik_State_Penalty>
4.34384

> <r_epik_Charging_Adjusted_Penalty>
8.68806

> <i_epik_Tot_Q>
-1

> <i_epik_Tot_abs_Q>
1

> <r_epik_Metal_State_Penalty>
0.746645

> <b_epik_Metal_Only>
1

> <s_lp_Force_Field>
OPLS_2005

> <r_lp_Energy>
18.1486

> <b_lp_Chiralities_Consistent>
1

> <s_lp_Variant>
AV-unprocessed.smi:2663-4

> <Gold.Version>
5.8.1

> <Gold.Id.Protein>
6NUR|6NUR_protein|mol2

> <Gold.PLP.Fitness>
42.4521

> <Gold.PLP.PLP>
-33.0539

> <Gold.PLP.part.hbond>
-3.9805

> <Gold.PLP.part.metal>
0.0000

> <Gold.PLP.part.buried>
-5.1178

> <Gold.PLP.part.nonpolar>
-24.5555

> <Gold.PLP.part.repulsive>
0.2122

> <Gold.PLP.ligand.clash>
0.0000

> <Gold.PLP.ligand.torsion>
0.7143

> <Gold.PLP.Chemscore.Hbond>
3.5856

> <Gold.PLP.Chemscore.CHOScore>
0.0000

> <Gold.PLP.Chemscore.Metal>
0.0000

> <Gold.Chemscore.Hbonds>
donor molecule, donor type, donor heavy atom, donor atom, acceptor molecule, acceptor atom, score
      P1  H  6896  6909       L1     7  1.00
      P1  H  6931  6943       L1     8  1.31
      P1  H  6934  6947       L1     8  0.30
      P1  H 10752 10764       L1     4  1.00

> <Gold.PLP.Chemscore.Internal.Correction>
0.0702

> <Gold.Rescore>
     Score         DG    S(hbond)    S(metal)    S(lipo)     H(rot)  DE(clash)    DE(int)     intcor
      9.97     -13.38       1.55        0.00      70.90       2.18       0.02       3.40       ----

> <Gold.Chemscore.Fitness>
9.9667

> <Gold.Chemscore.DG>
-13.3841

> <Gold.Chemscore.ZeroCoef>
-5.4800

> <Gold.Chemscore.Hbond>
1.5524

> <Gold.Chemscore.Metal>
0.0000

> <Gold.Chemscore.Lipo>
70.9032

> <Gold.Chemscore.Internal_Hbond>
0.0000

> <Gold.Chemscore.DEClash>
0.0207

> <Gold.Chemscore.DEInternal>
3.3967

> <Gold.Chemscore.Rot>
2.1783

> <Gold.Chemscore.Internal.Correction>
   9.000000E+99

> <Gold.Chemscore.Hbonds>
donor molecule, donor type, donor heavy atom, donor atom, acceptor molecule, acceptor atom, score
      P1  H  6896  6909       L1     7  0.56
      P1  H  6931  6943       L1     8  0.17
      P1  H  6934  6947       L1     8  0.06
      P1  H 10752 10764       L1     4  0.44

> <Gold.Chemscore.Hbond.Weighted>
-5.1850

> <Gold.Chemscore.Metal.Weighted>
-0.0000

> <Gold.Chemscore.Lipo.Weighted>
-8.2957

> <Gold.Chemscore.Internal_Hbond.Weighted>
0.0000

> <Gold.Chemscore.DEClash.Weighted>
0.0207

> <Gold.Chemscore.DEInternal.Weighted>
3.3967

> <Gold.Chemscore.Rot.Weighted>
5.5765

> <Gold.Chemscore.Internal.Correction.Weighted>
   9.000000E+99

> <Gold.Protein.RotatedTorsions>
[ 6907 6896 6895 6894 ] final   63.58 input  -60.11 | X-H torsion
[ 7974 7965 7964 7962 ] final  -64.59 input  175.53 | X-H torsion
[ 8008 7997 7996 7995 ] final  -89.34 input   59.86 | X-H torsion
[ 10167 10162 10161 10158 ] final   99.11 input  -65.29 | X-H torsion
[ 10718 10713 10712 10709 ] final  -80.44 input   66.30 | X-H torsion
[ 10763 10752 10751 10750 ] final  -12.86 input  -60.55 | X-H torsion
[ 11005 11000 10999 10996 ] final -164.97 input  -57.11 | X-H torsion

> <Gold.Protein.ActiveResidues>
 VAL166  LYS551  ARG553  GLY616  TRP617  ASP618  TYR619  PRO620  LYS621  CYS622 
 ASP623  PHE694  ASN695  SER759  ASP760  ASP761  ALA762  ILE779  LEU786  VAL792 
 PHE793  MET794  SER795  GLU796  ALA797  LYS798  CYS799  TRP800  GLU811  SER814 

> <Gold.Protein.RotatedAtoms>
  152.4264  134.5860  159.9960 H   0  0  0  0  0  0  0  0  0  0  0  0  # atno 6907 bound_to 6896
  151.5995  133.3352  159.3052 H   0  0  0  0  0  0  0  0  0  0  0  0  # atno 6908 bound_to 6896
  150.8154  134.7370  159.6790 H   0  0  0  0  0  0  0  0  0  0  0  0  # atno 6909 bound_to 6896
  145.7648  140.8843  143.0411 H   0  0  0  0  0  0  0  0  0  0  0  0  # atno 7974 bound_to 7965
  154.6854  140.0543  157.0309 H   0  0  0  0  0  0  0  0  0  0  0  0  # atno 8008 bound_to 7997
  155.0891  140.3217  155.4560 H   0  0  0  0  0  0  0  0  0  0  0  0  # atno 8009 bound_to 7997
  156.2709  140.2051  156.6019 H   0  0  0  0  0  0  0  0  0  0  0  0  # atno 8010 bound_to 7997
  139.7647  144.6943  151.0242 H   0  0  0  0  0  0  0  0  0  0  0  0  # atno 10167 bound_to 10162
  156.0070  130.4574  150.3800 H   0  0  0  0  0  0  0  0  0  0  0  0  # atno 10718 bound_to 10713
  153.5047  135.7017  153.5813 H   0  0  0  0  0  0  0  0  0  0  0  0  # atno 10763 bound_to 10752
  153.3929  135.3891  155.1935 H   0  0  0  0  0  0  0  0  0  0  0  0  # atno 10764 bound_to 10752
  154.8708  135.3862  154.4521 H   0  0  0  0  0  0  0  0  0  0  0  0  # atno 10765 bound_to 10752
  140.5810  134.5142  157.5178 H   0  0  0  0  0  0  0  0  0  0  0  0  # atno 11005 bound_to 11000
  144.6823  139.9773  143.7483 LP  0  0  0  0  0  0  0  0  0  0  0  0  # atno 17320 bound_to 7965
  146.0228  139.3266  143.0802 LP  0  0  0  0  0  0  0  0  0  0  0  0  # atno 17321 bound_to 7965
  140.7810  143.4657  151.0216 LP  0  0  0  0  0  0  0  0  0  0  0  0  # atno 17342 bound_to 10162
  139.8342  143.7650  152.3180 LP  0  0  0  0  0  0  0  0  0  0  0  0  # atno 17343 bound_to 10162
  157.1880  131.0408  151.2715 LP  0  0  0  0  0  0  0  0  0  0  0  0  # atno 17370 bound_to 10713
  157.4086  130.7373  149.6822 LP  0  0  0  0  0  0  0  0  0  0  0  0  # atno 17371 bound_to 10713
  139.9317  134.7951  156.0912 LP  0  0  0  0  0  0  0  0  0  0  0  0  # atno 17394 bound_to 11000
  141.0996  133.6682  156.2724 LP  0  0  0  0  0  0  0  0  0  0  0  0  # atno 17395 bound_to 11000

$$$$
