AV-unprocessed.smi:72|AV-procd|sdf|674|dock9
  -GOLD-   2262016583D 1   1.00000     0.00000
 Structure written by MMmdl.
 29 30  0  0  0  0  0  0  0  0  1 V2000
  152.1872  136.7327  155.5918 N   0  0  0  0  0  0  0  0  0  0  0  0
  151.4321  137.7209  155.2675 C   0  0  0  0  0  0  0  0  0  0  0  0
  150.6019  137.7706  154.1387 N   0  0  0  0  0  0  0  0  0  0  0  0
  149.8624  138.8205  153.9556 C   0  0  0  0  0  0  0  0  0  0  0  0
  149.8278  139.9286  154.9040 N   0  0  0  0  0  0  0  0  0  0  0  0
  148.9848  141.1725  154.6519 C   0  0  1  0  0  0  0  0  0  0  0  0
  148.5485  141.1858  153.3193 O   0  0  0  0  0  0  0  0  0  0  0  0
  147.1653  140.8530  153.2090 C   0  0  1  0  0  0  0  0  0  0  0  0
  146.9743  139.3249  153.0722 C   0  0  0  0  0  0  0  0  0  0  0  0
  147.5857  138.8692  151.8842 O   0  0  0  0  0  0  0  0  0  0  0  0
  146.6056  141.4659  154.4966 C   0  0  1  0  0  0  0  0  0  0  0  0
  145.3764  140.8935  154.8987 O   0  0  0  0  0  0  0  0  0  0  0  0
  147.7046  141.2183  155.5220 C   0  0  2  0  0  0  0  0  0  0  0  0
  147.7312  142.2900  156.4433 O   0  0  0  0  0  0  0  0  0  0  0  0
  150.7455  139.9353  155.9869 C   0  0  0  0  0  0  0  0  0  0  0  0
  150.8701  140.8952  156.7468 O   0  0  0  0  0  0  0  0  0  0  0  0
  151.4849  138.8156  156.1387 N   0  0  0  0  0  0  0  0  0  0  0  0
  149.6711  142.0040  154.8218 H   0  0  0  0  0  0  0  0  0  0  0  0
  146.7300  141.3501  152.3410 H   0  0  0  0  0  0  0  0  0  0  0  0
  146.4682  142.5373  154.3389 H   0  0  0  0  0  0  0  0  0  0  0  0
  147.5520  140.2635  156.0275 H   0  0  0  0  0  0  0  0  0  0  0  0
  152.6936  136.9361  156.4410 H   0  0  0  0  0  0  0  0  0  0  0  0
  149.2230  138.9297  153.0795 H   0  0  0  0  0  0  0  0  0  0  0  0
  147.3513  138.7761  153.9338 H   0  0  0  0  0  0  0  0  0  0  0  0
  145.9162  139.0789  152.9848 H   0  0  0  0  0  0  0  0  0  0  0  0
  148.4425  139.2622  151.8171 H   0  0  0  0  0  0  0  0  0  0  0  0
  144.7370  141.0567  154.2220 H   0  0  0  0  0  0  0  0  0  0  0  0
  148.3516  142.9327  156.1333 H   0  0  0  0  0  0  0  0  0  0  0  0
  152.1269  138.7844  156.9171 H   0  0  0  0  0  0  0  0  0  0  0  0
  1  2  2  0  0  0  0
  1 22  1  0  0  0  0
  2 17  1  0  0  0  0
  2  3  1  0  0  0  0
  3  4  2  0  0  0  0
  4  5  1  0  0  0  0
  4 23  1  0  0  0  0
  5  6  1  0  0  0  0
  5 15  1  0  0  0  0
  6 18  1  0  0  0  0
  6 13  1  0  0  0  0
  6  7  1  0  0  0  0
  7  8  1  0  0  0  0
  8 19  1  0  0  0  0
  8  9  1  0  0  0  0
  8 11  1  0  0  0  0
  9 10  1  0  0  0  0
  9 24  1  0  0  0  0
  9 25  1  0  0  0  0
 10 26  1  0  0  0  0
 11 20  1  0  0  0  0
 11 12  1  0  0  0  0
 11 13  1  0  0  0  0
 12 27  1  0  0  0  0
 13 21  1  0  0  0  0
 13 14  1  0  0  0  0
 14 28  1  0  0  0  0
 15 16  2  0  0  0  0
 15 17  1  0  0  0  0
 17 29  1  0  0  0  0
M  END
> <s_m_source_file>
AV-unprocessed.smi

> <i_m_source_file_index>
72

> <i_lp_mmshare_version>
43012

> <i_f3d_flags>
0

> <s_epik_input>
W05IMl1jMW5bY0hdbihjKD1PKW4xKVtDQEBIXTJPW0NASF0oW0NIMl1bT0hdKVtDQEBIXShbT0hdKVtDQEhdMltPSF0=

> <s_epik_cmdline>
J2VwaWtfcHl0aG9uJywgJy1waCcsICc3LjAnLCAnLXRuJywgJzgnLCAnLW1hJywgJzIwMCcsICctbWV0YWxfYmluZGluZycsICctaW1hZScsICc8aW5maWxlLm1hZT4nLCAnLW9tYWUnLCAnPG91dGZpbGUubWFlPic=

> <r_lp_tautomer_probability>
7.17554e-07

> <r_epik_Ionization_Penalty>
0.0066451

> <r_epik_Ionization_Penalty_Charging>
0.00663793

> <r_epik_Ionization_Penalty_Neutral>
7.17052e-06

> <r_epik_State_Penalty>
0.419231

> <r_epik_Charging_Adjusted_Penalty>
0.425868

> <i_epik_Tot_Q>
0

> <i_epik_Tot_abs_Q>
0

> <r_epik_Metal_State_Penalty>
1.44144

> <b_epik_Metal_Only>
0

> <s_epik_Chemistry_Notes>
This compound contains an acetal/aminal-like group ( X-CH(R)-Y where X, Y are N, S, or O) that may be acid/base labile, releasing an aldehyde.

> <s_lp_Force_Field>
OPLS_2005

> <r_lp_Energy>
41.469

> <b_lp_Chiralities_Consistent>
1

> <s_lp_Variant>
AV-unprocessed.smi:72-12

> <Gold.Version>
5.8.1

> <Gold.Id.Protein>
6NUR|6NUR_protein|mol2

> <Gold.PLP.Fitness>
41.5695

> <Gold.PLP.PLP>
-24.4484

> <Gold.PLP.part.hbond>
-6.1583

> <Gold.PLP.part.metal>
0.0000

> <Gold.PLP.part.buried>
-3.9413

> <Gold.PLP.part.nonpolar>
-18.0082

> <Gold.PLP.part.repulsive>
3.5698

> <Gold.PLP.ligand.clash>
0.0000

> <Gold.PLP.ligand.torsion>
0.4998

> <Gold.PLP.Chemscore.Hbond>
5.0074

> <Gold.PLP.Chemscore.CHOScore>
1.0000

> <Gold.PLP.Chemscore.Metal>
0.0000

> <Gold.Chemscore.Hbonds>
donor molecule, donor type, donor heavy atom, donor atom, acceptor molecule, acceptor atom, score
      L1  H    10    26       P1  7957  0.98
      L1  H    12    27       P1 10175  0.83
      L1  H    14    28       P1  8028  1.00
      P1  H  7954  7966       L1    10  0.05
      P1  H  8011  8017       L1     7  0.93
      P1  H 10752 10765       L1     1  1.00
      L1  C     4    23       P1  7957  0.99

> <Gold.PLP.Chemscore.Internal.Correction>
0.0987

> <Gold.Rescore>
     Score         DG    S(hbond)    S(metal)    S(lipo)     H(rot)  DE(clash)    DE(int)     intcor
     10.57     -12.28       4.31        0.00      23.83       4.06       1.57       0.14       ----

> <Gold.Chemscore.Fitness>
10.5710

> <Gold.Chemscore.DG>
-12.2761

> <Gold.Chemscore.ZeroCoef>
-5.4800

> <Gold.Chemscore.Hbond>
4.3118

> <Gold.Chemscore.Metal>
0.0000

> <Gold.Chemscore.Lipo>
23.8327

> <Gold.Chemscore.Internal_Hbond>
0.0000

> <Gold.Chemscore.DEClash>
1.5669

> <Gold.Chemscore.DEInternal>
0.1382

> <Gold.Chemscore.Rot>
4.0600

> <Gold.Chemscore.Internal.Correction>
   9.000000E+99

> <Gold.Chemscore.Hbonds>
donor molecule, donor type, donor heavy atom, donor atom, acceptor molecule, acceptor atom, score
      L1  H    10    26       P1  7957  0.88
      L1  H    12    27       P1 10175  0.67
      L1  H    14    28       P1  8028  0.85
      P1  H  8011  8017       L1     7  0.52
      P1  H 10752 10765       L1     1  0.66

> <Gold.Chemscore.Hbond.Weighted>
-14.4013

> <Gold.Chemscore.Metal.Weighted>
-0.0000

> <Gold.Chemscore.Lipo.Weighted>
-2.7884

> <Gold.Chemscore.Internal_Hbond.Weighted>
0.0000

> <Gold.Chemscore.DEClash.Weighted>
1.5669

> <Gold.Chemscore.DEInternal.Weighted>
0.1382

> <Gold.Chemscore.Rot.Weighted>
10.3936

> <Gold.Chemscore.Internal.Correction.Weighted>
   9.000000E+99

> <Gold.Protein.RotatedTorsions>
[ 6907 6896 6895 6894 ] final  -77.25 input  -60.11 | X-H torsion
[ 7974 7965 7964 7962 ] final   54.05 input  175.53 | X-H torsion
[ 8008 7997 7996 7995 ] final  -15.90 input   59.86 | X-H torsion
[ 10167 10162 10161 10158 ] final   68.22 input  -65.29 | X-H torsion
[ 10718 10713 10712 10709 ] final -101.96 input   66.30 | X-H torsion
[ 10763 10752 10751 10750 ] final -170.54 input  -60.55 | X-H torsion
[ 11005 11000 10999 10996 ] final  -22.45 input  -57.11 | X-H torsion

> <Gold.Protein.ActiveResidues>
 VAL166  LYS551  ARG553  GLY616  TRP617  ASP618  TYR619  PRO620  LYS621  CYS622 
 ASP623  PHE694  ASN695  SER759  ASP760  ASP761  ALA762  ILE779  LEU786  VAL792 
 PHE793  MET794  SER795  GLU796  ALA797  LYS798  CYS799  TRP800  GLU811  SER814 

> <Gold.Protein.RotatedAtoms>
  150.7004  134.4450  159.5309 H   0  0  0  0  0  0  0  0  0  0  0  0  # atno 6907 bound_to 6896
  152.2153  134.8461  160.0501 H   0  0  0  0  0  0  0  0  0  0  0  0  # atno 6908 bound_to 6896
  151.9331  133.3581  159.3975 H   0  0  0  0  0  0  0  0  0  0  0  0  # atno 6909 bound_to 6896
  145.9648  139.4093  143.0226 H   0  0  0  0  0  0  0  0  0  0  0  0  # atno 7974 bound_to 7965
  154.5094  140.2184  155.9186 H   0  0  0  0  0  0  0  0  0  0  0  0  # atno 8008 bound_to 7997
  156.1534  140.3157  155.8652 H   0  0  0  0  0  0  0  0  0  0  0  0  # atno 8009 bound_to 7997
  155.3894  140.0477  157.3032 H   0  0  0  0  0  0  0  0  0  0  0  0  # atno 8010 bound_to 7997
  140.0810  144.5071  150.7162 H   0  0  0  0  0  0  0  0  0  0  0  0  # atno 10167 bound_to 10162
  156.0212  130.5398  150.7039 H   0  0  0  0  0  0  0  0  0  0  0  0  # atno 10718 bound_to 10713
  154.6403  135.2898  155.0111 H   0  0  0  0  0  0  0  0  0  0  0  0  # atno 10763 bound_to 10752
  154.1240  135.6544  153.4912 H   0  0  0  0  0  0  0  0  0  0  0  0  # atno 10764 bound_to 10752
  153.0323  135.5294  154.7267 H   0  0  0  0  0  0  0  0  0  0  0  0  # atno 10765 bound_to 10752
  140.8658  133.7755  156.0128 H   0  0  0  0  0  0  0  0  0  0  0  0  # atno 11005 bound_to 11000
  145.7989  140.9780  143.1009 LP  0  0  0  0  0  0  0  0  0  0  0  0  # atno 17320 bound_to 7965
  144.6823  139.9776  143.7483 LP  0  0  0  0  0  0  0  0  0  0  0  0  # atno 17321 bound_to 7965
  140.7078  143.2481  151.4674 LP  0  0  0  0  0  0  0  0  0  0  0  0  # atno 17342 bound_to 10162
  139.5780  144.1775  152.1929 LP  0  0  0  0  0  0  0  0  0  0  0  0  # atno 17343 bound_to 10162
  157.4692  131.0891  151.0661 LP  0  0  0  0  0  0  0  0  0  0  0  0  # atno 17370 bound_to 10713
  157.1126  130.6028  149.5485 LP  0  0  0  0  0  0  0  0  0  0  0  0  # atno 17371 bound_to 10713
  140.8630  134.2818  157.5226 LP  0  0  0  0  0  0  0  0  0  0  0  0  # atno 17394 bound_to 11000
  139.8709  134.9528  156.4126 LP  0  0  0  0  0  0  0  0  0  0  0  0  # atno 17395 bound_to 11000

$$$$
