AV-unprocessed.smi:2511|AV-procd|sdf|9888|dock4
  -GOLD-   2272013523D 1   1.00000     0.00000
 Structure written by MMmdl.
 40 41  0  0  0  0  0  0  0  0  1 V2000
  145.0378  139.1245  151.6506 N   0  0  0  0  0  0  0  0  0  0  0  0
  145.3288  138.6142  152.8520 C   0  0  0  0  0  0  0  0  0  0  0  0
  144.9005  137.5214  153.2201 O   0  0  0  0  0  0  0  0  0  0  0  0
  146.1752  139.4712  153.7550 C   0  0  0  0  0  0  0  0  0  0  0  0
  146.7383  138.9175  154.9273 C   0  0  0  0  0  0  0  0  0  0  0  0
  147.5350  139.7304  155.7562 C   0  0  0  0  0  0  0  0  0  0  0  0
  147.7460  141.0805  155.3907 C   0  0  0  0  0  0  0  0  0  0  0  0
  148.5392  141.9994  156.1291 N   0  0  0  0  0  0  0  0  0  0  0  0
  149.1663  141.8201  157.3086 C   0  0  0  0  0  0  0  0  0  0  0  0
  149.1606  140.7743  157.9539 O   0  0  0  0  0  0  0  0  0  0  0  0
  149.8086  142.9118  157.7633 N   0  0  0  0  0  0  0  0  0  0  0  0
  150.5829  143.0674  158.9970 C   0  0  2  0  0  0  0  0  0  0  0  0
  151.3749  144.3860  158.9383 C   0  0  0  0  0  0  0  0  0  0  0  0
  152.2527  144.5670  160.1855 C   0  0  0  0  0  0  0  0  0  0  0  0
  153.1951  143.3696  160.3833 C   0  0  0  0  0  0  0  0  0  0  0  0
  152.4164  142.0394  160.4570 C   0  0  2  0  0  0  0  0  0  0  0  0
  153.3519  140.8321  160.6741 C   0  0  0  0  0  0  0  0  0  0  0  0
  154.4114  140.9010  159.8673 F   0  0  0  0  0  0  0  0  0  0  0  0
  153.7739  140.8035  161.9383 F   0  0  0  0  0  0  0  0  0  0  0  0
  152.6968  139.6970  160.4295 F   0  0  0  0  0  0  0  0  0  0  0  0
  151.5365  141.8700  159.1999 C   0  0  0  0  0  0  0  0  0  0  0  0
  147.1583  141.5335  154.1925 C   0  0  0  0  0  0  0  0  0  0  0  0
  146.3922  140.7599  153.3953 N   0  0  0  0  0  0  0  0  0  0  0  0
  144.4758  138.5951  151.0005 H   0  0  0  0  0  0  0  0  0  0  0  0
  145.3868  140.0391  151.4020 H   0  0  0  0  0  0  0  0  0  0  0  0
  146.5676  137.8846  155.1946 H   0  0  0  0  0  0  0  0  0  0  0  0
  147.9744  139.2980  156.6412 H   0  0  0  0  0  0  0  0  0  0  0  0
  148.5797  142.9341  155.7500 H   0  0  0  0  0  0  0  0  0  0  0  0
  149.7485  143.7358  157.1822 H   0  0  0  0  0  0  0  0  0  0  0  0
  149.9018  143.1308  159.8477 H   0  0  0  0  0  0  0  0  0  0  0  0
  152.0057  144.4014  158.0481 H   0  0  0  0  0  0  0  0  0  0  0  0
  150.6901  145.2302  158.8468 H   0  0  0  0  0  0  0  0  0  0  0  0
  152.8338  145.4857  160.0997 H   0  0  0  0  0  0  0  0  0  0  0  0
  151.6189  144.6832  161.0655 H   0  0  0  0  0  0  0  0  0  0  0  0
  153.9124  143.3339  159.5626 H   0  0  0  0  0  0  0  0  0  0  0  0
  153.7769  143.5153  161.2937 H   0  0  0  0  0  0  0  0  0  0  0  0
  151.7510  142.0931  161.3204 H   0  0  0  0  0  0  0  0  0  0  0  0
  150.9609  140.9477  159.2798 H   0  0  0  0  0  0  0  0  0  0  0  0
  152.1727  141.7564  158.3210 H   0  0  0  0  0  0  0  0  0  0  0  0
  147.3026  142.5524  153.8631 H   0  0  0  0  0  0  0  0  0  0  0  0
  1  2  1  0  0  0  0
  1 24  1  0  0  0  0
  1 25  1  0  0  0  0
  2  3  2  0  0  0  0
  2  4  1  0  0  0  0
  4 23  1  0  0  0  0
  4  5  2  0  0  0  0
  5  6  1  0  0  0  0
  5 26  1  0  0  0  0
  6  7  2  0  0  0  0
  6 27  1  0  0  0  0
  7  8  1  0  0  0  0
  7 22  1  0  0  0  0
  8  9  1  0  0  0  0
  8 28  1  0  0  0  0
  9 10  2  0  0  0  0
  9 11  1  0  0  0  0
 11 12  1  0  0  0  0
 11 29  1  0  0  0  0
 12 21  1  0  0  0  0
 12 13  1  0  0  0  0
 12 30  1  0  0  0  0
 13 14  1  0  0  0  0
 13 31  1  0  0  0  0
 13 32  1  0  0  0  0
 14 15  1  0  0  0  0
 14 33  1  0  0  0  0
 14 34  1  0  0  0  0
 15 16  1  0  0  0  0
 15 35  1  0  0  0  0
 15 36  1  0  0  0  0
 16 17  1  0  0  0  0
 16 21  1  0  0  0  0
 16 37  1  0  0  0  0
 17 18  1  0  0  0  0
 17 19  1  0  0  0  0
 17 20  1  0  0  0  0
 21 38  1  0  0  0  0
 21 39  1  0  0  0  0
 22 23  2  0  0  0  0
 22 40  1  0  0  0  0
M  END
> <s_m_source_file>
AV-unprocessed.smi

> <i_m_source_file_index>
2511

> <i_lp_mmshare_version>
43012

> <i_f3d_flags>
0

> <s_epik_input>
W05IMl1DKD1PKWMxW2NIXVtjSF1jKFtjSF1uMSlbTkhdQyg9TylbTkhdW0NAQEhdMltDSDJdW0NIMl1bQ0gyXVtDQEBIXShDKEYpKEYpRilbQ0gyXTI=

> <s_epik_cmdline>
J2VwaWtfcHl0aG9uJywgJy1waCcsICc3LjAnLCAnLXRuJywgJzgnLCAnLW1hJywgJzIwMCcsICctbWV0YWxfYmluZGluZycsICctaW1hZScsICc8aW5maWxlLm1hZT4nLCAnLW9tYWUnLCAnPG91dGZpbGUubWFlPic=

> <r_lp_tautomer_probability>
1

> <r_epik_Ionization_Penalty>
4.28758e-05

> <r_epik_Ionization_Penalty_Charging>
0

> <r_epik_Ionization_Penalty_Neutral>
4.28758e-05

> <r_epik_State_Penalty>
-0

> <r_epik_Charging_Adjusted_Penalty>
0

> <i_epik_Tot_Q>
0

> <i_epik_Tot_abs_Q>
0

> <r_epik_Metal_State_Penalty>
-0

> <b_epik_Metal_Only>
0

> <s_lp_Force_Field>
OPLS_2005

> <r_lp_Energy>
28.5247

> <b_lp_Chiralities_Consistent>
1

> <s_lp_Variant>
AV-unprocessed.smi:2511-3

> <Gold.Version>
5.8.1

> <Gold.Id.Protein>
6NUR|6NUR_protein|mol2

> <Gold.PLP.Fitness>
49.1573

> <Gold.PLP.PLP>
-43.1071

> <Gold.PLP.part.hbond>
-3.2759

> <Gold.PLP.part.metal>
0.0000

> <Gold.PLP.part.buried>
-8.2164

> <Gold.PLP.part.nonpolar>
-33.5728

> <Gold.PLP.part.repulsive>
2.2044

> <Gold.PLP.ligand.clash>
0.0000

> <Gold.PLP.ligand.torsion>
0.6341

> <Gold.PLP.Chemscore.Hbond>
2.4320

> <Gold.PLP.Chemscore.CHOScore>
0.0000

> <Gold.PLP.Chemscore.Metal>
0.0000

> <Gold.Chemscore.Hbonds>
donor molecule, donor type, donor heavy atom, donor atom, acceptor molecule, acceptor atom, score
      L1  H     1    24       P1 10171  0.44
      L1  H     8    28       P1  8028  1.00
      L1  H    11    29       P1  8028  1.00

> <Gold.PLP.Chemscore.Internal.Correction>
0.0225

> <Gold.Rescore>
     Score         DG    S(hbond)    S(metal)    S(lipo)     H(rot)  DE(clash)    DE(int)     intcor
     18.05     -22.54       2.42        0.00      98.46       1.00       1.11       3.38       ----

> <Gold.Chemscore.Fitness>
18.0480

> <Gold.Chemscore.DG>
-22.5365

> <Gold.Chemscore.ZeroCoef>
-5.4800

> <Gold.Chemscore.Hbond>
2.4241

> <Gold.Chemscore.Metal>
0.0000

> <Gold.Chemscore.Lipo>
98.4618

> <Gold.Chemscore.Internal_Hbond>
0.0000

> <Gold.Chemscore.DEClash>
1.1060

> <Gold.Chemscore.DEInternal>
3.3825

> <Gold.Chemscore.Rot>
1.0000

> <Gold.Chemscore.Internal.Correction>
   9.000000E+99

> <Gold.Chemscore.Hbonds>
donor molecule, donor type, donor heavy atom, donor atom, acceptor molecule, acceptor atom, score
      L1  H     1    24       P1 10171  0.42
      L1  H     8    28       P1  8028  0.99
      L1  H    11    29       P1  8028  0.81

> <Gold.Chemscore.Hbond.Weighted>
-8.0965

> <Gold.Chemscore.Metal.Weighted>
-0.0000

> <Gold.Chemscore.Lipo.Weighted>
-11.5200

> <Gold.Chemscore.Internal_Hbond.Weighted>
0.0000

> <Gold.Chemscore.DEClash.Weighted>
1.1060

> <Gold.Chemscore.DEInternal.Weighted>
3.3825

> <Gold.Chemscore.Rot.Weighted>
2.5600

> <Gold.Chemscore.Internal.Correction.Weighted>
   9.000000E+99

> <Gold.Protein.RotatedTorsions>
[ 6907 6896 6895 6894 ] final  -59.43 input  -60.11 | X-H torsion
[ 7974 7965 7964 7962 ] final   40.10 input  175.53 | X-H torsion
[ 8008 7997 7996 7995 ] final -154.39 input   59.86 | X-H torsion
[ 10167 10162 10161 10158 ] final  140.91 input  -65.29 | X-H torsion
[ 10718 10713 10712 10709 ] final   69.27 input   66.30 | X-H torsion
[ 10763 10752 10751 10750 ] final   94.97 input  -60.55 | X-H torsion
[ 11005 11000 10999 10996 ] final  -65.58 input  -57.11 | X-H torsion

> <Gold.Protein.ActiveResidues>
 VAL166  LYS551  ARG553  GLY616  TRP617  ASP618  TYR619  PRO620  LYS621  CYS622 
 ASP623  PHE694  ASN695  SER759  ASP760  ASP761  ALA762  ILE779  LEU786  VAL792 
 PHE793  MET794  SER795  GLU796  ALA797  LYS798  CYS799  TRP800  GLU811  SER814 

> <Gold.Protein.RotatedAtoms>
  150.7931  134.6970  159.6528 H   0  0  0  0  0  0  0  0  0  0  0  0  # atno 6907 bound_to 6896
  152.4040  134.6236  160.0067 H   0  0  0  0  0  0  0  0  0  0  0  0  # atno 6908 bound_to 6896
  151.6499  133.3284  159.3185 H   0  0  0  0  0  0  0  0  0  0  0  0  # atno 6909 bound_to 6896
  146.0931  139.5572  142.9462 H   0  0  0  0  0  0  0  0  0  0  0  0  # atno 7974 bound_to 7965
  155.6857  140.0749  157.2467 H   0  0  0  0  0  0  0  0  0  0  0  0  # atno 8008 bound_to 7997
  154.4097  140.1674  156.2083 H   0  0  0  0  0  0  0  0  0  0  0  0  # atno 8009 bound_to 7997
  155.9496  140.3378  155.6399 H   0  0  0  0  0  0  0  0  0  0  0  0  # atno 8010 bound_to 7997
  139.5035  144.6205  151.6063 H   0  0  0  0  0  0  0  0  0  0  0  0  # atno 10167 bound_to 10162
  157.6336  130.9417  150.0491 H   0  0  0  0  0  0  0  0  0  0  0  0  # atno 10718 bound_to 10713
  153.2477  135.4271  155.0765 H   0  0  0  0  0  0  0  0  0  0  0  0  # atno 10763 bound_to 10752
  154.8368  135.3418  154.6557 H   0  0  0  0  0  0  0  0  0  0  0  0  # atno 10764 bound_to 10752
  153.6979  135.7030  153.5128 H   0  0  0  0  0  0  0  0  0  0  0  0  # atno 10765 bound_to 10752
  141.1458  133.6684  156.6008 H   0  0  0  0  0  0  0  0  0  0  0  0  # atno 11005 bound_to 11000
  145.6000  141.0357  143.2023 LP  0  0  0  0  0  0  0  0  0  0  0  0  # atno 17320 bound_to 7965
  144.7375  139.7543  143.7323 LP  0  0  0  0  0  0  0  0  0  0  0  0  # atno 17321 bound_to 7965
  140.5905  143.9788  150.6322 LP  0  0  0  0  0  0  0  0  0  0  0  0  # atno 17342 bound_to 10162
  140.2967  143.3288  152.1011 LP  0  0  0  0  0  0  0  0  0  0  0  0  # atno 17343 bound_to 10162
  156.1559  130.3643  149.9370 LP  0  0  0  0  0  0  0  0  0  0  0  0  # atno 17370 bound_to 10713
  156.7379  130.9068  151.3630 LP  0  0  0  0  0  0  0  0  0  0  0  0  # atno 17371 bound_to 10713
  140.3690  134.7622  157.4586 LP  0  0  0  0  0  0  0  0  0  0  0  0  # atno 17394 bound_to 11000
  140.0725  134.5842  155.8626 LP  0  0  0  0  0  0  0  0  0  0  0  0  # atno 17395 bound_to 11000

$$$$
