AV-unprocessed.smi:72|AV-procd|sdf|735|dock2
  -GOLD-   2262017 63D 1   1.00000     0.00000
 Structure written by MMmdl.
 28 29  0  0  0  0  0  0  0  0  2 V2000
  152.9214  140.8455  158.7533 N   0  0  0  0  0  0  0  0  0  0  0  0
  152.1038  140.9007  157.7949 C   0  0  0  0  0  0  0  0  0  0  0  0
  150.9793  141.8094  157.8555 N   0  0  0  0  0  0  0  0  0  0  0  0
  150.1734  141.8422  156.8389 C   0  0  0  0  0  0  0  0  0  0  0  0
  150.3864  141.0094  155.6633 N   0  0  0  0  0  0  0  0  0  0  0  0
  149.4297  141.0537  154.4885 C   0  0  2  0  0  0  0  0  0  0  0  0
  148.5425  142.1146  154.6624 O   0  0  0  0  0  0  0  0  0  0  0  0
  147.3109  141.7795  154.0421 C   0  0  2  0  0  0  0  0  0  0  0  0
  146.1829  142.6588  154.6038 C   0  0  0  0  0  0  0  0  0  0  0  0
  144.9704  141.9363  154.6340 O   0  0  0  0  0  0  0  0  0  0  0  0
  147.1593  140.2947  154.3892 C   0  0  1  0  0  0  0  0  0  0  0  0
  146.3452  139.6439  153.4345 O   0  0  0  0  0  0  0  0  0  0  0  0
  148.5891  139.7661  154.3273 C   0  0  2  0  0  0  0  0  0  0  0  0
  148.7996  138.7931  155.3348 O   0  0  0  0  0  0  0  0  0  0  0  0
  151.4802  140.1046  155.6432 C   0  0  0  0  0  0  0  0  0  0  0  0
  151.6127  139.3745  154.6608 O   0  0  0  0  0  0  0  0  0  0  0  0
  152.3219  140.0743  156.7141 N   0  5  0  0  0  0  0  0  0  0  0  0
  150.0304  141.2763  153.6052 H   0  0  0  0  0  0  0  0  0  0  0  0
  147.4101  141.9017  152.9611 H   0  0  0  0  0  0  0  0  0  0  0  0
  146.7440  140.1824  155.3923 H   0  0  0  0  0  0  0  0  0  0  0  0
  148.8232  139.3383  153.3512 H   0  0  0  0  0  0  0  0  0  0  0  0
  153.6597  140.1749  158.5968 H   0  0  0  0  0  0  0  0  0  0  0  0
  149.2918  142.4833  156.8023 H   0  0  0  0  0  0  0  0  0  0  0  0
  146.4120  142.9517  155.6287 H   0  0  0  0  0  0  0  0  0  0  0  0
  146.0672  143.5747  154.0234 H   0  0  0  0  0  0  0  0  0  0  0  0
  144.8657  141.4905  153.8074 H   0  0  0  0  0  0  0  0  0  0  0  0
  145.5531  140.1486  153.3284 H   0  0  0  0  0  0  0  0  0  0  0  0
  148.2080  138.9733  156.0501 H   0  0  0  0  0  0  0  0  0  0  0  0
  1  2  2  0  0  0  0
  1 22  1  0  0  0  0
  2 17  1  0  0  0  0
  2  3  1  0  0  0  0
  3  4  2  0  0  0  0
  4  5  1  0  0  0  0
  4 23  1  0  0  0  0
  5  6  1  0  0  0  0
  5 15  1  0  0  0  0
  6 18  1  0  0  0  0
  6 13  1  0  0  0  0
  6  7  1  0  0  0  0
  7  8  1  0  0  0  0
  8 19  1  0  0  0  0
  8  9  1  0  0  0  0
  8 11  1  0  0  0  0
  9 10  1  0  0  0  0
  9 24  1  0  0  0  0
  9 25  1  0  0  0  0
 10 26  1  0  0  0  0
 11 20  1  0  0  0  0
 11 12  1  0  0  0  0
 11 13  1  0  0  0  0
 12 27  1  0  0  0  0
 13 21  1  0  0  0  0
 13 14  1  0  0  0  0
 14 28  1  0  0  0  0
 15 16  2  0  0  0  0
 15 17  1  0  0  0  0
M  CHG  1  17  -1
M  END
> <s_m_source_file>
AV-unprocessed.smi

> <i_m_source_file_index>
72

> <i_lp_mmshare_version>
43012

> <i_f3d_flags>
0

> <s_epik_input>
W05IMl1jMW5bY0hdbihjKD1PKW4xKVtDQEBIXTJPW0NASF0oW0NIMl1bT0hdKVtDQEBIXShbT0hdKVtDQEhdMltPSF0=

> <s_epik_cmdline>
J2VwaWtfcHl0aG9uJywgJy1waCcsICc3LjAnLCAnLXRuJywgJzgnLCAnLW1hJywgJzIwMCcsICctbWV0YWxfYmluZGluZycsICctaW1hZScsICc8aW5maWxlLm1hZT4nLCAnLW9tYWUnLCAnPG91dGZpbGUubWFlPic=

> <r_lp_tautomer_probability>
7.17554e-07

> <r_epik_Ionization_Penalty>
12.8705

> <r_epik_Ionization_Penalty_Charging>
5.64144

> <r_epik_Ionization_Penalty_Neutral>
7.22905

> <r_epik_State_Penalty>
3.30104

> <r_epik_Charging_Adjusted_Penalty>
8.94249

> <i_epik_Tot_Q>
-1

> <i_epik_Tot_abs_Q>
1

> <r_epik_Metal_State_Penalty>
0.529074

> <b_epik_Metal_Only>
1

> <s_epik_Chemistry_Notes>
This compound contains an acetal/aminal-like group ( X-CH(R)-Y where X, Y are N, S, or O) that may be acid/base labile, releasing an aldehyde.

> <s_lp_Force_Field>
OPLS_2005

> <r_lp_Energy>
36.8699

> <b_lp_Chiralities_Consistent>
1

> <s_lp_Variant>
AV-unprocessed.smi:72-73

> <Gold.Version>
5.8.1

> <Gold.Id.Protein>
6NUR|6NUR_protein|mol2

> <Gold.PLP.Fitness>
41.1263

> <Gold.PLP.PLP>
-25.7462

> <Gold.PLP.part.hbond>
-4.4520

> <Gold.PLP.part.metal>
0.0000

> <Gold.PLP.part.buried>
-2.9280

> <Gold.PLP.part.nonpolar>
-20.8664

> <Gold.PLP.part.repulsive>
2.4240

> <Gold.PLP.ligand.clash>
0.1084

> <Gold.PLP.ligand.torsion>
0.5122

> <Gold.PLP.Chemscore.Hbond>
4.4547

> <Gold.PLP.Chemscore.CHOScore>
0.9399

> <Gold.PLP.Chemscore.Metal>
0.0000

> <Gold.Chemscore.Hbonds>
donor molecule, donor type, donor heavy atom, donor atom, acceptor molecule, acceptor atom, score
      L1  H    10    26       P1 10175  0.94
      L1  H    12    27       P1 10175  0.88
      P1  H  7989  7998       L1    16  0.60
      P1  H  7997  8009       L1    17  2.00
      L1  C     4    23       P1  8028  0.97

> <Gold.PLP.Chemscore.Internal.Correction>
0.3292

> <Gold.Rescore>
     Score         DG    S(hbond)    S(metal)    S(lipo)     H(rot)  DE(clash)    DE(int)     intcor
      6.93      -8.30       3.24        0.00      19.95       4.04       0.38       1.00       ----

> <Gold.Chemscore.Fitness>
6.9289

> <Gold.Chemscore.DG>
-8.3015

> <Gold.Chemscore.ZeroCoef>
-5.4800

> <Gold.Chemscore.Hbond>
3.2426

> <Gold.Chemscore.Metal>
0.0000

> <Gold.Chemscore.Lipo>
19.9517

> <Gold.Chemscore.Internal_Hbond>
0.0000

> <Gold.Chemscore.DEClash>
0.3762

> <Gold.Chemscore.DEInternal>
0.9964

> <Gold.Chemscore.Rot>
4.0403

> <Gold.Chemscore.Internal.Correction>
   9.000000E+99

> <Gold.Chemscore.Hbonds>
donor molecule, donor type, donor heavy atom, donor atom, acceptor molecule, acceptor atom, score
      L1  H    10    26       P1 10175  0.19
      L1  H    12    27       P1 10175  0.82
      P1  H  7989  7998       L1    16  0.04
      P1  H  7997  8009       L1    17  0.36

> <Gold.Chemscore.Hbond.Weighted>
-10.8302

> <Gold.Chemscore.Metal.Weighted>
-0.0000

> <Gold.Chemscore.Lipo.Weighted>
-2.3344

> <Gold.Chemscore.Internal_Hbond.Weighted>
0.0000

> <Gold.Chemscore.DEClash.Weighted>
0.3762

> <Gold.Chemscore.DEInternal.Weighted>
0.9964

> <Gold.Chemscore.Rot.Weighted>
10.3431

> <Gold.Chemscore.Internal.Correction.Weighted>
   9.000000E+99

> <Gold.Protein.RotatedTorsions>
[ 6907 6896 6895 6894 ] final  174.03 input  -60.11 | X-H torsion
[ 7974 7965 7964 7962 ] final   -6.29 input  175.53 | X-H torsion
[ 8008 7997 7996 7995 ] final -170.92 input   59.86 | X-H torsion
[ 10167 10162 10161 10158 ] final  -22.60 input  -65.29 | X-H torsion
[ 10718 10713 10712 10709 ] final -157.42 input   66.30 | X-H torsion
[ 10763 10752 10751 10750 ] final    0.71 input  -60.55 | X-H torsion
[ 11005 11000 10999 10996 ] final -130.82 input  -57.11 | X-H torsion

> <Gold.Protein.ActiveResidues>
 VAL166  LYS551  ARG553  GLY616  TRP617  ASP618  TYR619  PRO620  LYS621  CYS622 
 ASP623  PHE694  ASN695  SER759  ASP760  ASP761  ALA762  ILE779  LEU786  VAL792 
 PHE793  MET794  SER795  GLU796  ALA797  LYS798  CYS799  TRP800  GLU811  SER814 

> <Gold.Protein.RotatedAtoms>
  151.7588  133.3332  159.3411 H   0  0  0  0  0  0  0  0  0  0  0  0  # atno 6907 bound_to 6896
  150.7506  134.6125  159.6103 H   0  0  0  0  0  0  0  0  0  0  0  0  # atno 6908 bound_to 6896
  152.3419  134.7125  160.0313 H   0  0  0  0  0  0  0  0  0  0  0  0  # atno 6909 bound_to 6896
  146.2334  140.2148  142.8336 H   0  0  0  0  0  0  0  0  0  0  0  0  # atno 7974 bound_to 7965
  155.9247  140.1080  157.1179 H   0  0  0  0  0  0  0  0  0  0  0  0  # atno 8008 bound_to 7997
  154.4060  140.1249  156.4790 H   0  0  0  0  0  0  0  0  0  0  0  0  # atno 8009 bound_to 7997
  155.7153  140.3470  155.4994 H   0  0  0  0  0  0  0  0  0  0  0  0  # atno 8010 bound_to 7997
  140.7286  143.4520  151.0503 H   0  0  0  0  0  0  0  0  0  0  0  0  # atno 10167 bound_to 10162
  156.5400  130.8559  151.2745 H   0  0  0  0  0  0  0  0  0  0  0  0  # atno 10718 bound_to 10713
  153.3172  135.6967  153.7063 H   0  0  0  0  0  0  0  0  0  0  0  0  # atno 10763 bound_to 10752
  153.5917  135.3478  155.2914 H   0  0  0  0  0  0  0  0  0  0  0  0  # atno 10764 bound_to 10752
  154.8589  135.4319  154.2326 H   0  0  0  0  0  0  0  0  0  0  0  0  # atno 10765 bound_to 10752
  140.9313  134.1316  157.4232 H   0  0  0  0  0  0  0  0  0  0  0  0  # atno 11005 bound_to 11000
  144.9678  140.8339  143.5474 LP  0  0  0  0  0  0  0  0  0  0  0  0  # atno 17320 bound_to 7965
  145.2126  139.2197  143.5135 LP  0  0  0  0  0  0  0  0  0  0  0  0  # atno 17321 bound_to 7965
  139.8197  143.7837  152.3176 LP  0  0  0  0  0  0  0  0  0  0  0  0  # atno 17342 bound_to 10162
  139.7915  144.7408  150.9948 LP  0  0  0  0  0  0  0  0  0  0  0  0  # atno 17343 bound_to 10162
  157.7407  130.9855  150.2394 LP  0  0  0  0  0  0  0  0  0  0  0  0  # atno 17370 bound_to 10713
  156.2980  130.3754  149.7777 LP  0  0  0  0  0  0  0  0  0  0  0  0  # atno 17371 bound_to 10713
  139.8797  135.0006  156.6018 LP  0  0  0  0  0  0  0  0  0  0  0  0  # atno 17394 bound_to 11000
  140.7859  133.8622  155.8606 LP  0  0  0  0  0  0  0  0  0  0  0  0  # atno 17395 bound_to 11000

$$$$
