AV-unprocessed.smi:2386|AV-procd|sdf|9467|dock7
  -GOLD-   2272013 93D 1   1.00000     0.00000
 Structure written by MMmdl.
 43 44  0  0  0  0  0  0  0  0  2 V2000
  152.3432  144.4027  158.2462 C   0  0  0  0  0  0  0  0  0  0  0  0
  152.6460  143.0680  158.8938 C   0  0  0  0  0  0  0  0  0  0  0  0
  153.3500  142.9962  160.1118 C   0  0  0  0  0  0  0  0  0  0  0  0
  153.5971  141.7253  160.6608 C   0  0  0  0  0  0  0  0  0  0  0  0
  153.1319  140.5869  159.9748 C   0  0  0  0  0  0  0  0  0  0  0  0
  152.4326  140.7462  158.7574 C   0  0  0  0  0  0  0  0  0  0  0  0
  152.0044  139.5373  158.1472 N   0  0  0  0  0  0  0  0  0  0  0  0
  152.0056  139.2192  156.8408 C   0  0  0  0  0  0  0  0  0  0  0  0
  152.4029  139.9454  155.9291 O   0  0  0  0  0  0  0  0  0  0  0  0
  151.5189  137.9856  156.6420 N   0  0  0  0  0  0  0  0  0  0  0  0
  151.3753  137.3362  155.3426 C   0  0  0  0  0  0  0  0  0  0  0  0
  149.9902  136.6919  155.1396 C   0  0  0  0  0  0  0  0  0  0  0  0
  150.0403  135.1667  154.9280 C   0  0  0  0  0  0  0  0  0  0  0  0
  148.8861  134.6710  154.1375 N   0  3  0  0  0  0  0  0  0  0  0  0
  149.0126  133.2362  153.7864 C   0  0  0  0  0  0  0  0  0  0  0  0
  147.8197  132.7834  152.9279 C   0  0  0  0  0  0  0  0  0  0  0  0
  146.6071  133.0360  153.6258 O   0  0  0  0  0  0  0  0  0  0  0  0
  146.4266  134.4211  153.8919 C   0  0  0  0  0  0  0  0  0  0  0  0
  147.5738  134.9324  154.7799 C   0  0  0  0  0  0  0  0  0  0  0  0
  152.2012  141.9762  158.2348 N   0  0  0  0  0  0  0  0  0  0  0  0
  152.7488  145.2281  158.8318 H   0  0  0  0  0  0  0  0  0  0  0  0
  151.2657  144.5451  158.1584 H   0  0  0  0  0  0  0  0  0  0  0  0
  152.7789  144.4475  157.2477 H   0  0  0  0  0  0  0  0  0  0  0  0
  153.6925  143.8888  160.6147 H   0  0  0  0  0  0  0  0  0  0  0  0
  154.1337  141.6241  161.5926 H   0  0  0  0  0  0  0  0  0  0  0  0
  153.3122  139.6035  160.3839 H   0  0  0  0  0  0  0  0  0  0  0  0
  151.6507  138.8355  158.7800 H   0  0  0  0  0  0  0  0  0  0  0  0
  151.2103  137.4617  157.4480 H   0  0  0  0  0  0  0  0  0  0  0  0
  151.5482  138.0866  154.5706 H   0  0  0  0  0  0  0  0  0  0  0  0
  152.1585  136.5861  155.2209 H   0  0  0  0  0  0  0  0  0  0  0  0
  149.3811  136.9286  156.0114 H   0  0  0  0  0  0  0  0  0  0  0  0
  149.4896  137.1592  154.2907 H   0  0  0  0  0  0  0  0  0  0  0  0
  150.9596  134.9235  154.3939 H   0  0  0  0  0  0  0  0  0  0  0  0
  150.0926  134.6424  155.8834 H   0  0  0  0  0  0  0  0  0  0  0  0
  149.9400  133.0686  153.2375 H   0  0  0  0  0  0  0  0  0  0  0  0
  149.0656  132.6392  154.6980 H   0  0  0  0  0  0  0  0  0  0  0  0
  147.8142  133.2970  151.9652 H   0  0  0  0  0  0  0  0  0  0  0  0
  147.8909  131.7160  152.7189 H   0  0  0  0  0  0  0  0  0  0  0  0
  146.3779  134.9811  152.9567 H   0  0  0  0  0  0  0  0  0  0  0  0
  145.4706  134.5614  154.3966 H   0  0  0  0  0  0  0  0  0  0  0  0
  147.5370  134.4382  155.7520 H   0  0  0  0  0  0  0  0  0  0  0  0
  147.4413  135.9987  154.9594 H   0  0  0  0  0  0  0  0  0  0  0  0
  148.8957  135.1764  153.2628 H   0  0  0  0  0  0  0  0  0  0  0  0
  1  2  1  0  0  0  0
  1 21  1  0  0  0  0
  1 22  1  0  0  0  0
  1 23  1  0  0  0  0
  2 20  1  0  0  0  0
  2  3  2  0  0  0  0
  3  4  1  0  0  0  0
  3 24  1  0  0  0  0
  4  5  2  0  0  0  0
  4 25  1  0  0  0  0
  5  6  1  0  0  0  0
  5 26  1  0  0  0  0
  6  7  1  0  0  0  0
  6 20  2  0  0  0  0
  7  8  1  0  0  0  0
  7 27  1  0  0  0  0
  8  9  2  0  0  0  0
  8 10  1  0  0  0  0
 10 11  1  0  0  0  0
 10 28  1  0  0  0  0
 11 12  1  0  0  0  0
 11 29  1  0  0  0  0
 11 30  1  0  0  0  0
 12 13  1  0  0  0  0
 12 31  1  0  0  0  0
 12 32  1  0  0  0  0
 13 14  1  0  0  0  0
 13 33  1  0  0  0  0
 13 34  1  0  0  0  0
 14 19  1  0  0  0  0
 14 15  1  0  0  0  0
 14 43  1  0  0  0  0
 15 16  1  0  0  0  0
 15 35  1  0  0  0  0
 15 36  1  0  0  0  0
 16 17  1  0  0  0  0
 16 37  1  0  0  0  0
 16 38  1  0  0  0  0
 17 18  1  0  0  0  0
 18 19  1  0  0  0  0
 18 39  1  0  0  0  0
 18 40  1  0  0  0  0
 19 41  1  0  0  0  0
 19 42  1  0  0  0  0
M  CHG  1  14   1
M  END
> <s_m_source_file>
AV-unprocessed.smi

> <i_m_source_file_index>
2386

> <i_lp_mmshare_version>
43012

> <i_f3d_flags>
0

> <s_epik_input>
W0NIM11jMVtjSF1bY0hdW2NIXWMobjEpW05IXUMoPU8pW05IXVtDSDJdW0NIMl1bQ0gyXU4yW0NIMl1bQ0gyXU9bQ0gyXVtDSDJdMg==

> <s_epik_cmdline>
J2VwaWtfcHl0aG9uJywgJy1waCcsICc3LjAnLCAnLXRuJywgJzgnLCAnLW1hJywgJzIwMCcsICctbWV0YWxfYmluZGluZycsICctaW1hZScsICc8aW5maWxlLm1hZT4nLCAnLW9tYWUnLCAnPG91dGZpbGUubWFlPic=

> <r_epik_Ionization_Penalty>
0.270568

> <r_epik_Ionization_Penalty_Charging>
0.270496

> <r_epik_Ionization_Penalty_Neutral>
7.21828e-05

> <r_epik_State_Penalty>
0.262618

> <r_epik_Charging_Adjusted_Penalty>
0.533114

> <i_epik_Tot_Q>
1

> <i_epik_Tot_abs_Q>
1

> <r_epik_Metal_State_Penalty>
0.26262

> <b_epik_Metal_Only>
0

> <s_lp_Force_Field>
OPLS_2005

> <r_lp_Energy>
18.5564

> <b_lp_Chiralities_Consistent>
1

> <s_lp_Variant>
AV-unprocessed.smi:2386-1

> <Gold.Version>
5.8.1

> <Gold.Id.Protein>
6NUR|6NUR_protein|mol2

> <Gold.PLP.Fitness>
44.2681

> <Gold.PLP.PLP>
-37.0642

> <Gold.PLP.part.hbond>
-2.0000

> <Gold.PLP.part.metal>
0.0000

> <Gold.PLP.part.buried>
-2.9960

> <Gold.PLP.part.nonpolar>
-32.3937

> <Gold.PLP.part.repulsive>
0.2443

> <Gold.PLP.ligand.clash>
0.0000

> <Gold.PLP.ligand.torsion>
0.9146

> <Gold.PLP.Chemscore.Hbond>
3.0000

> <Gold.PLP.Chemscore.CHOScore>
0.0000

> <Gold.PLP.Chemscore.Metal>
0.0000

> <Gold.Chemscore.Hbonds>
donor molecule, donor type, donor heavy atom, donor atom, acceptor molecule, acceptor atom, score
      L1  H    14    43       P1  7948  2.00
      P1  H  7997  8009       L1     9  1.00

> <Gold.PLP.Chemscore.Internal.Correction>
0.0331

> <Gold.Rescore>
     Score         DG    S(hbond)    S(metal)    S(lipo)     H(rot)  DE(clash)    DE(int)     intcor
     15.70     -17.25       1.90        0.00      84.74       1.76       0.00       1.54       ----

> <Gold.Chemscore.Fitness>
15.7049

> <Gold.Chemscore.DG>
-17.2527

> <Gold.Chemscore.ZeroCoef>
-5.4800

> <Gold.Chemscore.Hbond>
1.9050

> <Gold.Chemscore.Metal>
0.0000

> <Gold.Chemscore.Lipo>
84.7352

> <Gold.Chemscore.Internal_Hbond>
0.0000

> <Gold.Chemscore.DEClash>
0.0036

> <Gold.Chemscore.DEInternal>
1.5442

> <Gold.Chemscore.Rot>
1.7593

> <Gold.Chemscore.Internal.Correction>
   9.000000E+99

> <Gold.Chemscore.Hbonds>
donor molecule, donor type, donor heavy atom, donor atom, acceptor molecule, acceptor atom, score
      L1  H    14    43       P1  7948  0.50
      P1  H  7997  8009       L1     9  0.49

> <Gold.Chemscore.Hbond.Weighted>
-6.3626

> <Gold.Chemscore.Metal.Weighted>
-0.0000

> <Gold.Chemscore.Lipo.Weighted>
-9.9140

> <Gold.Chemscore.Internal_Hbond.Weighted>
0.0000

> <Gold.Chemscore.DEClash.Weighted>
0.0036

> <Gold.Chemscore.DEInternal.Weighted>
1.5442

> <Gold.Chemscore.Rot.Weighted>
4.5039

> <Gold.Chemscore.Internal.Correction.Weighted>
   9.000000E+99

> <Gold.Protein.RotatedTorsions>
[ 6907 6896 6895 6894 ] final  -86.61 input  -60.11 | X-H torsion
[ 7974 7965 7964 7962 ] final  -49.62 input  175.53 | X-H torsion
[ 8008 7997 7996 7995 ] final -157.57 input   59.86 | X-H torsion
[ 10167 10162 10161 10158 ] final  152.65 input  -65.29 | X-H torsion
[ 10718 10713 10712 10709 ] final  117.93 input   66.30 | X-H torsion
[ 10763 10752 10751 10750 ] final  128.86 input  -60.55 | X-H torsion
[ 11005 11000 10999 10996 ] final   86.45 input  -57.11 | X-H torsion

> <Gold.Protein.ActiveResidues>
 VAL166  LYS551  ARG553  GLY616  TRP617  ASP618  TYR619  PRO620  LYS621  CYS622 
 ASP623  PHE694  ASN695  SER759  ASP760  ASP761  ALA762  ILE779  LEU786  VAL792 
 PHE793  MET794  SER795  GLU796  ALA797  LYS798  CYS799  TRP800  GLU811  SER814 

> <Gold.Protein.RotatedAtoms>
  150.6867  134.3024  159.4711 H   0  0  0  0  0  0  0  0  0  0  0  0  # atno 6907 bound_to 6896
  152.0918  134.9399  160.0581 H   0  0  0  0  0  0  0  0  0  0  0  0  # atno 6908 bound_to 6896
  152.0712  133.4073  159.4497 H   0  0  0  0  0  0  0  0  0  0  0  0  # atno 6909 bound_to 6896
  145.9386  140.7683  142.9563 H   0  0  0  0  0  0  0  0  0  0  0  0  # atno 7974 bound_to 7965
  155.7344  140.0806  157.2274 H   0  0  0  0  0  0  0  0  0  0  0  0  # atno 8008 bound_to 7997
  154.4029  140.1589  156.2600 H   0  0  0  0  0  0  0  0  0  0  0  0  # atno 8009 bound_to 7997
  155.9079  140.3406  155.6079 H   0  0  0  0  0  0  0  0  0  0  0  0  # atno 8010 bound_to 7997
  139.4831  144.5339  151.7677 H   0  0  0  0  0  0  0  0  0  0  0  0  # atno 10167 bound_to 10162
  157.6064  131.1042  150.7684 H   0  0  0  0  0  0  0  0  0  0  0  0  # atno 10718 bound_to 10713
  153.7323  135.3236  155.3288 H   0  0  0  0  0  0  0  0  0  0  0  0  # atno 10763 bound_to 10752
  154.8322  135.4525  154.1109 H   0  0  0  0  0  0  0  0  0  0  0  0  # atno 10764 bound_to 10752
  153.2260  135.6954  153.8026 H   0  0  0  0  0  0  0  0  0  0  0  0  # atno 10765 bound_to 10752
  139.8944  134.8356  156.2722 H   0  0  0  0  0  0  0  0  0  0  0  0  # atno 11005 bound_to 11000
  144.6775  140.2243  143.7363 LP  0  0  0  0  0  0  0  0  0  0  0  0  # atno 17320 bound_to 7965
  145.8330  139.2094  143.1872 LP  0  0  0  0  0  0  0  0  0  0  0  0  # atno 17321 bound_to 7965
  140.4869  144.1367  150.5943 LP  0  0  0  0  0  0  0  0  0  0  0  0  # atno 17342 bound_to 10162
  140.4214  143.2609  151.9710 LP  0  0  0  0  0  0  0  0  0  0  0  0  # atno 17343 bound_to 10162
  156.8071  130.4940  149.5361 LP  0  0  0  0  0  0  0  0  0  0  0  0  # atno 17370 bound_to 10713
  156.1152  130.6070  151.0109 LP  0  0  0  0  0  0  0  0  0  0  0  0  # atno 17371 bound_to 10713
  141.0093  133.7105  156.1086 LP  0  0  0  0  0  0  0  0  0  0  0  0  # atno 17394 bound_to 11000
  140.7389  134.4172  157.5557 LP  0  0  0  0  0  0  0  0  0  0  0  0  # atno 17395 bound_to 11000

$$$$
