AV-unprocessed.smi:112|AV-procd|sdf|1086|dock6
  -GOLD-   2262018183D 1   1.00000     0.00000
 Structure written by MMmdl.
 54 57  0  0  0  0  0  0  0  0  3 V2000
  147.1240  139.7437  152.4778 C   0  0  0  0  0  0  0  0  0  0  0  0
  147.2626  140.3362  153.8709 C   0  0  0  0  0  0  0  0  0  0  0  0
  146.2346  140.3555  154.7495 C   0  0  0  0  0  0  0  0  0  0  0  0
  146.3275  140.8851  156.0222 N   0  0  0  0  0  0  0  0  0  0  0  0
  145.1344  140.8561  156.9459 C   0  0  1  0  0  0  0  0  0  0  0  0
  144.7360  142.2640  157.3794 C   0  0  0  0  0  0  0  0  0  0  0  0
  143.2520  142.0933  157.6525 C   0  0  2  0  0  0  0  0  0  0  0  0
  143.0385  141.7774  159.0151 O   0  0  0  0  0  0  0  0  0  0  0  0
  142.8494  140.9032  156.7567 C   0  0  1  0  0  0  0  0  0  0  0  0
  141.9294  141.2462  155.5704 C   0  0  0  0  0  0  0  0  0  0  0  0
  142.3904  142.3751  154.8557 O   0  0  0  0  0  0  0  0  0  0  0  0
  144.0512  140.3242  156.2539 O   0  0  0  0  0  0  0  0  0  0  0  0
  147.5395  141.4597  156.4558 C   0  0  0  0  0  0  0  0  0  0  0  0
  147.6443  141.9472  157.5835 O   0  0  0  0  0  0  0  0  0  0  0  0
  148.6308  141.4658  155.5574 N   0  0  0  0  0  0  0  0  0  0  0  0
  149.9095  142.0717  155.9948 C   0  0  0  0  0  0  0  0  0  0  0  0
  150.7568  141.1610  156.9106 C   0  0  0  0  0  0  0  0  0  0  0  0
  150.7599  139.9469  156.7047 O   0  0  0  0  0  0  0  0  0  0  0  0
  151.4617  141.7488  157.9097 N   0  0  0  0  0  0  0  0  0  0  0  0
  151.4588  143.2008  158.1603 C   0  0  0  0  0  0  0  0  0  0  0  0
  152.3826  143.4342  159.3753 C   0  0  0  0  0  0  0  0  0  0  0  0
  152.8446  142.0498  159.7209 C   0  0  0  0  0  0  0  0  0  0  0  0
  153.7146  141.6925  160.7647 C   0  0  0  0  0  0  0  0  0  0  0  0
  154.0423  140.3258  160.9450 C   0  0  0  0  0  0  0  0  0  0  0  0
  154.9524  139.9132  162.0319 N   0  3  0  0  0  0  0  0  0  0  0  0
  155.3820  140.7766  162.7903 O   0  0  0  0  0  0  0  0  0  0  0  0
  155.2394  138.7244  162.1289 O   0  5  0  0  0  0  0  0  0  0  0  0
  153.4834  139.3603  160.0659 C   0  0  0  0  0  0  0  0  0  0  0  0
  152.6116  139.7374  159.0209 C   0  0  0  0  0  0  0  0  0  0  0  0
  152.2979  141.1045  158.8604 C   0  0  0  0  0  0  0  0  0  0  0  0
  148.5559  140.9049  154.2579 C   0  0  0  0  0  0  0  0  0  0  0  0
  149.5403  140.9066  153.5161 O   0  0  0  0  0  0  0  0  0  0  0  0
  146.1207  139.3555  152.3006 H   0  0  0  0  0  0  0  0  0  0  0  0
  147.8284  138.9226  152.3408 H   0  0  0  0  0  0  0  0  0  0  0  0
  147.3273  140.5007  151.7194 H   0  0  0  0  0  0  0  0  0  0  0  0
  145.2877  139.9367  154.4395 H   0  0  0  0  0  0  0  0  0  0  0  0
  145.3593  140.1969  157.7853 H   0  0  0  0  0  0  0  0  0  0  0  0
  145.3247  142.6031  158.2327 H   0  0  0  0  0  0  0  0  0  0  0  0
  144.8824  142.9571  156.5499 H   0  0  0  0  0  0  0  0  0  0  0  0
  142.6957  143.0038  157.4267 H   0  0  0  0  0  0  0  0  0  0  0  0
  142.4058  141.0774  159.0673 H   0  0  0  0  0  0  0  0  0  0  0  0
  142.3539  140.1356  157.3539 H   0  0  0  0  0  0  0  0  0  0  0  0
  141.8402  140.3960  154.8937 H   0  0  0  0  0  0  0  0  0  0  0  0
  140.9270  141.4697  155.9362 H   0  0  0  0  0  0  0  0  0  0  0  0
  142.2333  142.2321  153.9348 H   0  0  0  0  0  0  0  0  0  0  0  0
  150.5027  142.3547  155.1247 H   0  0  0  0  0  0  0  0  0  0  0  0
  149.7294  143.0156  156.5112 H   0  0  0  0  0  0  0  0  0  0  0  0
  151.8350  143.7446  157.2927 H   0  0  0  0  0  0  0  0  0  0  0  0
  150.4499  143.5547  158.3765 H   0  0  0  0  0  0  0  0  0  0  0  0
  153.2335  144.0676  159.1228 H   0  0  0  0  0  0  0  0  0  0  0  0
  151.8472  143.8791  160.2147 H   0  0  0  0  0  0  0  0  0  0  0  0
  154.1186  142.4582  161.4109 H   0  0  0  0  0  0  0  0  0  0  0  0
  153.7192  138.3130  160.1851 H   0  0  0  0  0  0  0  0  0  0  0  0
  152.2098  138.9727  158.3753 H   0  0  0  0  0  0  0  0  0  0  0  0
  1  2  1  0  0  0  0
  1 33  1  0  0  0  0
  1 34  1  0  0  0  0
  1 35  1  0  0  0  0
  2 31  1  0  0  0  0
  2  3  2  0  0  0  0
  3  4  1  0  0  0  0
  3 36  1  0  0  0  0
  4  5  1  0  0  0  0
  4 13  1  0  0  0  0
  5 12  1  0  0  0  0
  5  6  1  0  0  0  0
  5 37  1  0  0  0  0
  6  7  1  0  0  0  0
  6 38  1  0  0  0  0
  6 39  1  0  0  0  0
  7  8  1  0  0  0  0
  7  9  1  0  0  0  0
  7 40  1  0  0  0  0
  8 41  1  0  0  0  0
  9 10  1  0  0  0  0
  9 12  1  0  0  0  0
  9 42  1  0  0  0  0
 10 11  1  0  0  0  0
 10 43  1  0  0  0  0
 10 44  1  0  0  0  0
 11 45  1  0  0  0  0
 13 14  2  0  0  0  0
 13 15  1  0  0  0  0
 15 16  1  0  0  0  0
 15 31  1  0  0  0  0
 16 17  1  0  0  0  0
 16 46  1  0  0  0  0
 16 47  1  0  0  0  0
 17 18  2  0  0  0  0
 17 19  1  0  0  0  0
 19 30  1  0  0  0  0
 19 20  1  0  0  0  0
 20 21  1  0  0  0  0
 20 48  1  0  0  0  0
 20 49  1  0  0  0  0
 21 22  1  0  0  0  0
 21 50  1  0  0  0  0
 21 51  1  0  0  0  0
 22 30  2  0  0  0  0
 22 23  1  0  0  0  0
 23 24  2  0  0  0  0
 23 52  1  0  0  0  0
 24 25  1  0  0  0  0
 24 28  1  0  0  0  0
 25 26  2  0  0  0  0
 25 27  1  0  0  0  0
 28 29  2  0  0  0  0
 28 53  1  0  0  0  0
 29 30  1  0  0  0  0
 29 54  1  0  0  0  0
 31 32  2  0  0  0  0
M  CHG  1  25   1
M  CHG  1  27  -1
M  END
> <s_m_source_file>
AV-unprocessed.smi

> <i_m_source_file_index>
112

> <i_lp_mmshare_version>
43012

> <i_f3d_flags>
0

> <s_epik_input>
W09IXVtDSDJdW0NAQEhdKE8xKVtDQEhdKFtPSF0pW0NIMl1bQ0BIXTFuKFtjSF1jMltDSDNdKWMoPU8pbihjMj1PKVtDSDJdQyg9TylOKFtDSDJdW0NIMl0zKWMoYzM0KVtjSF1bY0hdYyhbY0hdNClbTitdKD1PKVtPLV0=

> <s_epik_cmdline>
J2VwaWtfcHl0aG9uJywgJy1waCcsICc3LjAnLCAnLXRuJywgJzgnLCAnLW1hJywgJzIwMCcsICctbWV0YWxfYmluZGluZycsICctaW1hZScsICc8aW5maWxlLm1hZT4nLCAnLW9tYWUnLCAnPG91dGZpbGUubWFlPic=

> <r_lp_tautomer_probability>
1

> <r_epik_Ionization_Penalty>
2.5696e-07

> <r_epik_Ionization_Penalty_Charging>
1.04886e-08

> <r_epik_Ionization_Penalty_Neutral>
2.46472e-07

> <r_epik_State_Penalty>
-0

> <r_epik_Charging_Adjusted_Penalty>
1.04886e-08

> <i_epik_Tot_Q>
0

> <i_epik_Tot_abs_Q>
2

> <r_epik_Metal_State_Penalty>
-0

> <b_epik_Metal_Only>
0

> <s_epik_Chemistry_Notes>
This compound contains an acetal/aminal-like group ( X-CH(R)-Y where X, Y are N, S, or O) that may be acid/base labile, releasing an aldehyde.

> <s_lp_Force_Field>
OPLS_2005

> <r_lp_Energy>
61.0713

> <b_lp_Chiralities_Consistent>
1

> <s_lp_Variant>
AV-unprocessed.smi:112-4

> <Gold.Version>
5.8.1

> <Gold.Id.Protein>
6NUR|6NUR_protein|mol2

> <Gold.PLP.Fitness>
51.1453

> <Gold.PLP.PLP>
-42.8109

> <Gold.PLP.part.hbond>
-3.9905

> <Gold.PLP.part.metal>
0.0000

> <Gold.PLP.part.buried>
-1.0500

> <Gold.PLP.part.nonpolar>
-41.8988

> <Gold.PLP.part.repulsive>
4.3677

> <Gold.PLP.ligand.clash>
0.0000

> <Gold.PLP.ligand.torsion>
0.7138

> <Gold.PLP.Chemscore.Hbond>
2.3172

> <Gold.PLP.Chemscore.CHOScore>
0.9327

> <Gold.PLP.Chemscore.Metal>
0.0000

> <Gold.Chemscore.Hbonds>
donor molecule, donor type, donor heavy atom, donor atom, acceptor molecule, acceptor atom, score
      L1  H    11    45       P1 10174  1.00
      P1  H  7989  7998       L1    32  0.29
      P1  H  8011  8017       L1    32  1.00
      L1  C     3    36       P1 10175  0.85

> <Gold.PLP.Chemscore.Internal.Correction>
0.0123

> <Gold.Rescore>
     Score         DG    S(hbond)    S(metal)    S(lipo)     H(rot)  DE(clash)    DE(int)     intcor
     10.34     -15.23       2.09        0.00      95.58       3.29       1.99       2.90       ----

> <Gold.Chemscore.Fitness>
10.3427

> <Gold.Chemscore.DG>
-15.2328

> <Gold.Chemscore.ZeroCoef>
-5.4800

> <Gold.Chemscore.Hbond>
2.0948

> <Gold.Chemscore.Metal>
0.0000

> <Gold.Chemscore.Lipo>
95.5791

> <Gold.Chemscore.Internal_Hbond>
0.0000

> <Gold.Chemscore.DEClash>
1.9933

> <Gold.Chemscore.DEInternal>
2.8969

> <Gold.Chemscore.Rot>
3.2916

> <Gold.Chemscore.Internal.Correction>
   9.000000E+99

> <Gold.Chemscore.Hbonds>
donor molecule, donor type, donor heavy atom, donor atom, acceptor molecule, acceptor atom, score
      L1  H    11    45       P1 10174  0.58
      P1  H  7989  7998       L1    32  0.27
      P1  H  8011  8017       L1    32  0.94

> <Gold.Chemscore.Hbond.Weighted>
-6.9966

> <Gold.Chemscore.Metal.Weighted>
-0.0000

> <Gold.Chemscore.Lipo.Weighted>
-11.1828

> <Gold.Chemscore.Internal_Hbond.Weighted>
0.0000

> <Gold.Chemscore.DEClash.Weighted>
1.9933

> <Gold.Chemscore.DEInternal.Weighted>
2.8969

> <Gold.Chemscore.Rot.Weighted>
8.4265

> <Gold.Chemscore.Internal.Correction.Weighted>
   9.000000E+99

> <Gold.Protein.RotatedTorsions>
[ 6907 6896 6895 6894 ] final -100.25 input  -60.11 | X-H torsion
[ 7974 7965 7964 7962 ] final  137.26 input  175.53 | X-H torsion
[ 8008 7997 7996 7995 ] final   22.83 input   59.86 | X-H torsion
[ 10167 10162 10161 10158 ] final  -48.71 input  -65.29 | X-H torsion
[ 10718 10713 10712 10709 ] final   26.29 input   66.30 | X-H torsion
[ 10763 10752 10751 10750 ] final   89.34 input  -60.55 | X-H torsion
[ 11005 11000 10999 10996 ] final   88.40 input  -57.11 | X-H torsion

> <Gold.Protein.ActiveResidues>
 VAL166  LYS551  ARG553  GLY616  TRP617  ASP618  TYR619  PRO620  LYS621  CYS622 
 ASP623  PHE694  ASN695  SER759  ASP760  ASP761  ALA762  ILE779  LEU786  VAL792 
 PHE793  MET794  SER795  GLU796  ALA797  LYS798  CYS799  TRP800  GLU811  SER814 

> <Gold.Protein.RotatedAtoms>
  150.7109  134.0916  159.3933 H   0  0  0  0  0  0  0  0  0  0  0  0  # atno 6907 bound_to 6896
  151.8901  135.0417  160.0506 H   0  0  0  0  0  0  0  0  0  0  0  0  # atno 6908 bound_to 6896
  152.2498  133.5170  159.5355 H   0  0  0  0  0  0  0  0  0  0  0  0  # atno 6909 bound_to 6896
  144.9485  139.4847  143.5537 H   0  0  0  0  0  0  0  0  0  0  0  0  # atno 7974 bound_to 7965
  154.9716  140.3091  155.4985 H   0  0  0  0  0  0  0  0  0  0  0  0  # atno 8008 bound_to 7997
  156.2965  140.2283  156.4748 H   0  0  0  0  0  0  0  0  0  0  0  0  # atno 8009 bound_to 7997
  154.7871  140.0442  157.1160 H   0  0  0  0  0  0  0  0  0  0  0  0  # atno 8010 bound_to 7997
  140.6718  143.2728  151.4110 H   0  0  0  0  0  0  0  0  0  0  0  0  # atno 10167 bound_to 10162
  157.2049  130.6907  149.6204 H   0  0  0  0  0  0  0  0  0  0  0  0  # atno 10718 bound_to 10713
  153.1861  135.4474  155.0090 H   0  0  0  0  0  0  0  0  0  0  0  0  # atno 10763 bound_to 10752
  154.8061  135.3275  154.7429 H   0  0  0  0  0  0  0  0  0  0  0  0  # atno 10764 bound_to 10752
  153.7888  135.6972  153.4930 H   0  0  0  0  0  0  0  0  0  0  0  0  # atno 10765 bound_to 10752
  139.8897  134.8485  156.2995 H   0  0  0  0  0  0  0  0  0  0  0  0  # atno 11005 bound_to 11000
  146.3312  139.8554  142.8866 LP  0  0  0  0  0  0  0  0  0  0  0  0  # atno 17320 bound_to 7965
  145.2881  141.0159  143.3679 LP  0  0  0  0  0  0  0  0  0  0  0  0  # atno 17321 bound_to 7965
  139.5991  144.1335  152.2177 LP  0  0  0  0  0  0  0  0  0  0  0  0  # atno 17342 bound_to 10162
  140.0713  144.5777  150.7189 LP  0  0  0  0  0  0  0  0  0  0  0  0  # atno 17343 bound_to 10162
  155.9696  130.4570  150.5947 LP  0  0  0  0  0  0  0  0  0  0  0  0  # atno 17370 bound_to 10713
  157.3730  131.0769  151.1541 LP  0  0  0  0  0  0  0  0  0  0  0  0  # atno 17371 bound_to 10713
  140.9923  133.7201  156.0832 LP  0  0  0  0  0  0  0  0  0  0  0  0  # atno 17394 bound_to 11000
  140.7609  134.3940  157.5526 LP  0  0  0  0  0  0  0  0  0  0  0  0  # atno 17395 bound_to 11000

$$$$
