AV-unprocessed.smi:3303|AV-procd|sdf|12663|dock2
  -GOLD-   2272018593D 1   1.00000     0.00000
 Structure written by MMmdl.
 45 46  0  0  0  0  0  0  0  0  3 V2000
  152.4666  140.1597  154.8105 C   0  0  0  0  0  0  0  0  0  0  0  0
  151.3527  140.2961  155.8641 C   0  0  2  0  0  0  0  0  0  0  0  0
  150.5896  138.9691  156.0566 C   0  0  0  0  0  0  0  0  0  0  0  0
  149.7161  138.6456  154.8975 N   0  3  1  0  0  0  0  0  0  0  0  0
  149.1240  137.2932  155.0426 C   0  0  0  0  0  0  0  0  0  0  0  0
  148.7162  139.7232  154.6311 C   0  0  2  0  0  0  0  0  0  0  0  0
  147.8172  139.4130  153.4182 C   0  0  0  0  0  0  0  0  0  0  0  0
  149.4259  141.0776  154.4099 C   0  0  0  0  0  0  0  0  0  0  0  0
  150.3853  141.4572  155.5521 C   0  0  1  0  0  0  0  0  0  0  0  0
  149.6315  141.8624  156.7629 N   0  3  0  0  0  0  0  0  0  0  0  0
  150.4334  141.9121  158.0019 C   0  0  0  0  0  0  0  0  0  0  0  0
  151.2840  143.1878  158.0624 C   0  0  0  0  0  0  0  0  0  0  0  0
  151.8699  143.4144  159.4429 C   0  0  0  0  0  0  0  0  0  0  0  0
  153.1381  142.8982  159.7845 C   0  0  0  0  0  0  0  0  0  0  0  0
  153.6376  143.1500  161.0773 C   0  0  0  0  0  0  0  0  0  0  0  0
  152.8550  143.9056  161.9715 C   0  0  0  0  0  0  0  0  0  0  0  0
  151.6019  144.3774  161.5327 C   0  0  0  0  0  0  0  0  0  0  0  0
  151.1138  144.1420  160.2953 N   0  0  0  0  0  0  0  0  0  0  0  0
  152.0709  139.9098  153.8259 H   0  0  0  0  0  0  0  0  0  0  0  0
  153.1732  139.3772  155.0886 H   0  0  0  0  0  0  0  0  0  0  0  0
  153.0324  141.0869  154.7147 H   0  0  0  0  0  0  0  0  0  0  0  0
  151.8588  140.5254  156.8034 H   0  0  0  0  0  0  0  0  0  0  0  0
  151.3058  138.1616  156.2165 H   0  0  0  0  0  0  0  0  0  0  0  0
  149.9782  139.0183  156.9589 H   0  0  0  0  0  0  0  0  0  0  0  0
  148.3673  137.2777  155.8281 H   0  0  0  0  0  0  0  0  0  0  0  0
  149.8904  136.5601  155.2969 H   0  0  0  0  0  0  0  0  0  0  0  0
  148.6674  136.9541  154.1135 H   0  0  0  0  0  0  0  0  0  0  0  0
  148.0737  139.8087  155.5090 H   0  0  0  0  0  0  0  0  0  0  0  0
  147.1688  140.2589  153.1876 H   0  0  0  0  0  0  0  0  0  0  0  0
  147.1610  138.5620  153.6004 H   0  0  0  0  0  0  0  0  0  0  0  0
  148.4093  139.2008  152.5271 H   0  0  0  0  0  0  0  0  0  0  0  0
  149.9869  141.0359  153.4751 H   0  0  0  0  0  0  0  0  0  0  0  0
  148.6888  141.8703  154.2725 H   0  0  0  0  0  0  0  0  0  0  0  0
  150.9731  142.3143  155.2183 H   0  0  0  0  0  0  0  0  0  0  0  0
  149.2403  142.7806  156.6068 H   0  0  0  0  0  0  0  0  0  0  0  0
  149.7672  141.8692  158.8649 H   0  0  0  0  0  0  0  0  0  0  0  0
  151.0765  141.0317  158.0432 H   0  0  0  0  0  0  0  0  0  0  0  0
  152.0986  143.1316  157.3385 H   0  0  0  0  0  0  0  0  0  0  0  0
  150.6818  144.0529  157.7810 H   0  0  0  0  0  0  0  0  0  0  0  0
  153.7175  142.3242  159.0762 H   0  0  0  0  0  0  0  0  0  0  0  0
  154.6041  142.7720  161.3769 H   0  0  0  0  0  0  0  0  0  0  0  0
  153.2062  144.1189  162.9703 H   0  0  0  0  0  0  0  0  0  0  0  0
  150.9758  144.9606  162.1915 H   0  0  0  0  0  0  0  0  0  0  0  0
  148.8733  141.2099  156.9030 H   0  0  0  0  0  0  0  0  0  0  0  0
  150.3203  138.6027  154.0888 H   0  0  0  0  0  0  0  0  0  0  0  0
  1  2  1  0  0  0  0
  1 19  1  0  0  0  0
  1 20  1  0  0  0  0
  1 21  1  0  0  0  0
  2  9  1  0  0  0  0
  2  3  1  0  0  0  0
  2 22  1  0  0  0  0
  3  4  1  0  0  0  0
  3 23  1  0  0  0  0
  3 24  1  0  0  0  0
  4  5  1  0  0  0  0
  4  6  1  0  0  0  0
  4 45  1  0  0  0  0
  5 25  1  0  0  0  0
  5 26  1  0  0  0  0
  5 27  1  0  0  0  0
  6  7  1  0  0  0  0
  6  8  1  0  0  0  0
  6 28  1  0  0  0  0
  7 29  1  0  0  0  0
  7 30  1  0  0  0  0
  7 31  1  0  0  0  0
  8  9  1  0  0  0  0
  8 32  1  0  0  0  0
  8 33  1  0  0  0  0
  9 10  1  0  0  0  0
  9 34  1  0  0  0  0
 10 11  1  0  0  0  0
 10 35  1  0  0  0  0
 10 44  1  0  0  0  0
 11 12  1  0  0  0  0
 11 36  1  0  0  0  0
 11 37  1  0  0  0  0
 12 13  1  0  0  0  0
 12 38  1  0  0  0  0
 12 39  1  0  0  0  0
 13 18  1  0  0  0  0
 13 14  2  0  0  0  0
 14 15  1  0  0  0  0
 14 40  1  0  0  0  0
 15 16  2  0  0  0  0
 15 41  1  0  0  0  0
 16 17  1  0  0  0  0
 16 42  1  0  0  0  0
 17 18  2  0  0  0  0
 17 43  1  0  0  0  0
M  CHG  1   4   1
M  CHG  1  10   1
M  END
> <s_m_source_file>
AV-unprocessed.smi

> <i_m_source_file_index>
3303

> <i_lp_mmshare_version>
43012

> <i_f3d_flags>
0

> <s_epik_input>
W0NIM11bQ0BASF0xW0NIMl1OKFtDSDNdKVtDQEBIXShbQ0gzXSlbQ0gyXVtDQEhdMVtOSF1bQ0gyXVtDSDJdYzJbY0hdW2NIXVtjSF1bY0hdbjI=

> <s_epik_cmdline>
J2VwaWtfcHl0aG9uJywgJy1waCcsICc3LjAnLCAnLXRuJywgJzgnLCAnLW1hJywgJzIwMCcsICctbWV0YWxfYmluZGluZycsICctaW1hZScsICc8aW5maWxlLm1hZT4nLCAnLW9tYWUnLCAnPG91dGZpbGUubWFlPic=

> <r_epik_Ionization_Penalty>
0.0769462

> <r_epik_Ionization_Penalty_Charging>
0.0759813

> <r_epik_Ionization_Penalty_Neutral>
0.000964829

> <r_epik_State_Penalty>
0.0654373

> <r_epik_Charging_Adjusted_Penalty>
0.141419

> <i_epik_Tot_Q>
2

> <i_epik_Tot_abs_Q>
2

> <r_epik_Metal_State_Penalty>
0.0656439

> <b_epik_Metal_Only>
0

> <s_lp_Force_Field>
OPLS_2005

> <r_lp_Energy>
35.1377

> <b_lp_Chiralities_Consistent>
1

> <s_lp_Variant>
AV-unprocessed.smi:3303-7

> <Gold.Version>
5.8.1

> <Gold.Id.Protein>
6NUR|6NUR_protein|mol2

> <Gold.PLP.Fitness>
45.0170

> <Gold.PLP.PLP>
-40.2563

> <Gold.PLP.part.hbond>
-1.0000

> <Gold.PLP.part.metal>
0.0000

> <Gold.PLP.part.buried>
-3.5035

> <Gold.PLP.part.nonpolar>
-35.0741

> <Gold.PLP.part.repulsive>
0.0995

> <Gold.PLP.ligand.clash>
0.0000

> <Gold.PLP.ligand.torsion>
0.6298

> <Gold.PLP.Chemscore.Hbond>
2.0000

> <Gold.PLP.Chemscore.CHOScore>
0.0000

> <Gold.PLP.Chemscore.Metal>
0.0000

> <Gold.Chemscore.Hbonds>
donor molecule, donor type, donor heavy atom, donor atom, acceptor molecule, acceptor atom, score
      L1  H    10    35       P1  8028  1.24

> <Gold.PLP.Chemscore.Internal.Correction>
0.0202

> <Gold.Rescore>
     Score         DG    S(hbond)    S(metal)    S(lipo)     H(rot)  DE(clash)    DE(int)     intcor
     18.47     -19.17       0.98        0.00     119.14       1.37       0.41       0.29       ----

> <Gold.Chemscore.Fitness>
18.4660

> <Gold.Chemscore.DG>
-19.1683

> <Gold.Chemscore.ZeroCoef>
-5.4800

> <Gold.Chemscore.Hbond>
0.9783

> <Gold.Chemscore.Metal>
0.0000

> <Gold.Chemscore.Lipo>
119.1398

> <Gold.Chemscore.Internal_Hbond>
0.0000

> <Gold.Chemscore.DEClash>
0.4110

> <Gold.Chemscore.DEInternal>
0.2913

> <Gold.Chemscore.Rot>
1.3744

> <Gold.Chemscore.Internal.Correction>
   9.000000E+99

> <Gold.Chemscore.Hbonds>
donor molecule, donor type, donor heavy atom, donor atom, acceptor molecule, acceptor atom, score
      L1  H    10    35       P1  8028  0.60

> <Gold.Chemscore.Hbond.Weighted>
-3.2674

> <Gold.Chemscore.Metal.Weighted>
-0.0000

> <Gold.Chemscore.Lipo.Weighted>
-13.9394

> <Gold.Chemscore.Internal_Hbond.Weighted>
0.0000

> <Gold.Chemscore.DEClash.Weighted>
0.4110

> <Gold.Chemscore.DEInternal.Weighted>
0.2913

> <Gold.Chemscore.Rot.Weighted>
3.5185

> <Gold.Chemscore.Internal.Correction.Weighted>
   9.000000E+99

> <Gold.Protein.RotatedTorsions>
[ 6907 6896 6895 6894 ] final -124.47 input  -60.11 | X-H torsion
[ 7974 7965 7964 7962 ] final  128.25 input  175.53 | X-H torsion
[ 8008 7997 7996 7995 ] final  113.57 input   59.86 | X-H torsion
[ 10167 10162 10161 10158 ] final -144.59 input  -65.29 | X-H torsion
[ 10718 10713 10712 10709 ] final  169.87 input   66.30 | X-H torsion
[ 10763 10752 10751 10750 ] final  126.26 input  -60.55 | X-H torsion
[ 11005 11000 10999 10996 ] final -112.60 input  -57.11 | X-H torsion

> <Gold.Protein.ActiveResidues>
 VAL166  LYS551  ARG553  GLY616  TRP617  ASP618  TYR619  PRO620  LYS621  CYS622 
 ASP623  PHE694  ASN695  SER759  ASP760  ASP761  ALA762  ILE779  LEU786  VAL792 
 PHE793  MET794  SER795  GLU796  ALA797  LYS798  CYS799  TRP800  GLU811  SER814 

> <Gold.Protein.RotatedAtoms>
  150.8771  133.7423  159.2942 H   0  0  0  0  0  0  0  0  0  0  0  0  # atno 6907 bound_to 6896
  151.5016  135.1060  159.9840 H   0  0  0  0  0  0  0  0  0  0  0  0  # atno 6908 bound_to 6896
  152.4735  133.8039  159.7023 H   0  0  0  0  0  0  0  0  0  0  0  0  # atno 6909 bound_to 6896
  145.0416  139.3958  143.5099 H   0  0  0  0  0  0  0  0  0  0  0  0  # atno 7974 bound_to 7965
  156.2266  140.2977  156.0083 H   0  0  0  0  0  0  0  0  0  0  0  0  # atno 8008 bound_to 7997
  155.2338  140.0420  157.2983 H   0  0  0  0  0  0  0  0  0  0  0  0  # atno 8009 bound_to 7997
  154.5926  140.2405  155.7907 H   0  0  0  0  0  0  0  0  0  0  0  0  # atno 8010 bound_to 7997
  139.7885  143.8000  152.2647 H   0  0  0  0  0  0  0  0  0  0  0  0  # atno 10167 bound_to 10162
  157.0163  131.0219  151.2788 H   0  0  0  0  0  0  0  0  0  0  0  0  # atno 10718 bound_to 10713
  153.6905  135.3299  155.3201 H   0  0  0  0  0  0  0  0  0  0  0  0  # atno 10763 bound_to 10752
  154.8441  135.4430  154.1513 H   0  0  0  0  0  0  0  0  0  0  0  0  # atno 10764 bound_to 10752
  153.2553  135.6985  153.7713 H   0  0  0  0  0  0  0  0  0  0  0  0  # atno 10765 bound_to 10752
  141.0665  133.9450  157.2568 H   0  0  0  0  0  0  0  0  0  0  0  0  # atno 11005 bound_to 11000
  146.3510  140.0020  142.8675 LP  0  0  0  0  0  0  0  0  0  0  0  0  # atno 17320 bound_to 7965
  145.1640  140.9687  143.4360 LP  0  0  0  0  0  0  0  0  0  0  0  0  # atno 17321 bound_to 7965
  139.8084  144.7346  150.9730 LP  0  0  0  0  0  0  0  0  0  0  0  0  # atno 17342 bound_to 10162
  140.7820  143.4275  151.0746 LP  0  0  0  0  0  0  0  0  0  0  0  0  # atno 17343 bound_to 10162
  157.5283  130.8042  149.7887 LP  0  0  0  0  0  0  0  0  0  0  0  0  # atno 17370 bound_to 10713
  156.0118  130.3830  150.2240 LP  0  0  0  0  0  0  0  0  0  0  0  0  # atno 17371 bound_to 10713
  139.9482  135.0180  156.8914 LP  0  0  0  0  0  0  0  0  0  0  0  0  # atno 17394 bound_to 11000
  140.5762  134.0396  155.7447 LP  0  0  0  0  0  0  0  0  0  0  0  0  # atno 17395 bound_to 11000

$$$$
