AV-unprocessed.smi:2932|AV-procd|sdf|11251|dock3
  -GOLD-   2272016143D 1   1.00000     0.00000
 Structure written by MMmdl.
 30 30  0  0  0  0  0  0  0  0  2 V2000
  154.4776  140.2548  160.9452 C   0  0  0  0  0  0  0  0  0  0  0  0
  153.5081  141.2696  160.4129 C   0  0  0  0  0  0  0  0  0  0  0  0
  153.0863  141.1886  159.1604 N   0  0  0  0  0  0  0  0  0  0  0  0
  152.2452  142.2411  158.9931 N   0  0  0  0  0  0  0  0  0  0  0  0
  151.6186  142.4422  157.6942 C   0  0  0  0  0  0  0  0  0  0  0  0
  150.9438  141.1648  157.1883 C   0  0  0  0  0  0  0  0  0  0  0  0
  149.9243  140.7510  157.7404 O   0  0  0  0  0  0  0  0  0  0  0  0
  151.5185  140.5562  156.1389 N   0  0  0  0  0  0  0  0  0  0  0  0
  151.0386  139.3439  155.4829 C   0  0  1  0  0  0  0  0  0  0  0  0
  149.9357  139.6753  154.4634 C   0  0  0  0  0  0  0  0  0  0  0  0
  152.2148  138.5673  154.8846 C   0  0  0  0  0  0  0  0  0  0  0  0
  151.9688  137.4488  154.3823 O   0  0  0  0  0  0  0  0  0  0  0  0
  153.3435  139.1048  154.9391 O   0  5  0  0  0  0  0  0  0  0  0  0
  152.1184  142.9977  160.1480 C   0  0  0  0  0  0  0  0  0  0  0  0
  151.2548  144.2138  160.2442 C   0  0  0  0  0  0  0  0  0  0  0  0
  152.9247  142.3881  161.0628 C   0  0  0  0  0  0  0  0  0  0  0  0
  153.1900  142.8834  162.6950 Cl  0  0  0  0  0  0  0  0  0  0  0  0
  150.5968  138.7004  156.2465 H   0  0  0  0  0  0  0  0  0  0  0  0
  154.4827  140.2460  162.0352 H   0  0  0  0  0  0  0  0  0  0  0  0
  155.4917  140.4719  160.6096 H   0  0  0  0  0  0  0  0  0  0  0  0
  154.2228  139.2495  160.6089 H   0  0  0  0  0  0  0  0  0  0  0  0
  150.8781  143.2406  157.7622 H   0  0  0  0  0  0  0  0  0  0  0  0
  152.3786  142.7725  156.9852 H   0  0  0  0  0  0  0  0  0  0  0  0
  152.3587  140.9656  155.7548 H   0  0  0  0  0  0  0  0  0  0  0  0
  149.5790  138.7734  153.9648 H   0  0  0  0  0  0  0  0  0  0  0  0
  150.2975  140.3595  153.6950 H   0  0  0  0  0  0  0  0  0  0  0  0
  149.0776  140.1431  154.9468 H   0  0  0  0  0  0  0  0  0  0  0  0
  151.2037  144.5795  161.2696 H   0  0  0  0  0  0  0  0  0  0  0  0
  150.2382  143.9976  159.9161 H   0  0  0  0  0  0  0  0  0  0  0  0
  151.6486  145.0177  159.6221 H   0  0  0  0  0  0  0  0  0  0  0  0
  1  2  1  0  0  0  0
  1 19  1  0  0  0  0
  1 20  1  0  0  0  0
  1 21  1  0  0  0  0
  2 16  1  0  0  0  0
  2  3  2  0  0  0  0
  3  4  1  0  0  0  0
  4  5  1  0  0  0  0
  4 14  1  0  0  0  0
  5  6  1  0  0  0  0
  5 22  1  0  0  0  0
  5 23  1  0  0  0  0
  6  7  2  0  0  0  0
  6  8  1  0  0  0  0
  8  9  1  0  0  0  0
  8 24  1  0  0  0  0
  9 18  1  0  0  0  0
  9 10  1  0  0  0  0
  9 11  1  0  0  0  0
 10 25  1  0  0  0  0
 10 26  1  0  0  0  0
 10 27  1  0  0  0  0
 11 12  2  0  0  0  0
 11 13  1  0  0  0  0
 14 15  1  0  0  0  0
 14 16  2  0  0  0  0
 15 28  1  0  0  0  0
 15 29  1  0  0  0  0
 15 30  1  0  0  0  0
 16 17  1  0  0  0  0
M  CHG  1  13  -1
M  END
> <s_m_source_file>
AV-unprocessed.smi

> <i_m_source_file_index>
2932

> <i_lp_mmshare_version>
43012

> <i_f3d_flags>
0

> <s_epik_input>
W0NIM11jMW5uKGMoW0NIM10pYzFDbClbQ0gyXUMoPU8pW05IXVtDQEhdKFtDSDNdKUMoPU8pW09IXQ==

> <s_epik_cmdline>
J2VwaWtfcHl0aG9uJywgJy1waCcsICc3LjAnLCAnLXRuJywgJzgnLCAnLW1hJywgJzIwMCcsICctbWV0YWxfYmluZGluZycsICctaW1hZScsICc8aW5maWxlLm1hZT4nLCAnLW9tYWUnLCAnPG91dGZpbGUubWFlPic=

> <r_lp_tautomer_probability>
1

> <r_epik_Ionization_Penalty>
0.000148999

> <r_epik_Ionization_Penalty_Charging>
0.000144005

> <r_epik_Ionization_Penalty_Neutral>
4.99331e-06

> <r_epik_State_Penalty>
-0

> <r_epik_Charging_Adjusted_Penalty>
0.000144005

> <i_epik_Tot_Q>
-1

> <i_epik_Tot_abs_Q>
1

> <r_epik_Metal_State_Penalty>
-0

> <b_epik_Metal_Only>
0

> <s_lp_Force_Field>
OPLS_2005

> <r_lp_Energy>
1.5608

> <b_lp_Chiralities_Consistent>
1

> <s_lp_Variant>
AV-unprocessed.smi:2932-2

> <Gold.Version>
5.8.1

> <Gold.Id.Protein>
6NUR|6NUR_protein|mol2

> <Gold.PLP.Fitness>
50.6280

> <Gold.PLP.PLP>
-40.1014

> <Gold.PLP.part.hbond>
-2.0000

> <Gold.PLP.part.metal>
0.0000

> <Gold.PLP.part.buried>
-6.7684

> <Gold.PLP.part.nonpolar>
-32.1503

> <Gold.PLP.part.repulsive>
0.3151

> <Gold.PLP.ligand.clash>
0.0000

> <Gold.PLP.ligand.torsion>
0.5552

> <Gold.PLP.Chemscore.Hbond>
3.8560

> <Gold.PLP.Chemscore.CHOScore>
0.0000

> <Gold.PLP.Chemscore.Metal>
0.0000

> <Gold.Chemscore.Hbonds>
donor molecule, donor type, donor heavy atom, donor atom, acceptor molecule, acceptor atom, score
      P1  H  7997  8008       L1    13  2.00
      P1  H 10752 10765       L1    12  1.82

> <Gold.PLP.Chemscore.Internal.Correction>
0.0690

> <Gold.Rescore>
     Score         DG    S(hbond)    S(metal)    S(lipo)     H(rot)  DE(clash)    DE(int)     intcor
     15.95     -16.46       1.90        0.00      86.65       2.15       0.01       0.50       ----

> <Gold.Chemscore.Fitness>
15.9498

> <Gold.Chemscore.DG>
-16.4578

> <Gold.Chemscore.ZeroCoef>
-5.4800

> <Gold.Chemscore.Hbond>
1.9026

> <Gold.Chemscore.Metal>
0.0000

> <Gold.Chemscore.Lipo>
86.6470

> <Gold.Chemscore.Internal_Hbond>
0.0000

> <Gold.Chemscore.DEClash>
0.0126

> <Gold.Chemscore.DEInternal>
0.4954

> <Gold.Chemscore.Rot>
2.1542

> <Gold.Chemscore.Internal.Correction>
   9.000000E+99

> <Gold.Chemscore.Hbonds>
donor molecule, donor type, donor heavy atom, donor atom, acceptor molecule, acceptor atom, score
      P1  H  7997  8008       L1    13  1.00
      P1  H 10752 10765       L1    12  0.82

> <Gold.Chemscore.Hbond.Weighted>
-6.3547

> <Gold.Chemscore.Metal.Weighted>
-0.0000

> <Gold.Chemscore.Lipo.Weighted>
-10.1377

> <Gold.Chemscore.Internal_Hbond.Weighted>
0.0000

> <Gold.Chemscore.DEClash.Weighted>
0.0126

> <Gold.Chemscore.DEInternal.Weighted>
0.4954

> <Gold.Chemscore.Rot.Weighted>
5.5146

> <Gold.Chemscore.Internal.Correction.Weighted>
   9.000000E+99

> <Gold.Protein.RotatedTorsions>
[ 6907 6896 6895 6894 ] final -141.73 input  -60.11 | X-H torsion
[ 7974 7965 7964 7962 ] final  171.81 input  175.53 | X-H torsion
[ 8008 7997 7996 7995 ] final  -13.97 input   59.86 | X-H torsion
[ 10167 10162 10161 10158 ] final    9.94 input  -65.29 | X-H torsion
[ 10718 10713 10712 10709 ] final   99.73 input   66.30 | X-H torsion
[ 10763 10752 10751 10750 ] final  164.75 input  -60.55 | X-H torsion
[ 11005 11000 10999 10996 ] final   24.99 input  -57.11 | X-H torsion

> <Gold.Protein.ActiveResidues>
 VAL166  LYS551  ARG553  GLY616  TRP617  ASP618  TYR619  PRO620  LYS621  CYS622 
 ASP623  PHE694  ASN695  SER759  ASP760  ASP761  ALA762  ILE779  LEU786  VAL792 
 PHE793  MET794  SER795  GLU796  ALA797  LYS798  CYS799  TRP800  GLU811  SER814 

> <Gold.Protein.RotatedAtoms>
  151.0777  133.5415  159.2622 H   0  0  0  0  0  0  0  0  0  0  0  0  # atno 6907 bound_to 6896
  151.2330  135.0561  159.9005 H   0  0  0  0  0  0  0  0  0  0  0  0  # atno 6908 bound_to 6896
  152.5420  134.0563  159.8186 H   0  0  0  0  0  0  0  0  0  0  0  0  # atno 6909 bound_to 6896
  144.7284  139.9406  143.6428 H   0  0  0  0  0  0  0  0  0  0  0  0  # atno 7974 bound_to 7965
  154.5248  140.2235  155.8909 H   0  0  0  0  0  0  0  0  0  0  0  0  # atno 8008 bound_to 7997
  156.1701  140.3123  155.8924 H   0  0  0  0  0  0  0  0  0  0  0  0  # atno 8009 bound_to 7997
  155.3574  140.0459  157.3037 H   0  0  0  0  0  0  0  0  0  0  0  0  # atno 8010 bound_to 7997
  140.6224  143.8175  150.7191 H   0  0  0  0  0  0  0  0  0  0  0  0  # atno 10167 bound_to 10162
  157.6869  131.0678  150.4993 H   0  0  0  0  0  0  0  0  0  0  0  0  # atno 10718 bound_to 10713
  154.3136  135.2757  155.2554 H   0  0  0  0  0  0  0  0  0  0  0  0  # atno 10763 bound_to 10752
  154.4938  135.5826  153.6482 H   0  0  0  0  0  0  0  0  0  0  0  0  # atno 10764 bound_to 10752
  152.9885  135.6141  154.3316 H   0  0  0  0  0  0  0  0  0  0  0  0  # atno 10765 bound_to 10752
  140.3527  134.2211  155.7678 H   0  0  0  0  0  0  0  0  0  0  0  0  # atno 11005 bound_to 11000
  146.0788  139.3776  143.0477 LP  0  0  0  0  0  0  0  0  0  0  0  0  # atno 17320 bound_to 7965
  145.7869  140.9832  143.1069 LP  0  0  0  0  0  0  0  0  0  0  0  0  # atno 17321 bound_to 7965
  140.1768  143.4148  152.1962 LP  0  0  0  0  0  0  0  0  0  0  0  0  # atno 17342 bound_to 10162
  139.5450  144.7291  151.4611 LP  0  0  0  0  0  0  0  0  0  0  0  0  # atno 17343 bound_to 10162
  156.5316  130.4186  149.6199 LP  0  0  0  0  0  0  0  0  0  0  0  0  # atno 17370 bound_to 10713
  156.3064  130.7205  151.2088 LP  0  0  0  0  0  0  0  0  0  0  0  0  # atno 17371 bound_to 10713
  141.2007  133.7980  157.0475 LP  0  0  0  0  0  0  0  0  0  0  0  0  # atno 17394 bound_to 11000
  140.0690  134.9713  157.1435 LP  0  0  0  0  0  0  0  0  0  0  0  0  # atno 17395 bound_to 11000

$$$$
