AV-unprocessed.smi:2164|AV-procd|sdf|8808|dock1
  -GOLD-   2272011593D 1   1.00000     0.00000
 Structure written by MMmdl.
 39 41  0  0  0  0  0  0  0  0  1 V2000
  146.4060  135.5095  155.2791 O   0  0  0  0  0  0  0  0  0  0  0  0
  147.2291  136.0374  154.5294 C   0  0  0  0  0  0  0  0  0  0  0  0
  146.8826  136.5265  153.3251 N   0  0  0  0  0  0  0  0  0  0  0  0
  145.5328  136.5463  152.7651 C   0  0  0  0  0  0  0  0  0  0  0  0
  145.4862  135.9756  151.3343 C   0  0  0  0  0  0  0  0  0  0  0  0
  145.5087  134.4578  151.2843 C   0  0  0  0  0  0  0  0  0  0  0  0
  144.4510  133.7394  150.6897 C   0  0  0  0  0  0  0  0  0  0  0  0
  144.5313  132.3345  150.6366 C   0  0  0  0  0  0  0  0  0  0  0  0
  145.6690  131.7068  151.1822 C   0  0  0  0  0  0  0  0  0  0  0  0
  146.6861  132.3839  151.7572 N   0  0  0  0  0  0  0  0  0  0  0  0
  146.6000  133.7303  151.8062 C   0  0  0  0  0  0  0  0  0  0  0  0
  148.6466  136.2140  154.8515 C   0  0  0  0  0  0  0  0  0  0  0  0
  149.2145  137.4277  154.7190 C   0  0  0  0  0  0  0  0  0  0  0  0
  150.5571  137.6873  155.0015 N   0  0  0  0  0  0  0  0  0  0  0  0
  151.0732  139.0203  154.7145 C   0  0  0  0  0  0  0  0  0  0  0  0
  151.9932  139.4801  155.8337 C   0  0  0  0  0  0  0  0  0  0  0  0
  153.4088  138.3149  155.8492 S   0  0  0  0  0  0  0  0  0  0  0  0
  154.0825  138.4004  154.5440 O   0  0  0  0  0  0  0  0  0  0  0  0
  154.1824  138.5534  157.0769 O   0  0  0  0  0  0  0  0  0  0  0  0
  152.6057  136.8471  155.9581 N   0  0  0  0  0  0  0  0  0  0  0  0
  151.3901  136.6720  155.5362 C   0  0  0  0  0  0  0  0  0  0  0  0
  150.7934  135.3495  155.6357 C   0  0  0  0  0  0  0  0  0  0  0  0
  149.5015  135.1294  155.3157 C   0  0  0  0  0  0  0  0  0  0  0  0
  147.6097  136.9445  152.7632 H   0  0  0  0  0  0  0  0  0  0  0  0
  144.8883  135.9531  153.4141 H   0  0  0  0  0  0  0  0  0  0  0  0
  145.1240  137.5580  152.7787 H   0  0  0  0  0  0  0  0  0  0  0  0
  144.5905  136.3346  150.8259 H   0  0  0  0  0  0  0  0  0  0  0  0
  146.3319  136.3563  150.7605 H   0  0  0  0  0  0  0  0  0  0  0  0
  143.5986  134.2550  150.2720 H   0  0  0  0  0  0  0  0  0  0  0  0
  143.7423  131.7520  150.1846 H   0  0  0  0  0  0  0  0  0  0  0  0
  145.7649  130.6313  151.1552 H   0  0  0  0  0  0  0  0  0  0  0  0
  147.4348  134.2423  152.2618 H   0  0  0  0  0  0  0  0  0  0  0  0
  148.6586  138.2902  154.3783 H   0  0  0  0  0  0  0  0  0  0  0  0
  151.6004  139.0049  153.7600 H   0  0  0  0  0  0  0  0  0  0  0  0
  150.2560  139.7349  154.6093 H   0  0  0  0  0  0  0  0  0  0  0  0
  152.3707  140.4872  155.6577 H   0  0  0  0  0  0  0  0  0  0  0  0
  151.4968  139.4611  156.8045 H   0  0  0  0  0  0  0  0  0  0  0  0
  151.3699  134.5037  155.9815 H   0  0  0  0  0  0  0  0  0  0  0  0
  149.1223  134.1232  155.4166 H   0  0  0  0  0  0  0  0  0  0  0  0
  1  2  2  0  0  0  0
  2  3  1  0  0  0  0
  2 12  1  0  0  0  0
  3  4  1  0  0  0  0
  3 24  1  0  0  0  0
  4  5  1  0  0  0  0
  4 25  1  0  0  0  0
  4 26  1  0  0  0  0
  5  6  1  0  0  0  0
  5 27  1  0  0  0  0
  5 28  1  0  0  0  0
  6 11  1  0  0  0  0
  6  7  2  0  0  0  0
  7  8  1  0  0  0  0
  7 29  1  0  0  0  0
  8  9  2  0  0  0  0
  8 30  1  0  0  0  0
  9 10  1  0  0  0  0
  9 31  1  0  0  0  0
 10 11  2  0  0  0  0
 11 32  1  0  0  0  0
 12 23  1  0  0  0  0
 12 13  2  0  0  0  0
 13 14  1  0  0  0  0
 13 33  1  0  0  0  0
 14 21  1  0  0  0  0
 14 15  1  0  0  0  0
 15 16  1  0  0  0  0
 15 34  1  0  0  0  0
 15 35  1  0  0  0  0
 16 17  1  0  0  0  0
 16 36  1  0  0  0  0
 16 37  1  0  0  0  0
 17 18  2  0  0  0  0
 17 19  2  0  0  0  0
 17 20  1  0  0  0  0
 20 21  2  0  0  0  0
 21 22  1  0  0  0  0
 22 23  2  0  0  0  0
 22 38  1  0  0  0  0
 23 39  1  0  0  0  0
M  END
> <s_m_source_file>
AV-unprocessed.smi

> <i_m_source_file_index>
2164

> <i_lp_mmshare_version>
43012

> <i_f3d_flags>
0

> <s_epik_input>
W0NIMl0xW0NIMl1TKD1PKSg9TylOPUMoTjEyKVtDSF09W0NIXUMoPVtDSF0yKUMoPU8pW05IXVtDSDJdW0NIMl1jM1tjSF1bY0hdW2NIXW5bY0hdMw==

> <s_epik_cmdline>
J2VwaWtfcHl0aG9uJywgJy1waCcsICc3LjAnLCAnLXRuJywgJzgnLCAnLW1hJywgJzIwMCcsICctbWV0YWxfYmluZGluZycsICctaW1hZScsICc8aW5maWxlLm1hZT4nLCAnLW9tYWUnLCAnPG91dGZpbGUubWFlPic=

> <r_epik_Ionization_Penalty>
0.0095026

> <r_epik_Ionization_Penalty_Charging>
4.80604e-09

> <r_epik_Ionization_Penalty_Neutral>
0.00950259

> <r_epik_State_Penalty>
0.0071398

> <r_epik_Charging_Adjusted_Penalty>
0.0071398

> <i_epik_Tot_Q>
0

> <i_epik_Tot_abs_Q>
0

> <r_epik_Metal_State_Penalty>
0.0838865

> <b_epik_Metal_Only>
0

> <s_lp_Force_Field>
OPLS_2005

> <r_lp_Energy>
19.9083

> <b_lp_Chiralities_Consistent>
1

> <s_lp_Variant>
AV-unprocessed.smi:2164-1

> <Gold.Version>
5.8.1

> <Gold.Id.Protein>
6NUR|6NUR_protein|mol2

> <Gold.PLP.Fitness>
42.7062

> <Gold.PLP.PLP>
-33.5226

> <Gold.PLP.part.hbond>
-4.3418

> <Gold.PLP.part.metal>
0.0000

> <Gold.PLP.part.buried>
-4.4098

> <Gold.PLP.part.nonpolar>
-25.8320

> <Gold.PLP.part.repulsive>
0.2121

> <Gold.PLP.ligand.clash>
0.0000

> <Gold.PLP.ligand.torsion>
1.0343

> <Gold.PLP.Chemscore.Hbond>
2.7444

> <Gold.PLP.Chemscore.CHOScore>
1.0000

> <Gold.PLP.Chemscore.Metal>
0.0000

> <Gold.Chemscore.Hbonds>
donor molecule, donor type, donor heavy atom, donor atom, acceptor molecule, acceptor atom, score
      L1  H     3    24       P1  7948  0.64
      P1  H  7997  8008       L1    19  0.56
      P1  H  7997  8009       L1    18  0.02
      P1  H 10752 10765       L1    20  0.71
      L1  C    11    32       P1  7948  1.00

> <Gold.PLP.Chemscore.Internal.Correction>
0.0189

> <Gold.Rescore>
     Score         DG    S(hbond)    S(metal)    S(lipo)     H(rot)  DE(clash)    DE(int)     intcor
     13.55     -14.71       1.33        0.00      73.14       1.47       0.17       0.99       ----

> <Gold.Chemscore.Fitness>
13.5531

> <Gold.Chemscore.DG>
-14.7148

> <Gold.Chemscore.ZeroCoef>
-5.4800

> <Gold.Chemscore.Hbond>
1.3278

> <Gold.Chemscore.Metal>
0.0000

> <Gold.Chemscore.Lipo>
73.1425

> <Gold.Chemscore.Internal_Hbond>
0.0000

> <Gold.Chemscore.DEClash>
0.1707

> <Gold.Chemscore.DEInternal>
0.9910

> <Gold.Chemscore.Rot>
1.4679

> <Gold.Chemscore.Internal.Correction>
   9.000000E+99

> <Gold.Chemscore.Hbonds>
donor molecule, donor type, donor heavy atom, donor atom, acceptor molecule, acceptor atom, score
      L1  H     3    24       P1  7948  0.64
      P1  H  7997  8008       L1    19  0.44
      P1  H 10752 10765       L1    20  0.11

> <Gold.Chemscore.Hbond.Weighted>
-4.4349

> <Gold.Chemscore.Metal.Weighted>
-0.0000

> <Gold.Chemscore.Lipo.Weighted>
-8.5577

> <Gold.Chemscore.Internal_Hbond.Weighted>
0.0000

> <Gold.Chemscore.DEClash.Weighted>
0.1707

> <Gold.Chemscore.DEInternal.Weighted>
0.9910

> <Gold.Chemscore.Rot.Weighted>
3.7578

> <Gold.Chemscore.Internal.Correction.Weighted>
   9.000000E+99

> <Gold.Protein.RotatedTorsions>
[ 6907 6896 6895 6894 ] final -179.64 input  -60.11 | X-H torsion
[ 7974 7965 7964 7962 ] final  148.03 input  175.53 | X-H torsion
[ 8008 7997 7996 7995 ] final  -99.02 input   59.86 | X-H torsion
[ 10167 10162 10161 10158 ] final -175.69 input  -65.29 | X-H torsion
[ 10718 10713 10712 10709 ] final   77.05 input   66.30 | X-H torsion
[ 10763 10752 10751 10750 ] final -138.88 input  -60.55 | X-H torsion
[ 11005 11000 10999 10996 ] final  118.24 input  -57.11 | X-H torsion

> <Gold.Protein.ActiveResidues>
 VAL166  LYS551  ARG553  GLY616  TRP617  ASP618  TYR619  PRO620  LYS621  CYS622 
 ASP623  PHE694  ASN695  SER759  ASP760  ASP761  ALA762  ILE779  LEU786  VAL792 
 PHE793  MET794  SER795  GLU796  ALA797  LYS798  CYS799  TRP800  GLU811  SER814 

> <Gold.Protein.RotatedAtoms>
  151.6567  133.3318  159.3164 H   0  0  0  0  0  0  0  0  0  0  0  0  # atno 6907 bound_to 6896
  150.7933  134.6978  159.6542 H   0  0  0  0  0  0  0  0  0  0  0  0  # atno 6908 bound_to 6896
  152.4017  134.6279  160.0119 H   0  0  0  0  0  0  0  0  0  0  0  0  # atno 6909 bound_to 6896
  144.8545  139.6102  143.5958 H   0  0  0  0  0  0  0  0  0  0  0  0  # atno 7974 bound_to 7965
  154.8091  140.0451  157.1330 H   0  0  0  0  0  0  0  0  0  0  0  0  # atno 8008 bound_to 7997
  154.9389  140.3050  155.5110 H   0  0  0  0  0  0  0  0  0  0  0  0  # atno 8009 bound_to 7997
  156.2970  140.2309  156.4456 H   0  0  0  0  0  0  0  0  0  0  0  0  # atno 8010 bound_to 7997
  139.5568  144.1969  152.1172 H   0  0  0  0  0  0  0  0  0  0  0  0  # atno 10167 bound_to 10162
  157.6696  130.9803  150.1586 H   0  0  0  0  0  0  0  0  0  0  0  0  # atno 10718 bound_to 10713
  154.8625  135.3599  154.5456 H   0  0  0  0  0  0  0  0  0  0  0  0  # atno 10763 bound_to 10752
  153.6076  135.7010  153.5364 H   0  0  0  0  0  0  0  0  0  0  0  0  # atno 10764 bound_to 10752
  153.3237  135.4144  155.1399 H   0  0  0  0  0  0  0  0  0  0  0  0  # atno 10765 bound_to 10752
  139.9102  134.9618  156.7472 H   0  0  0  0  0  0  0  0  0  0  0  0  # atno 11005 bound_to 11000
  146.2812  139.6883  142.9227 LP  0  0  0  0  0  0  0  0  0  0  0  0  # atno 17320 bound_to 7965
  145.4433  141.0424  143.2845 LP  0  0  0  0  0  0  0  0  0  0  0  0  # atno 17321 bound_to 7965
  140.1475  144.5145  150.6707 LP  0  0  0  0  0  0  0  0  0  0  0  0  # atno 17342 bound_to 10162
  140.6842  143.2341  151.5305 LP  0  0  0  0  0  0  0  0  0  0  0  0  # atno 17343 bound_to 10162
  156.2368  130.3687  149.8382 LP  0  0  0  0  0  0  0  0  0  0  0  0  # atno 17370 bound_to 10713
  156.6194  130.8620  151.3472 LP  0  0  0  0  0  0  0  0  0  0  0  0  # atno 17371 bound_to 10713
  140.6802  133.9481  155.7906 LP  0  0  0  0  0  0  0  0  0  0  0  0  # atno 17394 bound_to 11000
  141.0515  134.0477  157.3777 LP  0  0  0  0  0  0  0  0  0  0  0  0  # atno 17395 bound_to 11000

$$$$
