AV-unprocessed.smi:1839|AV-procd|sdf|7484|dock2
  -GOLD-   22720 9183D 1   1.00000     0.00000
 Structure written by MMmdl.
 46 47  0  0  0  0  0  0  0  0  1 V2000
  147.0287  129.2884  152.0297 C   0  0  0  0  0  0  0  0  0  0  0  0
  146.9685  130.6057  152.6633 N   0  0  0  0  0  0  0  0  0  0  0  0
  145.9015  131.4721  152.1474 C   0  0  0  0  0  0  0  0  0  0  0  0
  148.0030  131.0479  153.4210 C   0  0  0  0  0  0  0  0  0  0  0  0
  149.1245  130.5403  153.3548 O   0  0  0  0  0  0  0  0  0  0  0  0
  147.7425  132.1055  154.2258 N   0  0  0  0  0  0  0  0  0  0  0  0
  146.5056  132.2254  155.0117 C   0  0  0  0  0  0  0  0  0  0  0  0
  146.0045  133.6799  154.9686 C   0  0  0  0  0  0  0  0  0  0  0  0
  147.0962  134.6522  155.4488 C   0  0  0  0  0  0  0  0  0  0  0  0
  148.4244  134.4163  154.6971 C   0  0  1  0  0  0  0  0  0  0  0  0
  149.5504  135.3061  155.2375 C   0  0  0  0  0  0  0  0  0  0  0  0
  149.9641  135.1605  156.3881 O   0  0  0  0  0  0  0  0  0  0  0  0
  150.0562  136.2069  154.3819 N   0  0  0  0  0  0  0  0  0  0  0  0
  151.2125  137.0575  154.6435 C   0  0  0  0  0  0  0  0  0  0  0  0
  150.9932  138.5220  154.2080 C   0  0  0  0  0  0  0  0  0  0  0  0
  151.0783  139.5236  155.3496 C   0  0  0  0  0  0  0  0  0  0  0  0
  151.6123  139.1440  156.5994 C   0  0  0  0  0  0  0  0  0  0  0  0
  151.6451  140.1000  157.6333 C   0  0  0  0  0  0  0  0  0  0  0  0
  151.1432  141.3915  157.3805 C   0  0  0  0  0  0  0  0  0  0  0  0
  150.6310  141.6722  156.0982 C   0  0  0  0  0  0  0  0  0  0  0  0
  150.5974  140.7633  155.1006 N   0  0  0  0  0  0  0  0  0  0  0  0
  148.8248  132.9270  154.7774 C   0  0  0  0  0  0  0  0  0  0  0  0
  147.4614  128.5422  152.6981 H   0  0  0  0  0  0  0  0  0  0  0  0
  147.6348  129.3296  151.1239 H   0  0  0  0  0  0  0  0  0  0  0  0
  146.0335  128.9352  151.7570 H   0  0  0  0  0  0  0  0  0  0  0  0
  146.2092  132.5173  152.0911 H   0  0  0  0  0  0  0  0  0  0  0  0
  145.0151  131.4064  152.7781 H   0  0  0  0  0  0  0  0  0  0  0  0
  145.6101  131.1796  151.1378 H   0  0  0  0  0  0  0  0  0  0  0  0
  145.7230  131.5492  154.6670 H   0  0  0  0  0  0  0  0  0  0  0  0
  146.7124  131.9351  156.0428 H   0  0  0  0  0  0  0  0  0  0  0  0
  145.7081  133.9369  153.9512 H   0  0  0  0  0  0  0  0  0  0  0  0
  145.1123  133.7873  155.5861 H   0  0  0  0  0  0  0  0  0  0  0  0
  146.7605  135.6810  155.3141 H   0  0  0  0  0  0  0  0  0  0  0  0
  147.2435  134.5127  156.5209 H   0  0  0  0  0  0  0  0  0  0  0  0
  148.2646  134.6665  153.6463 H   0  0  0  0  0  0  0  0  0  0  0  0
  149.6534  136.2586  153.4574 H   0  0  0  0  0  0  0  0  0  0  0  0
  151.4007  137.0256  155.7169 H   0  0  0  0  0  0  0  0  0  0  0  0
  152.1016  136.6465  154.1636 H   0  0  0  0  0  0  0  0  0  0  0  0
  151.7257  138.7896  153.4457 H   0  0  0  0  0  0  0  0  0  0  0  0
  150.0176  138.6184  153.7289 H   0  0  0  0  0  0  0  0  0  0  0  0
  151.9828  138.1430  156.7648 H   0  0  0  0  0  0  0  0  0  0  0  0
  152.0449  139.8461  158.6040 H   0  0  0  0  0  0  0  0  0  0  0  0
  151.1502  142.1490  158.1502 H   0  0  0  0  0  0  0  0  0  0  0  0
  150.2366  142.6508  155.8675 H   0  0  0  0  0  0  0  0  0  0  0  0
  149.0213  132.6261  155.8082 H   0  0  0  0  0  0  0  0  0  0  0  0
  149.7551  132.7752  154.2267 H   0  0  0  0  0  0  0  0  0  0  0  0
  1  2  1  0  0  0  0
  1 23  1  0  0  0  0
  1 24  1  0  0  0  0
  1 25  1  0  0  0  0
  2  3  1  0  0  0  0
  2  4  1  0  0  0  0
  3 26  1  0  0  0  0
  3 27  1  0  0  0  0
  3 28  1  0  0  0  0
  4  5  2  0  0  0  0
  4  6  1  0  0  0  0
  6 22  1  0  0  0  0
  6  7  1  0  0  0  0
  7  8  1  0  0  0  0
  7 29  1  0  0  0  0
  7 30  1  0  0  0  0
  8  9  1  0  0  0  0
  8 31  1  0  0  0  0
  8 32  1  0  0  0  0
  9 10  1  0  0  0  0
  9 33  1  0  0  0  0
  9 34  1  0  0  0  0
 10 11  1  0  0  0  0
 10 22  1  0  0  0  0
 10 35  1  0  0  0  0
 11 12  2  0  0  0  0
 11 13  1  0  0  0  0
 13 14  1  0  0  0  0
 13 36  1  0  0  0  0
 14 15  1  0  0  0  0
 14 37  1  0  0  0  0
 14 38  1  0  0  0  0
 15 16  1  0  0  0  0
 15 39  1  0  0  0  0
 15 40  1  0  0  0  0
 16 21  1  0  0  0  0
 16 17  2  0  0  0  0
 17 18  1  0  0  0  0
 17 41  1  0  0  0  0
 18 19  2  0  0  0  0
 18 42  1  0  0  0  0
 19 20  1  0  0  0  0
 19 43  1  0  0  0  0
 20 21  2  0  0  0  0
 20 44  1  0  0  0  0
 22 45  1  0  0  0  0
 22 46  1  0  0  0  0
M  END
> <s_m_source_file>
AV-unprocessed.smi

> <i_m_source_file_index>
1839

> <i_lp_mmshare_version>
43012

> <i_f3d_flags>
0

> <s_epik_input>
W0NIM11OKFtDSDNdKUMoPU8pTjFbQ0gyXVtDSDJdW0NIMl1bQ0BIXShbQ0gyXTEpQyg9TylbTkhdW0NIMl1bQ0gyXWMyW2NIXVtjSF1bY0hdW2NIXW4y

> <s_epik_cmdline>
J2VwaWtfcHl0aG9uJywgJy1waCcsICc3LjAnLCAnLXRuJywgJzgnLCAnLW1hJywgJzIwMCcsICctbWV0YWxfYmluZGluZycsICctaW1hZScsICc8aW5maWxlLm1hZT4nLCAnLW9tYWUnLCAnPG91dGZpbGUubWFlPic=

> <r_epik_Ionization_Penalty>
0.0268631

> <r_epik_Ionization_Penalty_Charging>
0

> <r_epik_Ionization_Penalty_Neutral>
0.0268631

> <r_epik_State_Penalty>
0.0219025

> <r_epik_Charging_Adjusted_Penalty>
0.0219025

> <i_epik_Tot_Q>
0

> <i_epik_Tot_abs_Q>
0

> <r_epik_Metal_State_Penalty>
0.0209511

> <b_epik_Metal_Only>
0

> <s_lp_Force_Field>
OPLS_2005

> <r_lp_Energy>
49.2306

> <b_lp_Chiralities_Consistent>
1

> <s_lp_Variant>
AV-unprocessed.smi:1839-1

> <Gold.Version>
5.8.1

> <Gold.Id.Protein>
6NUR|6NUR_protein|mol2

> <Gold.PLP.Fitness>
38.6920

> <Gold.PLP.PLP>
-32.0835

> <Gold.PLP.part.hbond>
-2.6145

> <Gold.PLP.part.metal>
0.0000

> <Gold.PLP.part.buried>
-2.9151

> <Gold.PLP.part.nonpolar>
-26.1414

> <Gold.PLP.part.repulsive>
0.2596

> <Gold.PLP.ligand.clash>
0.0000

> <Gold.PLP.ligand.torsion>
1.3452

> <Gold.PLP.Chemscore.Hbond>
1.6480

> <Gold.PLP.Chemscore.CHOScore>
1.0000

> <Gold.PLP.Chemscore.Metal>
0.0000

> <Gold.Chemscore.Hbonds>
donor molecule, donor type, donor heavy atom, donor atom, acceptor molecule, acceptor atom, score
      L1  H    13    36       P1  7948  1.00
      P1  H  7989  7998       L1    21  0.52
      L1  C    20    44       P1  8028  1.00

> <Gold.PLP.Chemscore.Internal.Correction>
1.3548

> <Gold.Rescore>
     Score         DG    S(hbond)    S(metal)    S(lipo)     H(rot)  DE(clash)    DE(int)     intcor
     11.37     -13.40       0.91        0.00      74.82       1.52       0.02       2.01       ----

> <Gold.Chemscore.Fitness>
11.3739

> <Gold.Chemscore.DG>
-13.4017

> <Gold.Chemscore.ZeroCoef>
-5.4800

> <Gold.Chemscore.Hbond>
0.9123

> <Gold.Chemscore.Metal>
0.0000

> <Gold.Chemscore.Lipo>
74.8212

> <Gold.Chemscore.Internal_Hbond>
0.0000

> <Gold.Chemscore.DEClash>
0.0155

> <Gold.Chemscore.DEInternal>
2.0123

> <Gold.Chemscore.Rot>
1.5155

> <Gold.Chemscore.Internal.Correction>
   9.000000E+99

> <Gold.Chemscore.Hbonds>
donor molecule, donor type, donor heavy atom, donor atom, acceptor molecule, acceptor atom, score
      L1  H    13    36       P1  7948  0.35
      P1  H  7989  7998       L1    21  0.04

> <Gold.Chemscore.Hbond.Weighted>
-3.0472

> <Gold.Chemscore.Metal.Weighted>
-0.0000

> <Gold.Chemscore.Lipo.Weighted>
-8.7541

> <Gold.Chemscore.Internal_Hbond.Weighted>
0.0000

> <Gold.Chemscore.DEClash.Weighted>
0.0155

> <Gold.Chemscore.DEInternal.Weighted>
2.0123

> <Gold.Chemscore.Rot.Weighted>
3.8796

> <Gold.Chemscore.Internal.Correction.Weighted>
   9.000000E+99

> <Gold.Protein.RotatedTorsions>
[ 6907 6896 6895 6894 ] final  -55.45 input  -60.11 | X-H torsion
[ 7974 7965 7964 7962 ] final -153.67 input  175.53 | X-H torsion
[ 8008 7997 7996 7995 ] final   74.80 input   59.86 | X-H torsion
[ 10167 10162 10161 10158 ] final  122.32 input  -65.29 | X-H torsion
[ 10718 10713 10712 10709 ] final -140.76 input   66.30 | X-H torsion
[ 10763 10752 10751 10750 ] final   70.86 input  -60.55 | X-H torsion
[ 11005 11000 10999 10996 ] final  -73.36 input  -57.11 | X-H torsion

> <Gold.Protein.ActiveResidues>
 VAL166  LYS551  ARG553  GLY616  TRP617  ASP618  TYR619  PRO620  LYS621  CYS622 
 ASP623  PHE694  ASN695  SER759  ASP760  ASP761  ALA762  ILE779  LEU786  VAL792 
 PHE793  MET794  SER795  GLU796  ALA797  LYS798  CYS799  TRP800  GLU811  SER814 

> <Gold.Protein.RotatedAtoms>
  150.8251  134.7477  159.6805 H   0  0  0  0  0  0  0  0  0  0  0  0  # atno 6907 bound_to 6896
  152.4362  134.5678  159.9922 H   0  0  0  0  0  0  0  0  0  0  0  0  # atno 6908 bound_to 6896
  151.5852  133.3335  159.3052 H   0  0  0  0  0  0  0  0  0  0  0  0  # atno 6909 bound_to 6896
  144.7728  140.4493  143.5894 H   0  0  0  0  0  0  0  0  0  0  0  0  # atno 7974 bound_to 7965
  155.8036  140.3475  155.5417 H   0  0  0  0  0  0  0  0  0  0  0  0  # atno 8008 bound_to 7997
  155.8512  140.0956  157.1693 H   0  0  0  0  0  0  0  0  0  0  0  0  # atno 8009 bound_to 7997
  154.4008  140.1376  156.3834 H   0  0  0  0  0  0  0  0  0  0  0  0  # atno 8010 bound_to 7997
  139.5866  144.7009  151.3395 H   0  0  0  0  0  0  0  0  0  0  0  0  # atno 10167 bound_to 10162
  156.3260  130.7560  151.1668 H   0  0  0  0  0  0  0  0  0  0  0  0  # atno 10718 bound_to 10713
  153.0366  135.5158  154.7506 H   0  0  0  0  0  0  0  0  0  0  0  0  # atno 10763 bound_to 10752
  154.6478  135.2921  155.0027 H   0  0  0  0  0  0  0  0  0  0  0  0  # atno 10764 bound_to 10752
  154.0922  135.6648  153.4907 H   0  0  0  0  0  0  0  0  0  0  0  0  # atno 10765 bound_to 10752
  141.1621  133.6876  156.7200 H   0  0  0  0  0  0  0  0  0  0  0  0  # atno 11005 bound_to 11000
  145.6272  139.1531  143.2989 LP  0  0  0  0  0  0  0  0  0  0  0  0  # atno 17320 bound_to 7965
  146.1887  140.6379  142.9155 LP  0  0  0  0  0  0  0  0  0  0  0  0  # atno 17321 bound_to 7965
  140.7136  143.7325  150.7613 LP  0  0  0  0  0  0  0  0  0  0  0  0  # atno 17342 bound_to 10162
  140.0870  143.4913  152.2499 LP  0  0  0  0  0  0  0  0  0  0  0  0  # atno 17343 bound_to 10162
  157.7421  131.0494  150.5047 LP  0  0  0  0  0  0  0  0  0  0  0  0  # atno 17370 bound_to 10713
  156.5206  130.4161  149.6253 LP  0  0  0  0  0  0  0  0  0  0  0  0  # atno 17371 bound_to 10713
  140.2823  134.8307  157.3944 LP  0  0  0  0  0  0  0  0  0  0  0  0  # atno 17394 bound_to 11000
  140.1422  134.4957  155.8023 LP  0  0  0  0  0  0  0  0  0  0  0  0  # atno 17395 bound_to 11000

$$$$
