AV-unprocessed.smi:543|AV-procd|sdf|2875|dock8
  -GOLD-   2262023363D 1   1.00000     0.00000
 Structure written by MMmdl.
 46 48  0  0  0  0  0  0  0  0  1 V2000
  147.9063  141.7621  154.0500 C   0  0  0  0  0  0  0  0  0  0  0  0
  148.1474  140.4905  154.6242 O   0  0  0  0  0  0  0  0  0  0  0  0
  149.4798  140.3450  155.0886 C   0  0  0  0  0  0  0  0  0  0  0  0
  149.4743  139.6587  156.4615 C   0  0  0  0  0  0  0  0  0  0  0  0
  150.8271  139.4906  156.9905 N   0  0  0  0  0  0  0  0  0  0  0  0
  151.6449  140.4068  157.5852 C   0  0  0  0  0  0  0  0  0  0  0  0
  151.2821  141.7494  157.7519 N   0  0  0  0  0  0  0  0  0  0  0  0
  150.0216  142.3484  157.3305 C   0  0  0  0  0  0  0  0  0  0  0  0
  152.1969  142.7940  158.2138 C   0  0  0  0  0  0  0  0  0  0  0  0
  152.5245  142.7664  159.6986 C   0  0  0  0  0  0  0  0  0  0  0  0
  152.1582  143.8538  160.5197 C   0  0  0  0  0  0  0  0  0  0  0  0
  152.4476  143.8305  161.8978 C   0  0  0  0  0  0  0  0  0  0  0  0
  153.1070  142.7212  162.4609 C   0  0  0  0  0  0  0  0  0  0  0  0
  153.4781  141.6352  161.6450 C   0  0  0  0  0  0  0  0  0  0  0  0
  153.1894  141.6583  160.2667 C   0  0  0  0  0  0  0  0  0  0  0  0
  152.7986  139.9011  158.0321 N   0  0  0  0  0  0  0  0  0  0  0  0
  152.7255  138.5653  157.6786 C   0  0  0  0  0  0  0  0  0  0  0  0
  151.5474  138.2956  157.0632 C   0  0  0  0  0  0  0  0  0  0  0  0
  151.1853  136.9412  156.6218 C   0  0  0  0  0  0  0  0  0  0  0  0
  150.1155  136.6655  156.0830 O   0  0  0  0  0  0  0  0  0  0  0  0
  152.1488  136.0227  156.8763 N   0  0  0  0  0  0  0  0  0  0  0  0
  153.3580  136.2315  157.4811 C   0  0  0  0  0  0  0  0  0  0  0  0
  154.1358  135.2915  157.6431 O   0  0  0  0  0  0  0  0  0  0  0  0
  153.6541  137.5067  157.8889 N   0  0  0  0  0  0  0  0  0  0  0  0
  154.9344  137.7896  158.5408 C   0  0  0  0  0  0  0  0  0  0  0  0
  151.9507  135.0751  156.5903 H   0  0  0  0  0  0  0  0  0  0  0  0
  146.8684  141.8241  153.7231 H   0  0  0  0  0  0  0  0  0  0  0  0
  148.5437  141.9280  153.1807 H   0  0  0  0  0  0  0  0  0  0  0  0
  148.0815  142.5610  154.7716 H   0  0  0  0  0  0  0  0  0  0  0  0
  150.0615  139.7547  154.3789 H   0  0  0  0  0  0  0  0  0  0  0  0
  149.9556  141.3234  155.1658 H   0  0  0  0  0  0  0  0  0  0  0  0
  148.8814  140.2339  157.1710 H   0  0  0  0  0  0  0  0  0  0  0  0
  148.9673  138.7021  156.3911 H   0  0  0  0  0  0  0  0  0  0  0  0
  149.4694  141.6687  156.6811 H   0  0  0  0  0  0  0  0  0  0  0  0
  150.1858  143.2673  156.7664 H   0  0  0  0  0  0  0  0  0  0  0  0
  149.4025  142.5841  158.1966 H   0  0  0  0  0  0  0  0  0  0  0  0
  153.1354  142.7752  157.6574 H   0  0  0  0  0  0  0  0  0  0  0  0
  151.7370  143.7535  157.9744 H   0  0  0  0  0  0  0  0  0  0  0  0
  151.6477  144.7067  160.0973 H   0  0  0  0  0  0  0  0  0  0  0  0
  152.1620  144.6636  162.5230 H   0  0  0  0  0  0  0  0  0  0  0  0
  153.3278  142.7027  163.5179 H   0  0  0  0  0  0  0  0  0  0  0  0
  153.9832  140.7837  162.0762 H   0  0  0  0  0  0  0  0  0  0  0  0
  153.4742  140.8196  159.6492 H   0  0  0  0  0  0  0  0  0  0  0  0
  155.0417  137.1961  159.4496 H   0  0  0  0  0  0  0  0  0  0  0  0
  155.0399  138.8371  158.8229 H   0  0  0  0  0  0  0  0  0  0  0  0
  155.7637  137.5469  157.8755 H   0  0  0  0  0  0  0  0  0  0  0  0
  1  2  1  0  0  0  0
  1 27  1  0  0  0  0
  1 28  1  0  0  0  0
  1 29  1  0  0  0  0
  2  3  1  0  0  0  0
  3  4  1  0  0  0  0
  3 30  1  0  0  0  0
  3 31  1  0  0  0  0
  4  5  1  0  0  0  0
  4 32  1  0  0  0  0
  4 33  1  0  0  0  0
  5 18  1  0  0  0  0
  5  6  1  0  0  0  0
  6  7  1  0  0  0  0
  6 16  2  0  0  0  0
  7  8  1  0  0  0  0
  7  9  1  0  0  0  0
  8 34  1  0  0  0  0
  8 35  1  0  0  0  0
  8 36  1  0  0  0  0
  9 10  1  0  0  0  0
  9 37  1  0  0  0  0
  9 38  1  0  0  0  0
 10 15  1  0  0  0  0
 10 11  2  0  0  0  0
 11 12  1  0  0  0  0
 11 39  1  0  0  0  0
 12 13  2  0  0  0  0
 12 40  1  0  0  0  0
 13 14  1  0  0  0  0
 13 41  1  0  0  0  0
 14 15  2  0  0  0  0
 14 42  1  0  0  0  0
 15 43  1  0  0  0  0
 16 17  1  0  0  0  0
 17 24  1  0  0  0  0
 17 18  2  0  0  0  0
 18 19  1  0  0  0  0
 19 20  2  0  0  0  0
 19 21  1  0  0  0  0
 21 26  1  0  0  0  0
 21 22  1  0  0  0  0
 22 23  2  0  0  0  0
 22 24  1  0  0  0  0
 24 25  1  0  0  0  0
 25 44  1  0  0  0  0
 25 45  1  0  0  0  0
 25 46  1  0  0  0  0
M  END
> <s_m_source_file>
AV-unprocessed.smi

> <i_m_source_file_index>
543

> <i_lp_mmshare_version>
43012

> <i_f3d_flags>
0

> <s_epik_input>
W0NIM11uMWMoPU8pW25IXWMoPU8pYyhjMTIpbihbQ0gyXVtDSDJdT1tDSDNdKWMobjIpTihbQ0gzXSlbQ0gyXWMzW2NIXVtjSF1bY0hdW2NIXVtjSF0z

> <s_epik_cmdline>
J2VwaWtfcHl0aG9uJywgJy1waCcsICc3LjAnLCAnLXRuJywgJzgnLCAnLW1hJywgJzIwMCcsICctbWV0YWxfYmluZGluZycsICctaW1hZScsICc8aW5maWxlLm1hZT4nLCAnLW9tYWUnLCAnPG91dGZpbGUubWFlPic=

> <r_lp_tautomer_probability>
1

> <r_epik_Ionization_Penalty>
3.94324e-05

> <r_epik_Ionization_Penalty_Charging>
1.70393e-05

> <r_epik_Ionization_Penalty_Neutral>
2.23931e-05

> <r_epik_State_Penalty>
-0

> <r_epik_Charging_Adjusted_Penalty>
1.70393e-05

> <i_epik_Tot_Q>
0

> <i_epik_Tot_abs_Q>
0

> <r_epik_Metal_State_Penalty>
0.0163311

> <b_epik_Metal_Only>
0

> <s_lp_Force_Field>
OPLS_2005

> <r_lp_Energy>
32.7304

> <b_lp_Chiralities_Consistent>
1

> <s_lp_Variant>
AV-unprocessed.smi:543-1

> <Gold.Version>
5.8.1

> <Gold.Id.Protein>
6NUR|6NUR_protein|mol2

> <Gold.PLP.Fitness>
43.0054

> <Gold.PLP.PLP>
-42.1606

> <Gold.PLP.part.hbond>
-1.6662

> <Gold.PLP.part.metal>
0.0000

> <Gold.PLP.part.buried>
-4.8150

> <Gold.PLP.part.nonpolar>
-35.3787

> <Gold.PLP.part.repulsive>
0.7564

> <Gold.PLP.ligand.clash>
3.9488

> <Gold.PLP.ligand.torsion>
0.6612

> <Gold.PLP.Chemscore.Hbond>
0.6728

> <Gold.PLP.Chemscore.CHOScore>
0.0000

> <Gold.PLP.Chemscore.Metal>
0.0000

> <Gold.Chemscore.Hbonds>
donor molecule, donor type, donor heavy atom, donor atom, acceptor molecule, acceptor atom, score
      P1  H  7997  8010       L1    16  0.45
      P1  H 10752 10763       L1    23  0.08

> <Gold.PLP.Chemscore.Internal.Correction>
4.0978

> <Gold.Rescore>
     Score         DG    S(hbond)    S(metal)    S(lipo)     H(rot)  DE(clash)    DE(int)     intcor
     10.24     -13.69       0.00        0.00     110.69       1.86       0.15       3.29       ----

> <Gold.Chemscore.Fitness>
10.2436

> <Gold.Chemscore.DG>
-13.6863

> <Gold.Chemscore.ZeroCoef>
-5.4800

> <Gold.Chemscore.Hbond>
0.0036

> <Gold.Chemscore.Metal>
0.0000

> <Gold.Chemscore.Lipo>
110.6906

> <Gold.Chemscore.Internal_Hbond>
0.0000

> <Gold.Chemscore.DEClash>
0.1549

> <Gold.Chemscore.DEInternal>
3.2877

> <Gold.Chemscore.Rot>
1.8580

> <Gold.Chemscore.Internal.Correction>
   9.000000E+99

> <Gold.Chemscore.Hbonds>
donor molecule, donor type, donor heavy atom, donor atom, acceptor molecule, acceptor atom, score
      P1  H  7997  8010       L1    16  0.02

> <Gold.Chemscore.Hbond.Weighted>
-0.0119

> <Gold.Chemscore.Metal.Weighted>
-0.0000

> <Gold.Chemscore.Lipo.Weighted>
-12.9508

> <Gold.Chemscore.Internal_Hbond.Weighted>
0.0000

> <Gold.Chemscore.DEClash.Weighted>
0.1549

> <Gold.Chemscore.DEInternal.Weighted>
3.2877

> <Gold.Chemscore.Rot.Weighted>
4.7564

> <Gold.Chemscore.Internal.Correction.Weighted>
   9.000000E+99

> <Gold.Protein.RotatedTorsions>
[ 6907 6896 6895 6894 ] final -166.31 input  -60.11 | X-H torsion
[ 7974 7965 7964 7962 ] final   88.44 input  175.53 | X-H torsion
[ 8008 7997 7996 7995 ] final   30.62 input   59.86 | X-H torsion
[ 10167 10162 10161 10158 ] final -111.48 input  -65.29 | X-H torsion
[ 10718 10713 10712 10709 ] final   26.30 input   66.30 | X-H torsion
[ 10763 10752 10751 10750 ] final  161.24 input  -60.55 | X-H torsion
[ 11005 11000 10999 10996 ] final -147.76 input  -57.11 | X-H torsion

> <Gold.Protein.ActiveResidues>
 VAL166  LYS551  ARG553  GLY616  TRP617  ASP618  TYR619  PRO620  LYS621  CYS622 
 ASP623  PHE694  ASN695  SER759  ASP760  ASP761  ALA762  ILE779  LEU786  VAL792 
 PHE793  MET794  SER795  GLU796  ALA797  LYS798  CYS799  TRP800  GLU811  SER814 

> <Gold.Protein.RotatedAtoms>
  151.4415  133.3642  159.2782 H   0  0  0  0  0  0  0  0  0  0  0  0  # atno 6907 bound_to 6896
  150.9154  134.8573  159.7464 H   0  0  0  0  0  0  0  0  0  0  0  0  # atno 6908 bound_to 6896
  152.4954  134.4348  159.9576 H   0  0  0  0  0  0  0  0  0  0  0  0  # atno 6909 bound_to 6896
  145.5457  139.2292  143.2541 H   0  0  0  0  0  0  0  0  0  0  0  0  # atno 7974 bound_to 7965
  155.0933  140.3222  155.4567 H   0  0  0  0  0  0  0  0  0  0  0  0  # atno 8008 bound_to 7997
  156.2737  140.2074  156.6006 H   0  0  0  0  0  0  0  0  0  0  0  0  # atno 8009 bound_to 7997
  154.6886  140.0519  157.0327 H   0  0  0  0  0  0  0  0  0  0  0  0  # atno 8010 bound_to 7997
  140.1331  143.4343  152.1613 H   0  0  0  0  0  0  0  0  0  0  0  0  # atno 10167 bound_to 10162
  157.2050  130.6908  149.6204 H   0  0  0  0  0  0  0  0  0  0  0  0  # atno 10718 bound_to 10713
  154.2599  135.2769  155.2782 H   0  0  0  0  0  0  0  0  0  0  0  0  # atno 10763 bound_to 10752
  154.5392  135.5707  153.6828 H   0  0  0  0  0  0  0  0  0  0  0  0  # atno 10764 bound_to 10752
  152.9964  135.6247  154.2749 H   0  0  0  0  0  0  0  0  0  0  0  0  # atno 10765 bound_to 10752
  140.7682  134.3219  157.5082 H   0  0  0  0  0  0  0  0  0  0  0  0  # atno 11005 bound_to 11000
  146.1951  140.6278  142.9128 LP  0  0  0  0  0  0  0  0  0  0  0  0  # atno 17320 bound_to 7965
  144.7554  140.5295  143.6772 LP  0  0  0  0  0  0  0  0  0  0  0  0  # atno 17321 bound_to 7965
  139.5509  144.7337  151.4438 LP  0  0  0  0  0  0  0  0  0  0  0  0  # atno 17342 bound_to 10162
  140.6805  143.8093  150.7115 LP  0  0  0  0  0  0  0  0  0  0  0  0  # atno 17343 bound_to 10162
  155.9696  130.4570  150.5946 LP  0  0  0  0  0  0  0  0  0  0  0  0  # atno 17370 bound_to 10713
  157.3729  131.0768  151.1542 LP  0  0  0  0  0  0  0  0  0  0  0  0  # atno 17371 bound_to 10713
  139.8760  134.9245  156.3350 LP  0  0  0  0  0  0  0  0  0  0  0  0  # atno 17394 bound_to 11000
  140.9598  133.7396  156.0386 LP  0  0  0  0  0  0  0  0  0  0  0  0  # atno 17395 bound_to 11000

$$$$
