AV-unprocessed.smi:709|AV-procd|sdf|3458|dock1
  -GOLD-   22720 0443D 1   1.00000     0.00000
 Structure written by MMmdl.
 48 50  0  0  0  0  0  0  0  0  1 V2000
  145.6703  129.6591  151.9108 C   0  0  0  0  0  0  0  0  0  0  0  0
  145.9871  131.1530  151.8194 C   0  0  0  0  0  0  0  0  0  0  0  0
  145.9482  131.7122  153.1216 O   0  0  0  0  0  0  0  0  0  0  0  0
  146.3150  133.0829  153.1443 C   0  0  2  0  0  0  0  0  0  0  0  0
  145.9753  133.7570  154.4750 C   0  0  0  0  0  0  0  0  0  0  0  0
  145.5722  134.9922  153.6628 C   0  0  1  0  0  0  0  0  0  0  0  0
  146.7101  135.8958  153.4807 N   0  0  0  0  0  0  0  0  0  0  0  0
  146.8726  137.0586  154.1260 C   0  0  0  0  0  0  0  0  0  0  0  0
  146.0708  137.4861  154.9561 O   0  0  0  0  0  0  0  0  0  0  0  0
  148.0127  137.6631  153.7447 N   0  0  0  0  0  0  0  0  0  0  0  0
  148.5332  138.9095  154.1340 C   0  0  0  0  0  0  0  0  0  0  0  0
  149.7412  139.0892  154.7256 C   0  0  0  0  0  0  0  0  0  0  0  0
  150.1925  140.4062  155.1056 C   0  0  0  0  0  0  0  0  0  0  0  0
  149.3853  141.4495  154.8685 C   0  0  0  0  0  0  0  0  0  0  0  0
  148.1265  141.2856  154.2657 N   0  0  0  0  0  0  0  0  0  0  0  0
  147.3164  142.4874  154.0503 C   0  0  0  0  0  0  0  0  0  0  0  0
  147.6473  140.0637  153.8861 C   0  0  0  0  0  0  0  0  0  0  0  0
  146.5347  139.9483  153.3658 O   0  0  0  0  0  0  0  0  0  0  0  0
  145.3185  134.0514  152.4520 C   0  0  0  0  0  0  0  0  0  0  0  0
  143.8758  133.5674  152.2796 C   0  0  0  0  0  0  0  0  0  0  0  0
  143.7529  132.9996  150.8661 C   0  0  0  0  0  0  0  0  0  0  0  0
  144.8144  133.7282  150.0397 C   0  0  0  0  0  0  0  0  0  0  0  0
  145.6595  134.5299  151.0372 C   0  0  0  0  0  0  0  0  0  0  0  0
  145.6958  129.1945  150.9250 H   0  0  0  0  0  0  0  0  0  0  0  0
  144.6780  129.4962  152.3320 H   0  0  0  0  0  0  0  0  0  0  0  0
  146.3931  129.1430  152.5431 H   0  0  0  0  0  0  0  0  0  0  0  0
  146.9757  131.3004  151.3825 H   0  0  0  0  0  0  0  0  0  0  0  0
  145.2660  131.6448  151.1673 H   0  0  0  0  0  0  0  0  0  0  0  0
  147.3583  133.2611  152.8725 H   0  0  0  0  0  0  0  0  0  0  0  0
  145.1297  133.2931  154.9856 H   0  0  0  0  0  0  0  0  0  0  0  0
  146.8223  133.8933  155.1485 H   0  0  0  0  0  0  0  0  0  0  0  0
  144.6735  135.4770  154.0482 H   0  0  0  0  0  0  0  0  0  0  0  0
  147.4169  135.6135  152.8175 H   0  0  0  0  0  0  0  0  0  0  0  0
  148.6006  137.1468  153.1064 H   0  0  0  0  0  0  0  0  0  0  0  0
  150.3953  138.2619  154.9482 H   0  0  0  0  0  0  0  0  0  0  0  0
  151.1575  140.5471  155.5696 H   0  0  0  0  0  0  0  0  0  0  0  0
  149.6504  142.4652  155.1236 H   0  0  0  0  0  0  0  0  0  0  0  0
  146.3757  142.4176  154.5983 H   0  0  0  0  0  0  0  0  0  0  0  0
  147.0849  142.6095  152.9912 H   0  0  0  0  0  0  0  0  0  0  0  0
  147.8175  143.3983  154.3789 H   0  0  0  0  0  0  0  0  0  0  0  0
  143.5810  132.8322  153.0291 H   0  0  0  0  0  0  0  0  0  0  0  0
  143.1901  134.4092  152.3846 H   0  0  0  0  0  0  0  0  0  0  0  0
  143.9631  131.9298  150.8773 H   0  0  0  0  0  0  0  0  0  0  0  0
  142.7497  133.1300  150.4595 H   0  0  0  0  0  0  0  0  0  0  0  0
  145.4273  133.0138  149.4893 H   0  0  0  0  0  0  0  0  0  0  0  0
  144.3556  134.3927  149.3069 H   0  0  0  0  0  0  0  0  0  0  0  0
  145.4139  135.5868  150.9290 H   0  0  0  0  0  0  0  0  0  0  0  0
  146.7228  134.4331  150.8160 H   0  0  0  0  0  0  0  0  0  0  0  0
  1  2  1  0  0  0  0
  1 24  1  0  0  0  0
  1 25  1  0  0  0  0
  1 26  1  0  0  0  0
  2  3  1  0  0  0  0
  2 27  1  0  0  0  0
  2 28  1  0  0  0  0
  3  4  1  0  0  0  0
  4 19  1  0  0  0  0
  4  5  1  0  0  0  0
  4 29  1  0  0  0  0
  5  6  1  0  0  0  0
  5 30  1  0  0  0  0
  5 31  1  0  0  0  0
  6  7  1  0  0  0  0
  6 19  1  0  0  0  0
  6 32  1  0  0  0  0
  7  8  1  0  0  0  0
  7 33  1  0  0  0  0
  8  9  2  0  0  0  0
  8 10  1  0  0  0  0
 10 11  1  0  0  0  0
 10 34  1  0  0  0  0
 11 17  1  0  0  0  0
 11 12  2  0  0  0  0
 12 13  1  0  0  0  0
 12 35  1  0  0  0  0
 13 14  2  0  0  0  0
 13 36  1  0  0  0  0
 14 15  1  0  0  0  0
 14 37  1  0  0  0  0
 15 16  1  0  0  0  0
 15 17  1  0  0  0  0
 16 38  1  0  0  0  0
 16 39  1  0  0  0  0
 16 40  1  0  0  0  0
 17 18  2  0  0  0  0
 19 23  1  0  0  0  0
 19 20  1  0  0  0  0
 20 21  1  0  0  0  0
 20 41  1  0  0  0  0
 20 42  1  0  0  0  0
 21 22  1  0  0  0  0
 21 43  1  0  0  0  0
 21 44  1  0  0  0  0
 22 23  1  0  0  0  0
 22 45  1  0  0  0  0
 22 46  1  0  0  0  0
 23 47  1  0  0  0  0
 23 48  1  0  0  0  0
M  END
> <s_m_source_file>
AV-unprocessed.smi

> <i_m_source_file_index>
709

> <i_lp_mmshare_version>
43012

> <i_f3d_flags>
0

> <s_epik_input>
W0NIMl0xW0NIMl1bQ0gyXVtDSDJdQzEyW0NASF0oT1tDSDJdW0NIM10pW0NIMl1bQ0BIXTJbTkhdQyg9TylbTkhdYzNbY0hdW2NIXVtjSF1uKFtDSDNdKWMzPU8=

> <s_epik_cmdline>
J2VwaWtfcHl0aG9uJywgJy1waCcsICc3LjAnLCAnLXRuJywgJzgnLCAnLW1hJywgJzIwMCcsICctbWV0YWxfYmluZGluZycsICctaW1hZScsICc8aW5maWxlLm1hZT4nLCAnLW9tYWUnLCAnPG91dGZpbGUubWFlPic=

> <r_lp_tautomer_probability>
1

> <r_epik_Ionization_Penalty>
2.50859e-05

> <r_epik_Ionization_Penalty_Charging>
5.10493e-06

> <r_epik_Ionization_Penalty_Neutral>
1.9981e-05

> <r_epik_State_Penalty>
-0

> <r_epik_Charging_Adjusted_Penalty>
5.10493e-06

> <i_epik_Tot_Q>
0

> <i_epik_Tot_abs_Q>
0

> <r_epik_Metal_State_Penalty>
-0

> <b_epik_Metal_Only>
0

> <s_lp_Force_Field>
OPLS_2005

> <r_lp_Energy>
50.6908

> <b_lp_Chiralities_Consistent>
1

> <s_lp_Variant>
AV-unprocessed.smi:709-1

> <Gold.Version>
5.8.1

> <Gold.Id.Protein>
6NUR|6NUR_protein|mol2

> <Gold.PLP.Fitness>
41.2707

> <Gold.PLP.PLP>
-33.9919

> <Gold.PLP.part.hbond>
-1.9118

> <Gold.PLP.part.metal>
0.0000

> <Gold.PLP.part.buried>
-1.1954

> <Gold.PLP.part.nonpolar>
-32.0025

> <Gold.PLP.part.repulsive>
0.7862

> <Gold.PLP.ligand.clash>
0.0000

> <Gold.PLP.ligand.torsion>
0.8519

> <Gold.PLP.Chemscore.Hbond>
1.8800

> <Gold.PLP.Chemscore.CHOScore>
1.0000

> <Gold.PLP.Chemscore.Metal>
0.0000

> <Gold.Chemscore.Hbonds>
donor molecule, donor type, donor heavy atom, donor atom, acceptor molecule, acceptor atom, score
      L1  H     7    33       P1  7948  0.88
      L1  H    10    34       P1  7948  1.00
      L1  C    14    37       P1  8028  1.00

> <Gold.PLP.Chemscore.Internal.Correction>
0.3425

> <Gold.Rescore>
     Score         DG    S(hbond)    S(metal)    S(lipo)     H(rot)  DE(clash)    DE(int)     intcor
     16.43     -18.41       1.91        0.00      85.65       1.36       1.02       0.96       ----

> <Gold.Chemscore.Fitness>
16.4252

> <Gold.Chemscore.DG>
-18.4064

> <Gold.Chemscore.ZeroCoef>
-5.4800

> <Gold.Chemscore.Hbond>
1.9121

> <Gold.Chemscore.Metal>
0.0000

> <Gold.Chemscore.Lipo>
85.6517

> <Gold.Chemscore.Internal_Hbond>
0.0000

> <Gold.Chemscore.DEClash>
1.0250

> <Gold.Chemscore.DEInternal>
0.9562

> <Gold.Chemscore.Rot>
1.3599

> <Gold.Chemscore.Internal.Correction>
   9.000000E+99

> <Gold.Chemscore.Hbonds>
donor molecule, donor type, donor heavy atom, donor atom, acceptor molecule, acceptor atom, score
      L1  H     7    33       P1  7948  0.86
      L1  H    10    34       P1  7948  0.97

> <Gold.Chemscore.Hbond.Weighted>
-6.3865

> <Gold.Chemscore.Metal.Weighted>
-0.0000

> <Gold.Chemscore.Lipo.Weighted>
-10.0212

> <Gold.Chemscore.Internal_Hbond.Weighted>
0.0000

> <Gold.Chemscore.DEClash.Weighted>
1.0250

> <Gold.Chemscore.DEInternal.Weighted>
0.9562

> <Gold.Chemscore.Rot.Weighted>
3.4813

> <Gold.Chemscore.Internal.Correction.Weighted>
   9.000000E+99

> <Gold.Protein.RotatedTorsions>
[ 6907 6896 6895 6894 ] final -169.90 input  -60.11 | X-H torsion
[ 7974 7965 7964 7962 ] final   98.32 input  175.53 | X-H torsion
[ 8008 7997 7996 7995 ] final  144.31 input   59.86 | X-H torsion
[ 10167 10162 10161 10158 ] final  126.32 input  -65.29 | X-H torsion
[ 10718 10713 10712 10709 ] final   36.59 input   66.30 | X-H torsion
[ 10763 10752 10751 10750 ] final  -73.38 input  -60.55 | X-H torsion
[ 11005 11000 10999 10996 ] final   -2.43 input  -57.11 | X-H torsion

> <Gold.Protein.ActiveResidues>
 VAL166  LYS551  ARG553  GLY616  TRP617  ASP618  TYR619  PRO620  LYS621  CYS622 
 ASP623  PHE694  ASN695  SER759  ASP760  ASP761  ALA762  ILE779  LEU786  VAL792 
 PHE793  MET794  SER795  GLU796  ALA797  LYS798  CYS799  TRP800  GLU811  SER814 

> <Gold.Protein.RotatedAtoms>
  151.4990  133.3508  159.2865 H   0  0  0  0  0  0  0  0  0  0  0  0  # atno 6907 bound_to 6896
  150.8785  134.8174  159.7218 H   0  0  0  0  0  0  0  0  0  0  0  0  # atno 6908 bound_to 6896
  152.4747  134.4884  159.9739 H   0  0  0  0  0  0  0  0  0  0  0  0  # atno 6909 bound_to 6896
  145.4137  139.2330  143.3234 H   0  0  0  0  0  0  0  0  0  0  0  0  # atno 7974 bound_to 7965
  156.2911  140.2239  156.5032 H   0  0  0  0  0  0  0  0  0  0  0  0  # atno 8008 bound_to 7997
  154.7672  140.0469  157.1043 H   0  0  0  0  0  0  0  0  0  0  0  0  # atno 8009 bound_to 7997
  154.9918  140.3091  155.4906 H   0  0  0  0  0  0  0  0  0  0  0  0  # atno 8010 bound_to 7997
  139.5638  144.6898  151.3969 H   0  0  0  0  0  0  0  0  0  0  0  0  # atno 10167 bound_to 10162
  157.3367  130.7526  149.6884 H   0  0  0  0  0  0  0  0  0  0  0  0  # atno 10718 bound_to 10713
  154.4587  135.5899  153.6241 H   0  0  0  0  0  0  0  0  0  0  0  0  # atno 10763 bound_to 10752
  152.9821  135.6038  154.3514 H   0  0  0  0  0  0  0  0  0  0  0  0  # atno 10764 bound_to 10752
  154.3383  135.2842  155.2415 H   0  0  0  0  0  0  0  0  0  0  0  0  # atno 10765 bound_to 10752
  140.6583  133.9343  155.8421 H   0  0  0  0  0  0  0  0  0  0  0  0  # atno 11005 bound_to 11000
  146.2692  140.4852  142.8821 LP  0  0  0  0  0  0  0  0  0  0  0  0  # atno 17320 bound_to 7965
  144.8292  140.6678  143.6302 LP  0  0  0  0  0  0  0  0  0  0  0  0  # atno 17321 bound_to 7965
  140.6920  143.7840  150.7269 LP  0  0  0  0  0  0  0  0  0  0  0  0  # atno 17342 bound_to 10162
  140.1325  143.4513  152.2245 LP  0  0  0  0  0  0  0  0  0  0  0  0  # atno 17343 bound_to 10162
  155.9702  130.4179  150.4303 LP  0  0  0  0  0  0  0  0  0  0  0  0  # atno 17370 bound_to 10713
  157.2344  131.0511  151.2473 LP  0  0  0  0  0  0  0  0  0  0  0  0  # atno 17371 bound_to 10713
  141.0484  134.0520  157.3814 LP  0  0  0  0  0  0  0  0  0  0  0  0  # atno 17394 bound_to 11000
  139.9022  135.0168  156.7320 LP  0  0  0  0  0  0  0  0  0  0  0  0  # atno 17395 bound_to 11000

$$$$
