AV-unprocessed.smi:1731|AV-procd|sdf|6975|dock1
  -GOLD-   22720 8183D 1   1.00000     0.00000
 Structure written by MMmdl.
 41 42  0  0  0  0  0  0  0  0  1 V2000
  146.1207  132.7147  150.2277 C   0  0  0  0  0  0  0  0  0  0  0  0
  145.5328  133.4902  151.4151 C   0  0  2  0  0  0  0  0  0  0  0  0
  145.3165  134.9753  151.0662 C   0  0  0  0  0  0  0  0  0  0  0  0
  144.7325  135.7600  152.2548 C   0  0  0  0  0  0  0  0  0  0  0  0
  145.5916  135.6203  153.5261 C   0  0  2  0  0  0  0  0  0  0  0  0
  146.8526  136.3426  153.3654 N   0  0  0  0  0  0  0  0  0  0  0  0
  147.2240  137.4261  154.0618 C   0  0  0  0  0  0  0  0  0  0  0  0
  146.5275  137.9506  154.9312 O   0  0  0  0  0  0  0  0  0  0  0  0
  148.4421  137.8502  153.6878 N   0  0  0  0  0  0  0  0  0  0  0  0
  149.1615  138.9592  154.1997 C   0  0  0  0  0  0  0  0  0  0  0  0
  150.5661  138.9907  154.3988 C   0  0  0  0  0  0  0  0  0  0  0  0
  150.9546  140.1585  154.8877 N   0  0  0  0  0  0  0  0  0  0  0  0
  149.8158  140.8856  155.0120 N   0  0  0  0  0  0  0  0  0  0  0  0
  149.8798  142.2406  155.5307 C   0  0  0  0  0  0  0  0  0  0  0  0
  150.6785  142.2957  156.8348 C   0  0  0  0  0  0  0  0  0  0  0  0
  150.7361  143.4714  157.4659 N   0  0  0  0  0  0  0  0  0  0  0  0
  151.2338  141.2891  157.2699 O   0  0  0  0  0  0  0  0  0  0  0  0
  148.7013  140.1832  154.5951 C   0  0  0  0  0  0  0  0  0  0  0  0
  145.8332  134.1334  153.8621 C   0  0  0  0  0  0  0  0  0  0  0  0
  146.4167  133.3545  152.6698 C   0  0  0  0  0  0  0  0  0  0  0  0
  147.1018  133.1001  149.9484 H   0  0  0  0  0  0  0  0  0  0  0  0
  145.4734  132.7862  149.3533 H   0  0  0  0  0  0  0  0  0  0  0  0
  146.2341  131.6571  150.4671 H   0  0  0  0  0  0  0  0  0  0  0  0
  144.5592  133.0537  151.6419 H   0  0  0  0  0  0  0  0  0  0  0  0
  146.2619  135.4244  150.7590 H   0  0  0  0  0  0  0  0  0  0  0  0
  144.6455  135.0620  150.2109 H   0  0  0  0  0  0  0  0  0  0  0  0
  144.6191  136.8117  151.9893 H   0  0  0  0  0  0  0  0  0  0  0  0
  143.7271  135.3913  152.4623 H   0  0  0  0  0  0  0  0  0  0  0  0
  145.0420  136.0782  154.3505 H   0  0  0  0  0  0  0  0  0  0  0  0
  147.4927  135.9828  152.6728 H   0  0  0  0  0  0  0  0  0  0  0  0
  148.9061  137.3213  152.9638 H   0  0  0  0  0  0  0  0  0  0  0  0
  151.3013  138.2224  154.2095 H   0  0  0  0  0  0  0  0  0  0  0  0
  150.3452  142.8946  154.7914 H   0  0  0  0  0  0  0  0  0  0  0  0
  148.8625  142.6035  155.6839 H   0  0  0  0  0  0  0  0  0  0  0  0
  151.2508  143.5571  158.3305 H   0  0  0  0  0  0  0  0  0  0  0  0
  150.2622  144.2725  157.0743 H   0  0  0  0  0  0  0  0  0  0  0  0
  147.7106  140.6121  154.6226 H   0  0  0  0  0  0  0  0  0  0  0  0
  146.4904  134.0383  154.7274 H   0  0  0  0  0  0  0  0  0  0  0  0
  144.8865  133.6769  154.1538 H   0  0  0  0  0  0  0  0  0  0  0  0
  146.5198  132.3030  152.9398 H   0  0  0  0  0  0  0  0  0  0  0  0
  147.4234  133.7148  152.4543 H   0  0  0  0  0  0  0  0  0  0  0  0
  1  2  1  0  0  0  0
  1 21  1  0  0  0  0
  1 22  1  0  0  0  0
  1 23  1  0  0  0  0
  2 20  1  0  0  0  0
  2  3  1  0  0  0  0
  2 24  1  0  0  0  0
  3  4  1  0  0  0  0
  3 25  1  0  0  0  0
  3 26  1  0  0  0  0
  4  5  1  0  0  0  0
  4 27  1  0  0  0  0
  4 28  1  0  0  0  0
  5  6  1  0  0  0  0
  5 19  1  0  0  0  0
  5 29  1  0  0  0  0
  6  7  1  0  0  0  0
  6 30  1  0  0  0  0
  7  8  2  0  0  0  0
  7  9  1  0  0  0  0
  9 10  1  0  0  0  0
  9 31  1  0  0  0  0
 10 18  2  0  0  0  0
 10 11  1  0  0  0  0
 11 12  2  0  0  0  0
 11 32  1  0  0  0  0
 12 13  1  0  0  0  0
 13 14  1  0  0  0  0
 13 18  1  0  0  0  0
 14 15  1  0  0  0  0
 14 33  1  0  0  0  0
 14 34  1  0  0  0  0
 15 16  1  0  0  0  0
 15 17  2  0  0  0  0
 16 35  1  0  0  0  0
 16 36  1  0  0  0  0
 18 37  1  0  0  0  0
 19 20  1  0  0  0  0
 19 38  1  0  0  0  0
 19 39  1  0  0  0  0
 20 40  1  0  0  0  0
 20 41  1  0  0  0  0
M  END
> <s_m_source_file>
AV-unprocessed.smi

> <i_m_source_file_index>
1731

> <i_lp_mmshare_version>
43012

> <i_f3d_flags>
0

> <s_epik_input>
W0NIM11bQ0BASF0xW0NIMl1bQ0gyXVtDQEhdKFtDSDJdW0NIMl0xKVtOSF1DKD1PKVtOSF1jMltjSF1ubihbY0hdMilbQ0gyXUMoPU8pW05IMl0=

> <s_epik_cmdline>
J2VwaWtfcHl0aG9uJywgJy1waCcsICc3LjAnLCAnLXRuJywgJzgnLCAnLW1hJywgJzIwMCcsICctbWV0YWxfYmluZGluZycsICctaW1hZScsICc8aW5maWxlLm1hZT4nLCAnLW9tYWUnLCAnPG91dGZpbGUubWFlPic=

> <r_lp_tautomer_probability>
1

> <r_epik_Ionization_Penalty>
4.81284e-05

> <r_epik_Ionization_Penalty_Charging>
0

> <r_epik_Ionization_Penalty_Neutral>
4.81284e-05

> <r_epik_State_Penalty>
-0

> <r_epik_Charging_Adjusted_Penalty>
0

> <i_epik_Tot_Q>
0

> <i_epik_Tot_abs_Q>
0

> <r_epik_Metal_State_Penalty>
-0

> <b_epik_Metal_Only>
0

> <s_lp_Force_Field>
OPLS_2005

> <r_lp_Energy>
11.3018

> <b_lp_Chiralities_Consistent>
1

> <s_lp_Variant>
AV-unprocessed.smi:1731-2

> <Gold.Version>
5.8.1

> <Gold.Id.Protein>
6NUR|6NUR_protein|mol2

> <Gold.PLP.Fitness>
39.5064

> <Gold.PLP.PLP>
-28.9743

> <Gold.PLP.part.hbond>
-3.8424

> <Gold.PLP.part.metal>
0.0000

> <Gold.PLP.part.buried>
-0.2796

> <Gold.PLP.part.nonpolar>
-24.5593

> <Gold.PLP.part.repulsive>
0.1622

> <Gold.PLP.ligand.clash>
0.0000

> <Gold.PLP.ligand.torsion>
0.4105

> <Gold.PLP.Chemscore.Hbond>
3.7760

> <Gold.PLP.Chemscore.CHOScore>
0.0000

> <Gold.PLP.Chemscore.Metal>
0.0000

> <Gold.Chemscore.Hbonds>
donor molecule, donor type, donor heavy atom, donor atom, acceptor molecule, acceptor atom, score
      L1  H     6    30       P1  7948  0.93
      L1  H     9    31       P1  7948  1.00
      L1  H    16    36       P1  8028  0.83
      P1  H  7989  7998       L1    12  1.00

> <Gold.PLP.Chemscore.Internal.Correction>
0.0251

> <Gold.Rescore>
     Score         DG    S(hbond)    S(metal)    S(lipo)     H(rot)  DE(clash)    DE(int)     intcor
     13.25     -16.66       2.69        0.00      60.45       1.90       1.47       1.94       ----

> <Gold.Chemscore.Fitness>
13.2524

> <Gold.Chemscore.DG>
-16.6626

> <Gold.Chemscore.ZeroCoef>
-5.4800

> <Gold.Chemscore.Hbond>
2.6889

> <Gold.Chemscore.Metal>
0.0000

> <Gold.Chemscore.Lipo>
60.4529

> <Gold.Chemscore.Internal_Hbond>
0.0000

> <Gold.Chemscore.DEClash>
1.4688

> <Gold.Chemscore.DEInternal>
1.9415

> <Gold.Chemscore.Rot>
1.9029

> <Gold.Chemscore.Internal.Correction>
   9.000000E+99

> <Gold.Chemscore.Hbonds>
donor molecule, donor type, donor heavy atom, donor atom, acceptor molecule, acceptor atom, score
      L1  H     6    30       P1  7948  0.91
      L1  H     9    31       P1  7948  0.92
      L1  H    16    36       P1  8028  0.69
      P1  H  7989  7998       L1    12  0.09

> <Gold.Chemscore.Hbond.Weighted>
-8.9811

> <Gold.Chemscore.Metal.Weighted>
-0.0000

> <Gold.Chemscore.Lipo.Weighted>
-7.0730

> <Gold.Chemscore.Internal_Hbond.Weighted>
0.0000

> <Gold.Chemscore.DEClash.Weighted>
1.4688

> <Gold.Chemscore.DEInternal.Weighted>
1.9415

> <Gold.Chemscore.Rot.Weighted>
4.8714

> <Gold.Chemscore.Internal.Correction.Weighted>
   9.000000E+99

> <Gold.Protein.RotatedTorsions>
[ 6907 6896 6895 6894 ] final  114.86 input  -60.11 | X-H torsion
[ 7974 7965 7964 7962 ] final  -75.38 input  175.53 | X-H torsion
[ 8008 7997 7996 7995 ] final -156.92 input   59.86 | X-H torsion
[ 10167 10162 10161 10158 ] final   39.79 input  -65.29 | X-H torsion
[ 10718 10713 10712 10709 ] final -133.79 input   66.30 | X-H torsion
[ 10763 10752 10751 10750 ] final -144.14 input  -60.55 | X-H torsion
[ 11005 11000 10999 10996 ] final  168.79 input  -57.11 | X-H torsion

> <Gold.Protein.ActiveResidues>
 VAL166  LYS551  ARG553  GLY616  TRP617  ASP618  TYR619  PRO620  LYS621  CYS622 
 ASP623  PHE694  ASN695  SER759  ASP760  ASP761  ALA762  ILE779  LEU786  VAL792 
 PHE793  MET794  SER795  GLU796  ALA797  LYS798  CYS799  TRP800  GLU811  SER814 

> <Gold.Protein.RotatedAtoms>
  152.4777  133.8177  159.7036 H   0  0  0  0  0  0  0  0  0  0  0  0  # atno 6907 bound_to 6896
  150.8804  133.7370  159.2940 H   0  0  0  0  0  0  0  0  0  0  0  0  # atno 6908 bound_to 6896
  151.4876  135.1059  159.9847 H   0  0  0  0  0  0  0  0  0  0  0  0  # atno 6909 bound_to 6896
  145.6267  140.9349  143.1109 H   0  0  0  0  0  0  0  0  0  0  0  0  # atno 7974 bound_to 7965
  155.7246  140.0794  157.2316 H   0  0  0  0  0  0  0  0  0  0  0  0  # atno 8008 bound_to 7997
  154.4040  140.1606  156.2495 H   0  0  0  0  0  0  0  0  0  0  0  0  # atno 8009 bound_to 7997
  155.9165  140.3400  155.6142 H   0  0  0  0  0  0  0  0  0  0  0  0  # atno 8010 bound_to 7997
  140.3805  144.1985  150.6131 H   0  0  0  0  0  0  0  0  0  0  0  0  # atno 10167 bound_to 10162
  156.2486  130.7139  151.1029 H   0  0  0  0  0  0  0  0  0  0  0  0  # atno 10718 bound_to 10713
  154.8441  135.3448  154.6299 H   0  0  0  0  0  0  0  0  0  0  0  0  # atno 10763 bound_to 10752
  153.6908  135.6975  153.5095 H   0  0  0  0  0  0  0  0  0  0  0  0  # atno 10764 bound_to 10752
  153.2596  135.4327  155.0836 H   0  0  0  0  0  0  0  0  0  0  0  0  # atno 10765 bound_to 10752
  140.2909  134.7674  157.3838 H   0  0  0  0  0  0  0  0  0  0  0  0  # atno 11005 bound_to 11000
  144.7209  139.8032  143.7382 LP  0  0  0  0  0  0  0  0  0  0  0  0  # atno 17320 bound_to 7965
  146.1389  139.4441  143.0121 LP  0  0  0  0  0  0  0  0  0  0  0  0  # atno 17321 bound_to 7965
  140.4942  143.2338  151.8774 LP  0  0  0  0  0  0  0  0  0  0  0  0  # atno 17342 bound_to 10162
  139.4796  144.5132  151.8904 LP  0  0  0  0  0  0  0  0  0  0  0  0  # atno 17343 bound_to 10162
  157.7205  131.0684  150.6154 LP  0  0  0  0  0  0  0  0  0  0  0  0  # atno 17370 bound_to 10713
  156.6232  130.4411  149.5814 LP  0  0  0  0  0  0  0  0  0  0  0  0  # atno 17371 bound_to 10713
  140.1196  134.5237  155.8195 LP  0  0  0  0  0  0  0  0  0  0  0  0  # atno 17394 bound_to 11000
  141.2146  133.6752  156.6841 LP  0  0  0  0  0  0  0  0  0  0  0  0  # atno 17395 bound_to 11000

$$$$
