AV-unprocessed.smi:2721|AV-procd|sdf|10503|dock10
  -GOLD-   2272014543D 1   1.00000     0.00000
 Structure written by MMmdl.
 29 30  0  0  0  0  0  0  0  0  2 V2000
  148.6357  141.1012  154.3589 C   0  0  0  0  0  0  0  0  0  0  0  0
  149.7774  141.1197  155.2481 N   0  0  0  0  0  0  0  0  0  0  0  0
  150.0532  141.9944  156.2767 C   0  0  0  0  0  0  0  0  0  0  0  0
  151.2424  141.6126  156.8328 C   0  0  0  0  0  0  0  0  0  0  0  0
  152.0004  142.2454  157.9705 C   0  0  2  0  0  0  0  0  0  0  0  0
  152.0123  141.3660  159.0937 O   0  0  0  0  0  0  0  0  0  0  0  0
  152.7898  141.8348  160.1902 C   0  0  0  0  0  0  0  0  0  0  0  0
  152.1935  143.1447  160.7236 C   0  0  0  0  0  0  0  0  0  0  0  0
  152.1119  144.1831  159.6010 C   0  0  0  0  0  0  0  0  0  0  0  0
  151.3672  143.5943  158.3931 C   0  0  1  0  0  0  0  0  0  0  0  0
  151.3573  144.5617  157.2791 N   0  3  0  0  0  0  0  0  0  0  0  0
  151.6177  140.4773  156.0588 C   0  0  0  0  0  0  0  0  0  0  0  0
  150.7412  140.1861  155.1127 N   0  0  0  0  0  0  0  0  0  0  0  0
  153.0353  142.4159  157.6673 H   0  0  0  0  0  0  0  0  0  0  0  0
  150.3284  143.4204  158.6785 H   0  0  0  0  0  0  0  0  0  0  0  0
  148.0655  142.0247  154.4636 H   0  0  0  0  0  0  0  0  0  0  0  0
  147.9921  140.2562  154.6051 H   0  0  0  0  0  0  0  0  0  0  0  0
  148.9701  141.0080  153.3251 H   0  0  0  0  0  0  0  0  0  0  0  0
  149.3889  142.8093  156.5257 H   0  0  0  0  0  0  0  0  0  0  0  0
  152.7872  141.0761  160.9728 H   0  0  0  0  0  0  0  0  0  0  0  0
  153.8279  141.9727  159.8841 H   0  0  0  0  0  0  0  0  0  0  0  0
  151.1966  142.9555  161.1243 H   0  0  0  0  0  0  0  0  0  0  0  0
  152.7956  143.5261  161.5488 H   0  0  0  0  0  0  0  0  0  0  0  0
  151.6108  145.0828  159.9602 H   0  0  0  0  0  0  0  0  0  0  0  0
  153.1205  144.4804  159.3094 H   0  0  0  0  0  0  0  0  0  0  0  0
  151.4129  145.5015  157.6451 H   0  0  0  0  0  0  0  0  0  0  0  0
  150.5044  144.4571  156.7485 H   0  0  0  0  0  0  0  0  0  0  0  0
  152.5004  139.8624  156.1539 H   0  0  0  0  0  0  0  0  0  0  0  0
  152.1499  144.3880  156.6772 H   0  0  0  0  0  0  0  0  0  0  0  0
  1  2  1  0  0  0  0
  1 16  1  0  0  0  0
  1 17  1  0  0  0  0
  1 18  1  0  0  0  0
  2 13  1  0  0  0  0
  2  3  1  0  0  0  0
  3  4  2  0  0  0  0
  3 19  1  0  0  0  0
  4  5  1  0  0  0  0
  4 12  1  0  0  0  0
  5 14  1  0  0  0  0
  5 10  1  0  0  0  0
  5  6  1  0  0  0  0
  6  7  1  0  0  0  0
  7  8  1  0  0  0  0
  7 20  1  0  0  0  0
  7 21  1  0  0  0  0
  8  9  1  0  0  0  0
  8 22  1  0  0  0  0
  8 23  1  0  0  0  0
  9 10  1  0  0  0  0
  9 24  1  0  0  0  0
  9 25  1  0  0  0  0
 10 15  1  0  0  0  0
 10 11  1  0  0  0  0
 11 26  1  0  0  0  0
 11 27  1  0  0  0  0
 11 29  1  0  0  0  0
 12 13  2  0  0  0  0
 12 28  1  0  0  0  0
M  CHG  1  11   1
M  END
> <s_m_source_file>
AV-unprocessed.smi

> <i_m_source_file_index>
2721

> <i_lp_mmshare_version>
43012

> <i_f3d_flags>
0

> <s_epik_input>
W0NIM11uMVtjSF1jKFtjSF1uMSlbQ0BIXTJPW0NIMl1bQ0gyXVtDSDJdW0NAQEhdMltOSDJd

> <s_epik_cmdline>
J2VwaWtfcHl0aG9uJywgJy1waCcsICc3LjAnLCAnLXRuJywgJzgnLCAnLW1hJywgJzIwMCcsICctbWV0YWxfYmluZGluZycsICctaW1hZScsICc8aW5maWxlLm1hZT4nLCAnLW9tYWUnLCAnPG91dGZpbGUubWFlPic=

> <r_lp_tautomer_probability>
1

> <r_epik_Ionization_Penalty>
0.0061467

> <r_epik_Ionization_Penalty_Charging>
0.00611941

> <r_epik_Ionization_Penalty_Neutral>
2.72888e-05

> <r_epik_State_Penalty>
0.00451057

> <r_epik_Charging_Adjusted_Penalty>
0.01063

> <i_epik_Tot_Q>
1

> <i_epik_Tot_abs_Q>
1

> <r_epik_Metal_State_Penalty>
-0

> <b_epik_Metal_Only>
0

> <s_lp_Force_Field>
OPLS_2005

> <r_lp_Energy>
11.0235

> <b_lp_Chiralities_Consistent>
1

> <s_lp_Variant>
AV-unprocessed.smi:2721-4

> <Gold.Version>
5.8.1

> <Gold.Id.Protein>
6NUR|6NUR_protein|mol2

> <Gold.PLP.Fitness>
41.0899

> <Gold.PLP.PLP>
-29.3436

> <Gold.PLP.part.hbond>
-2.0000

> <Gold.PLP.part.metal>
0.0000

> <Gold.PLP.part.buried>
-2.3170

> <Gold.PLP.part.nonpolar>
-24.9057

> <Gold.PLP.part.repulsive>
0.1069

> <Gold.PLP.ligand.clash>
0.0000

> <Gold.PLP.ligand.torsion>
0.1287

> <Gold.PLP.Chemscore.Hbond>
3.0000

> <Gold.PLP.Chemscore.CHOScore>
1.0000

> <Gold.PLP.Chemscore.Metal>
0.0000

> <Gold.Chemscore.Hbonds>
donor molecule, donor type, donor heavy atom, donor atom, acceptor molecule, acceptor atom, score
      L1  H    11    27       P1  8028  2.00
      P1  H  7989  7998       L1    13  0.95
      L1  C     3    19       P1  8028  1.00

> <Gold.PLP.Chemscore.Internal.Correction>
0.0037

> <Gold.Rescore>
     Score         DG    S(hbond)    S(metal)    S(lipo)     H(rot)  DE(clash)    DE(int)     intcor
     15.72     -16.82       1.35        0.00      80.18       1.00       0.69       0.41       ----

> <Gold.Chemscore.Fitness>
15.7246

> <Gold.Chemscore.DG>
-16.8220

> <Gold.Chemscore.ZeroCoef>
-5.4800

> <Gold.Chemscore.Hbond>
1.3537

> <Gold.Chemscore.Metal>
0.0000

> <Gold.Chemscore.Lipo>
80.1758

> <Gold.Chemscore.Internal_Hbond>
0.0000

> <Gold.Chemscore.DEClash>
0.6902

> <Gold.Chemscore.DEInternal>
0.4072

> <Gold.Chemscore.Rot>
1.0000

> <Gold.Chemscore.Internal.Correction>
   9.000000E+99

> <Gold.Chemscore.Hbonds>
donor molecule, donor type, donor heavy atom, donor atom, acceptor molecule, acceptor atom, score
      L1  H    11    27       P1  8028  0.95
      P1  H  7989  7998       L1    13  0.07

> <Gold.Chemscore.Hbond.Weighted>
-4.5214

> <Gold.Chemscore.Metal.Weighted>
-0.0000

> <Gold.Chemscore.Lipo.Weighted>
-9.3806

> <Gold.Chemscore.Internal_Hbond.Weighted>
0.0000

> <Gold.Chemscore.DEClash.Weighted>
0.6902

> <Gold.Chemscore.DEInternal.Weighted>
0.4072

> <Gold.Chemscore.Rot.Weighted>
2.5600

> <Gold.Chemscore.Internal.Correction.Weighted>
   9.000000E+99

> <Gold.Protein.RotatedTorsions>
[ 6907 6896 6895 6894 ] final  -96.53 input  -60.11 | X-H torsion
[ 7974 7965 7964 7962 ] final  157.27 input  175.53 | X-H torsion
[ 8008 7997 7996 7995 ] final  -26.11 input   59.86 | X-H torsion
[ 10167 10162 10161 10158 ] final   21.28 input  -65.29 | X-H torsion
[ 10718 10713 10712 10709 ] final  125.76 input   66.30 | X-H torsion
[ 10763 10752 10751 10750 ] final   79.28 input  -60.55 | X-H torsion
[ 11005 11000 10999 10996 ] final  -50.58 input  -57.11 | X-H torsion

> <Gold.Protein.ActiveResidues>
 VAL166  LYS551  ARG553  GLY616  TRP617  ASP618  TYR619  PRO620  LYS621  CYS622 
 ASP623  PHE694  ASN695  SER759  ASP760  ASP761  ALA762  ILE779  LEU786  VAL792 
 PHE793  MET794  SER795  GLU796  ALA797  LYS798  CYS799  TRP800  GLU811  SER814 

> <Gold.Protein.RotatedAtoms>
  150.6991  134.1489  159.4132 H   0  0  0  0  0  0  0  0  0  0  0  0  # atno 6907 bound_to 6896
  151.9472  135.0184  160.0549 H   0  0  0  0  0  0  0  0  0  0  0  0  # atno 6908 bound_to 6896
  152.2043  133.4828  159.5112 H   0  0  0  0  0  0  0  0  0  0  0  0  # atno 6909 bound_to 6896
  144.7913  139.7318  143.6220 H   0  0  0  0  0  0  0  0  0  0  0  0  # atno 7974 bound_to 7965
  154.4442  140.1908  156.0724 H   0  0  0  0  0  0  0  0  0  0  0  0  # atno 8008 bound_to 7997
  156.0501  140.3309  155.7315 H   0  0  0  0  0  0  0  0  0  0  0  0  # atno 8009 bound_to 7997
  155.5570  140.0600  157.2828 H   0  0  0  0  0  0  0  0  0  0  0  0  # atno 8010 bound_to 7997
  140.5438  143.9630  150.6535 H   0  0  0  0  0  0  0  0  0  0  0  0  # atno 10167 bound_to 10162
  157.5476  131.1095  150.8756 H   0  0  0  0  0  0  0  0  0  0  0  0  # atno 10718 bound_to 10713
  153.0940  135.4846  154.8743 H   0  0  0  0  0  0  0  0  0  0  0  0  # atno 10763 bound_to 10752
  154.7302  135.3058  154.8905 H   0  0  0  0  0  0  0  0  0  0  0  0  # atno 10764 bound_to 10752
  153.9543  135.6819  153.4797 H   0  0  0  0  0  0  0  0  0  0  0  0  # atno 10765 bound_to 10752
  141.0823  133.6650  156.3751 H   0  0  0  0  0  0  0  0  0  0  0  0  # atno 11005 bound_to 11000
  146.2166  139.5560  142.9646 LP  0  0  0  0  0  0  0  0  0  0  0  0  # atno 17320 bound_to 7965
  145.5787  141.0385  143.2134 LP  0  0  0  0  0  0  0  0  0  0  0  0  # atno 17321 bound_to 7965
  140.3037  143.3243  152.0946 LP  0  0  0  0  0  0  0  0  0  0  0  0  # atno 17342 bound_to 10162
  139.4999  144.6680  151.6310 LP  0  0  0  0  0  0  0  0  0  0  0  0  # atno 17343 bound_to 10162
  156.9290  130.5343  149.5279 LP  0  0  0  0  0  0  0  0  0  0  0  0  # atno 17370 bound_to 10713
  156.0549  130.5612  150.9069 LP  0  0  0  0  0  0  0  0  0  0  0  0  # atno 17371 bound_to 10713
  140.5440  134.6093  157.5388 LP  0  0  0  0  0  0  0  0  0  0  0  0  # atno 17394 bound_to 11000
  139.9638  134.7407  156.0180 LP  0  0  0  0  0  0  0  0  0  0  0  0  # atno 17395 bound_to 11000

$$$$
