AV-unprocessed.smi:3350|AV-procd|sdf|12945|dock2
  -GOLD-   2272019383D 1   1.00000     0.00000
 Structure written by MMmdl.
 41 42  0  0  0  0  0  0  0  0  1 V2000
  150.0271  132.8076  155.4564 C   0  0  0  0  0  0  0  0  0  0  0  0
  148.9334  133.3721  154.5398 C   0  0  2  0  0  0  0  0  0  0  0  0
  148.6842  132.4474  153.3282 C   0  0  0  0  0  0  0  0  0  0  0  0
  147.3917  132.6687  152.7038 N   0  0  0  0  0  0  0  0  0  0  0  0
  146.9064  133.8213  152.1228 C   0  0  0  0  0  0  0  0  0  0  0  0
  145.6408  133.5547  151.6859 C   0  0  0  0  0  0  0  0  0  0  0  0
  145.4409  132.1920  152.0427 C   0  0  0  0  0  0  0  0  0  0  0  0
  146.4926  131.6627  152.6465 N   0  0  0  0  0  0  0  0  0  0  0  0
  149.3270  134.7110  154.1016 N   0  0  0  0  0  0  0  0  0  0  0  0
  149.8122  135.6798  154.8916 C   0  0  0  0  0  0  0  0  0  0  0  0
  150.0062  135.5538  156.1006 O   0  0  0  0  0  0  0  0  0  0  0  0
  150.0385  136.8098  154.2064 N   0  0  0  0  0  0  0  0  0  0  0  0
  150.5315  138.0657  154.7702 C   0  0  1  0  0  0  0  0  0  0  0  0
  152.0605  138.1028  154.6318 C   0  0  0  0  0  0  0  0  0  0  0  0
  149.8628  139.2722  154.0772 C   0  0  1  0  0  0  0  0  0  0  0  0
  148.3523  139.3938  154.2972 C   0  0  0  0  0  0  0  0  0  0  0  0
  148.1268  140.8742  154.1010 C   0  0  0  0  0  0  0  0  0  0  0  0
  149.3689  141.4597  154.7626 C   0  0  0  0  0  0  0  0  0  0  0  0
  150.4019  140.4964  154.5742 O   0  0  0  0  0  0  0  0  0  0  0  0
  149.7541  131.8197  155.8290 H   0  0  0  0  0  0  0  0  0  0  0  0
  150.1857  133.4517  156.3219 H   0  0  0  0  0  0  0  0  0  0  0  0
  150.9780  132.7137  154.9307 H   0  0  0  0  0  0  0  0  0  0  0  0
  148.0185  133.4307  155.1325 H   0  0  0  0  0  0  0  0  0  0  0  0
  149.4635  132.5828  152.5769 H   0  0  0  0  0  0  0  0  0  0  0  0
  148.7316  131.4024  153.6381 H   0  0  0  0  0  0  0  0  0  0  0  0
  147.4920  134.7277  152.0781 H   0  0  0  0  0  0  0  0  0  0  0  0
  144.9608  134.2306  151.1892 H   0  0  0  0  0  0  0  0  0  0  0  0
  144.5691  131.5753  151.8813 H   0  0  0  0  0  0  0  0  0  0  0  0
  149.2067  134.9186  153.1212 H   0  0  0  0  0  0  0  0  0  0  0  0
  149.8442  136.8073  153.2159 H   0  0  0  0  0  0  0  0  0  0  0  0
  150.2982  138.1078  155.8357 H   0  0  0  0  0  0  0  0  0  0  0  0
  152.4748  139.0081  155.0762 H   0  0  0  0  0  0  0  0  0  0  0  0
  152.3667  138.0769  153.5855 H   0  0  0  0  0  0  0  0  0  0  0  0
  152.5206  137.2522  155.1355 H   0  0  0  0  0  0  0  0  0  0  0  0
  150.0578  139.2417  153.0038 H   0  0  0  0  0  0  0  0  0  0  0  0
  147.7725  138.7801  153.6080 H   0  0  0  0  0  0  0  0  0  0  0  0
  148.0848  139.1113  155.3164 H   0  0  0  0  0  0  0  0  0  0  0  0
  148.1149  141.1146  153.0370 H   0  0  0  0  0  0  0  0  0  0  0  0
  147.1972  141.2304  154.5456 H   0  0  0  0  0  0  0  0  0  0  0  0
  149.6456  142.4286  154.3468 H   0  0  0  0  0  0  0  0  0  0  0  0
  149.2056  141.5840  155.8335 H   0  0  0  0  0  0  0  0  0  0  0  0
  1  2  1  0  0  0  0
  1 20  1  0  0  0  0
  1 21  1  0  0  0  0
  1 22  1  0  0  0  0
  2  3  1  0  0  0  0
  2  9  1  0  0  0  0
  2 23  1  0  0  0  0
  3  4  1  0  0  0  0
  3 24  1  0  0  0  0
  3 25  1  0  0  0  0
  4  8  1  0  0  0  0
  4  5  1  0  0  0  0
  5  6  2  0  0  0  0
  5 26  1  0  0  0  0
  6  7  1  0  0  0  0
  6 27  1  0  0  0  0
  7  8  2  0  0  0  0
  7 28  1  0  0  0  0
  9 10  1  0  0  0  0
  9 29  1  0  0  0  0
 10 11  2  0  0  0  0
 10 12  1  0  0  0  0
 12 13  1  0  0  0  0
 12 30  1  0  0  0  0
 13 14  1  0  0  0  0
 13 15  1  0  0  0  0
 13 31  1  0  0  0  0
 14 32  1  0  0  0  0
 14 33  1  0  0  0  0
 14 34  1  0  0  0  0
 15 19  1  0  0  0  0
 15 16  1  0  0  0  0
 15 35  1  0  0  0  0
 16 17  1  0  0  0  0
 16 36  1  0  0  0  0
 16 37  1  0  0  0  0
 17 18  1  0  0  0  0
 17 38  1  0  0  0  0
 17 39  1  0  0  0  0
 18 19  1  0  0  0  0
 18 40  1  0  0  0  0
 18 41  1  0  0  0  0
M  END
> <s_m_source_file>
AV-unprocessed.smi

> <i_m_source_file_index>
3350

> <i_lp_mmshare_version>
43012

> <i_f3d_flags>
0

> <s_epik_input>
bjFbY0hdW2NIXVtjSF1uMVtDSDJdW0NAQEhdKFtDSDNdKVtOSF1DKD1PKVtOSF1bQ0BIXShbQ0gzXSlbQ0BASF0yW0NIMl1bQ0gyXVtDSDJdTzI=

> <s_epik_cmdline>
J2VwaWtfcHl0aG9uJywgJy1waCcsICc3LjAnLCAnLXRuJywgJzgnLCAnLW1hJywgJzIwMCcsICctbWV0YWxfYmluZGluZycsICctaW1hZScsICc8aW5maWxlLm1hZT4nLCAnLW9tYWUnLCAnPG91dGZpbGUubWFlPic=

> <r_lp_tautomer_probability>
1

> <r_epik_Ionization_Penalty>
6.42349e-05

> <r_epik_Ionization_Penalty_Charging>
0

> <r_epik_Ionization_Penalty_Neutral>
6.42349e-05

> <r_epik_State_Penalty>
-0

> <r_epik_Charging_Adjusted_Penalty>
0

> <i_epik_Tot_Q>
0

> <i_epik_Tot_abs_Q>
0

> <r_epik_Metal_State_Penalty>
-0

> <b_epik_Metal_Only>
0

> <s_lp_Force_Field>
OPLS_2005

> <r_lp_Energy>
14.6241

> <b_lp_Chiralities_Consistent>
1

> <s_lp_Variant>
AV-unprocessed.smi:3350-7

> <Gold.Version>
5.8.1

> <Gold.Id.Protein>
6NUR|6NUR_protein|mol2

> <Gold.PLP.Fitness>
43.6163

> <Gold.PLP.PLP>
-34.2894

> <Gold.PLP.part.hbond>
-3.8809

> <Gold.PLP.part.metal>
0.0000

> <Gold.PLP.part.buried>
-0.4187

> <Gold.PLP.part.nonpolar>
-30.3971

> <Gold.PLP.part.repulsive>
0.3471

> <Gold.PLP.ligand.clash>
0.0000

> <Gold.PLP.ligand.torsion>
0.6895

> <Gold.PLP.Chemscore.Hbond>
2.5584

> <Gold.PLP.Chemscore.CHOScore>
1.0000

> <Gold.PLP.Chemscore.Metal>
0.0000

> <Gold.Chemscore.Hbonds>
donor molecule, donor type, donor heavy atom, donor atom, acceptor molecule, acceptor atom, score
      L1  H     9    29       P1  7948  0.52
      L1  H    12    30       P1  7948  1.00
      P1  H  7989  7998       L1    19  0.99
      L1  C     5    26       P1  7948  1.00

> <Gold.PLP.Chemscore.Internal.Correction>
0.0306

> <Gold.Rescore>
     Score         DG    S(hbond)    S(metal)    S(lipo)     H(rot)  DE(clash)    DE(int)     intcor
     13.52     -15.61       2.15        0.00      64.86       1.82       0.09       1.99       ----

> <Gold.Chemscore.Fitness>
13.5244

> <Gold.Chemscore.DG>
-15.6058

> <Gold.Chemscore.ZeroCoef>
-5.4800

> <Gold.Chemscore.Hbond>
2.1545

> <Gold.Chemscore.Metal>
0.0000

> <Gold.Chemscore.Lipo>
64.8555

> <Gold.Chemscore.Internal_Hbond>
0.0000

> <Gold.Chemscore.DEClash>
0.0905

> <Gold.Chemscore.DEInternal>
1.9908

> <Gold.Chemscore.Rot>
1.8197

> <Gold.Chemscore.Internal.Correction>
   9.000000E+99

> <Gold.Chemscore.Hbonds>
donor molecule, donor type, donor heavy atom, donor atom, acceptor molecule, acceptor atom, score
      L1  H     9    29       P1  7948  0.03
      L1  H    12    30       P1  7948  0.25
      P1  H  7989  7998       L1    19  0.39

> <Gold.Chemscore.Hbond.Weighted>
-7.1960

> <Gold.Chemscore.Metal.Weighted>
-0.0000

> <Gold.Chemscore.Lipo.Weighted>
-7.5881

> <Gold.Chemscore.Internal_Hbond.Weighted>
0.0000

> <Gold.Chemscore.DEClash.Weighted>
0.0905

> <Gold.Chemscore.DEInternal.Weighted>
1.9908

> <Gold.Chemscore.Rot.Weighted>
4.6583

> <Gold.Chemscore.Internal.Correction.Weighted>
   9.000000E+99

> <Gold.Protein.RotatedTorsions>
[ 6907 6896 6895 6894 ] final  128.77 input  -60.11 | X-H torsion
[ 7974 7965 7964 7962 ] final    1.97 input  175.53 | X-H torsion
[ 8008 7997 7996 7995 ] final   26.41 input   59.86 | X-H torsion
[ 10167 10162 10161 10158 ] final  162.32 input  -65.29 | X-H torsion
[ 10718 10713 10712 10709 ] final  -54.02 input   66.30 | X-H torsion
[ 10763 10752 10751 10750 ] final   66.65 input  -60.55 | X-H torsion
[ 11005 11000 10999 10996 ] final   53.10 input  -57.11 | X-H torsion

> <Gold.Protein.ActiveResidues>
 VAL166  LYS551  ARG553  GLY616  TRP617  ASP618  TYR619  PRO620  LYS621  CYS622 
 ASP623  PHE694  ASN695  SER759  ASP760  ASP761  ALA762  ILE779  LEU786  VAL792 
 PHE793  MET794  SER795  GLU796  ALA797  LYS798  CYS799  TRP800  GLU811  SER814 

> <Gold.Protein.RotatedAtoms>
  152.3688  133.6392  159.6070 H   0  0  0  0  0  0  0  0  0  0  0  0  # atno 6907 bound_to 6896
  150.7653  133.9304  159.3434 H   0  0  0  0  0  0  0  0  0  0  0  0  # atno 6908 bound_to 6896
  151.7130  135.0910  160.0322 H   0  0  0  0  0  0  0  0  0  0  0  0  # atno 6909 bound_to 6896
  146.2442  140.0907  142.8352 H   0  0  0  0  0  0  0  0  0  0  0  0  # atno 7974 bound_to 7965
  155.0268  140.3154  155.4773 H   0  0  0  0  0  0  0  0  0  0  0  0  # atno 8008 bound_to 7997
  156.2881  140.2187  156.5331 H   0  0  0  0  0  0  0  0  0  0  0  0  # atno 8009 bound_to 7997
  154.7404  140.0474  157.0794 H   0  0  0  0  0  0  0  0  0  0  0  0  # atno 8010 bound_to 7997
  139.4859  144.4449  151.8905 H   0  0  0  0  0  0  0  0  0  0  0  0  # atno 10167 bound_to 10162
  156.1485  130.4152  149.9983 H   0  0  0  0  0  0  0  0  0  0  0  0  # atno 10718 bound_to 10713
  153.0149  135.5313  154.6856 H   0  0  0  0  0  0  0  0  0  0  0  0  # atno 10763 bound_to 10752
  154.6004  135.2868  155.0543 H   0  0  0  0  0  0  0  0  0  0  0  0  # atno 10764 bound_to 10752
  154.1602  135.6549  153.5036 H   0  0  0  0  0  0  0  0  0  0  0  0  # atno 10765 bound_to 10752
  140.0795  134.5358  155.8961 H   0  0  0  0  0  0  0  0  0  0  0  0  # atno 11005 bound_to 11000
  145.0653  140.9117  143.4914 LP  0  0  0  0  0  0  0  0  0  0  0  0  # atno 17320 bound_to 7965
  145.1030  139.2809  143.5676 LP  0  0  0  0  0  0  0  0  0  0  0  0  # atno 17321 bound_to 7965
  140.3903  144.2624  150.5900 LP  0  0  0  0  0  0  0  0  0  0  0  0  # atno 17342 bound_to 10162
  140.5152  143.2280  151.8473 LP  0  0  0  0  0  0  0  0  0  0  0  0  # atno 17343 bound_to 10162
  156.7848  130.9234  151.3646 LP  0  0  0  0  0  0  0  0  0  0  0  0  # atno 17370 bound_to 10713
  157.6637  130.8989  149.9886 LP  0  0  0  0  0  0  0  0  0  0  0  0  # atno 17371 bound_to 10713
  141.2041  133.6637  156.6104 LP  0  0  0  0  0  0  0  0  0  0  0  0  # atno 17394 bound_to 11000
  140.3509  134.7770  157.4466 LP  0  0  0  0  0  0  0  0  0  0  0  0  # atno 17395 bound_to 11000

$$$$
