AV-unprocessed.smi:1538|AV-procd|sdf|6193|dock1
  -GOLD-   22720 6363D 1   1.00000     0.00000
 Structure written by MMmdl.
 37 38  0  0  0  0  0  0  0  0  2 V2000
  151.9851  145.8543  159.9583 C   0  0  0  0  0  0  0  0  0  0  0  0
  152.2005  144.4365  159.6656 N   0  0  0  0  0  0  0  0  0  0  0  0
  152.2311  144.0977  158.2359 C   0  0  0  0  0  0  0  0  0  0  0  0
  152.0348  142.6025  157.9545 C   0  0  0  0  0  0  0  0  0  0  0  0
  152.9461  141.7721  158.8671 C   0  0  2  0  0  0  0  0  0  0  0  0
  152.8115  140.2761  158.5502 C   0  0  0  0  0  0  0  0  0  0  0  0
  153.8115  139.5936  158.3249 O   0  0  0  0  0  0  0  0  0  0  0  0
  151.5680  139.7746  158.5411 N   0  0  0  0  0  0  0  0  0  0  0  0
  151.2498  138.3794  158.2730 C   0  0  0  0  0  0  0  0  0  0  0  0
  152.0587  137.8585  157.0777 C   0  0  0  0  0  0  0  0  0  0  0  0
  151.3544  138.0775  155.8128 N   0  0  0  0  0  0  0  0  0  0  0  0
  151.0458  139.2807  155.2317 C   0  0  0  0  0  0  0  0  0  0  0  0
  150.3938  138.9927  154.0603 C   0  0  0  0  0  0  0  0  0  0  0  0
  150.3319  137.6274  153.9763 N   0  3  0  0  0  0  0  0  0  0  0  0
  150.9177  137.0725  155.0426 C   0  0  0  0  0  0  0  0  0  0  0  0
  152.6023  142.0613  160.3422 C   0  0  0  0  0  0  0  0  0  0  0  0
  152.4179  143.5527  160.6698 C   0  0  0  0  0  0  0  0  0  0  0  0
  152.4454  143.8918  161.8533 O   0  0  0  0  0  0  0  0  0  0  0  0
  152.7723  146.2452  160.6050 H   0  0  0  0  0  0  0  0  0  0  0  0
  151.0278  145.9958  160.4613 H   0  0  0  0  0  0  0  0  0  0  0  0
  151.9792  146.4644  159.0542 H   0  0  0  0  0  0  0  0  0  0  0  0
  151.4665  144.6625  157.7006 H   0  0  0  0  0  0  0  0  0  0  0  0
  153.1936  144.4198  157.8362 H   0  0  0  0  0  0  0  0  0  0  0  0
  150.9897  142.3371  158.1234 H   0  0  0  0  0  0  0  0  0  0  0  0
  152.2427  142.3947  156.9041 H   0  0  0  0  0  0  0  0  0  0  0  0
  153.9800  142.0733  158.6875 H   0  0  0  0  0  0  0  0  0  0  0  0
  150.7980  140.3983  158.7356 H   0  0  0  0  0  0  0  0  0  0  0  0
  151.4655  137.7823  159.1607 H   0  0  0  0  0  0  0  0  0  0  0  0
  150.1812  138.2858  158.0723 H   0  0  0  0  0  0  0  0  0  0  0  0
  153.0307  138.3513  157.0206 H   0  0  0  0  0  0  0  0  0  0  0  0
  152.2449  136.7880  157.1741 H   0  0  0  0  0  0  0  0  0  0  0  0
  151.3076  140.2273  155.6820 H   0  0  0  0  0  0  0  0  0  0  0  0
  149.9810  139.6401  153.3002 H   0  0  0  0  0  0  0  0  0  0  0  0
  151.0183  136.0200  155.2409 H   0  0  0  0  0  0  0  0  0  0  0  0
  151.6756  141.5587  160.6242 H   0  0  0  0  0  0  0  0  0  0  0  0
  153.3817  141.6543  160.9881 H   0  0  0  0  0  0  0  0  0  0  0  0
  149.9061  137.1100  153.2174 H   0  0  0  0  0  0  0  0  0  0  0  0
  1  2  1  0  0  0  0
  1 19  1  0  0  0  0
  1 20  1  0  0  0  0
  1 21  1  0  0  0  0
  2 17  1  0  0  0  0
  2  3  1  0  0  0  0
  3  4  1  0  0  0  0
  3 22  1  0  0  0  0
  3 23  1  0  0  0  0
  4  5  1  0  0  0  0
  4 24  1  0  0  0  0
  4 25  1  0  0  0  0
  5  6  1  0  0  0  0
  5 16  1  0  0  0  0
  5 26  1  0  0  0  0
  6  7  2  0  0  0  0
  6  8  1  0  0  0  0
  8  9  1  0  0  0  0
  8 27  1  0  0  0  0
  9 10  1  0  0  0  0
  9 28  1  0  0  0  0
  9 29  1  0  0  0  0
 10 11  1  0  0  0  0
 10 30  1  0  0  0  0
 10 31  1  0  0  0  0
 11 15  1  0  0  0  0
 11 12  1  0  0  0  0
 12 13  2  0  0  0  0
 12 32  1  0  0  0  0
 13 14  1  0  0  0  0
 13 33  1  0  0  0  0
 14 15  2  0  0  0  0
 14 37  1  0  0  0  0
 15 34  1  0  0  0  0
 16 17  1  0  0  0  0
 16 35  1  0  0  0  0
 16 36  1  0  0  0  0
 17 18  2  0  0  0  0
M  CHG  1  14   1
M  END
> <s_m_source_file>
AV-unprocessed.smi

> <i_m_source_file_index>
1538

> <i_lp_mmshare_version>
43012

> <i_f3d_flags>
0

> <s_epik_input>
W0NIM11OMVtDSDJdW0NIMl1bQ0BIXShbQ0gyXUMxPU8pQyg9TylbTkhdW0NIMl1bQ0gyXW4yW2NIXVtjSF1uW2NIXTI=

> <s_epik_cmdline>
J2VwaWtfcHl0aG9uJywgJy1waCcsICc3LjAnLCAnLXRuJywgJzgnLCAnLW1hJywgJzIwMCcsICctbWV0YWxfYmluZGluZycsICctaW1hZScsICc8aW5maWxlLm1hZT4nLCAnLW9tYWUnLCAnPG91dGZpbGUubWFlPic=

> <r_lp_tautomer_probability>
1

> <r_epik_Ionization_Penalty>
0.272873

> <r_epik_Ionization_Penalty_Charging>
0

> <r_epik_Ionization_Penalty_Neutral>
0.272873

> <r_epik_State_Penalty>
0.265096

> <r_epik_Charging_Adjusted_Penalty>
0.265096

> <i_epik_Tot_Q>
1

> <i_epik_Tot_abs_Q>
1

> <r_epik_Metal_State_Penalty>
0.549113

> <b_epik_Metal_Only>
0

> <s_lp_Force_Field>
OPLS_2005

> <r_lp_Energy>
17.9959

> <b_lp_Chiralities_Consistent>
1

> <s_lp_Variant>
AV-unprocessed.smi:1538-2

> <Gold.Version>
5.8.1

> <Gold.Id.Protein>
6NUR|6NUR_protein|mol2

> <Gold.PLP.Fitness>
47.5266

> <Gold.PLP.PLP>
-39.4127

> <Gold.PLP.part.hbond>
-2.7552

> <Gold.PLP.part.metal>
0.0000

> <Gold.PLP.part.buried>
-3.9838

> <Gold.PLP.part.nonpolar>
-30.9863

> <Gold.PLP.part.repulsive>
0.3624

> <Gold.PLP.ligand.clash>
0.0000

> <Gold.PLP.ligand.torsion>
0.4572

> <Gold.PLP.Chemscore.Hbond>
3.0000

> <Gold.PLP.Chemscore.CHOScore>
0.0000

> <Gold.PLP.Chemscore.Metal>
0.0000

> <Gold.Chemscore.Hbonds>
donor molecule, donor type, donor heavy atom, donor atom, acceptor molecule, acceptor atom, score
      L1  H    14    37       P1  7948  2.00
      P1  H  7997  8009       L1     7  1.00

> <Gold.PLP.Chemscore.Internal.Correction>
0.0283

> <Gold.Rescore>
     Score         DG    S(hbond)    S(metal)    S(lipo)     H(rot)  DE(clash)    DE(int)     intcor
     13.92     -15.65       1.93        0.00      76.69       2.05       0.12       1.61       ----

> <Gold.Chemscore.Fitness>
13.9198

> <Gold.Chemscore.DG>
-15.6507

> <Gold.Chemscore.ZeroCoef>
-5.4800

> <Gold.Chemscore.Hbond>
1.9284

> <Gold.Chemscore.Metal>
0.0000

> <Gold.Chemscore.Lipo>
76.6863

> <Gold.Chemscore.Internal_Hbond>
0.0000

> <Gold.Chemscore.DEClash>
0.1240

> <Gold.Chemscore.DEInternal>
1.6069

> <Gold.Chemscore.Rot>
2.0478

> <Gold.Chemscore.Internal.Correction>
   9.000000E+99

> <Gold.Chemscore.Hbonds>
donor molecule, donor type, donor heavy atom, donor atom, acceptor molecule, acceptor atom, score
      L1  H    14    37       P1  7948  0.30
      P1  H  7997  8009       L1     7  0.93

> <Gold.Chemscore.Hbond.Weighted>
-6.4407

> <Gold.Chemscore.Metal.Weighted>
-0.0000

> <Gold.Chemscore.Lipo.Weighted>
-8.9723

> <Gold.Chemscore.Internal_Hbond.Weighted>
0.0000

> <Gold.Chemscore.DEClash.Weighted>
0.1240

> <Gold.Chemscore.DEInternal.Weighted>
1.6069

> <Gold.Chemscore.Rot.Weighted>
5.2423

> <Gold.Chemscore.Internal.Correction.Weighted>
   9.000000E+99

> <Gold.Protein.RotatedTorsions>
[ 6907 6896 6895 6894 ] final  133.21 input  -60.11 | X-H torsion
[ 7974 7965 7964 7962 ] final  -31.95 input  175.53 | X-H torsion
[ 8008 7997 7996 7995 ] final  126.01 input   59.86 | X-H torsion
[ 10167 10162 10161 10158 ] final  128.60 input  -65.29 | X-H torsion
[ 10718 10713 10712 10709 ] final   92.24 input   66.30 | X-H torsion
[ 10763 10752 10751 10750 ] final  -54.17 input  -60.55 | X-H torsion
[ 11005 11000 10999 10996 ] final  100.33 input  -57.11 | X-H torsion

> <Gold.Protein.ActiveResidues>
 VAL166  LYS551  ARG553  GLY616  TRP617  ASP618  TYR619  PRO620  LYS621  CYS622 
 ASP623  PHE694  ASN695  SER759  ASP760  ASP761  ALA762  ILE779  LEU786  VAL792 
 PHE793  MET794  SER795  GLU796  ALA797  LYS798  CYS799  TRP800  GLU811  SER814 

> <Gold.Protein.RotatedAtoms>
  152.3243  133.5888  159.5765 H   0  0  0  0  0  0  0  0  0  0  0  0  # atno 6907 bound_to 6896
  150.7388  133.9964  159.3632 H   0  0  0  0  0  0  0  0  0  0  0  0  # atno 6908 bound_to 6896
  151.7845  135.0753  160.0429 H   0  0  0  0  0  0  0  0  0  0  0  0  # atno 6909 bound_to 6896
  146.1027  140.5732  142.8813 H   0  0  0  0  0  0  0  0  0  0  0  0  # atno 7974 bound_to 7965
  156.2851  140.2702  156.2043 H   0  0  0  0  0  0  0  0  0  0  0  0  # atno 8008 bound_to 7997
  155.0329  140.0386  157.2499 H   0  0  0  0  0  0  0  0  0  0  0  0  # atno 8009 bound_to 7997
  154.7339  140.2712  155.6437 H   0  0  0  0  0  0  0  0  0  0  0  0  # atno 8010 bound_to 7997
  139.5519  144.6819  151.4298 H   0  0  0  0  0  0  0  0  0  0  0  0  # atno 10167 bound_to 10162
  157.6959  131.0436  150.3852 H   0  0  0  0  0  0  0  0  0  0  0  0  # atno 10718 bound_to 10713
  154.1705  135.6460  153.5008 H   0  0  0  0  0  0  0  0  0  0  0  0  # atno 10763 bound_to 10752
  153.0085  135.5382  154.6617 H   0  0  0  0  0  0  0  0  0  0  0  0  # atno 10764 bound_to 10752
  154.5955  135.2938  155.0563 H   0  0  0  0  0  0  0  0  0  0  0  0  # atno 10765 bound_to 10752
  139.8771  134.9135  156.4740 H   0  0  0  0  0  0  0  0  0  0  0  0  # atno 11005 bound_to 11000
  144.7446  140.5033  143.6845 LP  0  0  0  0  0  0  0  0  0  0  0  0  # atno 17320 bound_to 7965
  145.5821  139.1489  143.3229 LP  0  0  0  0  0  0  0  0  0  0  0  0  # atno 17321 bound_to 7965
  140.6783  143.8139  150.7088 LP  0  0  0  0  0  0  0  0  0  0  0  0  # atno 17342 bound_to 10162
  140.1584  143.4296  152.2083 LP  0  0  0  0  0  0  0  0  0  0  0  0  # atno 17343 bound_to 10162
  156.4261  130.3962  149.6792 LP  0  0  0  0  0  0  0  0  0  0  0  0  # atno 17370 bound_to 10713
  156.4025  130.7682  151.2690 LP  0  0  0  0  0  0  0  0  0  0  0  0  # atno 17371 bound_to 10713
  140.8775  133.7942  155.9431 LP  0  0  0  0  0  0  0  0  0  0  0  0  # atno 17394 bound_to 11000
  140.8888  134.2521  157.5105 LP  0  0  0  0  0  0  0  0  0  0  0  0  # atno 17395 bound_to 11000

$$$$
