AV-unprocessed.smi:2535|AV-procd|sdf|9977|dock4
  -GOLD-   2272014 23D 1   1.00000     0.00000
 Structure written by MMmdl.
 26 27  0  0  0  0  0  0  0  0  2 V2000
  149.4849  141.2401  154.9906 C   0  0  0  0  0  0  0  0  0  0  0  0
  150.6242  140.8046  155.7742 N   0  0  0  0  0  0  0  0  0  0  0  0
  151.6465  140.1272  155.1978 N   0  0  0  0  0  0  0  0  0  0  0  0
  152.5049  139.8694  156.1421 N   0  0  0  0  0  0  0  0  0  0  0  0
  152.0770  140.3653  157.3589 N   0  0  0  0  0  0  0  0  0  0  0  0
  150.9132  140.9361  157.0764 C   0  0  0  0  0  0  0  0  0  0  0  0
  150.0386  141.6344  158.0712 C   0  0  0  0  0  0  0  0  0  0  0  0
  150.5643  143.0280  158.4564 C   0  0  1  0  0  0  0  0  0  0  0  0
  151.7398  143.0247  159.4385 C   0  0  0  0  0  0  0  0  0  0  0  0
  152.3890  144.3803  159.1891 C   0  0  0  0  0  0  0  0  0  0  0  0
  152.2208  144.5804  157.6809 C   0  0  0  0  0  0  0  0  0  0  0  0
  151.0417  143.7849  157.2817 N   0  3  0  0  0  0  0  0  0  0  0  0
  148.5750  140.7851  155.3816 H   0  0  0  0  0  0  0  0  0  0  0  0
  149.6037  140.9471  153.9466 H   0  0  0  0  0  0  0  0  0  0  0  0
  149.3941  142.3245  155.0416 H   0  0  0  0  0  0  0  0  0  0  0  0
  149.0245  141.7097  157.6774 H   0  0  0  0  0  0  0  0  0  0  0  0
  149.9729  141.0071  158.9609 H   0  0  0  0  0  0  0  0  0  0  0  0
  149.7527  143.6113  158.8949 H   0  0  0  0  0  0  0  0  0  0  0  0
  151.4284  142.8867  160.4746 H   0  0  0  0  0  0  0  0  0  0  0  0
  152.4453  142.2317  159.1880 H   0  0  0  0  0  0  0  0  0  0  0  0
  151.8433  145.1548  159.7302 H   0  0  0  0  0  0  0  0  0  0  0  0
  153.4311  144.4184  159.5082 H   0  0  0  0  0  0  0  0  0  0  0  0
  152.1001  145.6311  157.4159 H   0  0  0  0  0  0  0  0  0  0  0  0
  153.0908  144.1961  157.1473 H   0  0  0  0  0  0  0  0  0  0  0  0
  151.3207  143.1406  156.5558 H   0  0  0  0  0  0  0  0  0  0  0  0
  150.3058  144.3851  156.9369 H   0  0  0  0  0  0  0  0  0  0  0  0
  1  2  1  0  0  0  0
  1 13  1  0  0  0  0
  1 14  1  0  0  0  0
  1 15  1  0  0  0  0
  2  6  1  0  0  0  0
  2  3  1  0  0  0  0
  3  4  2  0  0  0  0
  4  5  1  0  0  0  0
  5  6  2  0  0  0  0
  6  7  1  0  0  0  0
  7  8  1  0  0  0  0
  7 16  1  0  0  0  0
  7 17  1  0  0  0  0
  8 12  1  0  0  0  0
  8  9  1  0  0  0  0
  8 18  1  0  0  0  0
  9 10  1  0  0  0  0
  9 19  1  0  0  0  0
  9 20  1  0  0  0  0
 10 11  1  0  0  0  0
 10 21  1  0  0  0  0
 10 22  1  0  0  0  0
 11 12  1  0  0  0  0
 11 23  1  0  0  0  0
 11 24  1  0  0  0  0
 12 25  1  0  0  0  0
 12 26  1  0  0  0  0
M  CHG  1  12   1
M  END
> <s_m_source_file>
AV-unprocessed.smi

> <i_m_source_file_index>
2535

> <i_lp_mmshare_version>
43012

> <i_f3d_flags>
0

> <s_epik_input>
W0NIM11uMW5ubmMxW0NIMl1bQ0BASF0yW0NIMl1bQ0gyXVtDSDJdW05IXTI=

> <s_epik_cmdline>
J2VwaWtfcHl0aG9uJywgJy1waCcsICc3LjAnLCAnLXRuJywgJzgnLCAnLW1hJywgJzIwMCcsICctbWV0YWxfYmluZGluZycsICctaW1hZScsICc8aW5maWxlLm1hZT4nLCAnLW9tYWUnLCAnPG91dGZpbGUubWFlPic=

> <r_lp_tautomer_probability>
1

> <r_epik_Ionization_Penalty>
0.000863359

> <r_epik_Ionization_Penalty_Charging>
0.000863359

> <r_epik_Ionization_Penalty_Neutral>
1.80841e-10

> <r_epik_State_Penalty>
0.000557253

> <r_epik_Charging_Adjusted_Penalty>
0.00142061

> <i_epik_Tot_Q>
1

> <i_epik_Tot_abs_Q>
1

> <r_epik_Metal_State_Penalty>
-0

> <b_epik_Metal_Only>
0

> <s_lp_Force_Field>
OPLS_2005

> <r_lp_Energy>
24.3547

> <b_lp_Chiralities_Consistent>
1

> <s_lp_Variant>
AV-unprocessed.smi:2535-2

> <Gold.Version>
5.8.1

> <Gold.Id.Protein>
6NUR|6NUR_protein|mol2

> <Gold.PLP.Fitness>
39.0295

> <Gold.PLP.PLP>
-27.8389

> <Gold.PLP.part.hbond>
-3.0455

> <Gold.PLP.part.metal>
0.0000

> <Gold.PLP.part.buried>
-4.1201

> <Gold.PLP.part.nonpolar>
-20.6532

> <Gold.PLP.part.repulsive>
0.0363

> <Gold.PLP.ligand.clash>
0.0000

> <Gold.PLP.ligand.torsion>
0.3448

> <Gold.PLP.Chemscore.Hbond>
3.9600

> <Gold.PLP.Chemscore.CHOScore>
0.0000

> <Gold.PLP.Chemscore.Metal>
0.0000

> <Gold.Chemscore.Hbonds>
donor molecule, donor type, donor heavy atom, donor atom, acceptor molecule, acceptor atom, score
      L1  H    12    26       P1  8028  2.00
      P1  H  7989  7998       L1     3  0.96
      P1  H  7997  8009       L1     4  1.00

> <Gold.PLP.Chemscore.Internal.Correction>
0.0002

> <Gold.Rescore>
     Score         DG    S(hbond)    S(metal)    S(lipo)     H(rot)  DE(clash)    DE(int)     intcor
     14.50     -15.00       1.86        0.00      57.67       1.34       0.22       0.28       ----

> <Gold.Chemscore.Fitness>
14.4951

> <Gold.Chemscore.DG>
-14.9985

> <Gold.Chemscore.ZeroCoef>
-5.4800

> <Gold.Chemscore.Hbond>
1.8574

> <Gold.Chemscore.Metal>
0.0000

> <Gold.Chemscore.Lipo>
57.6685

> <Gold.Chemscore.Internal_Hbond>
0.0000

> <Gold.Chemscore.DEClash>
0.2243

> <Gold.Chemscore.DEInternal>
0.2791

> <Gold.Chemscore.Rot>
1.3407

> <Gold.Chemscore.Internal.Correction>
   9.000000E+99

> <Gold.Chemscore.Hbonds>
donor molecule, donor type, donor heavy atom, donor atom, acceptor molecule, acceptor atom, score
      L1  H    12    26       P1  8028  0.84
      P1  H  7989  7998       L1     3  0.28
      P1  H  7997  8009       L1     4  0.40

> <Gold.Chemscore.Hbond.Weighted>
-6.2036

> <Gold.Chemscore.Metal.Weighted>
-0.0000

> <Gold.Chemscore.Lipo.Weighted>
-6.7472

> <Gold.Chemscore.Internal_Hbond.Weighted>
0.0000

> <Gold.Chemscore.DEClash.Weighted>
0.2243

> <Gold.Chemscore.DEInternal.Weighted>
0.2791

> <Gold.Chemscore.Rot.Weighted>
3.4323

> <Gold.Chemscore.Internal.Correction.Weighted>
   9.000000E+99

> <Gold.Protein.RotatedTorsions>
[ 6907 6896 6895 6894 ] final   -2.51 input  -60.11 | X-H torsion
[ 7974 7965 7964 7962 ] final  -46.13 input  175.53 | X-H torsion
[ 8008 7997 7996 7995 ] final -153.65 input   59.86 | X-H torsion
[ 10167 10162 10161 10158 ] final -169.17 input  -65.29 | X-H torsion
[ 10718 10713 10712 10709 ] final -118.81 input   66.30 | X-H torsion
[ 10763 10752 10751 10750 ] final -118.30 input  -60.55 | X-H torsion
[ 11005 11000 10999 10996 ] final   93.31 input  -57.11 | X-H torsion

> <Gold.Protein.ActiveResidues>
 VAL166  LYS551  ARG553  GLY616  TRP617  ASP618  TYR619  PRO620  LYS621  CYS622 
 ASP623  PHE694  ASN695  SER759  ASP760  ASP761  ALA762  ILE779  LEU786  VAL792 
 PHE793  MET794  SER795  GLU796  ALA797  LYS798  CYS799  TRP800  GLU811  SER814 

> <Gold.Protein.RotatedAtoms>
  151.5288  135.1068  159.9897 H   0  0  0  0  0  0  0  0  0  0  0  0  # atno 6907 bound_to 6896
  152.4588  133.7774  159.6842 H   0  0  0  0  0  0  0  0  0  0  0  0  # atno 6908 bound_to 6896
  150.8541  133.7676  159.3040 H   0  0  0  0  0  0  0  0  0  0  0  0  # atno 6909 bound_to 6896
  145.9751  140.7343  142.9391 H   0  0  0  0  0  0  0  0  0  0  0  0  # atno 7974 bound_to 7965
  155.6741  140.0736  157.2509 H   0  0  0  0  0  0  0  0  0  0  0  0  # atno 8008 bound_to 7997
  154.4118  140.1693  156.1963 H   0  0  0  0  0  0  0  0  0  0  0  0  # atno 8009 bound_to 7997
  155.9591  140.3371  155.6478 H   0  0  0  0  0  0  0  0  0  0  0  0  # atno 8010 bound_to 7997
  139.5939  144.1153  152.1667 H   0  0  0  0  0  0  0  0  0  0  0  0  # atno 10167 bound_to 10162
  156.1134  130.6267  150.9338 H   0  0  0  0  0  0  0  0  0  0  0  0  # atno 10718 bound_to 10713
  154.8583  135.4279  154.2117 H   0  0  0  0  0  0  0  0  0  0  0  0  # atno 10763 bound_to 10752
  153.3141  135.6978  153.7095 H   0  0  0  0  0  0  0  0  0  0  0  0  # atno 10764 bound_to 10752
  153.6176  135.3508  155.2974 H   0  0  0  0  0  0  0  0  0  0  0  0  # atno 10765 bound_to 10752
  139.8811  134.8783  156.3700 H   0  0  0  0  0  0  0  0  0  0  0  0  # atno 11005 bound_to 11000
  144.6846  140.2814  143.7291 LP  0  0  0  0  0  0  0  0  0  0  0  0  # atno 17320 bound_to 7965
  145.7850  139.1905  143.2135 LP  0  0  0  0  0  0  0  0  0  0  0  0  # atno 17321 bound_to 7965
  140.0734  144.5760  150.7175 LP  0  0  0  0  0  0  0  0  0  0  0  0  # atno 17342 bound_to 10162
  140.7196  143.2576  151.4322 LP  0  0  0  0  0  0  0  0  0  0  0  0  # atno 17343 bound_to 10162
  157.6316  131.0920  150.8430 LP  0  0  0  0  0  0  0  0  0  0  0  0  # atno 17370 bound_to 10713
  156.8537  130.5089  149.5309 LP  0  0  0  0  0  0  0  0  0  0  0  0  # atno 17371 bound_to 10713
  140.9471  133.7476  156.0222 LP  0  0  0  0  0  0  0  0  0  0  0  0  # atno 17394 bound_to 11000
  140.8150  134.3355  157.5400 LP  0  0  0  0  0  0  0  0  0  0  0  0  # atno 17395 bound_to 11000

$$$$
