AV-unprocessed.smi:44|AV-procd|sdf|405|dock4
  -GOLD-   2262016263D 1   1.00000     0.00000
 Structure written by MMmdl.
 28 30  0  0  0  0  0  0  0  0  2 V2000
  153.6692  139.0277  155.4427 O   0  0  0  0  0  0  0  0  0  0  0  0
  152.5328  138.7462  155.0674 C   0  0  0  0  0  0  0  0  0  0  0  0
  152.1667  137.5688  154.4672 N   0  5  0  0  0  0  0  0  0  0  0  0
  150.8406  137.3727  154.0863 C   0  0  0  0  0  0  0  0  0  0  0  0
  149.8511  138.1880  154.2275 N   0  0  0  0  0  0  0  0  0  0  0  0
  150.1932  139.3808  154.8304 C   0  0  0  0  0  0  0  0  0  0  0  0
  151.4403  139.7409  155.2647 C   0  0  0  0  0  0  0  0  0  0  0  0
  151.4295  141.0136  155.8225 N   0  0  0  0  0  0  0  0  0  0  0  0
  150.1494  141.3651  155.6944 C   0  0  0  0  0  0  0  0  0  0  0  0
  149.3470  140.4438  155.1188 N   0  0  0  0  0  0  0  0  0  0  0  0
  147.8806  140.5300  154.8288 C   0  0  1  0  0  0  0  0  0  0  0  0
  147.6142  141.6491  153.8104 C   0  0  0  0  0  0  0  0  0  0  0  0
  146.8396  140.9248  152.7272 C   0  0  0  0  0  0  0  0  0  0  0  0
  147.3946  139.5067  152.8273 C   0  0  2  0  0  0  0  0  0  0  0  0
  146.4806  138.4456  152.1979 C   0  0  0  0  0  0  0  0  0  0  0  0
  146.6004  138.4751  150.7917 O   0  0  0  0  0  0  0  0  0  0  0  0
  147.4620  139.3340  154.2380 O   0  0  0  0  0  0  0  0  0  0  0  0
  147.4112  140.6808  155.8016 H   0  0  0  0  0  0  0  0  0  0  0  0
  148.3950  139.4764  152.3907 H   0  0  0  0  0  0  0  0  0  0  0  0
  150.6929  136.3950  153.6207 H   0  0  0  0  0  0  0  0  0  0  0  0
  149.7881  142.3249  156.0325 H   0  0  0  0  0  0  0  0  0  0  0  0
  147.0524  142.4649  154.2658 H   0  0  0  0  0  0  0  0  0  0  0  0
  148.5542  142.0415  153.4178 H   0  0  0  0  0  0  0  0  0  0  0  0
  145.7742  140.9336  152.9621 H   0  0  0  0  0  0  0  0  0  0  0  0
  146.9759  141.3671  151.7399 H   0  0  0  0  0  0  0  0  0  0  0  0
  146.7073  137.4494  152.5790 H   0  0  0  0  0  0  0  0  0  0  0  0
  145.4390  138.6568  152.4418 H   0  0  0  0  0  0  0  0  0  0  0  0
  145.7336  138.5029  150.4172 H   0  0  0  0  0  0  0  0  0  0  0  0
  1  2  2  0  0  0  0
  2  7  1  0  0  0  0
  2  3  1  0  0  0  0
  3  4  1  0  0  0  0
  4  5  2  0  0  0  0
  4 20  1  0  0  0  0
  5  6  1  0  0  0  0
  6 10  1  0  0  0  0
  6  7  2  0  0  0  0
  7  8  1  0  0  0  0
  8  9  2  0  0  0  0
  9 10  1  0  0  0  0
  9 21  1  0  0  0  0
 10 11  1  0  0  0  0
 11 18  1  0  0  0  0
 11 17  1  0  0  0  0
 11 12  1  0  0  0  0
 12 13  1  0  0  0  0
 12 22  1  0  0  0  0
 12 23  1  0  0  0  0
 13 14  1  0  0  0  0
 13 24  1  0  0  0  0
 13 25  1  0  0  0  0
 14 19  1  0  0  0  0
 14 15  1  0  0  0  0
 14 17  1  0  0  0  0
 15 16  1  0  0  0  0
 15 26  1  0  0  0  0
 15 27  1  0  0  0  0
 16 28  1  0  0  0  0
M  CHG  1   3  -1
M  END
> <s_m_source_file>
AV-unprocessed.smi

> <i_m_source_file_index>
44

> <i_lp_mmshare_version>
43012

> <i_f3d_flags>
0

> <s_epik_input>
bjFbY0hdW25IXWMoPU8pYyhjMTIpbltjSF1uMltDQEhdM1tDSDJdW0NIMl1bQ0BIXShPMylbQ0gyXVtPSF0=

> <s_epik_cmdline>
J2VwaWtfcHl0aG9uJywgJy1waCcsICc3LjAnLCAnLXRuJywgJzgnLCAnLW1hJywgJzIwMCcsICctbWV0YWxfYmluZGluZycsICctaW1hZScsICc8aW5maWxlLm1hZT4nLCAnLW9tYWUnLCAnPG91dGZpbGUubWFlPic=

> <r_lp_tautomer_probability>
0.85571

> <r_epik_Ionization_Penalty>
2.55863

> <r_epik_Ionization_Penalty_Charging>
1.36424e-10

> <r_epik_Ionization_Penalty_Neutral>
2.55863

> <r_epik_State_Penalty>
2.63326

> <r_epik_Charging_Adjusted_Penalty>
2.63326

> <i_epik_Tot_Q>
-1

> <i_epik_Tot_abs_Q>
1

> <r_epik_Metal_State_Penalty>
0.475154

> <b_epik_Metal_Only>
1

> <s_epik_Chemistry_Notes>
This compound contains an acetal/aminal-like group ( X-CH(R)-Y where X, Y are N, S, or O) that may be acid/base labile, releasing an aldehyde.

> <s_lp_Force_Field>
OPLS_2005

> <r_lp_Energy>
48.3687

> <b_lp_Chiralities_Consistent>
1

> <s_lp_Variant>
AV-unprocessed.smi:44-11

> <Gold.Version>
5.8.1

> <Gold.Id.Protein>
6NUR|6NUR_protein|mol2

> <Gold.PLP.Fitness>
48.0634

> <Gold.PLP.PLP>
-29.7826

> <Gold.PLP.part.hbond>
-4.6720

> <Gold.PLP.part.metal>
0.0000

> <Gold.PLP.part.buried>
-0.2994

> <Gold.PLP.part.nonpolar>
-24.9843

> <Gold.PLP.part.repulsive>
0.4649

> <Gold.PLP.ligand.clash>
0.0000

> <Gold.PLP.ligand.torsion>
0.1168

> <Gold.PLP.Chemscore.Hbond>
4.6249

> <Gold.PLP.Chemscore.CHOScore>
1.5387

> <Gold.PLP.Chemscore.Metal>
0.0000

> <Gold.Chemscore.Hbonds>
donor molecule, donor type, donor heavy atom, donor atom, acceptor molecule, acceptor atom, score
      L1  H    16    28       P1 10171  1.00
      P1  H  7954  7966       L1    16  0.94
      P1  H  7997  8008       L1     1  0.77
      P1  H 10752 10765       L1     3  1.37
      L1  C     4    20       P1  7948  0.11
      L1  C     4    20       P1  7949  0.52
      L1  C     9    21       P1  8028  0.86

> <Gold.PLP.Chemscore.Internal.Correction>
0.0238

> <Gold.Rescore>
     Score         DG    S(hbond)    S(metal)    S(lipo)     H(rot)  DE(clash)    DE(int)     intcor
     13.42     -15.45       3.37        0.00      38.50       2.26       0.35       1.69       ----

> <Gold.Chemscore.Fitness>
13.4153

> <Gold.Chemscore.DG>
-15.4504

> <Gold.Chemscore.ZeroCoef>
-5.4800

> <Gold.Chemscore.Hbond>
3.3677

> <Gold.Chemscore.Metal>
0.0000

> <Gold.Chemscore.Lipo>
38.5007

> <Gold.Chemscore.Internal_Hbond>
0.0000

> <Gold.Chemscore.DEClash>
0.3469

> <Gold.Chemscore.DEInternal>
1.6882

> <Gold.Chemscore.Rot>
2.2588

> <Gold.Chemscore.Internal.Correction>
   9.000000E+99

> <Gold.Chemscore.Hbonds>
donor molecule, donor type, donor heavy atom, donor atom, acceptor molecule, acceptor atom, score
      L1  H    16    28       P1 10171  0.99
      P1  H  7954  7966       L1    16  0.90
      P1  H  7997  8008       L1     1  0.73
      P1  H 10752 10765       L1     3  0.27

> <Gold.Chemscore.Hbond.Weighted>
-11.2483

> <Gold.Chemscore.Metal.Weighted>
-0.0000

> <Gold.Chemscore.Lipo.Weighted>
-4.5046

> <Gold.Chemscore.Internal_Hbond.Weighted>
0.0000

> <Gold.Chemscore.DEClash.Weighted>
0.3469

> <Gold.Chemscore.DEInternal.Weighted>
1.6882

> <Gold.Chemscore.Rot.Weighted>
5.7825

> <Gold.Chemscore.Internal.Correction.Weighted>
   9.000000E+99

> <Gold.Protein.RotatedTorsions>
[ 6907 6896 6895 6894 ] final  124.27 input  -60.11 | X-H torsion
[ 7974 7965 7964 7962 ] final -146.63 input  175.53 | X-H torsion
[ 8008 7997 7996 7995 ] final  -33.37 input   59.86 | X-H torsion
[ 10167 10162 10161 10158 ] final  109.82 input  -65.29 | X-H torsion
[ 10718 10713 10712 10709 ] final  -88.18 input   66.30 | X-H torsion
[ 10763 10752 10751 10750 ] final  169.97 input  -60.55 | X-H torsion
[ 11005 11000 10999 10996 ] final   78.54 input  -57.11 | X-H torsion

> <Gold.Protein.ActiveResidues>
 VAL166  LYS551  ARG553  GLY616  TRP617  ASP618  TYR619  PRO620  LYS621  CYS622 
 ASP623  PHE694  ASN695  SER759  ASP760  ASP761  ALA762  ILE779  LEU786  VAL792 
 PHE793  MET794  SER795  GLU796  ALA797  LYS798  CYS799  TRP800  GLU811  SER814 

> <Gold.Protein.RotatedAtoms>
  152.4092  133.6937  159.6382 H   0  0  0  0  0  0  0  0  0  0  0  0  # atno 6907 bound_to 6896
  150.7974  133.8654  159.3252 H   0  0  0  0  0  0  0  0  0  0  0  0  # atno 6908 bound_to 6896
  151.6401  135.1015  160.0191 H   0  0  0  0  0  0  0  0  0  0  0  0  # atno 6909 bound_to 6896
  144.8147  140.5431  143.5619 H   0  0  0  0  0  0  0  0  0  0  0  0  # atno 7974 bound_to 7965
  154.4151  140.1712  156.1878 H   0  0  0  0  0  0  0  0  0  0  0  0  # atno 8008 bound_to 7997
  155.9629  140.3392  155.6483 H   0  0  0  0  0  0  0  0  0  0  0  0  # atno 8009 bound_to 7997
  155.6725  140.0713  157.2505 H   0  0  0  0  0  0  0  0  0  0  0  0  # atno 8010 bound_to 7997
  139.6736  144.7123  151.1642 H   0  0  0  0  0  0  0  0  0  0  0  0  # atno 10167 bound_to 10162
  155.9984  130.4826  150.4979 H   0  0  0  0  0  0  0  0  0  0  0  0  # atno 10718 bound_to 10713
  154.3909  135.2754  155.2155 H   0  0  0  0  0  0  0  0  0  0  0  0  # atno 10763 bound_to 10752
  154.4222  135.5997  153.6020 H   0  0  0  0  0  0  0  0  0  0  0  0  # atno 10764 bound_to 10752
  152.9832  135.5975  154.4164 H   0  0  0  0  0  0  0  0  0  0  0  0  # atno 10765 bound_to 10752
  139.9208  134.7771  156.1663 H   0  0  0  0  0  0  0  0  0  0  0  0  # atno 11005 bound_to 11000
  145.5243  139.1476  143.3535 LP  0  0  0  0  0  0  0  0  0  0  0  0  # atno 17320 bound_to 7965
  146.2449  140.5384  142.8918 LP  0  0  0  0  0  0  0  0  0  0  0  0  # atno 17321 bound_to 7965
  140.7627  143.5805  150.8900 LP  0  0  0  0  0  0  0  0  0  0  0  0  # atno 17342 bound_to 10162
  139.9472  143.6313  152.3038 LP  0  0  0  0  0  0  0  0  0  0  0  0  # atno 17343 bound_to 10162
  157.2967  131.0637  151.2096 LP  0  0  0  0  0  0  0  0  0  0  0  0  # atno 17370 bound_to 10713
  157.3090  130.6880  149.6205 LP  0  0  0  0  0  0  0  0  0  0  0  0  # atno 17371 bound_to 10713
  141.0728  133.6789  156.2174 LP  0  0  0  0  0  0  0  0  0  0  0  0  # atno 17394 bound_to 11000
  140.6479  134.5098  157.5575 LP  0  0  0  0  0  0  0  0  0  0  0  0  # atno 17395 bound_to 11000

$$$$
