AV-unprocessed.smi:3025|AV-procd|sdf|11510|dock2
  -GOLD-   2272016443D 1   1.00000     0.00000
 Structure written by MMmdl.
 42 43  0  0  0  0  0  0  0  0  2 V2000
  153.4359  142.6772  163.1077 C   0  0  0  0  0  0  0  0  0  0  0  0
  153.3722  142.2659  161.6327 C   0  0  0  0  0  0  0  0  0  0  0  0
  152.5776  143.2674  160.7775 C   0  0  0  0  0  0  0  0  0  0  0  0
  152.4876  142.8925  159.2836 C   0  0  2  0  0  0  0  0  0  0  0  0
  151.9572  144.0505  158.4111 C   0  0  0  0  0  0  0  0  0  0  0  0
  151.8551  143.6495  156.9292 C   0  0  0  0  0  0  0  0  0  0  0  0
  150.9908  142.3881  156.7188 C   0  0  2  0  0  0  0  0  0  0  0  0
  149.5526  142.6378  156.9737 N   0  3  0  0  0  0  0  0  0  0  0  0
  148.6233  141.6410  156.4018 C   0  0  0  0  0  0  0  0  0  0  0  0
  149.0096  141.2931  154.9582 C   0  0  0  0  0  0  0  0  0  0  0  0
  149.7689  140.0101  154.8669 C   0  0  0  0  0  0  0  0  0  0  0  0
  150.3386  139.3899  155.9070 N   0  0  0  0  0  0  0  0  0  0  0  0
  150.9134  138.2414  155.3862 N   0  0  0  0  0  0  0  0  0  0  0  0
  150.6328  138.2794  154.0828 C   0  0  0  0  0  0  0  0  0  0  0  0
  149.9244  139.3514  153.7083 N   0  0  0  0  0  0  0  0  0  0  0  0
  151.5012  141.2380  157.6064 C   0  0  0  0  0  0  0  0  0  0  0  0
  151.6061  141.6429  159.0874 C   0  0  0  0  0  0  0  0  0  0  0  0
  149.5946  139.5981  152.7864 H   0  0  0  0  0  0  0  0  0  0  0  0
  154.0079  141.9532  163.6883 H   0  0  0  0  0  0  0  0  0  0  0  0
  152.4384  142.7391  163.5439 H   0  0  0  0  0  0  0  0  0  0  0  0
  153.9143  143.6500  163.2251 H   0  0  0  0  0  0  0  0  0  0  0  0
  154.3894  142.1696  161.2541 H   0  0  0  0  0  0  0  0  0  0  0  0
  152.9180  141.2774  161.5571 H   0  0  0  0  0  0  0  0  0  0  0  0
  151.5673  143.3329  161.1840 H   0  0  0  0  0  0  0  0  0  0  0  0
  153.0081  144.2641  160.8828 H   0  0  0  0  0  0  0  0  0  0  0  0
  153.4930  142.6418  158.9412 H   0  0  0  0  0  0  0  0  0  0  0  0
  150.9800  144.3712  158.7740 H   0  0  0  0  0  0  0  0  0  0  0  0
  152.6124  144.9174  158.4913 H   0  0  0  0  0  0  0  0  0  0  0  0
  151.4826  144.4868  156.3399 H   0  0  0  0  0  0  0  0  0  0  0  0
  152.8599  143.4524  156.5527 H   0  0  0  0  0  0  0  0  0  0  0  0
  151.0851  142.0682  155.6800 H   0  0  0  0  0  0  0  0  0  0  0  0
  149.4176  142.6340  157.9746 H   0  0  0  0  0  0  0  0  0  0  0  0
  148.6325  140.7369  157.0107 H   0  0  0  0  0  0  0  0  0  0  0  0
  147.6071  142.0366  156.4248 H   0  0  0  0  0  0  0  0  0  0  0  0
  148.1162  141.2212  154.3360 H   0  0  0  0  0  0  0  0  0  0  0  0
  149.6234  142.0877  154.5316 H   0  0  0  0  0  0  0  0  0  0  0  0
  150.9478  137.5110  153.3920 H   0  0  0  0  0  0  0  0  0  0  0  0
  150.8562  140.3646  157.5024 H   0  0  0  0  0  0  0  0  0  0  0  0
  152.4866  140.9278  157.2561 H   0  0  0  0  0  0  0  0  0  0  0  0
  152.0138  140.8078  159.6582 H   0  0  0  0  0  0  0  0  0  0  0  0
  150.6093  141.8274  159.4902 H   0  0  0  0  0  0  0  0  0  0  0  0
  149.3144  143.5548  156.6231 H   0  0  0  0  0  0  0  0  0  0  0  0
  1  2  1  0  0  0  0
  1 19  1  0  0  0  0
  1 20  1  0  0  0  0
  1 21  1  0  0  0  0
  2  3  1  0  0  0  0
  2 22  1  0  0  0  0
  2 23  1  0  0  0  0
  3  4  1  0  0  0  0
  3 24  1  0  0  0  0
  3 25  1  0  0  0  0
  4 17  1  0  0  0  0
  4  5  1  0  0  0  0
  4 26  1  0  0  0  0
  5  6  1  0  0  0  0
  5 27  1  0  0  0  0
  5 28  1  0  0  0  0
  6  7  1  0  0  0  0
  6 29  1  0  0  0  0
  6 30  1  0  0  0  0
  7  8  1  0  0  0  0
  7 16  1  0  0  0  0
  7 31  1  0  0  0  0
  8  9  1  0  0  0  0
  8 32  1  0  0  0  0
  8 42  1  0  0  0  0
  9 10  1  0  0  0  0
  9 33  1  0  0  0  0
  9 34  1  0  0  0  0
 10 11  1  0  0  0  0
 10 35  1  0  0  0  0
 10 36  1  0  0  0  0
 11 15  1  0  0  0  0
 11 12  2  0  0  0  0
 12 13  1  0  0  0  0
 13 14  2  0  0  0  0
 14 15  1  0  0  0  0
 14 37  1  0  0  0  0
 15 18  1  0  0  0  0
 16 17  1  0  0  0  0
 16 38  1  0  0  0  0
 16 39  1  0  0  0  0
 17 40  1  0  0  0  0
 17 41  1  0  0  0  0
M  CHG  1   8   1
M  END
> <s_m_source_file>
AV-unprocessed.smi

> <i_m_source_file_index>
3025

> <i_lp_mmshare_version>
43012

> <i_f3d_flags>
0

> <s_epik_input>
W0NIM11bQ0gyXVtDSDJdW0NAQEhdMVtDSDJdW0NIMl1bQ0BIXShbQ0gyXVtDSDJdMSlbTkhdW0NIMl1bQ0gyXWMybm5bY0hdW25IXTI=

> <s_epik_cmdline>
J2VwaWtfcHl0aG9uJywgJy1waCcsICc3LjAnLCAnLXRuJywgJzgnLCAnLW1hJywgJzIwMCcsICctbWV0YWxfYmluZGluZycsICctaW1hZScsICc8aW5maWxlLm1hZT4nLCAnLW9tYWUnLCAnPG91dGZpbGUubWFlPic=

> <r_lp_tautomer_probability>
0.0517155

> <r_epik_Ionization_Penalty>
0.0349397

> <r_epik_Ionization_Penalty_Charging>
0.000546397

> <r_epik_Ionization_Penalty_Neutral>
0.0343933

> <r_epik_State_Penalty>
2.24019

> <r_epik_Charging_Adjusted_Penalty>
2.24074

> <i_epik_Tot_Q>
1

> <i_epik_Tot_abs_Q>
1

> <r_epik_Metal_State_Penalty>
2.47389

> <b_epik_Metal_Only>
0

> <s_lp_Force_Field>
OPLS_2005

> <r_lp_Energy>
17.8014

> <b_lp_Chiralities_Consistent>
1

> <s_lp_Variant>
AV-unprocessed.smi:3025-6

> <Gold.Version>
5.8.1

> <Gold.Id.Protein>
6NUR|6NUR_protein|mol2

> <Gold.PLP.Fitness>
50.2943

> <Gold.PLP.PLP>
-39.4331

> <Gold.PLP.part.hbond>
-2.0000

> <Gold.PLP.part.metal>
0.0000

> <Gold.PLP.part.buried>
-5.4046

> <Gold.PLP.part.nonpolar>
-32.6529

> <Gold.PLP.part.repulsive>
0.1899

> <Gold.PLP.ligand.clash>
0.0000

> <Gold.PLP.ligand.torsion>
0.7336

> <Gold.PLP.Chemscore.Hbond>
3.0000

> <Gold.PLP.Chemscore.CHOScore>
1.0590

> <Gold.PLP.Chemscore.Metal>
0.0000

> <Gold.Chemscore.Hbonds>
donor molecule, donor type, donor heavy atom, donor atom, acceptor molecule, acceptor atom, score
      L1  H     8    42       P1  8028  2.00
      L1  H    15    18       P1  7957  1.00
      L1  C    14    37       P1  7948  0.09
      L1  C    14    37       P1  7949  1.00

> <Gold.PLP.Chemscore.Internal.Correction>
0.1514

> <Gold.Rescore>
     Score         DG    S(hbond)    S(metal)    S(lipo)     H(rot)  DE(clash)    DE(int)     intcor
     15.91     -18.07       1.97        0.00     107.47       2.56       1.31       0.85       ----

> <Gold.Chemscore.Fitness>
15.9146

> <Gold.Chemscore.DG>
-18.0730

> <Gold.Chemscore.ZeroCoef>
-5.4800

> <Gold.Chemscore.Hbond>
1.9679

> <Gold.Chemscore.Metal>
0.0000

> <Gold.Chemscore.Lipo>
107.4730

> <Gold.Chemscore.Internal_Hbond>
0.0000

> <Gold.Chemscore.DEClash>
1.3055

> <Gold.Chemscore.DEInternal>
0.8528

> <Gold.Chemscore.Rot>
2.5602

> <Gold.Chemscore.Internal.Correction>
   9.000000E+99

> <Gold.Chemscore.Hbonds>
donor molecule, donor type, donor heavy atom, donor atom, acceptor molecule, acceptor atom, score
      L1  H     8    42       P1  8028  0.95
      L1  H    15    18       P1  7957  0.99

> <Gold.Chemscore.Hbond.Weighted>
-6.5729

> <Gold.Chemscore.Metal.Weighted>
-0.0000

> <Gold.Chemscore.Lipo.Weighted>
-12.5743

> <Gold.Chemscore.Internal_Hbond.Weighted>
0.0000

> <Gold.Chemscore.DEClash.Weighted>
1.3055

> <Gold.Chemscore.DEInternal.Weighted>
0.8528

> <Gold.Chemscore.Rot.Weighted>
6.5542

> <Gold.Chemscore.Internal.Correction.Weighted>
   9.000000E+99

> <Gold.Protein.RotatedTorsions>
[ 6907 6896 6895 6894 ] final -114.48 input  -60.11 | X-H torsion
[ 7974 7965 7964 7962 ] final   -9.05 input  175.53 | X-H torsion
[ 8008 7997 7996 7995 ] final   -3.89 input   59.86 | X-H torsion
[ 10167 10162 10161 10158 ] final  -27.62 input  -65.29 | X-H torsion
[ 10718 10713 10712 10709 ] final -164.67 input   66.30 | X-H torsion
[ 10763 10752 10751 10750 ] final   38.76 input  -60.55 | X-H torsion
[ 11005 11000 10999 10996 ] final  -83.07 input  -57.11 | X-H torsion

> <Gold.Protein.ActiveResidues>
 VAL166  LYS551  ARG553  GLY616  TRP617  ASP618  TYR619  PRO620  LYS621  CYS622 
 ASP623  PHE694  ASN695  SER759  ASP760  ASP761  ALA762  ILE779  LEU786  VAL792 
 PHE793  MET794  SER795  GLU796  ALA797  LYS798  CYS799  TRP800  GLU811  SER814 

> <Gold.Protein.RotatedAtoms>
  150.7905  133.8795  159.3281 H   0  0  0  0  0  0  0  0  0  0  0  0  # atno 6907 bound_to 6896
  151.6634  135.0984  160.0193 H   0  0  0  0  0  0  0  0  0  0  0  0  # atno 6908 bound_to 6896
  152.3978  133.6734  159.6326 H   0  0  0  0  0  0  0  0  0  0  0  0  # atno 6909 bound_to 6896
  146.2263  140.2559  142.8349 H   0  0  0  0  0  0  0  0  0  0  0  0  # atno 7974 bound_to 7965
  154.6201  140.2498  155.7560 H   0  0  0  0  0  0  0  0  0  0  0  0  # atno 8008 bound_to 7997
  156.2421  140.2928  156.0424 H   0  0  0  0  0  0  0  0  0  0  0  0  # atno 8009 bound_to 7997
  155.1911  140.0391  157.2891 H   0  0  0  0  0  0  0  0  0  0  0  0  # atno 8010 bound_to 7997
  140.7276  143.4078  151.1156 H   0  0  0  0  0  0  0  0  0  0  0  0  # atno 10167 bound_to 10162
  156.6424  130.8974  151.2998 H   0  0  0  0  0  0  0  0  0  0  0  0  # atno 10718 bound_to 10713
  152.9990  135.6240  154.2356 H   0  0  0  0  0  0  0  0  0  0  0  0  # atno 10763 bound_to 10752
  154.2098  135.2800  155.2964 H   0  0  0  0  0  0  0  0  0  0  0  0  # atno 10764 bound_to 10752
  154.5616  135.5703  153.7071 H   0  0  0  0  0  0  0  0  0  0  0  0  # atno 10765 bound_to 10752
  141.1660  133.7276  156.8666 H   0  0  0  0  0  0  0  0  0  0  0  0  # atno 11005 bound_to 11000
  144.9376  140.8044  143.5650 LP  0  0  0  0  0  0  0  0  0  0  0  0  # atno 17320 bound_to 7965
  145.2508  139.2032  143.4943 LP  0  0  0  0  0  0  0  0  0  0  0  0  # atno 17321 bound_to 7965
  139.7707  143.8498  152.3120 LP  0  0  0  0  0  0  0  0  0  0  0  0  # atno 17342 bound_to 10162
  139.8415  144.7207  150.9324 LP  0  0  0  0  0  0  0  0  0  0  0  0  # atno 17343 bound_to 10162
  157.7167  130.9506  150.1281 LP  0  0  0  0  0  0  0  0  0  0  0  0  # atno 17370 bound_to 10713
  156.2148  130.3669  149.8626 LP  0  0  0  0  0  0  0  0  0  0  0  0  # atno 17371 bound_to 10713
  140.1811  134.9032  157.2949 LP  0  0  0  0  0  0  0  0  0  0  0  0  # atno 17394 bound_to 11000
  140.2394  134.3814  155.7487 LP  0  0  0  0  0  0  0  0  0  0  0  0  # atno 17395 bound_to 11000

$$$$
