AV-unprocessed.smi:697|AV-procd|sdf|3389|dock4
  -GOLD-   22720 0373D 1   1.00000     0.00000
 Structure written by MMmdl.
 44 45  0  0  0  0  0  0  0  0  1 V2000
  152.5249  143.6737  162.0482 C   0  0  0  0  0  0  0  0  0  0  0  0
  151.7974  142.7822  161.2134 O   0  0  0  0  0  0  0  0  0  0  0  0
  152.2490  142.6687  159.8628 C   0  0  1  0  0  0  0  0  0  0  0  0
  153.7754  142.4917  159.8332 C   0  0  0  0  0  0  0  0  0  0  0  0
  151.3941  141.6865  159.0410 C   0  0  0  0  0  0  0  0  0  0  0  0
  151.4346  142.7262  157.9232 C   0  0  1  0  0  0  0  0  0  0  0  0
  150.1849  142.7966  157.1739 N   0  0  0  0  0  0  0  0  0  0  0  0
  149.4496  141.7314  156.8286 C   0  0  0  0  0  0  0  0  0  0  0  0
  149.7597  140.5765  157.1197 O   0  0  0  0  0  0  0  0  0  0  0  0
  148.3489  142.1074  156.1521 N   0  0  0  0  0  0  0  0  0  0  0  0
  147.3283  141.3149  155.5998 C   0  0  0  0  0  0  0  0  0  0  0  0
  146.2765  140.8053  156.2931 C   0  0  0  0  0  0  0  0  0  0  0  0
  145.2598  139.9827  155.6588 C   0  0  0  0  0  0  0  0  0  0  0  0
  144.0468  139.4808  156.4266 C   0  0  0  0  0  0  0  0  0  0  0  0
  142.9142  139.9515  155.9030 F   0  0  0  0  0  0  0  0  0  0  0  0
  144.0025  138.1501  156.3820 F   0  0  0  0  0  0  0  0  0  0  0  0
  144.1023  139.8516  157.7058 F   0  0  0  0  0  0  0  0  0  0  0  0
  145.4055  139.7591  154.3399 C   0  0  0  0  0  0  0  0  0  0  0  0
  146.4943  140.2616  153.6242 N   0  0  0  0  0  0  0  0  0  0  0  0
  147.4728  141.0223  154.1639 C   0  0  0  0  0  0  0  0  0  0  0  0
  148.4037  141.4233  153.4660 O   0  0  0  0  0  0  0  0  0  0  0  0
  151.6035  143.8133  159.0153 C   0  0  0  0  0  0  0  0  0  0  0  0
  150.3109  144.4341  159.5834 C   0  0  0  0  0  0  0  0  0  0  0  0
  152.5068  144.9943  158.6466 C   0  0  0  0  0  0  0  0  0  0  0  0
  146.5415  140.0344  152.6414 H   0  0  0  0  0  0  0  0  0  0  0  0
  152.1394  143.6023  163.0652 H   0  0  0  0  0  0  0  0  0  0  0  0
  152.4128  144.7104  161.7323 H   0  0  0  0  0  0  0  0  0  0  0  0
  153.5866  143.4288  162.0808 H   0  0  0  0  0  0  0  0  0  0  0  0
  154.1700  142.5398  158.8185 H   0  0  0  0  0  0  0  0  0  0  0  0
  154.0813  141.5259  160.2339 H   0  0  0  0  0  0  0  0  0  0  0  0
  154.2759  143.2661  160.4149 H   0  0  0  0  0  0  0  0  0  0  0  0
  151.8862  140.7440  158.7990 H   0  0  0  0  0  0  0  0  0  0  0  0
  150.3963  141.5215  159.4519 H   0  0  0  0  0  0  0  0  0  0  0  0
  152.3202  142.6099  157.2944 H   0  0  0  0  0  0  0  0  0  0  0  0
  149.8619  143.7137  156.9026 H   0  0  0  0  0  0  0  0  0  0  0  0
  148.2053  143.1017  156.0509 H   0  0  0  0  0  0  0  0  0  0  0  0
  146.1720  140.9798  157.3513 H   0  0  0  0  0  0  0  0  0  0  0  0
  144.7107  139.1911  153.7389 H   0  0  0  0  0  0  0  0  0  0  0  0
  149.8207  145.0814  158.8554 H   0  0  0  0  0  0  0  0  0  0  0  0
  150.5150  145.0406  160.4664 H   0  0  0  0  0  0  0  0  0  0  0  0
  149.5830  143.6784  159.8782 H   0  0  0  0  0  0  0  0  0  0  0  0
  151.9977  145.6969  157.9862 H   0  0  0  0  0  0  0  0  0  0  0  0
  153.4071  144.6728  158.1236 H   0  0  0  0  0  0  0  0  0  0  0  0
  152.8234  145.5454  159.5326 H   0  0  0  0  0  0  0  0  0  0  0  0
  1  2  1  0  0  0  0
  1 26  1  0  0  0  0
  1 27  1  0  0  0  0
  1 28  1  0  0  0  0
  2  3  1  0  0  0  0
  3 22  1  0  0  0  0
  3  4  1  0  0  0  0
  3  5  1  0  0  0  0
  4 29  1  0  0  0  0
  4 30  1  0  0  0  0
  4 31  1  0  0  0  0
  5  6  1  0  0  0  0
  5 32  1  0  0  0  0
  5 33  1  0  0  0  0
  6  7  1  0  0  0  0
  6 22  1  0  0  0  0
  6 34  1  0  0  0  0
  7  8  1  0  0  0  0
  7 35  1  0  0  0  0
  8  9  2  0  0  0  0
  8 10  1  0  0  0  0
 10 11  1  0  0  0  0
 10 36  1  0  0  0  0
 11 20  1  0  0  0  0
 11 12  2  0  0  0  0
 12 13  1  0  0  0  0
 12 37  1  0  0  0  0
 13 14  1  0  0  0  0
 13 18  2  0  0  0  0
 14 15  1  0  0  0  0
 14 16  1  0  0  0  0
 14 17  1  0  0  0  0
 18 19  1  0  0  0  0
 18 38  1  0  0  0  0
 19 25  1  0  0  0  0
 19 20  1  0  0  0  0
 20 21  2  0  0  0  0
 22 23  1  0  0  0  0
 22 24  1  0  0  0  0
 23 39  1  0  0  0  0
 23 40  1  0  0  0  0
 23 41  1  0  0  0  0
 24 42  1  0  0  0  0
 24 43  1  0  0  0  0
 24 44  1  0  0  0  0
M  END
> <s_m_source_file>
AV-unprocessed.smi

> <i_m_source_file_index>
697

> <i_lp_mmshare_version>
43012

> <i_f3d_flags>
0

> <s_epik_input>
W0NIM11PW0NAQF0xKFtDSDNdKVtDSDJdW0NASF0oQzEoW0NIM10pW0NIM10pW05IXUMoPU8pW05IXWMyW2NIXWMoQyhGKShGKUYpW2NIXVtuSF1jMj1P

> <s_epik_cmdline>
J2VwaWtfcHl0aG9uJywgJy1waCcsICc3LjAnLCAnLXRuJywgJzgnLCAnLW1hJywgJzIwMCcsICctbWV0YWxfYmluZGluZycsICctaW1hZScsICc8aW5maWxlLm1hZT4nLCAnLW9tYWUnLCAnPG91dGZpbGUubWFlPic=

> <r_lp_tautomer_probability>
1

> <r_epik_Ionization_Penalty>
0.0036482

> <r_epik_Ionization_Penalty_Charging>
0.00362828

> <r_epik_Ionization_Penalty_Neutral>
1.99208e-05

> <r_epik_State_Penalty>
-0

> <r_epik_Charging_Adjusted_Penalty>
0.00362828

> <i_epik_Tot_Q>
0

> <i_epik_Tot_abs_Q>
0

> <r_epik_Metal_State_Penalty>
0.369362

> <b_epik_Metal_Only>
0

> <s_lp_Force_Field>
OPLS_2005

> <r_lp_Energy>
34.4926

> <b_lp_Chiralities_Consistent>
1

> <s_lp_Variant>
AV-unprocessed.smi:697-1

> <Gold.Version>
5.8.1

> <Gold.Id.Protein>
6NUR|6NUR_protein|mol2

> <Gold.PLP.Fitness>
42.2073

> <Gold.PLP.PLP>
-33.4540

> <Gold.PLP.part.hbond>
-4.7473

> <Gold.PLP.part.metal>
0.0000

> <Gold.PLP.part.buried>
-2.9114

> <Gold.PLP.part.nonpolar>
-27.9751

> <Gold.PLP.part.repulsive>
2.0730

> <Gold.PLP.ligand.clash>
0.0000

> <Gold.PLP.ligand.torsion>
1.2022

> <Gold.PLP.Chemscore.Hbond>
3.0186

> <Gold.PLP.Chemscore.CHOScore>
0.5665

> <Gold.PLP.Chemscore.Metal>
0.0000

> <Gold.Chemscore.Hbonds>
donor molecule, donor type, donor heavy atom, donor atom, acceptor molecule, acceptor atom, score
      L1  H     7    35       P1  8028  0.94
      L1  H    10    36       P1  8028  1.00
      P1  H  6933  6945       L1     2  0.20
      P1  H  8011  8017       L1    21  0.72
      L1  C    18    38       P1 10175  0.60

> <Gold.PLP.Chemscore.Internal.Correction>
0.4025

> <Gold.Rescore>
     Score         DG    S(hbond)    S(metal)    S(lipo)     H(rot)  DE(clash)    DE(int)     intcor
     18.40     -23.54       3.10        0.00      94.48       1.31       2.55       2.58       ----

> <Gold.Chemscore.Fitness>
18.4021

> <Gold.Chemscore.DG>
-23.5388

> <Gold.Chemscore.ZeroCoef>
-5.4800

> <Gold.Chemscore.Hbond>
3.0984

> <Gold.Chemscore.Metal>
0.0000

> <Gold.Chemscore.Lipo>
94.4793

> <Gold.Chemscore.Internal_Hbond>
0.0000

> <Gold.Chemscore.DEClash>
2.5531

> <Gold.Chemscore.DEInternal>
2.5837

> <Gold.Chemscore.Rot>
1.3062

> <Gold.Chemscore.Internal.Correction>
   9.000000E+99

> <Gold.Chemscore.Hbonds>
donor molecule, donor type, donor heavy atom, donor atom, acceptor molecule, acceptor atom, score
      L1  H     7    35       P1  8028  0.91
      L1  H    10    36       P1  8028  0.70
      P1  H  6933  6945       L1     2  0.18
      P1  H  8011  8017       L1    21  0.69

> <Gold.Chemscore.Hbond.Weighted>
-10.3487

> <Gold.Chemscore.Metal.Weighted>
-0.0000

> <Gold.Chemscore.Lipo.Weighted>
-11.0541

> <Gold.Chemscore.Internal_Hbond.Weighted>
0.0000

> <Gold.Chemscore.DEClash.Weighted>
2.5531

> <Gold.Chemscore.DEInternal.Weighted>
2.5837

> <Gold.Chemscore.Rot.Weighted>
3.3440

> <Gold.Chemscore.Internal.Correction.Weighted>
   9.000000E+99

> <Gold.Protein.RotatedTorsions>
[ 6907 6896 6895 6894 ] final   16.64 input  -60.11 | X-H torsion
[ 7974 7965 7964 7962 ] final  -23.39 input  175.53 | X-H torsion
[ 8008 7997 7996 7995 ] final  125.93 input   59.86 | X-H torsion
[ 10167 10162 10161 10158 ] final  176.17 input  -65.29 | X-H torsion
[ 10718 10713 10712 10709 ] final  140.43 input   66.30 | X-H torsion
[ 10763 10752 10751 10750 ] final   23.51 input  -60.55 | X-H torsion
[ 11005 11000 10999 10996 ] final  173.34 input  -57.11 | X-H torsion

> <Gold.Protein.ActiveResidues>
 VAL166  LYS551  ARG553  GLY616  TRP617  ASP618  TYR619  PRO620  LYS621  CYS622 
 ASP623  PHE694  ASN695  SER759  ASP760  ASP761  ALA762  ILE779  LEU786  VAL792 
 PHE793  MET794  SER795  GLU796  ALA797  LYS798  CYS799  TRP800  GLU811  SER814 

> <Gold.Protein.RotatedAtoms>
  151.8370  135.0602  160.0443 H   0  0  0  0  0  0  0  0  0  0  0  0  # atno 6907 bound_to 6896
  152.2837  133.5490  159.5522 H   0  0  0  0  0  0  0  0  0  0  0  0  # atno 6908 bound_to 6896
  150.7200  134.0443  159.3819 H   0  0  0  0  0  0  0  0  0  0  0  0  # atno 6909 bound_to 6896
  146.1619  140.4610  142.8568 H   0  0  0  0  0  0  0  0  0  0  0  0  # atno 7974 bound_to 7965
  156.2849  140.2705  156.2028 H   0  0  0  0  0  0  0  0  0  0  0  0  # atno 8008 bound_to 7997
  155.0343  140.0386  157.2504 H   0  0  0  0  0  0  0  0  0  0  0  0  # atno 8009 bound_to 7997
  154.7328  140.2710  155.6446 H   0  0  0  0  0  0  0  0  0  0  0  0  # atno 8010 bound_to 7997
  139.5204  144.2946  152.0433 H   0  0  0  0  0  0  0  0  0  0  0  0  # atno 10167 bound_to 10162
  157.4034  131.1019  151.0528 H   0  0  0  0  0  0  0  0  0  0  0  0  # atno 10718 bound_to 10713
  153.0833  135.6625  154.0001 H   0  0  0  0  0  0  0  0  0  0  0  0  # atno 10763 bound_to 10752
  153.9617  135.2973  155.3434 H   0  0  0  0  0  0  0  0  0  0  0  0  # atno 10764 bound_to 10752
  154.7236  135.5154  153.8923 H   0  0  0  0  0  0  0  0  0  0  0  0  # atno 10765 bound_to 10752
  140.3395  134.7289  157.4192 H   0  0  0  0  0  0  0  0  0  0  0  0  # atno 11005 bound_to 11000
  144.8038  140.6262  143.6460 LP  0  0  0  0  0  0  0  0  0  0  0  0  # atno 17320 bound_to 7965
  145.4567  139.1517  143.3889 LP  0  0  0  0  0  0  0  0  0  0  0  0  # atno 17321 bound_to 7965
  140.2396  144.4283  150.6265 LP  0  0  0  0  0  0  0  0  0  0  0  0  # atno 17342 bound_to 10162
  140.6300  143.2186  151.6516 LP  0  0  0  0  0  0  0  0  0  0  0  0  # atno 17343 bound_to 10162
  157.1519  130.6188  149.5585 LP  0  0  0  0  0  0  0  0  0  0  0  0  # atno 17370 bound_to 10713
  155.9829  130.4846  150.6908 LP  0  0  0  0  0  0  0  0  0  0  0  0  # atno 17371 bound_to 10713
  140.0793  134.5753  155.8557 LP  0  0  0  0  0  0  0  0  0  0  0  0  # atno 17394 bound_to 11000
  141.2042  133.6638  156.6109 LP  0  0  0  0  0  0  0  0  0  0  0  0  # atno 17395 bound_to 11000

$$$$
