AV-unprocessed.smi:2589|AV-procd|sdf|10151|dock2
  -GOLD-   2272014163D 1   1.00000     0.00000
 Structure written by MMmdl.
 41 42  0  0  0  0  0  0  0  0  1 V2000
  143.5240  135.5640  162.2096 C   0  0  0  0  0  0  0  0  0  0  0  0
  144.9065  135.4487  161.5778 C   0  0  0  0  0  0  0  0  0  0  0  0
  145.0757  135.7596  160.3993 O   0  0  0  0  0  0  0  0  0  0  0  0
  145.8887  135.0017  162.3755 N   0  0  0  0  0  0  0  0  0  0  0  0
  147.2849  134.8401  161.9783 C   0  0  0  0  0  0  0  0  0  0  0  0
  147.7665  135.9559  161.0438 C   0  0  0  0  0  0  0  0  0  0  0  0
  147.3490  137.1074  161.1742 O   0  0  0  0  0  0  0  0  0  0  0  0
  148.6679  135.6011  160.1160 N   0  0  0  0  0  0  0  0  0  0  0  0
  149.2638  136.5111  159.1445 C   0  0  0  0  0  0  0  0  0  0  0  0
  149.5128  135.8610  157.7851 C   0  0  0  0  0  0  0  0  0  0  0  0
  149.0045  134.5680  157.5317 C   0  0  0  0  0  0  0  0  0  0  0  0
  149.2224  133.9740  156.2757 C   0  0  0  0  0  0  0  0  0  0  0  0
  149.9422  134.7015  155.3110 C   0  0  0  0  0  0  0  0  0  0  0  0
  150.4322  135.9381  155.5337 N   0  0  0  0  0  0  0  0  0  0  0  0
  150.2249  136.5131  156.7436 C   0  0  0  0  0  0  0  0  0  0  0  0
  150.7691  137.7916  156.9430 N   0  0  0  0  0  0  0  0  0  0  0  0
  151.2726  138.4412  155.7394 C   0  0  0  0  0  0  0  0  0  0  0  0
  151.6853  139.8872  156.0641 C   0  0  0  0  0  0  0  0  0  0  0  0
  152.6416  139.8856  157.1212 O   0  0  0  0  0  0  0  0  0  0  0  0
  152.1217  139.3069  158.3156 C   0  0  0  0  0  0  0  0  0  0  0  0
  151.7168  137.8474  158.0480 C   0  0  0  0  0  0  0  0  0  0  0  0
  143.5243  136.3318  162.9834 H   0  0  0  0  0  0  0  0  0  0  0  0
  143.2288  134.6169  162.6616 H   0  0  0  0  0  0  0  0  0  0  0  0
  142.7771  135.8325  161.4622 H   0  0  0  0  0  0  0  0  0  0  0  0
  145.6587  134.7784  163.3329 H   0  0  0  0  0  0  0  0  0  0  0  0
  147.9006  134.8540  162.8775 H   0  0  0  0  0  0  0  0  0  0  0  0
  147.4334  133.8643  161.5121 H   0  0  0  0  0  0  0  0  0  0  0  0
  148.9588  134.6349  160.0779 H   0  0  0  0  0  0  0  0  0  0  0  0
  148.5719  137.3402  158.9960 H   0  0  0  0  0  0  0  0  0  0  0  0
  150.1661  136.9512  159.5699 H   0  0  0  0  0  0  0  0  0  0  0  0
  148.4502  134.0353  158.2907 H   0  0  0  0  0  0  0  0  0  0  0  0
  148.8452  132.9861  156.0565 H   0  0  0  0  0  0  0  0  0  0  0  0
  150.1293  134.2800  154.3346 H   0  0  0  0  0  0  0  0  0  0  0  0
  152.1306  137.8906  155.3509 H   0  0  0  0  0  0  0  0  0  0  0  0
  150.5039  138.4330  154.9659 H   0  0  0  0  0  0  0  0  0  0  0  0
  152.1260  140.3594  155.1861 H   0  0  0  0  0  0  0  0  0  0  0  0
  150.8172  140.4850  156.3469 H   0  0  0  0  0  0  0  0  0  0  0  0
  152.8846  139.3489  159.0930 H   0  0  0  0  0  0  0  0  0  0  0  0
  151.2690  139.8866  158.6730 H   0  0  0  0  0  0  0  0  0  0  0  0
  151.2743  137.4099  158.9432 H   0  0  0  0  0  0  0  0  0  0  0  0
  152.5997  137.2553  157.8032 H   0  0  0  0  0  0  0  0  0  0  0  0
  1  2  1  0  0  0  0
  1 22  1  0  0  0  0
  1 23  1  0  0  0  0
  1 24  1  0  0  0  0
  2  3  2  0  0  0  0
  2  4  1  0  0  0  0
  4  5  1  0  0  0  0
  4 25  1  0  0  0  0
  5  6  1  0  0  0  0
  5 26  1  0  0  0  0
  5 27  1  0  0  0  0
  6  7  2  0  0  0  0
  6  8  1  0  0  0  0
  8  9  1  0  0  0  0
  8 28  1  0  0  0  0
  9 10  1  0  0  0  0
  9 29  1  0  0  0  0
  9 30  1  0  0  0  0
 10 15  1  0  0  0  0
 10 11  2  0  0  0  0
 11 12  1  0  0  0  0
 11 31  1  0  0  0  0
 12 13  2  0  0  0  0
 12 32  1  0  0  0  0
 13 14  1  0  0  0  0
 13 33  1  0  0  0  0
 14 15  2  0  0  0  0
 15 16  1  0  0  0  0
 16 21  1  0  0  0  0
 16 17  1  0  0  0  0
 17 18  1  0  0  0  0
 17 34  1  0  0  0  0
 17 35  1  0  0  0  0
 18 19  1  0  0  0  0
 18 36  1  0  0  0  0
 18 37  1  0  0  0  0
 19 20  1  0  0  0  0
 20 21  1  0  0  0  0
 20 38  1  0  0  0  0
 20 39  1  0  0  0  0
 21 40  1  0  0  0  0
 21 41  1  0  0  0  0
M  END
> <s_m_source_file>
AV-unprocessed.smi

> <i_m_source_file_index>
2589

> <i_lp_mmshare_version>
43012

> <i_f3d_flags>
0

> <s_epik_input>
W0NIM11DKD1PKVtOSF1bQ0gyXUMoPU8pW05IXVtDSDJdYzFbY0hdW2NIXVtjSF1uYzFOMltDSDJdW0NIMl1PW0NIMl1bQ0gyXTI=

> <s_epik_cmdline>
J2VwaWtfcHl0aG9uJywgJy1waCcsICc3LjAnLCAnLXRuJywgJzgnLCAnLW1hJywgJzIwMCcsICctbWV0YWxfYmluZGluZycsICctaW1hZScsICc8aW5maWxlLm1hZT4nLCAnLW9tYWUnLCAnPG91dGZpbGUubWFlPic=

> <r_lp_tautomer_probability>
1

> <r_epik_Ionization_Penalty>
0.00462917

> <r_epik_Ionization_Penalty_Charging>
0

> <r_epik_Ionization_Penalty_Neutral>
0.00462917

> <r_epik_State_Penalty>
0.00334737

> <r_epik_Charging_Adjusted_Penalty>
0.00334737

> <i_epik_Tot_Q>
0

> <i_epik_Tot_abs_Q>
0

> <r_epik_Metal_State_Penalty>
-0

> <b_epik_Metal_Only>
0

> <s_lp_Force_Field>
OPLS_2005

> <r_lp_Energy>
14.0488

> <b_lp_Chiralities_Consistent>
1

> <s_lp_Variant>
AV-unprocessed.smi:2589-1

> <Gold.Version>
5.8.1

> <Gold.Id.Protein>
6NUR|6NUR_protein|mol2

> <Gold.PLP.Fitness>
35.0529

> <Gold.PLP.PLP>
-25.1662

> <Gold.PLP.part.hbond>
-3.0000

> <Gold.PLP.part.metal>
0.0000

> <Gold.PLP.part.buried>
-4.5099

> <Gold.PLP.part.nonpolar>
-17.3736

> <Gold.PLP.part.repulsive>
0.3647

> <Gold.PLP.ligand.clash>
0.0000

> <Gold.PLP.ligand.torsion>
0.8501

> <Gold.PLP.Chemscore.Hbond>
2.8080

> <Gold.PLP.Chemscore.CHOScore>
1.0000

> <Gold.PLP.Chemscore.Metal>
0.0000

> <Gold.Chemscore.Hbonds>
donor molecule, donor type, donor heavy atom, donor atom, acceptor molecule, acceptor atom, score
      P1  H  6931  6943       L1     7  0.61
      P1  H  6934  6947       L1     7  1.00
      P1  H  7997  8008       L1    19  1.00

> <Gold.PLP.Chemscore.Internal.Correction>
0.1630

> <Gold.Rescore>
     Score         DG    S(hbond)    S(metal)    S(lipo)     H(rot)  DE(clash)    DE(int)     intcor
     13.65     -14.36       2.69        0.00      48.84       2.28       0.00       0.70       ----

> <Gold.Chemscore.Fitness>
13.6495

> <Gold.Chemscore.DG>
-14.3562

> <Gold.Chemscore.ZeroCoef>
-5.4800

> <Gold.Chemscore.Hbond>
2.6915

> <Gold.Chemscore.Metal>
0.0000

> <Gold.Chemscore.Lipo>
48.8449

> <Gold.Chemscore.Internal_Hbond>
0.0000

> <Gold.Chemscore.DEClash>
0.0048

> <Gold.Chemscore.DEInternal>
0.7020

> <Gold.Chemscore.Rot>
2.2766

> <Gold.Chemscore.Internal.Correction>
   9.000000E+99

> <Gold.Chemscore.Hbonds>
donor molecule, donor type, donor heavy atom, donor atom, acceptor molecule, acceptor atom, score
      P1  H  6931  6943       L1     7  0.32
      P1  H  6934  6947       L1     7  0.96
      P1  H  7997  8008       L1    19  0.96

> <Gold.Chemscore.Hbond.Weighted>
-8.9895

> <Gold.Chemscore.Metal.Weighted>
-0.0000

> <Gold.Chemscore.Lipo.Weighted>
-5.7149

> <Gold.Chemscore.Internal_Hbond.Weighted>
0.0000

> <Gold.Chemscore.DEClash.Weighted>
0.0048

> <Gold.Chemscore.DEInternal.Weighted>
0.7020

> <Gold.Chemscore.Rot.Weighted>
5.8281

> <Gold.Chemscore.Internal.Correction.Weighted>
   9.000000E+99

> <Gold.Protein.RotatedTorsions>
[ 6907 6896 6895 6894 ] final  -23.11 input  -60.11 | X-H torsion
[ 7974 7965 7964 7962 ] final  147.02 input  175.53 | X-H torsion
[ 8008 7997 7996 7995 ] final  -65.29 input   59.86 | X-H torsion
[ 10167 10162 10161 10158 ] final  -41.17 input  -65.29 | X-H torsion
[ 10718 10713 10712 10709 ] final  -24.16 input   66.30 | X-H torsion
[ 10763 10752 10751 10750 ] final   61.46 input  -60.55 | X-H torsion
[ 11005 11000 10999 10996 ] final   37.87 input  -57.11 | X-H torsion

> <Gold.Protein.ActiveResidues>
 VAL166  LYS551  ARG553  GLY616  TRP617  ASP618  TYR619  PRO620  LYS621  CYS622 
 ASP623  PHE694  ASN695  SER759  ASP760  ASP761  ALA762  ILE779  LEU786  VAL792 
 PHE793  MET794  SER795  GLU796  ALA797  LYS798  CYS799  TRP800  GLU811  SER814 

> <Gold.Protein.RotatedAtoms>
  151.2087  135.0472  159.8902 H   0  0  0  0  0  0  0  0  0  0  0  0  # atno 6907 bound_to 6896
  152.5426  134.0768  159.8228 H   0  0  0  0  0  0  0  0  0  0  0  0  # atno 6908 bound_to 6896
  151.0919  133.5262  159.2646 H   0  0  0  0  0  0  0  0  0  0  0  0  # atno 6909 bound_to 6896
  144.8624  139.5977  143.5924 H   0  0  0  0  0  0  0  0  0  0  0  0  # atno 7974 bound_to 7965
  154.4663  140.0936  156.7028 H   0  0  0  0  0  0  0  0  0  0  0  0  # atno 8008 bound_to 7997
  155.4850  140.3469  155.4327 H   0  0  0  0  0  0  0  0  0  0  0  0  # atno 8009 bound_to 7997
  156.0961  140.1410  156.9517 H   0  0  0  0  0  0  0  0  0  0  0  0  # atno 8010 bound_to 7997
  140.7011  143.3110  151.3028 H   0  0  0  0  0  0  0  0  0  0  0  0  # atno 10167 bound_to 10162
  156.4814  130.4546  149.6809 H   0  0  0  0  0  0  0  0  0  0  0  0  # atno 10718 bound_to 10713
  152.9951  135.5500  154.6038 H   0  0  0  0  0  0  0  0  0  0  0  0  # atno 10763 bound_to 10752
  154.5373  135.2817  155.1129 H   0  0  0  0  0  0  0  0  0  0  0  0  # atno 10764 bound_to 10752
  154.2420  135.6414  153.5263 H   0  0  0  0  0  0  0  0  0  0  0  0  # atno 10765 bound_to 10752
  140.2182  134.3672  155.8017 H   0  0  0  0  0  0  0  0  0  0  0  0  # atno 11005 bound_to 11000
  146.2871  139.7034  142.9188 LP  0  0  0  0  0  0  0  0  0  0  0  0  # atno 17320 bound_to 7965
  145.4286  141.0413  143.2923 LP  0  0  0  0  0  0  0  0  0  0  0  0  # atno 17321 bound_to 7965
  139.6533  144.0322  152.2642 LP  0  0  0  0  0  0  0  0  0  0  0  0  # atno 17342 bound_to 10162
  139.9866  144.6391  150.7852 LP  0  0  0  0  0  0  0  0  0  0  0  0  # atno 17343 bound_to 10162
  156.3518  130.7436  151.2396 LP  0  0  0  0  0  0  0  0  0  0  0  0  # atno 17370 bound_to 10713
  157.7483  131.0375  150.4458 LP  0  0  0  0  0  0  0  0  0  0  0  0  # atno 17371 bound_to 10713
  141.2224  133.7179  156.8532 LP  0  0  0  0  0  0  0  0  0  0  0  0  # atno 17394 bound_to 11000
  140.1877  134.8988  157.3024 LP  0  0  0  0  0  0  0  0  0  0  0  0  # atno 17395 bound_to 11000

$$$$
