AV-unprocessed.smi:2504|AV-procd|sdf|9852|dock9
  -GOLD-   2272013483D 1   1.00000     0.00000
 Structure written by MMmdl.
 46 48  0  0  0  0  0  0  0  0  3 V2000
  149.6596  142.9570  159.5354 O   0  0  0  0  0  0  0  0  0  0  0  0
  150.4656  142.8077  158.6164 C   0  0  0  0  0  0  0  0  0  0  0  0
  151.8704  143.4420  158.6892 C   0  0  0  0  0  0  0  0  0  0  0  0
  152.6369  142.9975  159.9435 C   0  0  0  0  0  0  0  0  0  0  0  0
  152.2371  143.9922  161.0349 C   0  0  0  0  0  0  0  0  0  0  0  0
  151.9699  145.3147  160.3074 C   0  0  0  0  0  0  0  0  0  0  0  0
  151.8216  144.9765  158.8149 C   0  0  0  0  0  0  0  0  0  0  0  0
  150.1723  141.9963  157.5175 N   0  0  0  0  0  0  0  0  0  0  0  0
  149.1746  140.9366  157.5874 C   0  0  0  0  0  0  0  0  0  0  0  0
  150.0452  140.1891  156.5664 C   0  0  0  0  0  0  0  0  0  0  0  0
  149.4254  140.1967  154.8122 S   0  0  0  0  0  0  0  0  0  0  0  0
  149.2500  141.6181  154.4695 O   0  0  0  0  0  0  0  0  0  0  0  0
  150.4095  139.4320  154.0303 O   0  0  0  0  0  0  0  0  0  0  0  0
  148.0123  139.4112  154.9378 N   0  5  0  0  0  0  0  0  0  0  0  0
  146.8126  140.1188  155.3453 C   0  0  0  0  0  0  0  0  0  0  0  0
  146.4931  141.2259  154.3169 C   0  0  0  0  0  0  0  0  0  0  0  0
  145.4384  142.2281  154.7795 C   0  0  0  0  0  0  0  0  0  0  0  0
  145.0457  143.2972  153.9397 C   0  0  0  0  0  0  0  0  0  0  0  0
  144.0601  144.2027  154.3824 C   0  0  0  0  0  0  0  0  0  0  0  0
  143.4868  144.0231  155.6571 C   0  0  0  0  0  0  0  0  0  0  0  0
  143.8898  142.9961  156.4368 N   0  3  0  0  0  0  0  0  0  0  0  0
  144.8331  142.1092  156.0512 C   0  0  0  0  0  0  0  0  0  0  0  0
  151.1764  141.1902  156.8366 C   0  0  0  0  0  0  0  0  0  0  0  0
  152.4244  143.1732  157.7890 H   0  0  0  0  0  0  0  0  0  0  0  0
  152.4266  141.9685  160.2386 H   0  0  0  0  0  0  0  0  0  0  0  0
  153.7091  143.0672  159.7565 H   0  0  0  0  0  0  0  0  0  0  0  0
  151.3223  143.6521  161.5218 H   0  0  0  0  0  0  0  0  0  0  0  0
  153.0003  144.0882  161.8076 H   0  0  0  0  0  0  0  0  0  0  0  0
  151.0732  145.7965  160.6983 H   0  0  0  0  0  0  0  0  0  0  0  0
  152.7996  146.0073  160.4529 H   0  0  0  0  0  0  0  0  0  0  0  0
  152.6527  145.4127  158.2595 H   0  0  0  0  0  0  0  0  0  0  0  0
  150.9098  145.4063  158.3971 H   0  0  0  0  0  0  0  0  0  0  0  0
  149.1386  140.4383  158.5578 H   0  0  0  0  0  0  0  0  0  0  0  0
  148.1856  141.2322  157.2369 H   0  0  0  0  0  0  0  0  0  0  0  0
  150.2958  139.1726  156.8702 H   0  0  0  0  0  0  0  0  0  0  0  0
  145.9519  139.4528  155.4146 H   0  0  0  0  0  0  0  0  0  0  0  0
  146.9256  140.5683  156.3318 H   0  0  0  0  0  0  0  0  0  0  0  0
  147.4072  141.7714  154.0810 H   0  0  0  0  0  0  0  0  0  0  0  0
  146.1665  140.7742  153.3789 H   0  0  0  0  0  0  0  0  0  0  0  0
  145.4855  143.4136  152.9595 H   0  0  0  0  0  0  0  0  0  0  0  0
  143.7472  145.0204  153.7506 H   0  0  0  0  0  0  0  0  0  0  0  0
  142.7240  144.6650  156.0730 H   0  0  0  0  0  0  0  0  0  0  0  0
  145.0653  141.3282  156.7605 H   0  0  0  0  0  0  0  0  0  0  0  0
  151.5934  141.6689  155.9498 H   0  0  0  0  0  0  0  0  0  0  0  0
  151.9452  140.7893  157.4983 H   0  0  0  0  0  0  0  0  0  0  0  0
  143.4615  142.8831  157.3557 H   0  0  0  0  0  0  0  0  0  0  0  0
  1  2  2  0  0  0  0
  2  3  1  0  0  0  0
  2  8  1  0  0  0  0
  3  7  1  0  0  0  0
  3  4  1  0  0  0  0
  3 24  1  0  0  0  0
  4  5  1  0  0  0  0
  4 25  1  0  0  0  0
  4 26  1  0  0  0  0
  5  6  1  0  0  0  0
  5 27  1  0  0  0  0
  5 28  1  0  0  0  0
  6  7  1  0  0  0  0
  6 29  1  0  0  0  0
  6 30  1  0  0  0  0
  7 31  1  0  0  0  0
  7 32  1  0  0  0  0
  8 23  1  0  0  0  0
  8  9  1  0  0  0  0
  9 10  1  0  0  0  0
  9 33  1  0  0  0  0
  9 34  1  0  0  0  0
 10 11  1  0  0  0  0
 10 23  1  0  0  0  0
 10 35  1  0  0  0  0
 11 12  2  0  0  0  0
 11 13  2  0  0  0  0
 11 14  1  0  0  0  0
 14 15  1  0  0  0  0
 15 16  1  0  0  0  0
 15 36  1  0  0  0  0
 15 37  1  0  0  0  0
 16 17  1  0  0  0  0
 16 38  1  0  0  0  0
 16 39  1  0  0  0  0
 17 22  1  0  0  0  0
 17 18  2  0  0  0  0
 18 19  1  0  0  0  0
 18 40  1  0  0  0  0
 19 20  2  0  0  0  0
 19 41  1  0  0  0  0
 20 21  1  0  0  0  0
 20 42  1  0  0  0  0
 21 22  2  0  0  0  0
 21 46  1  0  0  0  0
 22 43  1  0  0  0  0
 23 44  1  0  0  0  0
 23 45  1  0  0  0  0
M  CHG  1  14  -1
M  CHG  1  21   1
M  END
> <s_m_source_file>
AV-unprocessed.smi

> <i_m_source_file_index>
2504

> <i_lp_mmshare_version>
43012

> <i_f3d_flags>
0

> <s_epik_input>
W0NIMl0xW0NIMl1bQ0gyXVtDSDJdW0NIXTFDKD1PKU4yW0NIMl1bQ0hdKFtDSDJdMilTKD1PKSg9TylbTkhdW0NIMl1bQ0gyXWMzW2NIXVtjSF1bY0hdbltjSF0z

> <s_epik_cmdline>
J2VwaWtfcHl0aG9uJywgJy1waCcsICc3LjAnLCAnLXRuJywgJzgnLCAnLW1hJywgJzIwMCcsICctbWV0YWxfYmluZGluZycsICctaW1hZScsICc8aW5maWxlLm1hZT4nLCAnLW9tYWUnLCAnPG91dGZpbGUubWFlPic=

> <r_epik_Ionization_Penalty>
7.23206

> <r_epik_Ionization_Penalty_Charging>
7.23206

> <r_epik_Ionization_Penalty_Neutral>
2.37876e-07

> <r_epik_State_Penalty>
7.91796

> <r_epik_Charging_Adjusted_Penalty>
15.15

> <i_epik_Tot_Q>
0

> <i_epik_Tot_abs_Q>
2

> <r_epik_Metal_State_Penalty>
3.92928

> <b_epik_Metal_Only>
1

> <s_lp_Force_Field>
OPLS_2005

> <r_lp_Energy>
37.1942

> <b_lp_Chiralities_Consistent>
1

> <s_lp_Variant>
AV-unprocessed.smi:2504-4

> <Gold.Version>
5.8.1

> <Gold.Id.Protein>
6NUR|6NUR_protein|mol2

> <Gold.PLP.Fitness>
54.7291

> <Gold.PLP.PLP>
-51.3264

> <Gold.PLP.part.hbond>
-3.7204

> <Gold.PLP.part.metal>
0.0000

> <Gold.PLP.part.buried>
-6.3056

> <Gold.PLP.part.nonpolar>
-41.3418

> <Gold.PLP.part.repulsive>
0.7598

> <Gold.PLP.ligand.clash>
0.0000

> <Gold.PLP.ligand.torsion>
1.2253

> <Gold.PLP.Chemscore.Hbond>
1.1868

> <Gold.PLP.Chemscore.CHOScore>
0.0000

> <Gold.PLP.Chemscore.Metal>
0.0000

> <Gold.Chemscore.Hbonds>
donor molecule, donor type, donor heavy atom, donor atom, acceptor molecule, acceptor atom, score
      P1  H  6933  6944       L1     1  0.01
      P1  H  7989  7998       L1    13  1.00
      P1  H  8011  8017       L1    12  0.12

> <Gold.PLP.Chemscore.Internal.Correction>
2.2930

> <Gold.Rescore>
     Score         DG    S(hbond)    S(metal)    S(lipo)     H(rot)  DE(clash)    DE(int)     intcor
     14.17     -17.00       0.67        0.00     116.90       1.72       0.16       2.67       ----

> <Gold.Chemscore.Fitness>
14.1691

> <Gold.Chemscore.DG>
-16.9988

> <Gold.Chemscore.ZeroCoef>
-5.4800

> <Gold.Chemscore.Hbond>
0.6689

> <Gold.Chemscore.Metal>
0.0000

> <Gold.Chemscore.Lipo>
116.8983

> <Gold.Chemscore.Internal_Hbond>
0.0000

> <Gold.Chemscore.DEClash>
0.1603

> <Gold.Chemscore.DEInternal>
2.6693

> <Gold.Chemscore.Rot>
1.7158

> <Gold.Chemscore.Internal.Correction>
   9.000000E+99

> <Gold.Chemscore.Hbonds>
donor molecule, donor type, donor heavy atom, donor atom, acceptor molecule, acceptor atom, score
      P1  H  6933  6944       L1     1  0.03
      P1  H  7989  7998       L1    13  0.29
      P1  H  8011  8017       L1    12  0.12

> <Gold.Chemscore.Hbond.Weighted>
-2.2340

> <Gold.Chemscore.Metal.Weighted>
-0.0000

> <Gold.Chemscore.Lipo.Weighted>
-13.6771

> <Gold.Chemscore.Internal_Hbond.Weighted>
0.0000

> <Gold.Chemscore.DEClash.Weighted>
0.1603

> <Gold.Chemscore.DEInternal.Weighted>
2.6693

> <Gold.Chemscore.Rot.Weighted>
4.3924

> <Gold.Chemscore.Internal.Correction.Weighted>
   9.000000E+99

> <Gold.Protein.RotatedTorsions>
[ 6907 6896 6895 6894 ] final -176.96 input  -60.11 | X-H torsion
[ 7974 7965 7964 7962 ] final -173.42 input  175.53 | X-H torsion
[ 8008 7997 7996 7995 ] final  -39.70 input   59.86 | X-H torsion
[ 10167 10162 10161 10158 ] final   -6.89 input  -65.29 | X-H torsion
[ 10718 10713 10712 10709 ] final  -15.73 input   66.30 | X-H torsion
[ 10763 10752 10751 10750 ] final  -28.30 input  -60.55 | X-H torsion
[ 11005 11000 10999 10996 ] final -132.95 input  -57.11 | X-H torsion

> <Gold.Protein.ActiveResidues>
 VAL166  LYS551  ARG553  GLY616  TRP617  ASP618  TYR619  PRO620  LYS621  CYS622 
 ASP623  PHE694  ASN695  SER759  ASP760  ASP761  ALA762  ILE779  LEU786  VAL792 
 PHE793  MET794  SER795  GLU796  ALA797  LYS798  CYS799  TRP800  GLU811  SER814 

> <Gold.Protein.RotatedAtoms>
  151.6133  133.3345  159.3071 H   0  0  0  0  0  0  0  0  0  0  0  0  # atno 6907 bound_to 6896
  150.8145  134.7322  159.6729 H   0  0  0  0  0  0  0  0  0  0  0  0  # atno 6908 bound_to 6896
  152.4241  134.5906  160.0024 H   0  0  0  0  0  0  0  0  0  0  0  0  # atno 6909 bound_to 6896
  144.7138  140.1625  143.6375 H   0  0  0  0  0  0  0  0  0  0  0  0  # atno 7974 bound_to 7965
  154.4020  140.1544  156.2907 H   0  0  0  0  0  0  0  0  0  0  0  0  # atno 8008 bound_to 7997
  155.8788  140.3445  155.5851 H   0  0  0  0  0  0  0  0  0  0  0  0  # atno 8009 bound_to 7997
  155.7691  140.0828  157.2108 H   0  0  0  0  0  0  0  0  0  0  0  0  # atno 8010 bound_to 7997
  140.7011  143.6142  150.8674 H   0  0  0  0  0  0  0  0  0  0  0  0  # atno 10167 bound_to 10162
  156.5976  130.4815  149.6253 H   0  0  0  0  0  0  0  0  0  0  0  0  # atno 10718 bound_to 10713
  153.7461  135.6929  153.4956 H   0  0  0  0  0  0  0  0  0  0  0  0  # atno 10763 bound_to 10752
  153.2036  135.4428  155.0294 H   0  0  0  0  0  0  0  0  0  0  0  0  # atno 10764 bound_to 10752
  154.8204  135.3419  154.6984 H   0  0  0  0  0  0  0  0  0  0  0  0  # atno 10765 bound_to 10752
  140.9125  134.1550  157.4378 H   0  0  0  0  0  0  0  0  0  0  0  0  # atno 11005 bound_to 11000
  145.9017  139.2434  143.1489 LP  0  0  0  0  0  0  0  0  0  0  0  0  # atno 17320 bound_to 7965
  145.9804  140.8687  143.0117 LP  0  0  0  0  0  0  0  0  0  0  0  0  # atno 17321 bound_to 7965
  139.9864  143.5894  152.2925 LP  0  0  0  0  0  0  0  0  0  0  0  0  # atno 17342 bound_to 10162
  139.6534  144.7661  151.2104 LP  0  0  0  0  0  0  0  0  0  0  0  0  # atno 17343 bound_to 10162
  156.2496  130.6899  151.1632 LP  0  0  0  0  0  0  0  0  0  0  0  0  # atno 17370 bound_to 10713
  157.7288  131.0629  150.5805 LP  0  0  0  0  0  0  0  0  0  0  0  0  # atno 17371 bound_to 10713
  139.8760  134.9941  156.5677 LP  0  0  0  0  0  0  0  0  0  0  0  0  # atno 17394 bound_to 11000
  140.8092  133.8443  155.8795 LP  0  0  0  0  0  0  0  0  0  0  0  0  # atno 17395 bound_to 11000

$$$$
