AV-unprocessed.smi:2837|AV-procd|sdf|10925|dock4
  -GOLD-   2272015373D 1   1.00000     0.00000
 Structure written by MMmdl.
 33 35  0  0  0  0  0  0  0  0  2 V2000
  138.7808  136.9082  153.7059 F   0  0  0  0  0  0  0  0  0  0  0  0
  139.5538  137.8933  153.1891 C   0  0  0  0  0  0  0  0  0  0  0  0
  138.8839  139.0617  153.3425 F   0  0  0  0  0  0  0  0  0  0  0  0
  140.7423  137.9373  153.8481 O   0  0  0  0  0  0  0  0  0  0  0  0
  141.6214  136.8857  153.7237 C   0  0  0  0  0  0  0  0  0  0  0  0
  142.7501  137.0514  152.8945 C   0  0  0  0  0  0  0  0  0  0  0  0
  143.6660  135.9915  152.7332 C   0  0  0  0  0  0  0  0  0  0  0  0
  143.4346  134.7653  153.4004 C   0  0  0  0  0  0  0  0  0  0  0  0
  144.2718  133.6440  153.3172 N   0  0  0  0  0  0  0  0  0  0  0  0
  145.4847  133.6629  152.5076 C   0  0  1  0  0  0  0  0  0  0  0  0
  146.1097  132.2765  152.3328 C   0  0  0  0  0  0  0  0  0  0  0  0
  146.2378  132.1780  150.8061 C   0  0  1  0  0  0  0  0  0  0  0  0
  144.8787  131.9226  150.1426 C   0  0  0  0  0  0  0  0  0  0  0  0
  144.1958  133.2793  150.3028 C   0  0  0  0  0  0  0  0  0  0  0  0
  145.2719  134.0932  151.0419 C   0  0  2  0  0  0  0  0  0  0  0  0
  146.4405  133.5388  150.4626 O   0  0  0  0  0  0  0  0  0  0  0  0
  142.3360  134.6424  154.1776 N   0  3  0  0  0  0  0  0  0  0  0  0
  141.4368  135.6342  154.3592 C   0  0  0  0  0  0  0  0  0  0  0  0
  139.6896  137.6877  152.1270 H   0  0  0  0  0  0  0  0  0  0  0  0
  142.9153  137.9901  152.3862 H   0  0  0  0  0  0  0  0  0  0  0  0
  144.5291  136.1380  152.1015 H   0  0  0  0  0  0  0  0  0  0  0  0
  143.9461  132.7548  153.6679 H   0  0  0  0  0  0  0  0  0  0  0  0
  146.2238  134.3124  152.9780 H   0  0  0  0  0  0  0  0  0  0  0  0
  147.0906  132.2425  152.8083 H   0  0  0  0  0  0  0  0  0  0  0  0
  145.5075  131.4649  152.7440 H   0  0  0  0  0  0  0  0  0  0  0  0
  147.0272  131.5053  150.4701 H   0  0  0  0  0  0  0  0  0  0  0  0
  145.0013  131.6791  149.0865 H   0  0  0  0  0  0  0  0  0  0  0  0
  144.3282  131.1108  150.6192 H   0  0  0  0  0  0  0  0  0  0  0  0
  143.9918  133.7159  149.3247 H   0  0  0  0  0  0  0  0  0  0  0  0
  143.2525  133.2205  150.8460 H   0  0  0  0  0  0  0  0  0  0  0  0
  145.1794  135.1704  150.9028 H   0  0  0  0  0  0  0  0  0  0  0  0
  140.6025  135.3881  155.0001 H   0  0  0  0  0  0  0  0  0  0  0  0
  142.1730  133.7535  154.6512 H   0  0  0  0  0  0  0  0  0  0  0  0
  1  2  1  0  0  0  0
  2  3  1  0  0  0  0
  2  4  1  0  0  0  0
  2 19  1  0  0  0  0
  4  5  1  0  0  0  0
  5 18  1  0  0  0  0
  5  6  2  0  0  0  0
  6  7  1  0  0  0  0
  6 20  1  0  0  0  0
  7  8  2  0  0  0  0
  7 21  1  0  0  0  0
  8  9  1  0  0  0  0
  8 17  1  0  0  0  0
  9 10  1  0  0  0  0
  9 22  1  0  0  0  0
 10 15  1  0  0  0  0
 10 11  1  0  0  0  0
 10 23  1  0  0  0  0
 11 12  1  0  0  0  0
 11 24  1  0  0  0  0
 11 25  1  0  0  0  0
 12 16  1  0  0  0  0
 12 13  1  0  0  0  0
 12 26  1  0  0  0  0
 13 14  1  0  0  0  0
 13 27  1  0  0  0  0
 13 28  1  0  0  0  0
 14 15  1  0  0  0  0
 14 29  1  0  0  0  0
 14 30  1  0  0  0  0
 15 16  1  0  0  0  0
 15 31  1  0  0  0  0
 17 18  2  0  0  0  0
 17 33  1  0  0  0  0
 18 32  1  0  0  0  0
M  CHG  1  17   1
M  END
> <s_m_source_file>
AV-unprocessed.smi

> <i_m_source_file_index>
2837

> <i_lp_mmshare_version>
43012

> <i_f3d_flags>
0

> <s_epik_input>
RltDSF0oRilPYzFbY0hdW2NIXWMobltjSF0xKVtOSF1bQ0BIXShbQ0gyXVtDQEBIXTIzKVtDQEBIXShPMylbQ0gyXVtDSDJdMg==

> <s_epik_cmdline>
J2VwaWtfcHl0aG9uJywgJy1waCcsICc3LjAnLCAnLXRuJywgJzgnLCAnLW1hJywgJzIwMCcsICctbWV0YWxfYmluZGluZycsICctaW1hZScsICc8aW5maWxlLm1hZT4nLCAnLW9tYWUnLCAnPG91dGZpbGUubWFlPic=

> <r_lp_tautomer_probability>
0.999429

> <r_epik_Ionization_Penalty>
2.29716

> <r_epik_Ionization_Penalty_Charging>
2.29716

> <r_epik_Ionization_Penalty_Neutral>
1.42285e-06

> <r_epik_State_Penalty>
2.44762

> <r_epik_Charging_Adjusted_Penalty>
4.74478

> <i_epik_Tot_Q>
1

> <i_epik_Tot_abs_Q>
1

> <r_epik_Metal_State_Penalty>
6.53078

> <b_epik_Metal_Only>
0

> <s_lp_Force_Field>
OPLS_2005

> <r_lp_Energy>
46.8356

> <b_lp_Chiralities_Consistent>
1

> <s_lp_Variant>
AV-unprocessed.smi:2837-6

> <Gold.Version>
5.8.1

> <Gold.Id.Protein>
6NUR|6NUR_protein|mol2

> <Gold.PLP.Fitness>
42.6460

> <Gold.PLP.PLP>
-31.5485

> <Gold.PLP.part.hbond>
-2.3920

> <Gold.PLP.part.metal>
0.0000

> <Gold.PLP.part.buried>
-3.0512

> <Gold.PLP.part.nonpolar>
-27.9878

> <Gold.PLP.part.repulsive>
0.5553

> <Gold.PLP.ligand.clash>
0.0000

> <Gold.PLP.ligand.torsion>
0.2881

> <Gold.PLP.Chemscore.Hbond>
3.8872

> <Gold.PLP.Chemscore.CHOScore>
0.0000

> <Gold.PLP.Chemscore.Metal>
0.0000

> <Gold.Chemscore.Hbonds>
donor molecule, donor type, donor heavy atom, donor atom, acceptor molecule, acceptor atom, score
      L1  H     9    22       P1 10957  1.98
      L1  H    17    33       P1 10957  1.90

> <Gold.PLP.Chemscore.Internal.Correction>
0.0119

> <Gold.Rescore>
     Score         DG    S(hbond)    S(metal)    S(lipo)     H(rot)  DE(clash)    DE(int)     intcor
     13.36     -14.94       1.51        0.00      67.08       1.34       0.49       1.09       ----

> <Gold.Chemscore.Fitness>
13.3564

> <Gold.Chemscore.DG>
-14.9405

> <Gold.Chemscore.ZeroCoef>
-5.4800

> <Gold.Chemscore.Hbond>
1.5074

> <Gold.Chemscore.Metal>
0.0000

> <Gold.Chemscore.Lipo>
67.0784

> <Gold.Chemscore.Internal_Hbond>
0.0000

> <Gold.Chemscore.DEClash>
0.4942

> <Gold.Chemscore.DEInternal>
1.0898

> <Gold.Chemscore.Rot>
1.3368

> <Gold.Chemscore.Internal.Correction>
   9.000000E+99

> <Gold.Chemscore.Hbonds>
donor molecule, donor type, donor heavy atom, donor atom, acceptor molecule, acceptor atom, score
      L1  H     9    22       P1 10957  0.64
      L1  H    17    33       P1 10957  0.85

> <Gold.Chemscore.Hbond.Weighted>
-5.0346

> <Gold.Chemscore.Metal.Weighted>
-0.0000

> <Gold.Chemscore.Lipo.Weighted>
-7.8482

> <Gold.Chemscore.Internal_Hbond.Weighted>
0.0000

> <Gold.Chemscore.DEClash.Weighted>
0.4942

> <Gold.Chemscore.DEInternal.Weighted>
1.0898

> <Gold.Chemscore.Rot.Weighted>
3.4223

> <Gold.Chemscore.Internal.Correction.Weighted>
   9.000000E+99

> <Gold.Protein.RotatedTorsions>
[ 6907 6896 6895 6894 ] final  135.09 input  -60.11 | X-H torsion
[ 7974 7965 7964 7962 ] final -125.00 input  175.53 | X-H torsion
[ 8008 7997 7996 7995 ] final    9.77 input   59.86 | X-H torsion
[ 10167 10162 10161 10158 ] final -126.35 input  -65.29 | X-H torsion
[ 10718 10713 10712 10709 ] final   65.91 input   66.30 | X-H torsion
[ 10763 10752 10751 10750 ] final    1.93 input  -60.55 | X-H torsion
[ 11005 11000 10999 10996 ] final  118.87 input  -57.11 | X-H torsion

> <Gold.Protein.ActiveResidues>
 VAL166  LYS551  ARG553  GLY616  TRP617  ASP618  TYR619  PRO620  LYS621  CYS622 
 ASP623  PHE694  ASN695  SER759  ASP760  ASP761  ALA762  ILE779  LEU786  VAL792 
 PHE793  MET794  SER795  GLU796  ALA797  LYS798  CYS799  TRP800  GLU811  SER814 

> <Gold.Protein.RotatedAtoms>
  152.3043  133.5687  159.5638 H   0  0  0  0  0  0  0  0  0  0  0  0  # atno 6907 bound_to 6896
  150.7292  134.0246  159.3722 H   0  0  0  0  0  0  0  0  0  0  0  0  # atno 6908 bound_to 6896
  151.8144  135.0671  160.0468 H   0  0  0  0  0  0  0  0  0  0  0  0  # atno 6909 bound_to 6896
  145.0021  140.7830  143.4490 H   0  0  0  0  0  0  0  0  0  0  0  0  # atno 7974 bound_to 7965
  154.7845  140.2825  155.6038 H   0  0  0  0  0  0  0  0  0  0  0  0  # atno 8008 bound_to 7997
  156.2955  140.2616  156.2606 H   0  0  0  0  0  0  0  0  0  0  0  0  # atno 8009 bound_to 7997
  154.9744  140.0375  157.2239 H   0  0  0  0  0  0  0  0  0  0  0  0  # atno 8010 bound_to 7997
  139.9724  143.5831  152.2408 H   0  0  0  0  0  0  0  0  0  0  0  0  # atno 10167 bound_to 10162
  157.6136  130.9239  150.0039 H   0  0  0  0  0  0  0  0  0  0  0  0  # atno 10718 bound_to 10713
  153.3018  135.6956  153.7196 H   0  0  0  0  0  0  0  0  0  0  0  0  # atno 10763 bound_to 10752
  153.6107  135.3445  155.2978 H   0  0  0  0  0  0  0  0  0  0  0  0  # atno 10764 bound_to 10752
  154.8553  135.4362  154.2132 H   0  0  0  0  0  0  0  0  0  0  0  0  # atno 10765 bound_to 10752
  139.9125  134.9624  156.7569 H   0  0  0  0  0  0  0  0  0  0  0  0  # atno 11005 bound_to 11000
  145.2138  139.2191  143.5129 LP  0  0  0  0  0  0  0  0  0  0  0  0  # atno 17320 bound_to 7965
  146.3454  140.1982  142.8589 LP  0  0  0  0  0  0  0  0  0  0  0  0  # atno 17321 bound_to 7965
  139.6471  144.7659  151.2221 LP  0  0  0  0  0  0  0  0  0  0  0  0  # atno 17342 bound_to 10162
  140.7517  143.6221  150.8503 LP  0  0  0  0  0  0  0  0  0  0  0  0  # atno 17343 bound_to 10162
  156.1248  130.3645  149.9827 LP  0  0  0  0  0  0  0  0  0  0  0  0  # atno 17370 bound_to 10713
  156.7900  130.9252  151.3646 LP  0  0  0  0  0  0  0  0  0  0  0  0  # atno 17371 bound_to 10713
  140.6729  133.9543  155.7866 LP  0  0  0  0  0  0  0  0  0  0  0  0  # atno 17394 bound_to 11000
  141.0565  134.0409  157.3716 LP  0  0  0  0  0  0  0  0  0  0  0  0  # atno 17395 bound_to 11000

$$$$
