AV-unprocessed.smi:2206|AV-procd|sdf|8943|dock5
  -GOLD-   2272012163D 1   1.00000     0.00000
 Structure written by MMmdl.
 25 26  0  0  0  0  0  0  0  0  3 V2000
  153.4612  138.1527  154.6058 O   0  0  0  0  0  0  0  0  0  0  0  0
  152.5374  138.7242  155.2261 C   0  0  0  0  0  0  0  0  0  0  0  0
  152.6878  139.5233  156.1769 O   0  5  0  0  0  0  0  0  0  0  0  0
  151.1024  138.4351  154.7773 C   0  0  0  0  0  0  0  0  0  0  0  0
  150.6851  137.1010  155.3312 C   0  0  0  0  0  0  0  0  0  0  0  0
  150.5617  135.9193  154.6448 C   0  0  0  0  0  0  0  0  0  0  0  0
  150.0609  134.6167  155.6840 S   0  0  0  0  0  0  0  0  0  0  0  0
  150.0410  135.7304  157.0517 C   0  0  0  0  0  0  0  0  0  0  0  0
  149.7124  135.3908  158.3124 N   0  5  0  0  0  0  0  0  0  0  0  0
  148.7764  136.0663  159.0308 C   0  0  0  0  0  0  0  0  0  0  0  0
  148.2576  137.1127  158.6432 O   0  0  0  0  0  0  0  0  0  0  0  0
  148.4086  135.5535  160.2211 N   0  0  0  0  0  0  0  0  0  0  0  0
  147.4420  136.0972  161.1200 C   0  0  0  0  0  0  0  0  0  0  0  0
  147.8741  136.3432  162.5491 C   0  0  0  0  0  0  0  0  0  0  0  0
  146.9474  135.2015  162.2350 C   0  0  0  0  0  0  0  0  0  0  0  0
  150.4021  136.9685  156.6946 N   0  0  0  0  0  0  0  0  0  0  0  0
  150.4370  139.2244  155.1290 H   0  0  0  0  0  0  0  0  0  0  0  0
  151.0568  138.4458  153.6875 H   0  0  0  0  0  0  0  0  0  0  0  0
  150.7279  135.7417  153.5930 H   0  0  0  0  0  0  0  0  0  0  0  0
  148.8484  134.6891  160.5026 H   0  0  0  0  0  0  0  0  0  0  0  0
  146.7129  136.7961  160.7130 H   0  0  0  0  0  0  0  0  0  0  0  0
  148.8995  136.0977  162.8192 H   0  0  0  0  0  0  0  0  0  0  0  0
  147.4527  137.2076  163.0580 H   0  0  0  0  0  0  0  0  0  0  0  0
  145.9060  135.3017  162.5334 H   0  0  0  0  0  0  0  0  0  0  0  0
  147.3545  134.1937  162.2959 H   0  0  0  0  0  0  0  0  0  0  0  0
  1  2  2  0  0  0  0
  2  3  1  0  0  0  0
  2  4  1  0  0  0  0
  4  5  1  0  0  0  0
  4 17  1  0  0  0  0
  4 18  1  0  0  0  0
  5 16  1  0  0  0  0
  5  6  2  0  0  0  0
  6  7  1  0  0  0  0
  6 19  1  0  0  0  0
  7  8  1  0  0  0  0
  8  9  1  0  0  0  0
  8 16  2  0  0  0  0
  9 10  1  0  0  0  0
 10 11  2  0  0  0  0
 10 12  1  0  0  0  0
 12 13  1  0  0  0  0
 12 20  1  0  0  0  0
 13 15  1  0  0  0  0
 13 14  1  0  0  0  0
 13 21  1  0  0  0  0
 14 15  1  0  0  0  0
 14 22  1  0  0  0  0
 14 23  1  0  0  0  0
 15 24  1  0  0  0  0
 15 25  1  0  0  0  0
M  CHG  1   3  -1
M  CHG  1   9  -1
M  END
> <s_m_source_file>
AV-unprocessed.smi

> <i_m_source_file_index>
2206

> <i_lp_mmshare_version>
43012

> <i_f3d_flags>
0

> <s_epik_input>
Tz1DKFtPSF0pW0NIMl1jMVtjSF1zYyhuMSlbTkhdQyg9TylbTkhdW0NIXTJbQ0gyXVtDSDJdMg==

> <s_epik_cmdline>
J2VwaWtfcHl0aG9uJywgJy1waCcsICc3LjAnLCAnLXRuJywgJzgnLCAnLW1hJywgJzIwMCcsICctbWV0YWxfYmluZGluZycsICctaW1hZScsICc8aW5maWxlLm1hZT4nLCAnLW9tYWUnLCAnPG91dGZpbGUubWFlPic=

> <r_lp_tautomer_probability>
0.999

> <r_epik_Ionization_Penalty>
7.78494

> <r_epik_Ionization_Penalty_Charging>
6.1535

> <r_epik_Ionization_Penalty_Neutral>
1.63144

> <r_epik_State_Penalty>
6.15322

> <r_epik_Charging_Adjusted_Penalty>
12.3067

> <i_epik_Tot_Q>
-2

> <i_epik_Tot_abs_Q>
2

> <r_epik_Metal_State_Penalty>
2.09572

> <b_epik_Metal_Only>
1

> <s_lp_Force_Field>
OPLS_2005

> <r_lp_Energy>
21.0072

> <b_lp_Chiralities_Consistent>
1

> <s_lp_Variant>
AV-unprocessed.smi:2206-2

> <Gold.Version>
5.8.1

> <Gold.Id.Protein>
6NUR|6NUR_protein|mol2

> <Gold.PLP.Fitness>
40.1048

> <Gold.PLP.PLP>
-27.8336

> <Gold.PLP.part.hbond>
-2.8529

> <Gold.PLP.part.metal>
0.0000

> <Gold.PLP.part.buried>
-3.9682

> <Gold.PLP.part.nonpolar>
-20.9008

> <Gold.PLP.part.repulsive>
0.1641

> <Gold.PLP.ligand.clash>
0.0000

> <Gold.PLP.ligand.torsion>
1.0069

> <Gold.PLP.Chemscore.Hbond>
4.0000

> <Gold.PLP.Chemscore.CHOScore>
0.7350

> <Gold.PLP.Chemscore.Metal>
0.0000

> <Gold.Chemscore.Hbonds>
donor molecule, donor type, donor heavy atom, donor atom, acceptor molecule, acceptor atom, score
      P1  H  6896  6907       L1     9  2.00
      P1  H  7997  8008       L1     3  2.00
      L1  C     6    19       P1  7949  0.51

> <Gold.PLP.Chemscore.Internal.Correction>
0.0799

> <Gold.Rescore>
     Score         DG    S(hbond)    S(metal)    S(lipo)     H(rot)  DE(clash)    DE(int)     intcor
     10.40     -12.85       1.94        0.00      49.85       1.92       0.07       2.39       ----

> <Gold.Chemscore.Fitness>
10.3981

> <Gold.Chemscore.DG>
-12.8517

> <Gold.Chemscore.ZeroCoef>
-5.4800

> <Gold.Chemscore.Hbond>
1.9363

> <Gold.Chemscore.Metal>
0.0000

> <Gold.Chemscore.Lipo>
49.8485

> <Gold.Chemscore.Internal_Hbond>
0.0000

> <Gold.Chemscore.DEClash>
0.0650

> <Gold.Chemscore.DEInternal>
2.3886

> <Gold.Chemscore.Rot>
1.9249

> <Gold.Chemscore.Internal.Correction>
   9.000000E+99

> <Gold.Chemscore.Hbonds>
donor molecule, donor type, donor heavy atom, donor atom, acceptor molecule, acceptor atom, score
      P1  H  6896  6907       L1     9  0.63
      P1  H  7997  8008       L1     3  0.53

> <Gold.Chemscore.Hbond.Weighted>
-6.4673

> <Gold.Chemscore.Metal.Weighted>
-0.0000

> <Gold.Chemscore.Lipo.Weighted>
-5.8323

> <Gold.Chemscore.Internal_Hbond.Weighted>
0.0000

> <Gold.Chemscore.DEClash.Weighted>
0.0650

> <Gold.Chemscore.DEInternal.Weighted>
2.3886

> <Gold.Chemscore.Rot.Weighted>
4.9279

> <Gold.Chemscore.Internal.Correction.Weighted>
   9.000000E+99

> <Gold.Protein.RotatedTorsions>
[ 6907 6896 6895 6894 ] final  -83.75 input  -60.11 | X-H torsion
[ 7974 7965 7964 7962 ] final  -86.81 input  175.53 | X-H torsion
[ 8008 7997 7996 7995 ] final  -22.29 input   59.86 | X-H torsion
[ 10167 10162 10161 10158 ] final   88.84 input  -65.29 | X-H torsion
[ 10718 10713 10712 10709 ] final -144.80 input   66.30 | X-H torsion
[ 10763 10752 10751 10750 ] final  -57.10 input  -60.55 | X-H torsion
[ 11005 11000 10999 10996 ] final  124.91 input  -57.11 | X-H torsion

> <Gold.Protein.ActiveResidues>
 VAL166  LYS551  ARG553  GLY616  TRP617  ASP618  TYR619  PRO620  LYS621  CYS622 
 ASP623  PHE694  ASN695  SER759  ASP760  ASP761  ALA762  ILE779  LEU786  VAL792 
 PHE793  MET794  SER795  GLU796  ALA797  LYS798  CYS799  TRP800  GLU811  SER814 

> <Gold.Protein.RotatedAtoms>
  150.6882  134.3464  159.4889 H   0  0  0  0  0  0  0  0  0  0  0  0  # atno 6907 bound_to 6896
  152.1311  134.9131  160.0568 H   0  0  0  0  0  0  0  0  0  0  0  0  # atno 6908 bound_to 6896
  152.0301  133.3899  159.4330 H   0  0  0  0  0  0  0  0  0  0  0  0  # atno 6909 bound_to 6896
  145.4750  140.9559  143.1896 H   0  0  0  0  0  0  0  0  0  0  0  0  # atno 7974 bound_to 7965
  154.4653  140.2011  156.0135 H   0  0  0  0  0  0  0  0  0  0  0  0  # atno 8008 bound_to 7997
  156.0915  140.3257  155.7793 H   0  0  0  0  0  0  0  0  0  0  0  0  # atno 8009 bound_to 7997
  155.4948  140.0549  157.2939 H   0  0  0  0  0  0  0  0  0  0  0  0  # atno 8010 bound_to 7997
  139.8632  144.6533  150.9034 H   0  0  0  0  0  0  0  0  0  0  0  0  # atno 10167 bound_to 10162
  156.3746  130.7805  151.1990 H   0  0  0  0  0  0  0  0  0  0  0  0  # atno 10718 bound_to 10713
  154.2170  135.6384  153.5133 H   0  0  0  0  0  0  0  0  0  0  0  0  # atno 10763 bound_to 10752
  152.9977  135.5487  154.6154 H   0  0  0  0  0  0  0  0  0  0  0  0  # atno 10764 bound_to 10752
  154.5605  135.2908  155.0897 H   0  0  0  0  0  0  0  0  0  0  0  0  # atno 10765 bound_to 10752
  139.9381  134.9638  156.8480 H   0  0  0  0  0  0  0  0  0  0  0  0  # atno 11005 bound_to 11000
  144.7923  139.6304  143.7108 LP  0  0  0  0  0  0  0  0  0  0  0  0  # atno 17320 bound_to 7965
  146.2375  139.5934  142.9514 LP  0  0  0  0  0  0  0  0  0  0  0  0  # atno 17321 bound_to 7965
  140.7772  143.3726  151.1621 LP  0  0  0  0  0  0  0  0  0  0  0  0  # atno 17342 bound_to 10162
  139.7354  143.9007  152.3033 LP  0  0  0  0  0  0  0  0  0  0  0  0  # atno 17343 bound_to 10162
  157.7487  131.0362  150.4399 LP  0  0  0  0  0  0  0  0  0  0  0  0  # atno 17370 bound_to 10713
  156.4632  130.4036  149.6563 LP  0  0  0  0  0  0  0  0  0  0  0  0  # atno 17371 bound_to 10713
  140.6023  134.0160  155.7542 LP  0  0  0  0  0  0  0  0  0  0  0  0  # atno 17394 bound_to 11000
  141.1004  133.9777  157.3089 LP  0  0  0  0  0  0  0  0  0  0  0  0  # atno 17395 bound_to 11000

$$$$
