AV-unprocessed.smi:753|AV-procd|sdf|3606|dock10
  -GOLD-   22720 1 03D 1   1.00000     0.00000
 Structure written by MMmdl.
 44 46  0  0  0  0  0  0  0  0  2 V2000
  150.9941  142.2645  156.5266 C   0  0  0  0  0  0  0  0  0  0  0  0
  150.0363  141.5343  155.6092 C   0  0  0  0  0  0  0  0  0  0  0  0
  150.2118  140.1783  155.2593 C   0  0  0  0  0  0  0  0  0  0  0  0
  149.2798  139.5632  154.3980 C   0  0  0  0  0  0  0  0  0  0  0  0
  148.1908  140.3154  153.9055 C   0  0  0  0  0  0  0  0  0  0  0  0
  147.1760  139.6826  152.9747 C   0  0  0  0  0  0  0  0  0  0  0  0
  146.3645  138.5779  153.6700 C   0  0  0  0  0  0  0  0  0  0  0  0
  146.6698  137.2654  153.1155 N   0  0  0  0  0  0  0  0  0  0  0  0
  145.8294  136.2171  153.1128 C   0  0  0  0  0  0  0  0  0  0  0  0
  144.7021  136.2531  153.6025 O   0  0  0  0  0  0  0  0  0  0  0  0
  146.3141  135.1093  152.5247 N   0  0  0  0  0  0  0  0  0  0  0  0
  145.6532  133.8121  152.3598 C   0  0  1  0  0  0  0  0  0  0  0  0
  144.4811  133.8917  151.3568 C   0  0  0  0  0  0  0  0  0  0  0  0
  144.8587  132.8363  150.3008 C   0  0  2  0  0  0  0  0  0  0  0  0
  144.7424  131.4272  150.9141 C   0  0  0  0  0  0  0  0  0  0  0  0
  145.9495  131.3695  151.8708 C   0  0  0  0  0  0  0  0  0  0  0  0
  146.5802  132.7636  151.6986 C   0  0  1  0  0  0  0  0  0  0  0  0
  146.3676  133.0143  150.2088 C   0  0  0  0  0  0  0  0  0  0  0  0
  148.0668  141.6680  154.2886 C   0  0  0  0  0  0  0  0  0  0  0  0
  148.9818  142.2208  155.1146 N   0  3  0  0  0  0  0  0  0  0  0  0
  151.7702  141.5949  156.8984 H   0  0  0  0  0  0  0  0  0  0  0  0
  150.4602  142.6757  157.3840 H   0  0  0  0  0  0  0  0  0  0  0  0
  151.4775  143.0847  155.9953 H   0  0  0  0  0  0  0  0  0  0  0  0
  151.0487  139.6134  155.6434 H   0  0  0  0  0  0  0  0  0  0  0  0
  149.4022  138.5267  154.1188 H   0  0  0  0  0  0  0  0  0  0  0  0
  146.5114  140.4606  152.5964 H   0  0  0  0  0  0  0  0  0  0  0  0
  147.6962  139.2749  152.1069 H   0  0  0  0  0  0  0  0  0  0  0  0
  146.5964  138.5581  154.7351 H   0  0  0  0  0  0  0  0  0  0  0  0
  145.2948  138.7784  153.5882 H   0  0  0  0  0  0  0  0  0  0  0  0
  147.5797  137.1450  152.6944 H   0  0  0  0  0  0  0  0  0  0  0  0
  147.2552  135.1687  152.1637 H   0  0  0  0  0  0  0  0  0  0  0  0
  145.2908  133.4647  153.3290 H   0  0  0  0  0  0  0  0  0  0  0  0
  143.5200  133.6786  151.8262 H   0  0  0  0  0  0  0  0  0  0  0  0
  144.4107  134.8791  150.8974 H   0  0  0  0  0  0  0  0  0  0  0  0
  144.3225  132.9498  149.3581 H   0  0  0  0  0  0  0  0  0  0  0  0
  143.7932  131.2782  151.4303 H   0  0  0  0  0  0  0  0  0  0  0  0
  144.8287  130.6599  150.1438 H   0  0  0  0  0  0  0  0  0  0  0  0
  145.6574  131.1667  152.9018 H   0  0  0  0  0  0  0  0  0  0  0  0
  146.6456  130.5890  151.5607 H   0  0  0  0  0  0  0  0  0  0  0  0
  147.6191  132.8068  152.0272 H   0  0  0  0  0  0  0  0  0  0  0  0
  146.8532  132.2739  149.5703 H   0  0  0  0  0  0  0  0  0  0  0  0
  146.6673  134.0136  149.8890 H   0  0  0  0  0  0  0  0  0  0  0  0
  147.2716  142.3212  153.9600 H   0  0  0  0  0  0  0  0  0  0  0  0
  148.8720  143.2009  155.3765 H   0  0  0  0  0  0  0  0  0  0  0  0
  1  2  1  0  0  0  0
  1 21  1  0  0  0  0
  1 22  1  0  0  0  0
  1 23  1  0  0  0  0
  2 20  1  0  0  0  0
  2  3  2  0  0  0  0
  3  4  1  0  0  0  0
  3 24  1  0  0  0  0
  4  5  2  0  0  0  0
  4 25  1  0  0  0  0
  5  6  1  0  0  0  0
  5 19  1  0  0  0  0
  6  7  1  0  0  0  0
  6 26  1  0  0  0  0
  6 27  1  0  0  0  0
  7  8  1  0  0  0  0
  7 28  1  0  0  0  0
  7 29  1  0  0  0  0
  8  9  1  0  0  0  0
  8 30  1  0  0  0  0
  9 10  2  0  0  0  0
  9 11  1  0  0  0  0
 11 12  1  0  0  0  0
 11 31  1  0  0  0  0
 12 17  1  0  0  0  0
 12 13  1  0  0  0  0
 12 32  1  0  0  0  0
 13 14  1  0  0  0  0
 13 33  1  0  0  0  0
 13 34  1  0  0  0  0
 14 18  1  0  0  0  0
 14 15  1  0  0  0  0
 14 35  1  0  0  0  0
 15 16  1  0  0  0  0
 15 36  1  0  0  0  0
 15 37  1  0  0  0  0
 16 17  1  0  0  0  0
 16 38  1  0  0  0  0
 16 39  1  0  0  0  0
 17 18  1  0  0  0  0
 17 40  1  0  0  0  0
 18 41  1  0  0  0  0
 18 42  1  0  0  0  0
 19 20  2  0  0  0  0
 19 43  1  0  0  0  0
 20 44  1  0  0  0  0
M  CHG  1  20   1
M  END
> <s_m_source_file>
AV-unprocessed.smi

> <i_m_source_file_index>
753

> <i_lp_mmshare_version>
43012

> <i_f3d_flags>
0

> <s_epik_input>
W0NIM11jMVtjSF1bY0hdYyhbY0hdbjEpW0NIMl1bQ0gyXVtOSF1DKD1PKVtOSF1bQ0BIXShbQ0gyXVtDQEBIXTIzKVtDQEBIXShbQ0gyXTMpW0NIMl1bQ0gyXTI=

> <s_epik_cmdline>
J2VwaWtfcHl0aG9uJywgJy1waCcsICc3LjAnLCAnLXRuJywgJzgnLCAnLW1hJywgJzIwMCcsICctbWV0YWxfYmluZGluZycsICctaW1hZScsICc8aW5maWxlLm1hZT4nLCAnLW9tYWUnLCAnPG91dGZpbGUubWFlPic=

> <r_epik_Ionization_Penalty>
1.41708

> <r_epik_Ionization_Penalty_Charging>
1.41702

> <r_epik_Ionization_Penalty_Neutral>
5.73163e-05

> <r_epik_State_Penalty>
1.50048

> <r_epik_Charging_Adjusted_Penalty>
2.9175

> <i_epik_Tot_Q>
1

> <i_epik_Tot_abs_Q>
1

> <r_epik_Metal_State_Penalty>
1.55295

> <b_epik_Metal_Only>
0

> <s_lp_Force_Field>
OPLS_2005

> <r_lp_Energy>
57.1024

> <b_lp_Chiralities_Consistent>
1

> <s_lp_Variant>
AV-unprocessed.smi:753-8

> <Gold.Version>
5.8.1

> <Gold.Id.Protein>
6NUR|6NUR_protein|mol2

> <Gold.PLP.Fitness>
49.3201

> <Gold.PLP.PLP>
-38.5430

> <Gold.PLP.part.hbond>
-3.0000

> <Gold.PLP.part.metal>
0.0000

> <Gold.PLP.part.buried>
-3.0200

> <Gold.PLP.part.nonpolar>
-32.2893

> <Gold.PLP.part.repulsive>
0.2927

> <Gold.PLP.ligand.clash>
0.0000

> <Gold.PLP.ligand.torsion>
0.6248

> <Gold.PLP.Chemscore.Hbond>
4.0000

> <Gold.PLP.Chemscore.CHOScore>
0.0000

> <Gold.PLP.Chemscore.Metal>
0.0000

> <Gold.Chemscore.Hbonds>
donor molecule, donor type, donor heavy atom, donor atom, acceptor molecule, acceptor atom, score
      L1  H     8    30       P1  7948  1.00
      L1  H    11    31       P1  7948  1.00
      L1  H    20    44       P1  8028  2.00

> <Gold.PLP.Chemscore.Internal.Correction>
0.0267

> <Gold.Rescore>
     Score         DG    S(hbond)    S(metal)    S(lipo)     H(rot)  DE(clash)    DE(int)     intcor
     23.12     -23.81       2.91        0.00     106.33       1.50       0.08       0.61       ----

> <Gold.Chemscore.Fitness>
23.1185

> <Gold.Chemscore.DG>
-23.8066

> <Gold.Chemscore.ZeroCoef>
-5.4800

> <Gold.Chemscore.Hbond>
2.9140

> <Gold.Chemscore.Metal>
0.0000

> <Gold.Chemscore.Lipo>
106.3294

> <Gold.Chemscore.Internal_Hbond>
0.0000

> <Gold.Chemscore.DEClash>
0.0821

> <Gold.Chemscore.DEInternal>
0.6061

> <Gold.Chemscore.Rot>
1.5027

> <Gold.Chemscore.Internal.Correction>
   9.000000E+99

> <Gold.Chemscore.Hbonds>
donor molecule, donor type, donor heavy atom, donor atom, acceptor molecule, acceptor atom, score
      L1  H     8    30       P1  7948  0.99
      L1  H    11    31       P1  7948  0.92
      L1  H    20    44       P1  8028  0.93

> <Gold.Chemscore.Hbond.Weighted>
-9.7329

> <Gold.Chemscore.Metal.Weighted>
-0.0000

> <Gold.Chemscore.Lipo.Weighted>
-12.4405

> <Gold.Chemscore.Internal_Hbond.Weighted>
0.0000

> <Gold.Chemscore.DEClash.Weighted>
0.0821

> <Gold.Chemscore.DEInternal.Weighted>
0.6061

> <Gold.Chemscore.Rot.Weighted>
3.8468

> <Gold.Chemscore.Internal.Correction.Weighted>
   9.000000E+99

> <Gold.Protein.RotatedTorsions>
[ 6907 6896 6895 6894 ] final -174.11 input  -60.11 | X-H torsion
[ 7974 7965 7964 7962 ] final   68.07 input  175.53 | X-H torsion
[ 8008 7997 7996 7995 ] final -147.83 input   59.86 | X-H torsion
[ 10167 10162 10161 10158 ] final -120.02 input  -65.29 | X-H torsion
[ 10718 10713 10712 10709 ] final  -54.86 input   66.30 | X-H torsion
[ 10763 10752 10751 10750 ] final   99.26 input  -60.55 | X-H torsion
[ 11005 11000 10999 10996 ] final  -63.85 input  -57.11 | X-H torsion

> <Gold.Protein.ActiveResidues>
 VAL166  LYS551  ARG553  GLY616  TRP617  ASP618  TYR619  PRO620  LYS621  CYS622 
 ASP623  PHE694  ASN695  SER759  ASP760  ASP761  ALA762  ILE779  LEU786  VAL792 
 PHE793  MET794  SER795  GLU796  ALA797  LYS798  CYS799  TRP800  GLU811  SER814 

> <Gold.Protein.RotatedAtoms>
  151.5671  133.3395  159.2982 H   0  0  0  0  0  0  0  0  0  0  0  0  # atno 6907 bound_to 6896
  150.8389  134.7676  159.6927 H   0  0  0  0  0  0  0  0  0  0  0  0  # atno 6908 bound_to 6896
  152.4460  134.5500  159.9915 H   0  0  0  0  0  0  0  0  0  0  0  0  # atno 6909 bound_to 6896
  145.8070  139.3012  143.1121 H   0  0  0  0  0  0  0  0  0  0  0  0  # atno 7974 bound_to 7965
  155.5819  140.0644  157.2781 H   0  0  0  0  0  0  0  0  0  0  0  0  # atno 8008 bound_to 7997
  154.4330  140.1850  156.1032 H   0  0  0  0  0  0  0  0  0  0  0  0  # atno 8009 bound_to 7997
  156.0298  140.3307  155.7131 H   0  0  0  0  0  0  0  0  0  0  0  0  # atno 8010 bound_to 7997
  140.0403  143.5160  152.2133 H   0  0  0  0  0  0  0  0  0  0  0  0  # atno 10167 bound_to 10162
  156.1416  130.4154  150.0094 H   0  0  0  0  0  0  0  0  0  0  0  0  # atno 10718 bound_to 10713
  153.2992  135.4119  155.1237 H   0  0  0  0  0  0  0  0  0  0  0  0  # atno 10763 bound_to 10752
  154.8544  135.3537  154.5875 H   0  0  0  0  0  0  0  0  0  0  0  0  # atno 10764 bound_to 10752
  153.6300  135.7061  153.5337 H   0  0  0  0  0  0  0  0  0  0  0  0  # atno 10765 bound_to 10752
  141.1406  133.6657  156.5743 H   0  0  0  0  0  0  0  0  0  0  0  0  # atno 11005 bound_to 11000
  145.9817  140.8677  143.0111 LP  0  0  0  0  0  0  0  0  0  0  0  0  # atno 17320 bound_to 7965
  144.6762  140.2090  143.7379 LP  0  0  0  0  0  0  0  0  0  0  0  0  # atno 17321 bound_to 7965
  139.6018  144.7585  151.3154 LP  0  0  0  0  0  0  0  0  0  0  0  0  # atno 17342 bound_to 10162
  140.7263  143.6995  150.7857 LP  0  0  0  0  0  0  0  0  0  0  0  0  # atno 17343 bound_to 10162
  156.7978  130.9279  151.3646 LP  0  0  0  0  0  0  0  0  0  0  0  0  # atno 17370 bound_to 10713
  157.6580  130.8941  149.9770 LP  0  0  0  0  0  0  0  0  0  0  0  0  # atno 17371 bound_to 10713
  140.3888  134.7459  157.4708 LP  0  0  0  0  0  0  0  0  0  0  0  0  # atno 17394 bound_to 11000
  140.0582  134.6033  155.8780 LP  0  0  0  0  0  0  0  0  0  0  0  0  # atno 17395 bound_to 11000

$$$$
