AV-unprocessed.smi:278|AV-procd|sdf|2092|dock1
  -GOLD-   2262021373D 1   1.00000     0.00000
 Structure written by MMmdl.
 50 54  0  0  0  0  0  0  0  0  1 V2000
  148.2514  132.8423  158.0886 O   0  0  0  0  0  0  0  0  0  0  0  0
  149.2868  133.5986  157.3683 S   0  0  0  0  0  0  0  0  0  0  0  0
  149.9888  134.7168  158.0174 O   0  0  0  0  0  0  0  0  0  0  0  0
  150.5259  132.4225  156.6985 C   0  0  0  0  0  0  0  0  0  0  0  0
  150.2154  132.2755  155.2029 C   0  0  0  0  0  0  0  0  0  0  0  0
  149.5744  133.5779  154.6901 C   0  0  2  0  0  0  0  0  0  0  0  0
  150.5673  134.7305  154.5065 C   0  0  0  0  0  0  0  0  0  0  0  0
  149.7880  135.9417  154.7211 N   0  0  0  0  0  0  0  0  0  0  0  0
  150.3901  137.1572  154.8016 C   0  0  0  0  0  0  0  0  0  0  0  0
  151.5770  137.3467  154.1654 N   0  0  0  0  0  0  0  0  0  0  0  0
  152.2023  138.5254  154.2298 C   0  0  0  0  0  0  0  0  0  0  0  0
  151.8221  139.6379  154.8592 N   0  0  0  0  0  0  0  0  0  0  0  0
  150.6248  139.4631  155.4869 C   0  0  0  0  0  0  0  0  0  0  0  0
  149.8456  138.2705  155.5074 C   0  0  0  0  0  0  0  0  0  0  0  0
  148.6818  138.4867  156.2385 N   0  0  0  0  0  0  0  0  0  0  0  0
  148.7759  139.7248  156.6391 C   0  0  0  0  0  0  0  0  0  0  0  0
  149.9166  140.3820  156.2398 N   0  0  0  0  0  0  0  0  0  0  0  0
  150.2884  141.7489  156.5549 C   0  0  0  0  0  0  0  0  0  0  0  0
  150.5351  141.9750  158.0620 C   0  0  1  0  0  0  0  0  0  0  0  0
  151.6641  141.2047  158.4220 O   0  0  0  0  0  0  0  0  0  0  0  0
  150.7803  143.4497  158.4544 C   0  0  2  0  0  0  0  0  0  0  0  0
  152.0355  144.0726  157.8415 C   0  0  0  0  0  0  0  0  0  0  0  0
  152.3332  145.2386  158.7685 C   0  0  0  0  0  0  0  0  0  0  0  0
  151.6237  144.8609  160.0714 C   0  0  0  0  0  0  0  0  0  0  0  0
  151.0723  143.5721  159.8392 O   0  0  0  0  0  0  0  0  0  0  0  0
  148.6188  135.6491  155.5407 C   0  0  0  0  0  0  0  0  0  0  0  0
  148.6056  134.1264  155.7384 C   0  0  2  0  0  0  0  0  0  0  0  0
  149.0488  133.4097  153.7492 H   0  0  0  0  0  0  0  0  0  0  0  0
  147.6064  133.7020  155.6364 H   0  0  0  0  0  0  0  0  0  0  0  0
  151.5147  132.8560  156.8483 H   0  0  0  0  0  0  0  0  0  0  0  0
  150.4781  131.4764  157.2379 H   0  0  0  0  0  0  0  0  0  0  0  0
  151.1030  132.0044  154.6304 H   0  0  0  0  0  0  0  0  0  0  0  0
  149.4977  131.4644  155.0746 H   0  0  0  0  0  0  0  0  0  0  0  0
  151.3686  134.6795  155.2450 H   0  0  0  0  0  0  0  0  0  0  0  0
  151.0173  134.7156  153.5132 H   0  0  0  0  0  0  0  0  0  0  0  0
  153.1433  138.5851  153.7030 H   0  0  0  0  0  0  0  0  0  0  0  0
  148.0165  140.1910  157.2501 H   0  0  0  0  0  0  0  0  0  0  0  0
  151.1830  141.9986  155.9828 H   0  0  0  0  0  0  0  0  0  0  0  0
  149.4964  142.4099  156.1995 H   0  0  0  0  0  0  0  0  0  0  0  0
  149.6856  141.5917  158.6285 H   0  0  0  0  0  0  0  0  0  0  0  0
  152.3020  141.2657  157.7275 H   0  0  0  0  0  0  0  0  0  0  0  0
  149.9074  144.0605  158.2153 H   0  0  0  0  0  0  0  0  0  0  0  0
  152.8613  143.3601  157.8728 H   0  0  0  0  0  0  0  0  0  0  0  0
  151.8952  144.3824  156.8056 H   0  0  0  0  0  0  0  0  0  0  0  0
  153.4059  145.3779  158.9067 H   0  0  0  0  0  0  0  0  0  0  0  0
  151.9212  146.1665  158.3701 H   0  0  0  0  0  0  0  0  0  0  0  0
  152.3021  144.8372  160.9243 H   0  0  0  0  0  0  0  0  0  0  0  0
  150.8209  145.5651  160.2934 H   0  0  0  0  0  0  0  0  0  0  0  0
  148.6307  136.1851  156.4901 H   0  0  0  0  0  0  0  0  0  0  0  0
  147.7285  135.9624  154.9945 H   0  0  0  0  0  0  0  0  0  0  0  0
  1  2  2  0  0  0  0
  2 27  1  0  0  0  0
  2  3  2  0  0  0  0
  2  4  1  0  0  0  0
  4  5  1  0  0  0  0
  4 30  1  0  0  0  0
  4 31  1  0  0  0  0
  5  6  1  0  0  0  0
  5 32  1  0  0  0  0
  5 33  1  0  0  0  0
  6 28  1  0  0  0  0
  6 27  1  0  0  0  0
  6  7  1  0  0  0  0
  7  8  1  0  0  0  0
  7 34  1  0  0  0  0
  7 35  1  0  0  0  0
  8  9  1  0  0  0  0
  8 26  1  0  0  0  0
  9 14  1  0  0  0  0
  9 10  2  0  0  0  0
 10 11  1  0  0  0  0
 11 12  2  0  0  0  0
 11 36  1  0  0  0  0
 12 13  1  0  0  0  0
 13 17  1  0  0  0  0
 13 14  2  0  0  0  0
 14 15  1  0  0  0  0
 15 16  2  0  0  0  0
 16 17  1  0  0  0  0
 16 37  1  0  0  0  0
 17 18  1  0  0  0  0
 18 19  1  0  0  0  0
 18 38  1  0  0  0  0
 18 39  1  0  0  0  0
 19 20  1  0  0  0  0
 19 21  1  0  0  0  0
 19 40  1  0  0  0  0
 20 41  1  0  0  0  0
 21 25  1  0  0  0  0
 21 22  1  0  0  0  0
 21 42  1  0  0  0  0
 22 23  1  0  0  0  0
 22 43  1  0  0  0  0
 22 44  1  0  0  0  0
 23 24  1  0  0  0  0
 23 45  1  0  0  0  0
 23 46  1  0  0  0  0
 24 25  1  0  0  0  0
 24 47  1  0  0  0  0
 24 48  1  0  0  0  0
 26 27  1  0  0  0  0
 26 49  1  0  0  0  0
 26 50  1  0  0  0  0
 27 29  1  0  0  0  0
M  END
> <s_m_source_file>
AV-unprocessed.smi

> <i_m_source_file_index>
278

> <i_lp_mmshare_version>
43012

> <i_f3d_flags>
0

> <s_epik_input>
W0NIMl0xW0NIMl1TKD1PKSg9TylbQ0BASF0oW0NAQEhdMTIpW0NIMl1OKFtDSDJdMiljKG5bY0hdbjMpYyhjMzQpbltjSF1uNFtDSDJdW0NASF0oW09IXSlbQ0BASF01W0NIMl1bQ0gyXVtDSDJdTzU=

> <s_epik_cmdline>
J2VwaWtfcHl0aG9uJywgJy1waCcsICc3LjAnLCAnLXRuJywgJzgnLCAnLW1hJywgJzIwMCcsICctbWV0YWxfYmluZGluZycsICctaW1hZScsICc8aW5maWxlLm1hZT4nLCAnLW9tYWUnLCAnPG91dGZpbGUubWFlPic=

> <r_lp_tautomer_probability>
1

> <r_epik_Ionization_Penalty>
0.000636766

> <r_epik_Ionization_Penalty_Charging>
0

> <r_epik_Ionization_Penalty_Neutral>
0.000636766

> <r_epik_State_Penalty>
0.000329976

> <r_epik_Charging_Adjusted_Penalty>
0.000329976

> <i_epik_Tot_Q>
0

> <i_epik_Tot_abs_Q>
0

> <r_epik_Metal_State_Penalty>
-0

> <b_epik_Metal_Only>
0

> <s_lp_Force_Field>
OPLS_2005

> <r_lp_Energy>
49.0353

> <b_lp_Chiralities_Consistent>
1

> <s_lp_Variant>
AV-unprocessed.smi:278-6

> <Gold.Version>
5.8.1

> <Gold.Id.Protein>
6NUR|6NUR_protein|mol2

> <Gold.PLP.Fitness>
49.6287

> <Gold.PLP.PLP>
-40.9785

> <Gold.PLP.part.hbond>
-3.1617

> <Gold.PLP.part.metal>
0.0000

> <Gold.PLP.part.buried>
-6.4647

> <Gold.PLP.part.nonpolar>
-32.2764

> <Gold.PLP.part.repulsive>
0.2741

> <Gold.PLP.ligand.clash>
0.0000

> <Gold.PLP.ligand.torsion>
0.2180

> <Gold.PLP.Chemscore.Hbond>
2.9199

> <Gold.PLP.Chemscore.CHOScore>
0.0000

> <Gold.PLP.Chemscore.Metal>
0.0000

> <Gold.Chemscore.Hbonds>
donor molecule, donor type, donor heavy atom, donor atom, acceptor molecule, acceptor atom, score
      P1  H  6896  6907       L1     3  0.90
      P1  H  7989  7998       L1    12  1.00
      P1  H 10752 10763       L1    10  0.65

> <Gold.PLP.Chemscore.Internal.Correction>
0.3265

> <Gold.Rescore>
     Score         DG    S(hbond)    S(metal)    S(lipo)     H(rot)  DE(clash)    DE(int)     intcor
     15.14     -16.57       1.79        0.00      90.29       2.13       0.04       1.38       ----

> <Gold.Chemscore.Fitness>
15.1442

> <Gold.Chemscore.DG>
-16.5692

> <Gold.Chemscore.ZeroCoef>
-5.4800

> <Gold.Chemscore.Hbond>
1.7935

> <Gold.Chemscore.Metal>
0.0000

> <Gold.Chemscore.Lipo>
90.2858

> <Gold.Chemscore.Internal_Hbond>
0.0000

> <Gold.Chemscore.DEClash>
0.0442

> <Gold.Chemscore.DEInternal>
1.3807

> <Gold.Chemscore.Rot>
2.1346

> <Gold.Chemscore.Internal.Correction>
   9.000000E+99

> <Gold.Chemscore.Hbonds>
donor molecule, donor type, donor heavy atom, donor atom, acceptor molecule, acceptor atom, score
      P1  H  6896  6907       L1     3  0.48
      P1  H  7989  7998       L1    12  0.30
      P1  H 10752 10763       L1    10  0.48

> <Gold.Chemscore.Hbond.Weighted>
-5.9904

> <Gold.Chemscore.Metal.Weighted>
-0.0000

> <Gold.Chemscore.Lipo.Weighted>
-10.5634

> <Gold.Chemscore.Internal_Hbond.Weighted>
0.0000

> <Gold.Chemscore.DEClash.Weighted>
0.0442

> <Gold.Chemscore.DEInternal.Weighted>
1.3807

> <Gold.Chemscore.Rot.Weighted>
5.4646

> <Gold.Chemscore.Internal.Correction.Weighted>
   9.000000E+99

> <Gold.Protein.RotatedTorsions>
[ 6907 6896 6895 6894 ] final -101.08 input  -60.11 | X-H torsion
[ 7974 7965 7964 7962 ] final -143.38 input  175.53 | X-H torsion
[ 8008 7997 7996 7995 ] final  -73.51 input   59.86 | X-H torsion
[ 10167 10162 10161 10158 ] final  -80.28 input  -65.29 | X-H torsion
[ 10718 10713 10712 10709 ] final   16.69 input   66.30 | X-H torsion
[ 10763 10752 10751 10750 ] final   43.16 input  -60.55 | X-H torsion
[ 11005 11000 10999 10996 ] final  -17.33 input  -57.11 | X-H torsion

> <Gold.Protein.ActiveResidues>
 VAL166  LYS551  ARG553  GLY616  TRP617  ASP618  TYR619  PRO620  LYS621  CYS622 
 ASP623  PHE694  ASN695  SER759  ASP760  ASP761  ALA762  ILE779  LEU786  VAL792 
 PHE793  MET794  SER795  GLU796  ALA797  LYS798  CYS799  TRP800  GLU811  SER814 

> <Gold.Protein.RotatedAtoms>
  150.7140  134.0788  159.3890 H   0  0  0  0  0  0  0  0  0  0  0  0  # atno 6907 bound_to 6896
  151.8772  135.0465  160.0494 H   0  0  0  0  0  0  0  0  0  0  0  0  # atno 6908 bound_to 6896
  152.2596  133.5250  159.5410 H   0  0  0  0  0  0  0  0  0  0  0  0  # atno 6909 bound_to 6896
  144.8374  140.5841  143.5475 H   0  0  0  0  0  0  0  0  0  0  0  0  # atno 7974 bound_to 7965
  154.5253  140.0778  156.8247 H   0  0  0  0  0  0  0  0  0  0  0  0  # atno 8008 bound_to 7997
  155.3488  140.3411  155.4221 H   0  0  0  0  0  0  0  0  0  0  0  0  # atno 8009 bound_to 7997
  156.1725  140.1624  156.8409 H   0  0  0  0  0  0  0  0  0  0  0  0  # atno 8010 bound_to 7997
  140.4517  143.2481  151.8479 H   0  0  0  0  0  0  0  0  0  0  0  0  # atno 10167 bound_to 10162
  157.0714  130.6350  149.5806 H   0  0  0  0  0  0  0  0  0  0  0  0  # atno 10718 bound_to 10713
  152.9867  135.6110  154.3066 H   0  0  0  0  0  0  0  0  0  0  0  0  # atno 10763 bound_to 10752
  154.2783  135.2777  155.2710 H   0  0  0  0  0  0  0  0  0  0  0  0  # atno 10764 bound_to 10752
  154.5060  135.5854  153.6624 H   0  0  0  0  0  0  0  0  0  0  0  0  # atno 10765 bound_to 10752
  140.8158  133.8106  155.9609 H   0  0  0  0  0  0  0  0  0  0  0  0  # atno 11005 bound_to 11000
  145.4767  139.1499  143.3784 LP  0  0  0  0  0  0  0  0  0  0  0  0  # atno 17320 bound_to 7965
  146.2671  140.4902  142.8830 LP  0  0  0  0  0  0  0  0  0  0  0  0  # atno 17321 bound_to 7965
  139.4797  144.5112  151.8930 LP  0  0  0  0  0  0  0  0  0  0  0  0  # atno 17342 bound_to 10162
  140.4199  144.2257  150.5887 LP  0  0  0  0  0  0  0  0  0  0  0  0  # atno 17343 bound_to 10162
  155.9949  130.5014  150.7439 LP  0  0  0  0  0  0  0  0  0  0  0  0  # atno 17370 bound_to 10713
  157.4875  131.0908  151.0466 LP  0  0  0  0  0  0  0  0  0  0  0  0  # atno 17371 bound_to 10713
  140.9151  134.2212  157.4962 LP  0  0  0  0  0  0  0  0  0  0  0  0  # atno 17394 bound_to 11000
  139.8711  134.9767  156.4932 LP  0  0  0  0  0  0  0  0  0  0  0  0  # atno 17395 bound_to 11000

$$$$
