AV-unprocessed.smi:3031|AV-procd|sdf|11553|dock3
  -GOLD-   2272016513D 1   1.00000     0.00000
 Structure written by MMmdl.
 46 47  0  0  0  0  0  0  0  0  1 V2000
  152.0184  145.4591  159.2936 C   0  0  0  0  0  0  0  0  0  0  0  0
  151.8057  144.0523  158.8143 C   0  0  0  0  0  0  0  0  0  0  0  0
  152.0326  142.8431  159.5307 C   0  0  0  0  0  0  0  0  0  0  0  0
  151.7437  141.7635  158.8229 N   0  0  0  0  0  0  0  0  0  0  0  0
  151.3204  142.2432  157.6344 N   0  0  0  0  0  0  0  0  0  0  0  0
  150.9067  141.3234  156.5893 C   0  0  0  0  0  0  0  0  0  0  0  0
  150.9951  139.8488  157.0304 C   0  0  2  0  0  0  0  0  0  0  0  0
  151.2459  138.9348  155.8173 C   0  0  0  0  0  0  0  0  0  0  0  0
  149.7783  139.4677  157.7564 N   0  0  0  0  0  0  0  0  0  0  0  0
  149.4386  138.0456  157.7143 C   0  0  0  0  0  0  0  0  0  0  0  0
  149.0758  137.5143  159.1115 C   0  0  2  0  0  0  0  0  0  0  0  0
  150.2409  137.4759  159.9084 O   0  0  0  0  0  0  0  0  0  0  0  0
  148.3706  136.1382  159.1970 C   0  0  0  0  0  0  0  0  0  0  0  0
  148.1414  135.5866  160.5383 N   0  0  0  0  0  0  0  0  0  0  0  0
  147.3873  134.3321  160.5150 C   0  0  0  0  0  0  0  0  0  0  0  0
  147.1333  133.7846  161.9299 C   0  0  0  0  0  0  0  0  0  0  0  0
  146.4456  134.7612  162.7037 O   0  0  0  0  0  0  0  0  0  0  0  0
  147.1563  135.9914  162.7877 C   0  0  0  0  0  0  0  0  0  0  0  0
  147.4093  136.5371  161.3715 C   0  0  0  0  0  0  0  0  0  0  0  0
  151.3513  143.6210  157.6001 C   0  0  0  0  0  0  0  0  0  0  0  0
  151.3316  145.7159  160.1002 H   0  0  0  0  0  0  0  0  0  0  0  0
  151.8653  146.1879  158.4971 H   0  0  0  0  0  0  0  0  0  0  0  0
  153.0299  145.6058  159.6726 H   0  0  0  0  0  0  0  0  0  0  0  0
  152.3965  142.7192  160.5401 H   0  0  0  0  0  0  0  0  0  0  0  0
  149.8885  141.5722  156.2861 H   0  0  0  0  0  0  0  0  0  0  0  0
  151.5409  141.4964  155.7187 H   0  0  0  0  0  0  0  0  0  0  0  0
  151.8510  139.7540  157.7002 H   0  0  0  0  0  0  0  0  0  0  0  0
  152.1198  139.2668  155.2561 H   0  0  0  0  0  0  0  0  0  0  0  0
  150.3954  138.9386  155.1347 H   0  0  0  0  0  0  0  0  0  0  0  0
  151.4362  137.9037  156.1134 H   0  0  0  0  0  0  0  0  0  0  0  0
  149.8596  139.7643  158.7238 H   0  0  0  0  0  0  0  0  0  0  0  0
  148.6297  137.8458  157.0146 H   0  0  0  0  0  0  0  0  0  0  0  0
  150.2966  137.4842  157.3422 H   0  0  0  0  0  0  0  0  0  0  0  0
  148.4148  138.2461  159.5777 H   0  0  0  0  0  0  0  0  0  0  0  0
  150.0745  136.9115  160.6481 H   0  0  0  0  0  0  0  0  0  0  0  0
  147.4069  136.2658  158.7011 H   0  0  0  0  0  0  0  0  0  0  0  0
  148.9033  135.4088  158.5851 H   0  0  0  0  0  0  0  0  0  0  0  0
  146.4298  134.4851  160.0148 H   0  0  0  0  0  0  0  0  0  0  0  0
  147.9099  133.5705  159.9456 H   0  0  0  0  0  0  0  0  0  0  0  0
  146.5297  132.8782  161.8825 H   0  0  0  0  0  0  0  0  0  0  0  0
  148.0733  133.5193  162.4162 H   0  0  0  0  0  0  0  0  0  0  0  0
  146.5702  136.7029  163.3696 H   0  0  0  0  0  0  0  0  0  0  0  0
  148.0980  135.8410  163.3178 H   0  0  0  0  0  0  0  0  0  0  0  0
  147.9684  137.4705  161.4465 H   0  0  0  0  0  0  0  0  0  0  0  0
  146.4548  136.7824  160.9028 H   0  0  0  0  0  0  0  0  0  0  0  0
  151.0461  144.1752  156.7247 H   0  0  0  0  0  0  0  0  0  0  0  0
  1  2  1  0  0  0  0
  1 21  1  0  0  0  0
  1 22  1  0  0  0  0
  1 23  1  0  0  0  0
  2 20  2  0  0  0  0
  2  3  1  0  0  0  0
  3  4  2  0  0  0  0
  3 24  1  0  0  0  0
  4  5  1  0  0  0  0
  5  6  1  0  0  0  0
  5 20  1  0  0  0  0
  6  7  1  0  0  0  0
  6 25  1  0  0  0  0
  6 26  1  0  0  0  0
  7  8  1  0  0  0  0
  7  9  1  0  0  0  0
  7 27  1  0  0  0  0
  8 28  1  0  0  0  0
  8 29  1  0  0  0  0
  8 30  1  0  0  0  0
  9 10  1  0  0  0  0
  9 31  1  0  0  0  0
 10 11  1  0  0  0  0
 10 32  1  0  0  0  0
 10 33  1  0  0  0  0
 11 12  1  0  0  0  0
 11 13  1  0  0  0  0
 11 34  1  0  0  0  0
 12 35  1  0  0  0  0
 13 14  1  0  0  0  0
 13 36  1  0  0  0  0
 13 37  1  0  0  0  0
 14 19  1  0  0  0  0
 14 15  1  0  0  0  0
 15 16  1  0  0  0  0
 15 38  1  0  0  0  0
 15 39  1  0  0  0  0
 16 17  1  0  0  0  0
 16 40  1  0  0  0  0
 16 41  1  0  0  0  0
 17 18  1  0  0  0  0
 18 19  1  0  0  0  0
 18 42  1  0  0  0  0
 18 43  1  0  0  0  0
 19 44  1  0  0  0  0
 19 45  1  0  0  0  0
 20 46  1  0  0  0  0
M  END
> <s_m_source_file>
AV-unprocessed.smi

> <i_m_source_file_index>
3031

> <i_lp_mmshare_version>
43012

> <i_f3d_flags>
0

> <s_epik_input>
W0NIM11jMVtjSF1ubihbY0hdMSlbQ0gyXVtDQEhdKFtDSDNdKVtOSF1bQ0gyXVtDQEhdKFtPSF0pW0NIMl1OMltDSDJdW0NIMl1PW0NIMl1bQ0gyXTI=

> <s_epik_cmdline>
J2VwaWtfcHl0aG9uJywgJy1waCcsICc3LjAnLCAnLXRuJywgJzgnLCAnLW1hJywgJzIwMCcsICctbWV0YWxfYmluZGluZycsICctaW1hZScsICc8aW5maWxlLm1hZT4nLCAnLW9tYWUnLCAnPG91dGZpbGUubWFlPic=

> <r_lp_tautomer_probability>
1

> <r_epik_Ionization_Penalty>
2.8101

> <r_epik_Ionization_Penalty_Charging>
0

> <r_epik_Ionization_Penalty_Neutral>
2.8101

> <r_epik_State_Penalty>
2.12351

> <r_epik_Charging_Adjusted_Penalty>
2.12351

> <i_epik_Tot_Q>
0

> <i_epik_Tot_abs_Q>
0

> <r_epik_Metal_State_Penalty>
2.12345

> <b_epik_Metal_Only>
0

> <s_lp_Force_Field>
OPLS_2005

> <r_lp_Energy>
35.4854

> <b_lp_Chiralities_Consistent>
1

> <s_lp_Variant>
AV-unprocessed.smi:3031-13

> <Gold.Version>
5.8.1

> <Gold.Id.Protein>
6NUR|6NUR_protein|mol2

> <Gold.PLP.Fitness>
42.6551

> <Gold.PLP.PLP>
-41.7029

> <Gold.PLP.part.hbond>
-1.0000

> <Gold.PLP.part.metal>
0.0000

> <Gold.PLP.part.buried>
-7.0348

> <Gold.PLP.part.nonpolar>
-34.8062

> <Gold.PLP.part.repulsive>
0.0000

> <Gold.PLP.ligand.clash>
0.0000

> <Gold.PLP.ligand.torsion>
1.0867

> <Gold.PLP.Chemscore.Hbond>
0.0000

> <Gold.PLP.Chemscore.CHOScore>
1.0000

> <Gold.PLP.Chemscore.Metal>
0.0000

> <Gold.Chemscore.Hbonds>
donor molecule, donor type, donor heavy atom, donor atom, acceptor molecule, acceptor atom, score
      L1  C    20    46       P1  8028  1.00

> <Gold.PLP.Chemscore.Internal.Correction>
0.1257

> <Gold.Rescore>
     Score         DG    S(hbond)    S(metal)    S(lipo)     H(rot)  DE(clash)    DE(int)     intcor
     10.68     -12.02       0.00        0.00     111.30       2.53       0.04       1.29       ----

> <Gold.Chemscore.Fitness>
10.6772

> <Gold.Chemscore.DG>
-12.0165

> <Gold.Chemscore.ZeroCoef>
-5.4800

> <Gold.Chemscore.Hbond>
0.0000

> <Gold.Chemscore.Metal>
0.0000

> <Gold.Chemscore.Lipo>
111.2963

> <Gold.Chemscore.Internal_Hbond>
0.0000

> <Gold.Chemscore.DEClash>
0.0450

> <Gold.Chemscore.DEInternal>
1.2944

> <Gold.Chemscore.Rot>
2.5333

> <Gold.Chemscore.Internal.Correction>
   9.000000E+99

> <Gold.Chemscore.Hbond.Weighted>
-0.0000

> <Gold.Chemscore.Metal.Weighted>
-0.0000

> <Gold.Chemscore.Lipo.Weighted>
-13.0217

> <Gold.Chemscore.Internal_Hbond.Weighted>
0.0000

> <Gold.Chemscore.DEClash.Weighted>
0.0450

> <Gold.Chemscore.DEInternal.Weighted>
1.2944

> <Gold.Chemscore.Rot.Weighted>
6.4852

> <Gold.Chemscore.Internal.Correction.Weighted>
   9.000000E+99

> <Gold.Protein.RotatedTorsions>
[ 6907 6896 6895 6894 ] final -121.90 input  -60.11 | X-H torsion
[ 7974 7965 7964 7962 ] final   81.25 input  175.53 | X-H torsion
[ 8008 7997 7996 7995 ] final   28.63 input   59.86 | X-H torsion
[ 10167 10162 10161 10158 ] final  -11.63 input  -65.29 | X-H torsion
[ 10718 10713 10712 10709 ] final  -37.58 input   66.30 | X-H torsion
[ 10763 10752 10751 10750 ] final  -36.15 input  -60.55 | X-H torsion
[ 11005 11000 10999 10996 ] final -172.82 input  -57.11 | X-H torsion

> <Gold.Protein.ActiveResidues>
 VAL166  LYS551  ARG553  GLY616  TRP617  ASP618  TYR619  PRO620  LYS621  CYS622 
 ASP623  PHE694  ASN695  SER759  ASP760  ASP761  ALA762  ILE779  LEU786  VAL792 
 PHE793  MET794  SER795  GLU796  ALA797  LYS798  CYS799  TRP800  GLU811  SER814 

> <Gold.Protein.RotatedAtoms>
  150.8526  133.7764  159.3019 H   0  0  0  0  0  0  0  0  0  0  0  0  # atno 6907 bound_to 6896
  151.5431  135.1066  159.9941 H   0  0  0  0  0  0  0  0  0  0  0  0  # atno 6908 bound_to 6896
  152.4564  133.7689  159.6844 H   0  0  0  0  0  0  0  0  0  0  0  0  # atno 6909 bound_to 6896
  145.6406  139.2425  143.2032 H   0  0  0  0  0  0  0  0  0  0  0  0  # atno 7974 bound_to 7965
  155.0616  140.3191  155.4659 H   0  0  0  0  0  0  0  0  0  0  0  0  # atno 8008 bound_to 7997
  156.2811  140.2128  156.5688 H   0  0  0  0  0  0  0  0  0  0  0  0  # atno 8009 bound_to 7997
  154.7127  140.0496  157.0553 H   0  0  0  0  0  0  0  0  0  0  0  0  # atno 8010 bound_to 7997
  140.7143  143.5618  150.9187 H   0  0  0  0  0  0  0  0  0  0  0  0  # atno 10167 bound_to 10162
  156.3136  130.4256  149.8027 H   0  0  0  0  0  0  0  0  0  0  0  0  # atno 10718 bound_to 10713
  153.8749  135.6827  153.4771 H   0  0  0  0  0  0  0  0  0  0  0  0  # atno 10763 bound_to 10752
  153.1266  135.4716  154.9280 H   0  0  0  0  0  0  0  0  0  0  0  0  # atno 10764 bound_to 10752
  154.7696  135.3234  154.8167 H   0  0  0  0  0  0  0  0  0  0  0  0  # atno 10765 bound_to 10752
  140.4927  134.5969  157.4960 H   0  0  0  0  0  0  0  0  0  0  0  0  # atno 11005 bound_to 11000
  146.1283  140.7219  142.9424 LP  0  0  0  0  0  0  0  0  0  0  0  0  # atno 17320 bound_to 7965
  144.7159  140.4206  143.7045 LP  0  0  0  0  0  0  0  0  0  0  0  0  # atno 17321 bound_to 7965
  139.9344  143.6455  152.3069 LP  0  0  0  0  0  0  0  0  0  0  0  0  # atno 17342 bound_to 10162
  139.6917  144.7646  151.1426 LP  0  0  0  0  0  0  0  0  0  0  0  0  # atno 17343 bound_to 10162
  156.5361  130.8279  151.3253 LP  0  0  0  0  0  0  0  0  0  0  0  0  # atno 17370 bound_to 10713
  157.7396  130.9835  150.2326 LP  0  0  0  0  0  0  0  0  0  0  0  0  # atno 17371 bound_to 10713
  139.9760  134.7215  155.9950 LP  0  0  0  0  0  0  0  0  0  0  0  0  # atno 17394 bound_to 11000
  141.1476  133.6553  156.3914 LP  0  0  0  0  0  0  0  0  0  0  0  0  # atno 17395 bound_to 11000

$$$$
