AV-unprocessed.smi:975|AV-procd|sdf|4301|dock10
  -GOLD-   22720 2203D 1   1.00000     0.00000
 Structure written by MMmdl.
 44 45  0  0  0  0  0  0  0  0  1 V2000
  145.0259  143.6621  154.4598 C   0  0  0  0  0  0  0  0  0  0  0  0
  146.1534  142.6797  154.7014 C   0  0  0  0  0  0  0  0  0  0  0  0
  146.8835  142.1025  153.5920 C   0  0  0  0  0  0  0  0  0  0  0  0
  147.8732  141.2318  153.8435 C   0  0  0  0  0  0  0  0  0  0  0  0
  148.2248  140.8643  155.1549 N   0  0  0  0  0  0  0  0  0  0  0  0
  149.3389  139.9107  155.3073 C   0  0  0  0  0  0  0  0  0  0  0  0
  150.6342  140.5149  155.8775 C   0  0  0  0  0  0  0  0  0  0  0  0
  151.6967  140.3096  155.2921 O   0  0  0  0  0  0  0  0  0  0  0  0
  150.5497  141.2536  156.9977 N   0  0  0  0  0  0  0  0  0  0  0  0
  151.6585  141.9108  157.6840 C   0  0  0  0  0  0  0  0  0  0  0  0
  151.8100  141.2658  159.0808 C   0  0  0  0  0  0  0  0  0  0  0  0
  152.8421  141.9108  160.0235 C   0  0  0  0  0  0  0  0  0  0  0  0
  152.2738  142.9612  161.0048 C   0  0  0  0  0  0  0  0  0  0  0  0
  152.2379  144.4083  160.4796 C   0  0  0  0  0  0  0  0  0  0  0  0
  150.9346  144.8570  159.7845 C   0  0  0  0  0  0  0  0  0  0  0  0
  150.3899  143.9525  158.6639 C   0  0  0  0  0  0  0  0  0  0  0  0
  151.4556  143.4423  157.6740 C   0  0  0  0  0  0  0  0  0  0  0  0
  147.5816  141.3790  156.2461 C   0  0  0  0  0  0  0  0  0  0  0  0
  147.8968  141.0751  157.3965 O   0  0  0  0  0  0  0  0  0  0  0  0
  146.4971  142.3252  155.9593 C   0  0  0  0  0  0  0  0  0  0  0  0
  144.8898  143.8528  153.3948 H   0  0  0  0  0  0  0  0  0  0  0  0
  145.2387  144.6119  154.9510 H   0  0  0  0  0  0  0  0  0  0  0  0
  144.0897  143.2702  154.8581 H   0  0  0  0  0  0  0  0  0  0  0  0
  146.6397  142.3684  152.5736 H   0  0  0  0  0  0  0  0  0  0  0  0
  148.4609  140.7697  153.0633 H   0  0  0  0  0  0  0  0  0  0  0  0
  149.0404  139.0738  155.9411 H   0  0  0  0  0  0  0  0  0  0  0  0
  149.5749  139.4591  154.3425 H   0  0  0  0  0  0  0  0  0  0  0  0
  149.6355  141.3722  157.4095 H   0  0  0  0  0  0  0  0  0  0  0  0
  152.5763  141.7007  157.1312 H   0  0  0  0  0  0  0  0  0  0  0  0
  150.8475  141.1914  159.5880 H   0  0  0  0  0  0  0  0  0  0  0  0
  152.1124  140.2298  158.9198 H   0  0  0  0  0  0  0  0  0  0  0  0
  153.2529  141.1057  160.6341 H   0  0  0  0  0  0  0  0  0  0  0  0
  153.6923  142.3046  159.4654 H   0  0  0  0  0  0  0  0  0  0  0  0
  151.2987  142.6605  161.3897 H   0  0  0  0  0  0  0  0  0  0  0  0
  152.9332  142.9622  161.8737 H   0  0  0  0  0  0  0  0  0  0  0  0
  152.3832  145.0749  161.3307 H   0  0  0  0  0  0  0  0  0  0  0  0
  153.1016  144.5931  159.8412 H   0  0  0  0  0  0  0  0  0  0  0  0
  150.1538  144.9769  160.5365 H   0  0  0  0  0  0  0  0  0  0  0  0
  151.1009  145.8544  159.3760 H   0  0  0  0  0  0  0  0  0  0  0  0
  149.8363  143.1241  159.1035 H   0  0  0  0  0  0  0  0  0  0  0  0
  149.6370  144.5147  158.1103 H   0  0  0  0  0  0  0  0  0  0  0  0
  152.4120  143.9337  157.8431 H   0  0  0  0  0  0  0  0  0  0  0  0
  151.1783  143.7576  156.6671 H   0  0  0  0  0  0  0  0  0  0  0  0
  145.9564  142.7524  156.7915 H   0  0  0  0  0  0  0  0  0  0  0  0
  1  2  1  0  0  0  0
  1 21  1  0  0  0  0
  1 22  1  0  0  0  0
  1 23  1  0  0  0  0
  2 20  2  0  0  0  0
  2  3  1  0  0  0  0
  3  4  2  0  0  0  0
  3 24  1  0  0  0  0
  4  5  1  0  0  0  0
  4 25  1  0  0  0  0
  5  6  1  0  0  0  0
  5 18  1  0  0  0  0
  6  7  1  0  0  0  0
  6 26  1  0  0  0  0
  6 27  1  0  0  0  0
  7  8  2  0  0  0  0
  7  9  1  0  0  0  0
  9 10  1  0  0  0  0
  9 28  1  0  0  0  0
 10 17  1  0  0  0  0
 10 11  1  0  0  0  0
 10 29  1  0  0  0  0
 11 12  1  0  0  0  0
 11 30  1  0  0  0  0
 11 31  1  0  0  0  0
 12 13  1  0  0  0  0
 12 32  1  0  0  0  0
 12 33  1  0  0  0  0
 13 14  1  0  0  0  0
 13 34  1  0  0  0  0
 13 35  1  0  0  0  0
 14 15  1  0  0  0  0
 14 36  1  0  0  0  0
 14 37  1  0  0  0  0
 15 16  1  0  0  0  0
 15 38  1  0  0  0  0
 15 39  1  0  0  0  0
 16 17  1  0  0  0  0
 16 40  1  0  0  0  0
 16 41  1  0  0  0  0
 17 42  1  0  0  0  0
 17 43  1  0  0  0  0
 18 19  2  0  0  0  0
 18 20  1  0  0  0  0
 20 44  1  0  0  0  0
M  END
> <s_m_source_file>
AV-unprocessed.smi

> <i_m_source_file_index>
975

> <i_lp_mmshare_version>
43012

> <i_f3d_flags>
0

> <s_epik_input>
W0NIM11jMVtjSF1bY0hdbihjKD1PKVtjSF0xKVtDSDJdQyg9TylbTkhdW0NIXTJbQ0gyXVtDSDJdW0NIMl1bQ0gyXVtDSDJdW0NIMl1bQ0gyXTI=

> <s_epik_cmdline>
J2VwaWtfcHl0aG9uJywgJy1waCcsICc3LjAnLCAnLXRuJywgJzgnLCAnLW1hJywgJzIwMCcsICctbWV0YWxfYmluZGluZycsICctaW1hZScsICc8aW5maWxlLm1hZT4nLCAnLW9tYWUnLCAnPG91dGZpbGUubWFlPic=

> <r_lp_tautomer_probability>
1

> <r_epik_Ionization_Penalty>
5.54847e-07

> <r_epik_Ionization_Penalty_Charging>
5.34632e-07

> <r_epik_Ionization_Penalty_Neutral>
2.02148e-08

> <r_epik_State_Penalty>
-0

> <r_epik_Charging_Adjusted_Penalty>
5.34632e-07

> <i_epik_Tot_Q>
0

> <i_epik_Tot_abs_Q>
0

> <r_epik_Metal_State_Penalty>
-0

> <b_epik_Metal_Only>
0

> <s_lp_Force_Field>
OPLS_2005

> <r_lp_Energy>
31.8723

> <b_lp_Chiralities_Consistent>
1

> <s_lp_Variant>
AV-unprocessed.smi:975-1

> <Gold.Version>
5.8.1

> <Gold.Id.Protein>
6NUR|6NUR_protein|mol2

> <Gold.PLP.Fitness>
48.2547

> <Gold.PLP.PLP>
-43.0490

> <Gold.PLP.part.hbond>
-1.0000

> <Gold.PLP.part.metal>
0.0000

> <Gold.PLP.part.buried>
-8.6073

> <Gold.PLP.part.nonpolar>
-35.0220

> <Gold.PLP.part.repulsive>
0.1081

> <Gold.PLP.ligand.clash>
0.0000

> <Gold.PLP.ligand.torsion>
0.2065

> <Gold.PLP.Chemscore.Hbond>
0.8640

> <Gold.PLP.Chemscore.CHOScore>
1.0000

> <Gold.PLP.Chemscore.Metal>
0.0000

> <Gold.Chemscore.Hbonds>
donor molecule, donor type, donor heavy atom, donor atom, acceptor molecule, acceptor atom, score
      P1  H  7989  7998       L1     8  0.86
      L1  C     4    25       P1  7957  1.00

> <Gold.PLP.Chemscore.Internal.Correction>
0.0268

> <Gold.Rescore>
     Score         DG    S(hbond)    S(metal)    S(lipo)     H(rot)  DE(clash)    DE(int)     intcor
     17.12     -18.03       0.80        0.00     113.56       1.34       0.45       0.45       ----

> <Gold.Chemscore.Fitness>
17.1196

> <Gold.Chemscore.DG>
-18.0267

> <Gold.Chemscore.ZeroCoef>
-5.4800

> <Gold.Chemscore.Hbond>
0.8019

> <Gold.Chemscore.Metal>
0.0000

> <Gold.Chemscore.Lipo>
113.5581

> <Gold.Chemscore.Internal_Hbond>
0.0000

> <Gold.Chemscore.DEClash>
0.4529

> <Gold.Chemscore.DEInternal>
0.4542

> <Gold.Chemscore.Rot>
1.3352

> <Gold.Chemscore.Internal.Correction>
   9.000000E+99

> <Gold.Chemscore.Hbonds>
donor molecule, donor type, donor heavy atom, donor atom, acceptor molecule, acceptor atom, score
      P1  H  7989  7998       L1     8  0.72

> <Gold.Chemscore.Hbond.Weighted>
-2.6785

> <Gold.Chemscore.Metal.Weighted>
-0.0000

> <Gold.Chemscore.Lipo.Weighted>
-13.2863

> <Gold.Chemscore.Internal_Hbond.Weighted>
0.0000

> <Gold.Chemscore.DEClash.Weighted>
0.4529

> <Gold.Chemscore.DEInternal.Weighted>
0.4542

> <Gold.Chemscore.Rot.Weighted>
3.4181

> <Gold.Chemscore.Internal.Correction.Weighted>
   9.000000E+99

> <Gold.Protein.RotatedTorsions>
[ 6907 6896 6895 6894 ] final -148.63 input  -60.11 | X-H torsion
[ 7974 7965 7964 7962 ] final   55.71 input  175.53 | X-H torsion
[ 8008 7997 7996 7995 ] final -156.98 input   59.86 | X-H torsion
[ 10167 10162 10161 10158 ] final -134.48 input  -65.29 | X-H torsion
[ 10718 10713 10712 10709 ] final -144.85 input   66.30 | X-H torsion
[ 10763 10752 10751 10750 ] final  109.49 input  -60.55 | X-H torsion
[ 11005 11000 10999 10996 ] final  175.45 input  -57.11 | X-H torsion

> <Gold.Protein.ActiveResidues>
 VAL166  LYS551  ARG553  GLY616  TRP617  ASP618  TYR619  PRO620  LYS621  CYS622 
 ASP623  PHE694  ASN695  SER759  ASP760  ASP761  ALA762  ILE779  LEU786  VAL792 
 PHE793  MET794  SER795  GLU796  ALA797  LYS798  CYS799  TRP800  GLU811  SER814 

> <Gold.Protein.RotatedAtoms>
  151.1726  133.4775  159.2593 H   0  0  0  0  0  0  0  0  0  0  0  0  # atno 6907 bound_to 6896
  151.1341  135.0145  159.8606 H   0  0  0  0  0  0  0  0  0  0  0  0  # atno 6908 bound_to 6896
  152.5461  134.1626  159.8617 H   0  0  0  0  0  0  0  0  0  0  0  0  # atno 6909 bound_to 6896
  145.9475  139.3942  143.0326 H   0  0  0  0  0  0  0  0  0  0  0  0  # atno 7974 bound_to 7965
  155.7254  140.0795  157.2312 H   0  0  0  0  0  0  0  0  0  0  0  0  # atno 8008 bound_to 7997
  154.4039  140.1605  156.2503 H   0  0  0  0  0  0  0  0  0  0  0  0  # atno 8009 bound_to 7997
  155.9158  140.3401  155.6137 H   0  0  0  0  0  0  0  0  0  0  0  0  # atno 8010 bound_to 7997
  139.8877  143.6761  152.2617 H   0  0  0  0  0  0  0  0  0  0  0  0  # atno 10167 bound_to 10162
  156.3752  130.7808  151.1994 H   0  0  0  0  0  0  0  0  0  0  0  0  # atno 10718 bound_to 10713
  153.4354  135.3778  155.2196 H   0  0  0  0  0  0  0  0  0  0  0  0  # atno 10763 bound_to 10752
  154.8752  135.3850  154.4217 H   0  0  0  0  0  0  0  0  0  0  0  0  # atno 10764 bound_to 10752
  153.4755  135.7087  153.6031 H   0  0  0  0  0  0  0  0  0  0  0  0  # atno 10765 bound_to 10752
  140.3624  134.7101  157.4339 H   0  0  0  0  0  0  0  0  0  0  0  0  # atno 11005 bound_to 11000
  145.8217  140.9676  143.0895 LP  0  0  0  0  0  0  0  0  0  0  0  0  # atno 17320 bound_to 7965
  144.6789  140.0049  143.7484 LP  0  0  0  0  0  0  0  0  0  0  0  0  # atno 17321 bound_to 7965
  139.7138  144.7615  151.1067 LP  0  0  0  0  0  0  0  0  0  0  0  0  # atno 17342 bound_to 10162
  140.7733  143.5296  150.9439 LP  0  0  0  0  0  0  0  0  0  0  0  0  # atno 17343 bound_to 10162
  157.7487  131.0360  150.4391 LP  0  0  0  0  0  0  0  0  0  0  0  0  # atno 17370 bound_to 10713
  156.4625  130.4035  149.6567 LP  0  0  0  0  0  0  0  0  0  0  0  0  # atno 17371 bound_to 10713
  140.0616  134.5987  155.8742 LP  0  0  0  0  0  0  0  0  0  0  0  0  # atno 17394 bound_to 11000
  141.1980  133.6599  156.5770 LP  0  0  0  0  0  0  0  0  0  0  0  0  # atno 17395 bound_to 11000

$$$$
