AV-unprocessed.smi:1496|AV-procd|sdf|6055|dock3
  -GOLD-   22720 6173D 1   1.00000     0.00000
 Structure written by MMmdl.
 42 43  0  0  0  0  0  0  0  0  1 V2000
  150.2581  138.8483  156.3540 C   0  0  0  0  0  0  0  0  0  0  0  0
  150.2867  139.1944  154.8508 C   0  0  0  0  0  0  0  0  0  0  0  0
  151.4860  138.4970  154.1899 C   0  0  0  0  0  0  0  0  0  0  0  0
  148.9776  138.7744  154.1411 C   0  0  0  0  0  0  0  0  0  0  0  0
  147.8329  139.6003  154.5186 N   0  0  0  0  0  0  0  0  0  0  0  0
  146.5999  139.1990  153.8406 C   0  0  0  0  0  0  0  0  0  0  0  0
  146.5328  139.5374  152.3379 C   0  0  0  0  0  0  0  0  0  0  0  0
  145.8548  138.4953  151.5735 N   0  0  0  0  0  0  0  0  0  0  0  0
  146.0318  137.1777  151.7415 C   0  0  0  0  0  0  0  0  0  0  0  0
  146.7738  136.6981  152.5981 O   0  0  0  0  0  0  0  0  0  0  0  0
  145.2907  136.4758  150.8668 N   0  0  0  0  0  0  0  0  0  0  0  0
  145.1965  135.0668  150.7004 C   0  0  0  0  0  0  0  0  0  0  0  0
  144.1157  134.4007  150.0724 C   0  0  0  0  0  0  0  0  0  0  0  0
  144.1411  132.9953  149.9866 C   0  0  0  0  0  0  0  0  0  0  0  0
  145.2396  132.3067  150.5362 C   0  0  0  0  0  0  0  0  0  0  0  0
  146.2706  132.9268  151.1472 N   0  0  0  0  0  0  0  0  0  0  0  0
  146.2394  134.2742  151.2254 C   0  0  0  0  0  0  0  0  0  0  0  0
  148.1481  140.9966  154.2522 C   0  0  0  0  0  0  0  0  0  0  0  0
  149.4121  141.4455  154.9988 C   0  0  0  0  0  0  0  0  0  0  0  0
  150.5059  140.5958  154.6599 O   0  0  0  0  0  0  0  0  0  0  0  0
  150.1814  137.7711  156.5057 H   0  0  0  0  0  0  0  0  0  0  0  0
  149.4102  139.3026  156.8662 H   0  0  0  0  0  0  0  0  0  0  0  0
  151.1659  139.1881  156.8531 H   0  0  0  0  0  0  0  0  0  0  0  0
  151.4078  137.4123  154.2702 H   0  0  0  0  0  0  0  0  0  0  0  0
  152.4245  138.7972  154.6573 H   0  0  0  0  0  0  0  0  0  0  0  0
  151.5535  138.7464  153.1304 H   0  0  0  0  0  0  0  0  0  0  0  0
  149.1191  138.8349  153.0606 H   0  0  0  0  0  0  0  0  0  0  0  0
  148.7796  137.7265  154.3646 H   0  0  0  0  0  0  0  0  0  0  0  0
  146.4769  138.1200  153.9433 H   0  0  0  0  0  0  0  0  0  0  0  0
  145.7412  139.6421  154.3471 H   0  0  0  0  0  0  0  0  0  0  0  0
  146.0216  140.4911  152.1961 H   0  0  0  0  0  0  0  0  0  0  0  0
  147.5324  139.6733  151.9261 H   0  0  0  0  0  0  0  0  0  0  0  0
  145.2255  138.8026  150.8466 H   0  0  0  0  0  0  0  0  0  0  0  0
  144.6870  137.0194  150.2675 H   0  0  0  0  0  0  0  0  0  0  0  0
  143.2668  134.9282  149.6676 H   0  0  0  0  0  0  0  0  0  0  0  0
  143.3333  132.4571  149.5132 H   0  0  0  0  0  0  0  0  0  0  0  0
  145.2888  131.2290  150.4883 H   0  0  0  0  0  0  0  0  0  0  0  0
  147.0801  134.7356  151.7232 H   0  0  0  0  0  0  0  0  0  0  0  0
  148.2865  141.1476  153.1805 H   0  0  0  0  0  0  0  0  0  0  0  0
  147.3122  141.6299  154.5515 H   0  0  0  0  0  0  0  0  0  0  0  0
  149.6659  142.4696  154.7252 H   0  0  0  0  0  0  0  0  0  0  0  0
  149.2466  141.4431  156.0763 H   0  0  0  0  0  0  0  0  0  0  0  0
  1  2  1  0  0  0  0
  1 21  1  0  0  0  0
  1 22  1  0  0  0  0
  1 23  1  0  0  0  0
  2 20  1  0  0  0  0
  2  3  1  0  0  0  0
  2  4  1  0  0  0  0
  3 24  1  0  0  0  0
  3 25  1  0  0  0  0
  3 26  1  0  0  0  0
  4  5  1  0  0  0  0
  4 27  1  0  0  0  0
  4 28  1  0  0  0  0
  5  6  1  0  0  0  0
  5 18  1  0  0  0  0
  6  7  1  0  0  0  0
  6 29  1  0  0  0  0
  6 30  1  0  0  0  0
  7  8  1  0  0  0  0
  7 31  1  0  0  0  0
  7 32  1  0  0  0  0
  8  9  1  0  0  0  0
  8 33  1  0  0  0  0
  9 10  2  0  0  0  0
  9 11  1  0  0  0  0
 11 12  1  0  0  0  0
 11 34  1  0  0  0  0
 12 17  1  0  0  0  0
 12 13  2  0  0  0  0
 13 14  1  0  0  0  0
 13 35  1  0  0  0  0
 14 15  2  0  0  0  0
 14 36  1  0  0  0  0
 15 16  1  0  0  0  0
 15 37  1  0  0  0  0
 16 17  2  0  0  0  0
 17 38  1  0  0  0  0
 18 19  1  0  0  0  0
 18 39  1  0  0  0  0
 18 40  1  0  0  0  0
 19 20  1  0  0  0  0
 19 41  1  0  0  0  0
 19 42  1  0  0  0  0
M  END
> <s_m_source_file>
AV-unprocessed.smi

> <i_m_source_file_index>
1496

> <i_lp_mmshare_version>
43012

> <i_f3d_flags>
0

> <s_epik_input>
W0NIM11DMShbQ0gzXSlbQ0gyXU4oW0NIMl1bQ0gyXU8xKVtDSDJdW0NIMl1bTkhdQyg9TylbTkhdYzJbY0hdW2NIXVtjSF1uW2NIXTI=

> <s_epik_cmdline>
J2VwaWtfcHl0aG9uJywgJy1waCcsICc3LjAnLCAnLXRuJywgJzgnLCAnLW1hJywgJzIwMCcsICctbWV0YWxfYmluZGluZycsICctaW1hZScsICc8aW5maWxlLm1hZT4nLCAnLW9tYWUnLCAnPG91dGZpbGUubWFlPic=

> <r_epik_Ionization_Penalty>
0.270703

> <r_epik_Ionization_Penalty_Charging>
0

> <r_epik_Ionization_Penalty_Neutral>
0.270703

> <r_epik_State_Penalty>
0.268226

> <r_epik_Charging_Adjusted_Penalty>
0.268226

> <i_epik_Tot_Q>
0

> <i_epik_Tot_abs_Q>
0

> <r_epik_Metal_State_Penalty>
0.26483

> <b_epik_Metal_Only>
0

> <s_lp_Force_Field>
OPLS_2005

> <r_lp_Energy>
30.2545

> <b_lp_Chiralities_Consistent>
1

> <s_lp_Variant>
AV-unprocessed.smi:1496-1

> <Gold.Version>
5.8.1

> <Gold.Id.Protein>
6NUR|6NUR_protein|mol2

> <Gold.PLP.Fitness>
42.6239

> <Gold.PLP.PLP>
-31.6661

> <Gold.PLP.part.hbond>
-3.4457

> <Gold.PLP.part.metal>
0.0000

> <Gold.PLP.part.buried>
-2.2293

> <Gold.PLP.part.nonpolar>
-31.2053

> <Gold.PLP.part.repulsive>
5.3201

> <Gold.PLP.ligand.clash>
0.0000

> <Gold.PLP.ligand.torsion>
0.5186

> <Gold.PLP.Chemscore.Hbond>
2.9920

> <Gold.PLP.Chemscore.CHOScore>
1.0000

> <Gold.PLP.Chemscore.Metal>
0.0000

> <Gold.Chemscore.Hbonds>
donor molecule, donor type, donor heavy atom, donor atom, acceptor molecule, acceptor atom, score
      L1  H     8    33       P1 10171  1.00
      L1  H    11    34       P1 10171  1.00
      P1  H  7989  7998       L1    20  0.96
      L1  C    17    38       P1  7948  1.00

> <Gold.PLP.Chemscore.Internal.Correction>
0.0190

> <Gold.Rescore>
     Score         DG    S(hbond)    S(metal)    S(lipo)     H(rot)  DE(clash)    DE(int)     intcor
     15.58     -21.71       2.87        0.00      88.77       1.46       3.11       3.01       ----

> <Gold.Chemscore.Fitness>
15.5845

> <Gold.Chemscore.DG>
-21.7070

> <Gold.Chemscore.ZeroCoef>
-5.4800

> <Gold.Chemscore.Hbond>
2.8698

> <Gold.Chemscore.Metal>
0.0000

> <Gold.Chemscore.Lipo>
88.7703

> <Gold.Chemscore.Internal_Hbond>
0.0000

> <Gold.Chemscore.DEClash>
3.1083

> <Gold.Chemscore.DEInternal>
3.0141

> <Gold.Chemscore.Rot>
1.4627

> <Gold.Chemscore.Internal.Correction>
   9.000000E+99

> <Gold.Chemscore.Hbonds>
donor molecule, donor type, donor heavy atom, donor atom, acceptor molecule, acceptor atom, score
      L1  H     8    33       P1 10171  0.98
      L1  H    11    34       P1 10171  0.97
      P1  H  7989  7998       L1    20  0.75

> <Gold.Chemscore.Hbond.Weighted>
-9.5852

> <Gold.Chemscore.Metal.Weighted>
-0.0000

> <Gold.Chemscore.Lipo.Weighted>
-10.3861

> <Gold.Chemscore.Internal_Hbond.Weighted>
0.0000

> <Gold.Chemscore.DEClash.Weighted>
3.1083

> <Gold.Chemscore.DEInternal.Weighted>
3.0141

> <Gold.Chemscore.Rot.Weighted>
3.7444

> <Gold.Chemscore.Internal.Correction.Weighted>
   9.000000E+99

> <Gold.Protein.RotatedTorsions>
[ 6907 6896 6895 6894 ] final -132.56 input  -60.11 | X-H torsion
[ 7974 7965 7964 7962 ] final  -37.98 input  175.53 | X-H torsion
[ 8008 7997 7996 7995 ] final  -95.30 input   59.86 | X-H torsion
[ 10167 10162 10161 10158 ] final   19.46 input  -65.29 | X-H torsion
[ 10718 10713 10712 10709 ] final  -60.20 input   66.30 | X-H torsion
[ 10763 10752 10751 10750 ] final  174.94 input  -60.55 | X-H torsion
[ 11005 11000 10999 10996 ] final   94.72 input  -57.11 | X-H torsion

> <Gold.Protein.ActiveResidues>
 VAL166  LYS551  ARG553  GLY616  TRP617  ASP618  TYR619  PRO620  LYS621  CYS622 
 ASP623  PHE694  ASN695  SER759  ASP760  ASP761  ALA762  ILE779  LEU786  VAL792 
 PHE793  MET794  SER795  GLU796  ALA797  LYS798  CYS799  TRP800  GLU811  SER814 

> <Gold.Protein.RotatedAtoms>
  150.9638  133.6417  159.2749 H   0  0  0  0  0  0  0  0  0  0  0  0  # atno 6907 bound_to 6896
  151.3730  135.0925  159.9481 H   0  0  0  0  0  0  0  0  0  0  0  0  # atno 6908 bound_to 6896
  152.5157  133.9188  159.7578 H   0  0  0  0  0  0  0  0  0  0  0  0  # atno 6909 bound_to 6896
  146.0527  140.6459  142.9034 H   0  0  0  0  0  0  0  0  0  0  0  0  # atno 7974 bound_to 7965
  154.7596  140.0481  157.0962 H   0  0  0  0  0  0  0  0  0  0  0  0  # atno 8008 bound_to 7997
  154.9955  140.3118  155.4869 H   0  0  0  0  0  0  0  0  0  0  0  0  # atno 8009 bound_to 7997
  156.2901  140.2211  156.5062 H   0  0  0  0  0  0  0  0  0  0  0  0  # atno 8010 bound_to 7997
  140.5577  143.9394  150.6621 H   0  0  0  0  0  0  0  0  0  0  0  0  # atno 10167 bound_to 10162
  156.1008  130.4186  150.0820 H   0  0  0  0  0  0  0  0  0  0  0  0  # atno 10718 bound_to 10713
  154.4608  135.2767  155.1714 H   0  0  0  0  0  0  0  0  0  0  0  0  # atno 10763 bound_to 10752
  154.3503  135.6151  153.5643 H   0  0  0  0  0  0  0  0  0  0  0  0  # atno 10764 bound_to 10752
  152.9855  135.5809  154.4970 H   0  0  0  0  0  0  0  0  0  0  0  0  # atno 10765 bound_to 10752
  139.8796  134.8860  156.3905 H   0  0  0  0  0  0  0  0  0  0  0  0  # atno 11005 bound_to 11000
  144.7131  140.4112  143.7065 LP  0  0  0  0  0  0  0  0  0  0  0  0  # atno 17320 bound_to 7965
  145.6697  139.1597  143.2761 LP  0  0  0  0  0  0  0  0  0  0  0  0  # atno 17321 bound_to 7965
  140.2837  143.3372  152.1128 LP  0  0  0  0  0  0  0  0  0  0  0  0  # atno 17342 bound_to 10162
  139.5055  144.6797  151.6040 LP  0  0  0  0  0  0  0  0  0  0  0  0  # atno 17343 bound_to 10162
  156.8808  130.9556  151.3599 LP  0  0  0  0  0  0  0  0  0  0  0  0  # atno 17370 bound_to 10713
  157.6177  130.8631  149.9056 LP  0  0  0  0  0  0  0  0  0  0  0  0  # atno 17371 bound_to 10713
  140.9336  133.7562  156.0056 LP  0  0  0  0  0  0  0  0  0  0  0  0  # atno 17394 bound_to 11000
  140.8302  134.3187  157.5351 LP  0  0  0  0  0  0  0  0  0  0  0  0  # atno 17395 bound_to 11000

$$$$
