AV-unprocessed.smi:235|AV-procd|sdf|1802|dock4
  -GOLD-   2262020373D 1   1.00000     0.00000
 Structure written by MMmdl.
 54 58  0  0  0  0  0  0  0  0  1 V2000
  147.2153  137.2436  158.7038 O   0  0  0  0  0  0  0  0  0  0  0  0
  147.8917  136.2651  159.0203 C   0  0  0  0  0  0  0  0  0  0  0  0
  147.9786  135.8203  160.2849 N   0  0  0  0  0  0  0  0  0  0  0  0
  147.3282  136.3843  161.4210 C   0  0  0  0  0  0  0  0  0  0  0  0
  147.5367  135.6972  162.7532 C   0  0  0  0  0  0  0  0  0  0  0  0
  146.2090  135.5872  162.0558 C   0  0  0  0  0  0  0  0  0  0  0  0
  148.6555  135.4889  157.9272 C   0  0  1  0  0  0  0  0  0  0  0  0
  148.1993  134.0178  157.8103 C   0  0  0  0  0  0  0  0  0  0  0  0
  147.3768  133.9590  156.5254 C   0  0  0  0  0  0  0  0  0  0  0  0
  148.0627  135.0025  155.6533 C   0  0  0  0  0  0  0  0  0  0  0  0
  148.4550  136.0472  156.5839 N   0  0  0  0  0  0  0  0  0  0  0  0
  149.3547  136.9445  156.1266 C   0  0  0  0  0  0  0  0  0  0  0  0
  149.9650  136.7517  154.9286 N   0  0  0  0  0  0  0  0  0  0  0  0
  150.8623  137.6408  154.4901 C   0  0  0  0  0  0  0  0  0  0  0  0
  151.2848  138.7628  155.0791 N   0  0  0  0  0  0  0  0  0  0  0  0
  150.6667  138.9549  156.2801 C   0  0  0  0  0  0  0  0  0  0  0  0
  149.6930  138.1036  156.8705 C   0  0  0  0  0  0  0  0  0  0  0  0
  149.2850  138.6173  158.0949 N   0  0  0  0  0  0  0  0  0  0  0  0
  149.9861  139.7106  158.2260 C   0  0  0  0  0  0  0  0  0  0  0  0
  150.8419  139.9877  157.1830 N   0  0  0  0  0  0  0  0  0  0  0  0
  151.7376  141.1246  157.0666 C   0  0  0  0  0  0  0  0  0  0  0  0
  151.0187  142.4684  157.3140 C   0  0  2  0  0  0  0  0  0  0  0  0
  150.7483  143.0608  156.0576 O   0  0  0  0  0  0  0  0  0  0  0  0
  151.8641  143.4643  158.1332 C   0  0  2  0  0  0  0  0  0  0  0  0
  152.1983  143.0048  159.5541 C   0  0  0  0  0  0  0  0  0  0  0  0
  152.4449  144.3038  160.3031 C   0  0  0  0  0  0  0  0  0  0  0  0
  151.7839  145.3658  159.4216 C   0  0  0  0  0  0  0  0  0  0  0  0
  151.1112  144.6375  158.4038 O   0  0  0  0  0  0  0  0  0  0  0  0
  148.5512  135.0051  160.4529 H   0  0  0  0  0  0  0  0  0  0  0  0
  147.2273  137.4682  161.4542 H   0  0  0  0  0  0  0  0  0  0  0  0
  148.1652  134.8086  162.7754 H   0  0  0  0  0  0  0  0  0  0  0  0
  147.5882  136.3264  163.6394 H   0  0  0  0  0  0  0  0  0  0  0  0
  145.3733  136.1438  162.4750 H   0  0  0  0  0  0  0  0  0  0  0  0
  145.9521  134.6269  161.6121 H   0  0  0  0  0  0  0  0  0  0  0  0
  149.7099  135.5074  158.2083 H   0  0  0  0  0  0  0  0  0  0  0  0
  149.0758  133.3766  157.7078 H   0  0  0  0  0  0  0  0  0  0  0  0
  147.6365  133.6543  158.6713 H   0  0  0  0  0  0  0  0  0  0  0  0
  147.3593  132.9678  156.0718 H   0  0  0  0  0  0  0  0  0  0  0  0
  146.3480  134.2595  156.7294 H   0  0  0  0  0  0  0  0  0  0  0  0
  148.9385  134.5752  155.1614 H   0  0  0  0  0  0  0  0  0  0  0  0
  147.3926  135.3885  154.8844 H   0  0  0  0  0  0  0  0  0  0  0  0
  151.3074  137.4201  153.5311 H   0  0  0  0  0  0  0  0  0  0  0  0
  149.9018  140.3460  159.0957 H   0  0  0  0  0  0  0  0  0  0  0  0
  152.5465  140.9820  157.7833 H   0  0  0  0  0  0  0  0  0  0  0  0
  152.1938  141.1108  156.0755 H   0  0  0  0  0  0  0  0  0  0  0  0
  150.0732  142.2821  157.8252 H   0  0  0  0  0  0  0  0  0  0  0  0
  150.0352  143.6720  156.1606 H   0  0  0  0  0  0  0  0  0  0  0  0
  152.7832  143.7274  157.6054 H   0  0  0  0  0  0  0  0  0  0  0  0
  151.3419  142.4899  159.9925 H   0  0  0  0  0  0  0  0  0  0  0  0
  153.0531  142.3288  159.5914 H   0  0  0  0  0  0  0  0  0  0  0  0
  152.0102  144.2718  161.3026 H   0  0  0  0  0  0  0  0  0  0  0  0
  153.5119  144.5049  160.4057 H   0  0  0  0  0  0  0  0  0  0  0  0
  151.0867  145.9953  159.9749 H   0  0  0  0  0  0  0  0  0  0  0  0
  152.5372  146.0098  158.9661 H   0  0  0  0  0  0  0  0  0  0  0  0
  1  2  2  0  0  0  0
  2  3  1  0  0  0  0
  2  7  1  0  0  0  0
  3  4  1  0  0  0  0
  3 29  1  0  0  0  0
  4  6  1  0  0  0  0
  4  5  1  0  0  0  0
  4 30  1  0  0  0  0
  5  6  1  0  0  0  0
  5 31  1  0  0  0  0
  5 32  1  0  0  0  0
  6 33  1  0  0  0  0
  6 34  1  0  0  0  0
  7 11  1  0  0  0  0
  7  8  1  0  0  0  0
  7 35  1  0  0  0  0
  8  9  1  0  0  0  0
  8 36  1  0  0  0  0
  8 37  1  0  0  0  0
  9 10  1  0  0  0  0
  9 38  1  0  0  0  0
  9 39  1  0  0  0  0
 10 11  1  0  0  0  0
 10 40  1  0  0  0  0
 10 41  1  0  0  0  0
 11 12  1  0  0  0  0
 12 17  1  0  0  0  0
 12 13  2  0  0  0  0
 13 14  1  0  0  0  0
 14 15  2  0  0  0  0
 14 42  1  0  0  0  0
 15 16  1  0  0  0  0
 16 20  1  0  0  0  0
 16 17  2  0  0  0  0
 17 18  1  0  0  0  0
 18 19  2  0  0  0  0
 19 20  1  0  0  0  0
 19 43  1  0  0  0  0
 20 21  1  0  0  0  0
 21 22  1  0  0  0  0
 21 44  1  0  0  0  0
 21 45  1  0  0  0  0
 22 23  1  0  0  0  0
 22 24  1  0  0  0  0
 22 46  1  0  0  0  0
 23 47  1  0  0  0  0
 24 28  1  0  0  0  0
 24 25  1  0  0  0  0
 24 48  1  0  0  0  0
 25 26  1  0  0  0  0
 25 49  1  0  0  0  0
 25 50  1  0  0  0  0
 26 27  1  0  0  0  0
 26 51  1  0  0  0  0
 26 52  1  0  0  0  0
 27 28  1  0  0  0  0
 27 53  1  0  0  0  0
 27 54  1  0  0  0  0
M  END
> <s_m_source_file>
AV-unprocessed.smi

> <i_m_source_file_index>
235

> <i_lp_mmshare_version>
43012

> <i_f3d_flags>
0

> <s_epik_input>
W0NIMl0xW0NIMl1bQ0hdMVtOSF1DKD1PKVtDQEBIXTJbQ0gyXVtDSDJdW0NIMl1OMmMobltjSF1uMyljKGMzNCluW2NIXW40W0NIMl1bQ0BIXShbT0hdKVtDQEBIXTVbQ0gyXVtDSDJdW0NIMl1PNQ==

> <s_epik_cmdline>
J2VwaWtfcHl0aG9uJywgJy1waCcsICc3LjAnLCAnLXRuJywgJzgnLCAnLW1hJywgJzIwMCcsICctbWV0YWxfYmluZGluZycsICctaW1hZScsICc8aW5maWxlLm1hZT4nLCAnLW9tYWUnLCAnPG91dGZpbGUubWFlPic=

> <r_lp_tautomer_probability>
1

> <r_epik_Ionization_Penalty>
0.000526714

> <r_epik_Ionization_Penalty_Charging>
0

> <r_epik_Ionization_Penalty_Neutral>
0.000526714

> <r_epik_State_Penalty>
0.000272704

> <r_epik_Charging_Adjusted_Penalty>
0.000272704

> <i_epik_Tot_Q>
0

> <i_epik_Tot_abs_Q>
0

> <r_epik_Metal_State_Penalty>
-0

> <b_epik_Metal_Only>
0

> <s_lp_Force_Field>
OPLS_2005

> <r_lp_Energy>
60.5906

> <b_lp_Chiralities_Consistent>
1

> <s_lp_Variant>
AV-unprocessed.smi:235-2

> <Gold.Version>
5.8.1

> <Gold.Id.Protein>
6NUR|6NUR_protein|mol2

> <Gold.PLP.Fitness>
44.6761

> <Gold.PLP.PLP>
-39.8907

> <Gold.PLP.part.hbond>
-0.9826

> <Gold.PLP.part.metal>
0.0000

> <Gold.PLP.part.buried>
-7.8178

> <Gold.PLP.part.nonpolar>
-31.1914

> <Gold.PLP.part.repulsive>
0.5150

> <Gold.PLP.ligand.clash>
0.0000

> <Gold.PLP.ligand.torsion>
0.8162

> <Gold.PLP.Chemscore.Hbond>
1.0000

> <Gold.PLP.Chemscore.CHOScore>
1.0000

> <Gold.PLP.Chemscore.Metal>
0.0000

> <Gold.Chemscore.Hbonds>
donor molecule, donor type, donor heavy atom, donor atom, acceptor molecule, acceptor atom, score
      L1  H    23    47       P1  8028  1.00
      L1  C    14    42       P1  7949  1.00

> <Gold.PLP.Chemscore.Internal.Correction>
0.4179

> <Gold.Rescore>
     Score         DG    S(hbond)    S(metal)    S(lipo)     H(rot)  DE(clash)    DE(int)     intcor
      9.00     -12.76       0.95        0.00     100.71       3.00       0.04       3.73       ----

> <Gold.Chemscore.Fitness>
8.9978

> <Gold.Chemscore.DG>
-12.7645

> <Gold.Chemscore.ZeroCoef>
-5.4800

> <Gold.Chemscore.Hbond>
0.9518

> <Gold.Chemscore.Metal>
0.0000

> <Gold.Chemscore.Lipo>
100.7066

> <Gold.Chemscore.Internal_Hbond>
0.0000

> <Gold.Chemscore.DEClash>
0.0383

> <Gold.Chemscore.DEInternal>
3.7283

> <Gold.Chemscore.Rot>
2.9989

> <Gold.Chemscore.Internal.Correction>
   9.000000E+99

> <Gold.Chemscore.Hbonds>
donor molecule, donor type, donor heavy atom, donor atom, acceptor molecule, acceptor atom, score
      L1  H    23    47       P1  8028  0.98

> <Gold.Chemscore.Hbond.Weighted>
-3.1790

> <Gold.Chemscore.Metal.Weighted>
-0.0000

> <Gold.Chemscore.Lipo.Weighted>
-11.7827

> <Gold.Chemscore.Internal_Hbond.Weighted>
0.0000

> <Gold.Chemscore.DEClash.Weighted>
0.0383

> <Gold.Chemscore.DEInternal.Weighted>
3.7283

> <Gold.Chemscore.Rot.Weighted>
7.6772

> <Gold.Chemscore.Internal.Correction.Weighted>
   9.000000E+99

> <Gold.Protein.RotatedTorsions>
[ 6907 6896 6895 6894 ] final  -30.94 input  -60.11 | X-H torsion
[ 7974 7965 7964 7962 ] final  -12.40 input  175.53 | X-H torsion
[ 8008 7997 7996 7995 ] final  123.35 input   59.86 | X-H torsion
[ 10167 10162 10161 10158 ] final   81.35 input  -65.29 | X-H torsion
[ 10718 10713 10712 10709 ] final  166.70 input   66.30 | X-H torsion
[ 10763 10752 10751 10750 ] final  -24.59 input  -60.55 | X-H torsion
[ 11005 11000 10999 10996 ] final  125.59 input  -57.11 | X-H torsion

> <Gold.Protein.ActiveResidues>
 VAL166  LYS551  ARG553  GLY616  TRP617  ASP618  TYR619  PRO620  LYS621  CYS622 
 ASP623  PHE694  ASN695  SER759  ASP760  ASP761  ALA762  ILE779  LEU786  VAL792 
 PHE793  MET794  SER795  GLU796  ALA797  LYS798  CYS799  TRP800  GLU811  SER814 

> <Gold.Protein.RotatedAtoms>
  151.0988  134.9960  159.8438 H   0  0  0  0  0  0  0  0  0  0  0  0  # atno 6907 bound_to 6896
  152.5435  134.1975  159.8709 H   0  0  0  0  0  0  0  0  0  0  0  0  # atno 6908 bound_to 6896
  151.2017  133.4563  159.2629 H   0  0  0  0  0  0  0  0  0  0  0  0  # atno 6909 bound_to 6896
  146.2153  140.3051  142.8378 H   0  0  0  0  0  0  0  0  0  0  0  0  # atno 7974 bound_to 7965
  156.2762  140.2765  156.1613 H   0  0  0  0  0  0  0  0  0  0  0  0  # atno 8008 bound_to 7997
  155.0751  140.0387  157.2639 H   0  0  0  0  0  0  0  0  0  0  0  0  # atno 8009 bound_to 7997
  154.7009  140.2649  155.6726 H   0  0  0  0  0  0  0  0  0  0  0  0  # atno 8010 bound_to 7997
  139.9401  144.6095  150.8260 H   0  0  0  0  0  0  0  0  0  0  0  0  # atno 10167 bound_to 10162
  157.0620  131.0342  151.2643 H   0  0  0  0  0  0  0  0  0  0  0  0  # atno 10718 bound_to 10713
  153.6863  135.6964  153.5103 H   0  0  0  0  0  0  0  0  0  0  0  0  # atno 10763 bound_to 10752
  153.2447  135.4294  155.0734 H   0  0  0  0  0  0  0  0  0  0  0  0  # atno 10764 bound_to 10752
  154.8385  135.3516  154.6405 H   0  0  0  0  0  0  0  0  0  0  0  0  # atno 10765 bound_to 10752
  139.9414  134.9635  156.8581 H   0  0  0  0  0  0  0  0  0  0  0  0  # atno 11005 bound_to 11000
  144.9028  140.7664  143.5856 LP  0  0  0  0  0  0  0  0  0  0  0  0  # atno 17320 bound_to 7965
  145.2978  139.1861  143.4705 LP  0  0  0  0  0  0  0  0  0  0  0  0  # atno 17321 bound_to 7965
  140.7613  143.3171  151.2707 LP  0  0  0  0  0  0  0  0  0  0  0  0  # atno 17342 bound_to 10162
  139.6711  144.0018  152.2753 LP  0  0  0  0  0  0  0  0  0  0  0  0  # atno 17343 bound_to 10162
  157.4947  130.7843  149.7543 LP  0  0  0  0  0  0  0  0  0  0  0  0  # atno 17370 bound_to 10713
  155.9975  130.3899  150.2736 LP  0  0  0  0  0  0  0  0  0  0  0  0  # atno 17371 bound_to 10713
  140.5943  134.0232  155.7512 LP  0  0  0  0  0  0  0  0  0  0  0  0  # atno 17394 bound_to 11000
  141.1049  133.9709  157.3014 LP  0  0  0  0  0  0  0  0  0  0  0  0  # atno 17395 bound_to 11000

$$$$
