AV-unprocessed.smi:1813|AV-procd|sdf|7347|dock3
  -GOLD-   22720 9 13D 1   1.00000     0.00000
 Structure written by MMmdl.
 39 40  0  0  0  0  0  0  0  0  3 V2000
  145.7411  135.9288  150.5999 C   0  0  0  0  0  0  0  0  0  0  0  0
  146.4227  136.7512  151.5877 N   0  0  0  0  0  0  0  0  0  0  0  0
  145.8054  137.3985  152.5859 C   0  0  0  0  0  0  0  0  0  0  0  0
  144.5886  137.3527  152.7705 O   0  0  0  0  0  0  0  0  0  0  0  0
  146.7044  138.2044  153.5290 C   0  0  0  0  0  0  0  0  0  0  0  0
  147.8457  137.4167  154.0618 N   0  3  2  0  0  0  0  0  0  0  0  0
  147.4153  136.2181  154.8312 C   0  0  0  0  0  0  0  0  0  0  0  0
  148.6247  135.3711  155.2635 C   0  0  0  0  0  0  0  0  0  0  0  0
  149.6366  136.1985  156.0807 C   0  0  2  0  0  0  0  0  0  0  0  0
  149.0928  136.5861  157.3820 N   0  0  0  0  0  0  0  0  0  0  0  0
  148.8378  135.7698  158.4137 C   0  0  0  0  0  0  0  0  0  0  0  0
  149.0890  134.5660  158.3249 O   0  0  0  0  0  0  0  0  0  0  0  0
  148.2976  136.4028  159.4790 N   0  5  0  0  0  0  0  0  0  0  0  0
  147.8367  135.6919  160.5210 C   0  0  0  0  0  0  0  0  0  0  0  0
  147.5417  136.2410  161.7045 N   0  0  0  0  0  0  0  0  0  0  0  0
  147.0691  135.3199  162.6412 C   0  0  0  0  0  0  0  0  0  0  0  0
  146.9948  134.0409  162.1567 C   0  0  0  0  0  0  0  0  0  0  0  0
  147.5193  133.9546  160.4994 S   0  0  0  0  0  0  0  0  0  0  0  0
  150.0298  137.4508  155.2795 C   0  0  0  0  0  0  0  0  0  0  0  0
  148.7950  138.2577  154.8357 C   0  0  0  0  0  0  0  0  0  0  0  0
  146.4555  135.5673  149.8604 H   0  0  0  0  0  0  0  0  0  0  0  0
  144.9721  136.5005  150.0784 H   0  0  0  0  0  0  0  0  0  0  0  0
  145.2727  135.0648  151.0730 H   0  0  0  0  0  0  0  0  0  0  0  0
  147.4263  136.8324  151.5063 H   0  0  0  0  0  0  0  0  0  0  0  0
  147.0801  139.0499  152.9513 H   0  0  0  0  0  0  0  0  0  0  0  0
  146.1227  138.6217  154.3529 H   0  0  0  0  0  0  0  0  0  0  0  0
  146.8412  136.5299  155.7053 H   0  0  0  0  0  0  0  0  0  0  0  0
  146.7505  135.6017  154.2257 H   0  0  0  0  0  0  0  0  0  0  0  0
  148.2880  134.5030  155.8308 H   0  0  0  0  0  0  0  0  0  0  0  0
  149.1192  134.9749  154.3757 H   0  0  0  0  0  0  0  0  0  0  0  0
  150.5343  135.6016  156.2512 H   0  0  0  0  0  0  0  0  0  0  0  0
  148.8822  137.5643  157.5148 H   0  0  0  0  0  0  0  0  0  0  0  0
  146.8076  135.6632  163.6310 H   0  0  0  0  0  0  0  0  0  0  0  0
  146.6655  133.1496  162.6688 H   0  0  0  0  0  0  0  0  0  0  0  0
  150.6971  138.0817  155.8680 H   0  0  0  0  0  0  0  0  0  0  0  0
  150.5968  137.1499  154.3975 H   0  0  0  0  0  0  0  0  0  0  0  0
  149.1223  139.0985  154.2232 H   0  0  0  0  0  0  0  0  0  0  0  0
  148.2841  138.6802  155.7025 H   0  0  0  0  0  0  0  0  0  0  0  0
  148.3556  137.0803  153.2572 H   0  0  0  0  0  0  0  0  0  0  0  0
  1  2  1  0  0  0  0
  1 21  1  0  0  0  0
  1 22  1  0  0  0  0
  1 23  1  0  0  0  0
  2  3  1  0  0  0  0
  2 24  1  0  0  0  0
  3  4  2  0  0  0  0
  3  5  1  0  0  0  0
  5  6  1  0  0  0  0
  5 25  1  0  0  0  0
  5 26  1  0  0  0  0
  6 20  1  0  0  0  0
  6  7  1  0  0  0  0
  6 39  1  0  0  0  0
  7  8  1  0  0  0  0
  7 27  1  0  0  0  0
  7 28  1  0  0  0  0
  8  9  1  0  0  0  0
  8 29  1  0  0  0  0
  8 30  1  0  0  0  0
  9 10  1  0  0  0  0
  9 19  1  0  0  0  0
  9 31  1  0  0  0  0
 10 11  1  0  0  0  0
 10 32  1  0  0  0  0
 11 12  2  0  0  0  0
 11 13  1  0  0  0  0
 13 14  1  0  0  0  0
 14 18  1  0  0  0  0
 14 15  2  0  0  0  0
 15 16  1  0  0  0  0
 16 17  2  0  0  0  0
 16 33  1  0  0  0  0
 17 18  1  0  0  0  0
 17 34  1  0  0  0  0
 19 20  1  0  0  0  0
 19 35  1  0  0  0  0
 19 36  1  0  0  0  0
 20 37  1  0  0  0  0
 20 38  1  0  0  0  0
M  CHG  1   6   1
M  CHG  1  13  -1
M  END
> <s_m_source_file>
AV-unprocessed.smi

> <i_m_source_file_index>
1813

> <i_lp_mmshare_version>
43012

> <i_f3d_flags>
0

> <s_epik_input>
W0NIM11bTkhdQyg9TylbQ0gyXU4xW0NIMl1bQ0gyXVtDSF0oW0NIMl1bQ0gyXTEpW05IXUMoPU8pW05IXWMybltjSF1bY0hdczI=

> <s_epik_cmdline>
J2VwaWtfcHl0aG9uJywgJy1waCcsICc3LjAnLCAnLXRuJywgJzgnLCAnLW1hJywgJzIwMCcsICctbWV0YWxfYmluZGluZycsICctaW1hZScsICc8aW5maWxlLm1hZT4nLCAnLW9tYWUnLCAnPG91dGZpbGUubWFlPic=

> <r_lp_tautomer_probability>
0.999

> <r_epik_Ionization_Penalty>
7.12128

> <r_epik_Ionization_Penalty_Charging>
6.25357

> <r_epik_Ionization_Penalty_Neutral>
0.867707

> <r_epik_State_Penalty>
6.33838

> <r_epik_Charging_Adjusted_Penalty>
12.592

> <i_epik_Tot_Q>
0

> <i_epik_Tot_abs_Q>
2

> <r_epik_Metal_State_Penalty>
2.34161

> <b_epik_Metal_Only>
1

> <s_lp_Force_Field>
OPLS_2005

> <r_lp_Energy>
4.26142

> <b_lp_Chiralities_Consistent>
1

> <s_lp_Variant>
AV-unprocessed.smi:1813-8

> <Gold.Version>
5.8.1

> <Gold.Id.Protein>
6NUR|6NUR_protein|mol2

> <Gold.PLP.Fitness>
46.8688

> <Gold.PLP.PLP>
-30.5696

> <Gold.PLP.part.hbond>
-5.0000

> <Gold.PLP.part.metal>
0.0000

> <Gold.PLP.part.buried>
-5.1903

> <Gold.PLP.part.nonpolar>
-20.6129

> <Gold.PLP.part.repulsive>
0.5177

> <Gold.PLP.ligand.clash>
0.0000

> <Gold.PLP.ligand.torsion>
0.2351

> <Gold.PLP.Chemscore.Hbond>
5.5650

> <Gold.PLP.Chemscore.CHOScore>
0.0000

> <Gold.PLP.Chemscore.Metal>
0.0000

> <Gold.Chemscore.Hbonds>
donor molecule, donor type, donor heavy atom, donor atom, acceptor molecule, acceptor atom, score
      L1  H     2    24       P1  7948  1.00
      L1  H     6    39       P1  7948  2.00
      P1  H  6896  6908       L1    12  1.00

> <Gold.PLP.Chemscore.Internal.Correction>
0.0745

> <Gold.Rescore>
     Score         DG    S(hbond)    S(metal)    S(lipo)     H(rot)  DE(clash)    DE(int)     intcor
     18.72     -20.58       4.03        0.00      52.70       1.76       0.15       1.72       ----

> <Gold.Chemscore.Fitness>
18.7171

> <Gold.Chemscore.DG>
-20.5830

> <Gold.Chemscore.ZeroCoef>
-5.4800

> <Gold.Chemscore.Hbond>
4.0250

> <Gold.Chemscore.Metal>
0.0000

> <Gold.Chemscore.Lipo>
52.7002

> <Gold.Chemscore.Internal_Hbond>
0.0000

> <Gold.Chemscore.DEClash>
0.1461

> <Gold.Chemscore.DEInternal>
1.7198

> <Gold.Chemscore.Rot>
1.7603

> <Gold.Chemscore.Internal.Correction>
   9.000000E+99

> <Gold.Chemscore.Hbonds>
donor molecule, donor type, donor heavy atom, donor atom, acceptor molecule, acceptor atom, score
      L1  H     2    24       P1  7948  0.94
      L1  H     6    39       P1  7948  1.00
      P1  H  6896  6908       L1    12  0.55
      P1  H  6931  6943       L1    15  0.01

> <Gold.Chemscore.Hbond.Weighted>
-13.4435

> <Gold.Chemscore.Metal.Weighted>
-0.0000

> <Gold.Chemscore.Lipo.Weighted>
-6.1659

> <Gold.Chemscore.Internal_Hbond.Weighted>
0.0000

> <Gold.Chemscore.DEClash.Weighted>
0.1461

> <Gold.Chemscore.DEInternal.Weighted>
1.7198

> <Gold.Chemscore.Rot.Weighted>
4.5064

> <Gold.Chemscore.Internal.Correction.Weighted>
   9.000000E+99

> <Gold.Protein.RotatedTorsions>
[ 6907 6896 6895 6894 ] final  150.50 input  -60.11 | X-H torsion
[ 7974 7965 7964 7962 ] final -158.66 input  175.53 | X-H torsion
[ 8008 7997 7996 7995 ] final  171.12 input   59.86 | X-H torsion
[ 10167 10162 10161 10158 ] final   16.54 input  -65.29 | X-H torsion
[ 10718 10713 10712 10709 ] final  -24.13 input   66.30 | X-H torsion
[ 10763 10752 10751 10750 ] final   63.64 input  -60.55 | X-H torsion
[ 11005 11000 10999 10996 ] final  -27.47 input  -57.11 | X-H torsion

> <Gold.Protein.ActiveResidues>
 VAL166  LYS551  ARG553  GLY616  TRP617  ASP618  TYR619  PRO620  LYS621  CYS622 
 ASP623  PHE694  ASN695  SER759  ASP760  ASP761  ALA762  ILE779  LEU786  VAL792 
 PHE793  MET794  SER795  GLU796  ALA797  LYS798  CYS799  TRP800  GLU811  SER814 

> <Gold.Protein.RotatedAtoms>
  152.1136  133.4314  159.4642 H   0  0  0  0  0  0  0  0  0  0  0  0  # atno 6907 bound_to 6896
  150.6868  134.2619  159.4562 H   0  0  0  0  0  0  0  0  0  0  0  0  # atno 6908 bound_to 6896
  152.0489  134.9665  160.0625 H   0  0  0  0  0  0  0  0  0  0  0  0  # atno 6909 bound_to 6896
  144.7496  140.3796  143.6058 H   0  0  0  0  0  0  0  0  0  0  0  0  # atno 7974 bound_to 7965
  156.1301  140.1520  156.9077 H   0  0  0  0  0  0  0  0  0  0  0  0  # atno 8008 bound_to 7997
  154.4903  140.0853  156.7618 H   0  0  0  0  0  0  0  0  0  0  0  0  # atno 8009 bound_to 7997
  155.4271  140.3425  155.4279 H   0  0  0  0  0  0  0  0  0  0  0  0  # atno 8010 bound_to 7997
  140.5790  143.9017  150.6774 H   0  0  0  0  0  0  0  0  0  0  0  0  # atno 10167 bound_to 10162
  156.4818  130.4547  149.6807 H   0  0  0  0  0  0  0  0  0  0  0  0  # atno 10718 bound_to 10713
  153.0025  135.5421  154.6384 H   0  0  0  0  0  0  0  0  0  0  0  0  # atno 10763 bound_to 10752
  154.5645  135.2836  155.0889 H   0  0  0  0  0  0  0  0  0  0  0  0  # atno 10764 bound_to 10752
  154.2078  135.6472  153.5159 H   0  0  0  0  0  0  0  0  0  0  0  0  # atno 10765 bound_to 10752
  140.9122  133.7453  156.0686 H   0  0  0  0  0  0  0  0  0  0  0  0  # atno 11005 bound_to 11000
  145.6991  139.1657  143.2603 LP  0  0  0  0  0  0  0  0  0  0  0  0  # atno 17320 bound_to 7965
  146.1428  140.7034  142.9359 LP  0  0  0  0  0  0  0  0  0  0  0  0  # atno 17321 bound_to 7965
  140.2512  143.3592  152.1404 LP  0  0  0  0  0  0  0  0  0  0  0  0  # atno 17342 bound_to 10162
  139.5159  144.6969  151.5604 LP  0  0  0  0  0  0  0  0  0  0  0  0  # atno 17343 bound_to 10162
  156.3514  130.7434  151.2394 LP  0  0  0  0  0  0  0  0  0  0  0  0  # atno 17370 bound_to 10713
  157.7482  131.0376  150.4463 LP  0  0  0  0  0  0  0  0  0  0  0  0  # atno 17371 bound_to 10713
  140.8095  134.3415  157.5416 LP  0  0  0  0  0  0  0  0  0  0  0  0  # atno 17394 bound_to 11000
  139.8759  134.9246  156.3353 LP  0  0  0  0  0  0  0  0  0  0  0  0  # atno 17395 bound_to 11000

$$$$
