AV-unprocessed.smi:1|AV-procd|sdf|24|dock8
  -GOLD-   2262015133D 1   1.00000     0.00000
 Structure written by MMmdl.
 56 61  0  0  0  0  0  0  0  0  2 V2000
  150.6991  141.7461  155.9406 O   0  0  0  0  0  0  0  0  0  0  0  0
  151.6018  141.3517  156.6820 C   0  0  0  0  0  0  0  0  0  0  0  0
  152.3093  140.1971  156.5931 N   0  5  0  0  0  0  0  0  0  0  0  0
  151.8076  139.1550  155.9133 C   0  0  0  0  0  0  0  0  0  0  0  0
  151.2591  139.3358  154.6848 N   0  0  0  0  0  0  0  0  0  0  0  0
  150.7497  138.2971  154.0127 C   0  0  0  0  0  0  0  0  0  0  0  0
  150.6778  137.0138  154.3783 N   0  0  0  0  0  0  0  0  0  0  0  0
  151.2219  136.8185  155.6153 C   0  0  0  0  0  0  0  0  0  0  0  0
  151.7971  137.8326  156.4355 C   0  0  0  0  0  0  0  0  0  0  0  0
  152.2530  137.2994  157.6321 N   0  0  0  0  0  0  0  0  0  0  0  0
  151.9469  136.0125  157.4864 C   0  0  0  0  0  0  0  0  0  0  0  0
  151.3455  135.6420  156.3389 N   0  0  0  0  0  0  0  0  0  0  0  0
  150.9249  134.2619  155.9473 C   0  0  1  0  0  0  0  0  0  0  0  0
  151.6344  133.3408  156.7147 O   0  0  0  0  0  0  0  0  0  0  0  0
  150.8412  132.1804  156.9323 C   0  0  2  0  0  0  0  0  0  0  0  0
  151.0147  131.2160  155.7482 C   0  0  0  0  0  0  0  0  0  0  0  0
  150.1776  131.6343  154.6830 O   0  0  0  0  0  0  0  0  0  0  0  0
  149.2641  130.7882  154.1690 C   0  0  0  0  0  0  0  0  0  0  0  0
  149.2659  129.5731  154.3776 O   0  0  0  0  0  0  0  0  0  0  0  0
  148.2493  131.4767  153.3201 C   0  0  0  0  0  0  0  0  0  0  0  0
  147.0902  130.7733  152.9175 C   0  0  0  0  0  0  0  0  0  0  0  0
  146.1152  131.3966  152.1145 C   0  0  0  0  0  0  0  0  0  0  0  0
  146.2879  132.7312  151.7037 C   0  0  0  0  0  0  0  0  0  0  0  0
  147.4361  133.4424  152.0984 C   0  0  0  0  0  0  0  0  0  0  0  0
  148.4118  132.8208  152.9020 C   0  0  0  0  0  0  0  0  0  0  0  0
  149.4190  132.7323  157.0411 C   0  0  1  0  0  0  0  0  0  0  0  0
  149.1344  133.0747  158.3857 O   0  0  0  0  0  0  0  0  0  0  0  0
  148.3258  134.5341  158.3941 S   0  0  0  0  0  0  0  0  0  0  0  0
  146.8822  134.2537  158.3543 O   0  0  0  0  0  0  0  0  0  0  0  0
  148.9320  135.4034  159.4132 O   0  0  0  0  0  0  0  0  0  0  0  0
  148.7873  135.0744  156.8830 O   0  0  0  0  0  0  0  0  0  0  0  0
  149.4252  134.0118  156.1872 C   0  0  1  0  0  0  0  0  0  0  0  0
  151.9646  142.1785  157.8865 C   0  0  0  0  0  0  0  0  0  0  0  0
  152.8342  141.6459  158.8658 C   0  0  0  0  0  0  0  0  0  0  0  0
  153.1658  142.3939  160.0124 C   0  0  0  0  0  0  0  0  0  0  0  0
  152.6239  143.6797  160.1968 C   0  0  0  0  0  0  0  0  0  0  0  0
  151.7459  144.2150  159.2359 C   0  0  0  0  0  0  0  0  0  0  0  0
  151.4139  143.4678  158.0889 C   0  0  0  0  0  0  0  0  0  0  0  0
  150.3388  138.5280  153.0414 H   0  0  0  0  0  0  0  0  0  0  0  0
  152.1790  135.2936  158.2584 H   0  0  0  0  0  0  0  0  0  0  0  0
  151.2065  134.1703  154.8972 H   0  0  0  0  0  0  0  0  0  0  0  0
  151.1380  131.6821  157.8562 H   0  0  0  0  0  0  0  0  0  0  0  0
  152.0492  131.2305  155.4029 H   0  0  0  0  0  0  0  0  0  0  0  0
  150.7840  130.1920  156.0456 H   0  0  0  0  0  0  0  0  0  0  0  0
  146.9360  129.7474  153.2201 H   0  0  0  0  0  0  0  0  0  0  0  0
  145.2340  130.8495  151.8137 H   0  0  0  0  0  0  0  0  0  0  0  0
  145.5407  133.2086  151.0870 H   0  0  0  0  0  0  0  0  0  0  0  0
  147.5696  134.4671  151.7842 H   0  0  0  0  0  0  0  0  0  0  0  0
  149.2808  133.3957  153.1875 H   0  0  0  0  0  0  0  0  0  0  0  0
  148.6673  132.0171  156.7051 H   0  0  0  0  0  0  0  0  0  0  0  0
  148.9406  133.8501  155.2239 H   0  0  0  0  0  0  0  0  0  0  0  0
  153.2576  140.6598  158.7399 H   0  0  0  0  0  0  0  0  0  0  0  0
  153.8359  141.9793  160.7508 H   0  0  0  0  0  0  0  0  0  0  0  0
  152.8780  144.2531  161.0759 H   0  0  0  0  0  0  0  0  0  0  0  0
  151.3238  145.1988  159.3789 H   0  0  0  0  0  0  0  0  0  0  0  0
  150.7301  143.8932  157.3684 H   0  0  0  0  0  0  0  0  0  0  0  0
  1  2  2  0  0  0  0
  2  3  1  0  0  0  0
  2 33  1  0  0  0  0
  3  4  1  0  0  0  0
  4  9  1  0  0  0  0
  4  5  2  0  0  0  0
  5  6  1  0  0  0  0
  6  7  2  0  0  0  0
  6 39  1  0  0  0  0
  7  8  1  0  0  0  0
  8 12  1  0  0  0  0
  8  9  2  0  0  0  0
  9 10  1  0  0  0  0
 10 11  2  0  0  0  0
 11 12  1  0  0  0  0
 11 40  1  0  0  0  0
 12 13  1  0  0  0  0
 13 32  1  0  0  0  0
 13 14  1  0  0  0  0
 13 41  1  0  0  0  0
 14 15  1  0  0  0  0
 15 16  1  0  0  0  0
 15 26  1  0  0  0  0
 15 42  1  0  0  0  0
 16 17  1  0  0  0  0
 16 43  1  0  0  0  0
 16 44  1  0  0  0  0
 17 18  1  0  0  0  0
 18 19  2  0  0  0  0
 18 20  1  0  0  0  0
 20 25  1  0  0  0  0
 20 21  2  0  0  0  0
 21 22  1  0  0  0  0
 21 45  1  0  0  0  0
 22 23  2  0  0  0  0
 22 46  1  0  0  0  0
 23 24  1  0  0  0  0
 23 47  1  0  0  0  0
 24 25  2  0  0  0  0
 24 48  1  0  0  0  0
 25 49  1  0  0  0  0
 26 32  1  0  0  0  0
 26 27  1  0  0  0  0
 26 50  1  0  0  0  0
 27 28  1  0  0  0  0
 28 29  2  0  0  0  0
 28 30  2  0  0  0  0
 28 31  1  0  0  0  0
 31 32  1  0  0  0  0
 32 51  1  0  0  0  0
 33 38  1  0  0  0  0
 33 34  2  0  0  0  0
 34 35  1  0  0  0  0
 34 52  1  0  0  0  0
 35 36  2  0  0  0  0
 35 53  1  0  0  0  0
 36 37  1  0  0  0  0
 36 54  1  0  0  0  0
 37 38  2  0  0  0  0
 37 55  1  0  0  0  0
 38 56  1  0  0  0  0
M  CHG  1   3  -1
M  END
> <s_m_source_file>
AV-unprocessed.smi

> <i_m_source_file_index>
1

> <i_lp_mmshare_version>
43012

> <i_f3d_flags>
0

> <s_epik_input>
W2NIXTFbY0hdW2NIXVtjSF1bY0hdYzFDKD1PKVtOSF1jKG5bY0hdbjIpYyhjMjMpbltjSF1uM1tDQEBIXShbQ0BIXShbQ0BIXTQ1KU9TKE81KSg9Tyk9TylPW0NASF00W0NIMl1PQyg9TyljNltjSF1bY0hdW2NIXVtjSF1bY0hdNg==

> <s_epik_cmdline>
J2VwaWtfcHl0aG9uJywgJy1waCcsICc3LjAnLCAnLXRuJywgJzgnLCAnLW1hJywgJzIwMCcsICctbWV0YWxfYmluZGluZycsICctaW1hZScsICc8aW5maWxlLm1hZT4nLCAnLW9tYWUnLCAnPG91dGZpbGUubWFlPic=

> <r_lp_tautomer_probability>
1

> <r_epik_Ionization_Penalty>
4.39121

> <r_epik_Ionization_Penalty_Charging>
3.39398

> <r_epik_Ionization_Penalty_Neutral>
0.997232

> <r_epik_State_Penalty>
3.39839

> <r_epik_Charging_Adjusted_Penalty>
6.79237

> <i_epik_Tot_Q>
-1

> <i_epik_Tot_abs_Q>
1

> <r_epik_Metal_State_Penalty>
0.497663

> <b_epik_Metal_Only>
1

> <s_epik_Chemistry_Notes>
This compound has an ester and may undergo hydrolysis at high or low pH. This compound contains an acetal/aminal-like group ( X-CH(R)-Y where X, Y are N, S, or O) that may be acid/base labile, releasing an aldehyde.

> <s_lp_Force_Field>
OPLS_2005

> <r_lp_Energy>
44.7553

> <b_lp_Chiralities_Consistent>
1

> <s_lp_Variant>
AV-unprocessed.smi:1-24

> <Gold.Version>
5.8.1

> <Gold.Id.Protein>
6NUR|6NUR_protein|mol2

> <Gold.PLP.Fitness>
63.9573

> <Gold.PLP.PLP>
-52.4834

> <Gold.PLP.part.hbond>
-4.3214

> <Gold.PLP.part.metal>
0.0000

> <Gold.PLP.part.buried>
-3.7609

> <Gold.PLP.part.nonpolar>
-43.3408

> <Gold.PLP.part.repulsive>
0.6359

> <Gold.PLP.ligand.clash>
0.1497

> <Gold.PLP.ligand.torsion>
2.0116

> <Gold.PLP.Chemscore.Hbond>
3.9500

> <Gold.PLP.Chemscore.CHOScore>
1.0962

> <Gold.PLP.Chemscore.Metal>
0.0000

> <Gold.Chemscore.Hbonds>
donor molecule, donor type, donor heavy atom, donor atom, acceptor molecule, acceptor atom, score
      P1  H  6896  6907       L1    30  1.00
      P1  H  7989  7998       L1     5  1.00
      P1  H  7997  8009       L1     3  1.98
      L1  C     6    39       P1  7948  0.08
      L1  C     6    39       P1  7957  1.00

> <Gold.PLP.Chemscore.Internal.Correction>
0.5082

> <Gold.Rescore>
     Score         DG    S(hbond)    S(metal)    S(lipo)     H(rot)  DE(clash)    DE(int)     intcor
     14.01     -20.88       1.89        0.00     124.03       2.11       1.24       5.63       ----

> <Gold.Chemscore.Fitness>
14.0061

> <Gold.Chemscore.DG>
-20.8810

> <Gold.Chemscore.ZeroCoef>
-5.4800

> <Gold.Chemscore.Hbond>
1.8863

> <Gold.Chemscore.Metal>
0.0000

> <Gold.Chemscore.Lipo>
124.0297

> <Gold.Chemscore.Internal_Hbond>
0.0000

> <Gold.Chemscore.DEClash>
1.2401

> <Gold.Chemscore.DEInternal>
5.6349

> <Gold.Chemscore.Rot>
2.1136

> <Gold.Chemscore.Internal.Correction>
   9.000000E+99

> <Gold.Chemscore.Hbonds>
donor molecule, donor type, donor heavy atom, donor atom, acceptor molecule, acceptor atom, score
      P1  H  6896  6907       L1    30  0.25
      P1  H  7989  7998       L1     5  0.80
      P1  H  7997  8009       L1     3  0.54

> <Gold.Chemscore.Hbond.Weighted>
-6.3003

> <Gold.Chemscore.Metal.Weighted>
-0.0000

> <Gold.Chemscore.Lipo.Weighted>
-14.5115

> <Gold.Chemscore.Internal_Hbond.Weighted>
0.0000

> <Gold.Chemscore.DEClash.Weighted>
1.2401

> <Gold.Chemscore.DEInternal.Weighted>
5.6349

> <Gold.Chemscore.Rot.Weighted>
5.4107

> <Gold.Chemscore.Internal.Correction.Weighted>
   9.000000E+99

> <Gold.Protein.RotatedTorsions>
[ 6907 6896 6895 6894 ] final  -70.77 input  -60.11 | X-H torsion
[ 7974 7965 7964 7962 ] final   28.67 input  175.53 | X-H torsion
[ 8008 7997 7996 7995 ] final -164.41 input   59.86 | X-H torsion
[ 10167 10162 10161 10158 ] final  120.19 input  -65.29 | X-H torsion
[ 10718 10713 10712 10709 ] final  114.14 input   66.30 | X-H torsion
[ 10763 10752 10751 10750 ] final  -31.19 input  -60.55 | X-H torsion
[ 11005 11000 10999 10996 ] final    6.62 input  -57.11 | X-H torsion

> <Gold.Protein.ActiveResidues>
 VAL166  LYS551  ARG553  GLY616  TRP617  ASP618  TYR619  PRO620  LYS621  CYS622 
 ASP623  PHE694  ASN695  SER759  ASP760  ASP761  ALA762  ILE779  LEU786  VAL792 
 PHE793  MET794  SER795  GLU796  ALA797  LYS798  CYS799  TRP800  GLU811  SER814 

> <Gold.Protein.RotatedAtoms>
  150.7242  134.5405  159.5744 H   0  0  0  0  0  0  0  0  0  0  0  0  # atno 6907 bound_to 6896
  152.2916  134.7711  160.0385 H   0  0  0  0  0  0  0  0  0  0  0  0  # atno 6908 bound_to 6896
  151.8323  133.3375  159.3654 H   0  0  0  0  0  0  0  0  0  0  0  0  # atno 6909 bound_to 6896
  146.1715  139.7024  142.8964 H   0  0  0  0  0  0  0  0  0  0  0  0  # atno 7974 bound_to 7965
  155.8352  140.0940  157.1768 H   0  0  0  0  0  0  0  0  0  0  0  0  # atno 8008 bound_to 7997
  154.3980  140.1411  156.3723 H   0  0  0  0  0  0  0  0  0  0  0  0  # atno 8009 bound_to 7997
  155.8123  140.3449  155.5468 H   0  0  0  0  0  0  0  0  0  0  0  0  # atno 8010 bound_to 7997
  139.5998  144.7053  151.3090 H   0  0  0  0  0  0  0  0  0  0  0  0  # atno 10167 bound_to 10162
  157.6298  131.0994  150.7143 H   0  0  0  0  0  0  0  0  0  0  0  0  # atno 10718 bound_to 10713
  153.7933  135.6896  153.4868 H   0  0  0  0  0  0  0  0  0  0  0  0  # atno 10763 bound_to 10752
  153.1735  135.4533  154.9933 H   0  0  0  0  0  0  0  0  0  0  0  0  # atno 10764 bound_to 10752
  154.8036  135.3347  154.7427 H   0  0  0  0  0  0  0  0  0  0  0  0  # atno 10765 bound_to 10752
  140.5574  134.0225  155.7959 H   0  0  0  0  0  0  0  0  0  0  0  0  # atno 11005 bound_to 11000
  145.4326  141.0416  143.2902 LP  0  0  0  0  0  0  0  0  0  0  0  0  # atno 17320 bound_to 7965
  144.8171  139.5858  143.7003 LP  0  0  0  0  0  0  0  0  0  0  0  0  # atno 17321 bound_to 7965
  140.7241  143.7054  150.7811 LP  0  0  0  0  0  0  0  0  0  0  0  0  # atno 17342 bound_to 10162
  140.0628  143.5137  152.2619 LP  0  0  0  0  0  0  0  0  0  0  0  0  # atno 17343 bound_to 10162
  156.7485  130.4761  149.5462 LP  0  0  0  0  0  0  0  0  0  0  0  0  # atno 17370 bound_to 10713
  156.1494  130.6299  151.0575 LP  0  0  0  0  0  0  0  0  0  0  0  0  # atno 17371 bound_to 10713
  141.1135  133.9578  157.2866 LP  0  0  0  0  0  0  0  0  0  0  0  0  # atno 17394 bound_to 11000
  139.9425  135.0189  156.8751 LP  0  0  0  0  0  0  0  0  0  0  0  0  # atno 17395 bound_to 11000

$$$$
