AV-unprocessed.smi:2221|AV-procd|sdf|8984|dock4
  -GOLD-   2272012193D 1   1.00000     0.00000
 Structure written by MMmdl.
 53 54  0  0  0  0  0  0  0  0  2 V2000
  152.1797  144.2985  161.5627 C   0  0  0  0  0  0  0  0  0  0  0  0
  152.2568  143.2032  160.5200 C   0  0  0  0  0  0  0  0  0  0  0  0
  153.0862  142.0822  160.7136 C   0  0  0  0  0  0  0  0  0  0  0  0
  153.1132  141.0939  159.7103 C   0  0  0  0  0  0  0  0  0  0  0  0
  153.9830  139.8630  159.8552 C   0  0  0  0  0  0  0  0  0  0  0  0
  152.3783  141.1713  158.5801 N   0  0  0  0  0  0  0  0  0  0  0  0
  151.5761  142.2466  158.3829 C   0  0  0  0  0  0  0  0  0  0  0  0
  150.7657  142.4225  157.2299 N   0  0  0  0  0  0  0  0  0  0  0  0
  150.4639  141.5167  156.2832 C   0  0  0  0  0  0  0  0  0  0  0  0
  150.8704  140.3552  156.2504 O   0  0  0  0  0  0  0  0  0  0  0  0
  149.6332  142.0310  155.3647 N   0  0  0  0  0  0  0  0  0  0  0  0
  149.0956  141.3038  154.2164 C   0  0  0  0  0  0  0  0  0  0  0  0
  147.7086  141.8128  153.7634 C   0  0  0  0  0  0  0  0  0  0  0  0
  147.0040  142.6019  154.8062 N   0  3  2  0  0  0  0  0  0  0  0  0
  146.7134  141.8044  156.0235 C   0  0  0  0  0  0  0  0  0  0  0  0
  146.1076  142.6837  157.1323 C   0  0  0  0  0  0  0  0  0  0  0  0
  144.8206  143.4065  156.6648 C   0  0  2  0  0  0  0  0  0  0  0  0
  143.6761  142.4887  156.4956 N   0  0  0  0  0  0  0  0  0  0  0  0
  143.3202  141.8275  157.7497 C   0  0  0  0  0  0  0  0  0  0  0  0
  142.4729  143.1792  156.0366 C   0  0  0  0  0  0  0  0  0  0  0  0
  145.1751  144.1961  155.3808 C   0  0  0  0  0  0  0  0  0  0  0  0
  145.7927  143.2946  154.2980 C   0  0  0  0  0  0  0  0  0  0  0  0
  151.4930  143.2844  159.3382 C   0  0  0  0  0  0  0  0  0  0  0  0
  153.0565  144.2854  162.2107 H   0  0  0  0  0  0  0  0  0  0  0  0
  151.2925  144.1653  162.1821 H   0  0  0  0  0  0  0  0  0  0  0  0
  152.1245  145.2784  161.0875 H   0  0  0  0  0  0  0  0  0  0  0  0
  153.6853  141.9821  161.6070 H   0  0  0  0  0  0  0  0  0  0  0  0
  154.7484  140.0108  160.6177 H   0  0  0  0  0  0  0  0  0  0  0  0
  154.4838  139.6319  158.9144 H   0  0  0  0  0  0  0  0  0  0  0  0
  153.3753  139.0043  160.1415 H   0  0  0  0  0  0  0  0  0  0  0  0
  150.3561  143.3388  157.1248 H   0  0  0  0  0  0  0  0  0  0  0  0
  149.3577  142.9978  155.4612 H   0  0  0  0  0  0  0  0  0  0  0  0
  149.8115  141.4031  153.4007 H   0  0  0  0  0  0  0  0  0  0  0  0
  149.0478  140.2379  154.4446 H   0  0  0  0  0  0  0  0  0  0  0  0
  147.7951  142.3947  152.8448 H   0  0  0  0  0  0  0  0  0  0  0  0
  147.0987  140.9444  153.5113 H   0  0  0  0  0  0  0  0  0  0  0  0
  146.0367  140.9853  155.7749 H   0  0  0  0  0  0  0  0  0  0  0  0
  147.6352  141.3533  156.3927 H   0  0  0  0  0  0  0  0  0  0  0  0
  145.9580  142.1037  158.0408 H   0  0  0  0  0  0  0  0  0  0  0  0
  146.8444  143.4392  157.4093 H   0  0  0  0  0  0  0  0  0  0  0  0
  144.5394  144.1291  157.4327 H   0  0  0  0  0  0  0  0  0  0  0  0
  142.4206  141.2227  157.6275 H   0  0  0  0  0  0  0  0  0  0  0  0
  143.1321  142.5536  158.5419 H   0  0  0  0  0  0  0  0  0  0  0  0
  144.0980  141.1431  158.0834 H   0  0  0  0  0  0  0  0  0  0  0  0
  141.6187  142.5010  156.0198 H   0  0  0  0  0  0  0  0  0  0  0  0
  142.5847  143.5457  155.0175 H   0  0  0  0  0  0  0  0  0  0  0  0
  142.2241  144.0197  156.6862 H   0  0  0  0  0  0  0  0  0  0  0  0
  144.3281  144.7520  154.9823 H   0  0  0  0  0  0  0  0  0  0  0  0
  145.9049  144.9640  155.6411 H   0  0  0  0  0  0  0  0  0  0  0  0
  146.0496  143.9083  153.4348 H   0  0  0  0  0  0  0  0  0  0  0  0
  145.0633  142.5586  153.9561 H   0  0  0  0  0  0  0  0  0  0  0  0
  150.8487  144.1355  159.1703 H   0  0  0  0  0  0  0  0  0  0  0  0
  147.6519  143.3206  155.0956 H   0  0  0  0  0  0  0  0  0  0  0  0
  1  2  1  0  0  0  0
  1 24  1  0  0  0  0
  1 25  1  0  0  0  0
  1 26  1  0  0  0  0
  2 23  1  0  0  0  0
  2  3  2  0  0  0  0
  3  4  1  0  0  0  0
  3 27  1  0  0  0  0
  4  5  1  0  0  0  0
  4  6  2  0  0  0  0
  5 28  1  0  0  0  0
  5 29  1  0  0  0  0
  5 30  1  0  0  0  0
  6  7  1  0  0  0  0
  7  8  1  0  0  0  0
  7 23  2  0  0  0  0
  8  9  1  0  0  0  0
  8 31  1  0  0  0  0
  9 10  2  0  0  0  0
  9 11  1  0  0  0  0
 11 12  1  0  0  0  0
 11 32  1  0  0  0  0
 12 13  1  0  0  0  0
 12 33  1  0  0  0  0
 12 34  1  0  0  0  0
 13 14  1  0  0  0  0
 13 35  1  0  0  0  0
 13 36  1  0  0  0  0
 14 22  1  0  0  0  0
 14 15  1  0  0  0  0
 14 53  1  0  0  0  0
 15 16  1  0  0  0  0
 15 37  1  0  0  0  0
 15 38  1  0  0  0  0
 16 17  1  0  0  0  0
 16 39  1  0  0  0  0
 16 40  1  0  0  0  0
 17 18  1  0  0  0  0
 17 21  1  0  0  0  0
 17 41  1  0  0  0  0
 18 19  1  0  0  0  0
 18 20  1  0  0  0  0
 19 42  1  0  0  0  0
 19 43  1  0  0  0  0
 19 44  1  0  0  0  0
 20 45  1  0  0  0  0
 20 46  1  0  0  0  0
 20 47  1  0  0  0  0
 21 22  1  0  0  0  0
 21 48  1  0  0  0  0
 21 49  1  0  0  0  0
 22 50  1  0  0  0  0
 22 51  1  0  0  0  0
 23 52  1  0  0  0  0
M  CHG  1  14   1
M  END
> <s_m_source_file>
AV-unprocessed.smi

> <i_m_source_file_index>
2221

> <i_lp_mmshare_version>
43012

> <i_f3d_flags>
0

> <s_epik_input>
W0NIM11jMVtjSF1jKFtDSDNdKW5jKFtjSF0xKVtOSF1DKD1PKVtOSF1bQ0gyXVtDSDJdTjJbQ0gyXVtDSDJdW0NIXShOKFtDSDNdKVtDSDNdKVtDSDJdW0NIMl0y

> <s_epik_cmdline>
J2VwaWtfcHl0aG9uJywgJy1waCcsICc3LjAnLCAnLXRuJywgJzgnLCAnLW1hJywgJzIwMCcsICctbWV0YWxfYmluZGluZycsICctaW1hZScsICc8aW5maWxlLm1hZT4nLCAnLW9tYWUnLCAnPG91dGZpbGUubWFlPic=

> <r_epik_Ionization_Penalty>
1.32168

> <r_epik_Ionization_Penalty_Charging>
0.00219175

> <r_epik_Ionization_Penalty_Neutral>
1.31949

> <r_epik_State_Penalty>
1.51166

> <r_epik_Charging_Adjusted_Penalty>
1.51385

> <i_epik_Tot_Q>
1

> <i_epik_Tot_abs_Q>
1

> <r_epik_Metal_State_Penalty>
1.51167

> <b_epik_Metal_Only>
0

> <s_lp_Force_Field>
OPLS_2005

> <r_lp_Energy>
32.286

> <b_lp_Chiralities_Consistent>
1

> <s_lp_Variant>
AV-unprocessed.smi:2221-5

> <Gold.Version>
5.8.1

> <Gold.Id.Protein>
6NUR|6NUR_protein|mol2

> <Gold.PLP.Fitness>
49.0310

> <Gold.PLP.PLP>
-41.0982

> <Gold.PLP.part.hbond>
-1.9778

> <Gold.PLP.part.metal>
0.0000

> <Gold.PLP.part.buried>
-5.2262

> <Gold.PLP.part.nonpolar>
-33.2410

> <Gold.PLP.part.repulsive>
0.3528

> <Gold.PLP.ligand.clash>
0.0000

> <Gold.PLP.ligand.torsion>
0.5489

> <Gold.PLP.Chemscore.Hbond>
3.0000

> <Gold.PLP.Chemscore.CHOScore>
0.0000

> <Gold.PLP.Chemscore.Metal>
0.0000

> <Gold.Chemscore.Hbonds>
donor molecule, donor type, donor heavy atom, donor atom, acceptor molecule, acceptor atom, score
      L1  H    11    32       P1  8028  1.00
      L1  H    14    53       P1  8028  2.00

> <Gold.PLP.Chemscore.Internal.Correction>
0.0306

> <Gold.Rescore>
     Score         DG    S(hbond)    S(metal)    S(lipo)     H(rot)  DE(clash)    DE(int)     intcor
     17.22     -20.32       2.06        0.00     103.23       1.61       1.38       1.73       ----

> <Gold.Chemscore.Fitness>
17.2155

> <Gold.Chemscore.DG>
-20.3243

> <Gold.Chemscore.ZeroCoef>
-5.4800

> <Gold.Chemscore.Hbond>
2.0636

> <Gold.Chemscore.Metal>
0.0000

> <Gold.Chemscore.Lipo>
103.2317

> <Gold.Chemscore.Internal_Hbond>
0.0000

> <Gold.Chemscore.DEClash>
1.3754

> <Gold.Chemscore.DEInternal>
1.7333

> <Gold.Chemscore.Rot>
1.6119

> <Gold.Chemscore.Internal.Correction>
   9.000000E+99

> <Gold.Chemscore.Hbonds>
donor molecule, donor type, donor heavy atom, donor atom, acceptor molecule, acceptor atom, score
      L1  H     8    31       P1  8028  0.02
      L1  H    11    32       P1  8028  1.00
      L1  H    14    53       P1  8028  0.35

> <Gold.Chemscore.Hbond.Weighted>
-6.8925

> <Gold.Chemscore.Metal.Weighted>
-0.0000

> <Gold.Chemscore.Lipo.Weighted>
-12.0781

> <Gold.Chemscore.Internal_Hbond.Weighted>
0.0000

> <Gold.Chemscore.DEClash.Weighted>
1.3754

> <Gold.Chemscore.DEInternal.Weighted>
1.7333

> <Gold.Chemscore.Rot.Weighted>
4.1264

> <Gold.Chemscore.Internal.Correction.Weighted>
   9.000000E+99

> <Gold.Protein.RotatedTorsions>
[ 6907 6896 6895 6894 ] final   70.25 input  -60.11 | X-H torsion
[ 7974 7965 7964 7962 ] final -170.26 input  175.53 | X-H torsion
[ 8008 7997 7996 7995 ] final  -42.12 input   59.86 | X-H torsion
[ 10167 10162 10161 10158 ] final  -52.63 input  -65.29 | X-H torsion
[ 10718 10713 10712 10709 ] final  -94.17 input   66.30 | X-H torsion
[ 10763 10752 10751 10750 ] final  -55.74 input  -60.55 | X-H torsion
[ 11005 11000 10999 10996 ] final  100.72 input  -57.11 | X-H torsion

> <Gold.Protein.ActiveResidues>
 VAL166  LYS551  ARG553  GLY616  TRP617  ASP618  TYR619  PRO620  LYS621  CYS622 
 ASP623  PHE694  ASN695  SER759  ASP760  ASP761  ALA762  ILE779  LEU786  VAL792 
 PHE793  MET794  SER795  GLU796  ALA797  LYS798  CYS799  TRP800  GLU811  SER814 

> <Gold.Protein.RotatedAtoms>
  152.4737  134.4896  159.9690 H   0  0  0  0  0  0  0  0  0  0  0  0  # atno 6907 bound_to 6896
  151.4917  133.3517  159.2862 H   0  0  0  0  0  0  0  0  0  0  0  0  # atno 6908 bound_to 6896
  150.8763  134.8173  159.7253 H   0  0  0  0  0  0  0  0  0  0  0  0  # atno 6909 bound_to 6896
  144.7173  140.2099  143.6328 H   0  0  0  0  0  0  0  0  0  0  0  0  # atno 7974 bound_to 7965
  154.4000  140.1482  156.3302 H   0  0  0  0  0  0  0  0  0  0  0  0  # atno 8008 bound_to 7997
  155.8450  140.3460  155.5635 H   0  0  0  0  0  0  0  0  0  0  0  0  # atno 8009 bound_to 7997
  155.8046  140.0875  157.1929 H   0  0  0  0  0  0  0  0  0  0  0  0  # atno 8010 bound_to 7997
  140.6527  143.2577  151.4676 H   0  0  0  0  0  0  0  0  0  0  0  0  # atno 10167 bound_to 10162
  156.0023  130.5056  150.5886 H   0  0  0  0  0  0  0  0  0  0  0  0  # atno 10718 bound_to 10713
  154.1955  135.6420  153.5072 H   0  0  0  0  0  0  0  0  0  0  0  0  # atno 10763 bound_to 10752
  153.0024  135.5439  154.6370 H   0  0  0  0  0  0  0  0  0  0  0  0  # atno 10764 bound_to 10752
  154.5770  135.2922  155.0744 H   0  0  0  0  0  0  0  0  0  0  0  0  # atno 10765 bound_to 10752
  139.8771  134.9152  156.4798 H   0  0  0  0  0  0  0  0  0  0  0  0  # atno 11005 bound_to 11000
  145.8601  139.2218  143.1722 LP  0  0  0  0  0  0  0  0  0  0  0  0  # atno 17320 bound_to 7965
  146.0181  140.8373  142.9937 LP  0  0  0  0  0  0  0  0  0  0  0  0  # atno 17321 bound_to 7965
  139.5744  144.1852  152.1883 LP  0  0  0  0  0  0  0  0  0  0  0  0  # atno 17342 bound_to 10162
  140.1158  144.5417  150.6895 LP  0  0  0  0  0  0  0  0  0  0  0  0  # atno 17343 bound_to 10162
  157.3754  131.0772  151.1522 LP  0  0  0  0  0  0  0  0  0  0  0  0  # atno 17370 bound_to 10713
  157.2262  130.6504  149.5831 LP  0  0  0  0  0  0  0  0  0  0  0  0  # atno 17371 bound_to 10713
  140.8735  133.7970  155.9390 LP  0  0  0  0  0  0  0  0  0  0  0  0  # atno 17394 bound_to 11000
  140.8928  134.2474  157.5085 LP  0  0  0  0  0  0  0  0  0  0  0  0  # atno 17395 bound_to 11000

$$$$
