AV-unprocessed.smi:412|AV-procd|sdf|2511|dock8
  -GOLD-   2262022463D 1   1.00000     0.00000
 Structure written by MMmdl.
 36 38  0  0  0  0  0  0  0  0  1 V2000
  154.0381  140.6077  160.5462 C   0  0  0  0  0  0  0  0  0  0  0  0
  152.9694  140.9608  159.6195 N   0  0  0  0  0  0  0  0  0  0  0  0
  152.2243  140.1134  158.8721 C   0  0  0  0  0  0  0  0  0  0  0  0
  152.3257  138.8867  158.8482 O   0  0  0  0  0  0  0  0  0  0  0  0
  151.3405  140.8500  158.1577 N   0  0  0  0  0  0  0  0  0  0  0  0
  150.3394  140.3391  157.2219 C   0  0  0  0  0  0  0  0  0  0  0  0
  150.5697  140.8614  155.7898 C   0  0  1  0  0  0  0  0  0  0  0  0
  151.7451  140.2652  155.2764 O   0  0  0  0  0  0  0  0  0  0  0  0
  149.3649  140.5754  154.9056 C   0  0  0  0  0  0  0  0  0  0  0  0
  148.9851  139.2473  154.6083 C   0  0  0  0  0  0  0  0  0  0  0  0
  147.8643  138.9942  153.7938 C   0  0  0  0  0  0  0  0  0  0  0  0
  147.1128  140.0665  153.2764 C   0  0  0  0  0  0  0  0  0  0  0  0
  147.4815  141.3920  153.5755 C   0  0  0  0  0  0  0  0  0  0  0  0
  148.6039  141.6457  154.3879 C   0  0  0  0  0  0  0  0  0  0  0  0
  151.5220  142.2071  158.4622 C   0  0  0  0  0  0  0  0  0  0  0  0
  150.8587  143.3586  158.0025 C   0  0  0  0  0  0  0  0  0  0  0  0
  151.2892  144.6029  158.5200 C   0  0  0  0  0  0  0  0  0  0  0  0
  152.3470  144.6716  159.4637 C   0  0  0  0  0  0  0  0  0  0  0  0
  152.9961  143.4970  159.9114 C   0  0  0  0  0  0  0  0  0  0  0  0
  152.5480  142.2750  159.3812 C   0  0  0  0  0  0  0  0  0  0  0  0
  154.2224  139.5329  160.5701 H   0  0  0  0  0  0  0  0  0  0  0  0
  153.7806  140.9272  161.5562 H   0  0  0  0  0  0  0  0  0  0  0  0
  154.9660  141.1017  160.2570 H   0  0  0  0  0  0  0  0  0  0  0  0
  150.2958  139.2497  157.2422 H   0  0  0  0  0  0  0  0  0  0  0  0
  149.3641  140.6774  157.5760 H   0  0  0  0  0  0  0  0  0  0  0  0
  150.7295  141.9405  155.8072 H   0  0  0  0  0  0  0  0  0  0  0  0
  151.9520  139.5094  155.8045 H   0  0  0  0  0  0  0  0  0  0  0  0
  149.5510  138.4175  155.0057 H   0  0  0  0  0  0  0  0  0  0  0  0
  147.5802  137.9771  153.5674 H   0  0  0  0  0  0  0  0  0  0  0  0
  146.2528  139.8726  152.6525 H   0  0  0  0  0  0  0  0  0  0  0  0
  146.9025  142.2148  153.1826 H   0  0  0  0  0  0  0  0  0  0  0  0
  148.8768  142.6663  154.6139 H   0  0  0  0  0  0  0  0  0  0  0  0
  150.0519  143.3021  157.2873 H   0  0  0  0  0  0  0  0  0  0  0  0
  150.8059  145.5118  158.1935 H   0  0  0  0  0  0  0  0  0  0  0  0
  152.6593  145.6322  159.8458 H   0  0  0  0  0  0  0  0  0  0  0  0
  153.8005  143.5401  160.6308 H   0  0  0  0  0  0  0  0  0  0  0  0
  1  2  1  0  0  0  0
  1 21  1  0  0  0  0
  1 22  1  0  0  0  0
  1 23  1  0  0  0  0
  2 20  1  0  0  0  0
  2  3  1  0  0  0  0
  3  4  2  0  0  0  0
  3  5  1  0  0  0  0
  5  6  1  0  0  0  0
  5 15  1  0  0  0  0
  6  7  1  0  0  0  0
  6 24  1  0  0  0  0
  6 25  1  0  0  0  0
  7  8  1  0  0  0  0
  7  9  1  0  0  0  0
  7 26  1  0  0  0  0
  8 27  1  0  0  0  0
  9 14  1  0  0  0  0
  9 10  2  0  0  0  0
 10 11  1  0  0  0  0
 10 28  1  0  0  0  0
 11 12  2  0  0  0  0
 11 29  1  0  0  0  0
 12 13  1  0  0  0  0
 12 30  1  0  0  0  0
 13 14  2  0  0  0  0
 13 31  1  0  0  0  0
 14 32  1  0  0  0  0
 15 20  2  0  0  0  0
 15 16  1  0  0  0  0
 16 17  2  0  0  0  0
 16 33  1  0  0  0  0
 17 18  1  0  0  0  0
 17 34  1  0  0  0  0
 18 19  2  0  0  0  0
 18 35  1  0  0  0  0
 19 20  1  0  0  0  0
 19 36  1  0  0  0  0
M  END
> <s_m_source_file>
AV-unprocessed.smi

> <i_m_source_file_index>
412

> <i_lp_mmshare_version>
43012

> <i_f3d_flags>
0

> <s_epik_input>
W2NIXTFbY0hdW2NIXVtjSF1jKGMxMiluKFtDSDNdKWMoPU8pbjJbQ0gyXVtDQEhdKFtPSF0pYzNbY0hdW2NIXVtjSF1bY0hdW2NIXTM=

> <s_epik_cmdline>
J2VwaWtfcHl0aG9uJywgJy1waCcsICc3LjAnLCAnLXRuJywgJzgnLCAnLW1hJywgJzIwMCcsICctbWV0YWxfYmluZGluZycsICctaW1hZScsICc8aW5maWxlLm1hZT4nLCAnLW9tYWUnLCAnPG91dGZpbGUubWFlPic=

> <r_lp_tautomer_probability>
1

> <r_epik_Ionization_Penalty>
1.34619e-06

> <r_epik_Ionization_Penalty_Charging>
2.57375e-09

> <r_epik_Ionization_Penalty_Neutral>
1.34362e-06

> <r_epik_State_Penalty>
-0

> <r_epik_Charging_Adjusted_Penalty>
2.57375e-09

> <i_epik_Tot_Q>
0

> <i_epik_Tot_abs_Q>
0

> <r_epik_Metal_State_Penalty>
-0

> <b_epik_Metal_Only>
0

> <s_lp_Force_Field>
OPLS_2005

> <r_lp_Energy>
43.5229

> <b_lp_Chiralities_Consistent>
1

> <s_lp_Variant>
AV-unprocessed.smi:412-2

> <Gold.Version>
5.8.1

> <Gold.Id.Protein>
6NUR|6NUR_protein|mol2

> <Gold.PLP.Fitness>
50.1763

> <Gold.PLP.PLP>
-47.7816

> <Gold.PLP.part.hbond>
-1.0000

> <Gold.PLP.part.metal>
0.0000

> <Gold.PLP.part.buried>
-5.9932

> <Gold.PLP.part.nonpolar>
-41.6758

> <Gold.PLP.part.repulsive>
0.0000

> <Gold.PLP.ligand.clash>
0.0000

> <Gold.PLP.ligand.torsion>
0.1018

> <Gold.PLP.Chemscore.Hbond>
0.8640

> <Gold.PLP.Chemscore.CHOScore>
0.0000

> <Gold.PLP.Chemscore.Metal>
0.0000

> <Gold.Chemscore.Hbonds>
donor molecule, donor type, donor heavy atom, donor atom, acceptor molecule, acceptor atom, score
      P1  H  7989  7998       L1     8  0.85

> <Gold.PLP.Chemscore.Internal.Correction>
0.0063

> <Gold.Rescore>
     Score         DG    S(hbond)    S(metal)    S(lipo)     H(rot)  DE(clash)    DE(int)     intcor
     17.95     -18.16       0.89        0.00     121.53       1.76       0.15       0.06       ----

> <Gold.Chemscore.Fitness>
17.9543

> <Gold.Chemscore.DG>
-18.1626

> <Gold.Chemscore.ZeroCoef>
-5.4800

> <Gold.Chemscore.Hbond>
0.8857

> <Gold.Chemscore.Metal>
0.0000

> <Gold.Chemscore.Lipo>
121.5269

> <Gold.Chemscore.Internal_Hbond>
0.0000

> <Gold.Chemscore.DEClash>
0.1465

> <Gold.Chemscore.DEInternal>
0.0618

> <Gold.Chemscore.Rot>
1.7555

> <Gold.Chemscore.Internal.Correction>
   9.000000E+99

> <Gold.Chemscore.Hbonds>
donor molecule, donor type, donor heavy atom, donor atom, acceptor molecule, acceptor atom, score
      P1  H  7989  7998       L1     8  0.22

> <Gold.Chemscore.Hbond.Weighted>
-2.9582

> <Gold.Chemscore.Metal.Weighted>
-0.0000

> <Gold.Chemscore.Lipo.Weighted>
-14.2186

> <Gold.Chemscore.Internal_Hbond.Weighted>
0.0000

> <Gold.Chemscore.DEClash.Weighted>
0.1465

> <Gold.Chemscore.DEInternal.Weighted>
0.0618

> <Gold.Chemscore.Rot.Weighted>
4.4942

> <Gold.Chemscore.Internal.Correction.Weighted>
   9.000000E+99

> <Gold.Protein.RotatedTorsions>
[ 6907 6896 6895 6894 ] final   -8.69 input  -60.11 | X-H torsion
[ 7974 7965 7964 7962 ] final  149.52 input  175.53 | X-H torsion
[ 8008 7997 7996 7995 ] final -142.34 input   59.86 | X-H torsion
[ 10167 10162 10161 10158 ] final -123.18 input  -65.29 | X-H torsion
[ 10718 10713 10712 10709 ] final   -3.83 input   66.30 | X-H torsion
[ 10763 10752 10751 10750 ] final  -98.25 input  -60.55 | X-H torsion
[ 11005 11000 10999 10996 ] final  -86.56 input  -57.11 | X-H torsion

> <Gold.Protein.ActiveResidues>
 VAL166  LYS551  ARG553  GLY616  TRP617  ASP618  TYR619  PRO620  LYS621  CYS622 
 ASP623  PHE694  ASN695  SER759  ASP760  ASP761  ALA762  ILE779  LEU786  VAL792 
 PHE793  MET794  SER795  GLU796  ALA797  LYS798  CYS799  TRP800  GLU811  SER814 

> <Gold.Protein.RotatedAtoms>
  151.4297  135.1008  159.9638 H   0  0  0  0  0  0  0  0  0  0  0  0  # atno 6907 bound_to 6896
  152.4960  133.8629  159.7270 H   0  0  0  0  0  0  0  0  0  0  0  0  # atno 6908 bound_to 6896
  150.9164  133.6876  159.2870 H   0  0  0  0  0  0  0  0  0  0  0  0  # atno 6909 bound_to 6896
  144.8432  139.6291  143.6007 H   0  0  0  0  0  0  0  0  0  0  0  0  # atno 7974 bound_to 7965
  155.4925  140.0569  157.2951 H   0  0  0  0  0  0  0  0  0  0  0  0  # atno 8008 bound_to 7997
  154.4617  140.1999  156.0176 H   0  0  0  0  0  0  0  0  0  0  0  0  # atno 8009 bound_to 7997
  156.0903  140.3234  155.7811 H   0  0  0  0  0  0  0  0  0  0  0  0  # atno 8010 bound_to 7997
  140.0063  143.5488  152.2282 H   0  0  0  0  0  0  0  0  0  0  0  0  # atno 10167 bound_to 10162
  156.7703  130.5298  149.5768 H   0  0  0  0  0  0  0  0  0  0  0  0  # atno 10718 bound_to 10713
  154.7398  135.5016  153.9104 H   0  0  0  0  0  0  0  0  0  0  0  0  # atno 10763 bound_to 10752
  153.1032  135.6690  153.9643 H   0  0  0  0  0  0  0  0  0  0  0  0  # atno 10764 bound_to 10752
  153.9423  135.3066  155.3421 H   0  0  0  0  0  0  0  0  0  0  0  0  # atno 10765 bound_to 10752
  141.1628  133.7461  156.9179 H   0  0  0  0  0  0  0  0  0  0  0  0  # atno 11005 bound_to 11000
  146.2721  139.6661  142.9289 LP  0  0  0  0  0  0  0  0  0  0  0  0  # atno 17320 bound_to 7965
  145.4651  141.0434  143.2730 LP  0  0  0  0  0  0  0  0  0  0  0  0  # atno 17321 bound_to 7965
  139.6236  144.7633  151.2686 LP  0  0  0  0  0  0  0  0  0  0  0  0  # atno 17342 bound_to 10162
  140.7399  143.6603  150.8170 LP  0  0  0  0  0  0  0  0  0  0  0  0  # atno 17343 bound_to 10162
  156.1282  130.6159  151.0295 LP  0  0  0  0  0  0  0  0  0  0  0  0  # atno 17370 bound_to 10713
  157.6694  131.0865  150.7650 LP  0  0  0  0  0  0  0  0  0  0  0  0  # atno 17371 bound_to 10713
  140.1472  134.9254  157.2544 LP  0  0  0  0  0  0  0  0  0  0  0  0  # atno 17394 bound_to 11000
  140.2766  134.3398  155.7356 LP  0  0  0  0  0  0  0  0  0  0  0  0  # atno 17395 bound_to 11000

$$$$
