AV-unprocessed.smi:2702|AV-procd|sdf|10430|dock8
  -GOLD-   2272014473D 1   1.00000     0.00000
 Structure written by MMmdl.
 47 48  0  0  0  0  0  0  0  0  1 V2000
  147.9338  135.5650  162.7474 C   0  0  0  0  0  0  0  0  0  0  0  0
  146.9812  135.1853  161.7701 O   0  0  0  0  0  0  0  0  0  0  0  0
  147.5845  134.6841  160.5895 C   0  0  0  0  0  0  0  0  0  0  0  0
  148.0268  135.8253  159.6966 C   0  0  0  0  0  0  0  0  0  0  0  0
  147.1663  136.7871  159.2895 C   0  0  0  0  0  0  0  0  0  0  0  0
  147.6165  137.8695  158.4144 C   0  0  0  0  0  0  0  0  0  0  0  0
  146.8676  138.7697  158.0338 O   0  0  0  0  0  0  0  0  0  0  0  0
  148.9315  137.8056  158.0512 N   0  0  0  0  0  0  0  0  0  0  0  0
  149.5370  138.8287  157.1788 C   0  0  0  0  0  0  0  0  0  0  0  0
  149.5353  140.2379  157.7907 C   0  0  0  0  0  0  0  0  0  0  0  0
  148.4836  140.8602  157.9458 O   0  0  0  0  0  0  0  0  0  0  0  0
  150.7362  140.7146  158.1539 N   0  0  0  0  0  0  0  0  0  0  0  0
  150.9936  142.0142  158.7738 C   0  0  2  0  0  0  0  0  0  0  0  0
  150.5237  143.1217  157.8109 C   0  0  0  0  0  0  0  0  0  0  0  0
  150.8310  144.5230  158.3567 C   0  0  0  0  0  0  0  0  0  0  0  0
  152.3243  144.6728  158.6869 C   0  0  0  0  0  0  0  0  0  0  0  0
  152.8150  143.5905  159.6698 C   0  0  1  0  0  0  0  0  0  0  0  0
  152.2935  143.8425  161.0997 C   0  0  0  0  0  0  0  0  0  0  0  0
  152.4984  142.1738  159.1194 C   0  0  1  0  0  0  0  0  0  0  0  0
  153.0329  141.0567  160.0377 C   0  0  0  0  0  0  0  0  0  0  0  0
  149.7830  136.7753  158.4983 C   0  0  0  0  0  0  0  0  0  0  0  0
  149.3604  135.8297  159.2757 N   0  0  0  0  0  0  0  0  0  0  0  0
  147.4205  135.9465  163.6299 H   0  0  0  0  0  0  0  0  0  0  0  0
  148.5909  136.3515  162.3736 H   0  0  0  0  0  0  0  0  0  0  0  0
  148.5441  134.7147  163.0546 H   0  0  0  0  0  0  0  0  0  0  0  0
  148.4493  134.0683  160.8426 H   0  0  0  0  0  0  0  0  0  0  0  0
  146.8830  134.0473  160.0478 H   0  0  0  0  0  0  0  0  0  0  0  0
  146.1362  136.7638  159.6140 H   0  0  0  0  0  0  0  0  0  0  0  0
  150.5660  138.5687  156.9234 H   0  0  0  0  0  0  0  0  0  0  0  0
  149.0126  138.8608  156.2218 H   0  0  0  0  0  0  0  0  0  0  0  0
  151.5415  140.1276  157.9912 H   0  0  0  0  0  0  0  0  0  0  0  0
  150.4135  142.1056  159.6932 H   0  0  0  0  0  0  0  0  0  0  0  0
  151.0125  143.0010  156.8429 H   0  0  0  0  0  0  0  0  0  0  0  0
  149.4525  143.0281  157.6281 H   0  0  0  0  0  0  0  0  0  0  0  0
  150.5366  145.2765  157.6257 H   0  0  0  0  0  0  0  0  0  0  0  0
  150.2298  144.7117  159.2465 H   0  0  0  0  0  0  0  0  0  0  0  0
  152.8997  144.6053  157.7626 H   0  0  0  0  0  0  0  0  0  0  0  0
  152.5197  145.6671  159.0900 H   0  0  0  0  0  0  0  0  0  0  0  0
  153.9007  143.6841  159.7217 H   0  0  0  0  0  0  0  0  0  0  0  0
  151.2138  143.7174  161.1731 H   0  0  0  0  0  0  0  0  0  0  0  0
  152.5280  144.8563  161.4253 H   0  0  0  0  0  0  0  0  0  0  0  0
  152.7539  143.1656  161.8189 H   0  0  0  0  0  0  0  0  0  0  0  0
  153.0499  142.0812  158.1821 H   0  0  0  0  0  0  0  0  0  0  0  0
  152.4480  140.9767  160.9543 H   0  0  0  0  0  0  0  0  0  0  0  0
  154.0709  141.2394  160.3162 H   0  0  0  0  0  0  0  0  0  0  0  0
  153.0003  140.0848  159.5450 H   0  0  0  0  0  0  0  0  0  0  0  0
  150.8148  136.8351  158.1480 H   0  0  0  0  0  0  0  0  0  0  0  0
  1  2  1  0  0  0  0
  1 23  1  0  0  0  0
  1 24  1  0  0  0  0
  1 25  1  0  0  0  0
  2  3  1  0  0  0  0
  3  4  1  0  0  0  0
  3 26  1  0  0  0  0
  3 27  1  0  0  0  0
  4 22  1  0  0  0  0
  4  5  2  0  0  0  0
  5  6  1  0  0  0  0
  5 28  1  0  0  0  0
  6  7  2  0  0  0  0
  6  8  1  0  0  0  0
  8  9  1  0  0  0  0
  8 21  1  0  0  0  0
  9 10  1  0  0  0  0
  9 29  1  0  0  0  0
  9 30  1  0  0  0  0
 10 11  2  0  0  0  0
 10 12  1  0  0  0  0
 12 13  1  0  0  0  0
 12 31  1  0  0  0  0
 13 19  1  0  0  0  0
 13 14  1  0  0  0  0
 13 32  1  0  0  0  0
 14 15  1  0  0  0  0
 14 33  1  0  0  0  0
 14 34  1  0  0  0  0
 15 16  1  0  0  0  0
 15 35  1  0  0  0  0
 15 36  1  0  0  0  0
 16 17  1  0  0  0  0
 16 37  1  0  0  0  0
 16 38  1  0  0  0  0
 17 18  1  0  0  0  0
 17 19  1  0  0  0  0
 17 39  1  0  0  0  0
 18 40  1  0  0  0  0
 18 41  1  0  0  0  0
 18 42  1  0  0  0  0
 19 20  1  0  0  0  0
 19 43  1  0  0  0  0
 20 44  1  0  0  0  0
 20 45  1  0  0  0  0
 20 46  1  0  0  0  0
 21 22  2  0  0  0  0
 21 47  1  0  0  0  0
M  END
> <s_m_source_file>
AV-unprocessed.smi

> <i_m_source_file_index>
2702

> <i_lp_mmshare_version>
43012

> <i_f3d_flags>
0

> <s_epik_input>
W0NIM11PW0NIMl1jMVtjSF1jKD1PKW4oW2NIXW4xKVtDSDJdQyg9TylbTkhdW0NAQEhdMltDSDJdW0NIMl1bQ0gyXVtDQEBIXShbQ0gzXSlbQ0BIXTJbQ0gzXQ==

> <s_epik_cmdline>
J2VwaWtfcHl0aG9uJywgJy1waCcsICc3LjAnLCAnLXRuJywgJzgnLCAnLW1hJywgJzIwMCcsICctbWV0YWxfYmluZGluZycsICctaW1hZScsICc8aW5maWxlLm1hZT4nLCAnLW9tYWUnLCAnPG91dGZpbGUubWFlPic=

> <r_lp_tautomer_probability>
1

> <r_epik_Ionization_Penalty>
1.22164e-06

> <r_epik_Ionization_Penalty_Charging>
3.17988e-07

> <r_epik_Ionization_Penalty_Neutral>
9.03656e-07

> <r_epik_State_Penalty>
-0

> <r_epik_Charging_Adjusted_Penalty>
3.17988e-07

> <i_epik_Tot_Q>
0

> <i_epik_Tot_abs_Q>
0

> <r_epik_Metal_State_Penalty>
-0

> <b_epik_Metal_Only>
0

> <s_lp_Force_Field>
OPLS_2005

> <r_lp_Energy>
19.3371

> <b_lp_Chiralities_Consistent>
1

> <s_lp_Variant>
AV-unprocessed.smi:2702-1

> <Gold.Version>
5.8.1

> <Gold.Id.Protein>
6NUR|6NUR_protein|mol2

> <Gold.PLP.Fitness>
44.1762

> <Gold.PLP.PLP>
-41.6519

> <Gold.PLP.part.hbond>
-1.0000

> <Gold.PLP.part.metal>
0.0000

> <Gold.PLP.part.buried>
-6.2411

> <Gold.PLP.part.nonpolar>
-34.6218

> <Gold.PLP.part.repulsive>
0.1644

> <Gold.PLP.ligand.clash>
0.0000

> <Gold.PLP.ligand.torsion>
0.2429

> <Gold.PLP.Chemscore.Hbond>
1.0000

> <Gold.PLP.Chemscore.CHOScore>
0.0000

> <Gold.PLP.Chemscore.Metal>
0.0000

> <Gold.Chemscore.Hbonds>
donor molecule, donor type, donor heavy atom, donor atom, acceptor molecule, acceptor atom, score
      P1  H  6896  6909       L1    22  1.00

> <Gold.PLP.Chemscore.Internal.Correction>
0.0102

> <Gold.Rescore>
     Score         DG    S(hbond)    S(metal)    S(lipo)     H(rot)  DE(clash)    DE(int)     intcor
     13.83     -16.87       0.94        0.00     112.80       1.93       0.04       2.99       ----

> <Gold.Chemscore.Fitness>
13.8321

> <Gold.Chemscore.DG>
-16.8675

> <Gold.Chemscore.ZeroCoef>
-5.4800

> <Gold.Chemscore.Hbond>
0.9360

> <Gold.Chemscore.Metal>
0.0000

> <Gold.Chemscore.Lipo>
112.8029

> <Gold.Chemscore.Internal_Hbond>
0.0000

> <Gold.Chemscore.DEClash>
0.0425

> <Gold.Chemscore.DEInternal>
2.9929

> <Gold.Chemscore.Rot>
1.9284

> <Gold.Chemscore.Internal.Correction>
   9.000000E+99

> <Gold.Chemscore.Hbonds>
donor molecule, donor type, donor heavy atom, donor atom, acceptor molecule, acceptor atom, score
      P1  H  6896  6909       L1    22  0.74

> <Gold.Chemscore.Hbond.Weighted>
-3.1263

> <Gold.Chemscore.Metal.Weighted>
-0.0000

> <Gold.Chemscore.Lipo.Weighted>
-13.1979

> <Gold.Chemscore.Internal_Hbond.Weighted>
0.0000

> <Gold.Chemscore.DEClash.Weighted>
0.0425

> <Gold.Chemscore.DEInternal.Weighted>
2.9929

> <Gold.Chemscore.Rot.Weighted>
4.9368

> <Gold.Chemscore.Internal.Correction.Weighted>
   9.000000E+99

> <Gold.Protein.RotatedTorsions>
[ 6907 6896 6895 6894 ] final   55.44 input  -60.11 | X-H torsion
[ 7974 7965 7964 7962 ] final -153.01 input  175.53 | X-H torsion
[ 8008 7997 7996 7995 ] final  145.95 input   59.86 | X-H torsion
[ 10167 10162 10161 10158 ] final   -1.83 input  -65.29 | X-H torsion
[ 10718 10713 10712 10709 ] final -143.02 input   66.30 | X-H torsion
[ 10763 10752 10751 10750 ] final  -22.80 input  -60.55 | X-H torsion
[ 11005 11000 10999 10996 ] final -157.00 input  -57.11 | X-H torsion

> <Gold.Protein.ActiveResidues>
 VAL166  LYS551  ARG553  GLY616  TRP617  ASP618  TYR619  PRO620  LYS621  CYS622 
 ASP623  PHE694  ASN695  SER759  ASP760  ASP761  ALA762  ILE779  LEU786  VAL792 
 PHE793  MET794  SER795  GLU796  ALA797  LYS798  CYS799  TRP800  GLU811  SER814 

> <Gold.Protein.RotatedAtoms>
  152.3539  134.6968  160.0227 H   0  0  0  0  0  0  0  0  0  0  0  0  # atno 6907 bound_to 6896
  151.7313  133.3312  159.3349 H   0  0  0  0  0  0  0  0  0  0  0  0  # atno 6908 bound_to 6896
  150.7558  134.6294  159.6223 H   0  0  0  0  0  0  0  0  0  0  0  0  # atno 6909 bound_to 6896
  144.7763  140.4584  143.5871 H   0  0  0  0  0  0  0  0  0  0  0  0  # atno 7974 bound_to 7965
  156.2869  140.2195  156.5298 H   0  0  0  0  0  0  0  0  0  0  0  0  # atno 8008 bound_to 7997
  154.7458  140.0484  157.0873 H   0  0  0  0  0  0  0  0  0  0  0  0  # atno 8009 bound_to 7997
  155.0172  140.3120  155.4810 H   0  0  0  0  0  0  0  0  0  0  0  0  # atno 8010 bound_to 7997
  140.6826  143.6729  150.8170 H   0  0  0  0  0  0  0  0  0  0  0  0  # atno 10167 bound_to 10162
  156.3529  130.7697  151.1853 H   0  0  0  0  0  0  0  0  0  0  0  0  # atno 10718 bound_to 10713
  153.6576  135.6978  153.5188 H   0  0  0  0  0  0  0  0  0  0  0  0  # atno 10763 bound_to 10752
  153.2657  135.4231  155.0937 H   0  0  0  0  0  0  0  0  0  0  0  0  # atno 10764 bound_to 10752
  154.8460  135.3566  154.6121 H   0  0  0  0  0  0  0  0  0  0  0  0  # atno 10765 bound_to 10752
  140.6694  134.4263  157.5232 H   0  0  0  0  0  0  0  0  0  0  0  0  # atno 11005 bound_to 11000
  145.6176  139.1520  143.3040 LP  0  0  0  0  0  0  0  0  0  0  0  0  # atno 17320 bound_to 7965
  146.1945  140.6288  142.9130 LP  0  0  0  0  0  0  0  0  0  0  0  0  # atno 17321 bound_to 7965
  140.0431  143.5325  152.2708 LP  0  0  0  0  0  0  0  0  0  0  0  0  # atno 17342 bound_to 10162
  139.6160  144.7619  151.2846 LP  0  0  0  0  0  0  0  0  0  0  0  0  # atno 17343 bound_to 10162
  157.7463  131.0422  150.4684 LP  0  0  0  0  0  0  0  0  0  0  0  0  # atno 17370 bound_to 10713
  156.4882  130.4089  149.6422 LP  0  0  0  0  0  0  0  0  0  0  0  0  # atno 17371 bound_to 10713
  139.8986  134.8609  156.1993 LP  0  0  0  0  0  0  0  0  0  0  0  0  # atno 17394 bound_to 11000
  141.0403  133.6941  156.1587 LP  0  0  0  0  0  0  0  0  0  0  0  0  # atno 17395 bound_to 11000

$$$$
