AV-unprocessed.smi:377|AV-procd|sdf|2456|dock7
  -GOLD-   2262022393D 1   1.00000     0.00000
 Structure written by MMmdl.
 33 34  0  0  0  0  0  0  0  0  1 V2000
  147.7558  141.7161  154.5507 C   0  0  0  0  0  0  0  0  0  0  0  0
  149.1808  141.1671  154.4016 C   0  0  0  0  0  0  0  0  0  0  0  0
  149.6881  140.6439  155.6645 N   0  0  0  0  0  0  0  0  0  0  0  0
  150.9396  140.2088  155.8732 C   0  0  0  0  0  0  0  0  0  0  0  0
  151.8062  140.2043  154.9971 O   0  0  0  0  0  0  0  0  0  0  0  0
  151.2434  139.7079  157.2940 C   0  0  0  0  0  0  0  0  0  0  0  0
  151.9211  140.7113  158.1442 N   0  0  0  0  0  0  0  0  0  0  0  0
  153.1398  140.3550  158.7767 C   0  0  0  0  0  0  0  0  0  0  0  0
  153.6437  139.2438  158.6037 O   0  0  0  0  0  0  0  0  0  0  0  0
  153.7237  141.3793  159.6395 C   0  0  0  0  0  0  0  0  0  0  0  0
  154.9323  141.0474  160.3180 C   0  0  0  0  0  0  0  0  0  0  0  0
  155.9025  140.7831  160.8911 N   0  0  0  0  0  0  0  0  0  0  0  0
  153.1335  142.5833  159.7862 C   0  0  0  0  0  0  0  0  0  0  0  0
  151.9701  142.9236  159.1310 N   0  0  0  0  0  0  0  0  0  0  0  0
  151.2747  144.1456  159.4213 C   0  0  0  0  0  0  0  0  0  0  0  0
  151.8717  145.4768  159.0081 C   0  0  0  0  0  0  0  0  0  0  0  0
  151.8401  145.0845  160.4649 C   0  0  0  0  0  0  0  0  0  0  0  0
  151.3029  141.9718  158.3295 C   0  0  0  0  0  0  0  0  0  0  0  0
  150.2105  142.2246  157.8149 O   0  0  0  0  0  0  0  0  0  0  0  0
  147.3752  142.0688  153.5920 H   0  0  0  0  0  0  0  0  0  0  0  0
  147.7230  142.5539  155.2481 H   0  0  0  0  0  0  0  0  0  0  0  0
  147.0740  140.9479  154.9167 H   0  0  0  0  0  0  0  0  0  0  0  0
  149.1876  140.3573  153.6718 H   0  0  0  0  0  0  0  0  0  0  0  0
  149.8480  141.9387  154.0146 H   0  0  0  0  0  0  0  0  0  0  0  0
  149.0395  140.6115  156.4377 H   0  0  0  0  0  0  0  0  0  0  0  0
  150.3089  139.3777  157.7504 H   0  0  0  0  0  0  0  0  0  0  0  0
  151.8369  138.7952  157.2197 H   0  0  0  0  0  0  0  0  0  0  0  0
  153.5913  143.3135  160.4382 H   0  0  0  0  0  0  0  0  0  0  0  0
  150.1886  144.0820  159.3801 H   0  0  0  0  0  0  0  0  0  0  0  0
  152.8418  145.4756  158.5149 H   0  0  0  0  0  0  0  0  0  0  0  0
  151.1837  146.2533  158.6802 H   0  0  0  0  0  0  0  0  0  0  0  0
  151.1331  145.6030  161.1093 H   0  0  0  0  0  0  0  0  0  0  0  0
  152.7888  144.8236  160.9304 H   0  0  0  0  0  0  0  0  0  0  0  0
  1  2  1  0  0  0  0
  1 20  1  0  0  0  0
  1 21  1  0  0  0  0
  1 22  1  0  0  0  0
  2  3  1  0  0  0  0
  2 23  1  0  0  0  0
  2 24  1  0  0  0  0
  3  4  1  0  0  0  0
  3 25  1  0  0  0  0
  4  5  2  0  0  0  0
  4  6  1  0  0  0  0
  6  7  1  0  0  0  0
  6 26  1  0  0  0  0
  6 27  1  0  0  0  0
  7 18  1  0  0  0  0
  7  8  1  0  0  0  0
  8  9  2  0  0  0  0
  8 10  1  0  0  0  0
 10 11  1  0  0  0  0
 10 13  2  0  0  0  0
 11 12  3  0  0  0  0
 13 14  1  0  0  0  0
 13 28  1  0  0  0  0
 14 15  1  0  0  0  0
 14 18  1  0  0  0  0
 15 17  1  0  0  0  0
 15 16  1  0  0  0  0
 15 29  1  0  0  0  0
 16 17  1  0  0  0  0
 16 30  1  0  0  0  0
 16 31  1  0  0  0  0
 17 32  1  0  0  0  0
 17 33  1  0  0  0  0
 18 19  2  0  0  0  0
M  END
> <s_m_source_file>
AV-unprocessed.smi

> <i_m_source_file_index>
377

> <i_lp_mmshare_version>
43012

> <i_f3d_flags>
0

> <s_epik_input>
W0NIM11bQ0gyXVtOSF1DKD1PKVtDSDJdbjFjKD1PKWMoQyNOKVtjSF1uKGMxPU8pW0NIXTJbQ0gyXVtDSDJdMg==

> <s_epik_cmdline>
J2VwaWtfcHl0aG9uJywgJy1waCcsICc3LjAnLCAnLXRuJywgJzgnLCAnLW1hJywgJzIwMCcsICctbWV0YWxfYmluZGluZycsICctaW1hZScsICc8aW5maWxlLm1hZT4nLCAnLW9tYWUnLCAnPG91dGZpbGUubWFlPic=

> <r_lp_tautomer_probability>
1

> <r_epik_Ionization_Penalty>
1.81858e-08

> <r_epik_Ionization_Penalty_Charging>
8.22213e-11

> <r_epik_Ionization_Penalty_Neutral>
1.81036e-08

> <r_epik_State_Penalty>
-0

> <r_epik_Charging_Adjusted_Penalty>
8.22213e-11

> <i_epik_Tot_Q>
0

> <i_epik_Tot_abs_Q>
0

> <r_epik_Metal_State_Penalty>
-0

> <b_epik_Metal_Only>
0

> <s_lp_Force_Field>
OPLS_2005

> <r_lp_Energy>
28.0616

> <b_lp_Chiralities_Consistent>
1

> <s_lp_Variant>
AV-unprocessed.smi:377-1

> <Gold.Version>
5.8.1

> <Gold.Id.Protein>
6NUR|6NUR_protein|mol2

> <Gold.PLP.Fitness>
46.6388

> <Gold.PLP.PLP>
-43.1232

> <Gold.PLP.part.hbond>
-3.0000

> <Gold.PLP.part.metal>
0.0000

> <Gold.PLP.part.buried>
-2.8678

> <Gold.PLP.part.nonpolar>
-36.2088

> <Gold.PLP.part.repulsive>
0.2401

> <Gold.PLP.ligand.clash>
0.0000

> <Gold.PLP.ligand.torsion>
0.4510

> <Gold.PLP.Chemscore.Hbond>
1.4023

> <Gold.PLP.Chemscore.CHOScore>
0.0000

> <Gold.PLP.Chemscore.Metal>
0.0000

> <Gold.Chemscore.Hbonds>
donor molecule, donor type, donor heavy atom, donor atom, acceptor molecule, acceptor atom, score
      P1  H  7989  7998       L1     5  0.88
      P1  H  7997  8009       L1     9  0.53

> <Gold.PLP.Chemscore.Internal.Correction>
0.2107

> <Gold.Rescore>
     Score         DG    S(hbond)    S(metal)    S(lipo)     H(rot)  DE(clash)    DE(int)     intcor
      9.89     -12.84       0.95        0.00      77.06       1.89       0.16       2.80       ----

> <Gold.Chemscore.Fitness>
9.8870

> <Gold.Chemscore.DG>
-12.8401

> <Gold.Chemscore.ZeroCoef>
-5.4800

> <Gold.Chemscore.Hbond>
0.9535

> <Gold.Chemscore.Metal>
0.0000

> <Gold.Chemscore.Lipo>
77.0608

> <Gold.Chemscore.Internal_Hbond>
0.0000

> <Gold.Chemscore.DEClash>
0.1554

> <Gold.Chemscore.DEInternal>
2.7977

> <Gold.Chemscore.Rot>
1.8908

> <Gold.Chemscore.Internal.Correction>
   9.000000E+99

> <Gold.Chemscore.Hbonds>
donor molecule, donor type, donor heavy atom, donor atom, acceptor molecule, acceptor atom, score
      P1  H  7989  7998       L1     5  0.86
      P1  H  7997  8009       L1     9  0.03

> <Gold.Chemscore.Hbond.Weighted>
-3.1846

> <Gold.Chemscore.Metal.Weighted>
-0.0000

> <Gold.Chemscore.Lipo.Weighted>
-9.0161

> <Gold.Chemscore.Internal_Hbond.Weighted>
0.0000

> <Gold.Chemscore.DEClash.Weighted>
0.1554

> <Gold.Chemscore.DEInternal.Weighted>
2.7977

> <Gold.Chemscore.Rot.Weighted>
4.8406

> <Gold.Chemscore.Internal.Correction.Weighted>
   9.000000E+99

> <Gold.Protein.RotatedTorsions>
[ 6907 6896 6895 6894 ] final -121.72 input  -60.11 | X-H torsion
[ 7974 7965 7964 7962 ] final  128.44 input  175.53 | X-H torsion
[ 8008 7997 7996 7995 ] final  120.98 input   59.86 | X-H torsion
[ 10167 10162 10161 10158 ] final  167.22 input  -65.29 | X-H torsion
[ 10718 10713 10712 10709 ] final  -91.67 input   66.30 | X-H torsion
[ 10763 10752 10751 10750 ] final   -3.59 input  -60.55 | X-H torsion
[ 11005 11000 10999 10996 ] final -128.37 input  -57.11 | X-H torsion

> <Gold.Protein.ActiveResidues>
 VAL166  LYS551  ARG553  GLY616  TRP617  ASP618  TYR619  PRO620  LYS621  CYS622 
 ASP623  PHE694  ASN695  SER759  ASP760  ASP761  ALA762  ILE779  LEU786  VAL792 
 PHE793  MET794  SER795  GLU796  ALA797  LYS798  CYS799  TRP800  GLU811  SER814 

> <Gold.Protein.RotatedAtoms>
  150.8509  133.7789  159.3025 H   0  0  0  0  0  0  0  0  0  0  0  0  # atno 6907 bound_to 6896
  151.5461  135.1066  159.9948 H   0  0  0  0  0  0  0  0  0  0  0  0  # atno 6908 bound_to 6896
  152.4551  133.7665  159.6831 H   0  0  0  0  0  0  0  0  0  0  0  0  # atno 6909 bound_to 6896
  145.0395  139.3975  143.5109 H   0  0  0  0  0  0  0  0  0  0  0  0  # atno 7974 bound_to 7965
  156.2667  140.2818  156.1236 H   0  0  0  0  0  0  0  0  0  0  0  0  # atno 8008 bound_to 7997
  155.1129  140.0391  157.2746 H   0  0  0  0  0  0  0  0  0  0  0  0  # atno 8009 bound_to 7997
  154.6728  140.2591  155.6995 H   0  0  0  0  0  0  0  0  0  0  0  0  # atno 8010 bound_to 7997
  139.4941  144.3945  151.9480 H   0  0  0  0  0  0  0  0  0  0  0  0  # atno 10167 bound_to 10162
  155.9995  130.4957  150.5510 H   0  0  0  0  0  0  0  0  0  0  0  0  # atno 10718 bound_to 10713
  153.3734  135.6995  153.6620 H   0  0  0  0  0  0  0  0  0  0  0  0  # atno 10763 bound_to 10752
  153.5260  135.3602  155.2655 H   0  0  0  0  0  0  0  0  0  0  0  0  # atno 10764 bound_to 10752
  154.8684  135.4169  154.3017 H   0  0  0  0  0  0  0  0  0  0  0  0  # atno 10765 bound_to 10752
  140.9522  134.1050  157.4051 H   0  0  0  0  0  0  0  0  0  0  0  0  # atno 11005 bound_to 11000
  146.3508  139.9988  142.8678 LP  0  0  0  0  0  0  0  0  0  0  0  0  # atno 17320 bound_to 7965
  145.1666  140.9700  143.4346 LP  0  0  0  0  0  0  0  0  0  0  0  0  # atno 17321 bound_to 7965
  140.3383  144.3234  150.5972 LP  0  0  0  0  0  0  0  0  0  0  0  0  # atno 17342 bound_to 10162
  140.5587  143.2195  151.7802 LP  0  0  0  0  0  0  0  0  0  0  0  0  # atno 17343 bound_to 10162
  157.3433  131.0720  151.1771 LP  0  0  0  0  0  0  0  0  0  0  0  0  # atno 17370 bound_to 10713
  157.2612  130.6660  149.5975 LP  0  0  0  0  0  0  0  0  0  0  0  0  # atno 17371 bound_to 10713
  139.8851  135.0069  156.6412 LP  0  0  0  0  0  0  0  0  0  0  0  0  # atno 17394 bound_to 11000
  140.7587  133.8836  155.8401 LP  0  0  0  0  0  0  0  0  0  0  0  0  # atno 17395 bound_to 11000

$$$$
