AV-unprocessed.smi:2202|AV-procd|sdf|8931|dock5
  -GOLD-   2272012143D 1   1.00000     0.00000
 Structure written by MMmdl.
 42 44  0  0  0  0  0  0  0  0  1 V2000
  150.5865  137.0373  156.7784 O   0  0  0  0  0  0  0  0  0  0  0  0
  150.5116  138.2298  157.0788 C   0  0  0  0  0  0  0  0  0  0  0  0
  151.4833  139.2582  156.4822 C   0  0  0  0  0  0  0  0  0  0  0  0
  151.5612  140.5023  157.2586 N   0  0  0  0  0  0  0  0  0  0  0  0
  150.7422  141.5585  157.0857 C   0  0  0  0  0  0  0  0  0  0  0  0
  149.7751  141.6349  156.3287 O   0  0  0  0  0  0  0  0  0  0  0  0
  151.2435  142.7161  157.9360 C   0  0  1  0  0  0  0  0  0  0  0  0
  150.2993  143.7155  158.6149 C   0  0  0  0  0  0  0  0  0  0  0  0
  151.1267  144.5663  159.5843 C   0  0  0  0  0  0  0  0  0  0  0  0
  152.3740  144.2354  160.0000 C   0  0  0  0  0  0  0  0  0  0  0  0
  153.0958  142.9490  159.5847 C   0  0  0  0  0  0  0  0  0  0  0  0
  152.0556  141.9915  158.9909 C   0  0  2  0  0  0  0  0  0  0  0  0
  152.4356  140.7114  158.2628 C   0  0  0  0  0  0  0  0  0  0  0  0
  153.3585  139.9754  158.6107 O   0  0  0  0  0  0  0  0  0  0  0  0
  149.6005  138.7140  157.9360 N   0  0  0  0  0  0  0  0  0  0  0  0
  148.5771  137.9196  158.6060 C   0  0  0  0  0  0  0  0  0  0  0  0
  149.1958  136.7681  159.4166 C   0  0  0  0  0  0  0  0  0  0  0  0
  148.2781  136.2856  160.5239 C   0  0  0  0  0  0  0  0  0  0  0  0
  147.9142  134.9251  160.6173 C   0  0  0  0  0  0  0  0  0  0  0  0
  147.0565  134.5306  161.6626 C   0  0  0  0  0  0  0  0  0  0  0  0
  146.5973  135.5063  162.5683 C   0  0  0  0  0  0  0  0  0  0  0  0
  147.0175  136.8392  162.3873 C   0  0  0  0  0  0  0  0  0  0  0  0
  147.8393  137.2280  161.3887 N   0  0  0  0  0  0  0  0  0  0  0  0
  152.4764  138.8111  156.4081 H   0  0  0  0  0  0  0  0  0  0  0  0
  151.1757  139.4711  155.4572 H   0  0  0  0  0  0  0  0  0  0  0  0
  151.9145  143.2833  157.2864 H   0  0  0  0  0  0  0  0  0  0  0  0
  149.8358  144.3624  157.8695 H   0  0  0  0  0  0  0  0  0  0  0  0
  149.4995  143.2112  159.1585 H   0  0  0  0  0  0  0  0  0  0  0  0
  150.6695  145.4785  159.9388 H   0  0  0  0  0  0  0  0  0  0  0  0
  152.9086  144.8969  160.6658 H   0  0  0  0  0  0  0  0  0  0  0  0
  153.8843  143.1839  158.8689 H   0  0  0  0  0  0  0  0  0  0  0  0
  153.5662  142.4988  160.4592 H   0  0  0  0  0  0  0  0  0  0  0  0
  151.3961  141.6754  159.8028 H   0  0  0  0  0  0  0  0  0  0  0  0
  149.6118  139.7045  158.1322 H   0  0  0  0  0  0  0  0  0  0  0  0
  147.9684  138.5592  159.2478 H   0  0  0  0  0  0  0  0  0  0  0  0
  147.9084  137.5180  157.8442 H   0  0  0  0  0  0  0  0  0  0  0  0
  149.4307  135.9324  158.7560 H   0  0  0  0  0  0  0  0  0  0  0  0
  150.1423  137.0819  159.8598 H   0  0  0  0  0  0  0  0  0  0  0  0
  148.2814  134.2000  159.9059 H   0  0  0  0  0  0  0  0  0  0  0  0
  146.7562  133.4984  161.7674 H   0  0  0  0  0  0  0  0  0  0  0  0
  145.9387  135.2401  163.3817 H   0  0  0  0  0  0  0  0  0  0  0  0
  146.6843  137.6136  163.0623 H   0  0  0  0  0  0  0  0  0  0  0  0
  1  2  2  0  0  0  0
  2  3  1  0  0  0  0
  2 15  1  0  0  0  0
  3  4  1  0  0  0  0
  3 24  1  0  0  0  0
  3 25  1  0  0  0  0
  4 13  1  0  0  0  0
  4  5  1  0  0  0  0
  5  6  2  0  0  0  0
  5  7  1  0  0  0  0
  7 12  1  0  0  0  0
  7  8  1  0  0  0  0
  7 26  1  0  0  0  0
  8  9  1  0  0  0  0
  8 27  1  0  0  0  0
  8 28  1  0  0  0  0
  9 10  2  0  0  0  0
  9 29  1  0  0  0  0
 10 11  1  0  0  0  0
 10 30  1  0  0  0  0
 11 12  1  0  0  0  0
 11 31  1  0  0  0  0
 11 32  1  0  0  0  0
 12 13  1  0  0  0  0
 12 33  1  0  0  0  0
 13 14  2  0  0  0  0
 15 16  1  0  0  0  0
 15 34  1  0  0  0  0
 16 17  1  0  0  0  0
 16 35  1  0  0  0  0
 16 36  1  0  0  0  0
 17 18  1  0  0  0  0
 17 37  1  0  0  0  0
 17 38  1  0  0  0  0
 18 23  1  0  0  0  0
 18 19  2  0  0  0  0
 19 20  1  0  0  0  0
 19 39  1  0  0  0  0
 20 21  2  0  0  0  0
 20 40  1  0  0  0  0
 21 22  1  0  0  0  0
 21 41  1  0  0  0  0
 22 23  2  0  0  0  0
 22 42  1  0  0  0  0
M  END
> <s_m_source_file>
AV-unprocessed.smi

> <i_m_source_file_index>
2202

> <i_lp_mmshare_version>
43012

> <i_f3d_flags>
0

> <s_epik_input>
W0NIMl0xW0NIXT1bQ0hdW0NIMl1bQ0BIXShbQ0BIXTEyKUMoPU8pTihDMj1PKVtDSDJdQyg9TylbTkhdW0NIMl1bQ0gyXWMzW2NIXVtjSF1bY0hdW2NIXW4z

> <s_epik_cmdline>
J2VwaWtfcHl0aG9uJywgJy1waCcsICc3LjAnLCAnLXRuJywgJzgnLCAnLW1hJywgJzIwMCcsICctbWV0YWxfYmluZGluZycsICctaW1hZScsICc8aW5maWxlLm1hZT4nLCAnLW9tYWUnLCAnPG91dGZpbGUubWFlPic=

> <r_lp_tautomer_probability>
1

> <r_epik_Ionization_Penalty>
0.0244696

> <r_epik_Ionization_Penalty_Charging>
0

> <r_epik_Ionization_Penalty_Neutral>
0.0244696

> <r_epik_State_Penalty>
0.0198648

> <r_epik_Charging_Adjusted_Penalty>
0.0198648

> <i_epik_Tot_Q>
0

> <i_epik_Tot_abs_Q>
0

> <r_epik_Metal_State_Penalty>
0.0190699

> <b_epik_Metal_Only>
0

> <s_lp_Force_Field>
OPLS_2005

> <r_lp_Energy>
20.8302

> <b_lp_Chiralities_Consistent>
1

> <s_lp_Variant>
AV-unprocessed.smi:2202-3

> <Gold.Version>
5.8.1

> <Gold.Id.Protein>
6NUR|6NUR_protein|mol2

> <Gold.PLP.Fitness>
51.2997

> <Gold.PLP.PLP>
-44.7726

> <Gold.PLP.part.hbond>
-3.0000

> <Gold.PLP.part.metal>
0.0000

> <Gold.PLP.part.buried>
-5.2900

> <Gold.PLP.part.nonpolar>
-36.7840

> <Gold.PLP.part.repulsive>
0.2105

> <Gold.PLP.ligand.clash>
0.0000

> <Gold.PLP.ligand.torsion>
0.7951

> <Gold.PLP.Chemscore.Hbond>
2.6960

> <Gold.PLP.Chemscore.CHOScore>
0.0000

> <Gold.PLP.Chemscore.Metal>
0.0000

> <Gold.Chemscore.Hbonds>
donor molecule, donor type, donor heavy atom, donor atom, acceptor molecule, acceptor atom, score
      P1  H  6931  6943       L1    23  1.00
      P1  H  6934  6947       L1    23  0.74
      P1  H  7997  8008       L1    14  0.99

> <Gold.PLP.Chemscore.Internal.Correction>
0.0293

> <Gold.Rescore>
     Score         DG    S(hbond)    S(metal)    S(lipo)     H(rot)  DE(clash)    DE(int)     intcor
     19.59     -20.32       1.89        0.00     113.49       1.85       0.09       0.63       ----

> <Gold.Chemscore.Fitness>
19.5934

> <Gold.Chemscore.DG>
-20.3181

> <Gold.Chemscore.ZeroCoef>
-5.4800

> <Gold.Chemscore.Hbond>
1.8879

> <Gold.Chemscore.Metal>
0.0000

> <Gold.Chemscore.Lipo>
113.4931

> <Gold.Chemscore.Internal_Hbond>
0.0000

> <Gold.Chemscore.DEClash>
0.0936

> <Gold.Chemscore.DEInternal>
0.6311

> <Gold.Chemscore.Rot>
1.8540

> <Gold.Chemscore.Internal.Correction>
   9.000000E+99

> <Gold.Chemscore.Hbonds>
donor molecule, donor type, donor heavy atom, donor atom, acceptor molecule, acceptor atom, score
      P1  H  6931  6943       L1    23  0.72
      P1  H  6934  6947       L1    23  0.29
      P1  H  7997  8008       L1    14  0.62

> <Gold.Chemscore.Hbond.Weighted>
-6.3056

> <Gold.Chemscore.Metal.Weighted>
-0.0000

> <Gold.Chemscore.Lipo.Weighted>
-13.2787

> <Gold.Chemscore.Internal_Hbond.Weighted>
0.0000

> <Gold.Chemscore.DEClash.Weighted>
0.0936

> <Gold.Chemscore.DEInternal.Weighted>
0.6311

> <Gold.Chemscore.Rot.Weighted>
4.7462

> <Gold.Chemscore.Internal.Correction.Weighted>
   9.000000E+99

> <Gold.Protein.RotatedTorsions>
[ 6907 6896 6895 6894 ] final    7.98 input  -60.11 | X-H torsion
[ 7974 7965 7964 7962 ] final   25.30 input  175.53 | X-H torsion
[ 8008 7997 7996 7995 ] final -103.42 input   59.86 | X-H torsion
[ 10167 10162 10161 10158 ] final  -10.01 input  -65.29 | X-H torsion
[ 10718 10713 10712 10709 ] final   12.00 input   66.30 | X-H torsion
[ 10763 10752 10751 10750 ] final  -38.63 input  -60.55 | X-H torsion
[ 11005 11000 10999 10996 ] final -172.17 input  -57.11 | X-H torsion

> <Gold.Protein.ActiveResidues>
 VAL166  LYS551  ARG553  GLY616  TRP617  ASP618  TYR619  PRO620  LYS621  CYS622 
 ASP623  PHE694  ASN695  SER759  ASP760  ASP761  ALA762  ILE779  LEU786  VAL792 
 PHE793  MET794  SER795  GLU796  ALA797  LYS798  CYS799  TRP800  GLU811  SER814 

> <Gold.Protein.RotatedAtoms>
  151.6987  135.0934  160.0246 H   0  0  0  0  0  0  0  0  0  0  0  0  # atno 6907 bound_to 6896
  152.3734  133.6445  159.6113 H   0  0  0  0  0  0  0  0  0  0  0  0  # atno 6908 bound_to 6896
  150.7690  133.9149  159.3422 H   0  0  0  0  0  0  0  0  0  0  0  0  # atno 6909 bound_to 6896
  146.1895  139.7485  142.8842 H   0  0  0  0  0  0  0  0  0  0  0  0  # atno 7974 bound_to 7965
  154.8706  140.0423  157.1722 H   0  0  0  0  0  0  0  0  0  0  0  0  # atno 8008 bound_to 7997
  154.8743  140.2963  155.5442 H   0  0  0  0  0  0  0  0  0  0  0  0  # atno 8009 bound_to 7997
  156.2999  140.2423  156.3736 H   0  0  0  0  0  0  0  0  0  0  0  0  # atno 8010 bound_to 7997
  140.7103  143.5795  150.9007 H   0  0  0  0  0  0  0  0  0  0  0  0  # atno 10167 bound_to 10162
  157.0038  130.6090  149.5699 H   0  0  0  0  0  0  0  0  0  0  0  0  # atno 10718 bound_to 10713
  153.9161  135.6787  153.4749 H   0  0  0  0  0  0  0  0  0  0  0  0  # atno 10763 bound_to 10752
  153.1053  135.4808  154.8937 H   0  0  0  0  0  0  0  0  0  0  0  0  # atno 10764 bound_to 10752
  154.7502  135.3183  154.8527 H   0  0  0  0  0  0  0  0  0  0  0  0  # atno 10765 bound_to 10752
  140.5000  134.5903  157.4984 H   0  0  0  0  0  0  0  0  0  0  0  0  # atno 11005 bound_to 11000
  145.3836  141.0362  143.3164 LP  0  0  0  0  0  0  0  0  0  0  0  0  # atno 17320 bound_to 7965
  144.8460  139.5396  143.6878 LP  0  0  0  0  0  0  0  0  0  0  0  0  # atno 17321 bound_to 7965
  139.9521  143.6260  152.3026 LP  0  0  0  0  0  0  0  0  0  0  0  0  # atno 17342 bound_to 10162
  139.6783  144.7657  151.1656 LP  0  0  0  0  0  0  0  0  0  0  0  0  # atno 17343 bound_to 10162
  156.0161  130.5255  150.8139 LP  0  0  0  0  0  0  0  0  0  0  0  0  # atno 17370 bound_to 10713
  157.5371  131.0939  150.9878 LP  0  0  0  0  0  0  0  0  0  0  0  0  # atno 17371 bound_to 10713
  139.9719  134.7279  156.0025 LP  0  0  0  0  0  0  0  0  0  0  0  0  # atno 17394 bound_to 11000
  141.1440  133.6559  156.3814 LP  0  0  0  0  0  0  0  0  0  0  0  0  # atno 17395 bound_to 11000

$$$$
