AV-unprocessed.smi:148|AV-procd|sdf|1206|dock5
  -GOLD-   2262018373D 1   1.00000     0.00000
 Structure written by MMmdl.
 63 67  0  0  0  0  0  0  0  0  1 V2000
  153.9858  138.4264  160.7257 O   0  0  0  0  0  0  0  0  0  0  0  0
  154.1858  139.7966  161.0037 C   0  0  0  0  0  0  0  0  0  0  0  0
  153.2093  140.6831  160.1955 C   0  0  2  0  0  0  0  0  0  0  0  0
  153.2954  140.3841  158.6756 C   0  0  0  0  0  0  0  0  0  0  0  0
  152.1597  139.6213  158.1888 N   0  0  0  0  0  0  0  0  0  0  0  0
  151.0471  139.2428  158.9074 C   0  0  0  0  0  0  0  0  0  0  0  0
  150.1520  138.5712  158.2353 N   0  0  0  0  0  0  0  0  0  0  0  0
  150.6957  138.4729  156.9613 C   0  0  0  0  0  0  0  0  0  0  0  0
  150.2509  137.9022  155.7407 C   0  0  0  0  0  0  0  0  0  0  0  0
  149.0548  137.2834  155.6382 N   0  0  0  0  0  0  0  0  0  0  0  0
  149.2506  135.8417  155.4680 C   0  0  0  0  0  0  0  0  0  0  0  0
  147.9410  135.0725  155.6642 C   0  0  0  0  0  0  0  0  0  0  0  0
  146.8739  135.6148  154.7126 C   0  0  0  0  0  0  0  0  0  0  0  0
  146.7087  137.1258  154.9198 C   0  0  0  0  0  0  0  0  0  0  0  0
  148.0434  137.9056  154.7571 C   0  0  1  0  0  0  0  0  0  0  0  0
  147.8162  139.4368  155.0189 C   0  0  1  0  0  0  0  0  0  0  0  0
  148.9758  140.3925  154.6553 C   0  0  0  0  0  0  0  0  0  0  0  0
  148.3608  141.7749  154.3935 C   0  0  0  0  0  0  0  0  0  0  0  0
  146.8434  141.5815  154.4392 C   0  0  0  0  0  0  0  0  0  0  0  0
  146.6273  140.0775  154.2701 C   0  0  1  0  0  0  0  0  0  0  0  0
  146.6603  139.7733  152.8863 O   0  0  0  0  0  0  0  0  0  0  0  0
  151.0657  137.9946  154.6563 N   0  0  0  0  0  0  0  0  0  0  0  0
  152.2425  138.6200  154.7611 C   0  0  0  0  0  0  0  0  0  0  0  0
  152.7818  139.2127  155.8295 N   0  0  0  0  0  0  0  0  0  0  0  0
  151.9632  139.1158  156.9165 C   0  0  0  0  0  0  0  0  0  0  0  0
  153.3757  142.1897  160.5371 C   0  0  2  0  0  0  0  0  0  0  0  0
  153.2520  142.5538  162.0177 C   0  0  0  0  0  0  0  0  0  0  0  0
  152.3367  143.7797  162.0278 C   0  0  0  0  0  0  0  0  0  0  0  0
  152.4067  144.2835  160.7033 O   0  0  0  0  0  0  0  0  0  0  0  0
  152.4106  143.1579  159.8420 C   0  0  0  0  0  0  0  0  0  0  0  0
  154.8053  138.0553  160.4366 H   0  0  0  0  0  0  0  0  0  0  0  0
  154.0733  139.9691  162.0743 H   0  0  0  0  0  0  0  0  0  0  0  0
  155.2220  140.0230  160.7535 H   0  0  0  0  0  0  0  0  0  0  0  0
  152.2023  140.4089  160.5139 H   0  0  0  0  0  0  0  0  0  0  0  0
  153.3455  141.3020  158.0915 H   0  0  0  0  0  0  0  0  0  0  0  0
  154.2004  139.8228  158.4445 H   0  0  0  0  0  0  0  0  0  0  0  0
  150.9134  139.4929  159.9498 H   0  0  0  0  0  0  0  0  0  0  0  0
  149.6432  135.6429  154.4695 H   0  0  0  0  0  0  0  0  0  0  0  0
  149.9934  135.4778  156.1800 H   0  0  0  0  0  0  0  0  0  0  0  0
  148.0998  134.0086  155.4862 H   0  0  0  0  0  0  0  0  0  0  0  0
  147.6043  135.1721  156.6970 H   0  0  0  0  0  0  0  0  0  0  0  0
  147.1598  135.4128  153.6796 H   0  0  0  0  0  0  0  0  0  0  0  0
  145.9249  135.1050  154.8813 H   0  0  0  0  0  0  0  0  0  0  0  0
  145.9580  137.4743  154.2124 H   0  0  0  0  0  0  0  0  0  0  0  0
  146.3001  137.3079  155.9149 H   0  0  0  0  0  0  0  0  0  0  0  0
  148.3817  137.7780  153.7276 H   0  0  0  0  0  0  0  0  0  0  0  0
  147.6123  139.5613  156.0840 H   0  0  0  0  0  0  0  0  0  0  0  0
  149.7242  140.4654  155.4418 H   0  0  0  0  0  0  0  0  0  0  0  0
  149.4813  140.0446  153.7535 H   0  0  0  0  0  0  0  0  0  0  0  0
  148.6834  142.5065  155.1351 H   0  0  0  0  0  0  0  0  0  0  0  0
  148.6730  142.1422  153.4152 H   0  0  0  0  0  0  0  0  0  0  0  0
  146.4730  141.8884  155.4183 H   0  0  0  0  0  0  0  0  0  0  0  0
  146.3183  142.1788  153.6926 H   0  0  0  0  0  0  0  0  0  0  0  0
  145.6644  139.7724  154.6816 H   0  0  0  0  0  0  0  0  0  0  0  0
  146.4110  138.8692  152.7716 H   0  0  0  0  0  0  0  0  0  0  0  0
  152.8348  138.6550  153.8587 H   0  0  0  0  0  0  0  0  0  0  0  0
  154.3820  142.4944  160.2463 H   0  0  0  0  0  0  0  0  0  0  0  0
  152.8499  141.7548  162.6397 H   0  0  0  0  0  0  0  0  0  0  0  0
  154.2340  142.8069  162.4196 H   0  0  0  0  0  0  0  0  0  0  0  0
  151.3082  143.4887  162.2470 H   0  0  0  0  0  0  0  0  0  0  0  0
  152.6430  144.5284  162.7587 H   0  0  0  0  0  0  0  0  0  0  0  0
  152.7370  143.4257  158.8368 H   0  0  0  0  0  0  0  0  0  0  0  0
  151.3957  142.7667  159.7775 H   0  0  0  0  0  0  0  0  0  0  0  0
  1  2  1  0  0  0  0
  1 31  1  0  0  0  0
  2  3  1  0  0  0  0
  2 32  1  0  0  0  0
  2 33  1  0  0  0  0
  3  4  1  0  0  0  0
  3 26  1  0  0  0  0
  3 34  1  0  0  0  0
  4  5  1  0  0  0  0
  4 35  1  0  0  0  0
  4 36  1  0  0  0  0
  5 25  1  0  0  0  0
  5  6  1  0  0  0  0
  6  7  2  0  0  0  0
  6 37  1  0  0  0  0
  7  8  1  0  0  0  0
  8 25  2  0  0  0  0
  8  9  1  0  0  0  0
  9 10  1  0  0  0  0
  9 22  2  0  0  0  0
 10 15  1  0  0  0  0
 10 11  1  0  0  0  0
 11 12  1  0  0  0  0
 11 38  1  0  0  0  0
 11 39  1  0  0  0  0
 12 13  1  0  0  0  0
 12 40  1  0  0  0  0
 12 41  1  0  0  0  0
 13 14  1  0  0  0  0
 13 42  1  0  0  0  0
 13 43  1  0  0  0  0
 14 15  1  0  0  0  0
 14 44  1  0  0  0  0
 14 45  1  0  0  0  0
 15 16  1  0  0  0  0
 15 46  1  0  0  0  0
 16 20  1  0  0  0  0
 16 17  1  0  0  0  0
 16 47  1  0  0  0  0
 17 18  1  0  0  0  0
 17 48  1  0  0  0  0
 17 49  1  0  0  0  0
 18 19  1  0  0  0  0
 18 50  1  0  0  0  0
 18 51  1  0  0  0  0
 19 20  1  0  0  0  0
 19 52  1  0  0  0  0
 19 53  1  0  0  0  0
 20 21  1  0  0  0  0
 20 54  1  0  0  0  0
 21 55  1  0  0  0  0
 22 23  1  0  0  0  0
 23 24  2  0  0  0  0
 23 56  1  0  0  0  0
 24 25  1  0  0  0  0
 26 30  1  0  0  0  0
 26 27  1  0  0  0  0
 26 57  1  0  0  0  0
 27 28  1  0  0  0  0
 27 58  1  0  0  0  0
 27 59  1  0  0  0  0
 28 29  1  0  0  0  0
 28 60  1  0  0  0  0
 28 61  1  0  0  0  0
 29 30  1  0  0  0  0
 30 62  1  0  0  0  0
 30 63  1  0  0  0  0
M  END
> <s_m_source_file>
AV-unprocessed.smi

> <i_m_source_file_index>
148

> <i_lp_mmshare_version>
43012

> <i_f3d_flags>
0

> <s_epik_input>
W0NIMl0xT1tDSDJdW0NIMl1bQ0BIXTFbQ0BIXShbQ0gyXVtPSF0pW0NIMl1uKFtjSF1uMiljKGMyMyluW2NIXW5jM040W0NIMl1bQ0gyXVtDSDJdW0NIMl1bQ0BIXTRbQ0BASF01W0NIMl1bQ0gyXVtDSDJdW0NASF01W09IXQ==

> <s_epik_cmdline>
J2VwaWtfcHl0aG9uJywgJy1waCcsICc3LjAnLCAnLXRuJywgJzgnLCAnLW1hJywgJzIwMCcsICctbWV0YWxfYmluZGluZycsICctaW1hZScsICc8aW5maWxlLm1hZT4nLCAnLW9tYWUnLCAnPG91dGZpbGUubWFlPic=

> <r_lp_tautomer_probability>
1

> <r_epik_Ionization_Penalty>
0.00556303

> <r_epik_Ionization_Penalty_Charging>
0

> <r_epik_Ionization_Penalty_Neutral>
0.00556303

> <r_epik_State_Penalty>
0.00401767

> <r_epik_Charging_Adjusted_Penalty>
0.00401767

> <i_epik_Tot_Q>
0

> <i_epik_Tot_abs_Q>
0

> <r_epik_Metal_State_Penalty>
-0

> <b_epik_Metal_Only>
0

> <s_lp_Force_Field>
OPLS_2005

> <r_lp_Energy>
71.7906

> <b_lp_Chiralities_Consistent>
1

> <s_lp_Variant>
AV-unprocessed.smi:148-5

> <Gold.Version>
5.8.1

> <Gold.Id.Protein>
6NUR|6NUR_protein|mol2

> <Gold.PLP.Fitness>
46.9319

> <Gold.PLP.PLP>
-45.1085

> <Gold.PLP.part.hbond>
-2.0000

> <Gold.PLP.part.metal>
0.0000

> <Gold.PLP.part.buried>
-3.0936

> <Gold.PLP.part.nonpolar>
-39.9704

> <Gold.PLP.part.repulsive>
0.3402

> <Gold.PLP.ligand.clash>
0.0000

> <Gold.PLP.ligand.torsion>
0.9428

> <Gold.PLP.Chemscore.Hbond>
1.0000

> <Gold.PLP.Chemscore.CHOScore>
0.0000

> <Gold.PLP.Chemscore.Metal>
0.0000

> <Gold.Chemscore.Hbonds>
donor molecule, donor type, donor heavy atom, donor atom, acceptor molecule, acceptor atom, score
      P1  H  7997  8010       L1    24  1.00

> <Gold.PLP.Chemscore.Internal.Correction>
0.7090

> <Gold.Rescore>
     Score         DG    S(hbond)    S(metal)    S(lipo)     H(rot)  DE(clash)    DE(int)     intcor
     11.44     -13.93       0.97        0.00     117.07       3.32       0.46       2.03       ----

> <Gold.Chemscore.Fitness>
11.4373

> <Gold.Chemscore.DG>
-13.9293

> <Gold.Chemscore.ZeroCoef>
-5.4800

> <Gold.Chemscore.Hbond>
0.9735

> <Gold.Chemscore.Metal>
0.0000

> <Gold.Chemscore.Lipo>
117.0740

> <Gold.Chemscore.Internal_Hbond>
0.0000

> <Gold.Chemscore.DEClash>
0.4601

> <Gold.Chemscore.DEInternal>
2.0318

> <Gold.Chemscore.Rot>
3.3203

> <Gold.Chemscore.Internal.Correction>
   9.000000E+99

> <Gold.Chemscore.Hbonds>
donor molecule, donor type, donor heavy atom, donor atom, acceptor molecule, acceptor atom, score
      P1  H  7997  8010       L1    24  0.78

> <Gold.Chemscore.Hbond.Weighted>
-3.2516

> <Gold.Chemscore.Metal.Weighted>
-0.0000

> <Gold.Chemscore.Lipo.Weighted>
-13.6977

> <Gold.Chemscore.Internal_Hbond.Weighted>
0.0000

> <Gold.Chemscore.DEClash.Weighted>
0.4601

> <Gold.Chemscore.DEInternal.Weighted>
2.0318

> <Gold.Chemscore.Rot.Weighted>
8.5000

> <Gold.Chemscore.Internal.Correction.Weighted>
   9.000000E+99

> <Gold.Protein.RotatedTorsions>
[ 6907 6896 6895 6894 ] final -133.74 input  -60.11 | X-H torsion
[ 7974 7965 7964 7962 ] final   76.87 input  175.53 | X-H torsion
[ 8008 7997 7996 7995 ] final   81.96 input   59.86 | X-H torsion
[ 10167 10162 10161 10158 ] final  -76.86 input  -65.29 | X-H torsion
[ 10718 10713 10712 10709 ] final  162.34 input   66.30 | X-H torsion
[ 10763 10752 10751 10750 ] final -107.73 input  -60.55 | X-H torsion
[ 11005 11000 10999 10996 ] final  142.17 input  -57.11 | X-H torsion

> <Gold.Protein.ActiveResidues>
 VAL166  LYS551  ARG553  GLY616  TRP617  ASP618  TYR619  PRO620  LYS621  CYS622 
 ASP623  PHE694  ASN695  SER759  ASP760  ASP761  ALA762  ILE779  LEU786  VAL792 
 PHE793  MET794  SER795  GLU796  ALA797  LYS798  CYS799  TRP800  GLU811  SER814 

> <Gold.Protein.RotatedAtoms>
  150.9776  133.6278  159.2727 H   0  0  0  0  0  0  0  0  0  0  0  0  # atno 6907 bound_to 6896
  151.3545  135.0890  159.9424 H   0  0  0  0  0  0  0  0  0  0  0  0  # atno 6908 bound_to 6896
  152.5204  133.9362  159.7659 H   0  0  0  0  0  0  0  0  0  0  0  0  # atno 6909 bound_to 6896
  145.6972  139.2571  143.1726 H   0  0  0  0  0  0  0  0  0  0  0  0  # atno 7974 bound_to 7965
  155.9042  140.3431  155.6049 H   0  0  0  0  0  0  0  0  0  0  0  0  # atno 8008 bound_to 7997
  155.7464  140.0814  157.2240 H   0  0  0  0  0  0  0  0  0  0  0  0  # atno 8009 bound_to 7997
  154.4047  140.1561  156.2662 H   0  0  0  0  0  0  0  0  0  0  0  0  # atno 8010 bound_to 7997
  140.4821  143.2400  151.8042 H   0  0  0  0  0  0  0  0  0  0  0  0  # atno 10167 bound_to 10162
  157.1239  131.0499  151.2402 H   0  0  0  0  0  0  0  0  0  0  0  0  # atno 10718 bound_to 10713
  154.8093  135.4664  154.0474 H   0  0  0  0  0  0  0  0  0  0  0  0  # atno 10763 bound_to 10752
  153.1918  135.6856  153.8350 H   0  0  0  0  0  0  0  0  0  0  0  0  # atno 10764 bound_to 10752
  153.7865  135.3249  155.3350 H   0  0  0  0  0  0  0  0  0  0  0  0  # atno 10765 bound_to 10752
  140.0457  134.9282  157.0925 H   0  0  0  0  0  0  0  0  0  0  0  0  # atno 11005 bound_to 11000
  146.0829  140.7743  142.9632 LP  0  0  0  0  0  0  0  0  0  0  0  0  # atno 17320 bound_to 7965
  144.6979  140.3517  143.7180 LP  0  0  0  0  0  0  0  0  0  0  0  0  # atno 17321 bound_to 7965
  139.4835  144.4759  151.9367 LP  0  0  0  0  0  0  0  0  0  0  0  0  # atno 17342 bound_to 10162
  140.3845  144.2694  150.5905 LP  0  0  0  0  0  0  0  0  0  0  0  0  # atno 17343 bound_to 10162
  157.4452  130.7567  149.7103 LP  0  0  0  0  0  0  0  0  0  0  0  0  # atno 17370 bound_to 10713
  155.9822  130.4011  150.3427 LP  0  0  0  0  0  0  0  0  0  0  0  0  # atno 17371 bound_to 10713
  140.3998  134.2095  155.7164 LP  0  0  0  0  0  0  0  0  0  0  0  0  # atno 17394 bound_to 11000
  141.1905  133.8214  157.0914 LP  0  0  0  0  0  0  0  0  0  0  0  0  # atno 17395 bound_to 11000

$$$$
