AV-unprocessed.smi:1208|AV-procd|sdf|5064|dock10
  -GOLD-   22720 4103D 1   1.00000     0.00000
 Structure written by MMmdl.
 35 36  0  0  0  0  0  0  0  0  2 V2000
  153.4274  140.0496  159.7165 C   0  0  0  0  0  0  0  0  0  0  0  0
  153.3020  141.5763  159.5874 C   0  0  1  0  0  0  0  0  0  0  0  0
  152.7487  141.9375  158.2866 N   0  0  0  0  0  0  0  0  0  0  0  0
  151.5551  141.5718  157.7937 C   0  0  0  0  0  0  0  0  0  0  0  0
  150.7283  140.9310  158.4423 O   0  0  0  0  0  0  0  0  0  0  0  0
  151.2453  141.9561  156.3361 C   0  0  0  0  0  0  0  0  0  0  0  0
  151.2108  140.8167  155.4026 N   0  0  0  0  0  0  0  0  0  0  0  0
  152.4811  140.1066  155.2845 N   0  5  0  0  0  0  0  0  0  0  0  0
  152.5546  139.0080  154.4870 C   0  0  0  0  0  0  0  0  0  0  0  0
  153.5830  138.3492  154.3533 O   0  0  0  0  0  0  0  0  0  0  0  0
  151.3588  138.6044  153.7660 C   0  0  0  0  0  0  0  0  0  0  0  0
  150.2024  139.2858  153.8842 C   0  0  0  0  0  0  0  0  0  0  0  0
  150.0737  140.4594  154.7392 C   0  0  0  0  0  0  0  0  0  0  0  0
  149.0155  141.0753  154.8656 O   0  0  0  0  0  0  0  0  0  0  0  0
  152.4393  142.1887  160.7119 C   0  0  1  0  0  0  0  0  0  0  0  0
  153.1452  142.3148  162.0738 C   0  0  0  0  0  0  0  0  0  0  0  0
  152.6749  143.6611  162.5812 C   0  0  0  0  0  0  0  0  0  0  0  0
  152.5472  144.4481  161.2855 C   0  0  0  0  0  0  0  0  0  0  0  0
  152.0157  143.5081  160.3623 O   0  0  0  0  0  0  0  0  0  0  0  0
  153.8473  139.7716  160.6833 H   0  0  0  0  0  0  0  0  0  0  0  0
  154.0813  139.6405  158.9458 H   0  0  0  0  0  0  0  0  0  0  0  0
  152.4570  139.5611  159.6223 H   0  0  0  0  0  0  0  0  0  0  0  0
  154.3020  142.0053  159.6718 H   0  0  0  0  0  0  0  0  0  0  0  0
  153.3478  142.4797  157.6795 H   0  0  0  0  0  0  0  0  0  0  0  0
  150.2924  142.4871  156.3059 H   0  0  0  0  0  0  0  0  0  0  0  0
  151.9925  142.6838  156.0150 H   0  0  0  0  0  0  0  0  0  0  0  0
  151.3987  137.7395  153.1205 H   0  0  0  0  0  0  0  0  0  0  0  0
  149.3387  138.9504  153.3299 H   0  0  0  0  0  0  0  0  0  0  0  0
  151.5366  141.5902  160.8412 H   0  0  0  0  0  0  0  0  0  0  0  0
  152.8951  141.4990  162.7523 H   0  0  0  0  0  0  0  0  0  0  0  0
  154.2301  142.3301  161.9658 H   0  0  0  0  0  0  0  0  0  0  0  0
  151.7001  143.5653  163.0611 H   0  0  0  0  0  0  0  0  0  0  0  0
  153.3668  144.1175  163.2896 H   0  0  0  0  0  0  0  0  0  0  0  0
  151.9080  145.3254  161.3822 H   0  0  0  0  0  0  0  0  0  0  0  0
  153.5268  144.7747  160.9360 H   0  0  0  0  0  0  0  0  0  0  0  0
  1  2  1  0  0  0  0
  1 20  1  0  0  0  0
  1 21  1  0  0  0  0
  1 22  1  0  0  0  0
  2  3  1  0  0  0  0
  2 15  1  0  0  0  0
  2 23  1  0  0  0  0
  3  4  1  0  0  0  0
  3 24  1  0  0  0  0
  4  5  2  0  0  0  0
  4  6  1  0  0  0  0
  6 25  1  0  0  0  0
  6 26  1  0  0  0  0
  6  7  1  0  0  0  0
  7  8  1  0  0  0  0
  7 13  1  0  0  0  0
  8  9  1  0  0  0  0
  9 10  2  0  0  0  0
  9 11  1  0  0  0  0
 11 27  1  0  0  0  0
 11 12  2  0  0  0  0
 12 28  1  0  0  0  0
 12 13  1  0  0  0  0
 13 14  2  0  0  0  0
 15 19  1  0  0  0  0
 15 16  1  0  0  0  0
 15 29  1  0  0  0  0
 16 17  1  0  0  0  0
 16 30  1  0  0  0  0
 16 31  1  0  0  0  0
 17 18  1  0  0  0  0
 17 32  1  0  0  0  0
 17 33  1  0  0  0  0
 18 19  1  0  0  0  0
 18 34  1  0  0  0  0
 18 35  1  0  0  0  0
M  CHG  1   8  -1
M  END
> <s_m_source_file>
AV-unprocessed.smi

> <i_m_source_file_index>
1208

> <i_lp_mmshare_version>
43012

> <i_f3d_flags>
0

> <s_epik_input>
TzFbQ0gyXVtDSDJdW0NIMl1bQ0BIXTFbQ0BIXShbQ0gzXSlbTkhdQyg9TylbQ0gyXW4yW25IXWMoPU8pW2NIXVtjSF1jMj1P

> <s_epik_cmdline>
J2VwaWtfcHl0aG9uJywgJy1waCcsICc3LjAnLCAnLXRuJywgJzgnLCAnLW1hJywgJzIwMCcsICctbWV0YWxfYmluZGluZycsICctaW1hZScsICc8aW5maWxlLm1hZT4nLCAnLW9tYWUnLCAnPG91dGZpbGUubWFlPic=

> <r_lp_tautomer_probability>
1

> <r_epik_Ionization_Penalty>
0.0975494

> <r_epik_Ionization_Penalty_Charging>
0.0975494

> <r_epik_Ionization_Penalty_Neutral>
2.30132e-08

> <r_epik_State_Penalty>
0.034345

> <r_epik_Charging_Adjusted_Penalty>
0.131894

> <i_epik_Tot_Q>
-1

> <i_epik_Tot_abs_Q>
1

> <r_epik_Metal_State_Penalty>
0.034345

> <b_epik_Metal_Only>
0

> <s_lp_Force_Field>
OPLS_2005

> <r_lp_Energy>
31.4648

> <b_lp_Chiralities_Consistent>
1

> <s_lp_Variant>
AV-unprocessed.smi:1208-4

> <Gold.Version>
5.8.1

> <Gold.Id.Protein>
6NUR|6NUR_protein|mol2

> <Gold.PLP.Fitness>
46.5862

> <Gold.PLP.PLP>
-41.4437

> <Gold.PLP.part.hbond>
-2.5082

> <Gold.PLP.part.metal>
0.0000

> <Gold.PLP.part.buried>
-1.6822

> <Gold.PLP.part.nonpolar>
-36.2201

> <Gold.PLP.part.repulsive>
0.2209

> <Gold.PLP.ligand.clash>
0.0000

> <Gold.PLP.ligand.torsion>
0.4382

> <Gold.PLP.Chemscore.Hbond>
2.0000

> <Gold.PLP.Chemscore.CHOScore>
0.0000

> <Gold.PLP.Chemscore.Metal>
0.0000

> <Gold.Chemscore.Hbonds>
donor molecule, donor type, donor heavy atom, donor atom, acceptor molecule, acceptor atom, score
      P1  H  7997  8008       L1     8  1.76

> <Gold.PLP.Chemscore.Internal.Correction>
0.0190

> <Gold.Rescore>
     Score         DG    S(hbond)    S(metal)    S(lipo)     H(rot)  DE(clash)    DE(int)     intcor
     11.35     -13.11       0.69        0.00      89.13       1.99       1.56       0.19       ----

> <Gold.Chemscore.Fitness>
11.3538

> <Gold.Chemscore.DG>
-13.1101

> <Gold.Chemscore.ZeroCoef>
-5.4800

> <Gold.Chemscore.Hbond>
0.6907

> <Gold.Chemscore.Metal>
0.0000

> <Gold.Chemscore.Lipo>
89.1264

> <Gold.Chemscore.Internal_Hbond>
0.0000

> <Gold.Chemscore.DEClash>
1.5620

> <Gold.Chemscore.DEInternal>
0.1943

> <Gold.Chemscore.Rot>
1.9940

> <Gold.Chemscore.Internal.Correction>
   9.000000E+99

> <Gold.Chemscore.Hbonds>
donor molecule, donor type, donor heavy atom, donor atom, acceptor molecule, acceptor atom, score
      P1  H  7997  8008       L1     8  0.19

> <Gold.Chemscore.Hbond.Weighted>
-2.3070

> <Gold.Chemscore.Metal.Weighted>
-0.0000

> <Gold.Chemscore.Lipo.Weighted>
-10.4278

> <Gold.Chemscore.Internal_Hbond.Weighted>
0.0000

> <Gold.Chemscore.DEClash.Weighted>
1.5620

> <Gold.Chemscore.DEInternal.Weighted>
0.1943

> <Gold.Chemscore.Rot.Weighted>
5.1047

> <Gold.Chemscore.Internal.Correction.Weighted>
   9.000000E+99

> <Gold.Protein.RotatedTorsions>
[ 6907 6896 6895 6894 ] final    0.50 input  -60.11 | X-H torsion
[ 7974 7965 7964 7962 ] final  -70.62 input  175.53 | X-H torsion
[ 8008 7997 7996 7995 ] final  -15.00 input   59.86 | X-H torsion
[ 10167 10162 10161 10158 ] final  -47.89 input  -65.29 | X-H torsion
[ 10718 10713 10712 10709 ] final    4.05 input   66.30 | X-H torsion
[ 10763 10752 10751 10750 ] final  -17.94 input  -60.55 | X-H torsion
[ 11005 11000 10999 10996 ] final -169.09 input  -57.11 | X-H torsion

> <Gold.Protein.ActiveResidues>
 VAL166  LYS551  ARG553  GLY616  TRP617  ASP618  TYR619  PRO620  LYS621  CYS622 
 ASP623  PHE694  ASN695  SER759  ASP760  ASP761  ALA762  ILE779  LEU786  VAL792 
 PHE793  MET794  SER795  GLU796  ALA797  LYS798  CYS799  TRP800  GLU811  SER814 

> <Gold.Protein.RotatedAtoms>
  151.5774  135.1060  160.0008 H   0  0  0  0  0  0  0  0  0  0  0  0  # atno 6907 bound_to 6896
  152.4371  133.7376  159.6633 H   0  0  0  0  0  0  0  0  0  0  0  0  # atno 6908 bound_to 6896
  150.8270  133.8085  159.3137 H   0  0  0  0  0  0  0  0  0  0  0  0  # atno 6909 bound_to 6896
  145.6886  140.9161  143.0794 H   0  0  0  0  0  0  0  0  0  0  0  0  # atno 7974 bound_to 7965
  154.5165  140.2208  155.9056 H   0  0  0  0  0  0  0  0  0  0  0  0  # atno 8008 bound_to 7997
  156.1613  140.3141  155.8778 H   0  0  0  0  0  0  0  0  0  0  0  0  # atno 8009 bound_to 7997
  155.3745  140.0468  157.3035 H   0  0  0  0  0  0  0  0  0  0  0  0  # atno 8010 bound_to 7997
  140.6755  143.2764  151.3992 H   0  0  0  0  0  0  0  0  0  0  0  0  # atno 10167 bound_to 10162
  156.8869  130.5673  149.5651 H   0  0  0  0  0  0  0  0  0  0  0  0  # atno 10718 bound_to 10713
  153.5816  135.7005  153.5461 H   0  0  0  0  0  0  0  0  0  0  0  0  # atno 10763 bound_to 10752
  153.3256  135.4062  155.1453 H   0  0  0  0  0  0  0  0  0  0  0  0  # atno 10764 bound_to 10752
  154.8616  135.3706  154.5344 H   0  0  0  0  0  0  0  0  0  0  0  0  # atno 10765 bound_to 10752
  140.5346  134.5582  157.5084 H   0  0  0  0  0  0  0  0  0  0  0  0  # atno 11005 bound_to 11000
  144.7003  139.8792  143.7446 LP  0  0  0  0  0  0  0  0  0  0  0  0  # atno 17320 bound_to 7965
  146.0901  139.3891  143.0411 LP  0  0  0  0  0  0  0  0  0  0  0  0  # atno 17321 bound_to 7965
  139.6045  144.1226  152.2234 LP  0  0  0  0  0  0  0  0  0  0  0  0  # atno 17342 bound_to 10162
  140.0620  144.5848  150.7255 LP  0  0  0  0  0  0  0  0  0  0  0  0  # atno 17343 bound_to 10162
  156.0648  130.5694  150.9267 LP  0  0  0  0  0  0  0  0  0  0  0  0  # atno 17370 bound_to 10713
  157.6107  131.0936  150.8800 LP  0  0  0  0  0  0  0  0  0  0  0  0  # atno 17371 bound_to 10713
  139.9536  134.7574  156.0393 LP  0  0  0  0  0  0  0  0  0  0  0  0  # atno 17394 bound_to 11000
  141.1262  133.6599  156.3342 LP  0  0  0  0  0  0  0  0  0  0  0  0  # atno 17395 bound_to 11000

$$$$
