AV-unprocessed.smi:1240|AV-procd|sdf|5196|dock9
  -GOLD-   22720 4283D 1   1.00000     0.00000
 Structure written by MMmdl.
 47 49  0  0  0  0  0  0  0  0  1 V2000
  144.3881  136.7638  152.0422 O   0  0  0  0  0  0  0  0  0  0  0  0
  145.6036  136.5902  151.9595 C   0  0  0  0  0  0  0  0  0  0  0  0
  146.5093  137.5052  152.3333 N   0  0  0  0  0  0  0  0  0  0  0  0
  146.2099  138.8245  152.8841 C   0  0  0  0  0  0  0  0  0  0  0  0
  146.9312  139.0552  154.2390 C   0  0  1  0  0  0  0  0  0  0  0  0
  148.4839  138.9518  154.1112 C   0  0  2  0  0  0  0  0  0  0  0  0
  149.2101  138.1217  155.1744 C   0  0  0  0  0  0  0  0  0  0  0  0
  150.3278  139.0429  155.6607 C   0  0  0  0  0  0  0  0  0  0  0  0
  150.5565  139.9142  154.5659 O   0  0  0  0  0  0  0  0  0  0  0  0
  149.2848  140.2634  154.0433 C   0  0  0  0  0  0  0  0  0  0  0  0
  146.4369  140.2096  155.0181 N   0  0  0  0  0  0  0  0  0  0  0  0
  146.5424  141.4794  154.3019 C   0  0  0  0  0  0  0  0  0  0  0  0
  145.8856  142.6306  155.0808 C   0  0  0  0  0  0  0  0  0  0  0  0
  146.4844  142.7283  156.3684 O   0  0  0  0  0  0  0  0  0  0  0  0
  146.3551  141.5287  157.1238 C   0  0  0  0  0  0  0  0  0  0  0  0
  146.9924  140.3527  156.3625 C   0  0  0  0  0  0  0  0  0  0  0  0
  146.2037  135.4901  151.4724 N   0  0  0  0  0  0  0  0  0  0  0  0
  145.6158  134.2936  150.9779 C   0  0  0  0  0  0  0  0  0  0  0  0
  146.4797  133.2255  150.6586 C   0  0  0  0  0  0  0  0  0  0  0  0
  145.9253  132.0214  150.1808 C   0  0  0  0  0  0  0  0  0  0  0  0
  144.5998  131.8288  150.0174 N   0  0  0  0  0  0  0  0  0  0  0  0
  143.7728  132.8472  150.3348 C   0  0  0  0  0  0  0  0  0  0  0  0
  144.2230  134.0913  150.8203 C   0  0  0  0  0  0  0  0  0  0  0  0
  147.4861  137.2748  152.2241 H   0  0  0  0  0  0  0  0  0  0  0  0
  146.4707  139.6149  152.1793 H   0  0  0  0  0  0  0  0  0  0  0  0
  145.1285  138.8689  153.0025 H   0  0  0  0  0  0  0  0  0  0  0  0
  146.6756  138.1835  154.8436 H   0  0  0  0  0  0  0  0  0  0  0  0
  148.6815  138.4468  153.1643 H   0  0  0  0  0  0  0  0  0  0  0  0
  148.5842  137.7881  156.0013 H   0  0  0  0  0  0  0  0  0  0  0  0
  149.6353  137.2282  154.7156 H   0  0  0  0  0  0  0  0  0  0  0  0
  150.0018  139.6251  156.5239 H   0  0  0  0  0  0  0  0  0  0  0  0
  151.2308  138.4985  155.9376 H   0  0  0  0  0  0  0  0  0  0  0  0
  149.3797  140.6399  153.0248 H   0  0  0  0  0  0  0  0  0  0  0  0
  148.8537  141.0607  154.6451 H   0  0  0  0  0  0  0  0  0  0  0  0
  147.5883  141.7336  154.1320 H   0  0  0  0  0  0  0  0  0  0  0  0
  146.0738  141.3951  153.3209 H   0  0  0  0  0  0  0  0  0  0  0  0
  146.0219  143.5737  154.5511 H   0  0  0  0  0  0  0  0  0  0  0  0
  144.8110  142.4697  155.1799 H   0  0  0  0  0  0  0  0  0  0  0  0
  146.8410  141.6615  158.0904 H   0  0  0  0  0  0  0  0  0  0  0  0
  145.3004  141.3302  157.3213 H   0  0  0  0  0  0  0  0  0  0  0  0
  146.8136  139.4528  156.9446 H   0  0  0  0  0  0  0  0  0  0  0  0
  148.0718  140.4985  156.3113 H   0  0  0  0  0  0  0  0  0  0  0  0
  147.2099  135.5316  151.4051 H   0  0  0  0  0  0  0  0  0  0  0  0
  147.5497  133.3234  150.7716 H   0  0  0  0  0  0  0  0  0  0  0  0
  146.5651  131.1898  149.9247 H   0  0  0  0  0  0  0  0  0  0  0  0
  142.7167  132.6632  150.2039 H   0  0  0  0  0  0  0  0  0  0  0  0
  143.4960  134.8486  151.0683 H   0  0  0  0  0  0  0  0  0  0  0  0
  1  2  2  0  0  0  0
  2  3  1  0  0  0  0
  2 17  1  0  0  0  0
  3  4  1  0  0  0  0
  3 24  1  0  0  0  0
  4  5  1  0  0  0  0
  4 25  1  0  0  0  0
  4 26  1  0  0  0  0
  5  6  1  0  0  0  0
  5 11  1  0  0  0  0
  5 27  1  0  0  0  0
  6 10  1  0  0  0  0
  6  7  1  0  0  0  0
  6 28  1  0  0  0  0
  7  8  1  0  0  0  0
  7 29  1  0  0  0  0
  7 30  1  0  0  0  0
  8  9  1  0  0  0  0
  8 31  1  0  0  0  0
  8 32  1  0  0  0  0
  9 10  1  0  0  0  0
 10 33  1  0  0  0  0
 10 34  1  0  0  0  0
 11 16  1  0  0  0  0
 11 12  1  0  0  0  0
 12 13  1  0  0  0  0
 12 35  1  0  0  0  0
 12 36  1  0  0  0  0
 13 14  1  0  0  0  0
 13 37  1  0  0  0  0
 13 38  1  0  0  0  0
 14 15  1  0  0  0  0
 15 16  1  0  0  0  0
 15 39  1  0  0  0  0
 15 40  1  0  0  0  0
 16 41  1  0  0  0  0
 16 42  1  0  0  0  0
 17 18  1  0  0  0  0
 17 43  1  0  0  0  0
 18 23  1  0  0  0  0
 18 19  2  0  0  0  0
 19 20  1  0  0  0  0
 19 44  1  0  0  0  0
 20 21  2  0  0  0  0
 20 45  1  0  0  0  0
 21 22  1  0  0  0  0
 22 23  2  0  0  0  0
 22 46  1  0  0  0  0
 23 47  1  0  0  0  0
M  END
> <s_m_source_file>
AV-unprocessed.smi

> <i_m_source_file_index>
1240

> <i_lp_mmshare_version>
43012

> <i_f3d_flags>
0

> <s_epik_input>
W2NIXTFbY0hdbltjSF1bY0hdYzFbTkhdQyg9TylbTkhdW0NIMl1bQ0BIXShbQ0BASF0yW0NIMl1bQ0gyXU9bQ0gyXTIpTjNbQ0gyXVtDSDJdT1tDSDJdW0NIMl0z

> <s_epik_cmdline>
J2VwaWtfcHl0aG9uJywgJy1waCcsICc3LjAnLCAnLXRuJywgJzgnLCAnLW1hJywgJzIwMCcsICctbWV0YWxfYmluZGluZycsICctaW1hZScsICc8aW5maWxlLm1hZT4nLCAnLW9tYWUnLCAnPG91dGZpbGUubWFlPic=

> <r_epik_Ionization_Penalty>
0.238664

> <r_epik_Ionization_Penalty_Charging>
0

> <r_epik_Ionization_Penalty_Neutral>
0.238664

> <r_epik_State_Penalty>
0.217087

> <r_epik_Charging_Adjusted_Penalty>
0.217087

> <i_epik_Tot_Q>
0

> <i_epik_Tot_abs_Q>
0

> <r_epik_Metal_State_Penalty>
0.199194

> <b_epik_Metal_Only>
0

> <s_lp_Force_Field>
OPLS_2005

> <r_lp_Energy>
59.2824

> <b_lp_Chiralities_Consistent>
1

> <s_lp_Variant>
AV-unprocessed.smi:1240-2

> <Gold.Version>
5.8.1

> <Gold.Id.Protein>
6NUR|6NUR_protein|mol2

> <Gold.PLP.Fitness>
44.1310

> <Gold.PLP.PLP>
-31.2932

> <Gold.PLP.part.hbond>
-3.3511

> <Gold.PLP.part.metal>
0.0000

> <Gold.PLP.part.buried>
-3.8935

> <Gold.PLP.part.nonpolar>
-26.9069

> <Gold.PLP.part.repulsive>
2.0767

> <Gold.PLP.ligand.clash>
0.0000

> <Gold.PLP.ligand.torsion>
1.1180

> <Gold.PLP.Chemscore.Hbond>
3.0000

> <Gold.PLP.Chemscore.CHOScore>
1.9001

> <Gold.PLP.Chemscore.Metal>
0.0000

> <Gold.Chemscore.Hbonds>
donor molecule, donor type, donor heavy atom, donor atom, acceptor molecule, acceptor atom, score
      L1  H     3    24       P1  7948  1.00
      L1  H    17    43       P1  7948  1.00
      P1  H  7989  7998       L1     9  1.00
      L1  C    20    45       P1 10747  1.00
      L1  C    22    46       P1 10186  0.90

> <Gold.PLP.Chemscore.Internal.Correction>
0.3734

> <Gold.Rescore>
     Score         DG    S(hbond)    S(metal)    S(lipo)     H(rot)  DE(clash)    DE(int)     intcor
     16.58     -20.40       2.83        0.00      82.95       1.65       1.40       2.42       ----

> <Gold.Chemscore.Fitness>
16.5824

> <Gold.Chemscore.DG>
-20.4039

> <Gold.Chemscore.ZeroCoef>
-5.4800

> <Gold.Chemscore.Hbond>
2.8278

> <Gold.Chemscore.Metal>
0.0000

> <Gold.Chemscore.Lipo>
82.9520

> <Gold.Chemscore.Internal_Hbond>
0.0000

> <Gold.Chemscore.DEClash>
1.3986

> <Gold.Chemscore.DEInternal>
2.4229

> <Gold.Chemscore.Rot>
1.6508

> <Gold.Chemscore.Internal.Correction>
   9.000000E+99

> <Gold.Chemscore.Hbonds>
donor molecule, donor type, donor heavy atom, donor atom, acceptor molecule, acceptor atom, score
      L1  H     3    24       P1  7948  0.99
      L1  H    17    43       P1  7948  0.94
      P1  H  7989  7998       L1     9  0.26

> <Gold.Chemscore.Hbond.Weighted>
-9.4447

> <Gold.Chemscore.Metal.Weighted>
-0.0000

> <Gold.Chemscore.Lipo.Weighted>
-9.7054

> <Gold.Chemscore.Internal_Hbond.Weighted>
0.0000

> <Gold.Chemscore.DEClash.Weighted>
1.3986

> <Gold.Chemscore.DEInternal.Weighted>
2.4229

> <Gold.Chemscore.Rot.Weighted>
4.2262

> <Gold.Chemscore.Internal.Correction.Weighted>
   9.000000E+99

> <Gold.Protein.RotatedTorsions>
[ 6907 6896 6895 6894 ] final  -93.86 input  -60.11 | X-H torsion
[ 7974 7965 7964 7962 ] final -105.72 input  175.53 | X-H torsion
[ 8008 7997 7996 7995 ] final -153.89 input   59.86 | X-H torsion
[ 10167 10162 10161 10158 ] final  -27.32 input  -65.29 | X-H torsion
[ 10718 10713 10712 10709 ] final -131.99 input   66.30 | X-H torsion
[ 10763 10752 10751 10750 ] final   50.54 input  -60.55 | X-H torsion
[ 11005 11000 10999 10996 ] final -166.80 input  -57.11 | X-H torsion

> <Gold.Protein.ActiveResidues>
 VAL166  LYS551  ARG553  GLY616  TRP617  ASP618  TYR619  PRO620  LYS621  CYS622 
 ASP623  PHE694  ASN695  SER759  ASP760  ASP761  ALA762  ILE779  LEU786  VAL792 
 PHE793  MET794  SER795  GLU796  ALA797  LYS798  CYS799  TRP800  GLU811  SER814 

> <Gold.Protein.RotatedAtoms>
  150.6930  134.1901  159.4281 H   0  0  0  0  0  0  0  0  0  0  0  0  # atno 6907 bound_to 6896
  151.9872  134.9995  160.0569 H   0  0  0  0  0  0  0  0  0  0  0  0  # atno 6908 bound_to 6896
  152.1701  133.4603  159.4941 H   0  0  0  0  0  0  0  0  0  0  0  0  # atno 6909 bound_to 6896
  145.2268  140.9155  143.3227 H   0  0  0  0  0  0  0  0  0  0  0  0  # atno 7974 bound_to 7965
  155.6779  140.0741  157.2496 H   0  0  0  0  0  0  0  0  0  0  0  0  # atno 8008 bound_to 7997
  154.4111  140.1687  156.2001 H   0  0  0  0  0  0  0  0  0  0  0  0  # atno 8009 bound_to 7997
  155.9560  140.3373  155.6452 H   0  0  0  0  0  0  0  0  0  0  0  0  # atno 8010 bound_to 7997
  140.7278  143.4103  151.1117 H   0  0  0  0  0  0  0  0  0  0  0  0  # atno 10167 bound_to 10162
  156.2300  130.7031  151.0848 H   0  0  0  0  0  0  0  0  0  0  0  0  # atno 10718 bound_to 10713
  152.9784  135.5875  154.4269 H   0  0  0  0  0  0  0  0  0  0  0  0  # atno 10763 bound_to 10752
  154.3887  135.2767  155.2170 H   0  0  0  0  0  0  0  0  0  0  0  0  # atno 10764 bound_to 10752
  154.4052  135.6094  153.5974 H   0  0  0  0  0  0  0  0  0  0  0  0  # atno 10765 bound_to 10752
  140.5604  134.5338  157.5142 H   0  0  0  0  0  0  0  0  0  0  0  0  # atno 11005 bound_to 11000
  144.9713  139.3877  143.6307 LP  0  0  0  0  0  0  0  0  0  0  0  0  # atno 17320 bound_to 7965
  146.3362  139.8812  142.8824 LP  0  0  0  0  0  0  0  0  0  0  0  0  # atno 17321 bound_to 7965
  139.7735  143.8459  152.3125 LP  0  0  0  0  0  0  0  0  0  0  0  0  # atno 17342 bound_to 10162
  139.8386  144.7221  150.9360 LP  0  0  0  0  0  0  0  0  0  0  0  0  # atno 17343 bound_to 10162
  157.7128  131.0725  150.6437 LP  0  0  0  0  0  0  0  0  0  0  0  0  # atno 17370 bound_to 10713
  156.6504  130.4483  149.5721 LP  0  0  0  0  0  0  0  0  0  0  0  0  # atno 17371 bound_to 10713
  139.9410  134.7786  156.0678 LP  0  0  0  0  0  0  0  0  0  0  0  0  # atno 17394 bound_to 11000
  141.1118  133.6641  156.2996 LP  0  0  0  0  0  0  0  0  0  0  0  0  # atno 17395 bound_to 11000

$$$$
