AV-unprocessed.smi:2600|AV-procd|sdf|10181|dock10
  -GOLD-   2272014193D 1   1.00000     0.00000
 Structure written by MMmdl.
 44 45  0  0  0  0  0  0  0  0  1 V2000
  147.6480  140.5868  153.7247 C   0  0  0  0  0  0  0  0  0  0  0  0
  148.9885  141.0204  154.3405 C   0  0  0  0  0  0  0  0  0  0  0  0
  149.8682  139.8757  154.8974 C   0  0  1  0  0  0  0  0  0  0  0  0
  149.2079  139.3454  156.1915 C   0  0  0  0  0  0  0  0  0  0  0  0
  150.0701  138.7453  153.8527 C   0  0  0  0  0  0  0  0  0  0  0  0
  151.0641  137.7840  154.3516 N   0  0  0  0  0  0  0  0  0  0  0  0
  150.8407  136.5046  154.7424 C   0  0  0  0  0  0  0  0  0  0  0  0
  151.6153  135.8736  155.4631 O   0  0  0  0  0  0  0  0  0  0  0  0
  149.6980  135.9693  154.2805 N   0  0  0  0  0  0  0  0  0  0  0  0
  149.2101  134.6318  154.5933 C   0  0  0  0  0  0  0  0  0  0  0  0
  150.1744  133.5493  154.0800 C   0  0  0  0  0  0  0  0  0  0  0  0
  149.4822  132.2911  153.6621 C   0  0  0  0  0  0  0  0  0  0  0  0
  149.6884  131.0024  154.0680 C   0  0  0  0  0  0  0  0  0  0  0  0
  148.7320  130.2498  153.3328 C   0  0  0  0  0  0  0  0  0  0  0  0
  147.9941  131.0054  152.5381 N   0  0  0  0  0  0  0  0  0  0  0  0
  148.4538  132.2595  152.7352 N   0  0  0  0  0  0  0  0  0  0  0  0
  147.8437  133.3530  152.0021 C   0  0  0  0  0  0  0  0  0  0  0  0
  152.3522  138.4543  154.5358 C   0  0  0  0  0  0  0  0  0  0  0  0
  152.1762  139.5518  155.5980 C   0  0  0  0  0  0  0  0  0  0  0  0
  151.1406  140.4586  155.2115 O   0  0  0  0  0  0  0  0  0  0  0  0
  147.1455  141.4397  153.2684 H   0  0  0  0  0  0  0  0  0  0  0  0
  146.9688  140.1795  154.4727 H   0  0  0  0  0  0  0  0  0  0  0  0
  147.7877  139.8352  152.9476 H   0  0  0  0  0  0  0  0  0  0  0  0
  149.5507  141.5564  153.5744 H   0  0  0  0  0  0  0  0  0  0  0  0
  148.7924  141.7482  155.1291 H   0  0  0  0  0  0  0  0  0  0  0  0
  148.2075  138.9617  155.9891 H   0  0  0  0  0  0  0  0  0  0  0  0
  149.1117  140.1366  156.9352 H   0  0  0  0  0  0  0  0  0  0  0  0
  149.7691  138.5347  156.6546 H   0  0  0  0  0  0  0  0  0  0  0  0
  149.1086  138.2984  153.5995 H   0  0  0  0  0  0  0  0  0  0  0  0
  150.4520  139.1467  152.9143 H   0  0  0  0  0  0  0  0  0  0  0  0
  149.1150  136.5409  153.6866 H   0  0  0  0  0  0  0  0  0  0  0  0
  149.1066  134.5529  155.6758 H   0  0  0  0  0  0  0  0  0  0  0  0
  148.2117  134.4939  154.1761 H   0  0  0  0  0  0  0  0  0  0  0  0
  150.7603  133.9341  153.2448 H   0  0  0  0  0  0  0  0  0  0  0  0
  150.8979  133.3145  154.8615 H   0  0  0  0  0  0  0  0  0  0  0  0
  150.4149  130.6502  154.7855 H   0  0  0  0  0  0  0  0  0  0  0  0
  148.5532  129.1850  153.3532 H   0  0  0  0  0  0  0  0  0  0  0  0
  148.5936  134.1005  151.7441 H   0  0  0  0  0  0  0  0  0  0  0  0
  147.0720  133.8185  152.6155 H   0  0  0  0  0  0  0  0  0  0  0  0
  147.3899  132.9864  151.0805 H   0  0  0  0  0  0  0  0  0  0  0  0
  153.1481  137.7713  154.8355 H   0  0  0  0  0  0  0  0  0  0  0  0
  152.6740  138.8936  153.5903 H   0  0  0  0  0  0  0  0  0  0  0  0
  151.9605  139.1164  156.5738 H   0  0  0  0  0  0  0  0  0  0  0  0
  153.1031  140.1143  155.7103 H   0  0  0  0  0  0  0  0  0  0  0  0
  1  2  1  0  0  0  0
  1 21  1  0  0  0  0
  1 22  1  0  0  0  0
  1 23  1  0  0  0  0
  2  3  1  0  0  0  0
  2 24  1  0  0  0  0
  2 25  1  0  0  0  0
  3 20  1  0  0  0  0
  3  4  1  0  0  0  0
  3  5  1  0  0  0  0
  4 26  1  0  0  0  0
  4 27  1  0  0  0  0
  4 28  1  0  0  0  0
  5  6  1  0  0  0  0
  5 29  1  0  0  0  0
  5 30  1  0  0  0  0
  6  7  1  0  0  0  0
  6 18  1  0  0  0  0
  7  8  2  0  0  0  0
  7  9  1  0  0  0  0
  9 10  1  0  0  0  0
  9 31  1  0  0  0  0
 10 11  1  0  0  0  0
 10 32  1  0  0  0  0
 10 33  1  0  0  0  0
 11 12  1  0  0  0  0
 11 34  1  0  0  0  0
 11 35  1  0  0  0  0
 12 16  1  0  0  0  0
 12 13  2  0  0  0  0
 13 14  1  0  0  0  0
 13 36  1  0  0  0  0
 14 15  2  0  0  0  0
 14 37  1  0  0  0  0
 15 16  1  0  0  0  0
 16 17  1  0  0  0  0
 17 38  1  0  0  0  0
 17 39  1  0  0  0  0
 17 40  1  0  0  0  0
 18 19  1  0  0  0  0
 18 41  1  0  0  0  0
 18 42  1  0  0  0  0
 19 20  1  0  0  0  0
 19 43  1  0  0  0  0
 19 44  1  0  0  0  0
M  END
> <s_m_source_file>
AV-unprocessed.smi

> <i_m_source_file_index>
2600

> <i_lp_mmshare_version>
43012

> <i_f3d_flags>
0

> <s_epik_input>
W0NIM11bQ0gyXVtDQEBdMShbQ0gzXSlbQ0gyXU4oW0NIMl1bQ0gyXU8xKUMoPU8pW05IXVtDSDJdW0NIMl1jMltjSF1bY0hdbm4yW0NIM10=

> <s_epik_cmdline>
J2VwaWtfcHl0aG9uJywgJy1waCcsICc3LjAnLCAnLXRuJywgJzgnLCAnLW1hJywgJzIwMCcsICctbWV0YWxfYmluZGluZycsICctaW1hZScsICc8aW5maWxlLm1hZT4nLCAnLW9tYWUnLCAnPG91dGZpbGUubWFlPic=

> <r_lp_tautomer_probability>
1

> <r_epik_Ionization_Penalty>
0.00252014

> <r_epik_Ionization_Penalty_Charging>
0

> <r_epik_Ionization_Penalty_Neutral>
0.00252014

> <r_epik_State_Penalty>
0.00172506

> <r_epik_Charging_Adjusted_Penalty>
0.00172506

> <i_epik_Tot_Q>
0

> <i_epik_Tot_abs_Q>
0

> <r_epik_Metal_State_Penalty>
-0

> <b_epik_Metal_Only>
0

> <s_lp_Force_Field>
OPLS_2005

> <r_lp_Energy>
28.913

> <b_lp_Chiralities_Consistent>
1

> <s_lp_Variant>
AV-unprocessed.smi:2600-1

> <Gold.Version>
5.8.1

> <Gold.Id.Protein>
6NUR|6NUR_protein|mol2

> <Gold.PLP.Fitness>
46.7041

> <Gold.PLP.PLP>
-40.5658

> <Gold.PLP.part.hbond>
-3.0000

> <Gold.PLP.part.metal>
0.0000

> <Gold.PLP.part.buried>
-3.9480

> <Gold.PLP.part.nonpolar>
-34.6867

> <Gold.PLP.part.repulsive>
0.2261

> <Gold.PLP.ligand.clash>
0.0000

> <Gold.PLP.ligand.torsion>
0.4333

> <Gold.PLP.Chemscore.Hbond>
2.3266

> <Gold.PLP.Chemscore.CHOScore>
0.0000

> <Gold.PLP.Chemscore.Metal>
0.0000

> <Gold.Chemscore.Hbonds>
donor molecule, donor type, donor heavy atom, donor atom, acceptor molecule, acceptor atom, score
      L1  H     9    31       P1  7948  0.43
      P1  H  7989  7998       L1    20  0.88
      P1  H 10752 10765       L1     8  1.00

> <Gold.PLP.Chemscore.Internal.Correction>
0.0251

> <Gold.Rescore>
     Score         DG    S(hbond)    S(metal)    S(lipo)     H(rot)  DE(clash)    DE(int)     intcor
     14.71     -15.15       1.21        0.00      80.44       1.47       0.03       0.41       ----

> <Gold.Chemscore.Fitness>
14.7078

> <Gold.Chemscore.DG>
-15.1520

> <Gold.Chemscore.ZeroCoef>
-5.4800

> <Gold.Chemscore.Hbond>
1.2074

> <Gold.Chemscore.Metal>
0.0000

> <Gold.Chemscore.Lipo>
80.4378

> <Gold.Chemscore.Internal_Hbond>
0.0000

> <Gold.Chemscore.DEClash>
0.0308

> <Gold.Chemscore.DEInternal>
0.4134

> <Gold.Chemscore.Rot>
1.4735

> <Gold.Chemscore.Internal.Correction>
   9.000000E+99

> <Gold.Chemscore.Hbonds>
donor molecule, donor type, donor heavy atom, donor atom, acceptor molecule, acceptor atom, score
      L1  H     9    31       P1  7948  0.42
      P1  H  7989  7998       L1    20  0.06
      P1  H 10752 10765       L1     8  0.79

> <Gold.Chemscore.Hbond.Weighted>
-4.0328

> <Gold.Chemscore.Metal.Weighted>
-0.0000

> <Gold.Chemscore.Lipo.Weighted>
-9.4112

> <Gold.Chemscore.Internal_Hbond.Weighted>
0.0000

> <Gold.Chemscore.DEClash.Weighted>
0.0308

> <Gold.Chemscore.DEInternal.Weighted>
0.4134

> <Gold.Chemscore.Rot.Weighted>
3.7721

> <Gold.Chemscore.Internal.Correction.Weighted>
   9.000000E+99

> <Gold.Protein.RotatedTorsions>
[ 6907 6896 6895 6894 ] final  102.24 input  -60.11 | X-H torsion
[ 7974 7965 7964 7962 ] final   58.75 input  175.53 | X-H torsion
[ 8008 7997 7996 7995 ] final  159.88 input   59.86 | X-H torsion
[ 10167 10162 10161 10158 ] final   86.32 input  -65.29 | X-H torsion
[ 10718 10713 10712 10709 ] final -145.56 input   66.30 | X-H torsion
[ 10763 10752 10751 10750 ] final -171.99 input  -60.55 | X-H torsion
[ 11005 11000 10999 10996 ] final   46.88 input  -57.11 | X-H torsion

> <Gold.Protein.ActiveResidues>
 VAL166  LYS551  ARG553  GLY616  TRP617  ASP618  TYR619  PRO620  LYS621  CYS622 
 ASP623  PHE694  ASN695  SER759  ASP760  ASP761  ALA762  ILE779  LEU786  VAL792 
 PHE793  MET794  SER795  GLU796  ALA797  LYS798  CYS799  TRP800  GLU811  SER814 

> <Gold.Protein.RotatedAtoms>
  152.5329  134.0005  159.7892 H   0  0  0  0  0  0  0  0  0  0  0  0  # atno 6907 bound_to 6896
  151.0225  133.5856  159.2677 H   0  0  0  0  0  0  0  0  0  0  0  0  # atno 6908 bound_to 6896
  151.2890  135.0743  159.9251 H   0  0  0  0  0  0  0  0  0  0  0  0  # atno 6909 bound_to 6896
  145.9148  139.3682  143.0514 H   0  0  0  0  0  0  0  0  0  0  0  0  # atno 7974 bound_to 7965
  156.2210  140.1819  156.7477 H   0  0  0  0  0  0  0  0  0  0  0  0  # atno 8008 bound_to 7997
  154.5865  140.0657  156.9207 H   0  0  0  0  0  0  0  0  0  0  0  0  # atno 8009 bound_to 7997
  155.2411  140.3322  155.4294 H   0  0  0  0  0  0  0  0  0  0  0  0  # atno 8010 bound_to 7997
  139.8887  144.6398  150.8762 H   0  0  0  0  0  0  0  0  0  0  0  0  # atno 10167 bound_to 10162
  156.3840  130.7851  151.2047 H   0  0  0  0  0  0  0  0  0  0  0  0  # atno 10718 bound_to 10713
  154.6243  135.2879  155.0290 H   0  0  0  0  0  0  0  0  0  0  0  0  # atno 10763 bound_to 10752
  154.1473  135.6509  153.4959 H   0  0  0  0  0  0  0  0  0  0  0  0  # atno 10764 bound_to 10752
  153.0250  135.5347  154.7046 H   0  0  0  0  0  0  0  0  0  0  0  0  # atno 10765 bound_to 10752
  140.1329  134.4682  155.8508 H   0  0  0  0  0  0  0  0  0  0  0  0  # atno 11005 bound_to 11000
  145.8626  140.9466  143.0692 LP  0  0  0  0  0  0  0  0  0  0  0  0  # atno 17320 bound_to 7965
  144.6747  140.0550  143.7477 LP  0  0  0  0  0  0  0  0  0  0  0  0  # atno 17321 bound_to 7965
  140.7731  143.3527  151.1982 LP  0  0  0  0  0  0  0  0  0  0  0  0  # atno 17342 bound_to 10162
  139.7129  143.9347  152.2955 LP  0  0  0  0  0  0  0  0  0  0  0  0  # atno 17343 bound_to 10162
  157.7494  131.0335  150.4277 LP  0  0  0  0  0  0  0  0  0  0  0  0  # atno 17370 bound_to 10713
  156.4526  130.4015  149.6626 LP  0  0  0  0  0  0  0  0  0  0  0  0  # atno 17371 bound_to 10713
  141.2173  133.6803  156.7103 LP  0  0  0  0  0  0  0  0  0  0  0  0  # atno 17394 bound_to 11000
  140.2819  134.8310  157.3941 LP  0  0  0  0  0  0  0  0  0  0  0  0  # atno 17395 bound_to 11000

$$$$
