AV-unprocessed.smi:2470|AV-procd|sdf|9735|dock10
  -GOLD-   2272013373D 1   1.00000     0.00000
 Structure written by MMmdl.
 33 34  0  0  0  0  0  0  0  0  1 V2000
  150.6926  137.5527  158.5496 C   0  0  0  0  0  0  0  0  0  0  0  0
  150.7216  137.2069  157.1694 O   0  0  0  0  0  0  0  0  0  0  0  0
  150.5101  138.2069  156.2429 C   0  0  0  0  0  0  0  0  0  0  0  0
  150.4777  139.5499  156.6714 C   0  0  0  0  0  0  0  0  0  0  0  0
  150.2628  140.5436  155.6903 C   0  0  0  0  0  0  0  0  0  0  0  0
  150.2377  141.8822  156.1634 N   0  0  0  0  0  0  0  0  0  0  0  0
  151.0173  142.4438  157.1039 C   0  0  0  0  0  0  0  0  0  0  0  0
  151.8925  141.8587  157.7427 O   0  0  0  0  0  0  0  0  0  0  0  0
  150.7178  143.7414  157.2680 N   0  0  0  0  0  0  0  0  0  0  0  0
  151.3637  144.6580  158.2038 C   0  0  2  0  0  0  0  0  0  0  0  0
  152.8635  144.7301  157.8842 C   0  0  0  0  0  0  0  0  0  0  0  0
  151.1323  144.2697  159.6518 C   0  0  0  0  0  0  0  0  0  0  0  0
  152.0077  144.8164  160.7535 C   0  0  0  0  0  0  0  0  0  0  0  0
  152.0917  143.3545  160.3746 C   0  0  0  0  0  0  0  0  0  0  0  0
  150.0945  140.1877  154.3926 N   0  0  0  0  0  0  0  0  0  0  0  0
  150.1408  138.8892  154.0892 C   0  0  0  0  0  0  0  0  0  0  0  0
  150.3388  137.8806  154.9389 N   0  0  0  0  0  0  0  0  0  0  0  0
  150.8588  136.6579  159.1491 H   0  0  0  0  0  0  0  0  0  0  0  0
  149.7257  137.9681  158.8371 H   0  0  0  0  0  0  0  0  0  0  0  0
  151.4780  138.2683  158.7972 H   0  0  0  0  0  0  0  0  0  0  0  0
  150.6147  139.8016  157.7130 H   0  0  0  0  0  0  0  0  0  0  0  0
  149.5498  142.4821  155.7333 H   0  0  0  0  0  0  0  0  0  0  0  0
  149.9818  144.1299  156.6968 H   0  0  0  0  0  0  0  0  0  0  0  0
  150.9547  145.6616  158.0738 H   0  0  0  0  0  0  0  0  0  0  0  0
  153.3708  145.4371  158.5413 H   0  0  0  0  0  0  0  0  0  0  0  0
  153.0315  145.0586  156.8579 H   0  0  0  0  0  0  0  0  0  0  0  0
  153.3435  143.7585  158.0070 H   0  0  0  0  0  0  0  0  0  0  0  0
  150.0813  144.1399  159.9046 H   0  0  0  0  0  0  0  0  0  0  0  0
  152.8388  145.4586  160.4682 H   0  0  0  0  0  0  0  0  0  0  0  0
  151.5287  145.0652  161.6983 H   0  0  0  0  0  0  0  0  0  0  0  0
  151.6689  142.6295  161.0667 H   0  0  0  0  0  0  0  0  0  0  0  0
  152.9812  143.0262  159.8404 H   0  0  0  0  0  0  0  0  0  0  0  0
  150.0035  138.6288  153.0502 H   0  0  0  0  0  0  0  0  0  0  0  0
  1  2  1  0  0  0  0
  1 18  1  0  0  0  0
  1 19  1  0  0  0  0
  1 20  1  0  0  0  0
  2  3  1  0  0  0  0
  3 17  1  0  0  0  0
  3  4  2  0  0  0  0
  4  5  1  0  0  0  0
  4 21  1  0  0  0  0
  5  6  1  0  0  0  0
  5 15  2  0  0  0  0
  6  7  1  0  0  0  0
  6 22  1  0  0  0  0
  7  8  2  0  0  0  0
  7  9  1  0  0  0  0
  9 10  1  0  0  0  0
  9 23  1  0  0  0  0
 10 11  1  0  0  0  0
 10 12  1  0  0  0  0
 10 24  1  0  0  0  0
 11 25  1  0  0  0  0
 11 26  1  0  0  0  0
 11 27  1  0  0  0  0
 12 14  1  0  0  0  0
 12 13  1  0  0  0  0
 12 28  1  0  0  0  0
 13 14  1  0  0  0  0
 13 29  1  0  0  0  0
 13 30  1  0  0  0  0
 14 31  1  0  0  0  0
 14 32  1  0  0  0  0
 15 16  1  0  0  0  0
 16 17  2  0  0  0  0
 16 33  1  0  0  0  0
M  END
> <s_m_source_file>
AV-unprocessed.smi

> <i_m_source_file_index>
2470

> <i_lp_mmshare_version>
43012

> <i_f3d_flags>
0

> <s_epik_input>
W0NIM11PYzFbY0hdYyhuW2NIXW4xKVtOSF1DKD1PKVtOSF1bQ0BIXShbQ0gzXSlbQ0hdMltDSDJdW0NIMl0y

> <s_epik_cmdline>
J2VwaWtfcHl0aG9uJywgJy1waCcsICc3LjAnLCAnLXRuJywgJzgnLCAnLW1hJywgJzIwMCcsICctbWV0YWxfYmluZGluZycsICctaW1hZScsICc8aW5maWxlLm1hZT4nLCAnLW9tYWUnLCAnPG91dGZpbGUubWFlPic=

> <r_lp_tautomer_probability>
1

> <r_epik_Ionization_Penalty>
2.81207e-05

> <r_epik_Ionization_Penalty_Charging>
0

> <r_epik_Ionization_Penalty_Neutral>
2.81207e-05

> <r_epik_State_Penalty>
-0

> <r_epik_Charging_Adjusted_Penalty>
0

> <i_epik_Tot_Q>
0

> <i_epik_Tot_abs_Q>
0

> <r_epik_Metal_State_Penalty>
-0

> <b_epik_Metal_Only>
0

> <s_lp_Force_Field>
OPLS_2005

> <r_lp_Energy>
11.3699

> <b_lp_Chiralities_Consistent>
1

> <s_lp_Variant>
AV-unprocessed.smi:2470-1

> <Gold.Version>
5.8.1

> <Gold.Id.Protein>
6NUR|6NUR_protein|mol2

> <Gold.PLP.Fitness>
42.0793

> <Gold.PLP.PLP>
-32.5614

> <Gold.PLP.part.hbond>
-2.4910

> <Gold.PLP.part.metal>
0.0000

> <Gold.PLP.part.buried>
-5.0010

> <Gold.PLP.part.nonpolar>
-25.5134

> <Gold.PLP.part.repulsive>
0.3668

> <Gold.PLP.ligand.clash>
0.0015

> <Gold.PLP.ligand.torsion>
0.9365

> <Gold.PLP.Chemscore.Hbond>
2.2028

> <Gold.PLP.Chemscore.CHOScore>
1.2373

> <Gold.PLP.Chemscore.Metal>
0.0000

> <Gold.Chemscore.Hbonds>
donor molecule, donor type, donor heavy atom, donor atom, acceptor molecule, acceptor atom, score
      L1  H     6    22       P1  8028  0.20
      L1  H     9    23       P1  8028  1.00
      P1  H  7989  7998       L1    15  1.00
      L1  C    16    33       P1  7948  0.26
      L1  C    16    33       P1  7957  1.00

> <Gold.PLP.Chemscore.Internal.Correction>
1.0722

> <Gold.Rescore>
     Score         DG    S(hbond)    S(metal)    S(lipo)     H(rot)  DE(clash)    DE(int)     intcor
     12.82     -15.88       1.85        0.00      71.34       1.61       0.09       2.96       ----

> <Gold.Chemscore.Fitness>
12.8222

> <Gold.Chemscore.DG>
-15.8762

> <Gold.Chemscore.ZeroCoef>
-5.4800

> <Gold.Chemscore.Hbond>
1.8484

> <Gold.Chemscore.Metal>
0.0000

> <Gold.Chemscore.Lipo>
71.3371

> <Gold.Chemscore.Internal_Hbond>
0.0000

> <Gold.Chemscore.DEClash>
0.0918

> <Gold.Chemscore.DEInternal>
2.9622

> <Gold.Chemscore.Rot>
1.6109

> <Gold.Chemscore.Internal.Correction>
   9.000000E+99

> <Gold.Chemscore.Hbonds>
donor molecule, donor type, donor heavy atom, donor atom, acceptor molecule, acceptor atom, score
      L1  H     6    22       P1  8028  0.20
      L1  H     9    23       P1  8028  0.97
      P1  H  7989  7998       L1    15  0.19

> <Gold.Chemscore.Hbond.Weighted>
-6.1737

> <Gold.Chemscore.Metal.Weighted>
-0.0000

> <Gold.Chemscore.Lipo.Weighted>
-8.3464

> <Gold.Chemscore.Internal_Hbond.Weighted>
0.0000

> <Gold.Chemscore.DEClash.Weighted>
0.0918

> <Gold.Chemscore.DEInternal.Weighted>
2.9622

> <Gold.Chemscore.Rot.Weighted>
4.1240

> <Gold.Chemscore.Internal.Correction.Weighted>
   9.000000E+99

> <Gold.Protein.RotatedTorsions>
[ 6907 6896 6895 6894 ] final   74.88 input  -60.11 | X-H torsion
[ 7974 7965 7964 7962 ] final   76.20 input  175.53 | X-H torsion
[ 8008 7997 7996 7995 ] final  178.02 input   59.86 | X-H torsion
[ 10167 10162 10161 10158 ] final -117.25 input  -65.29 | X-H torsion
[ 10718 10713 10712 10709 ] final -134.97 input   66.30 | X-H torsion
[ 10763 10752 10751 10750 ] final  -17.85 input  -60.55 | X-H torsion
[ 11005 11000 10999 10996 ] final -168.28 input  -57.11 | X-H torsion

> <Gold.Protein.ActiveResidues>
 VAL166  LYS551  ARG553  GLY616  TRP617  ASP618  TYR619  PRO620  LYS621  CYS622 
 ASP623  PHE694  ASN695  SER759  ASP760  ASP761  ALA762  ILE779  LEU786  VAL792 
 PHE793  MET794  SER795  GLU796  ALA797  LYS798  CYS799  TRP800  GLU811  SER814 

> <Gold.Protein.RotatedAtoms>
  152.4998  134.4204  159.9478 H   0  0  0  0  0  0  0  0  0  0  0  0  # atno 6907 bound_to 6896
  151.4177  133.3702  159.2760 H   0  0  0  0  0  0  0  0  0  0  0  0  # atno 6908 bound_to 6896
  150.9245  134.8685  159.7570 H   0  0  0  0  0  0  0  0  0  0  0  0  # atno 6909 bound_to 6896
  145.7059  139.2598  143.1679 H   0  0  0  0  0  0  0  0  0  0  0  0  # atno 7974 bound_to 7965
  156.0592  140.1344  156.9960 H   0  0  0  0  0  0  0  0  0  0  0  0  # atno 8008 bound_to 7997
  154.4473  140.0995  156.6563 H   0  0  0  0  0  0  0  0  0  0  0  0  # atno 8009 bound_to 7997
  155.5403  140.3460  155.4447 H   0  0  0  0  0  0  0  0  0  0  0  0  # atno 8010 bound_to 7997
  140.0704  143.4883  152.1983 H   0  0  0  0  0  0  0  0  0  0  0  0  # atno 10167 bound_to 10162
  156.2611  130.7210  151.1145 H   0  0  0  0  0  0  0  0  0  0  0  0  # atno 10718 bound_to 10713
  153.5802  135.7005  153.5467 H   0  0  0  0  0  0  0  0  0  0  0  0  # atno 10763 bound_to 10752
  153.3268  135.4058  155.1462 H   0  0  0  0  0  0  0  0  0  0  0  0  # atno 10764 bound_to 10752
  154.8619  135.3709  154.5329 H   0  0  0  0  0  0  0  0  0  0  0  0  # atno 10765 bound_to 10752
  140.5438  134.5496  157.5106 H   0  0  0  0  0  0  0  0  0  0  0  0  # atno 11005 bound_to 11000
  146.0756  140.7820  142.9666 LP  0  0  0  0  0  0  0  0  0  0  0  0  # atno 17320 bound_to 7965
  144.6955  140.3410  143.7199 LP  0  0  0  0  0  0  0  0  0  0  0  0  # atno 17321 bound_to 7965
  139.5839  144.7523  151.3569 LP  0  0  0  0  0  0  0  0  0  0  0  0  # atno 17342 bound_to 10162
  140.7128  143.7345  150.7599 LP  0  0  0  0  0  0  0  0  0  0  0  0  # atno 17343 bound_to 10162
  157.7251  131.0655  150.5968 LP  0  0  0  0  0  0  0  0  0  0  0  0  # atno 17370 bound_to 10713
  156.6056  130.4366  149.5879 LP  0  0  0  0  0  0  0  0  0  0  0  0  # atno 17371 bound_to 10713
  139.9490  134.7650  156.0493 LP  0  0  0  0  0  0  0  0  0  0  0  0  # atno 17394 bound_to 11000
  141.1212  133.6612  156.3219 LP  0  0  0  0  0  0  0  0  0  0  0  0  # atno 17395 bound_to 11000

$$$$
