AV-unprocessed.smi:1703|AV-procd|sdf|6859|dock1
  -GOLD-   22720 8 43D 1   1.00000     0.00000
 Structure written by MMmdl.
 49 51  0  0  0  0  0  0  0  0  2 V2000
  145.4802  139.5221  157.3169 C   0  0  0  0  0  0  0  0  0  0  0  0
  145.6817  139.9473  155.8583 C   0  0  2  0  0  0  0  0  0  0  0  0
  145.9401  138.7416  154.9365 C   0  0  0  0  0  0  0  0  0  0  0  0
  146.2179  139.1987  153.5561 N   0  3  2  0  0  0  0  0  0  0  0  0
  146.3608  138.0748  152.5970 C   0  0  0  0  0  0  0  0  0  0  0  0
  145.1547  137.1116  152.6431 C   0  0  2  0  0  0  0  0  0  0  0  0
  143.9752  137.8651  152.8391 O   0  0  0  0  0  0  0  0  0  0  0  0
  145.2399  136.0635  153.7703 C   0  0  0  0  0  0  0  0  0  0  0  0
  145.9450  134.8564  153.3592 N   0  0  0  0  0  0  0  0  0  0  0  0
  147.1332  134.3733  153.8051 C   0  0  0  0  0  0  0  0  0  0  0  0
  147.9399  135.0669  154.8596 C   0  0  0  0  0  0  0  0  0  0  0  0
  149.2572  135.3499  154.4396 O   0  0  0  0  0  0  0  0  0  0  0  0
  147.5453  133.2377  153.2411 N   0  0  0  0  0  0  0  0  0  0  0  0
  146.5258  132.9491  152.3558 C   0  0  0  0  0  0  0  0  0  0  0  0
  146.3665  131.8686  151.4588 C   0  0  0  0  0  0  0  0  0  0  0  0
  145.2216  131.7841  150.6397 C   0  0  0  0  0  0  0  0  0  0  0  0
  144.2217  132.7759  150.7057 C   0  0  0  0  0  0  0  0  0  0  0  0
  144.3607  133.8607  151.5927 C   0  0  0  0  0  0  0  0  0  0  0  0
  145.5063  133.9414  152.4069 C   0  0  0  0  0  0  0  0  0  0  0  0
  147.3692  140.1344  153.5479 C   0  0  0  0  0  0  0  0  0  0  0  0
  147.1272  141.3156  154.5074 C   0  0  1  0  0  0  0  0  0  0  0  0
  146.0969  142.3312  153.9822 C   0  0  0  0  0  0  0  0  0  0  0  0
  146.7981  140.8324  155.8101 O   0  0  0  0  0  0  0  0  0  0  0  0
  144.6283  138.8488  157.4162 H   0  0  0  0  0  0  0  0  0  0  0  0
  145.2942  140.3879  157.9531 H   0  0  0  0  0  0  0  0  0  0  0  0
  146.3603  139.0079  157.7043 H   0  0  0  0  0  0  0  0  0  0  0  0
  144.7826  140.4709  155.5326 H   0  0  0  0  0  0  0  0  0  0  0  0
  146.7837  138.1538  155.3025 H   0  0  0  0  0  0  0  0  0  0  0  0
  145.0670  138.0879  154.9398 H   0  0  0  0  0  0  0  0  0  0  0  0
  146.5014  138.4870  151.5970 H   0  0  0  0  0  0  0  0  0  0  0  0
  147.2655  137.5069  152.8194 H   0  0  0  0  0  0  0  0  0  0  0  0
  145.0559  136.5872  151.6936 H   0  0  0  0  0  0  0  0  0  0  0  0
  143.6491  138.1434  151.9964 H   0  0  0  0  0  0  0  0  0  0  0  0
  145.7197  136.4896  154.6507 H   0  0  0  0  0  0  0  0  0  0  0  0
  144.2367  135.7727  154.0856 H   0  0  0  0  0  0  0  0  0  0  0  0
  147.4521  136.0047  155.1284 H   0  0  0  0  0  0  0  0  0  0  0  0
  147.9672  134.4590  155.7637 H   0  0  0  0  0  0  0  0  0  0  0  0
  149.2216  135.7469  153.5827 H   0  0  0  0  0  0  0  0  0  0  0  0
  147.1257  131.1027  151.4021 H   0  0  0  0  0  0  0  0  0  0  0  0
  145.1093  130.9531  149.9588 H   0  0  0  0  0  0  0  0  0  0  0  0
  143.3470  132.7019  150.0761 H   0  0  0  0  0  0  0  0  0  0  0  0
  143.5945  134.6196  151.6470 H   0  0  0  0  0  0  0  0  0  0  0  0
  148.2674  139.5957  153.8540 H   0  0  0  0  0  0  0  0  0  0  0  0
  147.5599  140.5110  152.5435 H   0  0  0  0  0  0  0  0  0  0  0  0
  148.0702  141.8525  154.6152 H   0  0  0  0  0  0  0  0  0  0  0  0
  146.4362  142.7750  153.0460 H   0  0  0  0  0  0  0  0  0  0  0  0
  145.9515  143.1419  154.6963 H   0  0  0  0  0  0  0  0  0  0  0  0
  145.1259  141.8762  153.7897 H   0  0  0  0  0  0  0  0  0  0  0  0
  145.4052  139.7218  153.2612 H   0  0  0  0  0  0  0  0  0  0  0  0
  1  2  1  0  0  0  0
  1 24  1  0  0  0  0
  1 25  1  0  0  0  0
  1 26  1  0  0  0  0
  2 23  1  0  0  0  0
  2  3  1  0  0  0  0
  2 27  1  0  0  0  0
  3  4  1  0  0  0  0
  3 28  1  0  0  0  0
  3 29  1  0  0  0  0
  4  5  1  0  0  0  0
  4 20  1  0  0  0  0
  4 49  1  0  0  0  0
  5  6  1  0  0  0  0
  5 30  1  0  0  0  0
  5 31  1  0  0  0  0
  6  7  1  0  0  0  0
  6  8  1  0  0  0  0
  6 32  1  0  0  0  0
  7 33  1  0  0  0  0
  8  9  1  0  0  0  0
  8 34  1  0  0  0  0
  8 35  1  0  0  0  0
  9 19  1  0  0  0  0
  9 10  1  0  0  0  0
 10 11  1  0  0  0  0
 10 13  2  0  0  0  0
 11 12  1  0  0  0  0
 11 36  1  0  0  0  0
 11 37  1  0  0  0  0
 12 38  1  0  0  0  0
 13 14  1  0  0  0  0
 14 19  2  0  0  0  0
 14 15  1  0  0  0  0
 15 16  2  0  0  0  0
 15 39  1  0  0  0  0
 16 17  1  0  0  0  0
 16 40  1  0  0  0  0
 17 18  2  0  0  0  0
 17 41  1  0  0  0  0
 18 19  1  0  0  0  0
 18 42  1  0  0  0  0
 20 21  1  0  0  0  0
 20 43  1  0  0  0  0
 20 44  1  0  0  0  0
 21 22  1  0  0  0  0
 21 23  1  0  0  0  0
 21 45  1  0  0  0  0
 22 46  1  0  0  0  0
 22 47  1  0  0  0  0
 22 48  1  0  0  0  0
M  CHG  1   4   1
M  END
> <s_m_source_file>
AV-unprocessed.smi

> <i_m_source_file_index>
1703

> <i_lp_mmshare_version>
43012

> <i_f3d_flags>
0

> <s_epik_input>
W0NIM11bQ0BASF0xW0NIMl1OKFtDSDJdW0NASF0oTzEpW0NIM10pW0NIMl1bQ0BIXShbT0hdKVtDSDJdbihjKG4yKVtDSDJdW09IXSljKGMyMylbY0hdW2NIXVtjSF1bY0hdMw==

> <s_epik_cmdline>
J2VwaWtfcHl0aG9uJywgJy1waCcsICc3LjAnLCAnLXRuJywgJzgnLCAnLW1hJywgJzIwMCcsICctbWV0YWxfYmluZGluZycsICctaW1hZScsICc8aW5maWxlLm1hZT4nLCAnLW9tYWUnLCAnPG91dGZpbGUubWFlPic=

> <r_epik_Ionization_Penalty>
0.655661

> <r_epik_Ionization_Penalty_Charging>
0.608065

> <r_epik_Ionization_Penalty_Neutral>
0.0475963

> <r_epik_State_Penalty>
0.695267

> <r_epik_Charging_Adjusted_Penalty>
1.30333

> <i_epik_Tot_Q>
1

> <i_epik_Tot_abs_Q>
1

> <r_epik_Metal_State_Penalty>
0.653591

> <b_epik_Metal_Only>
0

> <s_lp_Force_Field>
OPLS_2005

> <r_lp_Energy>
25.4362

> <b_lp_Chiralities_Consistent>
1

> <s_lp_Variant>
AV-unprocessed.smi:1703-7

> <Gold.Version>
5.8.1

> <Gold.Id.Protein>
6NUR|6NUR_protein|mol2

> <Gold.PLP.Fitness>
44.1671

> <Gold.PLP.PLP>
-33.2993

> <Gold.PLP.part.hbond>
-3.4105

> <Gold.PLP.part.metal>
0.0000

> <Gold.PLP.part.buried>
-4.6647

> <Gold.PLP.part.nonpolar>
-26.0730

> <Gold.PLP.part.repulsive>
0.1808

> <Gold.PLP.ligand.clash>
0.0000

> <Gold.PLP.ligand.torsion>
0.6642

> <Gold.PLP.Chemscore.Hbond>
4.0000

> <Gold.PLP.Chemscore.CHOScore>
0.0000

> <Gold.PLP.Chemscore.Metal>
0.0000

> <Gold.Chemscore.Hbonds>
donor molecule, donor type, donor heavy atom, donor atom, acceptor molecule, acceptor atom, score
      L1  H     4    49       P1 10175  1.95
      L1  H     7    33       P1 10171  0.52
      L1  H    12    38       P1  7948  1.00

> <Gold.PLP.Chemscore.Internal.Correction>
0.1961

> <Gold.Rescore>
     Score         DG    S(hbond)    S(metal)    S(lipo)     H(rot)  DE(clash)    DE(int)     intcor
     15.97     -16.73       2.87        0.00      78.91       2.96       0.08       0.67       ----

> <Gold.Chemscore.Fitness>
15.9738

> <Gold.Chemscore.DG>
-16.7299

> <Gold.Chemscore.ZeroCoef>
-5.4800

> <Gold.Chemscore.Hbond>
2.8736

> <Gold.Chemscore.Metal>
0.0000

> <Gold.Chemscore.Lipo>
78.9094

> <Gold.Chemscore.Internal_Hbond>
0.0000

> <Gold.Chemscore.DEClash>
0.0814

> <Gold.Chemscore.DEInternal>
0.6747

> <Gold.Chemscore.Rot>
2.9611

> <Gold.Chemscore.Internal.Correction>
   9.000000E+99

> <Gold.Chemscore.Hbonds>
donor molecule, donor type, donor heavy atom, donor atom, acceptor molecule, acceptor atom, score
      L1  H     4    49       P1 10175  0.92
      L1  H     7    33       P1 10171  0.47
      L1  H    12    38       P1  7948  0.65

> <Gold.Chemscore.Hbond.Weighted>
-9.5979

> <Gold.Chemscore.Metal.Weighted>
-0.0000

> <Gold.Chemscore.Lipo.Weighted>
-9.2324

> <Gold.Chemscore.Internal_Hbond.Weighted>
0.0000

> <Gold.Chemscore.DEClash.Weighted>
0.0814

> <Gold.Chemscore.DEInternal.Weighted>
0.6747

> <Gold.Chemscore.Rot.Weighted>
7.5803

> <Gold.Chemscore.Internal.Correction.Weighted>
   9.000000E+99

> <Gold.Protein.RotatedTorsions>
[ 6907 6896 6895 6894 ] final  -52.18 input  -60.11 | X-H torsion
[ 7974 7965 7964 7962 ] final   79.63 input  175.53 | X-H torsion
[ 8008 7997 7996 7995 ] final   37.75 input   59.86 | X-H torsion
[ 10167 10162 10161 10158 ] final   63.21 input  -65.29 | X-H torsion
[ 10718 10713 10712 10709 ] final  -47.32 input   66.30 | X-H torsion
[ 10763 10752 10751 10750 ] final  158.64 input  -60.55 | X-H torsion
[ 11005 11000 10999 10996 ] final -157.98 input  -57.11 | X-H torsion

> <Gold.Protein.ActiveResidues>
 VAL166  LYS551  ARG553  GLY616  TRP617  ASP618  TYR619  PRO620  LYS621  CYS622 
 ASP623  PHE694  ASN695  SER759  ASP760  ASP761  ALA762  ILE779  LEU786  VAL792 
 PHE793  MET794  SER795  GLU796  ALA797  LYS798  CYS799  TRP800  GLU811  SER814 

> <Gold.Protein.RotatedAtoms>
  150.8542  134.7876  159.7032 H   0  0  0  0  0  0  0  0  0  0  0  0  # atno 6907 bound_to 6896
  152.4598  134.5206  159.9791 H   0  0  0  0  0  0  0  0  0  0  0  0  # atno 6908 bound_to 6896
  151.5321  133.3409  159.2956 H   0  0  0  0  0  0  0  0  0  0  0  0  # atno 6909 bound_to 6896
  145.6617  139.2473  143.1919 H   0  0  0  0  0  0  0  0  0  0  0  0  # atno 7974 bound_to 7965
  155.2088  140.3322  155.4332 H   0  0  0  0  0  0  0  0  0  0  0  0  # atno 8008 bound_to 7997
  156.2378  140.1881  156.7120 H   0  0  0  0  0  0  0  0  0  0  0  0  # atno 8009 bound_to 7997
  154.6092  140.0611  156.9456 H   0  0  0  0  0  0  0  0  0  0  0  0  # atno 8010 bound_to 7997
  140.1355  144.4603  150.6840 H   0  0  0  0  0  0  0  0  0  0  0  0  # atno 10167 bound_to 10162
  156.2096  130.4160  149.9132 H   0  0  0  0  0  0  0  0  0  0  0  0  # atno 10718 bound_to 10713
  154.2192  135.2783  155.2931 H   0  0  0  0  0  0  0  0  0  0  0  0  # atno 10763 bound_to 10752
  154.5716  135.5617  153.7103 H   0  0  0  0  0  0  0  0  0  0  0  0  # atno 10764 bound_to 10752
  153.0046  135.6322  154.2332 H   0  0  0  0  0  0  0  0  0  0  0  0  # atno 10765 bound_to 10752
  140.6586  134.4373  157.5234 H   0  0  0  0  0  0  0  0  0  0  0  0  # atno 11005 bound_to 11000
  146.1120  140.7417  142.9499 LP  0  0  0  0  0  0  0  0  0  0  0  0  # atno 17320 bound_to 7965
  144.7087  140.3954  143.7098 LP  0  0  0  0  0  0  0  0  0  0  0  0  # atno 17321 bound_to 7965
  140.6792  143.2319  151.5429 LP  0  0  0  0  0  0  0  0  0  0  0  0  # atno 17342 bound_to 10162
  139.5498  144.2425  152.1510 LP  0  0  0  0  0  0  0  0  0  0  0  0  # atno 17343 bound_to 10162
  156.6814  130.8860  151.3576 LP  0  0  0  0  0  0  0  0  0  0  0  0  # atno 17370 bound_to 10713
  157.7031  130.9355  150.0847 LP  0  0  0  0  0  0  0  0  0  0  0  0  # atno 17371 bound_to 10713
  139.9020  134.8533  156.1855 LP  0  0  0  0  0  0  0  0  0  0  0  0  # atno 17394 bound_to 11000
  141.0482  133.6902  156.1722 LP  0  0  0  0  0  0  0  0  0  0  0  0  # atno 17395 bound_to 11000

$$$$
