AV-unprocessed.smi:2104|AV-procd|sdf|8586|dock1
  -GOLD-   2272011313D 1   1.00000     0.00000
 Structure written by MMmdl.
 43 44  0  0  0  0  0  0  0  0  1 V2000
  149.9878  131.2017  154.9393 C   0  0  0  0  0  0  0  0  0  0  0  0
  150.0633  132.5690  155.5267 C   0  0  0  0  0  0  0  0  0  0  0  0
  150.0483  133.8201  154.9769 C   0  0  0  0  0  0  0  0  0  0  0  0
  150.1583  134.6688  156.1106 C   0  0  0  0  0  0  0  0  0  0  0  0
  150.1809  136.0792  155.9644 N   0  0  0  0  0  0  0  0  0  0  0  0
  151.2282  136.9035  156.1367 C   0  0  0  0  0  0  0  0  0  0  0  0
  152.3641  136.5511  156.4566 O   0  0  0  0  0  0  0  0  0  0  0  0
  150.8832  138.1805  155.9201 N   0  0  0  0  0  0  0  0  0  0  0  0
  151.7765  139.3259  156.0587 C   0  0  0  0  0  0  0  0  0  0  0  0
  152.2537  139.4994  157.5078 C   0  0  0  0  0  0  0  0  0  0  0  0
  151.4804  140.5200  158.1222 O   0  0  0  0  0  0  0  0  0  0  0  0
  152.1203  141.7880  158.1905 C   0  0  1  0  0  0  0  0  0  0  0  0
  151.1735  142.8782  157.6464 C   0  0  0  0  0  0  0  0  0  0  0  0
  151.7649  144.2831  157.8319 C   0  0  0  0  0  0  0  0  0  0  0  0
  152.1113  144.5445  159.3040 C   0  0  0  0  0  0  0  0  0  0  0  0
  153.0634  143.4677  159.8456 C   0  0  0  0  0  0  0  0  0  0  0  0
  152.4838  142.0497  159.6696 C   0  0  2  0  0  0  0  0  0  0  0  0
  153.4615  140.9922  160.2094 C   0  0  0  0  0  0  0  0  0  0  0  0
  150.2322  133.9967  157.2492 N   0  0  0  0  0  0  0  0  0  0  0  0
  150.1724  132.6475  156.8807 O   0  0  0  0  0  0  0  0  0  0  0  0
  149.7764  131.2479  153.8709 H   0  0  0  0  0  0  0  0  0  0  0  0
  149.1986  130.6188  155.4147 H   0  0  0  0  0  0  0  0  0  0  0  0
  150.9304  130.6709  155.0750 H   0  0  0  0  0  0  0  0  0  0  0  0
  149.9723  134.0823  153.9319 H   0  0  0  0  0  0  0  0  0  0  0  0
  149.3054  136.5071  155.7024 H   0  0  0  0  0  0  0  0  0  0  0  0
  149.9273  138.3804  155.6639 H   0  0  0  0  0  0  0  0  0  0  0  0
  152.6317  139.2133  155.3905 H   0  0  0  0  0  0  0  0  0  0  0  0
  151.2438  140.2198  155.7337 H   0  0  0  0  0  0  0  0  0  0  0  0
  152.1527  138.5599  158.0529 H   0  0  0  0  0  0  0  0  0  0  0  0
  153.3101  139.7676  157.5162 H   0  0  0  0  0  0  0  0  0  0  0  0
  153.0433  141.7794  157.6070 H   0  0  0  0  0  0  0  0  0  0  0  0
  150.9664  142.7136  156.5892 H   0  0  0  0  0  0  0  0  0  0  0  0
  150.2138  142.8182  158.1613 H   0  0  0  0  0  0  0  0  0  0  0  0
  152.6616  144.3865  157.2197 H   0  0  0  0  0  0  0  0  0  0  0  0
  151.0585  145.0342  157.4769 H   0  0  0  0  0  0  0  0  0  0  0  0
  152.5656  145.5301  159.4098 H   0  0  0  0  0  0  0  0  0  0  0  0
  151.1976  144.5588  159.8995 H   0  0  0  0  0  0  0  0  0  0  0  0
  154.0220  143.5402  159.3297 H   0  0  0  0  0  0  0  0  0  0  0  0
  153.2661  143.6594  160.9000 H   0  0  0  0  0  0  0  0  0  0  0  0
  151.5684  141.9874  160.2603 H   0  0  0  0  0  0  0  0  0  0  0  0
  154.3941  140.9899  159.6442 H   0  0  0  0  0  0  0  0  0  0  0  0
  153.0364  139.9897  160.1511 H   0  0  0  0  0  0  0  0  0  0  0  0
  153.7067  141.1817  161.2547 H   0  0  0  0  0  0  0  0  0  0  0  0
  1  2  1  0  0  0  0
  1 21  1  0  0  0  0
  1 22  1  0  0  0  0
  1 23  1  0  0  0  0
  2 20  1  0  0  0  0
  2  3  2  0  0  0  0
  3  4  1  0  0  0  0
  3 24  1  0  0  0  0
  4  5  1  0  0  0  0
  4 19  2  0  0  0  0
  5  6  1  0  0  0  0
  5 25  1  0  0  0  0
  6  7  2  0  0  0  0
  6  8  1  0  0  0  0
  8  9  1  0  0  0  0
  8 26  1  0  0  0  0
  9 10  1  0  0  0  0
  9 27  1  0  0  0  0
  9 28  1  0  0  0  0
 10 11  1  0  0  0  0
 10 29  1  0  0  0  0
 10 30  1  0  0  0  0
 11 12  1  0  0  0  0
 12 17  1  0  0  0  0
 12 13  1  0  0  0  0
 12 31  1  0  0  0  0
 13 14  1  0  0  0  0
 13 32  1  0  0  0  0
 13 33  1  0  0  0  0
 14 15  1  0  0  0  0
 14 34  1  0  0  0  0
 14 35  1  0  0  0  0
 15 16  1  0  0  0  0
 15 36  1  0  0  0  0
 15 37  1  0  0  0  0
 16 17  1  0  0  0  0
 16 38  1  0  0  0  0
 16 39  1  0  0  0  0
 17 18  1  0  0  0  0
 17 40  1  0  0  0  0
 18 41  1  0  0  0  0
 18 42  1  0  0  0  0
 18 43  1  0  0  0  0
 19 20  1  0  0  0  0
M  END
> <s_m_source_file>
AV-unprocessed.smi

> <i_m_source_file_index>
2104

> <i_lp_mmshare_version>
43012

> <i_f3d_flags>
0

> <s_epik_input>
W0NIM11jMVtjSF1jKG5vMSlbTkhdQyg9TylbTkhdW0NIMl1bQ0gyXU9bQ0BASF0yW0NIMl1bQ0gyXVtDSDJdW0NIMl1bQ0BIXTJbQ0gzXQ==

> <s_epik_cmdline>
J2VwaWtfcHl0aG9uJywgJy1waCcsICc3LjAnLCAnLXRuJywgJzgnLCAnLW1hJywgJzIwMCcsICctbWV0YWxfYmluZGluZycsICctaW1hZScsICc8aW5maWxlLm1hZT4nLCAnLW9tYWUnLCAnPG91dGZpbGUubWFlPic=

> <r_lp_tautomer_probability>
1

> <r_epik_Ionization_Penalty>
2.94418e-05

> <r_epik_Ionization_Penalty_Charging>
0

> <r_epik_Ionization_Penalty_Neutral>
2.94418e-05

> <r_epik_State_Penalty>
-0

> <r_epik_Charging_Adjusted_Penalty>
0

> <i_epik_Tot_Q>
0

> <i_epik_Tot_abs_Q>
0

> <r_epik_Metal_State_Penalty>
0.0104148

> <b_epik_Metal_Only>
0

> <s_lp_Force_Field>
OPLS_2005

> <r_lp_Energy>
8.17473

> <b_lp_Chiralities_Consistent>
1

> <s_lp_Variant>
AV-unprocessed.smi:2104-4

> <Gold.Version>
5.8.1

> <Gold.Id.Protein>
6NUR|6NUR_protein|mol2

> <Gold.PLP.Fitness>
40.2651

> <Gold.PLP.PLP>
-38.6349

> <Gold.PLP.part.hbond>
-2.0000

> <Gold.PLP.part.metal>
0.0000

> <Gold.PLP.part.buried>
-5.2958

> <Gold.PLP.part.nonpolar>
-32.2288

> <Gold.PLP.part.repulsive>
0.1088

> <Gold.PLP.ligand.clash>
0.0000

> <Gold.PLP.ligand.torsion>
1.9401

> <Gold.PLP.Chemscore.Hbond>
1.8089

> <Gold.PLP.Chemscore.CHOScore>
0.0000

> <Gold.PLP.Chemscore.Metal>
0.0000

> <Gold.Chemscore.Hbonds>
donor molecule, donor type, donor heavy atom, donor atom, acceptor molecule, acceptor atom, score
      P1  H  6896  6909       L1    19  0.68
      P1  H 10752 10764       L1     7  1.00

> <Gold.PLP.Chemscore.Internal.Correction>
0.0838

> <Gold.Rescore>
     Score         DG    S(hbond)    S(metal)    S(lipo)     H(rot)  DE(clash)    DE(int)     intcor
     16.94     -18.89       1.85        0.00     100.28       1.75       0.00       1.95       ----

> <Gold.Chemscore.Fitness>
16.9385

> <Gold.Chemscore.DG>
-18.8921

> <Gold.Chemscore.ZeroCoef>
-5.4800

> <Gold.Chemscore.Hbond>
1.8458

> <Gold.Chemscore.Metal>
0.0000

> <Gold.Chemscore.Lipo>
100.2835

> <Gold.Chemscore.Internal_Hbond>
0.0000

> <Gold.Chemscore.DEClash>
0.0029

> <Gold.Chemscore.DEInternal>
1.9507

> <Gold.Chemscore.Rot>
1.7524

> <Gold.Chemscore.Internal.Correction>
   9.000000E+99

> <Gold.Chemscore.Hbonds>
donor molecule, donor type, donor heavy atom, donor atom, acceptor molecule, acceptor atom, score
      P1  H  6896  6909       L1    19  0.15
      P1  H 10752 10764       L1     7  0.85

> <Gold.Chemscore.Hbond.Weighted>
-6.1650

> <Gold.Chemscore.Metal.Weighted>
-0.0000

> <Gold.Chemscore.Lipo.Weighted>
-11.7332

> <Gold.Chemscore.Internal_Hbond.Weighted>
0.0000

> <Gold.Chemscore.DEClash.Weighted>
0.0029

> <Gold.Chemscore.DEInternal.Weighted>
1.9507

> <Gold.Chemscore.Rot.Weighted>
4.4861

> <Gold.Chemscore.Internal.Correction.Weighted>
   9.000000E+99

> <Gold.Protein.RotatedTorsions>
[ 6907 6896 6895 6894 ] final   -2.01 input  -60.11 | X-H torsion
[ 7974 7965 7964 7962 ] final  -63.85 input  175.53 | X-H torsion
[ 8008 7997 7996 7995 ] final -166.93 input   59.86 | X-H torsion
[ 10167 10162 10161 10158 ] final -100.75 input  -65.29 | X-H torsion
[ 10718 10713 10712 10709 ] final  172.87 input   66.30 | X-H torsion
[ 10763 10752 10751 10750 ] final  -24.06 input  -60.55 | X-H torsion
[ 11005 11000 10999 10996 ] final -141.22 input  -57.11 | X-H torsion

> <Gold.Protein.ActiveResidues>
 VAL166  LYS551  ARG553  GLY616  TRP617  ASP618  TYR619  PRO620  LYS621  CYS622 
 ASP623  PHE694  ASN695  SER759  ASP760  ASP761  ALA762  ILE779  LEU786  VAL792 
 PHE793  MET794  SER795  GLU796  ALA797  LYS798  CYS799  TRP800  GLU811  SER814 

> <Gold.Protein.RotatedAtoms>
  151.5368  135.1068  159.9916 H   0  0  0  0  0  0  0  0  0  0  0  0  # atno 6907 bound_to 6896
  152.4553  133.7707  159.6808 H   0  0  0  0  0  0  0  0  0  0  0  0  # atno 6908 bound_to 6896
  150.8495  133.7743  159.3055 H   0  0  0  0  0  0  0  0  0  0  0  0  # atno 6909 bound_to 6896
  145.7739  140.8798  143.0365 H   0  0  0  0  0  0  0  0  0  0  0  0  # atno 7974 bound_to 7965
  155.8706  140.0993  157.1552 H   0  0  0  0  0  0  0  0  0  0  0  0  # atno 8008 bound_to 7997
  154.3997  140.1348  156.4137 H   0  0  0  0  0  0  0  0  0  0  0  0  # atno 8009 bound_to 7997
  155.7754  140.3460  155.5271 H   0  0  0  0  0  0  0  0  0  0  0  0  # atno 8010 bound_to 7997
  140.2486  143.3488  152.0736 H   0  0  0  0  0  0  0  0  0  0  0  0  # atno 10167 bound_to 10162
  156.9726  131.0095  151.2901 H   0  0  0  0  0  0  0  0  0  0  0  0  # atno 10718 bound_to 10713
  153.6777  135.6968  153.5127 H   0  0  0  0  0  0  0  0  0  0  0  0  # atno 10763 bound_to 10752
  153.2509  135.4275  155.0795 H   0  0  0  0  0  0  0  0  0  0  0  0  # atno 10764 bound_to 10752
  154.8409  135.3531  154.6321 H   0  0  0  0  0  0  0  0  0  0  0  0  # atno 10765 bound_to 10752
  140.8346  134.2476  157.4840 H   0  0  0  0  0  0  0  0  0  0  0  0  # atno 11005 bound_to 11000
  144.6808  139.9894  143.7484 LP  0  0  0  0  0  0  0  0  0  0  0  0  # atno 17320 bound_to 7965
  146.0142  139.3195  143.0852 LP  0  0  0  0  0  0  0  0  0  0  0  0  # atno 17321 bound_to 7965
  139.5054  144.6793  151.6048 LP  0  0  0  0  0  0  0  0  0  0  0  0  # atno 17342 bound_to 10162
  140.6058  143.9526  150.6418 LP  0  0  0  0  0  0  0  0  0  0  0  0  # atno 17343 bound_to 10162
  157.5582  130.8227  149.8231 LP  0  0  0  0  0  0  0  0  0  0  0  0  # atno 17370 bound_to 10713
  156.0276  130.3774  150.1778 LP  0  0  0  0  0  0  0  0  0  0  0  0  # atno 17371 bound_to 10713
  139.8704  134.9604  156.4362 LP  0  0  0  0  0  0  0  0  0  0  0  0  # atno 17394 bound_to 11000
  140.8961  133.7813  155.9627 LP  0  0  0  0  0  0  0  0  0  0  0  0  # atno 17395 bound_to 11000

$$$$
