AV-unprocessed.smi:1159|AV-procd|sdf|4914|dock4
  -GOLD-   22720 3493D 1   1.00000     0.00000
 Structure written by MMmdl.
 41 42  0  0  0  0  0  0  0  0  1 V2000
  149.8598  134.7730  156.1435 O   0  0  0  0  0  0  0  0  0  0  0  0
  149.6807  135.2501  155.0236 C   0  0  0  0  0  0  0  0  0  0  0  0
  150.1158  136.4516  154.6056 N   0  0  0  0  0  0  0  0  0  0  0  0
  150.8283  137.4514  155.3242 C   0  0  0  0  0  0  0  0  0  0  0  0
  151.6899  138.4096  154.7371 C   0  0  0  0  0  0  0  0  0  0  0  0
  152.3466  139.3358  155.5702 C   0  0  0  0  0  0  0  0  0  0  0  0
  152.1315  139.2759  156.9610 C   0  0  0  0  0  0  0  0  0  0  0  0
  152.7816  140.1859  157.7686 O   0  0  0  0  0  0  0  0  0  0  0  0
  152.2771  140.4129  159.0822 C   0  0  0  0  0  0  0  0  0  0  0  0
  152.9755  141.6366  159.6871 C   0  0  0  0  0  0  0  0  0  0  0  0
  152.4842  141.8671  160.9042 F   0  0  0  0  0  0  0  0  0  0  0  0
  154.2857  141.4153  159.7903 F   0  0  0  0  0  0  0  0  0  0  0  0
  152.7616  142.7115  158.9288 F   0  0  0  0  0  0  0  0  0  0  0  0
  151.3151  138.3563  157.5319 N   0  0  0  0  0  0  0  0  0  0  0  0
  150.6882  137.4719  156.7276 C   0  0  0  0  0  0  0  0  0  0  0  0
  149.0203  134.6108  154.0463 N   0  0  0  0  0  0  0  0  0  0  0  0
  148.3871  133.2951  154.1681 C   0  0  2  0  0  0  0  0  0  0  0  0
  149.3001  132.2708  153.4556 C   0  0  0  0  0  0  0  0  0  0  0  0
  149.0901  130.8201  153.9230 C   0  0  0  0  0  0  0  0  0  0  0  0
  147.7105  130.2277  153.5981 C   0  0  0  0  0  0  0  0  0  0  0  0
  146.5459  130.9618  154.2837 C   0  0  0  0  0  0  0  0  0  0  0  0
  146.2140  132.2115  153.6120 N   0  0  0  0  0  0  0  0  0  0  0  0
  146.9963  133.2949  153.4908 C   0  0  0  0  0  0  0  0  0  0  0  0
  146.6110  134.2697  152.8453 O   0  0  0  0  0  0  0  0  0  0  0  0
  149.9325  136.6711  153.6375 H   0  0  0  0  0  0  0  0  0  0  0  0
  151.8731  138.4520  153.6755 H   0  0  0  0  0  0  0  0  0  0  0  0
  153.0091  140.0772  155.1482 H   0  0  0  0  0  0  0  0  0  0  0  0
  151.1998  140.5844  159.0488 H   0  0  0  0  0  0  0  0  0  0  0  0
  152.4576  139.5400  159.7120 H   0  0  0  0  0  0  0  0  0  0  0  0
  150.0506  136.7555  157.2248 H   0  0  0  0  0  0  0  0  0  0  0  0
  148.9203  135.0785  153.1577 H   0  0  0  0  0  0  0  0  0  0  0  0
  148.2902  133.0407  155.2250 H   0  0  0  0  0  0  0  0  0  0  0  0
  149.1922  132.3375  152.3716 H   0  0  0  0  0  0  0  0  0  0  0  0
  150.3422  132.5224  153.6601 H   0  0  0  0  0  0  0  0  0  0  0  0
  149.8524  130.1931  153.4597 H   0  0  0  0  0  0  0  0  0  0  0  0
  149.2684  130.7563  154.9971 H   0  0  0  0  0  0  0  0  0  0  0  0
  147.5561  130.2013  152.5186 H   0  0  0  0  0  0  0  0  0  0  0  0
  147.7031  129.1878  153.9259 H   0  0  0  0  0  0  0  0  0  0  0  0
  145.6559  130.3334  154.2476 H   0  0  0  0  0  0  0  0  0  0  0  0
  146.7546  131.1378  155.3399 H   0  0  0  0  0  0  0  0  0  0  0  0
  145.3083  132.2493  153.1667 H   0  0  0  0  0  0  0  0  0  0  0  0
  1  2  2  0  0  0  0
  2  3  1  0  0  0  0
  2 16  1  0  0  0  0
  3  4  1  0  0  0  0
  3 25  1  0  0  0  0
  4 15  1  0  0  0  0
  4  5  2  0  0  0  0
  5  6  1  0  0  0  0
  5 26  1  0  0  0  0
  6  7  2  0  0  0  0
  6 27  1  0  0  0  0
  7  8  1  0  0  0  0
  7 14  1  0  0  0  0
  8  9  1  0  0  0  0
  9 10  1  0  0  0  0
  9 28  1  0  0  0  0
  9 29  1  0  0  0  0
 10 11  1  0  0  0  0
 10 12  1  0  0  0  0
 10 13  1  0  0  0  0
 14 15  2  0  0  0  0
 15 30  1  0  0  0  0
 16 17  1  0  0  0  0
 16 31  1  0  0  0  0
 17 23  1  0  0  0  0
 17 18  1  0  0  0  0
 17 32  1  0  0  0  0
 18 19  1  0  0  0  0
 18 33  1  0  0  0  0
 18 34  1  0  0  0  0
 19 20  1  0  0  0  0
 19 35  1  0  0  0  0
 19 36  1  0  0  0  0
 20 21  1  0  0  0  0
 20 37  1  0  0  0  0
 20 38  1  0  0  0  0
 21 22  1  0  0  0  0
 21 39  1  0  0  0  0
 21 40  1  0  0  0  0
 22 23  1  0  0  0  0
 22 41  1  0  0  0  0
 23 24  2  0  0  0  0
M  END
> <s_m_source_file>
AV-unprocessed.smi

> <i_m_source_file_index>
1159

> <i_lp_mmshare_version>
43012

> <i_f3d_flags>
0

> <s_epik_input>
Tz1DMVtOSF1bQ0gyXVtDSDJdW0NIMl1bQ0gyXVtDQEhdMVtOSF1DKD1PKVtOSF1jMltjSF1bY0hdYyhuW2NIXTIpT1tDSDJdQyhGKShGKUY=

> <s_epik_cmdline>
J2VwaWtfcHl0aG9uJywgJy1waCcsICc3LjAnLCAnLXRuJywgJzgnLCAnLW1hJywgJzIwMCcsICctbWV0YWxfYmluZGluZycsICctaW1hZScsICc8aW5maWxlLm1hZT4nLCAnLW9tYWUnLCAnPG91dGZpbGUubWFlPic=

> <r_lp_tautomer_probability>
1

> <r_epik_Ionization_Penalty>
3.53205e-05

> <r_epik_Ionization_Penalty_Charging>
0

> <r_epik_Ionization_Penalty_Neutral>
3.53205e-05

> <r_epik_State_Penalty>
-0

> <r_epik_Charging_Adjusted_Penalty>
0

> <i_epik_Tot_Q>
0

> <i_epik_Tot_abs_Q>
0

> <r_epik_Metal_State_Penalty>
-0

> <b_epik_Metal_Only>
0

> <s_lp_Force_Field>
OPLS_2005

> <r_lp_Energy>
13.2476

> <b_lp_Chiralities_Consistent>
1

> <s_lp_Variant>
AV-unprocessed.smi:1159-1

> <Gold.Version>
5.8.1

> <Gold.Id.Protein>
6NUR|6NUR_protein|mol2

> <Gold.PLP.Fitness>
45.9031

> <Gold.PLP.PLP>
-38.4335

> <Gold.PLP.part.hbond>
-3.0000

> <Gold.PLP.part.metal>
0.0000

> <Gold.PLP.part.buried>
-4.1993

> <Gold.PLP.part.nonpolar>
-31.0509

> <Gold.PLP.part.repulsive>
0.1728

> <Gold.PLP.ligand.clash>
0.0000

> <Gold.PLP.ligand.torsion>
0.6603

> <Gold.PLP.Chemscore.Hbond>
2.9193

> <Gold.PLP.Chemscore.CHOScore>
0.0000

> <Gold.PLP.Chemscore.Metal>
0.0000

> <Gold.Chemscore.Hbonds>
donor molecule, donor type, donor heavy atom, donor atom, acceptor molecule, acceptor atom, score
      L1  H     3    25       P1  7948  0.99
      L1  H    16    31       P1  7948  1.00
      P1  H  7997  8009       L1     8  0.88

> <Gold.PLP.Chemscore.Internal.Correction>
0.0324

> <Gold.Rescore>
     Score         DG    S(hbond)    S(metal)    S(lipo)     H(rot)  DE(clash)    DE(int)     intcor
     14.37     -16.16       2.35        0.00      63.73       1.81       0.09       1.70       ----

> <Gold.Chemscore.Fitness>
14.3708

> <Gold.Chemscore.DG>
-16.1633

> <Gold.Chemscore.ZeroCoef>
-5.4800

> <Gold.Chemscore.Hbond>
2.3506

> <Gold.Chemscore.Metal>
0.0000

> <Gold.Chemscore.Lipo>
63.7275

> <Gold.Chemscore.Internal_Hbond>
0.0000

> <Gold.Chemscore.DEClash>
0.0888

> <Gold.Chemscore.DEInternal>
1.7037

> <Gold.Chemscore.Rot>
1.8062

> <Gold.Chemscore.Internal.Correction>
   9.000000E+99

> <Gold.Chemscore.Hbonds>
donor molecule, donor type, donor heavy atom, donor atom, acceptor molecule, acceptor atom, score
      L1  H     3    25       P1  7948  0.26
      L1  H    16    31       P1  7948  0.30
      P1  H  7997  8009       L1     8  0.19

> <Gold.Chemscore.Hbond.Weighted>
-7.8510

> <Gold.Chemscore.Metal.Weighted>
-0.0000

> <Gold.Chemscore.Lipo.Weighted>
-7.4561

> <Gold.Chemscore.Internal_Hbond.Weighted>
0.0000

> <Gold.Chemscore.DEClash.Weighted>
0.0888

> <Gold.Chemscore.DEInternal.Weighted>
1.7037

> <Gold.Chemscore.Rot.Weighted>
4.6238

> <Gold.Chemscore.Internal.Correction.Weighted>
   9.000000E+99

> <Gold.Protein.RotatedTorsions>
[ 6907 6896 6895 6894 ] final -148.44 input  -60.11 | X-H torsion
[ 7974 7965 7964 7962 ] final -168.52 input  175.53 | X-H torsion
[ 8008 7997 7996 7995 ] final  156.28 input   59.86 | X-H torsion
[ 10167 10162 10161 10158 ] final   40.21 input  -65.29 | X-H torsion
[ 10718 10713 10712 10709 ] final -124.69 input   66.30 | X-H torsion
[ 10763 10752 10751 10750 ] final  -64.64 input  -60.55 | X-H torsion
[ 11005 11000 10999 10996 ] final  -21.00 input  -57.11 | X-H torsion

> <Gold.Protein.ActiveResidues>
 VAL166  LYS551  ARG553  GLY616  TRP617  ASP618  TYR619  PRO620  LYS621  CYS622 
 ASP623  PHE694  ASN695  SER759  ASP760  ASP761  ALA762  ILE779  LEU786  VAL792 
 PHE793  MET794  SER795  GLU796  ALA797  LYS798  CYS799  TRP800  GLU811  SER814 

> <Gold.Protein.RotatedAtoms>
  151.1698  133.4791  159.2593 H   0  0  0  0  0  0  0  0  0  0  0  0  # atno 6907 bound_to 6896
  151.1367  135.0158  159.8617 H   0  0  0  0  0  0  0  0  0  0  0  0  # atno 6908 bound_to 6896
  152.5461  134.1596  159.8605 H   0  0  0  0  0  0  0  0  0  0  0  0  # atno 6909 bound_to 6896
  144.7201  140.2358  143.6298 H   0  0  0  0  0  0  0  0  0  0  0  0  # atno 7974 bound_to 7965
  156.2431  140.1916  156.6931 H   0  0  0  0  0  0  0  0  0  0  0  0  # atno 8008 bound_to 7997
  154.6237  140.0605  156.9673 H   0  0  0  0  0  0  0  0  0  0  0  0  # atno 8009 bound_to 7997
  155.1821  140.3277  155.4376 H   0  0  0  0  0  0  0  0  0  0  0  0  # atno 8010 bound_to 7997
  140.3764  144.2037  150.6131 H   0  0  0  0  0  0  0  0  0  0  0  0  # atno 10167 bound_to 10162
  156.1610  130.6601  151.0049 H   0  0  0  0  0  0  0  0  0  0  0  0  # atno 10718 bound_to 10713
  154.3331  135.6172  153.5561 H   0  0  0  0  0  0  0  0  0  0  0  0  # atno 10763 bound_to 10752
  152.9810  135.5751  154.4938 H   0  0  0  0  0  0  0  0  0  0  0  0  # atno 10764 bound_to 10752
  154.4628  135.2856  155.1677 H   0  0  0  0  0  0  0  0  0  0  0  0  # atno 10765 bound_to 10752
  140.8519  133.7850  155.9976 H   0  0  0  0  0  0  0  0  0  0  0  0  # atno 11005 bound_to 11000
  145.8367  139.2111  143.1851 LP  0  0  0  0  0  0  0  0  0  0  0  0  # atno 17320 bound_to 7965
  146.0383  140.8191  142.9841 LP  0  0  0  0  0  0  0  0  0  0  0  0  # atno 17321 bound_to 7965
  140.4981  143.2326  151.8719 LP  0  0  0  0  0  0  0  0  0  0  0  0  # atno 17342 bound_to 10162
  139.4799  144.5090  151.8958 LP  0  0  0  0  0  0  0  0  0  0  0  0  # atno 17343 bound_to 10162
  157.6732  131.0856  150.7560 LP  0  0  0  0  0  0  0  0  0  0  0  0  # atno 17370 bound_to 10713
  156.7623  130.4802  149.5434 LP  0  0  0  0  0  0  0  0  0  0  0  0  # atno 17371 bound_to 10713
  140.8780  134.2645  157.5158 LP  0  0  0  0  0  0  0  0  0  0  0  0  # atno 17394 bound_to 11000
  139.8704  134.9601  156.4353 LP  0  0  0  0  0  0  0  0  0  0  0  0  # atno 17395 bound_to 11000

$$$$
