AV-unprocessed.smi:1943|AV-procd|sdf|7851|dock6
  -GOLD-   22720 9593D 1   1.00000     0.00000
 Structure written by MMmdl.
 48 49  0  0  0  0  0  0  0  0  2 V2000
  143.7281  132.7741  148.9997 C   0  0  0  0  0  0  0  0  0  0  0  0
  145.0936  132.9180  149.5714 N   0  3  0  0  0  0  0  0  0  0  0  0
  145.9162  131.7274  149.2314 C   0  0  0  0  0  0  0  0  0  0  0  0
  145.1475  133.3647  151.0113 C   0  0  0  0  0  0  0  0  0  0  0  0
  146.5218  133.9982  151.3438 C   0  0  0  0  0  0  0  0  0  0  0  0
  144.0512  134.4235  151.3059 C   0  0  0  0  0  0  0  0  0  0  0  0
  144.8693  132.1295  151.9216 C   0  0  0  0  0  0  0  0  0  0  0  0
  146.0743  131.5416  152.5053 N   0  0  0  0  0  0  0  0  0  0  0  0
  146.4043  130.2395  152.4778 C   0  0  0  0  0  0  0  0  0  0  0  0
  145.7057  129.3724  151.9524 O   0  0  0  0  0  0  0  0  0  0  0  0
  147.7337  129.9112  153.0969 C   0  0  0  0  0  0  0  0  0  0  0  0
  148.3658  130.9088  153.7600 N   0  0  0  0  0  0  0  0  0  0  0  0
  149.5364  130.6427  154.3530 C   0  0  0  0  0  0  0  0  0  0  0  0
  150.1762  131.6907  155.0262 N   0  0  0  0  0  0  0  0  0  0  0  0
  149.4611  132.8911  155.4578 C   0  0  0  0  0  0  0  0  0  0  0  0
  149.0303  132.7335  156.9272 C   0  0  0  0  0  0  0  0  0  0  0  0
  150.1807  132.4913  157.7346 O   0  0  0  0  0  0  0  0  0  0  0  0
  150.8899  131.3177  157.3410 C   0  0  0  0  0  0  0  0  0  0  0  0
  151.3431  131.4572  155.8761 C   0  0  0  0  0  0  0  0  0  0  0  0
  150.1441  129.4506  154.3455 N   0  0  0  0  0  0  0  0  0  0  0  0
  149.5346  128.4398  153.6920 C   0  0  0  0  0  0  0  0  0  0  0  0
  148.3016  128.6133  153.0343 C   0  0  0  0  0  0  0  0  0  0  0  0
  147.5826  127.2870  152.1865 Cl  0  0  0  0  0  0  0  0  0  0  0  0
  143.2139  131.9045  149.4106 H   0  0  0  0  0  0  0  0  0  0  0  0
  143.7873  132.6353  147.9198 H   0  0  0  0  0  0  0  0  0  0  0  0
  143.1022  133.6484  149.1654 H   0  0  0  0  0  0  0  0  0  0  0  0
  145.6388  130.8642  149.8370 H   0  0  0  0  0  0  0  0  0  0  0  0
  146.9811  131.9186  149.3602 H   0  0  0  0  0  0  0  0  0  0  0  0
  145.7837  131.4535  148.1842 H   0  0  0  0  0  0  0  0  0  0  0  0
  146.5291  134.4369  152.3420 H   0  0  0  0  0  0  0  0  0  0  0  0
  146.7771  134.7985  150.6493 H   0  0  0  0  0  0  0  0  0  0  0  0
  147.3281  133.2648  151.3176 H   0  0  0  0  0  0  0  0  0  0  0  0
  144.0242  134.7025  152.3594 H   0  0  0  0  0  0  0  0  0  0  0  0
  143.0585  134.0540  151.0455 H   0  0  0  0  0  0  0  0  0  0  0  0
  144.2182  135.3537  150.7621 H   0  0  0  0  0  0  0  0  0  0  0  0
  144.2233  132.4260  152.7489 H   0  0  0  0  0  0  0  0  0  0  0  0
  144.3211  131.3520  151.3918 H   0  0  0  0  0  0  0  0  0  0  0  0
  146.7172  132.1733  152.9615 H   0  0  0  0  0  0  0  0  0  0  0  0
  150.1303  133.7469  155.3617 H   0  0  0  0  0  0  0  0  0  0  0  0
  148.6018  133.1148  154.8259 H   0  0  0  0  0  0  0  0  0  0  0  0
  148.5377  133.6415  157.2750 H   0  0  0  0  0  0  0  0  0  0  0  0
  148.3147  131.9171  157.0388 H   0  0  0  0  0  0  0  0  0  0  0  0
  151.7544  131.1912  157.9927 H   0  0  0  0  0  0  0  0  0  0  0  0
  150.2588  130.4370  157.4714 H   0  0  0  0  0  0  0  0  0  0  0  0
  151.9175  130.5823  155.5731 H   0  0  0  0  0  0  0  0  0  0  0  0
  152.0200  132.3069  155.7795 H   0  0  0  0  0  0  0  0  0  0  0  0
  150.0400  127.4854  153.6895 H   0  0  0  0  0  0  0  0  0  0  0  0
  145.5178  133.6741  149.0530 H   0  0  0  0  0  0  0  0  0  0  0  0
  1  2  1  0  0  0  0
  1 24  1  0  0  0  0
  1 25  1  0  0  0  0
  1 26  1  0  0  0  0
  2  3  1  0  0  0  0
  2  4  1  0  0  0  0
  2 48  1  0  0  0  0
  3 27  1  0  0  0  0
  3 28  1  0  0  0  0
  3 29  1  0  0  0  0
  4  5  1  0  0  0  0
  4  6  1  0  0  0  0
  4  7  1  0  0  0  0
  5 30  1  0  0  0  0
  5 31  1  0  0  0  0
  5 32  1  0  0  0  0
  6 33  1  0  0  0  0
  6 34  1  0  0  0  0
  6 35  1  0  0  0  0
  7  8  1  0  0  0  0
  7 36  1  0  0  0  0
  7 37  1  0  0  0  0
  8  9  1  0  0  0  0
  8 38  1  0  0  0  0
  9 10  2  0  0  0  0
  9 11  1  0  0  0  0
 11 22  1  0  0  0  0
 11 12  2  0  0  0  0
 12 13  1  0  0  0  0
 13 14  1  0  0  0  0
 13 20  2  0  0  0  0
 14 19  1  0  0  0  0
 14 15  1  0  0  0  0
 15 16  1  0  0  0  0
 15 39  1  0  0  0  0
 15 40  1  0  0  0  0
 16 17  1  0  0  0  0
 16 41  1  0  0  0  0
 16 42  1  0  0  0  0
 17 18  1  0  0  0  0
 18 19  1  0  0  0  0
 18 43  1  0  0  0  0
 18 44  1  0  0  0  0
 19 45  1  0  0  0  0
 19 46  1  0  0  0  0
 20 21  1  0  0  0  0
 21 22  2  0  0  0  0
 21 47  1  0  0  0  0
 22 23  1  0  0  0  0
M  CHG  1   2   1
M  END
> <s_m_source_file>
AV-unprocessed.smi

> <i_m_source_file_index>
1943

> <i_lp_mmshare_version>
43012

> <i_f3d_flags>
0

> <s_epik_input>
W0NIM11OKFtDSDNdKUMoW0NIM10pKFtDSDNdKVtDSDJdW05IXUMoPU8pYzFuYyhuW2NIXWMxQ2wpTjJbQ0gyXVtDSDJdT1tDSDJdW0NIMl0y

> <s_epik_cmdline>
J2VwaWtfcHl0aG9uJywgJy1waCcsICc3LjAnLCAnLXRuJywgJzgnLCAnLW1hJywgJzIwMCcsICctbWV0YWxfYmluZGluZycsICctaW1hZScsICc8aW5maWxlLm1hZT4nLCAnLW9tYWUnLCAnPG91dGZpbGUubWFlPic=

> <r_lp_tautomer_probability>
1

> <r_epik_Ionization_Penalty>
0.00747112

> <r_epik_Ionization_Penalty_Charging>
0.00734137

> <r_epik_Ionization_Penalty_Neutral>
0.000129757

> <r_epik_State_Penalty>
0.00547931

> <r_epik_Charging_Adjusted_Penalty>
0.0128207

> <i_epik_Tot_Q>
1

> <i_epik_Tot_abs_Q>
1

> <r_epik_Metal_State_Penalty>
0.0979204

> <b_epik_Metal_Only>
0

> <s_lp_Force_Field>
OPLS_2005

> <r_lp_Energy>
30.7364

> <b_lp_Chiralities_Consistent>
1

> <s_lp_Variant>
AV-unprocessed.smi:1943-1

> <Gold.Version>
5.8.1

> <Gold.Id.Protein>
6NUR|6NUR_protein|mol2

> <Gold.PLP.Fitness>
43.0571

> <Gold.PLP.PLP>
-37.7825

> <Gold.PLP.part.hbond>
-2.0000

> <Gold.PLP.part.metal>
0.0000

> <Gold.PLP.part.buried>
-3.7426

> <Gold.PLP.part.nonpolar>
-31.8273

> <Gold.PLP.part.repulsive>
0.4581

> <Gold.PLP.ligand.clash>
0.0000

> <Gold.PLP.ligand.torsion>
1.4161

> <Gold.PLP.Chemscore.Hbond>
2.0000

> <Gold.PLP.Chemscore.CHOScore>
0.6006

> <Gold.PLP.Chemscore.Metal>
0.0000

> <Gold.Chemscore.Hbonds>
donor molecule, donor type, donor heavy atom, donor atom, acceptor molecule, acceptor atom, score
      L1  H     2    48       P1  7921  1.00
      P1  H  6896  6908       L1    17  1.00
      L1  C    21    47       P1 10737  0.14

> <Gold.PLP.Chemscore.Internal.Correction>
0.3049

> <Gold.Rescore>
     Score         DG    S(hbond)    S(metal)    S(lipo)     H(rot)  DE(clash)    DE(int)     intcor
     15.27     -18.17       1.75        0.00      89.87       1.43       0.26       2.64       ----

> <Gold.Chemscore.Fitness>
15.2704

> <Gold.Chemscore.DG>
-18.1738

> <Gold.Chemscore.ZeroCoef>
-5.4800

> <Gold.Chemscore.Hbond>
1.7482

> <Gold.Chemscore.Metal>
0.0000

> <Gold.Chemscore.Lipo>
89.8750

> <Gold.Chemscore.Internal_Hbond>
0.0000

> <Gold.Chemscore.DEClash>
0.2629

> <Gold.Chemscore.DEInternal>
2.6406

> <Gold.Chemscore.Rot>
1.4298

> <Gold.Chemscore.Internal.Correction>
   9.000000E+99

> <Gold.Chemscore.Hbonds>
donor molecule, donor type, donor heavy atom, donor atom, acceptor molecule, acceptor atom, score
      L1  H     2    48       P1  7921  0.45
      P1  H  6896  6908       L1    17  0.71

> <Gold.Chemscore.Hbond.Weighted>
-5.8389

> <Gold.Chemscore.Metal.Weighted>
-0.0000

> <Gold.Chemscore.Lipo.Weighted>
-10.5154

> <Gold.Chemscore.Internal_Hbond.Weighted>
0.0000

> <Gold.Chemscore.DEClash.Weighted>
0.2629

> <Gold.Chemscore.DEInternal.Weighted>
2.6406

> <Gold.Chemscore.Rot.Weighted>
3.6604

> <Gold.Chemscore.Internal.Correction.Weighted>
   9.000000E+99

> <Gold.Protein.RotatedTorsions>
[ 6907 6896 6895 6894 ] final   89.03 input  -60.11 | X-H torsion
[ 7974 7965 7964 7962 ] final  -89.07 input  175.53 | X-H torsion
[ 8008 7997 7996 7995 ] final -149.74 input   59.86 | X-H torsion
[ 10167 10162 10161 10158 ] final -128.51 input  -65.29 | X-H torsion
[ 10718 10713 10712 10709 ] final  -64.12 input   66.30 | X-H torsion
[ 10763 10752 10751 10750 ] final  -39.66 input  -60.55 | X-H torsion
[ 11005 11000 10999 10996 ] final   31.07 input  -57.11 | X-H torsion

> <Gold.Protein.ActiveResidues>
 VAL166  LYS551  ARG553  GLY616  TRP617  ASP618  TYR619  PRO620  LYS621  CYS622 
 ASP623  PHE694  ASN695  SER759  ASP760  ASP761  ALA762  ILE779  LEU786  VAL792 
 PHE793  MET794  SER795  GLU796  ALA797  LYS798  CYS799  TRP800  GLU811  SER814 

> <Gold.Protein.RotatedAtoms>
  152.5432  134.2029  159.8719 H   0  0  0  0  0  0  0  0  0  0  0  0  # atno 6907 bound_to 6896
  151.2017  133.4600  159.2604 H   0  0  0  0  0  0  0  0  0  0  0  0  # atno 6908 bound_to 6896
  151.0983  134.9969  159.8492 H   0  0  0  0  0  0  0  0  0  0  0  0  # atno 6909 bound_to 6896
  145.4447  140.9560  143.2056 H   0  0  0  0  0  0  0  0  0  0  0  0  # atno 7974 bound_to 7965
  155.6125  140.0673  157.2702 H   0  0  0  0  0  0  0  0  0  0  0  0  # atno 8008 bound_to 7997
  154.4250  140.1799  156.1334 H   0  0  0  0  0  0  0  0  0  0  0  0  # atno 8009 bound_to 7997
  156.0074  140.3330  155.6909 H   0  0  0  0  0  0  0  0  0  0  0  0  # atno 8010 bound_to 7997
  139.9495  143.6072  152.2479 H   0  0  0  0  0  0  0  0  0  0  0  0  # atno 10167 bound_to 10162
  156.0749  130.4229  150.1374 H   0  0  0  0  0  0  0  0  0  0  0  0  # atno 10718 bound_to 10713
  153.9331  135.6769  153.4745 H   0  0  0  0  0  0  0  0  0  0  0  0  # atno 10763 bound_to 10752
  153.0969  135.4847  154.8792 H   0  0  0  0  0  0  0  0  0  0  0  0  # atno 10764 bound_to 10752
  154.7417  135.3162  154.8674 H   0  0  0  0  0  0  0  0  0  0  0  0  # atno 10765 bound_to 10752
  140.2877  134.2900  155.7784 H   0  0  0  0  0  0  0  0  0  0  0  0  # atno 11005 bound_to 11000
  144.8099  139.5981  143.7034 LP  0  0  0  0  0  0  0  0  0  0  0  0  # atno 17320 bound_to 7965
  146.2537  139.6256  142.9409 LP  0  0  0  0  0  0  0  0  0  0  0  0  # atno 17321 bound_to 7965
  139.6640  144.7662  151.1909 LP  0  0  0  0  0  0  0  0  0  0  0  0  # atno 17342 bound_to 10162
  140.7587  143.5967  150.8741 LP  0  0  0  0  0  0  0  0  0  0  0  0  # atno 17343 bound_to 10162
  156.9417  130.9746  151.3515 LP  0  0  0  0  0  0  0  0  0  0  0  0  # atno 17370 bound_to 10713
  157.5839  130.8396  149.8561 LP  0  0  0  0  0  0  0  0  0  0  0  0  # atno 17371 bound_to 10713
  141.2152  133.7565  156.9578 LP  0  0  0  0  0  0  0  0  0  0  0  0  # atno 17394 bound_to 11000
  140.1224  134.9408  157.2222 LP  0  0  0  0  0  0  0  0  0  0  0  0  # atno 17395 bound_to 11000

$$$$
