AV-unprocessed.smi:210|AV-procd|sdf|1613|dock7
  -GOLD-   2262019533D 1   1.00000     0.00000
 Structure written by MMmdl.
 57 61  0  0  0  0  0  0  0  0  1 V2000
  153.7358  141.7641  161.2706 C   0  0  0  0  0  0  0  0  0  0  0  0
  153.2008  142.3434  160.0935 O   0  0  0  0  0  0  0  0  0  0  0  0
  151.8766  141.9110  159.8234 C   0  0  2  0  0  0  0  0  0  0  0  0
  151.7812  140.5527  159.1129 C   0  0  0  0  0  0  0  0  0  0  0  0
  150.6334  141.1635  158.2894 C   0  0  2  0  0  0  0  0  0  0  0  0
  150.5482  140.7512  156.8795 N   0  0  0  0  0  0  0  0  0  0  0  0
  151.7225  140.3465  156.1094 C   0  0  0  0  0  0  0  0  0  0  0  0
  149.4592  141.2028  156.1995 C   0  0  0  0  0  0  0  0  0  0  0  0
  149.4467  141.0442  154.8496 N   0  0  0  0  0  0  0  0  0  0  0  0
  148.4077  141.4648  154.1238 C   0  0  0  0  0  0  0  0  0  0  0  0
  147.2866  142.0557  154.5377 N   0  0  0  0  0  0  0  0  0  0  0  0
  147.2791  142.2076  155.8925 C   0  0  0  0  0  0  0  0  0  0  0  0
  148.3151  141.8203  156.7921 C   0  0  0  0  0  0  0  0  0  0  0  0
  147.9401  142.1403  158.0934 N   0  0  0  0  0  0  0  0  0  0  0  0
  146.7678  142.6973  157.9679 C   0  0  0  0  0  0  0  0  0  0  0  0
  146.2814  142.7526  156.6826 N   0  0  0  0  0  0  0  0  0  0  0  0
  145.0446  143.3414  156.2588 C   0  0  0  0  0  0  0  0  0  0  0  0
  144.7098  143.5045  154.7719 C   0  0  0  0  0  0  0  0  0  0  0  0
  143.9283  144.7970  155.1031 C   0  0  0  0  0  0  0  0  0  0  0  0
  144.0659  145.9630  154.1042 C   0  0  0  0  0  0  0  0  0  0  0  0
  143.4373  145.6948  152.8669 O   0  0  0  0  0  0  0  0  0  0  0  0
  142.4220  144.5779  155.3414 C   0  0  0  0  0  0  0  0  0  0  0  0
  141.7580  144.1898  154.1557 O   0  0  0  0  0  0  0  0  0  0  0  0
  144.8016  144.8488  156.3784 C   0  0  0  0  0  0  0  0  0  0  0  0
  151.2651  142.5458  158.5564 C   0  0  0  0  0  0  0  0  0  0  0  0
  152.1480  143.2955  157.5389 C   0  0  0  0  0  0  0  0  0  0  0  0
  151.6219  144.6036  158.1379 C   0  0  0  0  0  0  0  0  0  0  0  0
  150.4150  143.8180  158.6624 C   0  0  0  0  0  0  0  0  0  0  0  0
  154.7436  142.1433  161.4393 H   0  0  0  0  0  0  0  0  0  0  0  0
  153.7957  140.6784  161.1871 H   0  0  0  0  0  0  0  0  0  0  0  0
  153.1313  142.0156  162.1427 H   0  0  0  0  0  0  0  0  0  0  0  0
  151.2075  141.9887  160.6832 H   0  0  0  0  0  0  0  0  0  0  0  0
  152.6955  140.3319  158.5616 H   0  0  0  0  0  0  0  0  0  0  0  0
  151.4895  139.7235  159.7577 H   0  0  0  0  0  0  0  0  0  0  0  0
  149.6939  141.0512  158.8339 H   0  0  0  0  0  0  0  0  0  0  0  0
  151.4411  139.9475  155.1346 H   0  0  0  0  0  0  0  0  0  0  0  0
  152.2587  139.5473  156.6200 H   0  0  0  0  0  0  0  0  0  0  0  0
  152.4065  141.1815  155.9600 H   0  0  0  0  0  0  0  0  0  0  0  0
  148.4850  141.3029  153.0588 H   0  0  0  0  0  0  0  0  0  0  0  0
  146.2200  143.0777  158.8177 H   0  0  0  0  0  0  0  0  0  0  0  0
  144.2586  142.7846  156.7718 H   0  0  0  0  0  0  0  0  0  0  0  0
  145.6001  143.6722  154.1640 H   0  0  0  0  0  0  0  0  0  0  0  0
  144.1063  142.6972  154.3558 H   0  0  0  0  0  0  0  0  0  0  0  0
  143.6286  146.8758  154.5102 H   0  0  0  0  0  0  0  0  0  0  0  0
  145.1141  146.1813  153.8976 H   0  0  0  0  0  0  0  0  0  0  0  0
  143.3823  144.7581  152.7550 H   0  0  0  0  0  0  0  0  0  0  0  0
  142.2525  143.8158  156.1029 H   0  0  0  0  0  0  0  0  0  0  0  0
  141.9425  145.4856  155.7081 H   0  0  0  0  0  0  0  0  0  0  0  0
  142.4044  143.8997  153.5301 H   0  0  0  0  0  0  0  0  0  0  0  0
  144.2768  145.1468  157.2865 H   0  0  0  0  0  0  0  0  0  0  0  0
  145.7198  145.4258  156.2567 H   0  0  0  0  0  0  0  0  0  0  0  0
  153.2221  143.1424  157.6441 H   0  0  0  0  0  0  0  0  0  0  0  0
  151.8291  143.1744  156.5041 H   0  0  0  0  0  0  0  0  0  0  0  0
  152.2571  144.9852  158.9390 H   0  0  0  0  0  0  0  0  0  0  0  0
  151.3808  145.3764  157.4078 H   0  0  0  0  0  0  0  0  0  0  0  0
  149.5746  143.8238  157.9665 H   0  0  0  0  0  0  0  0  0  0  0  0
  150.1039  144.0808  159.6738 H   0  0  0  0  0  0  0  0  0  0  0  0
  1  2  1  0  0  0  0
  1 29  1  0  0  0  0
  1 30  1  0  0  0  0
  1 31  1  0  0  0  0
  2  3  1  0  0  0  0
  3 25  1  0  0  0  0
  3  4  1  0  0  0  0
  3 32  1  0  0  0  0
  4  5  1  0  0  0  0
  4 33  1  0  0  0  0
  4 34  1  0  0  0  0
  5  6  1  0  0  0  0
  5 25  1  0  0  0  0
  5 35  1  0  0  0  0
  6  7  1  0  0  0  0
  6  8  1  0  0  0  0
  7 36  1  0  0  0  0
  7 37  1  0  0  0  0
  7 38  1  0  0  0  0
  8 13  1  0  0  0  0
  8  9  2  0  0  0  0
  9 10  1  0  0  0  0
 10 11  2  0  0  0  0
 10 39  1  0  0  0  0
 11 12  1  0  0  0  0
 12 16  1  0  0  0  0
 12 13  2  0  0  0  0
 13 14  1  0  0  0  0
 14 15  2  0  0  0  0
 15 16  1  0  0  0  0
 15 40  1  0  0  0  0
 16 17  1  0  0  0  0
 17 24  1  0  0  0  0
 17 18  1  0  0  0  0
 17 41  1  0  0  0  0
 18 19  1  0  0  0  0
 18 42  1  0  0  0  0
 18 43  1  0  0  0  0
 19 20  1  0  0  0  0
 19 22  1  0  0  0  0
 19 24  1  0  0  0  0
 20 21  1  0  0  0  0
 20 44  1  0  0  0  0
 20 45  1  0  0  0  0
 21 46  1  0  0  0  0
 22 23  1  0  0  0  0
 22 47  1  0  0  0  0
 22 48  1  0  0  0  0
 23 49  1  0  0  0  0
 24 50  1  0  0  0  0
 24 51  1  0  0  0  0
 25 28  1  0  0  0  0
 25 26  1  0  0  0  0
 26 27  1  0  0  0  0
 26 52  1  0  0  0  0
 26 53  1  0  0  0  0
 27 28  1  0  0  0  0
 27 54  1  0  0  0  0
 27 55  1  0  0  0  0
 28 56  1  0  0  0  0
 28 57  1  0  0  0  0
M  END
> <s_m_source_file>
AV-unprocessed.smi

> <i_m_source_file_index>
210

> <i_lp_mmshare_version>
43012

> <i_f3d_flags>
0

> <s_epik_input>
W0NIMl0xW0NIMl1bQ0gyXUMxMltDQEhdKE9bQ0gzXSlbQ0gyXVtDQEhdMk4oW0NIM10pYyhuW2NIXW4zKWMoYzM0KW5bY0hdbjRbQ0hdKFtDSDJdNSlbQ0gyXUM1KFtDSDJdW09IXSlbQ0gyXVtPSF0=

> <s_epik_cmdline>
J2VwaWtfcHl0aG9uJywgJy1waCcsICc3LjAnLCAnLXRuJywgJzgnLCAnLW1hJywgJzIwMCcsICctbWV0YWxfYmluZGluZycsICctaW1hZScsICc8aW5maWxlLm1hZT4nLCAnLW9tYWUnLCAnPG91dGZpbGUubWFlPic=

> <r_lp_tautomer_probability>
1

> <r_epik_Ionization_Penalty>
0.00313676

> <r_epik_Ionization_Penalty_Charging>
0

> <r_epik_Ionization_Penalty_Neutral>
0.00313676

> <r_epik_State_Penalty>
0.00199132

> <r_epik_Charging_Adjusted_Penalty>
0.00199132

> <i_epik_Tot_Q>
0

> <i_epik_Tot_abs_Q>
0

> <r_epik_Metal_State_Penalty>
-0

> <b_epik_Metal_Only>
0

> <s_lp_Force_Field>
OPLS_2005

> <r_lp_Energy>
62.7777

> <b_lp_Chiralities_Consistent>
1

> <s_lp_Variant>
AV-unprocessed.smi:210-3

> <Gold.Version>
5.8.1

> <Gold.Id.Protein>
6NUR|6NUR_protein|mol2

> <Gold.PLP.Fitness>
53.4170

> <Gold.PLP.PLP>
-44.6760

> <Gold.PLP.part.hbond>
-2.4198

> <Gold.PLP.part.metal>
0.0000

> <Gold.PLP.part.buried>
-9.3365

> <Gold.PLP.part.nonpolar>
-33.9150

> <Gold.PLP.part.repulsive>
0.3771

> <Gold.PLP.ligand.clash>
0.0000

> <Gold.PLP.ligand.torsion>
0.8487

> <Gold.PLP.Chemscore.Hbond>
1.9920

> <Gold.PLP.Chemscore.CHOScore>
1.0000

> <Gold.PLP.Chemscore.Metal>
0.0000

> <Gold.Chemscore.Hbonds>
donor molecule, donor type, donor heavy atom, donor atom, acceptor molecule, acceptor atom, score
      L1  H    23    49       P1 10174  0.80
      L1  C    10    39       P1  7957  1.00

> <Gold.PLP.Chemscore.Internal.Correction>
1.4624

> <Gold.Rescore>
     Score         DG    S(hbond)    S(metal)    S(lipo)     H(rot)  DE(clash)    DE(int)     intcor
      9.64     -16.01       1.94        0.00     106.47       3.29       3.08       3.29       ----

> <Gold.Chemscore.Fitness>
9.6426

> <Gold.Chemscore.DG>
-16.0145

> <Gold.Chemscore.ZeroCoef>
-5.4800

> <Gold.Chemscore.Hbond>
1.9439

> <Gold.Chemscore.Metal>
0.0000

> <Gold.Chemscore.Lipo>
106.4656

> <Gold.Chemscore.Internal_Hbond>
0.0000

> <Gold.Chemscore.DEClash>
3.0799

> <Gold.Chemscore.DEInternal>
3.2920

> <Gold.Chemscore.Rot>
3.2870

> <Gold.Chemscore.Internal.Correction>
   9.000000E+99

> <Gold.Chemscore.Hbonds>
donor molecule, donor type, donor heavy atom, donor atom, acceptor molecule, acceptor atom, score
      L1  H    21    46       P1 10174  0.06
      L1  H    23    49       P1 10174  0.77

> <Gold.Chemscore.Hbond.Weighted>
-6.4928

> <Gold.Chemscore.Metal.Weighted>
-0.0000

> <Gold.Chemscore.Lipo.Weighted>
-12.4565

> <Gold.Chemscore.Internal_Hbond.Weighted>
0.0000

> <Gold.Chemscore.DEClash.Weighted>
3.0799

> <Gold.Chemscore.DEInternal.Weighted>
3.2920

> <Gold.Chemscore.Rot.Weighted>
8.4147

> <Gold.Chemscore.Internal.Correction.Weighted>
   9.000000E+99

> <Gold.Protein.RotatedTorsions>
[ 6907 6896 6895 6894 ] final  114.80 input  -60.11 | X-H torsion
[ 7974 7965 7964 7962 ] final  125.85 input  175.53 | X-H torsion
[ 8008 7997 7996 7995 ] final  -35.03 input   59.86 | X-H torsion
[ 10167 10162 10161 10158 ] final  108.92 input  -65.29 | X-H torsion
[ 10718 10713 10712 10709 ] final    8.45 input   66.30 | X-H torsion
[ 10763 10752 10751 10750 ] final -103.71 input  -60.55 | X-H torsion
[ 11005 11000 10999 10996 ] final   34.62 input  -57.11 | X-H torsion

> <Gold.Protein.ActiveResidues>
 VAL166  LYS551  ARG553  GLY616  TRP617  ASP618  TYR619  PRO620  LYS621  CYS622 
 ASP623  PHE694  ASN695  SER759  ASP760  ASP761  ALA762  ILE779  LEU786  VAL792 
 PHE793  MET794  SER795  GLU796  ALA797  LYS798  CYS799  TRP800  GLU811  SER814 

> <Gold.Protein.RotatedAtoms>
  152.4781  133.8186  159.7041 H   0  0  0  0  0  0  0  0  0  0  0  0  # atno 6907 bound_to 6896
  150.8811  133.7362  159.2938 H   0  0  0  0  0  0  0  0  0  0  0  0  # atno 6908 bound_to 6896
  151.4865  135.1059  159.9844 H   0  0  0  0  0  0  0  0  0  0  0  0  # atno 6909 bound_to 6896
  145.0683  139.3750  143.4970 H   0  0  0  0  0  0  0  0  0  0  0  0  # atno 7974 bound_to 7965
  154.4105  140.1668  156.2145 H   0  0  0  0  0  0  0  0  0  0  0  0  # atno 8008 bound_to 7997
  155.9416  140.3407  155.6309 H   0  0  0  0  0  0  0  0  0  0  0  0  # atno 8009 bound_to 7997
  155.6982  140.0742  157.2411 H   0  0  0  0  0  0  0  0  0  0  0  0  # atno 8010 bound_to 7997
  139.6807  144.7118  151.1520 H   0  0  0  0  0  0  0  0  0  0  0  0  # atno 10167 bound_to 10162
  156.9519  130.5900  149.5657 H   0  0  0  0  0  0  0  0  0  0  0  0  # atno 10718 bound_to 10713
  154.7827  135.4813  153.9878 H   0  0  0  0  0  0  0  0  0  0  0  0  # atno 10763 bound_to 10752
  153.1516  135.6792  153.8881 H   0  0  0  0  0  0  0  0  0  0  0  0  # atno 10764 bound_to 10752
  153.8524  135.3165  155.3411 H   0  0  0  0  0  0  0  0  0  0  0  0  # atno 10765 bound_to 10752
  140.2510  134.3303  155.7890 H   0  0  0  0  0  0  0  0  0  0  0  0  # atno 11005 bound_to 11000
  146.3527  140.0415  142.8642 LP  0  0  0  0  0  0  0  0  0  0  0  0  # atno 17320 bound_to 7965
  145.1324  140.9525  143.4537 LP  0  0  0  0  0  0  0  0  0  0  0  0  # atno 17321 bound_to 7965
  140.7651  143.5703  150.9003 LP  0  0  0  0  0  0  0  0  0  0  0  0  # atno 17342 bound_to 10162
  139.9375  143.6421  152.3062 LP  0  0  0  0  0  0  0  0  0  0  0  0  # atno 17343 bound_to 10162
  156.0359  130.5447  150.8652 LP  0  0  0  0  0  0  0  0  0  0  0  0  # atno 17370 bound_to 10713
  157.5716  131.0946  150.9409 LP  0  0  0  0  0  0  0  0  0  0  0  0  # atno 17371 bound_to 10713
  141.2201  133.7353  156.9037 LP  0  0  0  0  0  0  0  0  0  0  0  0  # atno 17394 bound_to 11000
  140.1558  134.9199  157.2652 LP  0  0  0  0  0  0  0  0  0  0  0  0  # atno 17395 bound_to 11000

$$$$
