AV-unprocessed.smi:2098|AV-procd|sdf|8566|dock6
  -GOLD-   2272011293D 1   1.00000     0.00000
 Structure written by MMmdl.
 36 38  0  0  0  0  0  0  0  0  1 V2000
  153.5122  138.8132  155.3298 O   0  0  0  0  0  0  0  0  0  0  0  0
  152.1660  138.6875  155.7452 C   0  0  1  0  0  0  0  0  0  0  0  0
  151.8338  139.8642  156.6763 C   0  0  0  0  0  0  0  0  0  0  0  0
  152.7465  139.8629  157.7664 O   0  0  0  0  0  0  0  0  0  0  0  0
  152.6544  140.8770  158.6956 C   0  0  0  0  0  0  0  0  0  0  0  0
  153.4254  140.7412  159.8690 C   0  0  0  0  0  0  0  0  0  0  0  0
  153.3954  141.7309  160.8703 C   0  0  0  0  0  0  0  0  0  0  0  0
  152.5895  142.8724  160.7066 C   0  0  0  0  0  0  0  0  0  0  0  0
  152.5612  143.8265  161.6670 F   0  0  0  0  0  0  0  0  0  0  0  0
  151.8133  143.0204  159.5424 C   0  0  0  0  0  0  0  0  0  0  0  0
  151.8425  142.0299  158.5413 C   0  0  0  0  0  0  0  0  0  0  0  0
  151.2558  138.6685  154.5018 C   0  0  0  0  0  0  0  0  0  0  0  0
  149.8436  138.6532  154.8414 N   0  0  0  0  0  0  0  0  0  0  0  0
  149.1543  137.6347  155.3904 C   0  0  0  0  0  0  0  0  0  0  0  0
  147.8605  137.8315  155.6279 N   0  0  0  0  0  0  0  0  0  0  0  0
  147.6894  139.1305  155.1808 C   0  0  0  0  0  0  0  0  0  0  0  0
  146.5356  139.9466  155.1549 C   0  0  0  0  0  0  0  0  0  0  0  0
  146.6006  141.2600  154.6446 C   0  0  0  0  0  0  0  0  0  0  0  0
  147.8172  141.7765  154.1530 C   0  0  0  0  0  0  0  0  0  0  0  0
  148.9799  140.9827  154.1694 C   0  0  0  0  0  0  0  0  0  0  0  0
  148.9116  139.6733  154.6808 C   0  0  0  0  0  0  0  0  0  0  0  0
  153.6084  138.3805  154.4950 H   0  0  0  0  0  0  0  0  0  0  0  0
  152.0487  137.7468  156.2850 H   0  0  0  0  0  0  0  0  0  0  0  0
  151.8593  140.8073  156.1274 H   0  0  0  0  0  0  0  0  0  0  0  0
  150.8258  139.7374  157.0752 H   0  0  0  0  0  0  0  0  0  0  0  0
  154.0474  139.8682  160.0027 H   0  0  0  0  0  0  0  0  0  0  0  0
  153.9915  141.6139  161.7632 H   0  0  0  0  0  0  0  0  0  0  0  0
  151.1935  143.8959  159.4158 H   0  0  0  0  0  0  0  0  0  0  0  0
  151.2321  142.1795  157.6639 H   0  0  0  0  0  0  0  0  0  0  0  0
  151.4451  139.5472  153.8839 H   0  0  0  0  0  0  0  0  0  0  0  0
  151.4767  137.7997  153.8803 H   0  0  0  0  0  0  0  0  0  0  0  0
  149.6300  136.6949  155.6302 H   0  0  0  0  0  0  0  0  0  0  0  0
  145.5988  139.5612  155.5287 H   0  0  0  0  0  0  0  0  0  0  0  0
  145.7124  141.8744  154.6302 H   0  0  0  0  0  0  0  0  0  0  0  0
  147.8570  142.7832  153.7635 H   0  0  0  0  0  0  0  0  0  0  0  0
  149.9126  141.3745  153.7915 H   0  0  0  0  0  0  0  0  0  0  0  0
  1  2  1  0  0  0  0
  1 22  1  0  0  0  0
  2  3  1  0  0  0  0
  2 12  1  0  0  0  0
  2 23  1  0  0  0  0
  3  4  1  0  0  0  0
  3 24  1  0  0  0  0
  3 25  1  0  0  0  0
  4  5  1  0  0  0  0
  5 11  1  0  0  0  0
  5  6  2  0  0  0  0
  6  7  1  0  0  0  0
  6 26  1  0  0  0  0
  7  8  2  0  0  0  0
  7 27  1  0  0  0  0
  8  9  1  0  0  0  0
  8 10  1  0  0  0  0
 10 11  2  0  0  0  0
 10 28  1  0  0  0  0
 11 29  1  0  0  0  0
 12 13  1  0  0  0  0
 12 30  1  0  0  0  0
 12 31  1  0  0  0  0
 13 21  1  0  0  0  0
 13 14  1  0  0  0  0
 14 15  2  0  0  0  0
 14 32  1  0  0  0  0
 15 16  1  0  0  0  0
 16 21  2  0  0  0  0
 16 17  1  0  0  0  0
 17 18  2  0  0  0  0
 17 33  1  0  0  0  0
 18 19  1  0  0  0  0
 18 34  1  0  0  0  0
 19 20  2  0  0  0  0
 19 35  1  0  0  0  0
 20 21  1  0  0  0  0
 20 36  1  0  0  0  0
M  END
> <s_m_source_file>
AV-unprocessed.smi

> <i_m_source_file_index>
2098

> <i_lp_mmshare_version>
43012

> <i_f3d_flags>
0

> <s_epik_input>
W2NIXTFbY0hdW2NIXVtjSF1jKGMxMiluKFtjSF1uMilbQ0gyXVtDQEhdKFtPSF0pW0NIMl1PYzNbY0hdW2NIXWMoRilbY0hdW2NIXTM=

> <s_epik_cmdline>
J2VwaWtfcHl0aG9uJywgJy1waCcsICc3LjAnLCAnLXRuJywgJzgnLCAnLW1hJywgJzIwMCcsICctbWV0YWxfYmluZGluZycsICctaW1hZScsICc8aW5maWxlLm1hZT4nLCAnLW9tYWUnLCAnPG91dGZpbGUubWFlPic=

> <r_lp_tautomer_probability>
1

> <r_epik_Ionization_Penalty>
0.0603575

> <r_epik_Ionization_Penalty_Charging>
0

> <r_epik_Ionization_Penalty_Neutral>
0.0603575

> <r_epik_State_Penalty>
0.0523204

> <r_epik_Charging_Adjusted_Penalty>
0.0523204

> <i_epik_Tot_Q>
0

> <i_epik_Tot_abs_Q>
0

> <r_epik_Metal_State_Penalty>
5.46976e-05

> <b_epik_Metal_Only>
0

> <s_lp_Force_Field>
OPLS_2005

> <r_lp_Energy>
15.3663

> <b_lp_Chiralities_Consistent>
1

> <s_lp_Variant>
AV-unprocessed.smi:2098-2

> <Gold.Version>
5.8.1

> <Gold.Id.Protein>
6NUR|6NUR_protein|mol2

> <Gold.PLP.Fitness>
47.1238

> <Gold.PLP.PLP>
-44.5102

> <Gold.PLP.part.hbond>
-2.0000

> <Gold.PLP.part.metal>
0.0000

> <Gold.PLP.part.buried>
-3.8485

> <Gold.PLP.part.nonpolar>
-37.8670

> <Gold.PLP.part.repulsive>
0.0483

> <Gold.PLP.ligand.clash>
0.0000

> <Gold.PLP.ligand.torsion>
0.2057

> <Gold.PLP.Chemscore.Hbond>
1.0000

> <Gold.PLP.Chemscore.CHOScore>
0.0000

> <Gold.PLP.Chemscore.Metal>
0.0000

> <Gold.Chemscore.Hbonds>
donor molecule, donor type, donor heavy atom, donor atom, acceptor molecule, acceptor atom, score
      P1  H  7997  8008       L1     4  0.85

> <Gold.PLP.Chemscore.Internal.Correction>
0.0250

> <Gold.Rescore>
     Score         DG    S(hbond)    S(metal)    S(lipo)     H(rot)  DE(clash)    DE(int)     intcor
     14.89     -15.12       0.84        0.00     110.23       2.37       0.06       0.17       ----

> <Gold.Chemscore.Fitness>
14.8902

> <Gold.Chemscore.DG>
-15.1177

> <Gold.Chemscore.ZeroCoef>
-5.4800

> <Gold.Chemscore.Hbond>
0.8434

> <Gold.Chemscore.Metal>
0.0000

> <Gold.Chemscore.Lipo>
110.2300

> <Gold.Chemscore.Internal_Hbond>
0.0000

> <Gold.Chemscore.DEClash>
0.0607

> <Gold.Chemscore.DEInternal>
0.1668

> <Gold.Chemscore.Rot>
2.3735

> <Gold.Chemscore.Internal.Correction>
   9.000000E+99

> <Gold.Chemscore.Hbonds>
donor molecule, donor type, donor heavy atom, donor atom, acceptor molecule, acceptor atom, score
      P1  H  7997  8008       L1     1  0.23

> <Gold.Chemscore.Hbond.Weighted>
-2.8170

> <Gold.Chemscore.Metal.Weighted>
-0.0000

> <Gold.Chemscore.Lipo.Weighted>
-12.8969

> <Gold.Chemscore.Internal_Hbond.Weighted>
0.0000

> <Gold.Chemscore.DEClash.Weighted>
0.0607

> <Gold.Chemscore.DEInternal.Weighted>
0.1668

> <Gold.Chemscore.Rot.Weighted>
6.0762

> <Gold.Chemscore.Internal.Correction.Weighted>
   9.000000E+99

> <Gold.Protein.RotatedTorsions>
[ 6907 6896 6895 6894 ] final    9.03 input  -60.11 | X-H torsion
[ 7974 7965 7964 7962 ] final  -49.79 input  175.53 | X-H torsion
[ 8008 7997 7996 7995 ] final  -62.95 input   59.86 | X-H torsion
[ 10167 10162 10161 10158 ] final   -1.13 input  -65.29 | X-H torsion
[ 10718 10713 10712 10709 ] final -119.89 input   66.30 | X-H torsion
[ 10763 10752 10751 10750 ] final -168.66 input  -60.55 | X-H torsion
[ 11005 11000 10999 10996 ] final  -39.80 input  -57.11 | X-H torsion

> <Gold.Protein.ActiveResidues>
 VAL166  LYS551  ARG553  GLY616  TRP617  ASP618  TYR619  PRO620  LYS621  CYS622 
 ASP623  PHE694  ASN695  SER759  ASP760  ASP761  ALA762  ILE779  LEU786  VAL792 
 PHE793  MET794  SER795  GLU796  ALA797  LYS798  CYS799  TRP800  GLU811  SER814 

> <Gold.Protein.RotatedAtoms>
  151.7156  135.0904  160.0275 H   0  0  0  0  0  0  0  0  0  0  0  0  # atno 6907 bound_to 6896
  152.3634  133.6321  159.6040 H   0  0  0  0  0  0  0  0  0  0  0  0  # atno 6908 bound_to 6896
  150.7620  133.9303  159.3466 H   0  0  0  0  0  0  0  0  0  0  0  0  # atno 6909 bound_to 6896
  145.9367  140.7699  142.9572 H   0  0  0  0  0  0  0  0  0  0  0  0  # atno 7974 bound_to 7965
  154.4527  140.0985  156.6667 H   0  0  0  0  0  0  0  0  0  0  0  0  # atno 8008 bound_to 7997
  155.5234  140.3479  155.4393 H   0  0  0  0  0  0  0  0  0  0  0  0  # atno 8009 bound_to 7997
  156.0715  140.1350  156.9812 H   0  0  0  0  0  0  0  0  0  0  0  0  # atno 8010 bound_to 7997
  140.6797  143.6811  150.8104 H   0  0  0  0  0  0  0  0  0  0  0  0  # atno 10167 bound_to 10162
  156.1216  130.6327  150.9473 H   0  0  0  0  0  0  0  0  0  0  0  0  # atno 10718 bound_to 10713
  154.6605  135.2924  154.9873 H   0  0  0  0  0  0  0  0  0  0  0  0  # atno 10763 bound_to 10752
  154.0934  135.6587  153.4860 H   0  0  0  0  0  0  0  0  0  0  0  0  # atno 10764 bound_to 10752
  153.0427  135.5225  154.7553 H   0  0  0  0  0  0  0  0  0  0  0  0  # atno 10765 bound_to 10752
  141.0128  133.6899  156.2235 H   0  0  0  0  0  0  0  0  0  0  0  0  # atno 11005 bound_to 11000
  144.6773  140.2215  143.7366 LP  0  0  0  0  0  0  0  0  0  0  0  0  # atno 17320 bound_to 7965
  145.8354  139.2105  143.1858 LP  0  0  0  0  0  0  0  0  0  0  0  0  # atno 17321 bound_to 7965
  140.0510  143.5250  152.2674 LP  0  0  0  0  0  0  0  0  0  0  0  0  # atno 17342 bound_to 10162
  139.6112  144.7609  151.2948 LP  0  0  0  0  0  0  0  0  0  0  0  0  # atno 17343 bound_to 10162
  157.6399  131.0911  150.8272 LP  0  0  0  0  0  0  0  0  0  0  0  0  # atno 17370 bound_to 10713
  156.8368  130.5034  149.5325 LP  0  0  0  0  0  0  0  0  0  0  0  0  # atno 17371 bound_to 10713
  140.6705  134.4873  157.5587 LP  0  0  0  0  0  0  0  0  0  0  0  0  # atno 17394 bound_to 11000
  139.9100  134.8366  156.1564 LP  0  0  0  0  0  0  0  0  0  0  0  0  # atno 17395 bound_to 11000

$$$$
