AV-unprocessed.smi:2247|AV-procd|sdf|9093|dock1
  -GOLD-   2272012293D 1   1.00000     0.00000
 Structure written by MMmdl.
 33 34  0  0  0  0  0  0  0  0  2 V2000
  153.4825  139.8348  160.3619 C   0  0  0  0  0  0  0  0  0  0  0  0
  153.0430  140.5556  159.0742 C   0  0  0  0  0  0  0  0  0  0  0  0
  152.8816  142.0680  159.2965 C   0  0  0  0  0  0  0  0  0  0  0  0
  151.8145  139.9924  158.4956 N   0  0  0  0  0  0  0  0  0  0  0  0
  150.8403  140.8036  157.7838 C   0  0  0  0  0  0  0  0  0  0  0  0
  149.8894  139.7945  157.1329 C   0  0  0  0  0  0  0  0  0  0  0  0
  150.1262  138.4480  157.8353 C   0  0  2  0  0  0  0  0  0  0  0  0
  149.0534  138.1954  158.7955 N   0  0  0  0  0  0  0  0  0  0  0  0
  148.6740  136.9955  159.2590 C   0  0  0  0  0  0  0  0  0  0  0  0
  149.2484  135.9757  158.8707 O   0  0  0  0  0  0  0  0  0  0  0  0
  147.6514  137.0530  160.1417 N   0  5  0  0  0  0  0  0  0  0  0  0
  147.2427  135.9352  160.7632 C   0  0  0  0  0  0  0  0  0  0  0  0
  147.5411  134.6824  160.4146 N   0  0  0  0  0  0  0  0  0  0  0  0
  146.9088  133.8701  161.3434 C   0  0  0  0  0  0  0  0  0  0  0  0
  146.2526  134.6787  162.2307 C   0  0  0  0  0  0  0  0  0  0  0  0
  146.4586  135.9835  161.8774 O   0  0  0  0  0  0  0  0  0  0  0  0
  151.4412  138.7069  158.5684 C   0  0  0  0  0  0  0  0  0  0  0  0
  152.0736  137.8096  159.1250 O   0  0  0  0  0  0  0  0  0  0  0  0
  154.4418  140.2184  160.7103 H   0  0  0  0  0  0  0  0  0  0  0  0
  153.6026  138.7641  160.1938 H   0  0  0  0  0  0  0  0  0  0  0  0
  152.7653  139.9722  161.1715 H   0  0  0  0  0  0  0  0  0  0  0  0
  153.8465  140.4118  158.3495 H   0  0  0  0  0  0  0  0  0  0  0  0
  153.8005  142.5069  159.6860 H   0  0  0  0  0  0  0  0  0  0  0  0
  152.0830  142.2797  160.0081 H   0  0  0  0  0  0  0  0  0  0  0  0
  152.6428  142.5828  158.3651 H   0  0  0  0  0  0  0  0  0  0  0  0
  150.3015  141.4335  158.4929 H   0  0  0  0  0  0  0  0  0  0  0  0
  151.3132  141.4459  157.0399 H   0  0  0  0  0  0  0  0  0  0  0  0
  148.8506  140.1252  157.1762 H   0  0  0  0  0  0  0  0  0  0  0  0
  150.1437  139.6936  156.0769 H   0  0  0  0  0  0  0  0  0  0  0  0
  150.2261  137.6360  157.1129 H   0  0  0  0  0  0  0  0  0  0  0  0
  148.5584  139.0020  159.1459 H   0  0  0  0  0  0  0  0  0  0  0  0
  146.9765  132.7933  161.3010 H   0  0  0  0  0  0  0  0  0  0  0  0
  145.6419  134.5003  163.1030 H   0  0  0  0  0  0  0  0  0  0  0  0
  1  2  1  0  0  0  0
  1 19  1  0  0  0  0
  1 20  1  0  0  0  0
  1 21  1  0  0  0  0
  2  3  1  0  0  0  0
  2  4  1  0  0  0  0
  2 22  1  0  0  0  0
  3 23  1  0  0  0  0
  3 24  1  0  0  0  0
  3 25  1  0  0  0  0
  4 17  1  0  0  0  0
  4  5  1  0  0  0  0
  5  6  1  0  0  0  0
  5 26  1  0  0  0  0
  5 27  1  0  0  0  0
  6  7  1  0  0  0  0
  6 28  1  0  0  0  0
  6 29  1  0  0  0  0
  7  8  1  0  0  0  0
  7 17  1  0  0  0  0
  7 30  1  0  0  0  0
  8  9  1  0  0  0  0
  8 31  1  0  0  0  0
  9 10  2  0  0  0  0
  9 11  1  0  0  0  0
 11 12  1  0  0  0  0
 12 16  1  0  0  0  0
 12 13  2  0  0  0  0
 13 14  1  0  0  0  0
 14 15  2  0  0  0  0
 14 32  1  0  0  0  0
 15 16  1  0  0  0  0
 15 33  1  0  0  0  0
 17 18  2  0  0  0  0
M  CHG  1  11  -1
M  END
> <s_m_source_file>
AV-unprocessed.smi

> <i_m_source_file_index>
2247

> <i_lp_mmshare_version>
43012

> <i_f3d_flags>
0

> <s_epik_input>
W0NIM11bQ0hdKFtDSDNdKU4xW0NIMl1bQ0gyXVtDQEhdKEMxPU8pW05IXUMoPU8pW05IXWMybltjSF1bY0hdbzI=

> <s_epik_cmdline>
J2VwaWtfcHl0aG9uJywgJy1waCcsICc3LjAnLCAnLXRuJywgJzgnLCAnLW1hJywgJzIwMCcsICctbWV0YWxfYmluZGluZycsICctaW1hZScsICc8aW5maWxlLm1hZT4nLCAnLW9tYWUnLCAnPG91dGZpbGUubWFlPic=

> <r_lp_tautomer_probability>
0.785861

> <r_epik_Ionization_Penalty>
8.37364

> <r_epik_Ionization_Penalty_Charging>
6.20178

> <r_epik_Ionization_Penalty_Neutral>
2.17186

> <r_epik_State_Penalty>
6.22234

> <r_epik_Charging_Adjusted_Penalty>
12.4241

> <i_epik_Tot_Q>
-1

> <i_epik_Tot_abs_Q>
1

> <r_epik_Metal_State_Penalty>
2.14252

> <b_epik_Metal_Only>
1

> <s_lp_Force_Field>
OPLS_2005

> <r_lp_Energy>
16.3016

> <b_lp_Chiralities_Consistent>
1

> <s_lp_Variant>
AV-unprocessed.smi:2247-8

> <Gold.Version>
5.8.1

> <Gold.Id.Protein>
6NUR|6NUR_protein|mol2

> <Gold.PLP.Fitness>
37.6444

> <Gold.PLP.PLP>
-28.4379

> <Gold.PLP.part.hbond>
-3.0000

> <Gold.PLP.part.metal>
0.0000

> <Gold.PLP.part.buried>
-3.7110

> <Gold.PLP.part.nonpolar>
-22.9103

> <Gold.PLP.part.repulsive>
0.5896

> <Gold.PLP.ligand.clash>
0.0000

> <Gold.PLP.ligand.torsion>
1.0977

> <Gold.PLP.Chemscore.Hbond>
3.7690

> <Gold.PLP.Chemscore.CHOScore>
0.0000

> <Gold.PLP.Chemscore.Metal>
0.0000

> <Gold.Chemscore.Hbonds>
donor molecule, donor type, donor heavy atom, donor atom, acceptor molecule, acceptor atom, score
      P1  H  6896  6908       L1    10  0.84
      P1  H  6934  6947       L1    11  1.24

> <Gold.PLP.Chemscore.Internal.Correction>
0.0949

> <Gold.Rescore>
     Score         DG    S(hbond)    S(metal)    S(lipo)     H(rot)  DE(clash)    DE(int)     intcor
     11.33     -14.60       1.76        0.00      56.69       1.32       0.00       3.26       ----

> <Gold.Chemscore.Fitness>
11.3334

> <Gold.Chemscore.DG>
-14.5998

> <Gold.Chemscore.ZeroCoef>
-5.4800

> <Gold.Chemscore.Hbond>
1.7577

> <Gold.Chemscore.Metal>
0.0000

> <Gold.Chemscore.Lipo>
56.6946

> <Gold.Chemscore.Internal_Hbond>
0.0000

> <Gold.Chemscore.DEClash>
0.0048

> <Gold.Chemscore.DEInternal>
3.2615

> <Gold.Chemscore.Rot>
1.3219

> <Gold.Chemscore.Internal.Correction>
   9.000000E+99

> <Gold.Chemscore.Hbonds>
donor molecule, donor type, donor heavy atom, donor atom, acceptor molecule, acceptor atom, score
      P1  H  6896  6908       L1    10  0.84
      P1  H  6934  6947       L1    11  0.54

> <Gold.Chemscore.Hbond.Weighted>
-5.8707

> <Gold.Chemscore.Metal.Weighted>
-0.0000

> <Gold.Chemscore.Lipo.Weighted>
-6.6333

> <Gold.Chemscore.Internal_Hbond.Weighted>
0.0000

> <Gold.Chemscore.DEClash.Weighted>
0.0048

> <Gold.Chemscore.DEInternal.Weighted>
3.2615

> <Gold.Chemscore.Rot.Weighted>
3.3842

> <Gold.Chemscore.Internal.Correction.Weighted>
   9.000000E+99

> <Gold.Protein.RotatedTorsions>
[ 6907 6896 6895 6894 ] final -174.01 input  -60.11 | X-H torsion
[ 7974 7965 7964 7962 ] final  -30.50 input  175.53 | X-H torsion
[ 8008 7997 7996 7995 ] final  -46.48 input   59.86 | X-H torsion
[ 10167 10162 10161 10158 ] final  -38.57 input  -65.29 | X-H torsion
[ 10718 10713 10712 10709 ] final   99.58 input   66.30 | X-H torsion
[ 10763 10752 10751 10750 ] final -146.96 input  -60.55 | X-H torsion
[ 11005 11000 10999 10996 ] final -167.01 input  -57.11 | X-H torsion

> <Gold.Protein.ActiveResidues>
 VAL166  LYS551  ARG553  GLY616  TRP617  ASP618  TYR619  PRO620  LYS621  CYS622 
 ASP623  PHE694  ASN695  SER759  ASP760  ASP761  ALA762  ILE779  LEU786  VAL792 
 PHE793  MET794  SER795  GLU796  ALA797  LYS798  CYS799  TRP800  GLU811  SER814 

> <Gold.Protein.RotatedAtoms>
  151.5654  133.3397  159.2978 H   0  0  0  0  0  0  0  0  0  0  0  0  # atno 6907 bound_to 6896
  150.8398  134.7688  159.6934 H   0  0  0  0  0  0  0  0  0  0  0  0  # atno 6908 bound_to 6896
  152.4468  134.5485  159.9911 H   0  0  0  0  0  0  0  0  0  0  0  0  # atno 6909 bound_to 6896
  146.1138  140.5549  142.8766 H   0  0  0  0  0  0  0  0  0  0  0  0  # atno 7974 bound_to 7965
  154.4008  140.1370  156.4018 H   0  0  0  0  0  0  0  0  0  0  0  0  # atno 8008 bound_to 7997
  155.7817  140.3481  155.5280 H   0  0  0  0  0  0  0  0  0  0  0  0  # atno 8009 bound_to 7997
  155.8667  140.0965  157.1568 H   0  0  0  0  0  0  0  0  0  0  0  0  # atno 8010 bound_to 7997
  140.7088  143.3269  151.2660 H   0  0  0  0  0  0  0  0  0  0  0  0  # atno 10167 bound_to 10162
  157.6873  131.0674  150.4970 H   0  0  0  0  0  0  0  0  0  0  0  0  # atno 10718 bound_to 10713
  154.8310  135.3372  154.6744 H   0  0  0  0  0  0  0  0  0  0  0  0  # atno 10763 bound_to 10752
  153.7364  135.6948  153.4981 H   0  0  0  0  0  0  0  0  0  0  0  0  # atno 10764 bound_to 10752
  153.2275  135.4427  155.0510 H   0  0  0  0  0  0  0  0  0  0  0  0  # atno 10765 bound_to 10752
  140.5581  134.5361  157.5137 H   0  0  0  0  0  0  0  0  0  0  0  0  # atno 11005 bound_to 11000
  144.7535  140.5249  143.6785 LP  0  0  0  0  0  0  0  0  0  0  0  0  # atno 17320 bound_to 7965
  145.5609  139.1479  143.3342 LP  0  0  0  0  0  0  0  0  0  0  0  0  # atno 17321 bound_to 7965
  139.6739  143.9971  152.2769 LP  0  0  0  0  0  0  0  0  0  0  0  0  # atno 17342 bound_to 10162
  139.9579  144.6577  150.8108 LP  0  0  0  0  0  0  0  0  0  0  0  0  # atno 17343 bound_to 10162
  156.5293  130.4181  149.6209 LP  0  0  0  0  0  0  0  0  0  0  0  0  # atno 17370 bound_to 10713
  156.3083  130.7215  151.2102 LP  0  0  0  0  0  0  0  0  0  0  0  0  # atno 17371 bound_to 10713
  139.9421  134.7767  156.0651 LP  0  0  0  0  0  0  0  0  0  0  0  0  # atno 17394 bound_to 11000
  141.1131  133.6636  156.3028 LP  0  0  0  0  0  0  0  0  0  0  0  0  # atno 17395 bound_to 11000

$$$$
