AV-unprocessed.smi:1673|AV-procd|sdf|6712|dock5
  -GOLD-   22720 7453D 1   1.00000     0.00000
 Structure written by MMmdl.
 39 40  0  0  0  0  0  0  0  0  1 V2000
  149.3356  130.7879  154.2902 C   0  0  0  0  0  0  0  0  0  0  0  0
  149.7720  132.0706  154.9422 C   0  0  0  0  0  0  0  0  0  0  0  0
  150.6033  132.0181  155.9726 N   0  0  0  0  0  0  0  0  0  0  0  0
  150.8918  133.3453  156.3265 O   0  0  0  0  0  0  0  0  0  0  0  0
  150.2184  134.1792  155.4918 C   0  0  0  0  0  0  0  0  0  0  0  0
  150.4123  135.6439  155.6953 C   0  0  0  0  0  0  0  0  0  0  0  0
  149.4787  133.4297  154.6254 C   0  0  0  0  0  0  0  0  0  0  0  0
  148.6667  133.9582  153.5910 N   0  0  0  0  0  0  0  0  0  0  0  0
  147.5666  133.3965  153.0676 C   0  0  0  0  0  0  0  0  0  0  0  0
  147.0695  132.3378  153.4504 O   0  0  0  0  0  0  0  0  0  0  0  0
  147.0601  134.1464  152.0780 N   0  0  0  0  0  0  0  0  0  0  0  0
  145.8621  133.8389  151.2975 C   0  0  1  0  0  0  0  0  0  0  0  0
  146.1693  132.6459  150.3710 C   0  0  0  0  0  0  0  0  0  0  0  0
  144.9372  132.2253  149.5571 C   0  0  0  0  0  0  0  0  0  0  0  0
  143.7526  131.9082  150.4792 C   0  0  0  0  0  0  0  0  0  0  0  0
  143.4317  133.1004  151.3932 C   0  0  0  0  0  0  0  0  0  0  0  0
  144.6561  133.5352  152.2245 C   0  0  2  0  0  0  0  0  0  0  0  0
  144.2905  134.7184  153.1389 C   0  0  0  0  0  0  0  0  0  0  0  0
  149.1886  130.9201  153.2182 H   0  0  0  0  0  0  0  0  0  0  0  0
  148.3988  130.4304  154.7176 H   0  0  0  0  0  0  0  0  0  0  0  0
  150.0792  130.0011  154.4202 H   0  0  0  0  0  0  0  0  0  0  0  0
  149.9141  136.2185  154.9146 H   0  0  0  0  0  0  0  0  0  0  0  0
  151.4719  135.8989  155.6774 H   0  0  0  0  0  0  0  0  0  0  0  0
  150.0047  135.9565  156.6568 H   0  0  0  0  0  0  0  0  0  0  0  0
  148.8976  134.8893  153.2769 H   0  0  0  0  0  0  0  0  0  0  0  0
  147.5419  135.0014  151.8420 H   0  0  0  0  0  0  0  0  0  0  0  0
  145.6014  134.6886  150.6634 H   0  0  0  0  0  0  0  0  0  0  0  0
  146.9841  132.9013  149.6922 H   0  0  0  0  0  0  0  0  0  0  0  0
  146.5158  131.7971  150.9626 H   0  0  0  0  0  0  0  0  0  0  0  0
  144.6625  133.0249  148.8678 H   0  0  0  0  0  0  0  0  0  0  0  0
  145.1750  131.3555  148.9440 H   0  0  0  0  0  0  0  0  0  0  0  0
  142.8768  131.6494  149.8835 H   0  0  0  0  0  0  0  0  0  0  0  0
  143.9842  131.0321  151.0864 H   0  0  0  0  0  0  0  0  0  0  0  0
  143.0837  133.9377  150.7863 H   0  0  0  0  0  0  0  0  0  0  0  0
  142.6058  132.8370  152.0549 H   0  0  0  0  0  0  0  0  0  0  0  0
  144.9284  132.6980  152.8694 H   0  0  0  0  0  0  0  0  0  0  0  0
  144.0501  135.6081  152.5559 H   0  0  0  0  0  0  0  0  0  0  0  0
  145.1066  134.9735  153.8149 H   0  0  0  0  0  0  0  0  0  0  0  0
  143.4243  134.4822  153.7574 H   0  0  0  0  0  0  0  0  0  0  0  0
  1  2  1  0  0  0  0
  1 19  1  0  0  0  0
  1 20  1  0  0  0  0
  1 21  1  0  0  0  0
  2  7  1  0  0  0  0
  2  3  2  0  0  0  0
  3  4  1  0  0  0  0
  4  5  1  0  0  0  0
  5  6  1  0  0  0  0
  5  7  2  0  0  0  0
  6 22  1  0  0  0  0
  6 23  1  0  0  0  0
  6 24  1  0  0  0  0
  7  8  1  0  0  0  0
  8  9  1  0  0  0  0
  8 25  1  0  0  0  0
  9 10  2  0  0  0  0
  9 11  1  0  0  0  0
 11 12  1  0  0  0  0
 11 26  1  0  0  0  0
 12 17  1  0  0  0  0
 12 13  1  0  0  0  0
 12 27  1  0  0  0  0
 13 14  1  0  0  0  0
 13 28  1  0  0  0  0
 13 29  1  0  0  0  0
 14 15  1  0  0  0  0
 14 30  1  0  0  0  0
 14 31  1  0  0  0  0
 15 16  1  0  0  0  0
 15 32  1  0  0  0  0
 15 33  1  0  0  0  0
 16 17  1  0  0  0  0
 16 34  1  0  0  0  0
 16 35  1  0  0  0  0
 17 18  1  0  0  0  0
 17 36  1  0  0  0  0
 18 37  1  0  0  0  0
 18 38  1  0  0  0  0
 18 39  1  0  0  0  0
M  END
> <s_m_source_file>
AV-unprocessed.smi

> <i_m_source_file_index>
1673

> <i_lp_mmshare_version>
43012

> <i_f3d_flags>
0

> <s_epik_input>
W0NIM11jMW5vYyhbQ0gzXSljMVtOSF1DKD1PKVtOSF1bQ0BASF0yW0NIMl1bQ0gyXVtDSDJdW0NIMl1bQ0BIXTJbQ0gzXQ==

> <s_epik_cmdline>
J2VwaWtfcHl0aG9uJywgJy1waCcsICc3LjAnLCAnLXRuJywgJzgnLCAnLW1hJywgJzIwMCcsICctbWV0YWxfYmluZGluZycsICctaW1hZScsICc8aW5maWxlLm1hZT4nLCAnLW9tYWUnLCAnPG91dGZpbGUubWFlPic=

> <r_lp_tautomer_probability>
1

> <r_epik_Ionization_Penalty>
4.01865e-05

> <r_epik_Ionization_Penalty_Charging>
0

> <r_epik_Ionization_Penalty_Neutral>
4.01865e-05

> <r_epik_State_Penalty>
-0

> <r_epik_Charging_Adjusted_Penalty>
0

> <i_epik_Tot_Q>
0

> <i_epik_Tot_abs_Q>
0

> <r_epik_Metal_State_Penalty>
-0

> <b_epik_Metal_Only>
0

> <s_lp_Force_Field>
OPLS_2005

> <r_lp_Energy>
12.0286

> <b_lp_Chiralities_Consistent>
1

> <s_lp_Variant>
AV-unprocessed.smi:1673-4

> <Gold.Version>
5.8.1

> <Gold.Id.Protein>
6NUR|6NUR_protein|mol2

> <Gold.PLP.Fitness>
39.5018

> <Gold.PLP.PLP>
-34.1106

> <Gold.PLP.part.hbond>
-2.0000

> <Gold.PLP.part.metal>
0.0000

> <Gold.PLP.part.buried>
-5.7263

> <Gold.PLP.part.nonpolar>
-26.9139

> <Gold.PLP.part.repulsive>
0.1286

> <Gold.PLP.ligand.clash>
0.0000

> <Gold.PLP.ligand.torsion>
0.2755

> <Gold.PLP.Chemscore.Hbond>
1.8928

> <Gold.PLP.Chemscore.CHOScore>
0.0000

> <Gold.PLP.Chemscore.Metal>
0.0000

> <Gold.Chemscore.Hbonds>
donor molecule, donor type, donor heavy atom, donor atom, acceptor molecule, acceptor atom, score
      L1  H     8    25       P1  7948  0.99
      L1  H    11    26       P1  7948  1.00

> <Gold.PLP.Chemscore.Internal.Correction>
0.2639

> <Gold.Rescore>
     Score         DG    S(hbond)    S(metal)    S(lipo)     H(rot)  DE(clash)    DE(int)     intcor
     16.19     -17.26       1.58        0.00      77.53       1.00       0.00       1.07       ----

> <Gold.Chemscore.Fitness>
16.1866

> <Gold.Chemscore.DG>
-17.2586

> <Gold.Chemscore.ZeroCoef>
-5.4800

> <Gold.Chemscore.Hbond>
1.5773

> <Gold.Chemscore.Metal>
0.0000

> <Gold.Chemscore.Lipo>
77.5264

> <Gold.Chemscore.Internal_Hbond>
0.0000

> <Gold.Chemscore.DEClash>
0.0024

> <Gold.Chemscore.DEInternal>
1.0697

> <Gold.Chemscore.Rot>
1.0000

> <Gold.Chemscore.Internal.Correction>
   9.000000E+99

> <Gold.Chemscore.Hbonds>
donor molecule, donor type, donor heavy atom, donor atom, acceptor molecule, acceptor atom, score
      L1  H     8    25       P1  7948  0.24
      L1  H    11    26       P1  7948  0.81

> <Gold.Chemscore.Hbond.Weighted>
-5.2680

> <Gold.Chemscore.Metal.Weighted>
-0.0000

> <Gold.Chemscore.Lipo.Weighted>
-9.0706

> <Gold.Chemscore.Internal_Hbond.Weighted>
0.0000

> <Gold.Chemscore.DEClash.Weighted>
0.0024

> <Gold.Chemscore.DEInternal.Weighted>
1.0697

> <Gold.Chemscore.Rot.Weighted>
2.5600

> <Gold.Chemscore.Internal.Correction.Weighted>
   9.000000E+99

> <Gold.Protein.RotatedTorsions>
[ 6907 6896 6895 6894 ] final -179.08 input  -60.11 | X-H torsion
[ 7974 7965 7964 7962 ] final   35.05 input  175.53 | X-H torsion
[ 8008 7997 7996 7995 ] final  -66.21 input   59.86 | X-H torsion
[ 10167 10162 10161 10158 ] final   60.70 input  -65.29 | X-H torsion
[ 10718 10713 10712 10709 ] final  -54.88 input   66.30 | X-H torsion
[ 10763 10752 10751 10750 ] final  -86.47 input  -60.55 | X-H torsion
[ 11005 11000 10999 10996 ] final -154.79 input  -57.11 | X-H torsion

> <Gold.Protein.ActiveResidues>
 VAL166  LYS551  ARG553  GLY616  TRP617  ASP618  TYR619  PRO620  LYS621  CYS622 
 ASP623  PHE694  ASN695  SER759  ASP760  ASP761  ALA762  ILE779  LEU786  VAL792 
 PHE793  MET794  SER795  GLU796  ALA797  LYS798  CYS799  TRP800  GLU811  SER814 

> <Gold.Protein.RotatedAtoms>
  151.6476  133.3322  159.3144 H   0  0  0  0  0  0  0  0  0  0  0  0  # atno 6907 bound_to 6896
  150.7976  134.7051  159.6581 H   0  0  0  0  0  0  0  0  0  0  0  0  # atno 6908 bound_to 6896
  152.4065  134.6202  160.0100 H   0  0  0  0  0  0  0  0  0  0  0  0  # atno 6909 bound_to 6896
  146.1310  139.6192  142.9226 H   0  0  0  0  0  0  0  0  0  0  0  0  # atno 7974 bound_to 7965
  154.4720  140.0917  156.7168 H   0  0  0  0  0  0  0  0  0  0  0  0  # atno 8008 bound_to 7997
  155.4698  140.3464  155.4306 H   0  0  0  0  0  0  0  0  0  0  0  0  # atno 8009 bound_to 7997
  156.1055  140.1433  156.9399 H   0  0  0  0  0  0  0  0  0  0  0  0  # atno 8010 bound_to 7997
  140.1627  144.4354  150.6701 H   0  0  0  0  0  0  0  0  0  0  0  0  # atno 10167 bound_to 10162
  156.1414  130.4154  150.0096 H   0  0  0  0  0  0  0  0  0  0  0  0  # atno 10718 bound_to 10713
  154.6228  135.5448  153.7594 H   0  0  0  0  0  0  0  0  0  0  0  0  # atno 10763 bound_to 10752
  153.0246  135.6417  154.1416 H   0  0  0  0  0  0  0  0  0  0  0  0  # atno 10764 bound_to 10752
  154.1349  135.2912  155.3155 H   0  0  0  0  0  0  0  0  0  0  0  0  # atno 10765 bound_to 10752
  140.6935  134.4015  157.5217 H   0  0  0  0  0  0  0  0  0  0  0  0  # atno 11005 bound_to 11000
  145.5260  141.0429  143.2409 LP  0  0  0  0  0  0  0  0  0  0  0  0  # atno 17320 bound_to 7965
  144.7691  139.6776  143.7202 LP  0  0  0  0  0  0  0  0  0  0  0  0  # atno 17321 bound_to 7965
  140.6632  143.2259  151.5805 LP  0  0  0  0  0  0  0  0  0  0  0  0  # atno 17342 bound_to 10162
  139.5373  144.2744  152.1279 LP  0  0  0  0  0  0  0  0  0  0  0  0  # atno 17343 bound_to 10162
  156.7980  130.9280  151.3646 LP  0  0  0  0  0  0  0  0  0  0  0  0  # atno 17370 bound_to 10713
  157.6579  130.8940  149.9768 LP  0  0  0  0  0  0  0  0  0  0  0  0  # atno 17371 bound_to 10713
  139.8917  134.8774  156.2309 LP  0  0  0  0  0  0  0  0  0  0  0  0  # atno 17394 bound_to 11000
  141.0222  133.7035  156.1287 LP  0  0  0  0  0  0  0  0  0  0  0  0  # atno 17395 bound_to 11000

$$$$
