AV-unprocessed.smi:1546|AV-procd|sdf|6218|dock3
  -GOLD-   22720 6393D 1   1.00000     0.00000
 Structure written by MMmdl.
 30 31  0  0  0  0  0  0  0  0  1 V2000
  150.4119  140.5854  156.9109 O   0  0  0  0  0  0  0  0  0  0  0  0
  150.3075  141.7821  156.6425 C   0  0  0  0  0  0  0  0  0  0  0  0
  151.1625  142.8094  157.3873 C   0  0  0  0  0  0  0  0  0  0  0  0
  150.9055  142.7282  158.7809 O   0  0  0  0  0  0  0  0  0  0  0  0
  152.0930  142.7239  159.5537 C   0  0  0  0  0  0  0  0  0  0  0  0
  152.5253  144.1532  159.8010 C   0  0  0  0  0  0  0  0  0  0  0  0
  151.5178  145.1877  160.2490 C   0  0  0  0  0  0  0  0  0  0  0  0
  152.1047  145.2616  158.8625 C   0  0  0  0  0  0  0  0  0  0  0  0
  149.4795  142.3033  155.7161 N   0  0  0  0  0  0  0  0  0  0  0  0
  148.5666  141.6589  154.8644 C   0  0  0  0  0  0  0  0  0  0  0  0
  147.3054  142.0773  154.5840 C   0  0  0  0  0  0  0  0  0  0  0  0
  146.4398  141.4053  153.7322 N   0  0  0  0  0  0  0  0  0  0  0  0
  146.8686  140.2356  153.1259 C   0  0  0  0  0  0  0  0  0  0  0  0
  148.0956  139.7127  153.3174 C   0  0  0  0  0  0  0  0  0  0  0  0
  149.0466  140.4060  154.2152 C   0  0  0  0  0  0  0  0  0  0  0  0
  150.1772  139.9584  154.4074 O   0  0  0  0  0  0  0  0  0  0  0  0
  152.2181  142.6156  157.1887 H   0  0  0  0  0  0  0  0  0  0  0  0
  150.9262  143.8073  157.0149 H   0  0  0  0  0  0  0  0  0  0  0  0
  151.9321  142.2153  160.5058 H   0  0  0  0  0  0  0  0  0  0  0  0
  152.8890  142.2003  159.0224 H   0  0  0  0  0  0  0  0  0  0  0  0
  153.5178  144.2425  160.2387 H   0  0  0  0  0  0  0  0  0  0  0  0
  150.4778  144.8795  160.3371 H   0  0  0  0  0  0  0  0  0  0  0  0
  151.8477  145.9284  160.9748 H   0  0  0  0  0  0  0  0  0  0  0  0
  152.8272  146.0503  158.6624 H   0  0  0  0  0  0  0  0  0  0  0  0
  151.4554  145.0022  158.0285 H   0  0  0  0  0  0  0  0  0  0  0  0
  149.5173  143.3063  155.6028 H   0  0  0  0  0  0  0  0  0  0  0  0
  146.8586  142.9694  154.9915 H   0  0  0  0  0  0  0  0  0  0  0  0
  146.1326  139.7747  152.4837 H   0  0  0  0  0  0  0  0  0  0  0  0
  148.4014  138.7979  152.8313 H   0  0  0  0  0  0  0  0  0  0  0  0
  145.5117  141.7643  153.5575 H   0  0  0  0  0  0  0  0  0  0  0  0
  1  2  2  0  0  0  0
  2  3  1  0  0  0  0
  2  9  1  0  0  0  0
  3  4  1  0  0  0  0
  3 17  1  0  0  0  0
  3 18  1  0  0  0  0
  4  5  1  0  0  0  0
  5  6  1  0  0  0  0
  5 19  1  0  0  0  0
  5 20  1  0  0  0  0
  6  8  1  0  0  0  0
  6  7  1  0  0  0  0
  6 21  1  0  0  0  0
  7  8  1  0  0  0  0
  7 22  1  0  0  0  0
  7 23  1  0  0  0  0
  8 24  1  0  0  0  0
  8 25  1  0  0  0  0
  9 26  1  0  0  0  0
  9 10  1  0  0  0  0
 10 15  1  0  0  0  0
 10 11  2  0  0  0  0
 11 27  1  0  0  0  0
 11 12  1  0  0  0  0
 12 30  1  0  0  0  0
 12 13  1  0  0  0  0
 13 28  1  0  0  0  0
 13 14  2  0  0  0  0
 14 15  1  0  0  0  0
 14 29  1  0  0  0  0
 15 16  2  0  0  0  0
M  END
> <s_m_source_file>
AV-unprocessed.smi

> <i_m_source_file_index>
1546

> <i_lp_mmshare_version>
43012

> <i_f3d_flags>
0

> <s_epik_input>
W0NIMl0xW0NIMl1bQ0hdMVtDSDJdT1tDSDJdQyg9TylbTkhdYzJbY0hdbltjSF1bY0hdYzJbT0hd

> <s_epik_cmdline>
J2VwaWtfcHl0aG9uJywgJy1waCcsICc3LjAnLCAnLXRuJywgJzgnLCAnLW1hJywgJzIwMCcsICctbWV0YWxfYmluZGluZycsICctaW1hZScsICc8aW5maWxlLm1hZT4nLCAnLW9tYWUnLCAnPG91dGZpbGUubWFlPic=

> <r_lp_tautomer_probability>
1

> <r_epik_Ionization_Penalty>
0.000226134

> <r_epik_Ionization_Penalty_Charging>
0.000226086

> <r_epik_Ionization_Penalty_Neutral>
4.85517e-08

> <r_epik_State_Penalty>
-0

> <r_epik_Charging_Adjusted_Penalty>
0.000226086

> <i_epik_Tot_Q>
0

> <i_epik_Tot_abs_Q>
0

> <r_epik_Metal_State_Penalty>
0.0890487

> <b_epik_Metal_Only>
0

> <s_lp_Force_Field>
OPLS_2005

> <r_lp_Energy>
13.4663

> <b_lp_Chiralities_Consistent>
1

> <s_lp_Variant>
AV-unprocessed.smi:1546-1

> <Gold.Version>
5.8.1

> <Gold.Id.Protein>
6NUR|6NUR_protein|mol2

> <Gold.PLP.Fitness>
42.4426

> <Gold.PLP.PLP>
-34.6896

> <Gold.PLP.part.hbond>
-2.4373

> <Gold.PLP.part.metal>
0.0000

> <Gold.PLP.part.buried>
-0.3662

> <Gold.PLP.part.nonpolar>
-32.7648

> <Gold.PLP.part.repulsive>
0.4022

> <Gold.PLP.ligand.clash>
0.0000

> <Gold.PLP.ligand.torsion>
1.1093

> <Gold.PLP.Chemscore.Hbond>
1.9440

> <Gold.PLP.Chemscore.CHOScore>
1.1905

> <Gold.PLP.Chemscore.Metal>
0.0000

> <Gold.Chemscore.Hbonds>
donor molecule, donor type, donor heavy atom, donor atom, acceptor molecule, acceptor atom, score
      L1  H     9    26       P1  8028  1.00
      P1  H  7989  7998       L1    16  1.00
      L1  C    11    27       P1  8028  0.22
      L1  C    13    28       P1 10175  0.84

> <Gold.PLP.Chemscore.Internal.Correction>
0.5682

> <Gold.Rescore>
     Score         DG    S(hbond)    S(metal)    S(lipo)     H(rot)  DE(clash)    DE(int)     intcor
     12.64     -18.26       2.14        0.00      86.41       1.75       1.69       3.94       ----

> <Gold.Chemscore.Fitness>
12.6365

> <Gold.Chemscore.DG>
-18.2642

> <Gold.Chemscore.ZeroCoef>
-5.4800

> <Gold.Chemscore.Hbond>
2.1450

> <Gold.Chemscore.Metal>
0.0000

> <Gold.Chemscore.Lipo>
86.4122

> <Gold.Chemscore.Internal_Hbond>
0.0000

> <Gold.Chemscore.DEClash>
1.6851

> <Gold.Chemscore.DEInternal>
3.9426

> <Gold.Chemscore.Rot>
1.7540

> <Gold.Chemscore.Internal.Correction>
   9.000000E+99

> <Gold.Chemscore.Hbonds>
donor molecule, donor type, donor heavy atom, donor atom, acceptor molecule, acceptor atom, score
      L1  H     9    26       P1  8028  0.92
      P1  H  7989  7998       L1    16  0.91

> <Gold.Chemscore.Hbond.Weighted>
-7.1641

> <Gold.Chemscore.Metal.Weighted>
-0.0000

> <Gold.Chemscore.Lipo.Weighted>
-10.1102

> <Gold.Chemscore.Internal_Hbond.Weighted>
0.0000

> <Gold.Chemscore.DEClash.Weighted>
1.6851

> <Gold.Chemscore.DEInternal.Weighted>
3.9426

> <Gold.Chemscore.Rot.Weighted>
4.4901

> <Gold.Chemscore.Internal.Correction.Weighted>
   9.000000E+99

> <Gold.Protein.RotatedTorsions>
[ 6907 6896 6895 6894 ] final  -22.64 input  -60.11 | X-H torsion
[ 7974 7965 7964 7962 ] final  -96.62 input  175.53 | X-H torsion
[ 8008 7997 7996 7995 ] final   58.91 input   59.86 | X-H torsion
[ 10167 10162 10161 10158 ] final   28.15 input  -65.29 | X-H torsion
[ 10718 10713 10712 10709 ] final    1.29 input   66.30 | X-H torsion
[ 10763 10752 10751 10750 ] final   11.88 input  -60.55 | X-H torsion
[ 11005 11000 10999 10996 ] final    7.89 input  -57.11 | X-H torsion

> <Gold.Protein.ActiveResidues>
 VAL166  LYS551  ARG553  GLY616  TRP617  ASP618  TYR619  PRO620  LYS621  CYS622 
 ASP623  PHE694  ASN695  SER759  ASP760  ASP761  ALA762  ILE779  LEU786  VAL792 
 PHE793  MET794  SER795  GLU796  ALA797  LYS798  CYS799  TRP800  GLU811  SER814 

> <Gold.Protein.RotatedAtoms>
  151.2157  135.0499  159.8928 H   0  0  0  0  0  0  0  0  0  0  0  0  # atno 6907 bound_to 6896
  152.5420  134.0696  159.8198 H   0  0  0  0  0  0  0  0  0  0  0  0  # atno 6908 bound_to 6896
  151.0855  133.5308  159.2650 H   0  0  0  0  0  0  0  0  0  0  0  0  # atno 6909 bound_to 6896
  145.3445  140.9466  143.2589 H   0  0  0  0  0  0  0  0  0  0  0  0  # atno 7974 bound_to 7965
  155.5577  140.3487  155.4483 H   0  0  0  0  0  0  0  0  0  0  0  0  # atno 8008 bound_to 7997
  156.0537  140.1324  157.0046 H   0  0  0  0  0  0  0  0  0  0  0  0  # atno 8009 bound_to 7997
  154.4446  140.0999  156.6399 H   0  0  0  0  0  0  0  0  0  0  0  0  # atno 8010 bound_to 7997
  140.4877  144.0516  150.6286 H   0  0  0  0  0  0  0  0  0  0  0  0  # atno 10167 bound_to 10162
  156.8460  130.5537  149.5673 H   0  0  0  0  0  0  0  0  0  0  0  0  # atno 10718 bound_to 10713
  153.1880  135.6838  153.8389 H   0  0  0  0  0  0  0  0  0  0  0  0  # atno 10763 bound_to 10752
  153.7698  135.3197  155.3351 H   0  0  0  0  0  0  0  0  0  0  0  0  # atno 10764 bound_to 10752
  154.8100  135.4723  154.0590 H   0  0  0  0  0  0  0  0  0  0  0  0  # atno 10765 bound_to 10752
  140.5432  134.0355  155.7911 H   0  0  0  0  0  0  0  0  0  0  0  0  # atno 11005 bound_to 11000
  144.8765  139.4964  143.6743 LP  0  0  0  0  0  0  0  0  0  0  0  0  # atno 17320 bound_to 7965
  146.2994  139.7378  142.9103 LP  0  0  0  0  0  0  0  0  0  0  0  0  # atno 17321 bound_to 7965
  140.3777  143.2820  152.0206 LP  0  0  0  0  0  0  0  0  0  0  0  0  # atno 17342 bound_to 10162
  139.4845  144.6180  151.7309 LP  0  0  0  0  0  0  0  0  0  0  0  0  # atno 17343 bound_to 10162
  156.0854  130.5854  150.9638 LP  0  0  0  0  0  0  0  0  0  0  0  0  # atno 17370 bound_to 10713
  157.6329  131.0919  150.8405 LP  0  0  0  0  0  0  0  0  0  0  0  0  # atno 17371 bound_to 10713
  141.1215  133.9453  157.2720 LP  0  0  0  0  0  0  0  0  0  0  0  0  # atno 17394 bound_to 11000
  139.9493  135.0178  156.8947 LP  0  0  0  0  0  0  0  0  0  0  0  0  # atno 17395 bound_to 11000

$$$$
