AV-unprocessed.smi:1686|AV-procd|sdf|6763|dock9
  -GOLD-   22720 7523D 1   1.00000     0.00000
 Structure written by MMmdl.
 41 43  0  0  0  0  0  0  0  0  1 V2000
  152.8096  138.4962  159.1883 C   0  0  0  0  0  0  0  0  0  0  0  0
  152.0552  137.5540  158.2948 C   0  0  0  0  0  0  0  0  0  0  0  0
  151.3907  136.5430  158.8390 N   0  0  0  0  0  0  0  0  0  0  0  0
  150.7872  135.8528  157.7815 O   0  0  0  0  0  0  0  0  0  0  0  0
  151.1287  136.4969  156.6421 C   0  0  0  0  0  0  0  0  0  0  0  0
  150.5878  135.9792  155.0945 Cl  0  0  0  0  0  0  0  0  0  0  0  0
  151.9296  137.5776  156.8744 C   0  0  0  0  0  0  0  0  0  0  0  0
  152.5256  138.5548  155.8896 C   0  0  0  0  0  0  0  0  0  0  0  0
  151.7239  139.8606  155.8254 C   0  0  0  0  0  0  0  0  0  0  0  0
  151.1203  140.1915  154.8033 O   0  0  0  0  0  0  0  0  0  0  0  0
  151.7334  140.6010  156.9442 N   0  0  0  0  0  0  0  0  0  0  0  0
  151.0661  141.8895  157.1186 C   0  0  1  0  0  0  0  0  0  0  0  0
  149.5747  141.7355  156.7687 C   0  0  0  0  0  0  0  0  0  0  0  0
  151.2793  142.4003  158.5647 C   0  0  2  0  0  0  0  0  0  0  0  0
  150.5176  143.7115  158.8791 C   0  0  0  0  0  0  0  0  0  0  0  0
  151.6191  144.6436  159.4139 C   0  0  1  0  0  0  0  0  0  0  0  0
  152.0922  144.1456  160.7915 C   0  0  0  0  0  0  0  0  0  0  0  0
  152.8945  142.8805  160.4349 C   0  0  0  0  0  0  0  0  0  0  0  0
  152.7397  142.7994  158.9039 C   0  0  2  0  0  0  0  0  0  0  0  0
  152.7930  144.2739  158.5177 C   0  0  0  0  0  0  0  0  0  0  0  0
  153.2807  139.2972  158.6192 H   0  0  0  0  0  0  0  0  0  0  0  0
  153.5944  137.9735  159.7355 H   0  0  0  0  0  0  0  0  0  0  0  0
  152.1455  138.9596  159.9183 H   0  0  0  0  0  0  0  0  0  0  0  0
  153.5571  138.7919  156.1515 H   0  0  0  0  0  0  0  0  0  0  0  0
  152.5616  138.1282  154.8868 H   0  0  0  0  0  0  0  0  0  0  0  0
  152.2553  140.2522  157.7350 H   0  0  0  0  0  0  0  0  0  0  0  0
  151.5090  142.6116  156.4304 H   0  0  0  0  0  0  0  0  0  0  0  0
  149.0434  142.6837  156.8450 H   0  0  0  0  0  0  0  0  0  0  0  0
  149.0830  141.0253  157.4344 H   0  0  0  0  0  0  0  0  0  0  0  0
  149.4448  141.3763  155.7472 H   0  0  0  0  0  0  0  0  0  0  0  0
  150.9539  141.6149  159.2491 H   0  0  0  0  0  0  0  0  0  0  0  0
  150.0769  144.1447  157.9804 H   0  0  0  0  0  0  0  0  0  0  0  0
  149.7134  143.5614  159.6005 H   0  0  0  0  0  0  0  0  0  0  0  0
  151.3436  145.6985  159.4000 H   0  0  0  0  0  0  0  0  0  0  0  0
  152.7336  144.8833  161.2752 H   0  0  0  0  0  0  0  0  0  0  0  0
  151.2582  143.9348  161.4619 H   0  0  0  0  0  0  0  0  0  0  0  0
  153.9426  143.0033  160.7105 H   0  0  0  0  0  0  0  0  0  0  0  0
  152.5203  141.9910  160.9429 H   0  0  0  0  0  0  0  0  0  0  0  0
  153.5040  142.1792  158.4358 H   0  0  0  0  0  0  0  0  0  0  0  0
  152.6051  144.4556  157.4583 H   0  0  0  0  0  0  0  0  0  0  0  0
  153.7263  144.7629  158.8029 H   0  0  0  0  0  0  0  0  0  0  0  0
  1  2  1  0  0  0  0
  1 21  1  0  0  0  0
  1 22  1  0  0  0  0
  1 23  1  0  0  0  0
  2  7  1  0  0  0  0
  2  3  2  0  0  0  0
  3  4  1  0  0  0  0
  4  5  1  0  0  0  0
  5  6  1  0  0  0  0
  5  7  2  0  0  0  0
  7  8  1  0  0  0  0
  8  9  1  0  0  0  0
  8 24  1  0  0  0  0
  8 25  1  0  0  0  0
  9 10  2  0  0  0  0
  9 11  1  0  0  0  0
 11 12  1  0  0  0  0
 11 26  1  0  0  0  0
 12 13  1  0  0  0  0
 12 14  1  0  0  0  0
 12 27  1  0  0  0  0
 13 28  1  0  0  0  0
 13 29  1  0  0  0  0
 13 30  1  0  0  0  0
 14 19  1  0  0  0  0
 14 15  1  0  0  0  0
 14 31  1  0  0  0  0
 15 16  1  0  0  0  0
 15 32  1  0  0  0  0
 15 33  1  0  0  0  0
 16 20  1  0  0  0  0
 16 17  1  0  0  0  0
 16 34  1  0  0  0  0
 17 18  1  0  0  0  0
 17 35  1  0  0  0  0
 17 36  1  0  0  0  0
 18 19  1  0  0  0  0
 18 37  1  0  0  0  0
 18 38  1  0  0  0  0
 19 20  1  0  0  0  0
 19 39  1  0  0  0  0
 20 40  1  0  0  0  0
 20 41  1  0  0  0  0
M  END
> <s_m_source_file>
AV-unprocessed.smi

> <i_m_source_file_index>
1686

> <i_lp_mmshare_version>
43012

> <i_f3d_flags>
0

> <s_epik_input>
W0NIM11jMW5vYyhDbCljMVtDSDJdQyg9TylbTkhdW0NASF0oW0NIM10pW0NASF0oW0NIMl1bQ0BIXTIzKVtDQEhdKFtDSDJdMylbQ0gyXVtDSDJdMg==

> <s_epik_cmdline>
J2VwaWtfcHl0aG9uJywgJy1waCcsICc3LjAnLCAnLXRuJywgJzgnLCAnLW1hJywgJzIwMCcsICctbWV0YWxfYmluZGluZycsICctaW1hZScsICc8aW5maWxlLm1hZT4nLCAnLW9tYWUnLCAnPG91dGZpbGUubWFlPic=

> <r_lp_tautomer_probability>
1

> <r_epik_Ionization_Penalty>
2.01576e-08

> <r_epik_Ionization_Penalty_Charging>
0

> <r_epik_Ionization_Penalty_Neutral>
2.01576e-08

> <r_epik_State_Penalty>
-0

> <r_epik_Charging_Adjusted_Penalty>
0

> <i_epik_Tot_Q>
0

> <i_epik_Tot_abs_Q>
0

> <r_epik_Metal_State_Penalty>
-0

> <b_epik_Metal_Only>
0

> <s_lp_Force_Field>
OPLS_2005

> <r_lp_Energy>
46.9039

> <b_lp_Chiralities_Consistent>
1

> <s_lp_Variant>
AV-unprocessed.smi:1686-6

> <Gold.Version>
5.8.1

> <Gold.Id.Protein>
6NUR|6NUR_protein|mol2

> <Gold.PLP.Fitness>
46.7657

> <Gold.PLP.PLP>
-42.4865

> <Gold.PLP.part.hbond>
-2.9772

> <Gold.PLP.part.metal>
0.0000

> <Gold.PLP.part.buried>
-5.9769

> <Gold.PLP.part.nonpolar>
-33.6703

> <Gold.PLP.part.repulsive>
0.1879

> <Gold.PLP.ligand.clash>
0.0000

> <Gold.PLP.ligand.torsion>
0.3765

> <Gold.PLP.Chemscore.Hbond>
1.6688

> <Gold.PLP.Chemscore.CHOScore>
0.0000

> <Gold.PLP.Chemscore.Metal>
0.0000

> <Gold.Chemscore.Hbonds>
donor molecule, donor type, donor heavy atom, donor atom, acceptor molecule, acceptor atom, score
      P1  H  6896  6909       L1     3  0.67
      P1  H  7989  7998       L1    10  1.00

> <Gold.PLP.Chemscore.Internal.Correction>
0.0258

> <Gold.Rescore>
     Score         DG    S(hbond)    S(metal)    S(lipo)     H(rot)  DE(clash)    DE(int)     intcor
     19.63     -21.32       1.50        0.00     124.66       1.46       0.00       1.69       ----

> <Gold.Chemscore.Fitness>
19.6269

> <Gold.Chemscore.DG>
-21.3181

> <Gold.Chemscore.ZeroCoef>
-5.4800

> <Gold.Chemscore.Hbond>
1.4977

> <Gold.Chemscore.Metal>
0.0000

> <Gold.Chemscore.Lipo>
124.6636

> <Gold.Chemscore.Internal_Hbond>
0.0000

> <Gold.Chemscore.DEClash>
0.0015

> <Gold.Chemscore.DEInternal>
1.6898

> <Gold.Chemscore.Rot>
1.4648

> <Gold.Chemscore.Internal.Correction>
   9.000000E+99

> <Gold.Chemscore.Hbonds>
donor molecule, donor type, donor heavy atom, donor atom, acceptor molecule, acceptor atom, score
      P1  H  6896  6909       L1     3  0.15
      P1  H  7989  7998       L1    10  0.96

> <Gold.Chemscore.Hbond.Weighted>
-5.0025

> <Gold.Chemscore.Metal.Weighted>
-0.0000

> <Gold.Chemscore.Lipo.Weighted>
-14.5856

> <Gold.Chemscore.Internal_Hbond.Weighted>
0.0000

> <Gold.Chemscore.DEClash.Weighted>
0.0015

> <Gold.Chemscore.DEInternal.Weighted>
1.6898

> <Gold.Chemscore.Rot.Weighted>
3.7500

> <Gold.Chemscore.Internal.Correction.Weighted>
   9.000000E+99

> <Gold.Protein.RotatedTorsions>
[ 6907 6896 6895 6894 ] final  125.65 input  -60.11 | X-H torsion
[ 7974 7965 7964 7962 ] final -162.37 input  175.53 | X-H torsion
[ 8008 7997 7996 7995 ] final   -9.49 input   59.86 | X-H torsion
[ 10167 10162 10161 10158 ] final  -78.31 input  -65.29 | X-H torsion
[ 10718 10713 10712 10709 ] final  -83.85 input   66.30 | X-H torsion
[ 10763 10752 10751 10750 ] final   46.90 input  -60.55 | X-H torsion
[ 11005 11000 10999 10996 ] final  154.72 input  -57.11 | X-H torsion

> <Gold.Protein.ActiveResidues>
 VAL166  LYS551  ARG553  GLY616  TRP617  ASP618  TYR619  PRO620  LYS621  CYS622 
 ASP623  PHE694  ASN695  SER759  ASP760  ASP761  ALA762  ILE779  LEU786  VAL792 
 PHE793  MET794  SER795  GLU796  ALA797  LYS798  CYS799  TRP800  GLU811  SER814 

> <Gold.Protein.RotatedAtoms>
  152.3973  133.6766  159.6286 H   0  0  0  0  0  0  0  0  0  0  0  0  # atno 6907 bound_to 6896
  150.7870  133.8852  159.3306 H   0  0  0  0  0  0  0  0  0  0  0  0  # atno 6908 bound_to 6896
  151.6625  135.0989  160.0234 H   0  0  0  0  0  0  0  0  0  0  0  0  # atno 6909 bound_to 6896
  144.7360  140.3262  143.6161 H   0  0  0  0  0  0  0  0  0  0  0  0  # atno 7974 bound_to 7965
  154.5641  140.2353  155.8290 H   0  0  0  0  0  0  0  0  0  0  0  0  # atno 8008 bound_to 7997
  156.2054  140.3041  155.9575 H   0  0  0  0  0  0  0  0  0  0  0  0  # atno 8009 bound_to 7997
  155.2833  140.0423  157.3008 H   0  0  0  0  0  0  0  0  0  0  0  0  # atno 8010 bound_to 7997
  140.4694  143.2431  151.8229 H   0  0  0  0  0  0  0  0  0  0  0  0  # atno 10167 bound_to 10162
  156.0013  130.4679  150.4320 H   0  0  0  0  0  0  0  0  0  0  0  0  # atno 10718 bound_to 10713
  152.9805  135.5993  154.3676 H   0  0  0  0  0  0  0  0  0  0  0  0  # atno 10763 bound_to 10752
  154.3352  135.2768  155.2453 H   0  0  0  0  0  0  0  0  0  0  0  0  # atno 10764 bound_to 10752
  154.4559  135.5978  153.6278 H   0  0  0  0  0  0  0  0  0  0  0  0  # atno 10765 bound_to 10752
  140.1515  134.8671  157.2461 H   0  0  0  0  0  0  0  0  0  0  0  0  # atno 11005 bound_to 11000
  145.7518  139.1796  143.2317 LP  0  0  0  0  0  0  0  0  0  0  0  0  # atno 17320 bound_to 7965
  146.1055  140.7492  142.9528 LP  0  0  0  0  0  0  0  0  0  0  0  0  # atno 17321 bound_to 7965
  139.4816  144.4911  151.9184 LP  0  0  0  0  0  0  0  0  0  0  0  0  # atno 17342 bound_to 10162
  140.3996  144.2510  150.5894 LP  0  0  0  0  0  0  0  0  0  0  0  0  # atno 17343 bound_to 10162
  157.2368  131.0516  151.2460 LP  0  0  0  0  0  0  0  0  0  0  0  0  # atno 17370 bound_to 10713
  157.3658  130.7155  149.6532 LP  0  0  0  0  0  0  0  0  0  0  0  0  # atno 17371 bound_to 10713
  140.2599  134.3584  155.7410 LP  0  0  0  0  0  0  0  0  0  0  0  0  # atno 17394 bound_to 11000
  141.2199  133.7363  156.9063 LP  0  0  0  0  0  0  0  0  0  0  0  0  # atno 17395 bound_to 11000

$$$$
