AV-unprocessed.smi:3303|AV-procd|sdf|12661|dock6
  -GOLD-   2272018593D 1   1.00000     0.00000
 Structure written by MMmdl.
 45 46  0  0  0  0  0  0  0  0  3 V2000
  144.9120  135.7798  152.4300 C   0  0  0  0  0  0  0  0  0  0  0  0
  145.4802  134.7626  151.4240 C   0  0  2  0  0  0  0  0  0  0  0  0
  144.3340  134.1491  150.5912 C   0  0  0  0  0  0  0  0  0  0  0  0
  144.8386  133.1566  149.6095 N   0  3  2  0  0  0  0  0  0  0  0  0
  143.7955  132.7053  148.6601 C   0  0  0  0  0  0  0  0  0  0  0  0
  145.6139  132.0492  150.2368 C   0  0  2  0  0  0  0  0  0  0  0  0
  144.7460  131.0669  151.0533 C   0  0  0  0  0  0  0  0  0  0  0  0
  146.7794  132.6269  151.0644 C   0  0  0  0  0  0  0  0  0  0  0  0
  146.3109  133.6564  152.1161 C   0  0  1  0  0  0  0  0  0  0  0  0
  147.4710  134.2450  152.8265 N   0  3  0  0  0  0  0  0  0  0  0  0
  148.5705  133.3043  153.1265 C   0  0  0  0  0  0  0  0  0  0  0  0
  148.0355  132.0249  153.7836 C   0  0  0  0  0  0  0  0  0  0  0  0
  149.1545  131.1166  154.2558 C   0  0  0  0  0  0  0  0  0  0  0  0
  150.0127  131.5125  155.3037 C   0  0  0  0  0  0  0  0  0  0  0  0
  151.0283  130.6250  155.7093 C   0  0  0  0  0  0  0  0  0  0  0  0
  151.1446  129.3830  155.0556 C   0  0  0  0  0  0  0  0  0  0  0  0
  150.2366  129.0819  154.0210 C   0  0  0  0  0  0  0  0  0  0  0  0
  149.2583  129.9252  153.6253 N   0  0  0  0  0  0  0  0  0  0  0  0
  144.2634  135.2958  153.1610 H   0  0  0  0  0  0  0  0  0  0  0  0
  144.3238  136.5453  151.9226 H   0  0  0  0  0  0  0  0  0  0  0  0
  145.7029  136.2941  152.9760 H   0  0  0  0  0  0  0  0  0  0  0  0
  146.1347  135.3042  150.7388 H   0  0  0  0  0  0  0  0  0  0  0  0
  143.5907  133.6861  151.2414 H   0  0  0  0  0  0  0  0  0  0  0  0
  143.8170  134.9444  150.0519 H   0  0  0  0  0  0  0  0  0  0  0  0
  142.9610  132.2295  149.1758 H   0  0  0  0  0  0  0  0  0  0  0  0
  144.2063  131.9973  147.9395 H   0  0  0  0  0  0  0  0  0  0  0  0
  143.4007  133.5537  148.1001 H   0  0  0  0  0  0  0  0  0  0  0  0
  146.0586  131.4751  149.4225 H   0  0  0  0  0  0  0  0  0  0  0  0
  145.3643  130.2857  151.4960 H   0  0  0  0  0  0  0  0  0  0  0  0
  144.0077  130.5643  150.4285 H   0  0  0  0  0  0  0  0  0  0  0  0
  144.2135  131.5564  151.8677 H   0  0  0  0  0  0  0  0  0  0  0  0
  147.3229  131.8092  151.5379 H   0  0  0  0  0  0  0  0  0  0  0  0
  147.4892  133.1051  150.3874 H   0  0  0  0  0  0  0  0  0  0  0  0
  145.6767  133.1617  152.8532 H   0  0  0  0  0  0  0  0  0  0  0  0
  147.8331  135.0184  152.2870 H   0  0  0  0  0  0  0  0  0  0  0  0
  149.0923  133.0524  152.2023 H   0  0  0  0  0  0  0  0  0  0  0  0
  149.2947  133.7813  153.7868 H   0  0  0  0  0  0  0  0  0  0  0  0
  147.4027  132.2770  154.6364 H   0  0  0  0  0  0  0  0  0  0  0  0
  147.4022  131.4799  153.0817 H   0  0  0  0  0  0  0  0  0  0  0  0
  149.8986  132.4714  155.7881 H   0  0  0  0  0  0  0  0  0  0  0  0
  151.7052  130.8917  156.5074 H   0  0  0  0  0  0  0  0  0  0  0  0
  151.9115  128.6776  155.3399 H   0  0  0  0  0  0  0  0  0  0  0  0
  150.2965  128.1384  153.4985 H   0  0  0  0  0  0  0  0  0  0  0  0
  147.1380  134.6022  153.7109 H   0  0  0  0  0  0  0  0  0  0  0  0
  145.5070  133.6579  149.0417 H   0  0  0  0  0  0  0  0  0  0  0  0
  1  2  1  0  0  0  0
  1 19  1  0  0  0  0
  1 20  1  0  0  0  0
  1 21  1  0  0  0  0
  2  9  1  0  0  0  0
  2  3  1  0  0  0  0
  2 22  1  0  0  0  0
  3  4  1  0  0  0  0
  3 23  1  0  0  0  0
  3 24  1  0  0  0  0
  4  5  1  0  0  0  0
  4  6  1  0  0  0  0
  4 45  1  0  0  0  0
  5 25  1  0  0  0  0
  5 26  1  0  0  0  0
  5 27  1  0  0  0  0
  6  7  1  0  0  0  0
  6  8  1  0  0  0  0
  6 28  1  0  0  0  0
  7 29  1  0  0  0  0
  7 30  1  0  0  0  0
  7 31  1  0  0  0  0
  8  9  1  0  0  0  0
  8 32  1  0  0  0  0
  8 33  1  0  0  0  0
  9 10  1  0  0  0  0
  9 34  1  0  0  0  0
 10 11  1  0  0  0  0
 10 35  1  0  0  0  0
 10 44  1  0  0  0  0
 11 12  1  0  0  0  0
 11 36  1  0  0  0  0
 11 37  1  0  0  0  0
 12 13  1  0  0  0  0
 12 38  1  0  0  0  0
 12 39  1  0  0  0  0
 13 18  1  0  0  0  0
 13 14  2  0  0  0  0
 14 15  1  0  0  0  0
 14 40  1  0  0  0  0
 15 16  2  0  0  0  0
 15 41  1  0  0  0  0
 16 17  1  0  0  0  0
 16 42  1  0  0  0  0
 17 18  2  0  0  0  0
 17 43  1  0  0  0  0
M  CHG  1   4   1
M  CHG  1  10   1
M  END
> <s_m_source_file>
AV-unprocessed.smi

> <i_m_source_file_index>
3303

> <i_lp_mmshare_version>
43012

> <i_f3d_flags>
0

> <s_epik_input>
W0NIM11bQ0BASF0xW0NIMl1OKFtDSDNdKVtDQEBIXShbQ0gzXSlbQ0gyXVtDQEhdMVtOSF1bQ0gyXVtDSDJdYzJbY0hdW2NIXVtjSF1bY0hdbjI=

> <s_epik_cmdline>
J2VwaWtfcHl0aG9uJywgJy1waCcsICc3LjAnLCAnLXRuJywgJzgnLCAnLW1hJywgJzIwMCcsICctbWV0YWxfYmluZGluZycsICctaW1hZScsICc8aW5maWxlLm1hZT4nLCAnLW9tYWUnLCAnPG91dGZpbGUubWFlPic=

> <r_epik_Ionization_Penalty>
0.0769462

> <r_epik_Ionization_Penalty_Charging>
0.0759813

> <r_epik_Ionization_Penalty_Neutral>
0.000964829

> <r_epik_State_Penalty>
0.0654373

> <r_epik_Charging_Adjusted_Penalty>
0.141419

> <i_epik_Tot_Q>
2

> <i_epik_Tot_abs_Q>
2

> <r_epik_Metal_State_Penalty>
0.0656439

> <b_epik_Metal_Only>
0

> <s_lp_Force_Field>
OPLS_2005

> <r_lp_Energy>
28.3665

> <b_lp_Chiralities_Consistent>
1

> <s_lp_Variant>
AV-unprocessed.smi:3303-5

> <Gold.Version>
5.8.1

> <Gold.Id.Protein>
6NUR|6NUR_protein|mol2

> <Gold.PLP.Fitness>
46.7054

> <Gold.PLP.PLP>
-35.7540

> <Gold.PLP.part.hbond>
-2.0000

> <Gold.PLP.part.metal>
0.0000

> <Gold.PLP.part.buried>
-0.8319

> <Gold.PLP.part.nonpolar>
-32.7668

> <Gold.PLP.part.repulsive>
0.2688

> <Gold.PLP.ligand.clash>
0.0000

> <Gold.PLP.ligand.torsion>
0.2767

> <Gold.PLP.Chemscore.Hbond>
3.0000

> <Gold.PLP.Chemscore.CHOScore>
0.8321

> <Gold.PLP.Chemscore.Metal>
0.0000

> <Gold.Chemscore.Hbonds>
donor molecule, donor type, donor heavy atom, donor atom, acceptor molecule, acceptor atom, score
      L1  H     4    45       P1  7921  1.00
      L1  H    10    35       P1  7948  2.00
      L1  C    17    43       P1 10737  0.83

> <Gold.PLP.Chemscore.Internal.Correction>
0.0085

> <Gold.Rescore>
     Score         DG    S(hbond)    S(metal)    S(lipo)     H(rot)  DE(clash)    DE(int)     intcor
     19.39     -19.70       1.84        0.00      99.23       1.37       0.15       0.17       ----

> <Gold.Chemscore.Fitness>
19.3864

> <Gold.Chemscore.DG>
-19.7026

> <Gold.Chemscore.ZeroCoef>
-5.4800

> <Gold.Chemscore.Hbond>
1.8356

> <Gold.Chemscore.Metal>
0.0000

> <Gold.Chemscore.Lipo>
99.2317

> <Gold.Chemscore.Internal_Hbond>
0.0000

> <Gold.Chemscore.DEClash>
0.1460

> <Gold.Chemscore.DEInternal>
0.1702

> <Gold.Chemscore.Rot>
1.3744

> <Gold.Chemscore.Internal.Correction>
   9.000000E+99

> <Gold.Chemscore.Hbonds>
donor molecule, donor type, donor heavy atom, donor atom, acceptor molecule, acceptor atom, score
      L1  H     4    45       P1  7921  0.44
      L1  H    10    35       P1  7948  0.87

> <Gold.Chemscore.Hbond.Weighted>
-6.1309

> <Gold.Chemscore.Metal.Weighted>
-0.0000

> <Gold.Chemscore.Lipo.Weighted>
-11.6101

> <Gold.Chemscore.Internal_Hbond.Weighted>
0.0000

> <Gold.Chemscore.DEClash.Weighted>
0.1460

> <Gold.Chemscore.DEInternal.Weighted>
0.1702

> <Gold.Chemscore.Rot.Weighted>
3.5185

> <Gold.Chemscore.Internal.Correction.Weighted>
   9.000000E+99

> <Gold.Protein.RotatedTorsions>
[ 6907 6896 6895 6894 ] final  -55.70 input  -60.11 | X-H torsion
[ 7974 7965 7964 7962 ] final   90.82 input  175.53 | X-H torsion
[ 8008 7997 7996 7995 ] final  171.66 input   59.86 | X-H torsion
[ 10167 10162 10161 10158 ] final -160.17 input  -65.29 | X-H torsion
[ 10718 10713 10712 10709 ] final  -99.11 input   66.30 | X-H torsion
[ 10763 10752 10751 10750 ] final  121.17 input  -60.55 | X-H torsion
[ 11005 11000 10999 10996 ] final    1.55 input  -57.11 | X-H torsion

> <Gold.Protein.ActiveResidues>
 VAL166  LYS551  ARG553  GLY616  TRP617  ASP618  TYR619  PRO620  LYS621  CYS622 
 ASP623  PHE694  ASN695  SER759  ASP760  ASP761  ALA762  ILE779  LEU786  VAL792 
 PHE793  MET794  SER795  GLU796  ALA797  LYS798  CYS799  TRP800  GLU811  SER814 

> <Gold.Protein.RotatedAtoms>
  150.8229  134.7446  159.6787 H   0  0  0  0  0  0  0  0  0  0  0  0  # atno 6907 bound_to 6896
  152.4343  134.5714  159.9932 H   0  0  0  0  0  0  0  0  0  0  0  0  # atno 6908 bound_to 6896
  151.5893  133.3331  159.3060 H   0  0  0  0  0  0  0  0  0  0  0  0  # atno 6909 bound_to 6896
  145.5140  139.2277  143.2709 H   0  0  0  0  0  0  0  0  0  0  0  0  # atno 7974 bound_to 7965
  156.1249  140.1506  156.9150 H   0  0  0  0  0  0  0  0  0  0  0  0  # atno 8008 bound_to 7997
  154.4864  140.0864  156.7537 H   0  0  0  0  0  0  0  0  0  0  0  0  # atno 8009 bound_to 7997
  155.4361  140.3429  155.4287 H   0  0  0  0  0  0  0  0  0  0  0  0  # atno 8010 bound_to 7997
  139.6559  143.9999  152.2194 H   0  0  0  0  0  0  0  0  0  0  0  0  # atno 10167 bound_to 10162
  156.0125  130.5268  150.6622 H   0  0  0  0  0  0  0  0  0  0  0  0  # atno 10718 bound_to 10713
  153.6100  135.3432  155.2975 H   0  0  0  0  0  0  0  0  0  0  0  0  # atno 10763 bound_to 10752
  154.8620  135.4248  154.2320 H   0  0  0  0  0  0  0  0  0  0  0  0  # atno 10764 bound_to 10752
  153.3169  135.7035  153.7138 H   0  0  0  0  0  0  0  0  0  0  0  0  # atno 10765 bound_to 10752
  140.6142  133.9720  155.8192 H   0  0  0  0  0  0  0  0  0  0  0  0  # atno 11005 bound_to 11000
  146.2149  140.5948  142.9043 LP  0  0  0  0  0  0  0  0  0  0  0  0  # atno 17320 bound_to 7965
  144.7712  140.5641  143.6669 LP  0  0  0  0  0  0  0  0  0  0  0  0  # atno 17321 bound_to 7965
  139.9725  144.6484  150.7975 LP  0  0  0  0  0  0  0  0  0  0  0  0  # atno 17342 bound_to 10162
  140.7559  143.3055  151.2973 LP  0  0  0  0  0  0  0  0  0  0  0  0  # atno 17343 bound_to 10162
  157.4362  131.0855  151.0990 LP  0  0  0  0  0  0  0  0  0  0  0  0  # atno 17370 bound_to 10713
  157.1547  130.6199  149.5593 LP  0  0  0  0  0  0  0  0  0  0  0  0  # atno 17371 bound_to 10713
  141.0787  134.0096  157.3419 LP  0  0  0  0  0  0  0  0  0  0  0  0  # atno 17394 bound_to 11000
  139.9179  135.0198  156.7954 LP  0  0  0  0  0  0  0  0  0  0  0  0  # atno 17395 bound_to 11000

$$$$
