AV-unprocessed.smi:435|AV-procd|sdf|2556|dock9
  -GOLD-   2262022523D 1   1.00000     0.00000
 Structure written by MMmdl.
 44 45  0  0  0  0  0  0  0  0  1 V2000
  145.3548  144.4578  153.1086 C   0  0  0  0  0  0  0  0  0  0  0  0
  145.8539  143.4795  154.1376 C   0  0  0  0  0  0  0  0  0  0  0  0
  146.7971  142.6779  153.7657 N   0  0  0  0  0  0  0  0  0  0  0  0
  147.3277  141.7406  154.6307 N   0  0  0  0  0  0  0  0  0  0  0  0
  148.4085  140.9309  154.0487 C   0  0  0  0  0  0  0  0  0  0  0  0
  149.7129  140.9811  154.8582 C   0  0  0  0  0  0  0  0  0  0  0  0
  150.5445  140.0762  154.7733 O   0  0  0  0  0  0  0  0  0  0  0  0
  149.8656  142.0473  155.6582 N   0  0  0  0  0  0  0  0  0  0  0  0
  151.0227  142.3066  156.5094 C   0  0  2  0  0  0  0  0  0  0  0  0
  151.1910  141.1897  157.5593 C   0  0  0  0  0  0  0  0  0  0  0  0
  152.3580  141.4878  158.5146 C   0  0  0  0  0  0  0  0  0  0  0  0
  152.1936  142.8559  159.2033 C   0  0  1  0  0  0  0  0  0  0  0  0
  153.3629  143.1508  160.1533 C   0  0  0  0  0  0  0  0  0  0  0  0
  152.0284  143.9685  158.1506 C   0  0  0  0  0  0  0  0  0  0  0  0
  150.8604  143.6750  157.1954 C   0  0  0  0  0  0  0  0  0  0  0  0
  146.9163  141.5509  155.9178 C   0  0  0  0  0  0  0  0  0  0  0  0
  147.4053  140.6887  156.6494 O   0  0  0  0  0  0  0  0  0  0  0  0
  145.8514  142.4661  156.3340 C   0  0  0  0  0  0  0  0  0  0  0  0
  145.3971  142.3077  157.6778 C   0  0  0  0  0  0  0  0  0  0  0  0
  145.0483  142.1788  158.7741 N   0  0  0  0  0  0  0  0  0  0  0  0
  145.3327  143.4006  155.4988 C   0  0  0  0  0  0  0  0  0  0  0  0
  144.2252  144.3718  155.8844 C   0  0  0  0  0  0  0  0  0  0  0  0
  144.2714  144.3954  153.0061 H   0  0  0  0  0  0  0  0  0  0  0  0
  145.7878  144.2694  152.1251 H   0  0  0  0  0  0  0  0  0  0  0  0
  145.6101  145.4789  153.3916 H   0  0  0  0  0  0  0  0  0  0  0  0
  148.0816  139.8942  153.9473 H   0  0  0  0  0  0  0  0  0  0  0  0
  148.6294  141.2677  153.0344 H   0  0  0  0  0  0  0  0  0  0  0  0
  149.1286  142.7376  155.6714 H   0  0  0  0  0  0  0  0  0  0  0  0
  151.9186  142.3444  155.8867 H   0  0  0  0  0  0  0  0  0  0  0  0
  150.2709  141.0816  158.1352 H   0  0  0  0  0  0  0  0  0  0  0  0
  151.3610  140.2311  157.0677 H   0  0  0  0  0  0  0  0  0  0  0  0
  152.4259  140.6985  159.2641 H   0  0  0  0  0  0  0  0  0  0  0  0
  153.2958  141.4651  157.9578 H   0  0  0  0  0  0  0  0  0  0  0  0
  151.2833  142.8231  159.8037 H   0  0  0  0  0  0  0  0  0  0  0  0
  154.3096  143.1992  159.6146 H   0  0  0  0  0  0  0  0  0  0  0  0
  153.4536  142.3775  160.9168 H   0  0  0  0  0  0  0  0  0  0  0  0
  153.2219  144.1031  160.6650 H   0  0  0  0  0  0  0  0  0  0  0  0
  151.8635  144.9271  158.6437 H   0  0  0  0  0  0  0  0  0  0  0  0
  152.9495  144.0723  157.5753 H   0  0  0  0  0  0  0  0  0  0  0  0
  150.7949  144.4636  156.4448 H   0  0  0  0  0  0  0  0  0  0  0  0
  149.9233  143.7012  157.7535 H   0  0  0  0  0  0  0  0  0  0  0  0
  144.0153  144.3517  156.9535 H   0  0  0  0  0  0  0  0  0  0  0  0
  143.3029  144.1216  155.3599 H   0  0  0  0  0  0  0  0  0  0  0  0
  144.4991  145.3960  155.6302 H   0  0  0  0  0  0  0  0  0  0  0  0
  1  2  1  0  0  0  0
  1 23  1  0  0  0  0
  1 24  1  0  0  0  0
  1 25  1  0  0  0  0
  2 21  1  0  0  0  0
  2  3  2  0  0  0  0
  3  4  1  0  0  0  0
  4  5  1  0  0  0  0
  4 16  1  0  0  0  0
  5  6  1  0  0  0  0
  5 26  1  0  0  0  0
  5 27  1  0  0  0  0
  6  7  2  0  0  0  0
  6  8  1  0  0  0  0
  8  9  1  0  0  0  0
  8 28  1  0  0  0  0
  9 15  1  0  0  0  0
  9 10  1  0  0  0  0
  9 29  1  0  0  0  0
 10 11  1  0  0  0  0
 10 30  1  0  0  0  0
 10 31  1  0  0  0  0
 11 12  1  0  0  0  0
 11 32  1  0  0  0  0
 11 33  1  0  0  0  0
 12 13  1  0  0  0  0
 12 14  1  0  0  0  0
 12 34  1  0  0  0  0
 13 35  1  0  0  0  0
 13 36  1  0  0  0  0
 13 37  1  0  0  0  0
 14 15  1  0  0  0  0
 14 38  1  0  0  0  0
 14 39  1  0  0  0  0
 15 40  1  0  0  0  0
 15 41  1  0  0  0  0
 16 17  2  0  0  0  0
 16 18  1  0  0  0  0
 18 19  1  0  0  0  0
 18 21  2  0  0  0  0
 19 20  3  0  0  0  0
 21 22  1  0  0  0  0
 22 42  1  0  0  0  0
 22 43  1  0  0  0  0
 22 44  1  0  0  0  0
M  END
> <s_m_source_file>
AV-unprocessed.smi

> <i_m_source_file_index>
435

> <i_lp_mmshare_version>
43012

> <i_f3d_flags>
0

> <s_epik_input>
TiNDYyhjMVtDSDNdKWMoPU8pbihuYzFbQ0gzXSlbQ0gyXUMoPU8pW05IXVtDQEBIXTJbQ0gyXVtDSDJdW0NAQEhdKFtDSDNdKVtDSDJdW0NIMl0y

> <s_epik_cmdline>
J2VwaWtfcHl0aG9uJywgJy1waCcsICc3LjAnLCAnLXRuJywgJzgnLCAnLW1hJywgJzIwMCcsICctbWV0YWxfYmluZGluZycsICctaW1hZScsICc8aW5maWxlLm1hZT4nLCAnLW9tYWUnLCAnPG91dGZpbGUubWFlPic=

> <r_lp_tautomer_probability>
1

> <r_epik_Ionization_Penalty>
1.90703e-08

> <r_epik_Ionization_Penalty_Charging>
2.32563e-11

> <r_epik_Ionization_Penalty_Neutral>
1.90471e-08

> <r_epik_State_Penalty>
-0

> <r_epik_Charging_Adjusted_Penalty>
2.32563e-11

> <i_epik_Tot_Q>
0

> <i_epik_Tot_abs_Q>
0

> <r_epik_Metal_State_Penalty>
-0

> <b_epik_Metal_Only>
0

> <s_lp_Force_Field>
OPLS_2005

> <r_lp_Energy>
23.1706

> <b_lp_Chiralities_Consistent>
1

> <s_lp_Variant>
AV-unprocessed.smi:435-1

> <Gold.Version>
5.8.1

> <Gold.Id.Protein>
6NUR|6NUR_protein|mol2

> <Gold.PLP.Fitness>
44.8734

> <Gold.PLP.PLP>
-40.3690

> <Gold.PLP.part.hbond>
-2.0000

> <Gold.PLP.part.metal>
0.0000

> <Gold.PLP.part.buried>
-1.2594

> <Gold.PLP.part.nonpolar>
-35.7940

> <Gold.PLP.part.repulsive>
0.4383

> <Gold.PLP.ligand.clash>
0.0000

> <Gold.PLP.ligand.torsion>
0.3509

> <Gold.PLP.Chemscore.Hbond>
1.7340

> <Gold.PLP.Chemscore.CHOScore>
0.0000

> <Gold.PLP.Chemscore.Metal>
0.0000

> <Gold.Chemscore.Hbonds>
donor molecule, donor type, donor heavy atom, donor atom, acceptor molecule, acceptor atom, score
      L1  H     8    28       P1  8028  0.82
      P1  H  7989  7998       L1     7  0.85

> <Gold.PLP.Chemscore.Internal.Correction>
0.0041

> <Gold.Rescore>
     Score         DG    S(hbond)    S(metal)    S(lipo)     H(rot)  DE(clash)    DE(int)     intcor
     15.23     -17.40       1.29        0.00      97.10       1.46       1.86       0.31       ----

> <Gold.Chemscore.Fitness>
15.2284

> <Gold.Chemscore.DG>
-17.4019

> <Gold.Chemscore.ZeroCoef>
-5.4800

> <Gold.Chemscore.Hbond>
1.2883

> <Gold.Chemscore.Metal>
0.0000

> <Gold.Chemscore.Lipo>
97.0970

> <Gold.Chemscore.Internal_Hbond>
0.0000

> <Gold.Chemscore.DEClash>
1.8637

> <Gold.Chemscore.DEInternal>
0.3098

> <Gold.Chemscore.Rot>
1.4615

> <Gold.Chemscore.Internal.Correction>
   9.000000E+99

> <Gold.Chemscore.Hbonds>
donor molecule, donor type, donor heavy atom, donor atom, acceptor molecule, acceptor atom, score
      L1  H     8    28       P1  8028  0.77
      P1  H  7989  7998       L1     7  0.15

> <Gold.Chemscore.Hbond.Weighted>
-4.3029

> <Gold.Chemscore.Metal.Weighted>
-0.0000

> <Gold.Chemscore.Lipo.Weighted>
-11.3604

> <Gold.Chemscore.Internal_Hbond.Weighted>
0.0000

> <Gold.Chemscore.DEClash.Weighted>
1.8637

> <Gold.Chemscore.DEInternal.Weighted>
0.3098

> <Gold.Chemscore.Rot.Weighted>
3.7414

> <Gold.Chemscore.Internal.Correction.Weighted>
   9.000000E+99

> <Gold.Protein.RotatedTorsions>
[ 6907 6896 6895 6894 ] final   91.29 input  -60.11 | X-H torsion
[ 7974 7965 7964 7962 ] final -168.45 input  175.53 | X-H torsion
[ 8008 7997 7996 7995 ] final  109.89 input   59.86 | X-H torsion
[ 10167 10162 10161 10158 ] final  -64.19 input  -65.29 | X-H torsion
[ 10718 10713 10712 10709 ] final -157.43 input   66.30 | X-H torsion
[ 10763 10752 10751 10750 ] final   28.45 input  -60.55 | X-H torsion
[ 11005 11000 10999 10996 ] final  -82.37 input  -57.11 | X-H torsion

> <Gold.Protein.ActiveResidues>
 VAL166  LYS551  ARG553  GLY616  TRP617  ASP618  TYR619  PRO620  LYS621  CYS622 
 ASP623  PHE694  ASN695  SER759  ASP760  ASP761  ALA762  ILE779  LEU786  VAL792 
 PHE793  MET794  SER795  GLU796  ALA797  LYS798  CYS799  TRP800  GLU811  SER814 

> <Gold.Protein.RotatedAtoms>
  152.5449  134.1680  159.8584 H   0  0  0  0  0  0  0  0  0  0  0  0  # atno 6907 bound_to 6896
  151.1692  133.4788  159.2601 H   0  0  0  0  0  0  0  0  0  0  0  0  # atno 6908 bound_to 6896
  151.1292  135.0132  159.8630 H   0  0  0  0  0  0  0  0  0  0  0  0  # atno 6909 bound_to 6896
  144.7203  140.2368  143.6297 H   0  0  0  0  0  0  0  0  0  0  0  0  # atno 7974 bound_to 7965
  156.2013  140.3049  155.9532 H   0  0  0  0  0  0  0  0  0  0  0  0  # atno 8008 bound_to 7997
  155.2947  140.0443  157.3042 H   0  0  0  0  0  0  0  0  0  0  0  0  # atno 8009 bound_to 7997
  154.5574  140.2310  155.8397 H   0  0  0  0  0  0  0  0  0  0  0  0  # atno 8010 bound_to 7997
  140.5818  143.2328  151.6326 H   0  0  0  0  0  0  0  0  0  0  0  0  # atno 10167 bound_to 10162
  156.5402  130.8560  151.2746 H   0  0  0  0  0  0  0  0  0  0  0  0  # atno 10718 bound_to 10713
  153.0491  135.6513  154.0740 H   0  0  0  0  0  0  0  0  0  0  0  0  # atno 10763 bound_to 10752
  154.0432  135.2901  155.3353 H   0  0  0  0  0  0  0  0  0  0  0  0  # atno 10764 bound_to 10752
  154.6768  135.5335  153.8276 H   0  0  0  0  0  0  0  0  0  0  0  0  # atno 10765 bound_to 10752
  141.1663  133.7241  156.8562 H   0  0  0  0  0  0  0  0  0  0  0  0  # atno 11005 bound_to 11000
  145.8358  139.2107  143.1856 LP  0  0  0  0  0  0  0  0  0  0  0  0  # atno 17320 bound_to 7965
  146.0390  140.8183  142.9838 LP  0  0  0  0  0  0  0  0  0  0  0  0  # atno 17321 bound_to 7965
  139.5174  144.3316  152.0821 LP  0  0  0  0  0  0  0  0  0  0  0  0  # atno 17342 bound_to 10162
  140.2467  144.4212  150.6238 LP  0  0  0  0  0  0  0  0  0  0  0  0  # atno 17343 bound_to 10162
  157.7406  130.9854  150.2392 LP  0  0  0  0  0  0  0  0  0  0  0  0  # atno 17370 bound_to 10713
  156.2979  130.3754  149.7779 LP  0  0  0  0  0  0  0  0  0  0  0  0  # atno 17371 bound_to 10713
  140.1881  134.8985  157.3028 LP  0  0  0  0  0  0  0  0  0  0  0  0  # atno 17394 bound_to 11000
  140.2321  134.3897  155.7517 LP  0  0  0  0  0  0  0  0  0  0  0  0  # atno 17395 bound_to 11000

$$$$
