AV-unprocessed.smi:2624|AV-procd|sdf|10233|dock2
  -GOLD-   2272014243D 1   1.00000     0.00000
 Structure written by MMmdl.
 39 40  0  0  0  0  0  0  0  0  1 V2000
  147.5288  142.0157  154.3509 C   0  0  0  0  0  0  0  0  0  0  0  0
  148.8495  141.5495  154.1365 O   0  0  0  0  0  0  0  0  0  0  0  0
  149.5838  141.4256  155.3423 C   0  0  0  0  0  0  0  0  0  0  0  0
  150.5341  140.2250  155.2228 C   0  0  0  0  0  0  0  0  0  0  0  0
  150.8804  139.6795  156.5420 N   0  0  0  0  0  0  0  0  0  0  0  0
  151.9418  140.3000  157.2289 C   0  0  0  0  0  0  0  0  0  0  0  0
  152.3437  139.8914  158.4469 C   0  0  0  0  0  0  0  0  0  0  0  0
  153.4640  140.5734  159.1383 C   0  0  0  0  0  0  0  0  0  0  0  0
  154.6222  140.1706  159.0218 O   0  0  0  0  0  0  0  0  0  0  0  0
  153.1567  141.7519  160.0005 C   0  0  0  0  0  0  0  0  0  0  0  0
  152.3291  142.7644  159.4644 C   0  0  0  0  0  0  0  0  0  0  0  0
  152.0106  143.9113  160.2188 C   0  0  0  0  0  0  0  0  0  0  0  0
  151.1330  144.9909  159.6200 C   0  0  0  0  0  0  0  0  0  0  0  0
  152.5172  144.0509  161.5253 C   0  0  0  0  0  0  0  0  0  0  0  0
  153.3286  143.0423  162.0762 C   0  0  0  0  0  0  0  0  0  0  0  0
  153.6477  141.8921  161.3268 C   0  0  0  0  0  0  0  0  0  0  0  0
  154.4077  140.9249  161.9245 O   0  0  0  0  0  0  0  0  0  0  0  0
  151.6549  138.7619  159.0400 C   0  0  0  0  0  0  0  0  0  0  0  0
  150.6444  138.1582  158.3838 C   0  0  0  0  0  0  0  0  0  0  0  0
  149.9559  137.0446  158.9475 C   0  0  0  0  0  0  0  0  0  0  0  0
  149.4192  136.1301  159.4116 N   0  0  0  0  0  0  0  0  0  0  0  0
  150.2026  138.6087  157.0564 C   0  0  0  0  0  0  0  0  0  0  0  0
  149.2866  138.0618  156.4397 O   0  0  0  0  0  0  0  0  0  0  0  0
  147.0067  142.0893  153.3970 H   0  0  0  0  0  0  0  0  0  0  0  0
  147.5296  143.0047  154.8109 H   0  0  0  0  0  0  0  0  0  0  0  0
  146.9677  141.3324  154.9895 H   0  0  0  0  0  0  0  0  0  0  0  0
  150.1484  142.3407  155.5284 H   0  0  0  0  0  0  0  0  0  0  0  0
  148.9007  141.2820  156.1813 H   0  0  0  0  0  0  0  0  0  0  0  0
  150.0694  139.4539  154.6066 H   0  0  0  0  0  0  0  0  0  0  0  0
  151.4342  140.5157  154.6782 H   0  0  0  0  0  0  0  0  0  0  0  0
  152.3979  141.1262  156.7011 H   0  0  0  0  0  0  0  0  0  0  0  0
  151.9409  142.6704  158.4597 H   0  0  0  0  0  0  0  0  0  0  0  0
  150.7101  145.6306  160.3952 H   0  0  0  0  0  0  0  0  0  0  0  0
  150.3083  144.5483  159.0605 H   0  0  0  0  0  0  0  0  0  0  0  0
  151.7148  145.6141  158.9405 H   0  0  0  0  0  0  0  0  0  0  0  0
  152.2808  144.9270  162.1113 H   0  0  0  0  0  0  0  0  0  0  0  0
  153.7010  143.1519  163.0846 H   0  0  0  0  0  0  0  0  0  0  0  0
  154.1129  140.0486  161.7291 H   0  0  0  0  0  0  0  0  0  0  0  0
  151.9495  138.3889  160.0104 H   0  0  0  0  0  0  0  0  0  0  0  0
  1  2  1  0  0  0  0
  1 24  1  0  0  0  0
  1 25  1  0  0  0  0
  1 26  1  0  0  0  0
  2  3  1  0  0  0  0
  3  4  1  0  0  0  0
  3 27  1  0  0  0  0
  3 28  1  0  0  0  0
  4  5  1  0  0  0  0
  4 29  1  0  0  0  0
  4 30  1  0  0  0  0
  5 22  1  0  0  0  0
  5  6  1  0  0  0  0
  6  7  2  0  0  0  0
  6 31  1  0  0  0  0
  7  8  1  0  0  0  0
  7 18  1  0  0  0  0
  8  9  2  0  0  0  0
  8 10  1  0  0  0  0
 10 16  1  0  0  0  0
 10 11  2  0  0  0  0
 11 12  1  0  0  0  0
 11 32  1  0  0  0  0
 12 13  1  0  0  0  0
 12 14  2  0  0  0  0
 13 33  1  0  0  0  0
 13 34  1  0  0  0  0
 13 35  1  0  0  0  0
 14 15  1  0  0  0  0
 14 36  1  0  0  0  0
 15 16  2  0  0  0  0
 15 37  1  0  0  0  0
 16 17  1  0  0  0  0
 17 38  1  0  0  0  0
 18 19  2  0  0  0  0
 18 39  1  0  0  0  0
 19 20  1  0  0  0  0
 19 22  1  0  0  0  0
 20 21  3  0  0  0  0
 22 23  2  0  0  0  0
M  END
> <s_m_source_file>
AV-unprocessed.smi

> <i_m_source_file_index>
2624

> <i_lp_mmshare_version>
43012

> <i_f3d_flags>
0

> <s_epik_input>
W0NIM11PW0NIMl1bQ0gyXW4xW2NIXWMoW2NIXWMoQyNOKWMxPU8pQyg9TyljMltjSF1jKFtDSDNdKVtjSF1bY0hdYzJbT0hd

> <s_epik_cmdline>
J2VwaWtfcHl0aG9uJywgJy1waCcsICc3LjAnLCAnLXRuJywgJzgnLCAnLW1hJywgJzIwMCcsICctbWV0YWxfYmluZGluZycsICctaW1hZScsICc8aW5maWxlLm1hZT4nLCAnLW9tYWUnLCAnPG91dGZpbGUubWFlPic=

> <r_epik_Ionization_Penalty>
0.124493

> <r_epik_Ionization_Penalty_Charging>
5.62591e-11

> <r_epik_Ionization_Penalty_Neutral>
0.124493

> <r_epik_State_Penalty>
0.113971

> <r_epik_Charging_Adjusted_Penalty>
0.113971

> <i_epik_Tot_Q>
0

> <i_epik_Tot_abs_Q>
0

> <r_epik_Metal_State_Penalty>
0.113971

> <b_epik_Metal_Only>
0

> <s_lp_Force_Field>
OPLS_2005

> <r_lp_Energy>
23.5595

> <b_lp_Chiralities_Consistent>
1

> <s_lp_Variant>
AV-unprocessed.smi:2624-1

> <Gold.Version>
5.8.1

> <Gold.Id.Protein>
6NUR|6NUR_protein|mol2

> <Gold.PLP.Fitness>
53.6024

> <Gold.PLP.PLP>
-49.8968

> <Gold.PLP.part.hbond>
-3.6980

> <Gold.PLP.part.metal>
0.0000

> <Gold.PLP.part.buried>
-4.7400

> <Gold.PLP.part.nonpolar>
-41.2440

> <Gold.PLP.part.repulsive>
0.1973

> <Gold.PLP.ligand.clash>
0.0000

> <Gold.PLP.ligand.torsion>
3.0415

> <Gold.PLP.Chemscore.Hbond>
2.6880

> <Gold.PLP.Chemscore.CHOScore>
0.0000

> <Gold.PLP.Chemscore.Metal>
0.0000

> <Gold.Chemscore.Hbonds>
donor molecule, donor type, donor heavy atom, donor atom, acceptor molecule, acceptor atom, score
      P1  H  6896  6907       L1    21  1.00
      P1  H  7997  8010       L1     9  0.93
      P1  H  8011  8017       L1     2  0.34

> <Gold.PLP.Chemscore.Internal.Correction>
1.7246

> <Gold.Rescore>
     Score         DG    S(hbond)    S(metal)    S(lipo)     H(rot)  DE(clash)    DE(int)     intcor
     16.03     -19.24       1.65        0.00     112.81       1.94       0.08       3.13       ----

> <Gold.Chemscore.Fitness>
16.0297

> <Gold.Chemscore.DG>
-19.2376

> <Gold.Chemscore.ZeroCoef>
-5.4800

> <Gold.Chemscore.Hbond>
1.6547

> <Gold.Chemscore.Metal>
0.0000

> <Gold.Chemscore.Lipo>
112.8133

> <Gold.Chemscore.Internal_Hbond>
0.0000

> <Gold.Chemscore.DEClash>
0.0820

> <Gold.Chemscore.DEInternal>
3.1258

> <Gold.Chemscore.Rot>
1.9407

> <Gold.Chemscore.Internal.Correction>
   9.000000E+99

> <Gold.Chemscore.Hbonds>
donor molecule, donor type, donor heavy atom, donor atom, acceptor molecule, acceptor atom, score
      P1  H  6896  6907       L1    21  0.55
      P1  H  7997  8010       L1     9  0.67
      P1  H  8011  8017       L1     2  0.29

> <Gold.Chemscore.Hbond.Weighted>
-5.5267

> <Gold.Chemscore.Metal.Weighted>
-0.0000

> <Gold.Chemscore.Lipo.Weighted>
-13.1992

> <Gold.Chemscore.Internal_Hbond.Weighted>
0.0000

> <Gold.Chemscore.DEClash.Weighted>
0.0820

> <Gold.Chemscore.DEInternal.Weighted>
3.1258

> <Gold.Chemscore.Rot.Weighted>
4.9682

> <Gold.Chemscore.Internal.Correction.Weighted>
   9.000000E+99

> <Gold.Protein.RotatedTorsions>
[ 6907 6896 6895 6894 ] final  -56.05 input  -60.11 | X-H torsion
[ 7974 7965 7964 7962 ] final   51.35 input  175.53 | X-H torsion
[ 8008 7997 7996 7995 ] final    4.95 input   59.86 | X-H torsion
[ 10167 10162 10161 10158 ] final -162.36 input  -65.29 | X-H torsion
[ 10718 10713 10712 10709 ] final  -76.02 input   66.30 | X-H torsion
[ 10763 10752 10751 10750 ] final  122.51 input  -60.55 | X-H torsion
[ 11005 11000 10999 10996 ] final -167.98 input  -57.11 | X-H torsion

> <Gold.Protein.ActiveResidues>
 VAL166  LYS551  ARG553  GLY616  TRP617  ASP618  TYR619  PRO620  LYS621  CYS622 
 ASP623  PHE694  ASN695  SER759  ASP760  ASP761  ALA762  ILE779  LEU786  VAL792 
 PHE793  MET794  SER795  GLU796  ALA797  LYS798  CYS799  TRP800  GLU811  SER814 

> <Gold.Protein.RotatedAtoms>
  150.8200  134.7402  159.6763 H   0  0  0  0  0  0  0  0  0  0  0  0  # atno 6907 bound_to 6896
  152.4316  134.5763  159.9945 H   0  0  0  0  0  0  0  0  0  0  0  0  # atno 6908 bound_to 6896
  151.5950  133.3325  159.3071 H   0  0  0  0  0  0  0  0  0  0  0  0  # atno 6909 bound_to 6896
  145.9921  139.4350  143.0067 H   0  0  0  0  0  0  0  0  0  0  0  0  # atno 7974 bound_to 7965
  154.7223  140.2714  155.6530 H   0  0  0  0  0  0  0  0  0  0  0  0  # atno 8008 bound_to 7997
  156.2827  140.2732  156.1823 H   0  0  0  0  0  0  0  0  0  0  0  0  # atno 8009 bound_to 7997
  155.0491  140.0371  157.2527 H   0  0  0  0  0  0  0  0  0  0  0  0  # atno 8010 bound_to 7997
  139.6398  144.0281  152.2083 H   0  0  0  0  0  0  0  0  0  0  0  0  # atno 10167 bound_to 10162
  156.0188  130.4455  150.3131 H   0  0  0  0  0  0  0  0  0  0  0  0  # atno 10718 bound_to 10713
  153.6310  135.3396  155.3041 H   0  0  0  0  0  0  0  0  0  0  0  0  # atno 10763 bound_to 10752
  154.8580  135.4295  154.2106 H   0  0  0  0  0  0  0  0  0  0  0  0  # atno 10764 bound_to 10752
  153.3002  135.7024  153.7284 H   0  0  0  0  0  0  0  0  0  0  0  0  # atno 10765 bound_to 10752
  140.5472  134.5464  157.5114 H   0  0  0  0  0  0  0  0  0  0  0  0  # atno 11005 bound_to 11000
  145.7614  140.9934  143.1198 LP  0  0  0  0  0  0  0  0  0  0  0  0  # atno 17320 bound_to 7965
  144.6892  139.9334  143.7472 LP  0  0  0  0  0  0  0  0  0  0  0  0  # atno 17321 bound_to 7965
  139.9968  144.6322  150.7765 LP  0  0  0  0  0  0  0  0  0  0  0  0  # atno 17342 bound_to 10162
  140.7485  143.2923  151.3298 LP  0  0  0  0  0  0  0  0  0  0  0  0  # atno 17343 bound_to 10162
  157.1232  131.0252  151.3000 LP  0  0  0  0  0  0  0  0  0  0  0  0  # atno 17370 bound_to 10713
  157.4611  130.7654  149.7237 LP  0  0  0  0  0  0  0  0  0  0  0  0  # atno 17371 bound_to 10713
  139.9473  134.7678  156.0530 LP  0  0  0  0  0  0  0  0  0  0  0  0  # atno 17394 bound_to 11000
  141.1193  133.6618  156.3173 LP  0  0  0  0  0  0  0  0  0  0  0  0  # atno 17395 bound_to 11000

$$$$
