AV-unprocessed.smi:876|AV-procd|sdf|4019|dock8
  -GOLD-   22720 1503D 1   1.00000     0.00000
 Structure written by MMmdl.
 41 42  0  0  0  0  0  0  0  0  2 V2000
  152.0517  142.2651  158.9102 C   0  0  0  0  0  0  0  0  0  0  0  0
  151.5964  142.6945  157.5944 N   0  0  0  0  0  0  0  0  0  0  0  0
  151.6845  144.0979  157.2062 C   0  0  0  0  0  0  0  0  0  0  0  0
  151.0402  141.7530  156.7015 C   0  0  0  0  0  0  0  0  0  0  0  0
  151.4825  140.4101  156.6152 C   0  0  0  0  0  0  0  0  0  0  0  0
  150.8773  139.5259  155.6983 C   0  0  0  0  0  0  0  0  0  0  0  0
  149.8219  139.9875  154.8742 C   0  0  0  0  0  0  0  0  0  0  0  0
  149.1549  139.1872  153.9074 N   0  0  0  0  0  0  0  0  0  0  0  0
  147.8660  139.2316  153.5278 C   0  0  0  0  0  0  0  0  0  0  0  0
  147.0250  140.0219  153.9554 O   0  0  0  0  0  0  0  0  0  0  0  0
  147.6027  138.3072  152.5936 N   0  0  0  0  0  0  0  0  0  0  0  0
  146.3012  138.1052  151.9664 C   0  0  2  0  0  0  0  0  0  0  0  0
  145.2598  137.7818  153.0024 C   0  0  0  0  0  0  0  0  0  0  0  0
  144.6154  136.6457  152.7457 C   0  0  0  0  0  0  0  0  0  0  0  0
  145.0988  135.9703  151.4877 C   0  0  2  0  0  0  0  0  0  0  0  0
  145.5134  134.5060  151.7132 C   0  0  0  0  0  0  0  0  0  0  0  0
  145.3848  133.7629  150.5190 O   0  0  0  0  0  0  0  0  0  0  0  0
  146.2709  136.8727  151.0242 C   0  0  0  0  0  0  0  0  0  0  0  0
  149.4296  141.3361  154.9891 C   0  0  0  0  0  0  0  0  0  0  0  0
  150.0364  142.1484  155.8808 N   0  3  0  0  0  0  0  0  0  0  0  0
  145.9896  139.0081  151.4385 H   0  0  0  0  0  0  0  0  0  0  0  0
  144.2935  136.0155  150.7531 H   0  0  0  0  0  0  0  0  0  0  0  0
  152.8466  141.5244  158.8183 H   0  0  0  0  0  0  0  0  0  0  0  0
  151.2295  141.8267  159.4764 H   0  0  0  0  0  0  0  0  0  0  0  0
  152.4431  143.1029  159.4872 H   0  0  0  0  0  0  0  0  0  0  0  0
  150.6924  144.5015  156.9996 H   0  0  0  0  0  0  0  0  0  0  0  0
  152.2990  144.2109  156.3123 H   0  0  0  0  0  0  0  0  0  0  0  0
  152.1321  144.7009  157.9964 H   0  0  0  0  0  0  0  0  0  0  0  0
  152.2844  140.0401  157.2363 H   0  0  0  0  0  0  0  0  0  0  0  0
  151.2471  138.5141  155.6392 H   0  0  0  0  0  0  0  0  0  0  0  0
  149.7407  138.5361  153.4053 H   0  0  0  0  0  0  0  0  0  0  0  0
  148.3516  137.7008  152.2926 H   0  0  0  0  0  0  0  0  0  0  0  0
  145.0640  138.4292  153.8446 H   0  0  0  0  0  0  0  0  0  0  0  0
  143.8202  136.2344  153.3500 H   0  0  0  0  0  0  0  0  0  0  0  0
  146.5520  134.4539  152.0414 H   0  0  0  0  0  0  0  0  0  0  0  0
  144.9043  134.0443  152.4915 H   0  0  0  0  0  0  0  0  0  0  0  0
  145.8172  134.2346  149.8233 H   0  0  0  0  0  0  0  0  0  0  0  0
  146.1412  137.1794  149.9858 H   0  0  0  0  0  0  0  0  0  0  0  0
  147.2139  136.3253  151.0705 H   0  0  0  0  0  0  0  0  0  0  0  0
  148.6455  141.7903  154.4007 H   0  0  0  0  0  0  0  0  0  0  0  0
  149.7204  143.1165  155.9392 H   0  0  0  0  0  0  0  0  0  0  0  0
  1  2  1  0  0  0  0
  1 23  1  0  0  0  0
  1 24  1  0  0  0  0
  1 25  1  0  0  0  0
  2  3  1  0  0  0  0
  2  4  1  0  0  0  0
  3 26  1  0  0  0  0
  3 27  1  0  0  0  0
  3 28  1  0  0  0  0
  4 20  1  0  0  0  0
  4  5  2  0  0  0  0
  5  6  1  0  0  0  0
  5 29  1  0  0  0  0
  6  7  2  0  0  0  0
  6 30  1  0  0  0  0
  7  8  1  0  0  0  0
  7 19  1  0  0  0  0
  8  9  1  0  0  0  0
  8 31  1  0  0  0  0
  9 10  2  0  0  0  0
  9 11  1  0  0  0  0
 11 12  1  0  0  0  0
 11 32  1  0  0  0  0
 12 21  1  0  0  0  0
 12 18  1  0  0  0  0
 12 13  1  0  0  0  0
 13 14  2  0  0  0  0
 13 33  1  0  0  0  0
 14 15  1  0  0  0  0
 14 34  1  0  0  0  0
 15 22  1  0  0  0  0
 15 16  1  0  0  0  0
 15 18  1  0  0  0  0
 16 17  1  0  0  0  0
 16 35  1  0  0  0  0
 16 36  1  0  0  0  0
 17 37  1  0  0  0  0
 18 38  1  0  0  0  0
 18 39  1  0  0  0  0
 19 20  2  0  0  0  0
 19 40  1  0  0  0  0
 20 41  1  0  0  0  0
M  CHG  1  20   1
M  END
> <s_m_source_file>
AV-unprocessed.smi

> <i_m_source_file_index>
876

> <i_lp_mmshare_version>
43012

> <i_f3d_flags>
0

> <s_epik_input>
W0NIM11OKFtDSDNdKWMxW2NIXVtjSF1jKFtjSF1uMSlbTkhdQyg9TylbTkhdW0NAQEhdMltDSF09W0NIXVtDQEBIXShbQ0gyXTIpW0NIMl1bT0hd

> <s_epik_cmdline>
J2VwaWtfcHl0aG9uJywgJy1waCcsICc3LjAnLCAnLXRuJywgJzgnLCAnLW1hJywgJzIwMCcsICctbWV0YWxfYmluZGluZycsICctaW1hZScsICc8aW5maWxlLm1hZT4nLCAnLW9tYWUnLCAnPG91dGZpbGUubWFlPic=

> <r_lp_tautomer_probability>
0.999994

> <r_epik_Ionization_Penalty>
0.257994

> <r_epik_Ionization_Penalty_Charging>
0.257974

> <r_epik_Ionization_Penalty_Neutral>
1.95938e-05

> <r_epik_State_Penalty>
0.249586

> <r_epik_Charging_Adjusted_Penalty>
0.50756

> <i_epik_Tot_Q>
1

> <i_epik_Tot_abs_Q>
1

> <r_epik_Metal_State_Penalty>
0.538508

> <b_epik_Metal_Only>
0

> <s_lp_Force_Field>
OPLS_2005

> <r_lp_Energy>
26.1458

> <b_lp_Chiralities_Consistent>
1

> <s_lp_Variant>
AV-unprocessed.smi:876-1

> <Gold.Version>
5.8.1

> <Gold.Id.Protein>
6NUR|6NUR_protein|mol2

> <Gold.PLP.Fitness>
48.2376

> <Gold.PLP.PLP>
-38.6846

> <Gold.PLP.part.hbond>
-5.0000

> <Gold.PLP.part.metal>
0.0000

> <Gold.PLP.part.buried>
0.6949

> <Gold.PLP.part.nonpolar>
-35.3539

> <Gold.PLP.part.repulsive>
0.4272

> <Gold.PLP.ligand.clash>
0.0000

> <Gold.PLP.ligand.torsion>
1.0536

> <Gold.PLP.Chemscore.Hbond>
3.8806

> <Gold.PLP.Chemscore.CHOScore>
0.0000

> <Gold.PLP.Chemscore.Metal>
0.0000

> <Gold.Chemscore.Hbonds>
donor molecule, donor type, donor heavy atom, donor atom, acceptor molecule, acceptor atom, score
      L1  H    11    32       P1  7948  1.00
      L1  H    17    37       P1  7921  0.37
      L1  H    20    41       P1  8028  2.00

> <Gold.PLP.Chemscore.Internal.Correction>
0.0184

> <Gold.Rescore>
     Score         DG    S(hbond)    S(metal)    S(lipo)     H(rot)  DE(clash)    DE(int)     intcor
     15.07     -19.84       2.74        0.00      84.48       1.82       1.31       3.46       ----

> <Gold.Chemscore.Fitness>
15.0702

> <Gold.Chemscore.DG>
-19.8413

> <Gold.Chemscore.ZeroCoef>
-5.4800

> <Gold.Chemscore.Hbond>
2.7351

> <Gold.Chemscore.Metal>
0.0000

> <Gold.Chemscore.Lipo>
84.4831

> <Gold.Chemscore.Internal_Hbond>
0.0000

> <Gold.Chemscore.DEClash>
1.3126

> <Gold.Chemscore.DEInternal>
3.4586

> <Gold.Chemscore.Rot>
1.8197

> <Gold.Chemscore.Internal.Correction>
   9.000000E+99

> <Gold.Chemscore.Hbonds>
donor molecule, donor type, donor heavy atom, donor atom, acceptor molecule, acceptor atom, score
      L1  H    11    32       P1  7948  0.97
      L1  H    17    37       P1  7921  0.20
      L1  H    20    41       P1  8028  1.00

> <Gold.Chemscore.Hbond.Weighted>
-9.1353

> <Gold.Chemscore.Metal.Weighted>
-0.0000

> <Gold.Chemscore.Lipo.Weighted>
-9.8845

> <Gold.Chemscore.Internal_Hbond.Weighted>
0.0000

> <Gold.Chemscore.DEClash.Weighted>
1.3126

> <Gold.Chemscore.DEInternal.Weighted>
3.4586

> <Gold.Chemscore.Rot.Weighted>
4.6585

> <Gold.Chemscore.Internal.Correction.Weighted>
   9.000000E+99

> <Gold.Protein.RotatedTorsions>
[ 6907 6896 6895 6894 ] final  169.46 input  -60.11 | X-H torsion
[ 7974 7965 7964 7962 ] final   74.24 input  175.53 | X-H torsion
[ 8008 7997 7996 7995 ] final  -19.64 input   59.86 | X-H torsion
[ 10167 10162 10161 10158 ] final -133.61 input  -65.29 | X-H torsion
[ 10718 10713 10712 10709 ] final -141.36 input   66.30 | X-H torsion
[ 10763 10752 10751 10750 ] final  -15.51 input  -60.55 | X-H torsion
[ 11005 11000 10999 10996 ] final -130.14 input  -57.11 | X-H torsion

> <Gold.Protein.ActiveResidues>
 VAL166  LYS551  ARG553  GLY616  TRP617  ASP618  TYR619  PRO620  LYS621  CYS622 
 ASP623  PHE694  ASN695  SER759  ASP760  ASP761  ALA762  ILE779  LEU786  VAL792 
 PHE793  MET794  SER795  GLU796  ALA797  LYS798  CYS799  TRP800  GLU811  SER814 

> <Gold.Protein.RotatedAtoms>
  151.8316  133.3409  159.3614 H   0  0  0  0  0  0  0  0  0  0  0  0  # atno 6907 bound_to 6896
  150.7262  134.5478  159.5788 H   0  0  0  0  0  0  0  0  0  0  0  0  # atno 6908 bound_to 6896
  152.2932  134.7698  160.0424 H   0  0  0  0  0  0  0  0  0  0  0  0  # atno 6909 bound_to 6896
  145.7308  139.2683  143.1542 H   0  0  0  0  0  0  0  0  0  0  0  0  # atno 7974 bound_to 7965
  154.4823  140.2083  155.9736 H   0  0  0  0  0  0  0  0  0  0  0  0  # atno 8008 bound_to 7997
  156.1183  140.3217  155.8141 H   0  0  0  0  0  0  0  0  0  0  0  0  # atno 8009 bound_to 7997
  155.4513  140.0517  157.2991 H   0  0  0  0  0  0  0  0  0  0  0  0  # atno 8010 bound_to 7997
  139.8965  143.6659  152.2603 H   0  0  0  0  0  0  0  0  0  0  0  0  # atno 10167 bound_to 10162
  156.3331  130.7597  151.1719 H   0  0  0  0  0  0  0  0  0  0  0  0  # atno 10718 bound_to 10713
  153.5445  135.7012  153.5620 H   0  0  0  0  0  0  0  0  0  0  0  0  # atno 10763 bound_to 10752
  153.3571  135.3979  155.1690 H   0  0  0  0  0  0  0  0  0  0  0  0  # atno 10764 bound_to 10752
  154.8669  135.3779  154.4952 H   0  0  0  0  0  0  0  0  0  0  0  0  # atno 10765 bound_to 10752
  140.9371  134.1242  157.4183 H   0  0  0  0  0  0  0  0  0  0  0  0  # atno 11005 bound_to 11000
  146.0539  140.8040  142.9768 LP  0  0  0  0  0  0  0  0  0  0  0  0  # atno 17320 bound_to 7965
  144.6893  140.3095  143.7250 LP  0  0  0  0  0  0  0  0  0  0  0  0  # atno 17321 bound_to 7965
  139.7063  144.7627  151.1188 LP  0  0  0  0  0  0  0  0  0  0  0  0  # atno 17342 bound_to 10162
  140.7716  143.5390  150.9334 LP  0  0  0  0  0  0  0  0  0  0  0  0  # atno 17343 bound_to 10162
  157.7434  131.0475  150.4950 LP  0  0  0  0  0  0  0  0  0  0  0  0  # atno 17370 bound_to 10713
  156.5119  130.4141  149.6296 LP  0  0  0  0  0  0  0  0  0  0  0  0  # atno 17371 bound_to 10713
  139.8811  135.0024  156.6127 LP  0  0  0  0  0  0  0  0  0  0  0  0  # atno 17394 bound_to 11000
  140.7784  133.8680  155.8548 LP  0  0  0  0  0  0  0  0  0  0  0  0  # atno 17395 bound_to 11000

$$$$
