AV-unprocessed.smi:637|AV-procd|sdf|3142|dock4
  -GOLD-   22720 0 63D 1   1.00000     0.00000
 Structure written by MMmdl.
 38 40  0  0  0  0  0  0  0  0  1 V2000
  152.0305  145.1764  159.4083 C   0  0  0  0  0  0  0  0  0  0  0  0
  152.3400  143.7190  159.3506 C   0  0  0  0  0  0  0  0  0  0  0  0
  153.0346  142.9712  160.2701 C   0  0  0  0  0  0  0  0  0  0  0  0
  153.1508  141.5954  159.9107 C   0  0  0  0  0  0  0  0  0  0  0  0
  152.5371  141.3269  158.7103 C   0  0  0  0  0  0  0  0  0  0  0  0
  152.5139  139.9835  158.1556 C   0  0  0  0  0  0  0  0  0  0  0  0
  152.4936  138.8086  159.0098 C   0  0  0  0  0  0  0  0  0  0  0  0
  152.5183  137.5822  158.4447 C   0  0  0  0  0  0  0  0  0  0  0  0
  152.5674  137.4025  156.9951 C   0  0  0  0  0  0  0  0  0  0  0  0
  152.6262  136.2996  156.4526 O   0  0  0  0  0  0  0  0  0  0  0  0
  152.5580  138.5744  156.2962 N   0  0  0  0  0  0  0  0  0  0  0  0
  152.6618  138.5846  154.8306 C   0  0  0  0  0  0  0  0  0  0  0  0
  151.3310  138.2042  154.1398 C   0  0  1  0  0  0  0  0  0  0  0  0
  151.2845  136.7990  153.9992 O   0  0  0  0  0  0  0  0  0  0  0  0
  150.1116  138.7503  154.8722 C   0  0  0  0  0  0  0  0  0  0  0  0
  149.6725  138.1546  156.0754 C   0  0  0  0  0  0  0  0  0  0  0  0
  148.5767  138.6943  156.7763 C   0  0  0  0  0  0  0  0  0  0  0  0
  147.9135  139.8320  156.2782 C   0  0  0  0  0  0  0  0  0  0  0  0
  148.3455  140.4291  155.0784 C   0  0  0  0  0  0  0  0  0  0  0  0
  147.7113  141.5263  154.6019 F   0  0  0  0  0  0  0  0  0  0  0  0
  149.4406  139.8892  154.3767 C   0  0  0  0  0  0  0  0  0  0  0  0
  152.5208  139.8334  156.8702 N   0  0  0  0  0  0  0  0  0  0  0  0
  151.8058  142.7420  158.0046 S   0  0  0  0  0  0  0  0  0  0  0  0
  152.3590  145.6116  160.3524 H   0  0  0  0  0  0  0  0  0  0  0  0
  150.9580  145.3478  159.3146 H   0  0  0  0  0  0  0  0  0  0  0  0
  152.5301  145.7096  158.5993 H   0  0  0  0  0  0  0  0  0  0  0  0
  153.4584  143.3608  161.1839 H   0  0  0  0  0  0  0  0  0  0  0  0
  153.6662  140.8854  160.5418 H   0  0  0  0  0  0  0  0  0  0  0  0
  152.4602  138.9125  160.0840 H   0  0  0  0  0  0  0  0  0  0  0  0
  152.5041  136.7087  159.0797 H   0  0  0  0  0  0  0  0  0  0  0  0
  153.0021  139.5612  154.4809 H   0  0  0  0  0  0  0  0  0  0  0  0
  153.4420  137.8847  154.5243 H   0  0  0  0  0  0  0  0  0  0  0  0
  151.3333  138.6144  153.1292 H   0  0  0  0  0  0  0  0  0  0  0  0
  150.4436  136.5627  153.6383 H   0  0  0  0  0  0  0  0  0  0  0  0
  150.1848  137.2900  156.4716 H   0  0  0  0  0  0  0  0  0  0  0  0
  148.2483  138.2385  157.6985 H   0  0  0  0  0  0  0  0  0  0  0  0
  147.0754  140.2478  156.8175 H   0  0  0  0  0  0  0  0  0  0  0  0
  149.7737  140.3625  153.4646 H   0  0  0  0  0  0  0  0  0  0  0  0
  1  2  1  0  0  0  0
  1 24  1  0  0  0  0
  1 25  1  0  0  0  0
  1 26  1  0  0  0  0
  2 23  1  0  0  0  0
  2  3  2  0  0  0  0
  3  4  1  0  0  0  0
  3 27  1  0  0  0  0
  4  5  2  0  0  0  0
  4 28  1  0  0  0  0
  5  6  1  0  0  0  0
  5 23  1  0  0  0  0
  6 22  2  0  0  0  0
  6  7  1  0  0  0  0
  7  8  2  0  0  0  0
  7 29  1  0  0  0  0
  8  9  1  0  0  0  0
  8 30  1  0  0  0  0
  9 10  2  0  0  0  0
  9 11  1  0  0  0  0
 11 12  1  0  0  0  0
 11 22  1  0  0  0  0
 12 13  1  0  0  0  0
 12 31  1  0  0  0  0
 12 32  1  0  0  0  0
 13 14  1  0  0  0  0
 13 15  1  0  0  0  0
 13 33  1  0  0  0  0
 14 34  1  0  0  0  0
 15 21  1  0  0  0  0
 15 16  2  0  0  0  0
 16 17  1  0  0  0  0
 16 35  1  0  0  0  0
 17 18  2  0  0  0  0
 17 36  1  0  0  0  0
 18 19  1  0  0  0  0
 18 37  1  0  0  0  0
 19 20  1  0  0  0  0
 19 21  2  0  0  0  0
 21 38  1  0  0  0  0
M  END
> <s_m_source_file>
AV-unprocessed.smi

> <i_m_source_file_index>
637

> <i_lp_mmshare_version>
43012

> <i_f3d_flags>
0

> <s_epik_input>
W0NIM11jMVtjSF1bY0hdYyhzMSktYzJbY0hdW2NIXWMoPU8pbihuMilbQ0gyXVtDQEhdKFtPSF0pYzNbY0hdW2NIXVtjSF1jKEYpW2NIXTM=

> <s_epik_cmdline>
J2VwaWtfcHl0aG9uJywgJy1waCcsICc3LjAnLCAnLXRuJywgJzgnLCAnLW1hJywgJzIwMCcsICctbWV0YWxfYmluZGluZycsICctaW1hZScsICc8aW5maWxlLm1hZT4nLCAnLW9tYWUnLCAnPG91dGZpbGUubWFlPic=

> <r_lp_tautomer_probability>
1

> <r_epik_Ionization_Penalty>
2.26963e-07

> <r_epik_Ionization_Penalty_Charging>
5.89185e-08

> <r_epik_Ionization_Penalty_Neutral>
1.68044e-07

> <r_epik_State_Penalty>
-0

> <r_epik_Charging_Adjusted_Penalty>
5.89185e-08

> <i_epik_Tot_Q>
0

> <i_epik_Tot_abs_Q>
0

> <r_epik_Metal_State_Penalty>
-0

> <b_epik_Metal_Only>
0

> <s_lp_Force_Field>
OPLS_2005

> <r_lp_Energy>
25.403

> <b_lp_Chiralities_Consistent>
1

> <s_lp_Variant>
AV-unprocessed.smi:637-2

> <Gold.Version>
5.8.1

> <Gold.Id.Protein>
6NUR|6NUR_protein|mol2

> <Gold.PLP.Fitness>
51.9612

> <Gold.PLP.PLP>
-46.8403

> <Gold.PLP.part.hbond>
-4.3484

> <Gold.PLP.part.metal>
0.0000

> <Gold.PLP.part.buried>
-4.6739

> <Gold.PLP.part.nonpolar>
-37.6264

> <Gold.PLP.part.repulsive>
0.0000

> <Gold.PLP.ligand.clash>
0.0000

> <Gold.PLP.ligand.torsion>
1.2825

> <Gold.PLP.Chemscore.Hbond>
2.5493

> <Gold.PLP.Chemscore.CHOScore>
0.0000

> <Gold.PLP.Chemscore.Metal>
0.0000

> <Gold.Chemscore.Hbonds>
donor molecule, donor type, donor heavy atom, donor atom, acceptor molecule, acceptor atom, score
      L1  H    14    34       P1  7948  0.16
      P1  H  7997  8008       L1    22  0.55
      P1  H 10752 10763       L1    14  0.67
      P1  H 10752 10764       L1    10  0.75

> <Gold.PLP.Chemscore.Internal.Correction>
0.0378

> <Gold.Rescore>
     Score         DG    S(hbond)    S(metal)    S(lipo)     H(rot)  DE(clash)    DE(int)     intcor
     19.55     -21.41       1.94        0.00     120.50       1.82       0.14       1.72       ----

> <Gold.Chemscore.Fitness>
19.5510

> <Gold.Chemscore.DG>
-21.4098

> <Gold.Chemscore.ZeroCoef>
-5.4800

> <Gold.Chemscore.Hbond>
1.9448

> <Gold.Chemscore.Metal>
0.0000

> <Gold.Chemscore.Lipo>
120.5044

> <Gold.Chemscore.Internal_Hbond>
0.0000

> <Gold.Chemscore.DEClash>
0.1401

> <Gold.Chemscore.DEInternal>
1.7187

> <Gold.Chemscore.Rot>
1.8222

> <Gold.Chemscore.Internal.Correction>
   9.000000E+99

> <Gold.Chemscore.Hbonds>
donor molecule, donor type, donor heavy atom, donor atom, acceptor molecule, acceptor atom, score
      L1  H    14    34       P1  7948  0.01
      P1  H  7997  8008       L1    22  0.01
      P1  H 10752 10763       L1    14  0.63
      P1  H 10752 10764       L1    10  0.74

> <Gold.Chemscore.Hbond.Weighted>
-6.4957

> <Gold.Chemscore.Metal.Weighted>
-0.0000

> <Gold.Chemscore.Lipo.Weighted>
-14.0990

> <Gold.Chemscore.Internal_Hbond.Weighted>
0.0000

> <Gold.Chemscore.DEClash.Weighted>
0.1401

> <Gold.Chemscore.DEInternal.Weighted>
1.7187

> <Gold.Chemscore.Rot.Weighted>
4.6649

> <Gold.Chemscore.Internal.Correction.Weighted>
   9.000000E+99

> <Gold.Protein.RotatedTorsions>
[ 6907 6896 6895 6894 ] final   92.47 input  -60.11 | X-H torsion
[ 7974 7965 7964 7962 ] final -165.89 input  175.53 | X-H torsion
[ 8008 7997 7996 7995 ] final  -58.71 input   59.86 | X-H torsion
[ 10167 10162 10161 10158 ] final   67.02 input  -65.29 | X-H torsion
[ 10718 10713 10712 10709 ] final  -62.08 input   66.30 | X-H torsion
[ 10763 10752 10751 10750 ] final   12.16 input  -60.55 | X-H torsion
[ 11005 11000 10999 10996 ] final  -52.86 input  -57.11 | X-H torsion

> <Gold.Protein.ActiveResidues>
 VAL166  LYS551  ARG553  GLY616  TRP617  ASP618  TYR619  PRO620  LYS621  CYS622 
 ASP623  PHE694  ASN695  SER759  ASP760  ASP761  ALA762  ILE779  LEU786  VAL792 
 PHE793  MET794  SER795  GLU796  ALA797  LYS798  CYS799  TRP800  GLU811  SER814 

> <Gold.Protein.RotatedAtoms>
  152.5452  134.1497  159.8512 H   0  0  0  0  0  0  0  0  0  0  0  0  # atno 6907 bound_to 6896
  151.1525  133.4891  159.2602 H   0  0  0  0  0  0  0  0  0  0  0  0  # atno 6908 bound_to 6896
  151.1458  135.0213  159.8701 H   0  0  0  0  0  0  0  0  0  0  0  0  # atno 6909 bound_to 6896
  144.7259  140.2748  143.6245 H   0  0  0  0  0  0  0  0  0  0  0  0  # atno 7974 bound_to 7965
  154.4320  140.1078  156.6000 H   0  0  0  0  0  0  0  0  0  0  0  0  # atno 8008 bound_to 7997
  155.5921  140.3492  155.4550 H   0  0  0  0  0  0  0  0  0  0  0  0  # atno 8009 bound_to 7997
  156.0238  140.1245  157.0319 H   0  0  0  0  0  0  0  0  0  0  0  0  # atno 8010 bound_to 7997
  140.0940  144.4962  150.7080 H   0  0  0  0  0  0  0  0  0  0  0  0  # atno 10167 bound_to 10162
  156.0879  130.4205  150.1085 H   0  0  0  0  0  0  0  0  0  0  0  0  # atno 10718 bound_to 10713
  153.1851  135.6834  153.8426 H   0  0  0  0  0  0  0  0  0  0  0  0  # atno 10763 bound_to 10752
  153.7745  135.3191  155.3358 H   0  0  0  0  0  0  0  0  0  0  0  0  # atno 10764 bound_to 10752
  154.8083  135.4734  154.0547 H   0  0  0  0  0  0  0  0  0  0  0  0  # atno 10765 bound_to 10752
  141.0946  133.6626  156.4087 H   0  0  0  0  0  0  0  0  0  0  0  0  # atno 11005 bound_to 11000
  145.8008  139.1963  143.2049 LP  0  0  0  0  0  0  0  0  0  0  0  0  # atno 17320 bound_to 7965
  146.0678  140.7901  142.9703 LP  0  0  0  0  0  0  0  0  0  0  0  0  # atno 17321 bound_to 7965
  140.7013  143.2437  151.4856 LP  0  0  0  0  0  0  0  0  0  0  0  0  # atno 17342 bound_to 10162
  139.5708  144.1933  152.1834 LP  0  0  0  0  0  0  0  0  0  0  0  0  # atno 17343 bound_to 10162
  156.9102  130.9649  151.3564 LP  0  0  0  0  0  0  0  0  0  0  0  0  # atno 17370 bound_to 10713
  157.6019  130.8518  149.8815 LP  0  0  0  0  0  0  0  0  0  0  0  0  # atno 17371 bound_to 10713
  140.5170  134.6340  157.5305 LP  0  0  0  0  0  0  0  0  0  0  0  0  # atno 17394 bound_to 11000
  139.9780  134.7184  155.9913 LP  0  0  0  0  0  0  0  0  0  0  0  0  # atno 17395 bound_to 11000

$$$$
