AV-unprocessed.smi:228|AV-procd|sdf|1743|dock9
  -GOLD-   2262020253D 1   1.00000     0.00000
 Structure written by MMmdl.
 60 63  0  0  0  0  0  0  0  0  2 V2000
  148.0033  140.2319  154.1542 C   0  0  0  0  0  0  0  0  0  0  0  0
  149.3685  140.5980  154.5145 N   0  0  0  0  0  0  0  0  0  0  0  0
  149.5447  141.7038  155.4590 C   0  0  0  0  0  0  0  0  0  0  0  0
  150.2346  141.3174  156.7892 C   0  0  2  0  0  0  0  0  0  0  0  0
  149.2903  140.5800  157.5359 O   0  0  0  0  0  0  0  0  0  0  0  0
  150.6687  142.5230  157.6539 C   0  0  0  0  0  0  0  0  0  0  0  0
  151.4783  142.1392  158.8401 N   0  3  0  0  0  0  0  0  0  0  0  0
  152.5471  141.1706  158.4986 C   0  0  0  0  0  0  0  0  0  0  0  0
  153.3457  140.7744  159.7516 C   0  0  0  0  0  0  0  0  0  0  0  0
  153.8881  141.9396  160.3587 O   0  0  0  0  0  0  0  0  0  0  0  0
  152.8709  142.8354  160.7858 C   0  0  0  0  0  0  0  0  0  0  0  0
  152.0425  143.3004  159.5755 C   0  0  0  0  0  0  0  0  0  0  0  0
  150.2368  139.5540  154.5195 C   0  0  0  0  0  0  0  0  0  0  0  0
  151.5746  139.7770  154.4356 N   0  0  0  0  0  0  0  0  0  0  0  0
  152.4302  138.7508  154.4167 C   0  0  0  0  0  0  0  0  0  0  0  0
  152.1654  137.4441  154.4616 N   0  0  0  0  0  0  0  0  0  0  0  0
  150.8248  137.2127  154.5514 C   0  0  0  0  0  0  0  0  0  0  0  0
  149.8022  138.2013  154.5984 C   0  0  0  0  0  0  0  0  0  0  0  0
  148.5576  137.5903  154.6900 N   0  0  0  0  0  0  0  0  0  0  0  0
  148.8293  136.3140  154.7079 C   0  0  0  0  0  0  0  0  0  0  0  0
  150.1636  135.9975  154.5870 N   0  0  0  0  0  0  0  0  0  0  0  0
  150.7410  134.6855  154.5892 C   0  0  0  0  0  0  0  0  0  0  0  0
  149.8568  133.4422  154.7210 C   0  0  0  0  0  0  0  0  0  0  0  0
  150.9397  132.7455  155.5737 C   0  0  0  0  0  0  0  0  0  0  0  0
  150.4253  132.0580  156.8481 C   0  0  0  0  0  0  0  0  0  0  0  0
  151.4901  131.6708  157.6927 O   0  0  0  0  0  0  0  0  0  0  0  0
  151.8612  131.7358  154.8528 C   0  0  0  0  0  0  0  0  0  0  0  0
  152.9235  131.2716  155.6609 O   0  0  0  0  0  0  0  0  0  0  0  0
  151.5178  134.1604  155.8015 C   0  0  0  0  0  0  0  0  0  0  0  0
  147.8624  140.3136  153.0764 H   0  0  0  0  0  0  0  0  0  0  0  0
  147.2768  140.8880  154.6344 H   0  0  0  0  0  0  0  0  0  0  0  0
  147.7710  139.2090  154.4548 H   0  0  0  0  0  0  0  0  0  0  0  0
  150.1344  142.4813  154.9716 H   0  0  0  0  0  0  0  0  0  0  0  0
  148.5690  142.1487  155.6606 H   0  0  0  0  0  0  0  0  0  0  0  0
  151.0690  140.6406  156.6193 H   0  0  0  0  0  0  0  0  0  0  0  0
  149.4445  139.6583  157.3924 H   0  0  0  0  0  0  0  0  0  0  0  0
  151.2330  143.2152  157.0266 H   0  0  0  0  0  0  0  0  0  0  0  0
  149.7953  143.0774  158.0022 H   0  0  0  0  0  0  0  0  0  0  0  0
  152.1074  140.2793  158.0494 H   0  0  0  0  0  0  0  0  0  0  0  0
  153.2143  141.6100  157.7553 H   0  0  0  0  0  0  0  0  0  0  0  0
  152.7188  140.2349  160.4624 H   0  0  0  0  0  0  0  0  0  0  0  0
  154.1627  140.1064  159.4791 H   0  0  0  0  0  0  0  0  0  0  0  0
  152.2408  142.3547  161.5333 H   0  0  0  0  0  0  0  0  0  0  0  0
  153.3366  143.6925  161.2722 H   0  0  0  0  0  0  0  0  0  0  0  0
  152.6716  143.8869  158.9042 H   0  0  0  0  0  0  0  0  0  0  0  0
  151.2469  143.9579  159.9234 H   0  0  0  0  0  0  0  0  0  0  0  0
  153.4758  139.0138  154.3493 H   0  0  0  0  0  0  0  0  0  0  0  0
  148.0553  135.5650  154.7934 H   0  0  0  0  0  0  0  0  0  0  0  0
  151.3505  134.6295  153.6866 H   0  0  0  0  0  0  0  0  0  0  0  0
  148.9416  133.6429  155.2810 H   0  0  0  0  0  0  0  0  0  0  0  0
  149.6324  132.9492  153.7745 H   0  0  0  0  0  0  0  0  0  0  0  0
  149.7514  132.7108  157.4039 H   0  0  0  0  0  0  0  0  0  0  0  0
  149.8542  131.1616  156.6041 H   0  0  0  0  0  0  0  0  0  0  0  0
  151.3653  130.7671  157.9394 H   0  0  0  0  0  0  0  0  0  0  0  0
  151.2951  130.8652  154.5203 H   0  0  0  0  0  0  0  0  0  0  0  0
  152.3032  132.1792  153.9601 H   0  0  0  0  0  0  0  0  0  0  0  0
  153.7396  131.4696  155.2272 H   0  0  0  0  0  0  0  0  0  0  0  0
  152.6016  134.2349  155.7063 H   0  0  0  0  0  0  0  0  0  0  0  0
  151.1805  134.6085  156.7376 H   0  0  0  0  0  0  0  0  0  0  0  0
  150.8548  141.6586  159.4735 H   0  0  0  0  0  0  0  0  0  0  0  0
  1  2  1  0  0  0  0
  1 30  1  0  0  0  0
  1 31  1  0  0  0  0
  1 32  1  0  0  0  0
  2  3  1  0  0  0  0
  2 13  1  0  0  0  0
  3  4  1  0  0  0  0
  3 33  1  0  0  0  0
  3 34  1  0  0  0  0
  4  5  1  0  0  0  0
  4  6  1  0  0  0  0
  4 35  1  0  0  0  0
  5 36  1  0  0  0  0
  6  7  1  0  0  0  0
  6 37  1  0  0  0  0
  6 38  1  0  0  0  0
  7 12  1  0  0  0  0
  7  8  1  0  0  0  0
  7 60  1  0  0  0  0
  8  9  1  0  0  0  0
  8 39  1  0  0  0  0
  8 40  1  0  0  0  0
  9 10  1  0  0  0  0
  9 41  1  0  0  0  0
  9 42  1  0  0  0  0
 10 11  1  0  0  0  0
 11 12  1  0  0  0  0
 11 43  1  0  0  0  0
 11 44  1  0  0  0  0
 12 45  1  0  0  0  0
 12 46  1  0  0  0  0
 13 18  1  0  0  0  0
 13 14  2  0  0  0  0
 14 15  1  0  0  0  0
 15 16  2  0  0  0  0
 15 47  1  0  0  0  0
 16 17  1  0  0  0  0
 17 21  1  0  0  0  0
 17 18  2  0  0  0  0
 18 19  1  0  0  0  0
 19 20  2  0  0  0  0
 20 21  1  0  0  0  0
 20 48  1  0  0  0  0
 21 22  1  0  0  0  0
 22 29  1  0  0  0  0
 22 23  1  0  0  0  0
 22 49  1  0  0  0  0
 23 24  1  0  0  0  0
 23 50  1  0  0  0  0
 23 51  1  0  0  0  0
 24 25  1  0  0  0  0
 24 27  1  0  0  0  0
 24 29  1  0  0  0  0
 25 26  1  0  0  0  0
 25 52  1  0  0  0  0
 25 53  1  0  0  0  0
 26 54  1  0  0  0  0
 27 28  1  0  0  0  0
 27 55  1  0  0  0  0
 27 56  1  0  0  0  0
 28 57  1  0  0  0  0
 29 58  1  0  0  0  0
 29 59  1  0  0  0  0
M  CHG  1   7   1
M  END
> <s_m_source_file>
AV-unprocessed.smi

> <i_m_source_file_index>
228

> <i_lp_mmshare_version>
43012

> <i_f3d_flags>
0

> <s_epik_input>
W0NIMl0xW0NIMl1PW0NIMl1bQ0gyXU4xW0NIMl1bQ0BASF0oW09IXSlbQ0gyXU4oW0NIM10pYyhuW2NIXW4yKWMoYzIzKW5bY0hdbjNbQ0hdKFtDSDJdNClbQ0gyXUM0KFtDSDJdW09IXSlbQ0gyXVtPSF0=

> <s_epik_cmdline>
J2VwaWtfcHl0aG9uJywgJy1waCcsICc3LjAnLCAnLXRuJywgJzgnLCAnLW1hJywgJzIwMCcsICctbWV0YWxfYmluZGluZycsICctaW1hZScsICc8aW5maWxlLm1hZT4nLCAnLW9tYWUnLCAnPG91dGZpbGUubWFlPic=

> <r_lp_tautomer_probability>
1

> <r_epik_Ionization_Penalty>
0.403032

> <r_epik_Ionization_Penalty_Charging>
0.40072

> <r_epik_Ionization_Penalty_Neutral>
0.00231206

> <r_epik_State_Penalty>
0.387266

> <r_epik_Charging_Adjusted_Penalty>
0.787986

> <i_epik_Tot_Q>
1

> <i_epik_Tot_abs_Q>
1

> <r_epik_Metal_State_Penalty>
0.385845

> <b_epik_Metal_Only>
0

> <s_lp_Force_Field>
OPLS_2005

> <r_lp_Energy>
45.878

> <b_lp_Chiralities_Consistent>
1

> <s_lp_Variant>
AV-unprocessed.smi:228-1

> <Gold.Version>
5.8.1

> <Gold.Id.Protein>
6NUR|6NUR_protein|mol2

> <Gold.PLP.Fitness>
56.0218

> <Gold.PLP.PLP>
-48.6828

> <Gold.PLP.part.hbond>
-3.0000

> <Gold.PLP.part.metal>
0.0000

> <Gold.PLP.part.buried>
-5.8515

> <Gold.PLP.part.nonpolar>
-41.0629

> <Gold.PLP.part.repulsive>
0.3931

> <Gold.PLP.ligand.clash>
0.0403

> <Gold.PLP.ligand.torsion>
1.1664

> <Gold.PLP.Chemscore.Hbond>
2.8920

> <Gold.PLP.Chemscore.CHOScore>
0.0000

> <Gold.PLP.Chemscore.Metal>
0.0000

> <Gold.Chemscore.Hbonds>
donor molecule, donor type, donor heavy atom, donor atom, acceptor molecule, acceptor atom, score
      P1  H  6896  6907       L1    26  0.46
      P1  H  7989  7998       L1    14  0.75
      P1  H 10752 10765       L1    16  0.78

> <Gold.PLP.Chemscore.Internal.Correction>
1.0362

> <Gold.Rescore>
     Score         DG    S(hbond)    S(metal)    S(lipo)     H(rot)  DE(clash)    DE(int)     intcor
     10.67     -13.62       2.73        0.00      96.09       4.77       0.04       2.91       ----

> <Gold.Chemscore.Fitness>
10.6653

> <Gold.Chemscore.DG>
-13.6172

> <Gold.Chemscore.ZeroCoef>
-5.4800

> <Gold.Chemscore.Hbond>
2.7291

> <Gold.Chemscore.Metal>
0.0000

> <Gold.Chemscore.Lipo>
96.0925

> <Gold.Chemscore.Internal_Hbond>
0.0000

> <Gold.Chemscore.DEClash>
0.0385

> <Gold.Chemscore.DEInternal>
2.9134

> <Gold.Chemscore.Rot>
4.7738

> <Gold.Chemscore.Internal.Correction>
   9.000000E+99

> <Gold.Chemscore.Hbonds>
donor molecule, donor type, donor heavy atom, donor atom, acceptor molecule, acceptor atom, score
      P1  H  6896  6907       L1    26  0.20
      P1  H  7989  7998       L1    14  0.29
      P1  H 10752 10765       L1    16  0.34

> <Gold.Chemscore.Hbond.Weighted>
-9.1152

> <Gold.Chemscore.Metal.Weighted>
-0.0000

> <Gold.Chemscore.Lipo.Weighted>
-11.2428

> <Gold.Chemscore.Internal_Hbond.Weighted>
0.0000

> <Gold.Chemscore.DEClash.Weighted>
0.0385

> <Gold.Chemscore.DEInternal.Weighted>
2.9134

> <Gold.Chemscore.Rot.Weighted>
12.2208

> <Gold.Chemscore.Internal.Correction.Weighted>
   9.000000E+99

> <Gold.Protein.RotatedTorsions>
[ 6907 6896 6895 6894 ] final -173.08 input  -60.11 | X-H torsion
[ 7974 7965 7964 7962 ] final   69.31 input  175.53 | X-H torsion
[ 8008 7997 7996 7995 ] final  -73.43 input   59.86 | X-H torsion
[ 10167 10162 10161 10158 ] final  107.78 input  -65.29 | X-H torsion
[ 10718 10713 10712 10709 ] final   24.88 input   66.30 | X-H torsion
[ 10763 10752 10751 10750 ] final  171.56 input  -60.55 | X-H torsion
[ 11005 11000 10999 10996 ] final -133.14 input  -57.11 | X-H torsion

> <Gold.Protein.ActiveResidues>
 VAL166  LYS551  ARG553  GLY616  TRP617  ASP618  TYR619  PRO620  LYS621  CYS622 
 ASP623  PHE694  ASN695  SER759  ASP760  ASP761  ALA762  ILE779  LEU786  VAL792 
 PHE793  MET794  SER795  GLU796  ALA797  LYS798  CYS799  TRP800  GLU811  SER814 

> <Gold.Protein.RotatedAtoms>
  151.5503  133.3418  159.2951 H   0  0  0  0  0  0  0  0  0  0  0  0  # atno 6907 bound_to 6896
  150.8482  134.7801  159.6999 H   0  0  0  0  0  0  0  0  0  0  0  0  # atno 6908 bound_to 6896
  152.4535  134.5350  159.9874 H   0  0  0  0  0  0  0  0  0  0  0  0  # atno 6909 bound_to 6896
  145.7920  139.2939  143.1205 H   0  0  0  0  0  0  0  0  0  0  0  0  # atno 7974 bound_to 7965
  154.5246  140.0779  156.8235 H   0  0  0  0  0  0  0  0  0  0  0  0  # atno 8008 bound_to 7997
  155.3502  140.3412  155.4221 H   0  0  0  0  0  0  0  0  0  0  0  0  # atno 8009 bound_to 7997
  156.1718  140.1622  156.8421 H   0  0  0  0  0  0  0  0  0  0  0  0  # atno 8010 bound_to 7997
  139.6899  144.7109  151.1366 H   0  0  0  0  0  0  0  0  0  0  0  0  # atno 10167 bound_to 10162
  157.1857  130.6823  149.6130 H   0  0  0  0  0  0  0  0  0  0  0  0  # atno 10718 bound_to 10713
  154.4137  135.2756  155.2020 H   0  0  0  0  0  0  0  0  0  0  0  0  # atno 10763 bound_to 10752
  154.3996  135.6047  153.5893 H   0  0  0  0  0  0  0  0  0  0  0  0  # atno 10764 bound_to 10752
  152.9831  135.5923  154.4422 H   0  0  0  0  0  0  0  0  0  0  0  0  # atno 10765 bound_to 10752
  140.9107  134.1572  157.4391 H   0  0  0  0  0  0  0  0  0  0  0  0  # atno 11005 bound_to 11000
  145.9967  140.8556  143.0039 LP  0  0  0  0  0  0  0  0  0  0  0  0  # atno 17320 bound_to 7965
  144.6780  140.2293  143.7357 LP  0  0  0  0  0  0  0  0  0  0  0  0  # atno 17321 bound_to 7965
  140.7679  143.5574  150.9136 LP  0  0  0  0  0  0  0  0  0  0  0  0  # atno 17342 bound_to 10162
  139.9251  143.6559  152.3088 LP  0  0  0  0  0  0  0  0  0  0  0  0  # atno 17343 bound_to 10162
  155.9718  130.4631  150.6171 LP  0  0  0  0  0  0  0  0  0  0  0  0  # atno 17370 bound_to 10713
  157.3909  131.0795  151.1394 LP  0  0  0  0  0  0  0  0  0  0  0  0  # atno 17371 bound_to 10713
  139.8757  134.9934  156.5645 LP  0  0  0  0  0  0  0  0  0  0  0  0  # atno 17394 bound_to 11000
  140.8114  133.8426  155.8813 LP  0  0  0  0  0  0  0  0  0  0  0  0  # atno 17395 bound_to 11000

$$$$
