AV-unprocessed.smi:1512|AV-procd|sdf|6102|dock5
  -GOLD-   22720 6233D 1   1.00000     0.00000
 Structure written by MMmdl.
 44 46  0  0  0  0  0  0  0  0  3 V2000
  152.4177  140.6433  158.4291 C   0  0  0  0  0  0  0  0  0  0  0  0
  152.9807  141.7410  159.3487 C   0  0  2  0  0  0  0  0  0  0  0  0
  153.7506  141.1316  160.4312 N   0  0  0  0  0  0  0  0  0  0  0  0
  154.6639  140.1588  160.2901 C   0  0  0  0  0  0  0  0  0  0  0  0
  154.9454  139.6496  159.2042 O   0  0  0  0  0  0  0  0  0  0  0  0
  155.3456  139.6928  161.5851 C   0  0  0  0  0  0  0  0  0  0  0  0
  155.1397  138.2640  161.8798 N   0  0  0  0  0  0  0  0  0  0  0  0
  154.4476  137.9545  163.0656 C   0  0  0  0  0  0  0  0  0  0  0  0
  154.1962  136.6892  163.4296 C   0  0  0  0  0  0  0  0  0  0  0  0
  154.6587  135.6271  162.5703 C   0  0  0  0  0  0  0  0  0  0  0  0
  155.3241  135.8996  161.4241 C   0  0  0  0  0  0  0  0  0  0  0  0
  155.7620  134.7874  160.6119 N   0  3  0  0  0  0  0  0  0  0  0  0
  155.4580  133.6483  160.9526 O   0  0  0  0  0  0  0  0  0  0  0  0
  156.4137  135.0227  159.5985 O   0  5  0  0  0  0  0  0  0  0  0  0
  155.5902  137.2966  161.0214 C   0  0  0  0  0  0  0  0  0  0  0  0
  156.1717  137.5926  159.9758 O   0  0  0  0  0  0  0  0  0  0  0  0
  151.8686  142.6299  159.9542 C   0  0  1  0  0  0  0  0  0  0  0  0
  152.3775  143.7918  160.8387 C   0  0  0  0  0  0  0  0  0  0  0  0
  151.6071  145.0080  160.2916 C   0  0  1  0  0  0  0  0  0  0  0  0
  152.2039  145.4111  158.9309 C   0  0  0  0  0  0  0  0  0  0  0  0
  151.7165  144.2845  158.0019 C   0  0  0  0  0  0  0  0  0  0  0  0
  150.9333  143.3638  158.9607 C   0  0  2  0  0  0  0  0  0  0  0  0
  150.2763  144.3890  159.8801 C   0  0  0  0  0  0  0  0  0  0  0  0
  151.8794  141.0719  157.5838 H   0  0  0  0  0  0  0  0  0  0  0  0
  151.7298  139.9899  158.9663 H   0  0  0  0  0  0  0  0  0  0  0  0
  153.2151  140.0222  158.0196 H   0  0  0  0  0  0  0  0  0  0  0  0
  153.6571  142.3688  158.7677 H   0  0  0  0  0  0  0  0  0  0  0  0
  153.5819  141.4879  161.3609 H   0  0  0  0  0  0  0  0  0  0  0  0
  156.4126  139.9161  161.5258 H   0  0  0  0  0  0  0  0  0  0  0  0
  154.9732  140.3077  162.4057 H   0  0  0  0  0  0  0  0  0  0  0  0
  154.1294  138.8060  163.6496 H   0  0  0  0  0  0  0  0  0  0  0  0
  153.6589  136.4705  164.3407 H   0  0  0  0  0  0  0  0  0  0  0  0
  154.4711  134.6038  162.8624 H   0  0  0  0  0  0  0  0  0  0  0  0
  151.2390  141.9893  160.5750 H   0  0  0  0  0  0  0  0  0  0  0  0
  152.1314  143.6102  161.8855 H   0  0  0  0  0  0  0  0  0  0  0  0
  153.4567  143.9376  160.7746 H   0  0  0  0  0  0  0  0  0  0  0  0
  151.5346  145.8346  160.9990 H   0  0  0  0  0  0  0  0  0  0  0  0
  151.8115  146.3744  158.6030 H   0  0  0  0  0  0  0  0  0  0  0  0
  153.2916  145.4853  158.9606 H   0  0  0  0  0  0  0  0  0  0  0  0
  151.0505  144.6893  157.2387 H   0  0  0  0  0  0  0  0  0  0  0  0
  152.5303  143.7812  157.4819 H   0  0  0  0  0  0  0  0  0  0  0  0
  150.2303  142.7030  158.4529 H   0  0  0  0  0  0  0  0  0  0  0  0
  149.7305  143.9418  160.7128 H   0  0  0  0  0  0  0  0  0  0  0  0
  149.6192  145.0854  159.3556 H   0  0  0  0  0  0  0  0  0  0  0  0
  1  2  1  0  0  0  0
  1 24  1  0  0  0  0
  1 25  1  0  0  0  0
  1 26  1  0  0  0  0
  2  3  1  0  0  0  0
  2 17  1  0  0  0  0
  2 27  1  0  0  0  0
  3  4  1  0  0  0  0
  3 28  1  0  0  0  0
  4  5  2  0  0  0  0
  4  6  1  0  0  0  0
  6  7  1  0  0  0  0
  6 29  1  0  0  0  0
  6 30  1  0  0  0  0
  7 15  1  0  0  0  0
  7  8  1  0  0  0  0
  8  9  2  0  0  0  0
  8 31  1  0  0  0  0
  9 10  1  0  0  0  0
  9 32  1  0  0  0  0
 10 11  2  0  0  0  0
 10 33  1  0  0  0  0
 11 12  1  0  0  0  0
 11 15  1  0  0  0  0
 12 13  2  0  0  0  0
 12 14  1  0  0  0  0
 15 16  2  0  0  0  0
 17 22  1  0  0  0  0
 17 18  1  0  0  0  0
 17 34  1  0  0  0  0
 18 19  1  0  0  0  0
 18 35  1  0  0  0  0
 18 36  1  0  0  0  0
 19 23  1  0  0  0  0
 19 20  1  0  0  0  0
 19 37  1  0  0  0  0
 20 21  1  0  0  0  0
 20 38  1  0  0  0  0
 20 39  1  0  0  0  0
 21 22  1  0  0  0  0
 21 40  1  0  0  0  0
 21 41  1  0  0  0  0
 22 23  1  0  0  0  0
 22 42  1  0  0  0  0
 23 43  1  0  0  0  0
 23 44  1  0  0  0  0
M  CHG  1  12   1
M  CHG  1  14  -1
M  END
> <s_m_source_file>
AV-unprocessed.smi

> <i_m_source_file_index>
1512

> <i_lp_mmshare_version>
43012

> <i_f3d_flags>
0

> <s_epik_input>
W0NIMl0xW0NIMl1bQ0BIXShbQ0gyXTIpW0NAQEhdKFtDSDJdW0NAQEhdMTIpW0NASF0oW0NIM10pW05IXUMoPU8pW0NIMl1uM1tjSF1bY0hdW2NIXWMoW04rXSg9TylbTy1dKWMzPU8=

> <s_epik_cmdline>
J2VwaWtfcHl0aG9uJywgJy1waCcsICc3LjAnLCAnLXRuJywgJzgnLCAnLW1hJywgJzIwMCcsICctbWV0YWxfYmluZGluZycsICctaW1hZScsICc8aW5maWxlLm1hZT4nLCAnLW9tYWUnLCAnPG91dGZpbGUubWFlPic=

> <r_lp_tautomer_probability>
1

> <r_epik_Ionization_Penalty>
2.17697e-08

> <r_epik_Ionization_Penalty_Charging>
1.42735e-10

> <r_epik_Ionization_Penalty_Neutral>
2.16269e-08

> <r_epik_State_Penalty>
-0

> <r_epik_Charging_Adjusted_Penalty>
1.42735e-10

> <i_epik_Tot_Q>
0

> <i_epik_Tot_abs_Q>
2

> <r_epik_Metal_State_Penalty>
-0

> <b_epik_Metal_Only>
0

> <s_lp_Force_Field>
OPLS_2005

> <r_lp_Energy>
64.3295

> <b_lp_Chiralities_Consistent>
1

> <s_lp_Variant>
AV-unprocessed.smi:1512-3

> <Gold.Version>
5.8.1

> <Gold.Id.Protein>
6NUR|6NUR_protein|mol2

> <Gold.PLP.Fitness>
46.1629

> <Gold.PLP.PLP>
-43.4159

> <Gold.PLP.part.hbond>
-1.0000

> <Gold.PLP.part.metal>
0.0000

> <Gold.PLP.part.buried>
-6.1211

> <Gold.PLP.part.nonpolar>
-36.4646

> <Gold.PLP.part.repulsive>
0.0461

> <Gold.PLP.ligand.clash>
0.0000

> <Gold.PLP.ligand.torsion>
0.1389

> <Gold.PLP.Chemscore.Hbond>
1.0000

> <Gold.PLP.Chemscore.CHOScore>
0.0000

> <Gold.PLP.Chemscore.Metal>
0.0000

> <Gold.Chemscore.Hbonds>
donor molecule, donor type, donor heavy atom, donor atom, acceptor molecule, acceptor atom, score
      P1  H  7997  8009       L1     5  1.00

> <Gold.PLP.Chemscore.Internal.Correction>
0.0247

> <Gold.Rescore>
     Score         DG    S(hbond)    S(metal)    S(lipo)     H(rot)  DE(clash)    DE(int)     intcor
     14.60     -19.40       0.98        0.00     129.24       1.75       0.08       4.72       ----

> <Gold.Chemscore.Fitness>
14.5988

> <Gold.Chemscore.DG>
-19.3972

> <Gold.Chemscore.ZeroCoef>
-5.4800

> <Gold.Chemscore.Hbond>
0.9790

> <Gold.Chemscore.Metal>
0.0000

> <Gold.Chemscore.Lipo>
129.2363

> <Gold.Chemscore.Internal_Hbond>
0.0000

> <Gold.Chemscore.DEClash>
0.0775

> <Gold.Chemscore.DEInternal>
4.7209

> <Gold.Chemscore.Rot>
1.7474

> <Gold.Chemscore.Internal.Correction>
   9.000000E+99

> <Gold.Chemscore.Hbonds>
donor molecule, donor type, donor heavy atom, donor atom, acceptor molecule, acceptor atom, score
      P1  H  7997  8009       L1     5  0.99

> <Gold.Chemscore.Hbond.Weighted>
-3.2698

> <Gold.Chemscore.Metal.Weighted>
-0.0000

> <Gold.Chemscore.Lipo.Weighted>
-15.1206

> <Gold.Chemscore.Internal_Hbond.Weighted>
0.0000

> <Gold.Chemscore.DEClash.Weighted>
0.0775

> <Gold.Chemscore.DEInternal.Weighted>
4.7209

> <Gold.Chemscore.Rot.Weighted>
4.4733

> <Gold.Chemscore.Internal.Correction.Weighted>
   9.000000E+99

> <Gold.Protein.RotatedTorsions>
[ 6907 6896 6895 6894 ] final  154.11 input  -60.11 | X-H torsion
[ 7974 7965 7964 7962 ] final  108.14 input  175.53 | X-H torsion
[ 8008 7997 7996 7995 ] final  105.38 input   59.86 | X-H torsion
[ 10167 10162 10161 10158 ] final   79.22 input  -65.29 | X-H torsion
[ 10718 10713 10712 10709 ] final   57.07 input   66.30 | X-H torsion
[ 10763 10752 10751 10750 ] final  142.30 input  -60.55 | X-H torsion
[ 11005 11000 10999 10996 ] final  -23.36 input  -57.11 | X-H torsion

> <Gold.Protein.ActiveResidues>
 VAL166  LYS551  ARG553  GLY616  TRP617  ASP618  TYR619  PRO620  LYS621  CYS622 
 ASP623  PHE694  ASN695  SER759  ASP760  ASP761  ALA762  ILE779  LEU786  VAL792 
 PHE793  MET794  SER795  GLU796  ALA797  LYS798  CYS799  TRP800  GLU811  SER814 

> <Gold.Protein.RotatedAtoms>
  152.0632  133.4072  159.4426 H   0  0  0  0  0  0  0  0  0  0  0  0  # atno 6907 bound_to 6896
  150.6865  134.3176  159.4782 H   0  0  0  0  0  0  0  0  0  0  0  0  # atno 6908 bound_to 6896
  152.1000  134.9348  160.0620 H   0  0  0  0  0  0  0  0  0  0  0  0  # atno 6909 bound_to 6896
  145.2845  139.2621  143.3898 H   0  0  0  0  0  0  0  0  0  0  0  0  # atno 7974 bound_to 7965
  156.1654  140.3131  155.8879 H   0  0  0  0  0  0  0  0  0  0  0  0  # atno 8008 bound_to 7997
  155.3697  140.0481  157.3062 H   0  0  0  0  0  0  0  0  0  0  0  0  # atno 8009 bound_to 7997
  154.5187  140.2190  155.9027 H   0  0  0  0  0  0  0  0  0  0  0  0  # atno 8010 bound_to 7997
  139.9626  144.5950  150.8058 H   0  0  0  0  0  0  0  0  0  0  0  0  # atno 10167 bound_to 10162
  157.5484  130.8747  149.8926 H   0  0  0  0  0  0  0  0  0  0  0  0  # atno 10718 bound_to 10713
  153.9536  135.2967  155.3437 H   0  0  0  0  0  0  0  0  0  0  0  0  # atno 10763 bound_to 10752
  154.7413  135.5023  153.9131 H   0  0  0  0  0  0  0  0  0  0  0  0  # atno 10764 bound_to 10752
  153.0982  135.6727  153.9832 H   0  0  0  0  0  0  0  0  0  0  0  0  # atno 10765 bound_to 10752
  140.8744  133.7698  156.0226 H   0  0  0  0  0  0  0  0  0  0  0  0  # atno 11005 bound_to 11000
  146.3205  140.3321  142.8641 LP  0  0  0  0  0  0  0  0  0  0  0  0  # atno 17320 bound_to 7965
  144.9225  140.7884  143.5739 LP  0  0  0  0  0  0  0  0  0  0  0  0  # atno 17321 bound_to 7965
  140.7548  143.3034  151.3022 LP  0  0  0  0  0  0  0  0  0  0  0  0  # atno 17342 bound_to 10162
  139.6542  144.0306  152.2648 LP  0  0  0  0  0  0  0  0  0  0  0  0  # atno 17343 bound_to 10162
  156.0555  130.3709  150.1101 LP  0  0  0  0  0  0  0  0  0  0  0  0  # atno 17370 bound_to 10713
  156.9275  130.9703  151.3538 LP  0  0  0  0  0  0  0  0  0  0  0  0  # atno 17371 bound_to 10713
  140.8535  134.2925  157.5265 LP  0  0  0  0  0  0  0  0  0  0  0  0  # atno 17394 bound_to 11000
  139.8714  134.9480  156.3985 LP  0  0  0  0  0  0  0  0  0  0  0  0  # atno 17395 bound_to 11000

$$$$
