AV-unprocessed.smi:1535|AV-procd|sdf|6178|dock1
  -GOLD-   22720 6333D 1   1.00000     0.00000
 Structure written by MMmdl.
 47 48  0  0  0  0  0  0  0  0  2 V2000
  152.6352  143.0176  160.4088 C   0  0  0  0  0  0  0  0  0  0  0  0
  152.0670  142.3724  159.1569 C   0  0  0  0  0  0  0  0  0  0  0  0
  152.7056  141.2309  158.6227 C   0  0  0  0  0  0  0  0  0  0  0  0
  152.2088  140.6002  157.4614 C   0  0  0  0  0  0  0  0  0  0  0  0
  152.6702  139.4901  156.7757 N   0  0  0  0  0  0  0  0  0  0  0  0
  151.7876  139.4000  155.7858 C   0  0  0  0  0  0  0  0  0  0  0  0
  150.8142  140.3304  155.7402 N   0  0  0  0  0  0  0  0  0  0  0  0
  149.7535  140.4359  154.7534 C   0  0  0  0  0  0  0  0  0  0  0  0
  149.1890  139.0638  154.3339 C   0  0  2  0  0  0  0  0  0  0  0  0
  150.1045  138.4694  153.4371 O   0  0  0  0  0  0  0  0  0  0  0  0
  147.8058  139.1393  153.6487 C   0  0  0  0  0  0  0  0  0  0  0  0
  147.2183  137.7914  153.4495 N   0  3  2  0  0  0  0  0  0  0  0  0
  146.1637  137.7875  152.4108 C   0  0  0  0  0  0  0  0  0  0  0  0
  146.7696  137.1545  154.7156 C   0  0  0  0  0  0  0  0  0  0  0  0
  146.0826  135.8012  154.4630 C   0  0  2  0  0  0  0  0  0  0  0  0
  145.2097  135.3824  155.6525 C   0  0  0  0  0  0  0  0  0  0  0  0
  147.0714  134.7565  154.1497 C   0  0  0  0  0  0  0  0  0  0  0  0
  147.8492  133.9355  153.9082 N   0  0  0  0  0  0  0  0  0  0  0  0
  151.0453  141.1459  156.8438 C   0  0  0  0  0  0  0  0  0  0  0  0
  150.3981  142.2783  157.3698 C   0  0  0  0  0  0  0  0  0  0  0  0
  150.9103  142.8988  158.5282 C   0  0  0  0  0  0  0  0  0  0  0  0
  150.2061  144.1232  159.0855 C   0  0  0  0  0  0  0  0  0  0  0  0
  153.5033  142.4718  160.7799 H   0  0  0  0  0  0  0  0  0  0  0  0
  151.8878  143.0351  161.2022 H   0  0  0  0  0  0  0  0  0  0  0  0
  152.9471  144.0420  160.2036 H   0  0  0  0  0  0  0  0  0  0  0  0
  153.5855  140.8280  159.1028 H   0  0  0  0  0  0  0  0  0  0  0  0
  151.8586  138.6168  155.0450 H   0  0  0  0  0  0  0  0  0  0  0  0
  148.9590  141.0589  155.1675 H   0  0  0  0  0  0  0  0  0  0  0  0
  150.1473  140.9668  153.8857 H   0  0  0  0  0  0  0  0  0  0  0  0
  149.1391  138.4256  155.2150 H   0  0  0  0  0  0  0  0  0  0  0  0
  149.6283  137.9012  152.8500 H   0  0  0  0  0  0  0  0  0  0  0  0
  147.1011  139.7388  154.2263 H   0  0  0  0  0  0  0  0  0  0  0  0
  147.9200  139.6493  152.6904 H   0  0  0  0  0  0  0  0  0  0  0  0
  145.3261  138.4227  152.7022 H   0  0  0  0  0  0  0  0  0  0  0  0
  145.7851  136.7799  152.2398 H   0  0  0  0  0  0  0  0  0  0  0  0
  146.5569  138.1542  151.4622 H   0  0  0  0  0  0  0  0  0  0  0  0
  147.6176  136.9871  155.3806 H   0  0  0  0  0  0  0  0  0  0  0  0
  146.1046  137.8327  155.2525 H   0  0  0  0  0  0  0  0  0  0  0  0
  145.4386  135.8822  153.5874 H   0  0  0  0  0  0  0  0  0  0  0  0
  144.7054  134.4366  155.4519 H   0  0  0  0  0  0  0  0  0  0  0  0
  144.4421  136.1283  155.8602 H   0  0  0  0  0  0  0  0  0  0  0  0
  145.8071  135.2553  156.5560 H   0  0  0  0  0  0  0  0  0  0  0  0
  149.5133  142.6671  156.8886 H   0  0  0  0  0  0  0  0  0  0  0  0
  149.3751  144.4288  158.4493 H   0  0  0  0  0  0  0  0  0  0  0  0
  150.8963  144.9637  159.1578 H   0  0  0  0  0  0  0  0  0  0  0  0
  149.8087  143.9144  160.0791 H   0  0  0  0  0  0  0  0  0  0  0  0
  147.9733  137.2251  153.0884 H   0  0  0  0  0  0  0  0  0  0  0  0
  1  2  1  0  0  0  0
  1 23  1  0  0  0  0
  1 24  1  0  0  0  0
  1 25  1  0  0  0  0
  2 21  1  0  0  0  0
  2  3  2  0  0  0  0
  3  4  1  0  0  0  0
  3 26  1  0  0  0  0
  4 19  2  0  0  0  0
  4  5  1  0  0  0  0
  5  6  2  0  0  0  0
  6  7  1  0  0  0  0
  6 27  1  0  0  0  0
  7  8  1  0  0  0  0
  7 19  1  0  0  0  0
  8  9  1  0  0  0  0
  8 28  1  0  0  0  0
  8 29  1  0  0  0  0
  9 10  1  0  0  0  0
  9 11  1  0  0  0  0
  9 30  1  0  0  0  0
 10 31  1  0  0  0  0
 11 12  1  0  0  0  0
 11 32  1  0  0  0  0
 11 33  1  0  0  0  0
 12 13  1  0  0  0  0
 12 14  1  0  0  0  0
 12 47  1  0  0  0  0
 13 34  1  0  0  0  0
 13 35  1  0  0  0  0
 13 36  1  0  0  0  0
 14 15  1  0  0  0  0
 14 37  1  0  0  0  0
 14 38  1  0  0  0  0
 15 16  1  0  0  0  0
 15 17  1  0  0  0  0
 15 39  1  0  0  0  0
 16 40  1  0  0  0  0
 16 41  1  0  0  0  0
 16 42  1  0  0  0  0
 17 18  3  0  0  0  0
 19 20  1  0  0  0  0
 20 21  2  0  0  0  0
 20 43  1  0  0  0  0
 21 22  1  0  0  0  0
 22 44  1  0  0  0  0
 22 45  1  0  0  0  0
 22 46  1  0  0  0  0
M  CHG  1  12   1
M  END
> <s_m_source_file>
AV-unprocessed.smi

> <i_m_source_file_index>
1535

> <i_lp_mmshare_version>
43012

> <i_f3d_flags>
0

> <s_epik_input>
W0NIM11jKFtjSF0xKWMoW0NIM10pW2NIXWMoYzEyKW4oW2NIXW4yKVtDSDJdW0NASF0oW09IXSlbQ0gyXU4oW0NIM10pW0NIMl1bQ0BIXShbQ0gzXSlDI04=

> <s_epik_cmdline>
J2VwaWtfcHl0aG9uJywgJy1waCcsICc3LjAnLCAnLXRuJywgJzgnLCAnLW1hJywgJzIwMCcsICctbWV0YWxfYmluZGluZycsICctaW1hZScsICc8aW5maWxlLm1hZT4nLCAnLW9tYWUnLCAnPG91dGZpbGUubWFlPic=

> <r_epik_Ionization_Penalty>
2.21058

> <r_epik_Ionization_Penalty_Charging>
2.12381

> <r_epik_Ionization_Penalty_Neutral>
0.0867699

> <r_epik_State_Penalty>
2.36208

> <r_epik_Charging_Adjusted_Penalty>
4.48589

> <i_epik_Tot_Q>
1

> <i_epik_Tot_abs_Q>
1

> <r_epik_Metal_State_Penalty>
2.2818

> <b_epik_Metal_Only>
0

> <s_lp_Force_Field>
OPLS_2005

> <r_lp_Energy>
15.029

> <b_lp_Chiralities_Consistent>
1

> <s_lp_Variant>
AV-unprocessed.smi:1535-9

> <Gold.Version>
5.8.1

> <Gold.Id.Protein>
6NUR|6NUR_protein|mol2

> <Gold.PLP.Fitness>
47.6237

> <Gold.PLP.PLP>
-37.0616

> <Gold.PLP.part.hbond>
-4.0000

> <Gold.PLP.part.metal>
0.0000

> <Gold.PLP.part.buried>
-2.4015

> <Gold.PLP.part.nonpolar>
-29.8668

> <Gold.PLP.part.repulsive>
0.1427

> <Gold.PLP.ligand.clash>
0.0000

> <Gold.PLP.ligand.torsion>
0.7923

> <Gold.PLP.Chemscore.Hbond>
4.0000

> <Gold.PLP.Chemscore.CHOScore>
0.0000

> <Gold.PLP.Chemscore.Metal>
0.0000

> <Gold.Chemscore.Hbonds>
donor molecule, donor type, donor heavy atom, donor atom, acceptor molecule, acceptor atom, score
      L1  H    10    31       P1  7948  1.00
      L1  H    12    47       P1  7948  2.00
      P1  H  7997  8009       L1     5  0.95

> <Gold.PLP.Chemscore.Internal.Correction>
0.1468

> <Gold.Rescore>
     Score         DG    S(hbond)    S(metal)    S(lipo)     H(rot)  DE(clash)    DE(int)     intcor
     15.52     -16.49       1.83        0.00      98.90       2.60       0.14       0.83       ----

> <Gold.Chemscore.Fitness>
15.5203

> <Gold.Chemscore.DG>
-16.4866

> <Gold.Chemscore.ZeroCoef>
-5.4800

> <Gold.Chemscore.Hbond>
1.8262

> <Gold.Chemscore.Metal>
0.0000

> <Gold.Chemscore.Lipo>
98.8981

> <Gold.Chemscore.Internal_Hbond>
0.0000

> <Gold.Chemscore.DEClash>
0.1400

> <Gold.Chemscore.DEInternal>
0.8263

> <Gold.Chemscore.Rot>
2.6031

> <Gold.Chemscore.Internal.Correction>
   9.000000E+99

> <Gold.Chemscore.Hbonds>
donor molecule, donor type, donor heavy atom, donor atom, acceptor molecule, acceptor atom, score
      L1  H    10    31       P1  7948  0.67
      L1  H    12    47       P1  7948  0.99
      P1  H  7997  8009       L1     5  0.18

> <Gold.Chemscore.Hbond.Weighted>
-6.0995

> <Gold.Chemscore.Metal.Weighted>
-0.0000

> <Gold.Chemscore.Lipo.Weighted>
-11.5711

> <Gold.Chemscore.Internal_Hbond.Weighted>
0.0000

> <Gold.Chemscore.DEClash.Weighted>
0.1400

> <Gold.Chemscore.DEInternal.Weighted>
0.8263

> <Gold.Chemscore.Rot.Weighted>
6.6640

> <Gold.Chemscore.Internal.Correction.Weighted>
   9.000000E+99

> <Gold.Protein.RotatedTorsions>
[ 6907 6896 6895 6894 ] final  -42.87 input  -60.11 | X-H torsion
[ 7974 7965 7964 7962 ] final -129.19 input  175.53 | X-H torsion
[ 8008 7997 7996 7995 ] final -155.11 input   59.86 | X-H torsion
[ 10167 10162 10161 10158 ] final  160.97 input  -65.29 | X-H torsion
[ 10718 10713 10712 10709 ] final   57.50 input   66.30 | X-H torsion
[ 10763 10752 10751 10750 ] final -140.20 input  -60.55 | X-H torsion
[ 11005 11000 10999 10996 ] final -178.84 input  -57.11 | X-H torsion

> <Gold.Protein.ActiveResidues>
 VAL166  LYS551  ARG553  GLY616  TRP617  ASP618  TYR619  PRO620  LYS621  CYS622 
 ASP623  PHE694  ASN695  SER759  ASP760  ASP761  ALA762  ILE779  LEU786  VAL792 
 PHE793  MET794  SER795  GLU796  ALA797  LYS798  CYS799  TRP800  GLU811  SER814 

> <Gold.Protein.RotatedAtoms>
  150.9503  134.8903  159.7667 H   0  0  0  0  0  0  0  0  0  0  0  0  # atno 6907 bound_to 6896
  152.5117  134.3816  159.9363 H   0  0  0  0  0  0  0  0  0  0  0  0  # atno 6908 bound_to 6896
  151.3832  133.3773  159.2747 H   0  0  0  0  0  0  0  0  0  0  0  0  # atno 6909 bound_to 6896
  144.9596  140.7432  143.4737 H   0  0  0  0  0  0  0  0  0  0  0  0  # atno 7974 bound_to 7965
  155.6967  140.0762  157.2426 H   0  0  0  0  0  0  0  0  0  0  0  0  # atno 8008 bound_to 7997
  154.4079  140.1654  156.2199 H   0  0  0  0  0  0  0  0  0  0  0  0  # atno 8009 bound_to 7997
  155.9404  140.3385  155.6325 H   0  0  0  0  0  0  0  0  0  0  0  0  # atno 8010 bound_to 7997
  139.4845  144.4582  151.8739 H   0  0  0  0  0  0  0  0  0  0  0  0  # atno 10167 bound_to 10162
  157.5520  130.8772  149.8977 H   0  0  0  0  0  0  0  0  0  0  0  0  # atno 10718 bound_to 10713
  154.8586  135.3560  154.5669 H   0  0  0  0  0  0  0  0  0  0  0  0  # atno 10763 bound_to 10752
  153.6283  135.7003  153.5290 H   0  0  0  0  0  0  0  0  0  0  0  0  # atno 10764 bound_to 10752
  153.3071  135.4189  155.1263 H   0  0  0  0  0  0  0  0  0  0  0  0  # atno 10765 bound_to 10752
  140.4253  134.6568  157.4685 H   0  0  0  0  0  0  0  0  0  0  0  0  # atno 11005 bound_to 11000
  145.2720  139.1951  143.4836 LP  0  0  0  0  0  0  0  0  0  0  0  0  # atno 17320 bound_to 7965
  146.3348  140.2668  142.8604 LP  0  0  0  0  0  0  0  0  0  0  0  0  # atno 17321 bound_to 7965
  140.4043  144.2452  150.5891 LP  0  0  0  0  0  0  0  0  0  0  0  0  # atno 17342 bound_to 10162
  140.5027  143.2313  151.8654 LP  0  0  0  0  0  0  0  0  0  0  0  0  # atno 17343 bound_to 10162
  156.0585  130.3704  150.1036 LP  0  0  0  0  0  0  0  0  0  0  0  0  # atno 17370 bound_to 10713
  156.9208  130.9682  151.3549 LP  0  0  0  0  0  0  0  0  0  0  0  0  # atno 17371 bound_to 10713
  140.0172  134.6602  155.9293 LP  0  0  0  0  0  0  0  0  0  0  0  0  # atno 17394 bound_to 11000
  141.1767  133.6541  156.4859 LP  0  0  0  0  0  0  0  0  0  0  0  0  # atno 17395 bound_to 11000

$$$$
