AV-unprocessed.smi:1240|AV-procd|sdf|5211|dock9
  -GOLD-   22720 4303D 1   1.00000     0.00000
 Structure written by MMmdl.
 48 50  0  0  0  0  0  0  0  0  4 V2000
  150.1957  136.4468  159.2809 O   0  0  0  0  0  0  0  0  0  0  0  0
  149.2746  136.0319  158.5679 C   0  0  0  0  0  0  0  0  0  0  0  0
  149.1896  136.0782  157.2119 N   0  5  0  0  0  0  0  0  0  0  0  0
  148.6701  137.2142  156.4518 C   0  0  0  0  0  0  0  0  0  0  0  0
  149.0978  137.1257  154.9439 C   0  0  2  0  0  0  0  0  0  0  0  0
  150.2574  138.0935  154.5342 C   0  0  2  0  0  0  0  0  0  0  0  0
  151.5923  137.7612  155.1865 C   0  0  0  0  0  0  0  0  0  0  0  0
  152.3940  139.0403  154.9767 C   0  0  0  0  0  0  0  0  0  0  0  0
  151.4430  140.0963  155.0092 O   0  0  0  0  0  0  0  0  0  0  0  0
  150.1236  139.5628  154.9723 C   0  0  0  0  0  0  0  0  0  0  0  0
  147.9595  137.2686  153.9682 N   0  3  0  0  0  0  0  0  0  0  0  0
  146.7276  136.4996  154.2882 C   0  0  0  0  0  0  0  0  0  0  0  0
  145.7877  136.4849  153.0712 C   0  0  0  0  0  0  0  0  0  0  0  0
  145.4920  137.8188  152.6731 O   0  0  0  0  0  0  0  0  0  0  0  0
  146.6586  138.5343  152.2829 C   0  0  0  0  0  0  0  0  0  0  0  0
  147.6251  138.6345  153.4736 C   0  0  0  0  0  0  0  0  0  0  0  0
  148.2067  135.4295  159.1212 N   0  0  0  0  0  0  0  0  0  0  0  0
  147.9200  135.2069  160.4947 C   0  0  0  0  0  0  0  0  0  0  0  0
  147.2849  133.9952  160.8456 C   0  0  0  0  0  0  0  0  0  0  0  0
  146.9633  133.7453  162.1949 C   0  0  0  0  0  0  0  0  0  0  0  0
  147.2514  134.6687  163.1372 N   0  3  0  0  0  0  0  0  0  0  0  0
  147.8408  135.8488  162.8473 C   0  0  0  0  0  0  0  0  0  0  0  0
  148.1862  136.1544  161.5152 C   0  0  0  0  0  0  0  0  0  0  0  0
  147.5819  137.2384  156.5095 H   0  0  0  0  0  0  0  0  0  0  0  0
  149.0028  138.1704  156.8574 H   0  0  0  0  0  0  0  0  0  0  0  0
  149.4773  136.1155  154.7803 H   0  0  0  0  0  0  0  0  0  0  0  0
  150.4023  138.0779  153.4520 H   0  0  0  0  0  0  0  0  0  0  0  0
  151.4582  137.5772  156.2538 H   0  0  0  0  0  0  0  0  0  0  0  0
  152.0831  136.8907  154.7501 H   0  0  0  0  0  0  0  0  0  0  0  0
  153.1683  139.1763  155.7322 H   0  0  0  0  0  0  0  0  0  0  0  0
  152.8726  139.0334  153.9967 H   0  0  0  0  0  0  0  0  0  0  0  0
  149.4937  140.1468  154.3008 H   0  0  0  0  0  0  0  0  0  0  0  0
  149.7015  139.6309  155.9760 H   0  0  0  0  0  0  0  0  0  0  0  0
  146.9840  135.4758  154.5625 H   0  0  0  0  0  0  0  0  0  0  0  0
  146.2120  136.9420  155.1413 H   0  0  0  0  0  0  0  0  0  0  0  0
  146.2353  135.9369  152.2404 H   0  0  0  0  0  0  0  0  0  0  0  0
  144.8566  135.9766  153.3220 H   0  0  0  0  0  0  0  0  0  0  0  0
  147.1362  138.0425  151.4340 H   0  0  0  0  0  0  0  0  0  0  0  0
  146.3675  139.5310  151.9507 H   0  0  0  0  0  0  0  0  0  0  0  0
  147.1589  139.2261  154.2624 H   0  0  0  0  0  0  0  0  0  0  0  0
  148.5256  139.1637  153.1638 H   0  0  0  0  0  0  0  0  0  0  0  0
  147.5545  135.0219  158.4673 H   0  0  0  0  0  0  0  0  0  0  0  0
  147.0523  133.2594  160.0893 H   0  0  0  0  0  0  0  0  0  0  0  0
  146.4853  132.8422  162.5454 H   0  0  0  0  0  0  0  0  0  0  0  0
  148.0112  136.5124  163.6823 H   0  0  0  0  0  0  0  0  0  0  0  0
  148.6362  137.1108  161.2953 H   0  0  0  0  0  0  0  0  0  0  0  0
  148.3178  136.7982  153.1499 H   0  0  0  0  0  0  0  0  0  0  0  0
  147.0085  134.4691  164.1078 H   0  0  0  0  0  0  0  0  0  0  0  0
  1  2  2  0  0  0  0
  2  3  1  0  0  0  0
  2 17  1  0  0  0  0
  3  4  1  0  0  0  0
  4  5  1  0  0  0  0
  4 24  1  0  0  0  0
  4 25  1  0  0  0  0
  5  6  1  0  0  0  0
  5 11  1  0  0  0  0
  5 26  1  0  0  0  0
  6 10  1  0  0  0  0
  6  7  1  0  0  0  0
  6 27  1  0  0  0  0
  7  8  1  0  0  0  0
  7 28  1  0  0  0  0
  7 29  1  0  0  0  0
  8  9  1  0  0  0  0
  8 30  1  0  0  0  0
  8 31  1  0  0  0  0
  9 10  1  0  0  0  0
 10 32  1  0  0  0  0
 10 33  1  0  0  0  0
 11 16  1  0  0  0  0
 11 12  1  0  0  0  0
 11 47  1  0  0  0  0
 12 13  1  0  0  0  0
 12 34  1  0  0  0  0
 12 35  1  0  0  0  0
 13 14  1  0  0  0  0
 13 36  1  0  0  0  0
 13 37  1  0  0  0  0
 14 15  1  0  0  0  0
 15 16  1  0  0  0  0
 15 38  1  0  0  0  0
 15 39  1  0  0  0  0
 16 40  1  0  0  0  0
 16 41  1  0  0  0  0
 17 18  1  0  0  0  0
 17 42  1  0  0  0  0
 18 23  1  0  0  0  0
 18 19  2  0  0  0  0
 19 20  1  0  0  0  0
 19 43  1  0  0  0  0
 20 21  2  0  0  0  0
 20 44  1  0  0  0  0
 21 22  1  0  0  0  0
 21 48  1  0  0  0  0
 22 23  2  0  0  0  0
 22 45  1  0  0  0  0
 23 46  1  0  0  0  0
M  CHG  1   3  -1
M  CHG  1  11   1
M  CHG  1  21   1
M  END
> <s_m_source_file>
AV-unprocessed.smi

> <i_m_source_file_index>
1240

> <i_lp_mmshare_version>
43012

> <i_f3d_flags>
0

> <s_epik_input>
W2NIXTFbY0hdbltjSF1bY0hdYzFbTkhdQyg9TylbTkhdW0NIMl1bQ0BIXShbQ0BASF0yW0NIMl1bQ0gyXU9bQ0gyXTIpTjNbQ0gyXVtDSDJdT1tDSDJdW0NIMl0z

> <s_epik_cmdline>
J2VwaWtfcHl0aG9uJywgJy1waCcsICc3LjAnLCAnLXRuJywgJzgnLCAnLW1hJywgJzIwMCcsICctbWV0YWxfYmluZGluZycsICctaW1hZScsICc8aW5maWxlLm1hZT4nLCAnLW9tYWUnLCAnPG91dGZpbGUubWFlPic=

> <r_epik_Ionization_Penalty>
8.41087

> <r_epik_Ionization_Penalty_Charging>
8.41087

> <r_epik_Ionization_Penalty_Neutral>
3.12936e-06

> <r_epik_State_Penalty>
8.81894

> <r_epik_Charging_Adjusted_Penalty>
17.2298

> <i_epik_Tot_Q>
1

> <i_epik_Tot_abs_Q>
3

> <r_epik_Metal_State_Penalty>
4.82983

> <b_epik_Metal_Only>
1

> <s_lp_Force_Field>
OPLS_2005

> <r_lp_Energy>
48.2206

> <b_lp_Chiralities_Consistent>
1

> <s_lp_Variant>
AV-unprocessed.smi:1240-17

> <Gold.Version>
5.8.1

> <Gold.Id.Protein>
6NUR|6NUR_protein|mol2

> <Gold.PLP.Fitness>
44.4257

> <Gold.PLP.PLP>
-36.8965

> <Gold.PLP.part.hbond>
-3.0000

> <Gold.PLP.part.metal>
0.0000

> <Gold.PLP.part.buried>
-3.1309

> <Gold.PLP.part.nonpolar>
-31.5521

> <Gold.PLP.part.repulsive>
0.9298

> <Gold.PLP.ligand.clash>
0.0000

> <Gold.PLP.ligand.torsion>
2.3887

> <Gold.PLP.Chemscore.Hbond>
4.0000

> <Gold.PLP.Chemscore.CHOScore>
0.0000

> <Gold.PLP.Chemscore.Metal>
0.0000

> <Gold.Chemscore.Hbonds>
donor molecule, donor type, donor heavy atom, donor atom, acceptor molecule, acceptor atom, score
      L1  H    11    47       P1  7948  2.00
      P1  H  6896  6908       L1     1  1.00
      P1  H  7989  7998       L1     9  1.00

> <Gold.PLP.Chemscore.Internal.Correction>
0.3065

> <Gold.Rescore>
     Score         DG    S(hbond)    S(metal)    S(lipo)     H(rot)  DE(clash)    DE(int)     intcor
     15.31     -19.99       2.40        0.00      92.86       1.70       1.04       3.65       ----

> <Gold.Chemscore.Fitness>
15.3084

> <Gold.Chemscore.DG>
-19.9933

> <Gold.Chemscore.ZeroCoef>
-5.4800

> <Gold.Chemscore.Hbond>
2.3971

> <Gold.Chemscore.Metal>
0.0000

> <Gold.Chemscore.Lipo>
92.8575

> <Gold.Chemscore.Internal_Hbond>
0.0000

> <Gold.Chemscore.DEClash>
1.0375

> <Gold.Chemscore.DEInternal>
3.6474

> <Gold.Chemscore.Rot>
1.7021

> <Gold.Chemscore.Internal.Correction>
   9.000000E+99

> <Gold.Chemscore.Hbonds>
donor molecule, donor type, donor heavy atom, donor atom, acceptor molecule, acceptor atom, score
      L1  H    11    47       P1  7948  0.94
      P1  H  6896  6908       L1     1  0.26
      P1  H  7989  7998       L1     9  0.22

> <Gold.Chemscore.Hbond.Weighted>
-8.0064

> <Gold.Chemscore.Metal.Weighted>
-0.0000

> <Gold.Chemscore.Lipo.Weighted>
-10.8643

> <Gold.Chemscore.Internal_Hbond.Weighted>
0.0000

> <Gold.Chemscore.DEClash.Weighted>
1.0375

> <Gold.Chemscore.DEInternal.Weighted>
3.6474

> <Gold.Chemscore.Rot.Weighted>
4.3575

> <Gold.Chemscore.Internal.Correction.Weighted>
   9.000000E+99

> <Gold.Protein.RotatedTorsions>
[ 6907 6896 6895 6894 ] final -163.86 input  -60.11 | X-H torsion
[ 7974 7965 7964 7962 ] final -147.10 input  175.53 | X-H torsion
[ 8008 7997 7996 7995 ] final  140.48 input   59.86 | X-H torsion
[ 10167 10162 10161 10158 ] final  156.61 input  -65.29 | X-H torsion
[ 10718 10713 10712 10709 ] final -171.45 input   66.30 | X-H torsion
[ 10763 10752 10751 10750 ] final  109.28 input  -60.55 | X-H torsion
[ 11005 11000 10999 10996 ] final   14.47 input  -57.11 | X-H torsion

> <Gold.Protein.ActiveResidues>
 VAL166  LYS551  ARG553  GLY616  TRP617  ASP618  TYR619  PRO620  LYS621  CYS622 
 ASP623  PHE694  ASN695  SER759  ASP760  ASP761  ALA762  ILE779  LEU786  VAL792 
 PHE793  MET794  SER795  GLU796  ALA797  LYS798  CYS799  TRP800  GLU811  SER814 

> <Gold.Protein.RotatedAtoms>
  151.4027  133.3752  159.2733 H   0  0  0  0  0  0  0  0  0  0  0  0  # atno 6907 bound_to 6896
  150.9421  134.8830  159.7629 H   0  0  0  0  0  0  0  0  0  0  0  0  # atno 6908 bound_to 6896
  152.5076  134.3979  159.9458 H   0  0  0  0  0  0  0  0  0  0  0  0  # atno 6909 bound_to 6896
  144.8115  140.5370  143.5639 H   0  0  0  0  0  0  0  0  0  0  0  0  # atno 7974 bound_to 7965
  156.2978  140.2340  156.4408 H   0  0  0  0  0  0  0  0  0  0  0  0  # atno 8008 bound_to 7997
  154.8188  140.0439  157.1416 H   0  0  0  0  0  0  0  0  0  0  0  0  # atno 8009 bound_to 7997
  154.9339  140.3020  155.5157 H   0  0  0  0  0  0  0  0  0  0  0  0  # atno 8010 bound_to 7997
  139.4821  144.4993  151.8192 H   0  0  0  0  0  0  0  0  0  0  0  0  # atno 10167 bound_to 10162
  156.7410  130.9342  151.3110 H   0  0  0  0  0  0  0  0  0  0  0  0  # atno 10718 bound_to 10713
  153.4325  135.3785  155.2179 H   0  0  0  0  0  0  0  0  0  0  0  0  # atno 10763 bound_to 10752
  154.8750  135.3843  154.4250 H   0  0  0  0  0  0  0  0  0  0  0  0  # atno 10764 bound_to 10752
  153.4785  135.7088  153.6015 H   0  0  0  0  0  0  0  0  0  0  0  0  # atno 10765 bound_to 10752
  140.4691  134.1049  155.7729 H   0  0  0  0  0  0  0  0  0  0  0  0  # atno 11005 bound_to 11000
  145.5312  139.1475  143.3498 LP  0  0  0  0  0  0  0  0  0  0  0  0  # atno 17320 bound_to 7965
  146.2414  140.5453  142.8932 LP  0  0  0  0  0  0  0  0  0  0  0  0  # atno 17321 bound_to 7965
  140.4485  144.1888  150.5895 LP  0  0  0  0  0  0  0  0  0  0  0  0  # atno 17342 bound_to 10162
  140.4610  143.2449  151.9220 LP  0  0  0  0  0  0  0  0  0  0  0  0  # atno 17343 bound_to 10162
  157.6818  130.9147  150.0287 LP  0  0  0  0  0  0  0  0  0  0  0  0  # atno 17370 bound_to 10713
  156.1464  130.3642  149.9503 LP  0  0  0  0  0  0  0  0  0  0  0  0  # atno 17371 bound_to 10713
  141.1585  133.8837  157.1912 LP  0  0  0  0  0  0  0  0  0  0  0  0  # atno 17394 bound_to 11000
  139.9896  135.0069  156.9944 LP  0  0  0  0  0  0  0  0  0  0  0  0  # atno 17395 bound_to 11000

$$$$
