AV-unprocessed.smi:2007|AV-procd|sdf|8134|dock9
  -GOLD-   2272010373D 1   1.00000     0.00000
 Structure written by MMmdl.
 36 37  0  0  0  0  0  0  0  0  1 V2000
  148.9813  133.9130  156.2963 C   0  0  0  0  0  0  0  0  0  0  0  0
  148.8774  135.3116  155.6735 C   0  0  1  0  0  0  0  0  0  0  0  0
  150.2702  135.9663  155.5422 C   0  0  0  0  0  0  0  0  0  0  0  0
  150.2774  137.4250  155.4225 N   0  0  0  0  0  0  0  0  0  0  0  0
  151.6246  137.9893  155.4760 C   0  0  0  0  0  0  0  0  0  0  0  0
  151.6076  139.5215  155.3386 C   0  0  0  0  0  0  0  0  0  0  0  0
  150.9531  139.8861  154.1276 O   0  0  0  0  0  0  0  0  0  0  0  0
  149.6209  139.3892  154.0527 C   0  0  0  0  0  0  0  0  0  0  0  0
  149.6347  137.8565  154.1865 C   0  0  0  0  0  0  0  0  0  0  0  0
  148.2433  135.2001  154.3607 N   0  0  0  0  0  0  0  0  0  0  0  0
  147.1413  134.4890  154.0784 C   0  0  0  0  0  0  0  0  0  0  0  0
  146.5342  133.8113  154.9082 O   0  0  0  0  0  0  0  0  0  0  0  0
  146.7979  134.6219  152.7853 N   0  0  0  0  0  0  0  0  0  0  0  0
  145.6896  134.0492  152.1080 C   0  0  0  0  0  0  0  0  0  0  0  0
  144.6716  134.7515  151.5967 N   0  0  0  0  0  0  0  0  0  0  0  0
  143.7230  133.9293  150.9835 C   0  0  0  0  0  0  0  0  0  0  0  0
  144.0367  132.5939  151.0378 C   0  0  0  0  0  0  0  0  0  0  0  0
  145.5450  132.3143  151.8664 S   0  0  0  0  0  0  0  0  0  0  0  0
  149.4309  133.9588  157.2885 H   0  0  0  0  0  0  0  0  0  0  0  0
  149.5925  133.2485  155.6847 H   0  0  0  0  0  0  0  0  0  0  0  0
  147.9965  133.4568  156.4032 H   0  0  0  0  0  0  0  0  0  0  0  0
  148.2540  135.9044  156.3435 H   0  0  0  0  0  0  0  0  0  0  0  0
  150.8885  135.6726  156.3917 H   0  0  0  0  0  0  0  0  0  0  0  0
  150.7550  135.5382  154.6635 H   0  0  0  0  0  0  0  0  0  0  0  0
  152.1103  137.7319  156.4158 H   0  0  0  0  0  0  0  0  0  0  0  0
  152.2372  137.5619  154.6809 H   0  0  0  0  0  0  0  0  0  0  0  0
  151.0978  139.9781  156.1885 H   0  0  0  0  0  0  0  0  0  0  0  0
  152.6248  139.9127  155.3267 H   0  0  0  0  0  0  0  0  0  0  0  0
  149.0121  139.8399  154.8381 H   0  0  0  0  0  0  0  0  0  0  0  0
  149.1836  139.6831  153.0986 H   0  0  0  0  0  0  0  0  0  0  0  0
  150.1527  137.4238  153.3291 H   0  0  0  0  0  0  0  0  0  0  0  0
  148.6101  137.4846  154.1521 H   0  0  0  0  0  0  0  0  0  0  0  0
  148.6695  135.7245  153.6110 H   0  0  0  0  0  0  0  0  0  0  0  0
  147.3937  135.2096  152.2212 H   0  0  0  0  0  0  0  0  0  0  0  0
  142.8519  134.3797  150.5313 H   0  0  0  0  0  0  0  0  0  0  0  0
  143.4742  131.7616  150.6417 H   0  0  0  0  0  0  0  0  0  0  0  0
  1  2  1  0  0  0  0
  1 19  1  0  0  0  0
  1 20  1  0  0  0  0
  1 21  1  0  0  0  0
  2  3  1  0  0  0  0
  2 10  1  0  0  0  0
  2 22  1  0  0  0  0
  3  4  1  0  0  0  0
  3 23  1  0  0  0  0
  3 24  1  0  0  0  0
  4  9  1  0  0  0  0
  4  5  1  0  0  0  0
  5  6  1  0  0  0  0
  5 25  1  0  0  0  0
  5 26  1  0  0  0  0
  6  7  1  0  0  0  0
  6 27  1  0  0  0  0
  6 28  1  0  0  0  0
  7  8  1  0  0  0  0
  8  9  1  0  0  0  0
  8 29  1  0  0  0  0
  8 30  1  0  0  0  0
  9 31  1  0  0  0  0
  9 32  1  0  0  0  0
 10 11  1  0  0  0  0
 10 33  1  0  0  0  0
 11 12  2  0  0  0  0
 11 13  1  0  0  0  0
 13 14  1  0  0  0  0
 13 34  1  0  0  0  0
 14 18  1  0  0  0  0
 14 15  2  0  0  0  0
 15 16  1  0  0  0  0
 16 17  2  0  0  0  0
 16 35  1  0  0  0  0
 17 18  1  0  0  0  0
 17 36  1  0  0  0  0
M  END
> <s_m_source_file>
AV-unprocessed.smi

> <i_m_source_file_index>
2007

> <i_lp_mmshare_version>
43012

> <i_f3d_flags>
0

> <s_epik_input>
W0NIMl0xW0NIMl1PW0NIMl1bQ0gyXU4xW0NIMl1bQ0BASF0oW0NIM10pW05IXUMoPU8pW05IXWMybltjSF1bY0hdczI=

> <s_epik_cmdline>
J2VwaWtfcHl0aG9uJywgJy1waCcsICc3LjAnLCAnLXRuJywgJzgnLCAnLW1hJywgJzIwMCcsICctbWV0YWxfYmluZGluZycsICctaW1hZScsICc8aW5maWxlLm1hZT4nLCAnLW9tYWUnLCAnPG91dGZpbGUubWFlPic=

> <r_lp_tautomer_probability>
0.999

> <r_epik_Ionization_Penalty>
0.219197

> <r_epik_Ionization_Penalty_Charging>
0

> <r_epik_Ionization_Penalty_Neutral>
0.219197

> <r_epik_State_Penalty>
0.209349

> <r_epik_Charging_Adjusted_Penalty>
0.209349

> <i_epik_Tot_Q>
0

> <i_epik_Tot_abs_Q>
0

> <r_epik_Metal_State_Penalty>
0.254604

> <b_epik_Metal_Only>
0

> <s_lp_Force_Field>
OPLS_2005

> <r_lp_Energy>
23.7512

> <b_lp_Chiralities_Consistent>
1

> <s_lp_Variant>
AV-unprocessed.smi:2007-2

> <Gold.Version>
5.8.1

> <Gold.Id.Protein>
6NUR|6NUR_protein|mol2

> <Gold.PLP.Fitness>
36.8499

> <Gold.PLP.PLP>
-26.8342

> <Gold.PLP.part.hbond>
-3.0000

> <Gold.PLP.part.metal>
0.0000

> <Gold.PLP.part.buried>
-1.8838

> <Gold.PLP.part.nonpolar>
-22.5087

> <Gold.PLP.part.repulsive>
0.3715

> <Gold.PLP.ligand.clash>
0.0000

> <Gold.PLP.ligand.torsion>
0.9870

> <Gold.PLP.Chemscore.Hbond>
2.9920

> <Gold.PLP.Chemscore.CHOScore>
1.0000

> <Gold.PLP.Chemscore.Metal>
0.0000

> <Gold.Chemscore.Hbonds>
donor molecule, donor type, donor heavy atom, donor atom, acceptor molecule, acceptor atom, score
      L1  H    10    33       P1  7948  1.00
      L1  H    13    34       P1  7948  1.00
      P1  H  7989  7998       L1     7  0.54
      L1  C    16    35       P1 10186  1.00

> <Gold.PLP.Chemscore.Internal.Correction>
0.0137

> <Gold.Rescore>
     Score         DG    S(hbond)    S(metal)    S(lipo)     H(rot)  DE(clash)    DE(int)     intcor
     14.79     -16.74       2.61        0.00      56.31       1.58       0.00       1.96       ----

> <Gold.Chemscore.Fitness>
14.7865

> <Gold.Chemscore.DG>
-16.7448

> <Gold.Chemscore.ZeroCoef>
-5.4800

> <Gold.Chemscore.Hbond>
2.6133

> <Gold.Chemscore.Metal>
0.0000

> <Gold.Chemscore.Lipo>
56.3055

> <Gold.Chemscore.Internal_Hbond>
0.0000

> <Gold.Chemscore.DEClash>
0.0015

> <Gold.Chemscore.DEInternal>
1.9568

> <Gold.Chemscore.Rot>
1.5825

> <Gold.Chemscore.Internal.Correction>
   9.000000E+99

> <Gold.Chemscore.Hbonds>
donor molecule, donor type, donor heavy atom, donor atom, acceptor molecule, acceptor atom, score
      L1  H    10    33       P1  7948  0.97
      L1  H    13    34       P1  7948  0.98
      P1  H  7989  7998       L1     7  0.42

> <Gold.Chemscore.Hbond.Weighted>
-8.7283

> <Gold.Chemscore.Metal.Weighted>
-0.0000

> <Gold.Chemscore.Lipo.Weighted>
-6.5877

> <Gold.Chemscore.Internal_Hbond.Weighted>
0.0000

> <Gold.Chemscore.DEClash.Weighted>
0.0015

> <Gold.Chemscore.DEInternal.Weighted>
1.9568

> <Gold.Chemscore.Rot.Weighted>
4.0512

> <Gold.Chemscore.Internal.Correction.Weighted>
   9.000000E+99

> <Gold.Protein.RotatedTorsions>
[ 6907 6896 6895 6894 ] final   90.15 input  -60.11 | X-H torsion
[ 7974 7965 7964 7962 ] final  136.33 input  175.53 | X-H torsion
[ 8008 7997 7996 7995 ] final  101.19 input   59.86 | X-H torsion
[ 10167 10162 10161 10158 ] final -117.83 input  -65.29 | X-H torsion
[ 10718 10713 10712 10709 ] final   10.48 input   66.30 | X-H torsion
[ 10763 10752 10751 10750 ] final   34.10 input  -60.55 | X-H torsion
[ 11005 11000 10999 10996 ] final  -76.72 input  -57.11 | X-H torsion

> <Gold.Protein.ActiveResidues>
 VAL166  LYS551  ARG553  GLY616  TRP617  ASP618  TYR619  PRO620  LYS621  CYS622 
 ASP623  PHE694  ASN695  SER759  ASP760  ASP761  ALA762  ILE779  LEU786  VAL792 
 PHE793  MET794  SER795  GLU796  ALA797  LYS798  CYS799  TRP800  GLU811  SER814 

> <Gold.Protein.RotatedAtoms>
  152.5442  134.1855  159.8652 H   0  0  0  0  0  0  0  0  0  0  0  0  # atno 6907 bound_to 6896
  151.1854  133.4692  159.2602 H   0  0  0  0  0  0  0  0  0  0  0  0  # atno 6908 bound_to 6896
  151.1136  135.0052  159.8561 H   0  0  0  0  0  0  0  0  0  0  0  0  # atno 6909 bound_to 6896
  144.9576  139.4747  143.5495 H   0  0  0  0  0  0  0  0  0  0  0  0  # atno 7974 bound_to 7965
  156.1275  140.3201  155.8299 H   0  0  0  0  0  0  0  0  0  0  0  0  # atno 8008 bound_to 7997
  155.4392  140.0524  157.3029 H   0  0  0  0  0  0  0  0  0  0  0  0  # atno 8009 bound_to 7997
  154.4874  140.2078  155.9638 H   0  0  0  0  0  0  0  0  0  0  0  0  # atno 8010 bound_to 7997
  140.0640  143.4940  152.2016 H   0  0  0  0  0  0  0  0  0  0  0  0  # atno 10167 bound_to 10162
  156.9816  130.6008  149.5677 H   0  0  0  0  0  0  0  0  0  0  0  0  # atno 10718 bound_to 10713
  153.0180  135.6369  154.1615 H   0  0  0  0  0  0  0  0  0  0  0  0  # atno 10763 bound_to 10752
  154.1352  135.2838  155.3176 H   0  0  0  0  0  0  0  0  0  0  0  0  # atno 10764 bound_to 10752
  154.6165  135.5539  153.7590 H   0  0  0  0  0  0  0  0  0  0  0  0  # atno 10765 bound_to 10752
  141.1656  133.6994  156.7712 H   0  0  0  0  0  0  0  0  0  0  0  0  # atno 11005 bound_to 11000
  146.3342  139.8703  142.8841 LP  0  0  0  0  0  0  0  0  0  0  0  0  # atno 17320 bound_to 7965
  145.2749  141.0120  143.3750 LP  0  0  0  0  0  0  0  0  0  0  0  0  # atno 17321 bound_to 7965
  139.5876  144.7537  151.3481 LP  0  0  0  0  0  0  0  0  0  0  0  0  # atno 17342 bound_to 10162
  140.7158  143.7270  150.7652 LP  0  0  0  0  0  0  0  0  0  0  0  0  # atno 17343 bound_to 10162
  156.0242  130.5336  150.8360 LP  0  0  0  0  0  0  0  0  0  0  0  0  # atno 17370 bound_to 10713
  157.5522  131.0944  150.9679 LP  0  0  0  0  0  0  0  0  0  0  0  0  # atno 17371 bound_to 10713
  140.2463  134.8575  157.3623 LP  0  0  0  0  0  0  0  0  0  0  0  0  # atno 17394 bound_to 11000
  140.1746  134.4565  155.7810 LP  0  0  0  0  0  0  0  0  0  0  0  0  # atno 17395 bound_to 11000

$$$$
