AV-unprocessed.smi:862|AV-procd|sdf|3979|dock9
  -GOLD-   22720 1453D 1   1.00000     0.00000
 Structure written by MMmdl.
 44 46  0  0  0  0  0  0  0  0  2 V2000
  149.6247  139.6095  153.6081 N   0  0  0  0  0  0  0  0  0  0  0  0
  149.4464  140.7080  154.3482 C   0  0  0  0  0  0  0  0  0  0  0  0
  149.2571  141.8023  153.8205 O   0  0  0  0  0  0  0  0  0  0  0  0
  149.4468  140.5093  155.6907 N   0  0  0  0  0  0  0  0  0  0  0  0
  149.6463  139.2216  156.3763 C   0  0  0  0  0  0  0  0  0  0  0  0
  151.0665  139.1936  156.9701 C   0  0  0  0  0  0  0  0  0  0  0  0
  151.2959  140.3819  157.9278 C   0  0  0  0  0  0  0  0  0  0  0  0
  152.7047  140.4008  158.3792 N   0  3  0  0  0  0  0  0  0  0  0  0
  152.9319  140.0266  159.7929 C   0  0  1  0  0  0  0  0  0  0  0  0
  153.6129  138.6631  159.9495 C   0  0  0  0  0  0  0  0  0  0  0  0
  154.3041  138.7106  161.3197 C   0  0  0  0  0  0  0  0  0  0  0  0
  154.4004  140.1939  161.7115 C   0  0  0  0  0  0  0  0  0  0  0  0
  153.9095  140.9803  160.4873 C   0  0  2  0  0  0  0  0  0  0  0  0
  153.3176  142.2679  160.8174 N   0  0  0  0  0  0  0  0  0  0  0  0
  153.1493  142.8008  162.0893 C   0  0  0  0  0  0  0  0  0  0  0  0
  152.5673  144.0377  161.9266 C   0  0  0  0  0  0  0  0  0  0  0  0
  152.3721  144.2886  160.5713 N   0  0  0  0  0  0  0  0  0  0  0  0
  152.8391  143.1988  159.9773 C   0  0  0  0  0  0  0  0  0  0  0  0
  150.9009  141.7151  157.2515 C   0  0  0  0  0  0  0  0  0  0  0  0
  149.4910  141.6291  156.6391 C   0  0  0  0  0  0  0  0  0  0  0  0
  149.6249  139.6821  152.6008 H   0  0  0  0  0  0  0  0  0  0  0  0
  149.7477  138.7121  154.0534 H   0  0  0  0  0  0  0  0  0  0  0  0
  148.9070  139.1214  157.1723 H   0  0  0  0  0  0  0  0  0  0  0  0
  149.4991  138.3532  155.7349 H   0  0  0  0  0  0  0  0  0  0  0  0
  151.2277  138.2526  157.4972 H   0  0  0  0  0  0  0  0  0  0  0  0
  151.7953  139.2227  156.1585 H   0  0  0  0  0  0  0  0  0  0  0  0
  150.6542  140.2280  158.7963 H   0  0  0  0  0  0  0  0  0  0  0  0
  153.2340  139.7602  157.8052 H   0  0  0  0  0  0  0  0  0  0  0  0
  151.9890  140.0183  160.3403 H   0  0  0  0  0  0  0  0  0  0  0  0
  152.9106  137.8326  159.8710 H   0  0  0  0  0  0  0  0  0  0  0  0
  154.3668  138.5302  159.1718 H   0  0  0  0  0  0  0  0  0  0  0  0
  153.7209  138.1662  162.0634 H   0  0  0  0  0  0  0  0  0  0  0  0
  155.2881  138.2434  161.2743 H   0  0  0  0  0  0  0  0  0  0  0  0
  153.7641  140.3749  162.5784 H   0  0  0  0  0  0  0  0  0  0  0  0
  155.4149  140.4790  161.9918 H   0  0  0  0  0  0  0  0  0  0  0  0
  154.7639  141.1536  159.8299 H   0  0  0  0  0  0  0  0  0  0  0  0
  153.4485  142.2721  162.9824 H   0  0  0  0  0  0  0  0  0  0  0  0
  152.2786  144.7616  162.6745 H   0  0  0  0  0  0  0  0  0  0  0  0
  152.8360  143.0779  158.9039 H   0  0  0  0  0  0  0  0  0  0  0  0
  150.9316  142.5359  157.9678 H   0  0  0  0  0  0  0  0  0  0  0  0
  151.6199  141.9619  156.4683 H   0  0  0  0  0  0  0  0  0  0  0  0
  149.2260  142.5809  156.1762 H   0  0  0  0  0  0  0  0  0  0  0  0
  148.7499  141.4681  157.4234 H   0  0  0  0  0  0  0  0  0  0  0  0
  153.0641  141.3330  158.2299 H   0  0  0  0  0  0  0  0  0  0  0  0
  1  2  1  0  0  0  0
  1 21  1  0  0  0  0
  1 22  1  0  0  0  0
  2  3  2  0  0  0  0
  2  4  1  0  0  0  0
  4 20  1  0  0  0  0
  4  5  1  0  0  0  0
  5  6  1  0  0  0  0
  5 23  1  0  0  0  0
  5 24  1  0  0  0  0
  6  7  1  0  0  0  0
  6 25  1  0  0  0  0
  6 26  1  0  0  0  0
  7  8  1  0  0  0  0
  7 19  1  0  0  0  0
  7 27  1  0  0  0  0
  8  9  1  0  0  0  0
  8 28  1  0  0  0  0
  8 44  1  0  0  0  0
  9 13  1  0  0  0  0
  9 10  1  0  0  0  0
  9 29  1  0  0  0  0
 10 11  1  0  0  0  0
 10 30  1  0  0  0  0
 10 31  1  0  0  0  0
 11 12  1  0  0  0  0
 11 32  1  0  0  0  0
 11 33  1  0  0  0  0
 12 13  1  0  0  0  0
 12 34  1  0  0  0  0
 12 35  1  0  0  0  0
 13 14  1  0  0  0  0
 13 36  1  0  0  0  0
 14 18  1  0  0  0  0
 14 15  1  0  0  0  0
 15 16  2  0  0  0  0
 15 37  1  0  0  0  0
 16 17  1  0  0  0  0
 16 38  1  0  0  0  0
 17 18  2  0  0  0  0
 18 39  1  0  0  0  0
 19 20  1  0  0  0  0
 19 40  1  0  0  0  0
 19 41  1  0  0  0  0
 20 42  1  0  0  0  0
 20 43  1  0  0  0  0
M  CHG  1   8   1
M  END
> <s_m_source_file>
AV-unprocessed.smi

> <i_m_source_file_index>
862

> <i_lp_mmshare_version>
43012

> <i_f3d_flags>
0

> <s_epik_input>
W05IMl1DKD1PKU4xW0NIMl1bQ0gyXVtDSF0oW0NIMl1bQ0gyXTEpW05IXVtDQEBIXTJbQ0gyXVtDSDJdW0NIMl1bQ0BIXTJuM1tjSF1bY0hdbltjSF0z

> <s_epik_cmdline>
J2VwaWtfcHl0aG9uJywgJy1waCcsICc3LjAnLCAnLXRuJywgJzgnLCAnLW1hJywgJzIwMCcsICctbWV0YWxfYmluZGluZycsICctaW1hZScsICc8aW5maWxlLm1hZT4nLCAnLW9tYWUnLCAnPG91dGZpbGUubWFlPic=

> <r_lp_tautomer_probability>
1

> <r_epik_Ionization_Penalty>
0.0731506

> <r_epik_Ionization_Penalty_Charging>
0.0731

> <r_epik_Ionization_Penalty_Neutral>
5.05966e-05

> <r_epik_State_Penalty>
0.128895

> <r_epik_Charging_Adjusted_Penalty>
0.201995

> <i_epik_Tot_Q>
1

> <i_epik_Tot_abs_Q>
1

> <r_epik_Metal_State_Penalty>
0.113934

> <b_epik_Metal_Only>
0

> <s_lp_Force_Field>
OPLS_2005

> <r_lp_Energy>
55.4297

> <b_lp_Chiralities_Consistent>
1

> <s_lp_Variant>
AV-unprocessed.smi:862-4

> <Gold.Version>
5.8.1

> <Gold.Id.Protein>
6NUR|6NUR_protein|mol2

> <Gold.PLP.Fitness>
43.1730

> <Gold.PLP.PLP>
-40.7374

> <Gold.PLP.part.hbond>
-3.0000

> <Gold.PLP.part.metal>
0.0000

> <Gold.PLP.part.buried>
-5.6992

> <Gold.PLP.part.nonpolar>
-32.3011

> <Gold.PLP.part.repulsive>
0.8474

> <Gold.PLP.ligand.clash>
0.0000

> <Gold.PLP.ligand.torsion>
1.4116

> <Gold.PLP.Chemscore.Hbond>
1.7360

> <Gold.PLP.Chemscore.CHOScore>
0.0000

> <Gold.PLP.Chemscore.Metal>
0.0000

> <Gold.Chemscore.Hbonds>
donor molecule, donor type, donor heavy atom, donor atom, acceptor molecule, acceptor atom, score
      L1  H     1    21       P1  7957  0.88
      P1  H  8011  8017       L1     3  0.58

> <Gold.PLP.Chemscore.Internal.Correction>
0.0508

> <Gold.Rescore>
     Score         DG    S(hbond)    S(metal)    S(lipo)     H(rot)  DE(clash)    DE(int)     intcor
     15.42     -16.91       1.72        0.00      84.37       1.64       0.06       1.43       ----

> <Gold.Chemscore.Fitness>
15.4221

> <Gold.Chemscore.DG>
-16.9090

> <Gold.Chemscore.ZeroCoef>
-5.4800

> <Gold.Chemscore.Hbond>
1.7244

> <Gold.Chemscore.Metal>
0.0000

> <Gold.Chemscore.Lipo>
84.3663

> <Gold.Chemscore.Internal_Hbond>
0.0000

> <Gold.Chemscore.DEClash>
0.0611

> <Gold.Chemscore.DEInternal>
1.4258

> <Gold.Chemscore.Rot>
1.6411

> <Gold.Chemscore.Internal.Correction>
   9.000000E+99

> <Gold.Chemscore.Hbonds>
donor molecule, donor type, donor heavy atom, donor atom, acceptor molecule, acceptor atom, score
      L1  H     1    21       P1  7957  0.86
      P1  H  8011  8017       L1     3  0.58

> <Gold.Chemscore.Hbond.Weighted>
-5.7594

> <Gold.Chemscore.Metal.Weighted>
-0.0000

> <Gold.Chemscore.Lipo.Weighted>
-9.8709

> <Gold.Chemscore.Internal_Hbond.Weighted>
0.0000

> <Gold.Chemscore.DEClash.Weighted>
0.0611

> <Gold.Chemscore.DEInternal.Weighted>
1.4258

> <Gold.Chemscore.Rot.Weighted>
4.2013

> <Gold.Chemscore.Internal.Correction.Weighted>
   9.000000E+99

> <Gold.Protein.RotatedTorsions>
[ 6907 6896 6895 6894 ] final -103.60 input  -60.11 | X-H torsion
[ 7974 7965 7964 7962 ] final  -16.86 input  175.53 | X-H torsion
[ 8008 7997 7996 7995 ] final  -94.99 input   59.86 | X-H torsion
[ 10167 10162 10161 10158 ] final   57.59 input  -65.29 | X-H torsion
[ 10718 10713 10712 10709 ] final   10.57 input   66.30 | X-H torsion
[ 10763 10752 10751 10750 ] final  146.82 input  -60.55 | X-H torsion
[ 11005 11000 10999 10996 ] final   62.21 input  -57.11 | X-H torsion

> <Gold.Protein.ActiveResidues>
 VAL166  LYS551  ARG553  GLY616  TRP617  ASP618  TYR619  PRO620  LYS621  CYS622 
 ASP623  PHE694  ASN695  SER759  ASP760  ASP761  ALA762  ILE779  LEU786  VAL792 
 PHE793  MET794  SER795  GLU796  ALA797  LYS798  CYS799  TRP800  GLU811  SER814 

> <Gold.Protein.RotatedAtoms>
  150.7248  134.0405  159.3763 H   0  0  0  0  0  0  0  0  0  0  0  0  # atno 6907 bound_to 6896
  151.8378  135.0598  160.0454 H   0  0  0  0  0  0  0  0  0  0  0  0  # atno 6908 bound_to 6896
  152.2885  133.5502  159.5579 H   0  0  0  0  0  0  0  0  0  0  0  0  # atno 6909 bound_to 6896
  146.1968  140.3697  142.8438 H   0  0  0  0  0  0  0  0  0  0  0  0  # atno 7974 bound_to 7965
  154.7555  140.0484  157.0929 H   0  0  0  0  0  0  0  0  0  0  0  0  # atno 8008 bound_to 7997
  155.0003  140.3124  155.4850 H   0  0  0  0  0  0  0  0  0  0  0  0  # atno 8009 bound_to 7997
  156.2894  140.2202  156.5113 H   0  0  0  0  0  0  0  0  0  0  0  0  # atno 8010 bound_to 7997
  140.1964  144.4033  150.6548 H   0  0  0  0  0  0  0  0  0  0  0  0  # atno 10167 bound_to 10162
  156.9829  130.6012  149.5678 H   0  0  0  0  0  0  0  0  0  0  0  0  # atno 10718 bound_to 10713
  154.0282  135.2900  155.3372 H   0  0  0  0  0  0  0  0  0  0  0  0  # atno 10763 bound_to 10752
  154.7004  135.5190  153.8522 H   0  0  0  0  0  0  0  0  0  0  0  0  # atno 10764 bound_to 10752
  153.0651  135.6628  154.0497 H   0  0  0  0  0  0  0  0  0  0  0  0  # atno 10765 bound_to 10752
  140.0108  134.6300  155.9784 H   0  0  0  0  0  0  0  0  0  0  0  0  # atno 11005 bound_to 11000
  144.8597  140.7121  143.6115 LP  0  0  0  0  0  0  0  0  0  0  0  0  # atno 17320 bound_to 7965
  145.3617  139.1680  143.4379 LP  0  0  0  0  0  0  0  0  0  0  0  0  # atno 17321 bound_to 7965
  140.6421  143.2205  151.6267 LP  0  0  0  0  0  0  0  0  0  0  0  0  # atno 17342 bound_to 10162
  139.5235  144.3131  152.0975 LP  0  0  0  0  0  0  0  0  0  0  0  0  # atno 17343 bound_to 10162
  156.0237  130.5332  150.8348 LP  0  0  0  0  0  0  0  0  0  0  0  0  # atno 17370 bound_to 10713
  157.5514  131.0944  150.9691 LP  0  0  0  0  0  0  0  0  0  0  0  0  # atno 17371 bound_to 10713
  141.1709  133.6537  156.4649 LP  0  0  0  0  0  0  0  0  0  0  0  0  # atno 17394 bound_to 11000
  140.4558  134.6886  157.5062 LP  0  0  0  0  0  0  0  0  0  0  0  0  # atno 17395 bound_to 11000

$$$$
