AV-unprocessed.smi:1794|AV-procd|sdf|7233|dock8
  -GOLD-   22720 8473D 1   1.00000     0.00000
 Structure written by MMmdl.
 55 57  0  0  0  0  0  0  0  0  2 V2000
  144.3050  141.2388  155.8876 C   0  0  0  0  0  0  0  0  0  0  0  0
  144.5967  142.7272  155.5691 C   0  0  0  0  0  0  0  0  0  0  0  0
  144.8016  143.4248  156.9372 C   0  0  0  0  0  0  0  0  0  0  0  0
  145.8937  142.8595  154.7143 C   0  0  0  0  0  0  0  0  0  0  0  0
  147.0818  142.3241  155.3788 N   0  0  0  0  0  0  0  0  0  0  0  0
  148.0691  141.6398  154.7831 C   0  0  0  0  0  0  0  0  0  0  0  0
  148.0928  141.4053  153.5759 O   0  0  0  0  0  0  0  0  0  0  0  0
  148.9913  141.2538  155.6817 N   0  0  0  0  0  0  0  0  0  0  0  0
  150.1690  140.4626  155.5220 C   0  0  0  0  0  0  0  0  0  0  0  0
  150.3088  139.4677  154.5205 C   0  0  0  0  0  0  0  0  0  0  0  0
  151.4868  138.7030  154.4642 C   0  0  0  0  0  0  0  0  0  0  0  0
  152.4890  138.9518  155.4152 C   0  0  0  0  0  0  0  0  0  0  0  0
  152.3765  139.8946  156.3707 N   0  0  0  0  0  0  0  0  0  0  0  0
  151.2522  140.6496  156.4296 C   0  0  0  0  0  0  0  0  0  0  0  0
  151.1996  141.6384  157.4384 N   0  0  0  0  0  0  0  0  0  0  0  0
  151.9910  141.4953  158.6566 C   0  0  0  0  0  0  0  0  0  0  0  0
  152.0375  142.8935  159.2665 C   0  0  0  0  0  0  0  0  0  0  0  0
  152.0876  143.7850  158.0301 C   0  0  0  0  0  0  0  0  0  0  0  0
  151.2279  143.0335  157.0086 C   0  0  0  0  0  0  0  0  0  0  0  0
  143.4085  143.3290  154.8625 N   0  3  0  0  0  0  0  0  0  0  0  0
  142.0700  142.8736  155.3348 C   0  0  0  0  0  0  0  0  0  0  0  0
  140.9612  143.4089  154.4134 C   0  0  0  0  0  0  0  0  0  0  0  0
  141.0202  144.8272  154.3663 O   0  0  0  0  0  0  0  0  0  0  0  0
  142.2562  145.2830  153.8354 C   0  0  0  0  0  0  0  0  0  0  0  0
  143.4116  144.8143  154.7357 C   0  0  0  0  0  0  0  0  0  0  0  0
  145.0337  140.8224  156.5837 H   0  0  0  0  0  0  0  0  0  0  0  0
  144.3431  140.6098  154.9986 H   0  0  0  0  0  0  0  0  0  0  0  0
  143.3233  141.1146  156.3463 H   0  0  0  0  0  0  0  0  0  0  0  0
  145.5216  142.8909  157.5585 H   0  0  0  0  0  0  0  0  0  0  0  0
  143.8696  143.4750  157.5016 H   0  0  0  0  0  0  0  0  0  0  0  0
  145.1877  144.4386  156.8333 H   0  0  0  0  0  0  0  0  0  0  0  0
  145.7726  142.3842  153.7405 H   0  0  0  0  0  0  0  0  0  0  0  0
  146.1073  143.9075  154.5075 H   0  0  0  0  0  0  0  0  0  0  0  0
  147.1472  142.4726  156.3753 H   0  0  0  0  0  0  0  0  0  0  0  0
  148.8146  141.5444  156.6321 H   0  0  0  0  0  0  0  0  0  0  0  0
  149.5430  139.2583  153.7928 H   0  0  0  0  0  0  0  0  0  0  0  0
  151.6144  137.9380  153.7126 H   0  0  0  0  0  0  0  0  0  0  0  0
  153.4055  138.3806  155.4087 H   0  0  0  0  0  0  0  0  0  0  0  0
  151.5415  140.7717  159.3371 H   0  0  0  0  0  0  0  0  0  0  0  0
  153.0064  141.1680  158.4305 H   0  0  0  0  0  0  0  0  0  0  0  0
  151.1238  143.0873  159.8300 H   0  0  0  0  0  0  0  0  0  0  0  0
  152.8874  143.0384  159.9340 H   0  0  0  0  0  0  0  0  0  0  0  0
  151.7331  144.7984  158.2193 H   0  0  0  0  0  0  0  0  0  0  0  0
  153.1145  143.8496  157.6680 H   0  0  0  0  0  0  0  0  0  0  0  0
  151.6208  143.1467  155.9972 H   0  0  0  0  0  0  0  0  0  0  0  0
  150.2103  143.4243  157.0211 H   0  0  0  0  0  0  0  0  0  0  0  0
  141.9956  141.7882  155.3452 H   0  0  0  0  0  0  0  0  0  0  0  0
  141.8900  143.2195  156.3527 H   0  0  0  0  0  0  0  0  0  0  0  0
  141.0548  142.9934  153.4085 H   0  0  0  0  0  0  0  0  0  0  0  0
  139.9830  143.1099  154.7907 H   0  0  0  0  0  0  0  0  0  0  0  0
  142.3852  144.9208  152.8141 H   0  0  0  0  0  0  0  0  0  0  0  0
  142.2377  146.3719  153.7860 H   0  0  0  0  0  0  0  0  0  0  0  0
  143.3125  145.2790  155.7168 H   0  0  0  0  0  0  0  0  0  0  0  0
  144.3392  145.1789  154.2993 H   0  0  0  0  0  0  0  0  0  0  0  0
  143.4808  142.9866  153.9150 H   0  0  0  0  0  0  0  0  0  0  0  0
  1  2  1  0  0  0  0
  1 26  1  0  0  0  0
  1 27  1  0  0  0  0
  1 28  1  0  0  0  0
  2  3  1  0  0  0  0
  2  4  1  0  0  0  0
  2 20  1  0  0  0  0
  3 29  1  0  0  0  0
  3 30  1  0  0  0  0
  3 31  1  0  0  0  0
  4  5  1  0  0  0  0
  4 32  1  0  0  0  0
  4 33  1  0  0  0  0
  5  6  1  0  0  0  0
  5 34  1  0  0  0  0
  6  7  2  0  0  0  0
  6  8  1  0  0  0  0
  8  9  1  0  0  0  0
  8 35  1  0  0  0  0
  9 14  1  0  0  0  0
  9 10  2  0  0  0  0
 10 11  1  0  0  0  0
 10 36  1  0  0  0  0
 11 12  2  0  0  0  0
 11 37  1  0  0  0  0
 12 13  1  0  0  0  0
 12 38  1  0  0  0  0
 13 14  2  0  0  0  0
 14 15  1  0  0  0  0
 15 19  1  0  0  0  0
 15 16  1  0  0  0  0
 16 17  1  0  0  0  0
 16 39  1  0  0  0  0
 16 40  1  0  0  0  0
 17 18  1  0  0  0  0
 17 41  1  0  0  0  0
 17 42  1  0  0  0  0
 18 19  1  0  0  0  0
 18 43  1  0  0  0  0
 18 44  1  0  0  0  0
 19 45  1  0  0  0  0
 19 46  1  0  0  0  0
 20 25  1  0  0  0  0
 20 21  1  0  0  0  0
 20 55  1  0  0  0  0
 21 22  1  0  0  0  0
 21 47  1  0  0  0  0
 21 48  1  0  0  0  0
 22 23  1  0  0  0  0
 22 49  1  0  0  0  0
 22 50  1  0  0  0  0
 23 24  1  0  0  0  0
 24 25  1  0  0  0  0
 24 51  1  0  0  0  0
 24 52  1  0  0  0  0
 25 53  1  0  0  0  0
 25 54  1  0  0  0  0
M  CHG  1  20   1
M  END
> <s_m_source_file>
AV-unprocessed.smi

> <i_m_source_file_index>
1794

> <i_lp_mmshare_version>
43012

> <i_f3d_flags>
0

> <s_epik_input>
W0NIMl0xW0NIMl1PW0NIMl1bQ0gyXU4xQyhbQ0gzXSkoW0NIM10pW0NIMl1bTkhdQyg9TylbTkhdYzJbY0hdW2NIXVtjSF1uYzJOM1tDSDJdW0NIMl1bQ0gyXVtDSDJdMw==

> <s_epik_cmdline>
J2VwaWtfcHl0aG9uJywgJy1waCcsICc3LjAnLCAnLXRuJywgJzgnLCAnLW1hJywgJzIwMCcsICctbWV0YWxfYmluZGluZycsICctaW1hZScsICc8aW5maWxlLm1hZT4nLCAnLW9tYWUnLCAnPG91dGZpbGUubWFlPic=

> <r_lp_tautomer_probability>
1

> <r_epik_Ionization_Penalty>
0.687101

> <r_epik_Ionization_Penalty_Charging>
0.602531

> <r_epik_Ionization_Penalty_Neutral>
0.0845706

> <r_epik_State_Penalty>
0.681137

> <r_epik_Charging_Adjusted_Penalty>
1.28367

> <i_epik_Tot_Q>
1

> <i_epik_Tot_abs_Q>
1

> <r_epik_Metal_State_Penalty>
0.680055

> <b_epik_Metal_Only>
0

> <s_lp_Force_Field>
OPLS_2005

> <r_lp_Energy>
53.5269

> <b_lp_Chiralities_Consistent>
1

> <s_lp_Variant>
AV-unprocessed.smi:1794-2

> <Gold.Version>
5.8.1

> <Gold.Id.Protein>
6NUR|6NUR_protein|mol2

> <Gold.PLP.Fitness>
43.4187

> <Gold.PLP.PLP>
-38.4958

> <Gold.PLP.part.hbond>
-3.8829

> <Gold.PLP.part.metal>
0.0000

> <Gold.PLP.part.buried>
0.9819

> <Gold.PLP.part.nonpolar>
-34.7597

> <Gold.PLP.part.repulsive>
0.4287

> <Gold.PLP.ligand.clash>
0.0000

> <Gold.PLP.ligand.torsion>
1.0939

> <Gold.PLP.Chemscore.Hbond>
2.2337

> <Gold.PLP.Chemscore.CHOScore>
0.0000

> <Gold.PLP.Chemscore.Metal>
0.0000

> <Gold.Chemscore.Hbonds>
donor molecule, donor type, donor heavy atom, donor atom, acceptor molecule, acceptor atom, score
      L1  H    20    55       P1 10174  2.00
      P1  H  8011  8017       L1     7  0.18

> <Gold.PLP.Chemscore.Internal.Correction>
0.4097

> <Gold.Rescore>
     Score         DG    S(hbond)    S(metal)    S(lipo)     H(rot)  DE(clash)    DE(int)     intcor
     13.75     -14.98       0.98        0.00      88.41       1.60       0.20       1.03       ----

> <Gold.Chemscore.Fitness>
13.7535

> <Gold.Chemscore.DG>
-14.9810

> <Gold.Chemscore.ZeroCoef>
-5.4800

> <Gold.Chemscore.Hbond>
0.9773

> <Gold.Chemscore.Metal>
0.0000

> <Gold.Chemscore.Lipo>
88.4110

> <Gold.Chemscore.Internal_Hbond>
0.0000

> <Gold.Chemscore.DEClash>
0.1998

> <Gold.Chemscore.DEInternal>
1.0277

> <Gold.Chemscore.Rot>
1.6044

> <Gold.Chemscore.Internal.Correction>
   9.000000E+99

> <Gold.Chemscore.Hbonds>
donor molecule, donor type, donor heavy atom, donor atom, acceptor molecule, acceptor atom, score
      L1  H    20    55       P1 10174  0.36
      P1  H  8011  8017       L1     7  0.16

> <Gold.Chemscore.Hbond.Weighted>
-3.2641

> <Gold.Chemscore.Metal.Weighted>
-0.0000

> <Gold.Chemscore.Lipo.Weighted>
-10.3441

> <Gold.Chemscore.Internal_Hbond.Weighted>
0.0000

> <Gold.Chemscore.DEClash.Weighted>
0.1998

> <Gold.Chemscore.DEInternal.Weighted>
1.0277

> <Gold.Chemscore.Rot.Weighted>
4.1072

> <Gold.Chemscore.Internal.Correction.Weighted>
   9.000000E+99

> <Gold.Protein.RotatedTorsions>
[ 6907 6896 6895 6894 ] final   55.82 input  -60.11 | X-H torsion
[ 7974 7965 7964 7962 ] final  128.49 input  175.53 | X-H torsion
[ 8008 7997 7996 7995 ] final   -0.66 input   59.86 | X-H torsion
[ 10167 10162 10161 10158 ] final   52.07 input  -65.29 | X-H torsion
[ 10718 10713 10712 10709 ] final  106.46 input   66.30 | X-H torsion
[ 10763 10752 10751 10750 ] final  172.29 input  -60.55 | X-H torsion
[ 11005 11000 10999 10996 ] final   46.75 input  -57.11 | X-H torsion

> <Gold.Protein.ActiveResidues>
 VAL166  LYS551  ARG553  GLY616  TRP617  ASP618  TYR619  PRO620  LYS621  CYS622 
 ASP623  PHE694  ASN695  SER759  ASP760  ASP761  ALA762  ILE779  LEU786  VAL792 
 PHE793  MET794  SER795  GLU796  ALA797  LYS798  CYS799  TRP800  GLU811  SER814 

> <Gold.Protein.RotatedAtoms>
  152.3576  134.6918  160.0217 H   0  0  0  0  0  0  0  0  0  0  0  0  # atno 6907 bound_to 6896
  151.7252  133.3310  159.3334 H   0  0  0  0  0  0  0  0  0  0  0  0  # atno 6908 bound_to 6896
  150.7582  134.6346  159.6249 H   0  0  0  0  0  0  0  0  0  0  0  0  # atno 6909 bound_to 6896
  145.0390  139.3979  143.5111 H   0  0  0  0  0  0  0  0  0  0  0  0  # atno 7974 bound_to 7965
  154.6555  140.2578  155.7166 H   0  0  0  0  0  0  0  0  0  0  0  0  # atno 8008 bound_to 7997
  156.2595  140.2859  156.0927 H   0  0  0  0  0  0  0  0  0  0  0  0  # atno 8009 bound_to 7997
  155.1386  140.0380  157.2783 H   0  0  0  0  0  0  0  0  0  0  0  0  # atno 8010 bound_to 7997
  140.2553  144.3434  150.6335 H   0  0  0  0  0  0  0  0  0  0  0  0  # atno 10167 bound_to 10162
  157.6667  131.0851  150.6010 H   0  0  0  0  0  0  0  0  0  0  0  0  # atno 10718 bound_to 10713
  154.4239  135.2758  155.1957 H   0  0  0  0  0  0  0  0  0  0  0  0  # atno 10763 bound_to 10752
  154.3891  135.6070  153.5837 H   0  0  0  0  0  0  0  0  0  0  0  0  # atno 10764 bound_to 10752
  152.9834  135.5899  154.4540 H   0  0  0  0  0  0  0  0  0  0  0  0  # atno 10765 bound_to 10752
  140.1340  134.4668  155.8499 H   0  0  0  0  0  0  0  0  0  0  0  0  # atno 11005 bound_to 11000
  146.3507  139.9981  142.8679 LP  0  0  0  0  0  0  0  0  0  0  0  0  # atno 17320 bound_to 7965
  145.1672  140.9703  143.4343 LP  0  0  0  0  0  0  0  0  0  0  0  0  # atno 17321 bound_to 7965
  140.6009  143.2167  151.7075 LP  0  0  0  0  0  0  0  0  0  0  0  0  # atno 17342 bound_to 10162
  139.5033  144.3795  152.0390 LP  0  0  0  0  0  0  0  0  0  0  0  0  # atno 17343 bound_to 10162
  156.6311  130.4432  149.5786 LP  0  0  0  0  0  0  0  0  0  0  0  0  # atno 17370 bound_to 10713
  156.2281  130.6778  151.1436 LP  0  0  0  0  0  0  0  0  0  0  0  0  # atno 17371 bound_to 10713
  141.2175  133.6807  156.7123 LP  0  0  0  0  0  0  0  0  0  0  0  0  # atno 17394 bound_to 11000
  140.2806  134.8320  157.3929 LP  0  0  0  0  0  0  0  0  0  0  0  0  # atno 17395 bound_to 11000

$$$$
