AV-unprocessed.smi:195|AV-procd|sdf|1524|dock8
  -GOLD-   2262019373D 1   1.00000     0.00000
 Structure written by MMmdl.
 45 48  0  0  0  0  0  0  0  0  1 V2000
  152.0869  136.6726  155.5376 N   0  0  0  0  0  0  0  0  0  0  0  0
  151.4103  137.3745  154.9148 C   0  0  0  0  0  0  0  0  0  0  0  0
  150.5487  138.2663  154.1225 C   0  0  0  0  0  0  0  0  0  0  0  0
  150.2778  139.6121  154.8011 C   0  0  0  0  0  0  0  0  0  0  0  0
  151.4978  140.3170  154.7060 O   0  0  0  0  0  0  0  0  0  0  0  0
  149.0404  140.3929  154.3485 C   0  0  0  0  0  0  0  0  0  0  0  0
  148.3646  139.9164  155.5528 N   0  0  0  0  0  0  0  0  0  0  0  0
  147.4570  138.8367  155.3140 C   0  0  0  0  0  0  0  0  0  0  0  0
  147.0272  138.0465  156.3349 N   0  0  0  0  0  0  0  0  0  0  0  0
  146.1755  137.0397  156.1209 C   0  0  0  0  0  0  0  0  0  0  0  0
  145.6203  136.6487  154.9738 N   0  0  0  0  0  0  0  0  0  0  0  0
  146.0238  137.4415  153.9417 C   0  0  0  0  0  0  0  0  0  0  0  0
  146.9211  138.5441  154.0265 C   0  0  0  0  0  0  0  0  0  0  0  0
  147.0802  139.1180  152.7707 N   0  0  0  0  0  0  0  0  0  0  0  0
  146.3281  138.3933  151.9887 C   0  0  0  0  0  0  0  0  0  0  0  0
  145.6737  137.3510  152.6056 N   0  0  0  0  0  0  0  0  0  0  0  0
  144.7757  136.3962  151.9781 C   0  0  0  0  0  0  0  0  0  0  0  0
  145.4770  135.4439  150.9821 C   0  0  2  0  0  0  0  0  0  0  0  0
  144.9398  135.7532  149.7119 O   0  0  0  0  0  0  0  0  0  0  0  0
  145.2368  133.9352  151.2233 C   0  0  2  0  0  0  0  0  0  0  0  0
  145.9624  132.9737  150.2793 C   0  0  0  0  0  0  0  0  0  0  0  0
  145.1105  131.7166  150.3183 C   0  0  0  0  0  0  0  0  0  0  0  0
  143.7626  132.2057  150.8505 C   0  0  0  0  0  0  0  0  0  0  0  0
  143.8847  133.6194  150.9225 O   0  0  0  0  0  0  0  0  0  0  0  0
  149.6416  139.6021  156.1950 C   0  0  0  0  0  0  0  0  0  0  0  0
  151.0134  138.4038  153.1457 H   0  0  0  0  0  0  0  0  0  0  0  0
  149.6190  137.7264  153.9445 H   0  0  0  0  0  0  0  0  0  0  0  0
  151.9797  140.1433  155.5004 H   0  0  0  0  0  0  0  0  0  0  0  0
  149.1789  141.4749  154.3630 H   0  0  0  0  0  0  0  0  0  0  0  0
  148.6207  140.0509  153.4017 H   0  0  0  0  0  0  0  0  0  0  0  0
  145.9002  136.4664  156.9939 H   0  0  0  0  0  0  0  0  0  0  0  0
  146.2353  138.5973  150.9317 H   0  0  0  0  0  0  0  0  0  0  0  0
  144.2581  135.8247  152.7494 H   0  0  0  0  0  0  0  0  0  0  0  0
  144.0107  136.9775  151.4611 H   0  0  0  0  0  0  0  0  0  0  0  0
  146.5469  135.6536  150.9561 H   0  0  0  0  0  0  0  0  0  0  0  0
  144.3540  136.4889  149.8048 H   0  0  0  0  0  0  0  0  0  0  0  0
  145.4561  133.6660  152.2587 H   0  0  0  0  0  0  0  0  0  0  0  0
  145.9699  133.3734  149.2642 H   0  0  0  0  0  0  0  0  0  0  0  0
  146.9920  132.7817  150.5790 H   0  0  0  0  0  0  0  0  0  0  0  0
  145.0231  131.2662  149.3290 H   0  0  0  0  0  0  0  0  0  0  0  0
  145.5373  130.9722  150.9916 H   0  0  0  0  0  0  0  0  0  0  0  0
  142.9301  131.9205  150.2070 H   0  0  0  0  0  0  0  0  0  0  0  0
  143.5750  131.8075  151.8486 H   0  0  0  0  0  0  0  0  0  0  0  0
  149.7118  138.6531  156.7263 H   0  0  0  0  0  0  0  0  0  0  0  0
  149.9812  140.4269  156.8233 H   0  0  0  0  0  0  0  0  0  0  0  0
  1  2  3  0  0  0  0
  2  3  1  0  0  0  0
  3  4  1  0  0  0  0
  3 26  1  0  0  0  0
  3 27  1  0  0  0  0
  4 25  1  0  0  0  0
  4  5  1  0  0  0  0
  4  6  1  0  0  0  0
  5 28  1  0  0  0  0
  6  7  1  0  0  0  0
  6 29  1  0  0  0  0
  6 30  1  0  0  0  0
  7  8  1  0  0  0  0
  7 25  1  0  0  0  0
  8 13  1  0  0  0  0
  8  9  2  0  0  0  0
  9 10  1  0  0  0  0
 10 11  2  0  0  0  0
 10 31  1  0  0  0  0
 11 12  1  0  0  0  0
 12 16  1  0  0  0  0
 12 13  2  0  0  0  0
 13 14  1  0  0  0  0
 14 15  2  0  0  0  0
 15 16  1  0  0  0  0
 15 32  1  0  0  0  0
 16 17  1  0  0  0  0
 17 18  1  0  0  0  0
 17 33  1  0  0  0  0
 17 34  1  0  0  0  0
 18 19  1  0  0  0  0
 18 20  1  0  0  0  0
 18 35  1  0  0  0  0
 19 36  1  0  0  0  0
 20 24  1  0  0  0  0
 20 21  1  0  0  0  0
 20 37  1  0  0  0  0
 21 22  1  0  0  0  0
 21 38  1  0  0  0  0
 21 39  1  0  0  0  0
 22 23  1  0  0  0  0
 22 40  1  0  0  0  0
 22 41  1  0  0  0  0
 23 24  1  0  0  0  0
 23 42  1  0  0  0  0
 23 43  1  0  0  0  0
 25 44  1  0  0  0  0
 25 45  1  0  0  0  0
M  END
> <s_m_source_file>
AV-unprocessed.smi

> <i_m_source_file_index>
195

> <i_lp_mmshare_version>
43012

> <i_f3d_flags>
0

> <s_epik_input>
TiNDW0NIMl1DMShbT0hdKVtDSDJdTihbQ0gyXTEpYyhuW2NIXW4yKWMoYzIzKW5bY0hdbjNbQ0gyXVtDQEhdKFtPSF0pW0NAQEhdNFtDSDJdW0NIMl1bQ0gyXU80

> <s_epik_cmdline>
J2VwaWtfcHl0aG9uJywgJy1waCcsICc3LjAnLCAnLXRuJywgJzgnLCAnLW1hJywgJzIwMCcsICctbWV0YWxfYmluZGluZycsICctaW1hZScsICc8aW5maWxlLm1hZT4nLCAnLW9tYWUnLCAnPG91dGZpbGUubWFlPic=

> <r_lp_tautomer_probability>
1

> <r_epik_Ionization_Penalty>
0.00307146

> <r_epik_Ionization_Penalty_Charging>
0

> <r_epik_Ionization_Penalty_Neutral>
0.00307146

> <r_epik_State_Penalty>
0.0020279

> <r_epik_Charging_Adjusted_Penalty>
0.0020279

> <i_epik_Tot_Q>
0

> <i_epik_Tot_abs_Q>
0

> <r_epik_Metal_State_Penalty>
-0

> <b_epik_Metal_Only>
0

> <s_lp_Force_Field>
OPLS_2005

> <r_lp_Energy>
46.5325

> <b_lp_Chiralities_Consistent>
1

> <s_lp_Variant>
AV-unprocessed.smi:195-1

> <Gold.Version>
5.8.1

> <Gold.Id.Protein>
6NUR|6NUR_protein|mol2

> <Gold.PLP.Fitness>
46.1240

> <Gold.PLP.PLP>
-37.7155

> <Gold.PLP.part.hbond>
-3.8549

> <Gold.PLP.part.metal>
0.0000

> <Gold.PLP.part.buried>
-5.9350

> <Gold.PLP.part.nonpolar>
-30.2754

> <Gold.PLP.part.repulsive>
0.7240

> <Gold.PLP.ligand.clash>
0.0000

> <Gold.PLP.ligand.torsion>
1.2618

> <Gold.PLP.Chemscore.Hbond>
3.0000

> <Gold.PLP.Chemscore.CHOScore>
0.5209

> <Gold.PLP.Chemscore.Metal>
0.0000

> <Gold.Chemscore.Hbonds>
donor molecule, donor type, donor heavy atom, donor atom, acceptor molecule, acceptor atom, score
      L1  H    19    36       P1 10171  0.76
      P1  H  7989  7998       L1     5  0.50
      P1  H 10752 10765       L1     1  1.00
      L1  C    15    32       P1 10171  0.67

> <Gold.PLP.Chemscore.Internal.Correction>
0.3693

> <Gold.Rescore>
     Score         DG    S(hbond)    S(metal)    S(lipo)     H(rot)  DE(clash)    DE(int)     intcor
     10.42     -13.52       2.78        0.00      70.84       3.72       0.27       2.83       ----

> <Gold.Chemscore.Fitness>
10.4168

> <Gold.Chemscore.DG>
-13.5169

> <Gold.Chemscore.ZeroCoef>
-5.4800

> <Gold.Chemscore.Hbond>
2.7769

> <Gold.Chemscore.Metal>
0.0000

> <Gold.Chemscore.Lipo>
70.8362

> <Gold.Chemscore.Internal_Hbond>
0.0000

> <Gold.Chemscore.DEClash>
0.2667

> <Gold.Chemscore.DEInternal>
2.8334

> <Gold.Chemscore.Rot>
3.7210

> <Gold.Chemscore.Internal.Correction>
   9.000000E+99

> <Gold.Chemscore.Hbonds>
donor molecule, donor type, donor heavy atom, donor atom, acceptor molecule, acceptor atom, score
      L1  H    19    36       P1 10171  0.73
      P1  H  7989  7998       L1     5  0.40
      P1  H 10752 10765       L1     1  0.97

> <Gold.Chemscore.Hbond.Weighted>
-9.2747

> <Gold.Chemscore.Metal.Weighted>
-0.0000

> <Gold.Chemscore.Lipo.Weighted>
-8.2878

> <Gold.Chemscore.Internal_Hbond.Weighted>
0.0000

> <Gold.Chemscore.DEClash.Weighted>
0.2667

> <Gold.Chemscore.DEInternal.Weighted>
2.8334

> <Gold.Chemscore.Rot.Weighted>
9.5256

> <Gold.Chemscore.Internal.Correction.Weighted>
   9.000000E+99

> <Gold.Protein.RotatedTorsions>
[ 6907 6896 6895 6894 ] final -171.47 input  -60.11 | X-H torsion
[ 7974 7965 7964 7962 ] final -166.01 input  175.53 | X-H torsion
[ 8008 7997 7996 7995 ] final -113.41 input   59.86 | X-H torsion
[ 10167 10162 10161 10158 ] final  -40.25 input  -65.29 | X-H torsion
[ 10718 10713 10712 10709 ] final  167.76 input   66.30 | X-H torsion
[ 10763 10752 10751 10750 ] final -158.73 input  -60.55 | X-H torsion
[ 11005 11000 10999 10996 ] final   -0.79 input  -57.11 | X-H torsion

> <Gold.Protein.ActiveResidues>
 VAL166  LYS551  ARG553  GLY616  TRP617  ASP618  TYR619  PRO620  LYS621  CYS622 
 ASP623  PHE694  ASN695  SER759  ASP760  ASP761  ALA762  ILE779  LEU786  VAL792 
 PHE793  MET794  SER795  GLU796  ALA797  LYS798  CYS799  TRP800  GLU811  SER814 

> <Gold.Protein.RotatedAtoms>
  151.5243  133.3460  159.2906 H   0  0  0  0  0  0  0  0  0  0  0  0  # atno 6907 bound_to 6896
  150.8633  134.7992  159.7110 H   0  0  0  0  0  0  0  0  0  0  0  0  # atno 6908 bound_to 6896
  152.4645  134.5116  159.9807 H   0  0  0  0  0  0  0  0  0  0  0  0  # atno 6909 bound_to 6896
  144.7256  140.2730  143.6248 H   0  0  0  0  0  0  0  0  0  0  0  0  # atno 7974 bound_to 7965
  155.0203  140.0393  157.2434 H   0  0  0  0  0  0  0  0  0  0  0  0  # atno 8008 bound_to 7997
  154.7384  140.2744  155.6371 H   0  0  0  0  0  0  0  0  0  0  0  0  # atno 8009 bound_to 7997
  156.2858  140.2670  156.2104 H   0  0  0  0  0  0  0  0  0  0  0  0  # atno 8010 bound_to 7997
  140.7040  143.3165  151.2898 H   0  0  0  0  0  0  0  0  0  0  0  0  # atno 10167 bound_to 10162
  157.0469  131.0302  151.2694 H   0  0  0  0  0  0  0  0  0  0  0  0  # atno 10718 bound_to 10713
  154.7533  135.3098  154.8518 H   0  0  0  0  0  0  0  0  0  0  0  0  # atno 10763 bound_to 10752
  153.9299  135.6786  153.4750 H   0  0  0  0  0  0  0  0  0  0  0  0  # atno 10764 bound_to 10752
  153.1129  135.4858  154.8995 H   0  0  0  0  0  0  0  0  0  0  0  0  # atno 10765 bound_to 10752
  140.6402  133.9496  155.8322 H   0  0  0  0  0  0  0  0  0  0  0  0  # atno 11005 bound_to 11000
  145.8024  139.1970  143.2040 LP  0  0  0  0  0  0  0  0  0  0  0  0  # atno 17320 bound_to 7965
  146.0665  140.7915  142.9709 LP  0  0  0  0  0  0  0  0  0  0  0  0  # atno 17321 bound_to 7965
  139.6605  144.0199  152.2689 LP  0  0  0  0  0  0  0  0  0  0  0  0  # atno 17342 bound_to 10162
  139.9764  144.6458  150.7941 LP  0  0  0  0  0  0  0  0  0  0  0  0  # atno 17343 bound_to 10162
  157.5061  130.7909  149.7655 LP  0  0  0  0  0  0  0  0  0  0  0  0  # atno 17370 bound_to 10713
  156.0020  130.3875  150.2570 LP  0  0  0  0  0  0  0  0  0  0  0  0  # atno 17371 bound_to 10713
  141.0612  134.0343  157.3655 LP  0  0  0  0  0  0  0  0  0  0  0  0  # atno 17394 bound_to 11000
  139.9083  135.0185  156.7582 LP  0  0  0  0  0  0  0  0  0  0  0  0  # atno 17395 bound_to 11000

$$$$
