AV-unprocessed.smi:2061|AV-procd|sdf|8365|dock8
  -GOLD-   2272011 43D 1   1.00000     0.00000
 Structure written by MMmdl.
 45 46  0  0  0  0  0  0  0  0  1 V2000
  138.2419  137.1298  153.7933 C   0  0  0  0  0  0  0  0  0  0  0  0
  139.7210  137.1903  153.9639 C   0  0  0  0  0  0  0  0  0  0  0  0
  140.6632  138.1087  153.5943 C   0  0  0  0  0  0  0  0  0  0  0  0
  141.8723  137.5360  154.0714 C   0  0  0  0  0  0  0  0  0  0  0  0
  143.1140  138.1949  153.8825 N   0  0  0  0  0  0  0  0  0  0  0  0
  144.3208  137.8126  154.3339 C   0  0  0  0  0  0  0  0  0  0  0  0
  144.5372  136.8089  155.0132 O   0  0  0  0  0  0  0  0  0  0  0  0
  145.2761  138.6747  153.9549 N   0  0  0  0  0  0  0  0  0  0  0  0
  146.6982  138.5640  154.2738 C   0  0  0  0  0  0  0  0  0  0  0  0
  147.4433  139.9278  154.2132 C   0  0  1  0  0  0  0  0  0  0  0  0
  146.4874  141.0477  154.6995 C   0  0  0  0  0  0  0  0  0  0  0  0
  148.7349  139.9248  154.9418 N   0  0  0  0  0  0  0  0  0  0  0  0
  149.3251  141.2651  155.0395 C   0  0  0  0  0  0  0  0  0  0  0  0
  150.6824  141.2960  155.7697 C   0  0  1  0  0  0  0  0  0  0  0  0
  150.5603  141.1196  157.2930 C   0  0  0  0  0  0  0  0  0  0  0  0
  151.5786  140.3493  155.1933 O   0  0  0  0  0  0  0  0  0  0  0  0
  151.0672  139.0242  155.1045 C   0  0  2  0  0  0  0  0  0  0  0  0
  152.1232  138.1563  154.4118 C   0  0  0  0  0  0  0  0  0  0  0  0
  149.7326  139.0369  154.3368 C   0  0  0  0  0  0  0  0  0  0  0  0
  141.6852  136.3732  154.6765 N   0  0  0  0  0  0  0  0  0  0  0  0
  140.3057  136.1452  154.6101 O   0  0  0  0  0  0  0  0  0  0  0  0
  137.8471  138.0950  153.4755 H   0  0  0  0  0  0  0  0  0  0  0  0
  137.7542  136.8571  154.7294 H   0  0  0  0  0  0  0  0  0  0  0  0
  137.9704  136.3887  153.0412 H   0  0  0  0  0  0  0  0  0  0  0  0
  140.5087  139.0387  153.0678 H   0  0  0  0  0  0  0  0  0  0  0  0
  143.0798  139.0469  153.3428 H   0  0  0  0  0  0  0  0  0  0  0  0
  145.0003  139.4720  153.4005 H   0  0  0  0  0  0  0  0  0  0  0  0
  146.8570  138.0947  155.2462 H   0  0  0  0  0  0  0  0  0  0  0  0
  147.0866  137.8694  153.5315 H   0  0  0  0  0  0  0  0  0  0  0  0
  147.6538  140.1258  153.1609 H   0  0  0  0  0  0  0  0  0  0  0  0
  145.5310  141.0349  154.1788 H   0  0  0  0  0  0  0  0  0  0  0  0
  146.8853  142.0451  154.5211 H   0  0  0  0  0  0  0  0  0  0  0  0
  146.2800  140.9523  155.7659 H   0  0  0  0  0  0  0  0  0  0  0  0
  149.4556  141.6739  154.0363 H   0  0  0  0  0  0  0  0  0  0  0  0
  148.6617  141.9461  155.5688 H   0  0  0  0  0  0  0  0  0  0  0  0
  151.1278  142.2769  155.6010 H   0  0  0  0  0  0  0  0  0  0  0  0
  149.9690  141.9249  157.7294 H   0  0  0  0  0  0  0  0  0  0  0  0
  151.5422  141.1381  157.7662 H   0  0  0  0  0  0  0  0  0  0  0  0
  150.0765  140.1806  157.5609 H   0  0  0  0  0  0  0  0  0  0  0  0
  150.9060  138.6278  156.1074 H   0  0  0  0  0  0  0  0  0  0  0  0
  151.7894  137.1217  154.3296 H   0  0  0  0  0  0  0  0  0  0  0  0
  153.0580  138.1594  154.9729 H   0  0  0  0  0  0  0  0  0  0  0  0
  152.3369  138.5212  153.4068 H   0  0  0  0  0  0  0  0  0  0  0  0
  149.3740  138.0098  154.3211 H   0  0  0  0  0  0  0  0  0  0  0  0
  149.9064  139.3293  153.3000 H   0  0  0  0  0  0  0  0  0  0  0  0
  1  2  1  0  0  0  0
  1 22  1  0  0  0  0
  1 23  1  0  0  0  0
  1 24  1  0  0  0  0
  2 21  1  0  0  0  0
  2  3  2  0  0  0  0
  3  4  1  0  0  0  0
  3 25  1  0  0  0  0
  4  5  1  0  0  0  0
  4 20  2  0  0  0  0
  5  6  1  0  0  0  0
  5 26  1  0  0  0  0
  6  7  2  0  0  0  0
  6  8  1  0  0  0  0
  8  9  1  0  0  0  0
  8 27  1  0  0  0  0
  9 10  1  0  0  0  0
  9 28  1  0  0  0  0
  9 29  1  0  0  0  0
 10 11  1  0  0  0  0
 10 12  1  0  0  0  0
 10 30  1  0  0  0  0
 11 31  1  0  0  0  0
 11 32  1  0  0  0  0
 11 33  1  0  0  0  0
 12 19  1  0  0  0  0
 12 13  1  0  0  0  0
 13 14  1  0  0  0  0
 13 34  1  0  0  0  0
 13 35  1  0  0  0  0
 14 15  1  0  0  0  0
 14 16  1  0  0  0  0
 14 36  1  0  0  0  0
 15 37  1  0  0  0  0
 15 38  1  0  0  0  0
 15 39  1  0  0  0  0
 16 17  1  0  0  0  0
 17 18  1  0  0  0  0
 17 19  1  0  0  0  0
 17 40  1  0  0  0  0
 18 41  1  0  0  0  0
 18 42  1  0  0  0  0
 18 43  1  0  0  0  0
 19 44  1  0  0  0  0
 19 45  1  0  0  0  0
 20 21  1  0  0  0  0
M  END
> <s_m_source_file>
AV-unprocessed.smi

> <i_m_source_file_index>
2061

> <i_lp_mmshare_version>
43012

> <i_f3d_flags>
0

> <s_epik_input>
W0NIM11jMVtjSF1jKG5vMSlbTkhdQyg9TylbTkhdW0NIMl1bQ0BIXShbQ0gzXSlOMltDSDJdW0NAQEhdKFtDSDNdKU9bQ0BASF0oW0NIM10pW0NIMl0y

> <s_epik_cmdline>
J2VwaWtfcHl0aG9uJywgJy1waCcsICc3LjAnLCAnLXRuJywgJzgnLCAnLW1hJywgJzIwMCcsICctbWV0YWxfYmluZGluZycsICctaW1hZScsICc8aW5maWxlLm1hZT4nLCAnLW9tYWUnLCAnPG91dGZpbGUubWFlPic=

> <r_epik_Ionization_Penalty>
0.214073

> <r_epik_Ionization_Penalty_Charging>
0

> <r_epik_Ionization_Penalty_Neutral>
0.214073

> <r_epik_State_Penalty>
0.204211

> <r_epik_Charging_Adjusted_Penalty>
0.204211

> <i_epik_Tot_Q>
0

> <i_epik_Tot_abs_Q>
0

> <r_epik_Metal_State_Penalty>
0.217067

> <b_epik_Metal_Only>
0

> <s_lp_Force_Field>
OPLS_2005

> <r_lp_Energy>
29.5026

> <b_lp_Chiralities_Consistent>
1

> <s_lp_Variant>
AV-unprocessed.smi:2061-6

> <Gold.Version>
5.8.1

> <Gold.Id.Protein>
6NUR|6NUR_protein|mol2

> <Gold.PLP.Fitness>
45.4518

> <Gold.PLP.PLP>
-34.6452

> <Gold.PLP.part.hbond>
-4.1659

> <Gold.PLP.part.metal>
0.0000

> <Gold.PLP.part.buried>
-6.5300

> <Gold.PLP.part.nonpolar>
-24.8111

> <Gold.PLP.part.repulsive>
0.2090

> <Gold.PLP.ligand.clash>
0.0000

> <Gold.PLP.ligand.torsion>
0.4826

> <Gold.PLP.Chemscore.Hbond>
3.9120

> <Gold.PLP.Chemscore.CHOScore>
0.0000

> <Gold.PLP.Chemscore.Metal>
0.0000

> <Gold.Chemscore.Hbonds>
donor molecule, donor type, donor heavy atom, donor atom, acceptor molecule, acceptor atom, score
      L1  H     5    26       P1 10175  1.00
      L1  H     8    27       P1 10175  1.00
      P1  H  7989  7998       L1    16  0.90
      P1  H 11000 11005       L1    21  1.00

> <Gold.PLP.Chemscore.Internal.Correction>
0.0358

> <Gold.Rescore>
     Score         DG    S(hbond)    S(metal)    S(lipo)     H(rot)  DE(clash)    DE(int)     intcor
     18.00     -19.77       2.80        0.00      75.99       1.55       0.02       1.75       ----

> <Gold.Chemscore.Fitness>
18.0032

> <Gold.Chemscore.DG>
-19.7696

> <Gold.Chemscore.ZeroCoef>
-5.4800

> <Gold.Chemscore.Hbond>
2.8025

> <Gold.Chemscore.Metal>
0.0000

> <Gold.Chemscore.Lipo>
75.9877

> <Gold.Chemscore.Internal_Hbond>
0.0000

> <Gold.Chemscore.DEClash>
0.0183

> <Gold.Chemscore.DEInternal>
1.7481

> <Gold.Chemscore.Rot>
1.5474

> <Gold.Chemscore.Internal.Correction>
   9.000000E+99

> <Gold.Chemscore.Hbonds>
donor molecule, donor type, donor heavy atom, donor atom, acceptor molecule, acceptor atom, score
      L1  H     5    26       P1 10175  1.00
      L1  H     8    27       P1 10175  0.95
      P1  H  7989  7998       L1    16  0.14
      P1  H 11000 11005       L1    21  0.37

> <Gold.Chemscore.Hbond.Weighted>
-9.3603

> <Gold.Chemscore.Metal.Weighted>
-0.0000

> <Gold.Chemscore.Lipo.Weighted>
-8.8906

> <Gold.Chemscore.Internal_Hbond.Weighted>
0.0000

> <Gold.Chemscore.DEClash.Weighted>
0.0183

> <Gold.Chemscore.DEInternal.Weighted>
1.7481

> <Gold.Chemscore.Rot.Weighted>
3.9612

> <Gold.Chemscore.Internal.Correction.Weighted>
   9.000000E+99

> <Gold.Protein.RotatedTorsions>
[ 6907 6896 6895 6894 ] final -164.72 input  -60.11 | X-H torsion
[ 7974 7965 7964 7962 ] final -115.22 input  175.53 | X-H torsion
[ 8008 7997 7996 7995 ] final   67.47 input   59.86 | X-H torsion
[ 10167 10162 10161 10158 ] final   36.40 input  -65.29 | X-H torsion
[ 10718 10713 10712 10709 ] final  116.45 input   66.30 | X-H torsion
[ 10763 10752 10751 10750 ] final    0.41 input  -60.55 | X-H torsion
[ 11005 11000 10999 10996 ] final   58.79 input  -57.11 | X-H torsion

> <Gold.Protein.ActiveResidues>
 VAL166  LYS551  ARG553  GLY616  TRP617  ASP618  TYR619  PRO620  LYS621  CYS622 
 ASP623  PHE694  ASN695  SER759  ASP760  ASP761  ALA762  ILE779  LEU786  VAL792 
 PHE793  MET794  SER795  GLU796  ALA797  LYS798  CYS799  TRP800  GLU811  SER814 

> <Gold.Protein.RotatedAtoms>
  151.4163  133.3712  159.2750 H   0  0  0  0  0  0  0  0  0  0  0  0  # atno 6907 bound_to 6896
  150.9326  134.8741  159.7571 H   0  0  0  0  0  0  0  0  0  0  0  0  # atno 6908 bound_to 6896
  152.5035  134.4109  159.9500 H   0  0  0  0  0  0  0  0  0  0  0  0  # atno 6909 bound_to 6896
  145.1109  140.8611  143.3870 H   0  0  0  0  0  0  0  0  0  0  0  0  # atno 7974 bound_to 7965
  155.6934  140.3496  155.4903 H   0  0  0  0  0  0  0  0  0  0  0  0  # atno 8008 bound_to 7997
  155.9504  140.1118  157.1004 H   0  0  0  0  0  0  0  0  0  0  0  0  # atno 8009 bound_to 7997
  154.4121  140.1195  156.5031 H   0  0  0  0  0  0  0  0  0  0  0  0  # atno 8010 bound_to 7997
  140.4131  144.1565  150.6141 H   0  0  0  0  0  0  0  0  0  0  0  0  # atno 10167 bound_to 10162
  157.6160  131.1025  150.7474 H   0  0  0  0  0  0  0  0  0  0  0  0  # atno 10718 bound_to 10713
  153.3210  135.6969  153.7030 H   0  0  0  0  0  0  0  0  0  0  0  0  # atno 10763 bound_to 10752
  153.5870  135.3487  155.2897 H   0  0  0  0  0  0  0  0  0  0  0  0  # atno 10764 bound_to 10752
  154.8597  135.4309  154.2374 H   0  0  0  0  0  0  0  0  0  0  0  0  # atno 10765 bound_to 10752
  140.0351  134.5954  155.9454 H   0  0  0  0  0  0  0  0  0  0  0  0  # atno 11005 bound_to 11000
  145.0848  139.2933  143.5765 LP  0  0  0  0  0  0  0  0  0  0  0  0  # atno 17320 bound_to 7965
  146.3526  140.0366  142.8646 LP  0  0  0  0  0  0  0  0  0  0  0  0  # atno 17321 bound_to 7965
  140.4616  143.2446  151.9211 LP  0  0  0  0  0  0  0  0  0  0  0  0  # atno 17342 bound_to 10162
  139.4782  144.5461  151.8456 LP  0  0  0  0  0  0  0  0  0  0  0  0  # atno 17343 bound_to 10162
  156.7841  130.4869  149.5396 LP  0  0  0  0  0  0  0  0  0  0  0  0  # atno 17370 bound_to 10713
  156.1282  130.6159  151.0295 LP  0  0  0  0  0  0  0  0  0  0  0  0  # atno 17371 bound_to 10713
  141.1853  133.6554  156.5192 LP  0  0  0  0  0  0  0  0  0  0  0  0  # atno 17394 bound_to 11000
  140.4160  134.7230  157.4863 LP  0  0  0  0  0  0  0  0  0  0  0  0  # atno 17395 bound_to 11000

$$$$
