AV-unprocessed.smi:2039|AV-procd|sdf|8285|dock3
  -GOLD-   2272010553D 1   1.00000     0.00000
 Structure written by MMmdl.
 32 33  0  0  0  0  0  0  0  0  2 V2000
  156.6103  138.9397  165.3760 C   0  0  0  0  0  0  0  0  0  0  0  0
  155.9405  139.4246  164.1363 C   0  0  0  0  0  0  0  0  0  0  0  0
  155.9750  140.7021  163.7496 N   0  0  0  0  0  0  0  0  0  0  0  0
  155.2830  140.9081  162.5647 N   0  0  0  0  0  0  0  0  0  0  0  0
  154.7443  139.7853  162.0681 C   0  0  0  0  0  0  0  0  0  0  0  0
  154.0316  139.7702  160.9294 N   0  5  0  0  0  0  0  0  0  0  0  0
  153.9905  140.8701  160.1429 C   0  0  0  0  0  0  0  0  0  0  0  0
  154.5161  140.9944  159.0341 O   0  0  0  0  0  0  0  0  0  0  0  0
  153.2971  141.8880  160.6737 N   0  0  0  0  0  0  0  0  0  0  0  0
  153.0770  143.1942  160.0581 C   0  0  2  0  0  0  0  0  0  0  0  0
  152.1939  144.0797  160.9601 C   0  0  0  0  0  0  0  0  0  0  0  0
  151.9001  145.4393  160.3022 C   0  0  0  0  0  0  0  0  0  0  0  0
  151.2877  145.2898  158.8964 C   0  0  2  0  0  0  0  0  0  0  0  0
  149.9665  144.7948  158.9910 O   0  0  0  0  0  0  0  0  0  0  0  0
  152.1356  144.3644  158.0034 C   0  0  0  0  0  0  0  0  0  0  0  0
  152.4265  143.0107  158.6752 C   0  0  0  0  0  0  0  0  0  0  0  0
  155.0448  138.3613  163.0643 S   0  0  0  0  0  0  0  0  0  0  0  0
  157.6785  138.8165  165.1974 H   0  0  0  0  0  0  0  0  0  0  0  0
  156.1927  137.9802  165.6817 H   0  0  0  0  0  0  0  0  0  0  0  0
  156.4687  139.6550  166.1867 H   0  0  0  0  0  0  0  0  0  0  0  0
  152.8866  141.7402  161.5839 H   0  0  0  0  0  0  0  0  0  0  0  0
  154.0413  143.6854  159.9138 H   0  0  0  0  0  0  0  0  0  0  0  0
  151.2550  143.5675  161.1750 H   0  0  0  0  0  0  0  0  0  0  0  0
  152.6814  144.2410  161.9221 H   0  0  0  0  0  0  0  0  0  0  0  0
  151.2437  146.0311  160.9413 H   0  0  0  0  0  0  0  0  0  0  0  0
  152.8327  145.9997  160.2246 H   0  0  0  0  0  0  0  0  0  0  0  0
  151.2242  146.2733  158.4298 H   0  0  0  0  0  0  0  0  0  0  0  0
  149.4282  145.2536  158.3645 H   0  0  0  0  0  0  0  0  0  0  0  0
  151.6421  144.2088  157.0434 H   0  0  0  0  0  0  0  0  0  0  0  0
  153.0828  144.8572  157.7810 H   0  0  0  0  0  0  0  0  0  0  0  0
  153.0786  142.4177  158.0330 H   0  0  0  0  0  0  0  0  0  0  0  0
  151.4981  142.4461  158.7746 H   0  0  0  0  0  0  0  0  0  0  0  0
  1  2  1  0  0  0  0
  1 18  1  0  0  0  0
  1 19  1  0  0  0  0
  1 20  1  0  0  0  0
  2 17  1  0  0  0  0
  2  3  2  0  0  0  0
  3  4  1  0  0  0  0
  4  5  2  0  0  0  0
  5  6  1  0  0  0  0
  5 17  1  0  0  0  0
  6  7  1  0  0  0  0
  7  8  2  0  0  0  0
  7  9  1  0  0  0  0
  9 10  1  0  0  0  0
  9 21  1  0  0  0  0
 10 16  1  0  0  0  0
 10 11  1  0  0  0  0
 10 22  1  0  0  0  0
 11 12  1  0  0  0  0
 11 23  1  0  0  0  0
 11 24  1  0  0  0  0
 12 13  1  0  0  0  0
 12 25  1  0  0  0  0
 12 26  1  0  0  0  0
 13 14  1  0  0  0  0
 13 15  1  0  0  0  0
 13 27  1  0  0  0  0
 14 28  1  0  0  0  0
 15 16  1  0  0  0  0
 15 29  1  0  0  0  0
 15 30  1  0  0  0  0
 16 31  1  0  0  0  0
 16 32  1  0  0  0  0
M  CHG  1   6  -1
M  END
> <s_m_source_file>
AV-unprocessed.smi

> <i_m_source_file_index>
2039

> <i_lp_mmshare_version>
43012

> <i_f3d_flags>
0

> <s_epik_input>
W0NIM11jMW5uYyhzMSlbTkhdQyg9TylbTkhdW0NAQEhdMltDSDJdW0NIMl1bQ0BASF0oW09IXSlbQ0gyXVtDSDJdMg==

> <s_epik_cmdline>
J2VwaWtfcHl0aG9uJywgJy1waCcsICc3LjAnLCAnLXRuJywgJzgnLCAnLW1hJywgJzIwMCcsICctbWV0YWxfYmluZGluZycsICctaW1hZScsICc8aW5maWxlLm1hZT4nLCAnLW9tYWUnLCAnPG91dGZpbGUubWFlPic=

> <r_lp_tautomer_probability>
1

> <r_epik_Ionization_Penalty>
4.54927

> <r_epik_Ionization_Penalty_Charging>
4.39069

> <r_epik_Ionization_Penalty_Neutral>
0.158583

> <r_epik_State_Penalty>
4.39033

> <r_epik_Charging_Adjusted_Penalty>
8.78102

> <i_epik_Tot_Q>
-1

> <i_epik_Tot_abs_Q>
1

> <r_epik_Metal_State_Penalty>
0.767247

> <b_epik_Metal_Only>
1

> <s_lp_Force_Field>
OPLS_2005

> <r_lp_Energy>
8.24255

> <b_lp_Chiralities_Consistent>
1

> <s_lp_Variant>
AV-unprocessed.smi:2039-4

> <Gold.Version>
5.8.1

> <Gold.Id.Protein>
6NUR|6NUR_protein|mol2

> <Gold.PLP.Fitness>
40.4616

> <Gold.PLP.PLP>
-37.3818

> <Gold.PLP.part.hbond>
-4.0000

> <Gold.PLP.part.metal>
0.0000

> <Gold.PLP.part.buried>
-2.4078

> <Gold.PLP.part.nonpolar>
-30.0837

> <Gold.PLP.part.repulsive>
0.0475

> <Gold.PLP.ligand.clash>
0.0000

> <Gold.PLP.ligand.torsion>
0.6887

> <Gold.PLP.Chemscore.Hbond>
1.4836

> <Gold.PLP.Chemscore.CHOScore>
0.0000

> <Gold.PLP.Chemscore.Metal>
0.0000

> <Gold.Chemscore.Hbonds>
donor molecule, donor type, donor heavy atom, donor atom, acceptor molecule, acceptor atom, score
      L1  H    14    28       P1  8029  1.00
      P1  H  7997  8009       L1     8  0.48

> <Gold.PLP.Chemscore.Internal.Correction>
0.0065

> <Gold.Rescore>
     Score         DG    S(hbond)    S(metal)    S(lipo)     H(rot)  DE(clash)    DE(int)     intcor
     12.35     -16.25       1.20        0.00      90.47       1.49       2.47       1.43       ----

> <Gold.Chemscore.Fitness>
12.3471

> <Gold.Chemscore.DG>
-16.2526

> <Gold.Chemscore.ZeroCoef>
-5.4800

> <Gold.Chemscore.Hbond>
1.1962

> <Gold.Chemscore.Metal>
0.0000

> <Gold.Chemscore.Lipo>
90.4687

> <Gold.Chemscore.Internal_Hbond>
0.0000

> <Gold.Chemscore.DEClash>
2.4732

> <Gold.Chemscore.DEInternal>
1.4323

> <Gold.Chemscore.Rot>
1.4873

> <Gold.Chemscore.Internal.Correction>
   9.000000E+99

> <Gold.Chemscore.Hbonds>
donor molecule, donor type, donor heavy atom, donor atom, acceptor molecule, acceptor atom, score
      L1  H    14    28       P1  8029  0.68
      P1  H  7997  8009       L1     8  0.45

> <Gold.Chemscore.Hbond.Weighted>
-3.9953

> <Gold.Chemscore.Metal.Weighted>
-0.0000

> <Gold.Chemscore.Lipo.Weighted>
-10.5848

> <Gold.Chemscore.Internal_Hbond.Weighted>
0.0000

> <Gold.Chemscore.DEClash.Weighted>
2.4732

> <Gold.Chemscore.DEInternal.Weighted>
1.4323

> <Gold.Chemscore.Rot.Weighted>
3.8075

> <Gold.Chemscore.Internal.Correction.Weighted>
   9.000000E+99

> <Gold.Protein.RotatedTorsions>
[ 6907 6896 6895 6894 ] final   17.87 input  -60.11 | X-H torsion
[ 7974 7965 7964 7962 ] final  -37.20 input  175.53 | X-H torsion
[ 8008 7997 7996 7995 ] final  124.39 input   59.86 | X-H torsion
[ 10167 10162 10161 10158 ] final  133.56 input  -65.29 | X-H torsion
[ 10718 10713 10712 10709 ] final -116.11 input   66.30 | X-H torsion
[ 10763 10752 10751 10750 ] final -142.10 input  -60.55 | X-H torsion
[ 11005 11000 10999 10996 ] final  118.69 input  -57.11 | X-H torsion

> <Gold.Protein.ActiveResidues>
 VAL166  LYS551  ARG553  GLY616  TRP617  ASP618  TYR619  PRO620  LYS621  CYS622 
 ASP623  PHE694  ASN695  SER759  ASP760  ASP761  ALA762  ILE779  LEU786  VAL792 
 PHE793  MET794  SER795  GLU796  ALA797  LYS798  CYS799  TRP800  GLU811  SER814 

> <Gold.Protein.RotatedAtoms>
  151.8564  135.0539  160.0464 H   0  0  0  0  0  0  0  0  0  0  0  0  # atno 6907 bound_to 6896
  152.2697  133.5366  159.5440 H   0  0  0  0  0  0  0  0  0  0  0  0  # atno 6908 bound_to 6896
  150.7147  134.0631  159.3880 H   0  0  0  0  0  0  0  0  0  0  0  0  # atno 6909 bound_to 6896
  146.0596  140.6368  142.9003 H   0  0  0  0  0  0  0  0  0  0  0  0  # atno 7974 bound_to 7965
  156.2800  140.2741  156.1781 H   0  0  0  0  0  0  0  0  0  0  0  0  # atno 8008 bound_to 7997
  155.0585  140.0386  157.2586 H   0  0  0  0  0  0  0  0  0  0  0  0  # atno 8009 bound_to 7997
  154.7136  140.2673  155.6611 H   0  0  0  0  0  0  0  0  0  0  0  0  # atno 8010 bound_to 7997
  139.5292  144.6610  151.5013 H   0  0  0  0  0  0  0  0  0  0  0  0  # atno 10167 bound_to 10162
  156.0941  130.6117  150.8993 H   0  0  0  0  0  0  0  0  0  0  0  0  # atno 10718 bound_to 10713
  154.8521  135.3505  154.5974 H   0  0  0  0  0  0  0  0  0  0  0  0  # atno 10763 bound_to 10752
  153.6583  135.6991  153.5190 H   0  0  0  0  0  0  0  0  0  0  0  0  # atno 10764 bound_to 10752
  153.2838  135.4255  155.1061 H   0  0  0  0  0  0  0  0  0  0  0  0  # atno 10765 bound_to 10752
  139.9118  134.9622  156.7541 H   0  0  0  0  0  0  0  0  0  0  0  0  # atno 11005 bound_to 11000
  144.7167  140.4234  143.7039 LP  0  0  0  0  0  0  0  0  0  0  0  0  # atno 17320 bound_to 7965
  145.6584  139.1577  143.2822 LP  0  0  0  0  0  0  0  0  0  0  0  0  # atno 17321 bound_to 7965
  140.6458  143.8797  150.6736 LP  0  0  0  0  0  0  0  0  0  0  0  0  # atno 17342 bound_to 10162
  140.2146  143.3856  152.1691 LP  0  0  0  0  0  0  0  0  0  0  0  0  # atno 17343 bound_to 10162
  157.6097  131.0937  150.8816 LP  0  0  0  0  0  0  0  0  0  0  0  0  # atno 17370 bound_to 10713
  156.8958  130.5229  149.5284 LP  0  0  0  0  0  0  0  0  0  0  0  0  # atno 17371 bound_to 10713
  140.6750  133.9525  155.7878 LP  0  0  0  0  0  0  0  0  0  0  0  0  # atno 17394 bound_to 11000
  141.0551  134.0429  157.3733 LP  0  0  0  0  0  0  0  0  0  0  0  0  # atno 17395 bound_to 11000

$$$$
