AV-unprocessed.smi:907|AV-procd|sdf|4111|dock5
  -GOLD-   22720 2 03D 1   1.00000     0.00000
 Structure written by MMmdl.
 54 57  0  0  0  0  0  0  0  0  3 V2000
  149.9186  137.8048  155.6721 O   0  0  0  0  0  0  0  0  0  0  0  0
  149.5538  138.9462  155.3886 C   0  0  0  0  0  0  0  0  0  0  0  0
  148.3172  139.2053  154.9334 N   0  0  0  0  0  0  0  0  0  0  0  0
  147.2848  138.1982  154.7295 C   0  0  0  0  0  0  0  0  0  0  0  0
  146.0487  138.8156  154.0612 C   0  0  0  0  0  0  0  0  0  0  0  0
  145.2466  137.7935  153.2785 C   0  0  0  0  0  0  0  0  0  0  0  0
  143.8812  137.5495  153.5420 C   0  0  0  0  0  0  0  0  0  0  0  0
  143.1922  136.5872  152.7744 C   0  0  0  0  0  0  0  0  0  0  0  0
  143.8815  135.8916  151.7595 C   0  0  0  0  0  0  0  0  0  0  0  0
  145.2444  136.1760  151.5378 C   0  0  0  0  0  0  0  0  0  0  0  0
  145.8697  137.1040  152.2953 N   0  3  0  0  0  0  0  0  0  0  0  0
  150.3708  140.0268  155.4650 N   0  0  0  0  0  0  0  0  0  0  0  0
  149.9713  141.4336  155.3402 C   0  0  0  0  0  0  0  0  0  0  0  0
  150.0258  142.1053  156.7260 C   0  0  0  0  0  0  0  0  0  0  0  0
  151.3612  141.9533  157.3771 N   0  3  0  0  0  0  0  0  0  0  0  0
  151.4473  142.5365  158.7520 C   0  0  1  0  0  0  0  0  0  0  0  0
  152.8722  142.3982  159.3524 C   0  0  0  0  0  0  0  0  0  0  0  0
  153.2340  143.8337  159.7675 C   0  0  2  0  0  0  0  0  0  0  0  0
  152.3704  144.2576  160.9671 C   0  0  0  0  0  0  0  0  0  0  0  0
  150.9836  144.4443  160.3279 C   0  0  0  0  0  0  0  0  0  0  0  0
  151.2283  144.0735  158.8515 C   0  0  1  0  0  0  0  0  0  0  0  0
  152.6261  144.6394  158.6274 C   0  0  0  0  0  0  0  0  0  0  0  0
  151.8378  140.5379  157.3484 C   0  0  0  0  0  0  0  0  0  0  0  0
  151.7518  139.9285  155.9391 C   0  0  0  0  0  0  0  0  0  0  0  0
  148.0843  140.1591  154.6986 H   0  0  0  0  0  0  0  0  0  0  0  0
  147.6872  137.3968  154.1078 H   0  0  0  0  0  0  0  0  0  0  0  0
  147.0098  137.7565  155.6890 H   0  0  0  0  0  0  0  0  0  0  0  0
  145.4030  139.2698  154.8143 H   0  0  0  0  0  0  0  0  0  0  0  0
  146.3508  139.6199  153.3888 H   0  0  0  0  0  0  0  0  0  0  0  0
  143.3656  138.0918  154.3214 H   0  0  0  0  0  0  0  0  0  0  0  0
  142.1477  136.3854  152.9617 H   0  0  0  0  0  0  0  0  0  0  0  0
  143.3719  135.1513  151.1599 H   0  0  0  0  0  0  0  0  0  0  0  0
  145.8487  135.6930  150.7838 H   0  0  0  0  0  0  0  0  0  0  0  0
  150.6590  141.9363  154.6583 H   0  0  0  0  0  0  0  0  0  0  0  0
  148.9818  141.5759  154.9060 H   0  0  0  0  0  0  0  0  0  0  0  0
  149.7856  143.1562  156.5793 H   0  0  0  0  0  0  0  0  0  0  0  0
  149.2567  141.6830  157.3745 H   0  0  0  0  0  0  0  0  0  0  0  0
  150.7144  142.0242  159.3779 H   0  0  0  0  0  0  0  0  0  0  0  0
  152.9033  141.7021  160.1915 H   0  0  0  0  0  0  0  0  0  0  0  0
  153.5959  142.0552  158.6118 H   0  0  0  0  0  0  0  0  0  0  0  0
  154.3025  143.9877  159.9222 H   0  0  0  0  0  0  0  0  0  0  0  0
  152.3680  143.5089  161.7601 H   0  0  0  0  0  0  0  0  0  0  0  0
  152.7265  145.1968  161.3928 H   0  0  0  0  0  0  0  0  0  0  0  0
  150.2207  143.8205  160.7954 H   0  0  0  0  0  0  0  0  0  0  0  0
  150.6616  145.4828  160.4167 H   0  0  0  0  0  0  0  0  0  0  0  0
  150.4554  144.4955  158.2135 H   0  0  0  0  0  0  0  0  0  0  0  0
  152.6868  145.7185  158.7809 H   0  0  0  0  0  0  0  0  0  0  0  0
  153.0422  144.3927  157.6490 H   0  0  0  0  0  0  0  0  0  0  0  0
  152.8677  140.4688  157.6961 H   0  0  0  0  0  0  0  0  0  0  0  0
  151.2369  139.9423  158.0377 H   0  0  0  0  0  0  0  0  0  0  0  0
  152.1199  138.9015  155.9538 H   0  0  0  0  0  0  0  0  0  0  0  0
  152.4103  140.4668  155.2558 H   0  0  0  0  0  0  0  0  0  0  0  0
  152.0058  142.4796  156.8044 H   0  0  0  0  0  0  0  0  0  0  0  0
  146.8562  137.2930  152.1161 H   0  0  0  0  0  0  0  0  0  0  0  0
  1  2  2  0  0  0  0
  2  3  1  0  0  0  0
  2 12  1  0  0  0  0
  3  4  1  0  0  0  0
  3 25  1  0  0  0  0
  4  5  1  0  0  0  0
  4 26  1  0  0  0  0
  4 27  1  0  0  0  0
  5  6  1  0  0  0  0
  5 28  1  0  0  0  0
  5 29  1  0  0  0  0
  6 11  1  0  0  0  0
  6  7  2  0  0  0  0
  7  8  1  0  0  0  0
  7 30  1  0  0  0  0
  8  9  2  0  0  0  0
  8 31  1  0  0  0  0
  9 10  1  0  0  0  0
  9 32  1  0  0  0  0
 10 11  2  0  0  0  0
 10 33  1  0  0  0  0
 11 54  1  0  0  0  0
 12 24  1  0  0  0  0
 12 13  1  0  0  0  0
 13 14  1  0  0  0  0
 13 34  1  0  0  0  0
 13 35  1  0  0  0  0
 14 15  1  0  0  0  0
 14 36  1  0  0  0  0
 14 37  1  0  0  0  0
 15 16  1  0  0  0  0
 15 23  1  0  0  0  0
 15 53  1  0  0  0  0
 16 21  1  0  0  0  0
 16 17  1  0  0  0  0
 16 38  1  0  0  0  0
 17 18  1  0  0  0  0
 17 39  1  0  0  0  0
 17 40  1  0  0  0  0
 18 22  1  0  0  0  0
 18 19  1  0  0  0  0
 18 41  1  0  0  0  0
 19 20  1  0  0  0  0
 19 42  1  0  0  0  0
 19 43  1  0  0  0  0
 20 21  1  0  0  0  0
 20 44  1  0  0  0  0
 20 45  1  0  0  0  0
 21 22  1  0  0  0  0
 21 46  1  0  0  0  0
 22 47  1  0  0  0  0
 22 48  1  0  0  0  0
 23 24  1  0  0  0  0
 23 49  1  0  0  0  0
 23 50  1  0  0  0  0
 24 51  1  0  0  0  0
 24 52  1  0  0  0  0
M  CHG  1  11   1
M  CHG  1  15   1
M  END
> <s_m_source_file>
AV-unprocessed.smi

> <i_m_source_file_index>
907

> <i_lp_mmshare_version>
43012

> <i_f3d_flags>
0

> <s_epik_input>
W0NIMl0xW0NIMl1bQ0BASF0oW0NIMl0yKVtDQEBIXShbQ0gyXVtDQEhdMTIpTihbQ0gyXVtDSDJdMylbQ0gyXVtDSDJdTjNDKD1PKVtOSF1bQ0gyXVtDSDJdYzRbY0hdW2NIXVtjSF1bY0hdbjQ=

> <s_epik_cmdline>
J2VwaWtfcHl0aG9uJywgJy1waCcsICc3LjAnLCAnLXRuJywgJzgnLCAnLW1hJywgJzIwMCcsICctbWV0YWxfYmluZGluZycsICctaW1hZScsICc8aW5maWxlLm1hZT4nLCAnLW9tYWUnLCAnPG91dGZpbGUubWFlPic=

> <r_epik_Ionization_Penalty>
1.63018

> <r_epik_Ionization_Penalty_Charging>
1.63015

> <r_epik_Ionization_Penalty_Neutral>
2.64641e-05

> <r_epik_State_Penalty>
1.72761

> <r_epik_Charging_Adjusted_Penalty>
3.35777

> <i_epik_Tot_Q>
2

> <i_epik_Tot_abs_Q>
2

> <r_epik_Metal_State_Penalty>
1.76501

> <b_epik_Metal_Only>
0

> <s_lp_Force_Field>
OPLS_2005

> <r_lp_Energy>
104.704

> <b_lp_Chiralities_Consistent>
1

> <s_lp_Variant>
AV-unprocessed.smi:907-6

> <Gold.Version>
5.8.1

> <Gold.Id.Protein>
6NUR|6NUR_protein|mol2

> <Gold.PLP.Fitness>
53.1752

> <Gold.PLP.PLP>
-47.5590

> <Gold.PLP.part.hbond>
-1.0000

> <Gold.PLP.part.metal>
0.0000

> <Gold.PLP.part.buried>
-4.2339

> <Gold.PLP.part.nonpolar>
-43.3167

> <Gold.PLP.part.repulsive>
0.2230

> <Gold.PLP.ligand.clash>
0.0000

> <Gold.PLP.ligand.torsion>
0.2430

> <Gold.PLP.Chemscore.Hbond>
2.0000

> <Gold.PLP.Chemscore.CHOScore>
0.0000

> <Gold.PLP.Chemscore.Metal>
0.0000

> <Gold.Chemscore.Hbonds>
donor molecule, donor type, donor heavy atom, donor atom, acceptor molecule, acceptor atom, score
      L1  H    11    54       P1  7948  0.36

> <Gold.PLP.Chemscore.Internal.Correction>
0.1022

> <Gold.Rescore>
     Score         DG    S(hbond)    S(metal)    S(lipo)     H(rot)  DE(clash)    DE(int)     intcor
     18.73     -20.78       0.99        0.00     134.28       1.46       1.34       0.71       ----

> <Gold.Chemscore.Fitness>
18.7304

> <Gold.Chemscore.DG>
-20.7831

> <Gold.Chemscore.ZeroCoef>
-5.4800

> <Gold.Chemscore.Hbond>
0.9947

> <Gold.Chemscore.Metal>
0.0000

> <Gold.Chemscore.Lipo>
134.2842

> <Gold.Chemscore.Internal_Hbond>
0.0000

> <Gold.Chemscore.DEClash>
1.3398

> <Gold.Chemscore.DEInternal>
0.7129

> <Gold.Chemscore.Rot>
1.4572

> <Gold.Chemscore.Internal.Correction>
   9.000000E+99

> <Gold.Chemscore.Hbonds>
donor molecule, donor type, donor heavy atom, donor atom, acceptor molecule, acceptor atom, score
      L1  H    11    54       P1  7948  0.20

> <Gold.Chemscore.Hbond.Weighted>
-3.3224

> <Gold.Chemscore.Metal.Weighted>
-0.0000

> <Gold.Chemscore.Lipo.Weighted>
-15.7113

> <Gold.Chemscore.Internal_Hbond.Weighted>
0.0000

> <Gold.Chemscore.DEClash.Weighted>
1.3398

> <Gold.Chemscore.DEInternal.Weighted>
0.7129

> <Gold.Chemscore.Rot.Weighted>
3.7305

> <Gold.Chemscore.Internal.Correction.Weighted>
   9.000000E+99

> <Gold.Protein.RotatedTorsions>
[ 6907 6896 6895 6894 ] final -171.61 input  -60.11 | X-H torsion
[ 7974 7965 7964 7962 ] final -116.98 input  175.53 | X-H torsion
[ 8008 7997 7996 7995 ] final -137.90 input   59.86 | X-H torsion
[ 10167 10162 10161 10158 ] final  169.17 input  -65.29 | X-H torsion
[ 10718 10713 10712 10709 ] final  -12.73 input   66.30 | X-H torsion
[ 10763 10752 10751 10750 ] final -160.69 input  -60.55 | X-H torsion
[ 11005 11000 10999 10996 ] final  -45.34 input  -57.11 | X-H torsion

> <Gold.Protein.ActiveResidues>
 VAL166  LYS551  ARG553  GLY616  TRP617  ASP618  TYR619  PRO620  LYS621  CYS622 
 ASP623  PHE694  ASN695  SER759  ASP760  ASP761  ALA762  ILE779  LEU786  VAL792 
 PHE793  MET794  SER795  GLU796  ALA797  LYS798  CYS799  TRP800  GLU811  SER814 

> <Gold.Protein.RotatedAtoms>
  151.5266  133.3456  159.2910 H   0  0  0  0  0  0  0  0  0  0  0  0  # atno 6907 bound_to 6896
  150.8619  134.7976  159.7100 H   0  0  0  0  0  0  0  0  0  0  0  0  # atno 6908 bound_to 6896
  152.4636  134.5136  159.9813 H   0  0  0  0  0  0  0  0  0  0  0  0  # atno 6909 bound_to 6896
  145.0905  140.8487  143.3985 H   0  0  0  0  0  0  0  0  0  0  0  0  # atno 7974 bound_to 7965
  155.4194  140.0517  157.3026 H   0  0  0  0  0  0  0  0  0  0  0  0  # atno 8008 bound_to 7997
  154.4909  140.2120  155.9509 H   0  0  0  0  0  0  0  0  0  0  0  0  # atno 8009 bound_to 7997
  156.1341  140.3166  155.8399 H   0  0  0  0  0  0  0  0  0  0  0  0  # atno 8010 bound_to 7997
  139.4985  144.3736  151.9699 H   0  0  0  0  0  0  0  0  0  0  0  0  # atno 10167 bound_to 10162
  156.6404  130.4926  149.6097 H   0  0  0  0  0  0  0  0  0  0  0  0  # atno 10718 bound_to 10713
  154.7369  135.3059  154.8796 H   0  0  0  0  0  0  0  0  0  0  0  0  # atno 10763 bound_to 10752
  153.9623  135.6751  153.4749 H   0  0  0  0  0  0  0  0  0  0  0  0  # atno 10764 bound_to 10752
  153.0971  135.4930  154.8721 H   0  0  0  0  0  0  0  0  0  0  0  0  # atno 10765 bound_to 10752
  141.0509  133.6743  156.3000 H   0  0  0  0  0  0  0  0  0  0  0  0  # atno 11005 bound_to 11000
  145.1071  139.2782  143.5656 LP  0  0  0  0  0  0  0  0  0  0  0  0  # atno 17320 bound_to 7965
  146.3531  140.0656  142.8626 LP  0  0  0  0  0  0  0  0  0  0  0  0  # atno 17321 bound_to 7965
  140.3172  144.3470  150.6019 LP  0  0  0  0  0  0  0  0  0  0  0  0  # atno 17342 bound_to 10162
  140.5752  143.2177  151.7528 LP  0  0  0  0  0  0  0  0  0  0  0  0  # atno 17343 bound_to 10162
  156.2163  130.6710  151.1322 LP  0  0  0  0  0  0  0  0  0  0  0  0  # atno 17370 bound_to 10713
  157.7173  131.0702  150.6278 LP  0  0  0  0  0  0  0  0  0  0  0  0  # atno 17371 bound_to 10713
  140.6056  134.5510  157.5525 LP  0  0  0  0  0  0  0  0  0  0  0  0  # atno 17394 bound_to 11000
  139.9350  134.7892  156.0828 LP  0  0  0  0  0  0  0  0  0  0  0  0  # atno 17395 bound_to 11000

$$$$
