AV-unprocessed.smi:1296|AV-procd|sdf|5414|dock2
  -GOLD-   22720 4573D 1   1.00000     0.00000
 Structure written by MMmdl.
 36 36  0  0  0  0  0  0  0  0  1 V2000
  146.3386  138.3043  152.0240 C   0  0  0  0  0  0  0  0  0  0  0  0
  147.2427  139.2501  152.7846 C   0  0  0  0  0  0  0  0  0  0  0  0
  146.6202  140.4264  153.1686 N   0  0  0  0  0  0  0  0  0  0  0  0
  147.3717  141.3611  153.8588 C   0  0  0  0  0  0  0  0  0  0  0  0
  146.6171  142.6238  154.2364 C   0  0  0  0  0  0  0  0  0  0  0  0
  148.6755  141.1319  154.1583 C   0  0  0  0  0  0  0  0  0  0  0  0
  149.5411  142.1383  154.9161 C   0  0  0  0  0  0  0  0  0  0  0  0
  150.0716  141.6903  156.2806 C   0  0  0  0  0  0  0  0  0  0  0  0
  150.1038  140.4977  156.5849 O   0  0  0  0  0  0  0  0  0  0  0  0
  150.4893  142.6680  157.0965 N   0  0  0  0  0  0  0  0  0  0  0  0
  151.0423  142.4531  158.4275 C   0  0  0  0  0  0  0  0  0  0  0  0
  152.3947  143.1708  158.6034 C   0  0  0  0  0  0  0  0  0  0  0  0
  153.1263  142.7387  159.8864 C   0  0  0  0  0  0  0  0  0  0  0  0
  152.2096  144.6950  158.5735 C   0  0  0  0  0  0  0  0  0  0  0  0
  149.2819  139.8477  153.7349 C   0  0  0  0  0  0  0  0  0  0  0  0
  150.4522  139.5716  153.9951 O   0  0  0  0  0  0  0  0  0  0  0  0
  148.4799  138.9387  153.0257 N   0  0  0  0  0  0  0  0  0  0  0  0
  145.6535  140.6369  152.9670 H   0  0  0  0  0  0  0  0  0  0  0  0
  146.8543  137.3707  151.7956 H   0  0  0  0  0  0  0  0  0  0  0  0
  146.0206  138.7572  151.0844 H   0  0  0  0  0  0  0  0  0  0  0  0
  145.4519  138.0680  152.6128 H   0  0  0  0  0  0  0  0  0  0  0  0
  147.0649  143.4938  153.7559 H   0  0  0  0  0  0  0  0  0  0  0  0
  146.6423  142.7741  155.3159 H   0  0  0  0  0  0  0  0  0  0  0  0
  145.5714  142.5736  153.9304 H   0  0  0  0  0  0  0  0  0  0  0  0
  148.9594  143.0477  155.0680 H   0  0  0  0  0  0  0  0  0  0  0  0
  150.3865  142.4500  154.3018 H   0  0  0  0  0  0  0  0  0  0  0  0
  150.4302  143.6220  156.7710 H   0  0  0  0  0  0  0  0  0  0  0  0
  150.3279  142.8182  159.1671 H   0  0  0  0  0  0  0  0  0  0  0  0
  151.1609  141.3822  158.6012 H   0  0  0  0  0  0  0  0  0  0  0  0
  153.0283  142.9046  157.7560 H   0  0  0  0  0  0  0  0  0  0  0  0
  152.5290  142.9533  160.7732 H   0  0  0  0  0  0  0  0  0  0  0  0
  154.0761  143.2639  159.9912 H   0  0  0  0  0  0  0  0  0  0  0  0
  153.3472  141.6713  159.8842 H   0  0  0  0  0  0  0  0  0  0  0  0
  151.5789  145.0334  159.3963 H   0  0  0  0  0  0  0  0  0  0  0  0
  151.7430  145.0165  157.6421 H   0  0  0  0  0  0  0  0  0  0  0  0
  153.1672  145.2100  158.6549 H   0  0  0  0  0  0  0  0  0  0  0  0
  1 19  1  0  0  0  0
  1 20  1  0  0  0  0
  1 21  1  0  0  0  0
  1  2  1  0  0  0  0
  2  3  1  0  0  0  0
  2 17  2  0  0  0  0
  3  4  1  0  0  0  0
  3 18  1  0  0  0  0
  4  6  2  0  0  0  0
  4  5  1  0  0  0  0
  5 22  1  0  0  0  0
  5 23  1  0  0  0  0
  5 24  1  0  0  0  0
  6 15  1  0  0  0  0
  6  7  1  0  0  0  0
  7  8  1  0  0  0  0
  7 25  1  0  0  0  0
  7 26  1  0  0  0  0
  8  9  2  0  0  0  0
  8 10  1  0  0  0  0
 10 11  1  0  0  0  0
 10 27  1  0  0  0  0
 11 12  1  0  0  0  0
 11 28  1  0  0  0  0
 11 29  1  0  0  0  0
 12 13  1  0  0  0  0
 12 14  1  0  0  0  0
 12 30  1  0  0  0  0
 13 31  1  0  0  0  0
 13 32  1  0  0  0  0
 13 33  1  0  0  0  0
 14 34  1  0  0  0  0
 14 35  1  0  0  0  0
 14 36  1  0  0  0  0
 15 16  2  0  0  0  0
 15 17  1  0  0  0  0
M  END
> <s_m_source_file>
AV-unprocessed.smi

> <i_m_source_file_index>
1296

> <i_lp_mmshare_version>
43012

> <i_f3d_flags>
0

> <s_epik_input>
W0NIM11jMW5jKFtDSDNdKWMoYyg9TylbbkhdMSlbQ0gyXUMoPU8pW05IXVtDSDJdW0NIXShbQ0gzXSlbQ0gzXQ==

> <s_epik_cmdline>
J2VwaWtfcHl0aG9uJywgJy1waCcsICc3LjAnLCAnLXRuJywgJzgnLCAnLW1hJywgJzIwMCcsICctbWV0YWxfYmluZGluZycsICctaW1hZScsICc8aW5maWxlLm1hZT4nLCAnLW9tYWUnLCAnPG91dGZpbGUubWFlPic=

> <r_lp_tautomer_probability>
0.156392

> <r_epik_Ionization_Penalty>
0.0142343

> <r_epik_Ionization_Penalty_Charging>
0.0141145

> <r_epik_Ionization_Penalty_Neutral>
0.000119779

> <r_epik_State_Penalty>
1.52879

> <r_epik_Charging_Adjusted_Penalty>
1.5429

> <i_epik_Tot_Q>
0

> <i_epik_Tot_abs_Q>
0

> <r_epik_Metal_State_Penalty>
1.70685

> <b_epik_Metal_Only>
0

> <s_lp_Force_Field>
OPLS_2005

> <r_lp_Energy>
9.70595

> <b_lp_Chiralities_Consistent>
1

> <s_lp_Variant>
AV-unprocessed.smi:1296-2

> <Gold.Version>
5.8.1

> <Gold.Id.Protein>
6NUR|6NUR_protein|mol2

> <Gold.PLP.Fitness>
40.9172

> <Gold.PLP.PLP>
-34.9898

> <Gold.PLP.part.hbond>
-2.4672

> <Gold.PLP.part.metal>
0.0000

> <Gold.PLP.part.buried>
-0.4023

> <Gold.PLP.part.nonpolar>
-34.5785

> <Gold.PLP.part.repulsive>
3.0387

> <Gold.PLP.ligand.clash>
0.0000

> <Gold.PLP.ligand.torsion>
0.3387

> <Gold.PLP.Chemscore.Hbond>
2.1968

> <Gold.PLP.Chemscore.CHOScore>
0.0000

> <Gold.PLP.Chemscore.Metal>
0.0000

> <Gold.Chemscore.Hbonds>
donor molecule, donor type, donor heavy atom, donor atom, acceptor molecule, acceptor atom, score
      L1  H     3    18       P1 10175  1.00
      L1  H    10    27       P1  8028  0.41
      P1  H  7989  7998       L1    16  1.00

> <Gold.PLP.Chemscore.Internal.Correction>
0.0144

> <Gold.Rescore>
     Score         DG    S(hbond)    S(metal)    S(lipo)     H(rot)  DE(clash)    DE(int)     intcor
     15.11     -18.71       2.52        0.00      78.98       1.73       2.04       1.55       ----

> <Gold.Chemscore.Fitness>
15.1129

> <Gold.Chemscore.DG>
-18.7101

> <Gold.Chemscore.ZeroCoef>
-5.4800

> <Gold.Chemscore.Hbond>
2.5199

> <Gold.Chemscore.Metal>
0.0000

> <Gold.Chemscore.Lipo>
78.9843

> <Gold.Chemscore.Internal_Hbond>
0.0000

> <Gold.Chemscore.DEClash>
2.0441

> <Gold.Chemscore.DEInternal>
1.5531

> <Gold.Chemscore.Rot>
1.7296

> <Gold.Chemscore.Internal.Correction>
   9.000000E+99

> <Gold.Chemscore.Hbonds>
donor molecule, donor type, donor heavy atom, donor atom, acceptor molecule, acceptor atom, score
      L1  H     3    18       P1 10175  0.65
      L1  H    10    27       P1  8028  0.43
      P1  H  7989  7998       L1    16  0.84

> <Gold.Chemscore.Hbond.Weighted>
-8.4166

> <Gold.Chemscore.Metal.Weighted>
-0.0000

> <Gold.Chemscore.Lipo.Weighted>
-9.2412

> <Gold.Chemscore.Internal_Hbond.Weighted>
0.0000

> <Gold.Chemscore.DEClash.Weighted>
2.0441

> <Gold.Chemscore.DEInternal.Weighted>
1.5531

> <Gold.Chemscore.Rot.Weighted>
4.4277

> <Gold.Chemscore.Internal.Correction.Weighted>
   9.000000E+99

> <Gold.Protein.RotatedTorsions>
[ 6907 6896 6895 6894 ] final  -91.65 input  -60.11 | X-H torsion
[ 7974 7965 7964 7962 ] final   52.01 input  175.53 | X-H torsion
[ 8008 7997 7996 7995 ] final  104.56 input   59.86 | X-H torsion
[ 10167 10162 10161 10158 ] final -149.02 input  -65.29 | X-H torsion
[ 10718 10713 10712 10709 ] final -145.29 input   66.30 | X-H torsion
[ 10763 10752 10751 10750 ] final -105.84 input  -60.55 | X-H torsion
[ 11005 11000 10999 10996 ] final -173.40 input  -57.11 | X-H torsion

> <Gold.Protein.ActiveResidues>
 VAL166  LYS551  ARG553  GLY616  TRP617  ASP618  TYR619  PRO620  LYS621  CYS622 
 ASP623  PHE694  ASN695  SER759  ASP760  ASP761  ALA762  ILE779  LEU786  VAL792 
 PHE793  MET794  SER795  GLU796  ALA797  LYS798  CYS799  TRP800  GLU811  SER814 

> <Gold.Protein.RotatedAtoms>
  150.6895  134.2244  159.4409 H   0  0  0  0  0  0  0  0  0  0  0  0  # atno 6907 bound_to 6896
  152.0198  134.9826  160.0579 H   0  0  0  0  0  0  0  0  0  0  0  0  # atno 6908 bound_to 6896
  152.1408  133.4428  159.4803 H   0  0  0  0  0  0  0  0  0  0  0  0  # atno 6909 bound_to 6896
  145.9856  139.4286  143.0105 H   0  0  0  0  0  0  0  0  0  0  0  0  # atno 7974 bound_to 7965
  156.1583  140.3146  155.8763 H   0  0  0  0  0  0  0  0  0  0  0  0  # atno 8008 bound_to 7997
  155.3834  140.0489  157.3060 H   0  0  0  0  0  0  0  0  0  0  0  0  # atno 8009 bound_to 7997
  154.5122  140.2168  155.9145 H   0  0  0  0  0  0  0  0  0  0  0  0  # atno 8010 bound_to 7997
  139.7479  143.8562  152.2579 H   0  0  0  0  0  0  0  0  0  0  0  0  # atno 10167 bound_to 10162
  156.3806  130.7835  151.2027 H   0  0  0  0  0  0  0  0  0  0  0  0  # atno 10718 bound_to 10713
  154.7973  135.4734  154.0191 H   0  0  0  0  0  0  0  0  0  0  0  0  # atno 10763 bound_to 10752
  153.1724  135.6827  153.8597 H   0  0  0  0  0  0  0  0  0  0  0  0  # atno 10764 bound_to 10752
  153.8175  135.3208  155.3385 H   0  0  0  0  0  0  0  0  0  0  0  0  # atno 10765 bound_to 10752
  140.4861  134.6029  157.4937 H   0  0  0  0  0  0  0  0  0  0  0  0  # atno 11005 bound_to 11000
  145.7706  140.9898  143.1152 LP  0  0  0  0  0  0  0  0  0  0  0  0  # atno 17320 bound_to 7965
  144.6874  139.9442  143.7476 LP  0  0  0  0  0  0  0  0  0  0  0  0  # atno 17321 bound_to 7965
  139.8532  144.7154  150.9189 LP  0  0  0  0  0  0  0  0  0  0  0  0  # atno 17342 bound_to 10162
  140.7794  143.3881  151.1358 LP  0  0  0  0  0  0  0  0  0  0  0  0  # atno 17343 bound_to 10162
  157.7492  131.0345  150.4321 LP  0  0  0  0  0  0  0  0  0  0  0  0  # atno 17370 bound_to 10713
  156.4564  130.4022  149.6603 LP  0  0  0  0  0  0  0  0  0  0  0  0  # atno 17371 bound_to 10713
  139.9797  134.7157  155.9883 LP  0  0  0  0  0  0  0  0  0  0  0  0  # atno 17394 bound_to 11000
  141.1507  133.6549  156.4005 LP  0  0  0  0  0  0  0  0  0  0  0  0  # atno 17395 bound_to 11000

$$$$
