AV-unprocessed.smi:265|AV-procd|sdf|2022|dock2
  -GOLD-   2262021223D 1   1.00000     0.00000
 Structure written by MMmdl.
 52 56  0  0  0  0  0  0  0  0  1 V2000
  146.3653  129.4599  153.2245 C   0  0  0  0  0  0  0  0  0  0  0  0
  146.4571  130.5661  152.1619 C   0  0  1  0  0  0  0  0  0  0  0  0
  145.1895  130.6331  151.5116 O   0  0  0  0  0  0  0  0  0  0  0  0
  144.9289  131.9744  151.1376 C   0  0  0  0  0  0  0  0  0  0  0  0
  145.4670  132.7573  152.3252 C   0  0  0  0  0  0  0  0  0  0  0  0
  146.7472  132.0050  152.6756 C   0  0  2  0  0  0  0  0  0  0  0  0
  147.7949  132.5402  151.8836 O   0  0  0  0  0  0  0  0  0  0  0  0
  147.1632  132.1354  154.1646 C   0  0  0  0  0  0  0  0  0  0  0  0
  147.6753  133.4532  154.5103 N   0  0  0  0  0  0  0  0  0  0  0  0
  147.1116  134.6665  154.1854 C   0  0  0  0  0  0  0  0  0  0  0  0
  147.7629  135.7145  154.6100 N   0  0  0  0  0  0  0  0  0  0  0  0
  148.8632  135.1855  155.2750 C   0  0  0  0  0  0  0  0  0  0  0  0
  149.9734  135.7532  155.9628 C   0  0  0  0  0  0  0  0  0  0  0  0
  150.1386  137.0926  156.1113 N   0  0  0  0  0  0  0  0  0  0  0  0
  151.2805  137.6512  155.3909 C   0  0  0  0  0  0  0  0  0  0  0  0
  151.6561  139.0299  155.9540 C   0  0  0  0  0  0  0  0  0  0  0  0
  150.4517  139.9852  155.9772 C   0  0  1  0  0  0  0  0  0  0  0  0
  150.0670  140.3251  154.6514 O   0  0  0  0  0  0  0  0  0  0  0  0
  149.0728  141.3492  154.5842 C   0  0  0  0  0  0  0  0  0  0  0  0
  147.8820  141.0723  155.5211 C   0  0  0  0  0  0  0  0  0  0  0  0
  146.8297  141.6897  155.3732 O   0  0  0  0  0  0  0  0  0  0  0  0
  148.0498  140.1809  156.5112 N   0  0  0  0  0  0  0  0  0  0  0  0
  149.2307  139.3377  156.6663 C   0  0  1  0  0  0  0  0  0  0  0  0
  148.9396  137.9315  156.1029 C   0  0  0  0  0  0  0  0  0  0  0  0
  150.8920  134.8940  156.4809 N   0  0  0  0  0  0  0  0  0  0  0  0
  150.7356  133.5741  156.3447 C   0  0  0  0  0  0  0  0  0  0  0  0
  149.7518  132.9093  155.7367 N   0  0  0  0  0  0  0  0  0  0  0  0
  148.8286  133.7635  155.2105 C   0  0  0  0  0  0  0  0  0  0  0  0
  150.7424  140.8969  156.5030 H   0  0  0  0  0  0  0  0  0  0  0  0
  149.4398  139.2475  157.7329 H   0  0  0  0  0  0  0  0  0  0  0  0
  147.3074  129.3403  153.7598 H   0  0  0  0  0  0  0  0  0  0  0  0
  146.1321  128.5012  152.7609 H   0  0  0  0  0  0  0  0  0  0  0  0
  145.5812  129.6692  153.9524 H   0  0  0  0  0  0  0  0  0  0  0  0
  147.1996  130.2688  151.4189 H   0  0  0  0  0  0  0  0  0  0  0  0
  145.4748  132.2165  150.2245 H   0  0  0  0  0  0  0  0  0  0  0  0
  143.8665  132.1454  150.9636 H   0  0  0  0  0  0  0  0  0  0  0  0
  145.6187  133.8161  152.1109 H   0  0  0  0  0  0  0  0  0  0  0  0
  144.7516  132.6826  153.1448 H   0  0  0  0  0  0  0  0  0  0  0  0
  148.3128  131.8237  151.5501 H   0  0  0  0  0  0  0  0  0  0  0  0
  146.3166  131.9269  154.8192 H   0  0  0  0  0  0  0  0  0  0  0  0
  147.9310  131.4004  154.4097 H   0  0  0  0  0  0  0  0  0  0  0  0
  146.1935  134.7500  153.6220 H   0  0  0  0  0  0  0  0  0  0  0  0
  152.1482  136.9943  155.4401 H   0  0  0  0  0  0  0  0  0  0  0  0
  151.0183  137.7396  154.3357 H   0  0  0  0  0  0  0  0  0  0  0  0
  152.0342  138.9071  156.9697 H   0  0  0  0  0  0  0  0  0  0  0  0
  152.4699  139.4642  155.3728 H   0  0  0  0  0  0  0  0  0  0  0  0
  149.5192  142.3069  154.8543 H   0  0  0  0  0  0  0  0  0  0  0  0
  148.7211  141.4355  153.5559 H   0  0  0  0  0  0  0  0  0  0  0  0
  147.2832  140.0251  157.1494 H   0  0  0  0  0  0  0  0  0  0  0  0
  148.5714  138.0064  155.0782 H   0  0  0  0  0  0  0  0  0  0  0  0
  148.1509  137.4625  156.6935 H   0  0  0  0  0  0  0  0  0  0  0  0
  151.5094  132.9636  156.7865 H   0  0  0  0  0  0  0  0  0  0  0  0
  1  2  1  0  0  0  0
  1 31  1  0  0  0  0
  1 32  1  0  0  0  0
  1 33  1  0  0  0  0
  2  6  1  0  0  0  0
  2  3  1  0  0  0  0
  2 34  1  0  0  0  0
  3  4  1  0  0  0  0
  4  5  1  0  0  0  0
  4 35  1  0  0  0  0
  4 36  1  0  0  0  0
  5  6  1  0  0  0  0
  5 37  1  0  0  0  0
  5 38  1  0  0  0  0
  6  7  1  0  0  0  0
  6  8  1  0  0  0  0
  7 39  1  0  0  0  0
  8  9  1  0  0  0  0
  8 40  1  0  0  0  0
  8 41  1  0  0  0  0
  9 28  1  0  0  0  0
  9 10  1  0  0  0  0
 10 11  2  0  0  0  0
 10 42  1  0  0  0  0
 11 12  1  0  0  0  0
 12 28  2  0  0  0  0
 12 13  1  0  0  0  0
 13 14  1  0  0  0  0
 13 25  2  0  0  0  0
 14 24  1  0  0  0  0
 14 15  1  0  0  0  0
 15 16  1  0  0  0  0
 15 43  1  0  0  0  0
 15 44  1  0  0  0  0
 16 17  1  0  0  0  0
 16 45  1  0  0  0  0
 16 46  1  0  0  0  0
 17 29  1  0  0  0  0
 17 23  1  0  0  0  0
 17 18  1  0  0  0  0
 18 19  1  0  0  0  0
 19 20  1  0  0  0  0
 19 47  1  0  0  0  0
 19 48  1  0  0  0  0
 20 21  2  0  0  0  0
 20 22  1  0  0  0  0
 22 23  1  0  0  0  0
 22 49  1  0  0  0  0
 23 30  1  0  0  0  0
 23 24  1  0  0  0  0
 24 50  1  0  0  0  0
 24 51  1  0  0  0  0
 25 26  1  0  0  0  0
 26 27  2  0  0  0  0
 26 52  1  0  0  0  0
 27 28  1  0  0  0  0
M  END
> <s_m_source_file>
AV-unprocessed.smi

> <i_m_source_file_index>
265

> <i_lp_mmshare_version>
43012

> <i_f3d_flags>
0

> <s_epik_input>
W0NIMl0xW0NIMl1PW0NAQEhdKFtDSDNdKVtDQEBdMShbT0hdKVtDSDJdbihbY0hdbjIpYyhjMjMpbltjSF1uYzNOKFtDSDJdW0NIMl00KVtDSDJdW0NAQEhdKFtDQEhdNDUpW05IXUMoPU8pW0NIMl1PNQ==

> <s_epik_cmdline>
J2VwaWtfcHl0aG9uJywgJy1waCcsICc3LjAnLCAnLXRuJywgJzgnLCAnLW1hJywgJzIwMCcsICctbWV0YWxfYmluZGluZycsICctaW1hZScsICc8aW5maWxlLm1hZT4nLCAnLW9tYWUnLCAnPG91dGZpbGUubWFlPic=

> <r_lp_tautomer_probability>
1

> <r_epik_Ionization_Penalty>
0.00221504

> <r_epik_Ionization_Penalty_Charging>
0

> <r_epik_Ionization_Penalty_Neutral>
0.00221504

> <r_epik_State_Penalty>
-0

> <r_epik_Charging_Adjusted_Penalty>
0

> <i_epik_Tot_Q>
0

> <i_epik_Tot_abs_Q>
0

> <r_epik_Metal_State_Penalty>
-0

> <b_epik_Metal_Only>
0

> <s_lp_Force_Field>
OPLS_2005

> <r_lp_Energy>
44.6863

> <b_lp_Chiralities_Consistent>
1

> <s_lp_Variant>
AV-unprocessed.smi:265-8

> <Gold.Version>
5.8.1

> <Gold.Id.Protein>
6NUR|6NUR_protein|mol2

> <Gold.PLP.Fitness>
41.2164

> <Gold.PLP.PLP>
-33.5221

> <Gold.PLP.part.hbond>
-3.0000

> <Gold.PLP.part.metal>
0.0000

> <Gold.PLP.part.buried>
-4.2412

> <Gold.PLP.part.nonpolar>
-26.2740

> <Gold.PLP.part.repulsive>
2.3742

> <Gold.PLP.ligand.clash>
0.0000

> <Gold.PLP.ligand.torsion>
0.6548

> <Gold.PLP.Chemscore.Hbond>
2.8796

> <Gold.PLP.Chemscore.CHOScore>
0.0000

> <Gold.PLP.Chemscore.Metal>
0.0000

> <Gold.Chemscore.Hbonds>
donor molecule, donor type, donor heavy atom, donor atom, acceptor molecule, acceptor atom, score
      L1  H     7    39       P1 10747  1.00
      P1  H  7989  7998       L1    18  0.99

> <Gold.PLP.Chemscore.Internal.Correction>
0.3651

> <Gold.Rescore>
     Score         DG    S(hbond)    S(metal)    S(lipo)     H(rot)  DE(clash)    DE(int)     intcor
     11.26     -13.81       1.64        0.00      73.45       2.25       0.74       1.82       ----

> <Gold.Chemscore.Fitness>
11.2589

> <Gold.Chemscore.DG>
-13.8099

> <Gold.Chemscore.ZeroCoef>
-5.4800

> <Gold.Chemscore.Hbond>
1.6419

> <Gold.Chemscore.Metal>
0.0000

> <Gold.Chemscore.Lipo>
73.4513

> <Gold.Chemscore.Internal_Hbond>
0.0000

> <Gold.Chemscore.DEClash>
0.7351

> <Gold.Chemscore.DEInternal>
1.8159

> <Gold.Chemscore.Rot>
2.2453

> <Gold.Chemscore.Internal.Correction>
   9.000000E+99

> <Gold.Chemscore.Hbonds>
donor molecule, donor type, donor heavy atom, donor atom, acceptor molecule, acceptor atom, score
      L1  H     7    39       P1 10747  0.98
      P1  H  7989  7998       L1    18  0.50

> <Gold.Chemscore.Hbond.Weighted>
-5.4840

> <Gold.Chemscore.Metal.Weighted>
-0.0000

> <Gold.Chemscore.Lipo.Weighted>
-8.5938

> <Gold.Chemscore.Internal_Hbond.Weighted>
0.0000

> <Gold.Chemscore.DEClash.Weighted>
0.7351

> <Gold.Chemscore.DEInternal.Weighted>
1.8159

> <Gold.Chemscore.Rot.Weighted>
5.7479

> <Gold.Chemscore.Internal.Correction.Weighted>
   9.000000E+99

> <Gold.Protein.RotatedTorsions>
[ 6907 6896 6895 6894 ] final   40.51 input  -60.11 | X-H torsion
[ 7974 7965 7964 7962 ] final -115.79 input  175.53 | X-H torsion
[ 8008 7997 7996 7995 ] final   66.69 input   59.86 | X-H torsion
[ 10167 10162 10161 10158 ] final -174.84 input  -65.29 | X-H torsion
[ 10718 10713 10712 10709 ] final -138.74 input   66.30 | X-H torsion
[ 10763 10752 10751 10750 ] final   85.57 input  -60.55 | X-H torsion
[ 11005 11000 10999 10996 ] final -106.02 input  -57.11 | X-H torsion

> <Gold.Protein.ActiveResidues>
 VAL166  LYS551  ARG553  GLY616  TRP617  ASP618  TYR619  PRO620  LYS621  CYS622 
 ASP623  PHE694  ASN695  SER759  ASP760  ASP761  ALA762  ILE779  LEU786  VAL792 
 PHE793  MET794  SER795  GLU796  ALA797  LYS798  CYS799  TRP800  GLU811  SER814 

> <Gold.Protein.RotatedAtoms>
  152.1834  134.8734  160.0524 H   0  0  0  0  0  0  0  0  0  0  0  0  # atno 6907 bound_to 6896
  151.9650  133.3702  159.4058 H   0  0  0  0  0  0  0  0  0  0  0  0  # atno 6908 bound_to 6896
  150.6921  134.4124  159.5211 H   0  0  0  0  0  0  0  0  0  0  0  0  # atno 6909 bound_to 6896
  145.1043  140.8572  143.3907 H   0  0  0  0  0  0  0  0  0  0  0  0  # atno 7974 bound_to 7965
  155.6813  140.3496  155.4856 H   0  0  0  0  0  0  0  0  0  0  0  0  # atno 8008 bound_to 7997
  155.9604  140.1136  157.0923 H   0  0  0  0  0  0  0  0  0  0  0  0  # atno 8009 bound_to 7997
  154.4142  140.1176  156.5158 H   0  0  0  0  0  0  0  0  0  0  0  0  # atno 8010 bound_to 7997
  139.5612  144.1865  152.1241 H   0  0  0  0  0  0  0  0  0  0  0  0  # atno 10167 bound_to 10162
  156.3028  130.7438  151.1494 H   0  0  0  0  0  0  0  0  0  0  0  0  # atno 10718 bound_to 10713
  153.1487  135.4612  154.9605 H   0  0  0  0  0  0  0  0  0  0  0  0  # atno 10763 bound_to 10752
  154.7807  135.3187  154.7997 H   0  0  0  0  0  0  0  0  0  0  0  0  # atno 10764 bound_to 10752
  153.8506  135.6922  153.4847 H   0  0  0  0  0  0  0  0  0  0  0  0  # atno 10765 bound_to 10752
  141.1025  133.8858  157.1805 H   0  0  0  0  0  0  0  0  0  0  0  0  # atno 11005 bound_to 11000
  145.0920  139.2884  143.5730 LP  0  0  0  0  0  0  0  0  0  0  0  0  # atno 17320 bound_to 7965
  146.3529  140.0459  142.8639 LP  0  0  0  0  0  0  0  0  0  0  0  0  # atno 17321 bound_to 7965
  140.1379  144.5229  150.6762 LP  0  0  0  0  0  0  0  0  0  0  0  0  # atno 17342 bound_to 10162
  140.6892  143.2366  151.5178 LP  0  0  0  0  0  0  0  0  0  0  0  0  # atno 17343 bound_to 10162
  157.7372  131.0554  150.5368 LP  0  0  0  0  0  0  0  0  0  0  0  0  # atno 17370 bound_to 10713
  156.5498  130.4229  149.6113 LP  0  0  0  0  0  0  0  0  0  0  0  0  # atno 17371 bound_to 10713
  139.9882  135.0074  156.9912 LP  0  0  0  0  0  0  0  0  0  0  0  0  # atno 17394 bound_to 11000
  140.4986  134.1120  155.7246 LP  0  0  0  0  0  0  0  0  0  0  0  0  # atno 17395 bound_to 11000

$$$$
