AV-unprocessed.smi:98|AV-procd|sdf|863|dock4
  -GOLD-   2262017313D 1   1.00000     0.00000
 Structure written by MMmdl.
 56 59  0  0  0  0  0  0  0  0  1 V2000
  151.5450  136.3380  155.1341 O   0  0  0  0  0  0  0  0  0  0  0  0
  151.5299  137.2140  155.9997 C   0  0  0  0  0  0  0  0  0  0  0  0
  152.3718  138.4893  155.8330 C   0  0  0  0  0  0  0  0  0  0  0  0
  151.6152  139.7363  156.0819 N   0  0  0  0  0  0  0  0  0  0  0  0
  150.5456  140.0624  155.2111 C   0  0  0  0  0  0  0  0  0  0  0  0
  150.2597  139.3419  154.2536 O   0  0  0  0  0  0  0  0  0  0  0  0
  149.8178  141.2832  155.5371 C   0  0  0  0  0  0  0  0  0  0  0  0
  148.7770  141.6617  154.7760 F   0  0  0  0  0  0  0  0  0  0  0  0
  150.1703  142.0392  156.5970 C   0  0  0  0  0  0  0  0  0  0  0  0
  151.2300  141.7237  157.4242 N   0  0  0  0  0  0  0  0  0  0  0  0
  151.5245  142.6066  158.6148 C   0  0  2  0  0  0  0  0  0  0  0  0
  150.5250  143.7662  158.7845 C   0  0  0  0  0  0  0  0  0  0  0  0
  151.4183  144.9950  158.7339 C   0  0  0  0  0  0  0  0  0  0  0  0
  152.7910  144.4321  159.0853 C   0  0  0  0  0  0  0  0  0  0  0  0
  152.7943  143.1603  158.4560 O   0  0  0  0  0  0  0  0  0  0  0  0
  151.9612  140.5344  157.1989 C   0  0  0  0  0  0  0  0  0  0  0  0
  152.8708  140.1955  157.9575 O   0  0  0  0  0  0  0  0  0  0  0  0
  150.8188  137.1472  157.1402 N   0  0  0  0  0  0  0  0  0  0  0  0
  149.9627  136.1088  157.5978 C   0  0  0  0  0  0  0  0  0  0  0  0
  149.2950  136.3199  158.8231 C   0  0  0  0  0  0  0  0  0  0  0  0
  148.4180  135.3462  159.3381 C   0  0  0  0  0  0  0  0  0  0  0  0
  148.1933  134.1592  158.6143 C   0  0  0  0  0  0  0  0  0  0  0  0
  147.0814  132.9163  159.2655 S   0  0  0  0  0  0  0  0  0  0  0  0
  147.6600  131.5908  158.9948 O   0  0  0  0  0  0  0  0  0  0  0  0
  146.7223  133.2921  160.6421 O   0  0  0  0  0  0  0  0  0  0  0  0
  145.6577  133.0858  158.2795 N   0  0  0  0  0  0  0  0  0  0  0  0
  145.1481  134.4308  157.9600 C   0  0  0  0  0  0  0  0  0  0  0  0
  143.9304  134.7835  158.8327 C   0  0  0  0  0  0  0  0  0  0  0  0
  142.9412  133.7703  158.7213 O   0  0  0  0  0  0  0  0  0  0  0  0
  143.4164  132.5151  159.1859 C   0  0  0  0  0  0  0  0  0  0  0  0
  144.6088  132.0524  158.3297 C   0  0  0  0  0  0  0  0  0  0  0  0
  148.8473  133.9375  157.3870 C   0  0  0  0  0  0  0  0  0  0  0  0
  149.7229  134.9139  156.8746 C   0  0  0  0  0  0  0  0  0  0  0  0
  153.2394  138.4145  156.4902 H   0  0  0  0  0  0  0  0  0  0  0  0
  152.8021  138.4969  154.8300 H   0  0  0  0  0  0  0  0  0  0  0  0
  149.5944  142.9307  156.7985 H   0  0  0  0  0  0  0  0  0  0  0  0
  151.5274  141.9479  159.4845 H   0  0  0  0  0  0  0  0  0  0  0  0
  149.7511  143.7696  158.0164 H   0  0  0  0  0  0  0  0  0  0  0  0
  150.0441  143.6699  159.7585 H   0  0  0  0  0  0  0  0  0  0  0  0
  151.4337  145.4071  157.7246 H   0  0  0  0  0  0  0  0  0  0  0  0
  151.0967  145.7837  159.4141 H   0  0  0  0  0  0  0  0  0  0  0  0
  153.6083  145.0603  158.7303 H   0  0  0  0  0  0  0  0  0  0  0  0
  152.8950  144.3059  160.1642 H   0  0  0  0  0  0  0  0  0  0  0  0
  150.9680  137.9026  157.7932 H   0  0  0  0  0  0  0  0  0  0  0  0
  149.4579  137.2322  159.3788 H   0  0  0  0  0  0  0  0  0  0  0  0
  147.9165  135.5187  160.2789 H   0  0  0  0  0  0  0  0  0  0  0  0
  145.9333  135.1775  158.0757 H   0  0  0  0  0  0  0  0  0  0  0  0
  144.8565  134.4465  156.9095 H   0  0  0  0  0  0  0  0  0  0  0  0
  144.2134  134.9130  159.8772 H   0  0  0  0  0  0  0  0  0  0  0  0
  143.5012  135.7307  158.5059 H   0  0  0  0  0  0  0  0  0  0  0  0
  143.6875  132.5862  160.2392 H   0  0  0  0  0  0  0  0  0  0  0  0
  142.6072  131.7878  159.1195 H   0  0  0  0  0  0  0  0  0  0  0  0
  144.2692  131.8592  157.3117 H   0  0  0  0  0  0  0  0  0  0  0  0
  145.0118  131.1128  158.7066 H   0  0  0  0  0  0  0  0  0  0  0  0
  148.6707  133.0298  156.8289 H   0  0  0  0  0  0  0  0  0  0  0  0
  150.1882  134.7286  155.9191 H   0  0  0  0  0  0  0  0  0  0  0  0
  1  2  2  0  0  0  0
  2  3  1  0  0  0  0
  2 18  1  0  0  0  0
  3  4  1  0  0  0  0
  3 34  1  0  0  0  0
  3 35  1  0  0  0  0
  4 16  1  0  0  0  0
  4  5  1  0  0  0  0
  5  6  2  0  0  0  0
  5  7  1  0  0  0  0
  7  8  1  0  0  0  0
  7  9  2  0  0  0  0
  9 10  1  0  0  0  0
  9 36  1  0  0  0  0
 10 11  1  0  0  0  0
 10 16  1  0  0  0  0
 11 15  1  0  0  0  0
 11 12  1  0  0  0  0
 11 37  1  0  0  0  0
 12 13  1  0  0  0  0
 12 38  1  0  0  0  0
 12 39  1  0  0  0  0
 13 14  1  0  0  0  0
 13 40  1  0  0  0  0
 13 41  1  0  0  0  0
 14 15  1  0  0  0  0
 14 42  1  0  0  0  0
 14 43  1  0  0  0  0
 16 17  2  0  0  0  0
 18 19  1  0  0  0  0
 18 44  1  0  0  0  0
 19 33  1  0  0  0  0
 19 20  2  0  0  0  0
 20 21  1  0  0  0  0
 20 45  1  0  0  0  0
 21 22  2  0  0  0  0
 21 46  1  0  0  0  0
 22 23  1  0  0  0  0
 22 32  1  0  0  0  0
 23 24  2  0  0  0  0
 23 25  2  0  0  0  0
 23 26  1  0  0  0  0
 26 31  1  0  0  0  0
 26 27  1  0  0  0  0
 27 28  1  0  0  0  0
 27 47  1  0  0  0  0
 27 48  1  0  0  0  0
 28 29  1  0  0  0  0
 28 49  1  0  0  0  0
 28 50  1  0  0  0  0
 29 30  1  0  0  0  0
 30 31  1  0  0  0  0
 30 51  1  0  0  0  0
 30 52  1  0  0  0  0
 31 53  1  0  0  0  0
 31 54  1  0  0  0  0
 32 33  2  0  0  0  0
 32 55  1  0  0  0  0
 33 56  1  0  0  0  0
M  END
> <s_m_source_file>
AV-unprocessed.smi

> <i_m_source_file_index>
98

> <i_lp_mmshare_version>
43012

> <i_f3d_flags>
0

> <s_epik_input>
TzFbQ0gyXVtDSDJdW0NIMl1bQ0BIXTFuKGMyPU8pW2NIXWMoRiljKD1PKW4yW0NIMl1DKD1PKVtOSF1jM1tjSF1bY0hdYyhbY0hdW2NIXTMpUyg9TykoPU8pTjRbQ0gyXVtDSDJdT1tDSDJdW0NIMl00

> <s_epik_cmdline>
J2VwaWtfcHl0aG9uJywgJy1waCcsICc3LjAnLCAnLXRuJywgJzgnLCAnLW1hJywgJzIwMCcsICctbWV0YWxfYmluZGluZycsICctaW1hZScsICc8aW5maWxlLm1hZT4nLCAnLW9tYWUnLCAnPG91dGZpbGUubWFlPic=

> <r_lp_tautomer_probability>
1

> <r_epik_Ionization_Penalty>
1.9271e-06

> <r_epik_Ionization_Penalty_Charging>
3.88729e-08

> <r_epik_Ionization_Penalty_Neutral>
1.88823e-06

> <r_epik_State_Penalty>
-0

> <r_epik_Charging_Adjusted_Penalty>
3.88729e-08

> <i_epik_Tot_Q>
0

> <i_epik_Tot_abs_Q>
0

> <r_epik_Metal_State_Penalty>
-0

> <b_epik_Metal_Only>
0

> <s_epik_Chemistry_Notes>
This compound contains an acetal/aminal-like group ( X-CH(R)-Y where X, Y are N, S, or O) that may be acid/base labile, releasing an aldehyde.

> <s_lp_Force_Field>
OPLS_2005

> <r_lp_Energy>
27.1293

> <b_lp_Chiralities_Consistent>
1

> <s_lp_Variant>
AV-unprocessed.smi:98-1

> <Gold.Version>
5.8.1

> <Gold.Id.Protein>
6NUR|6NUR_protein|mol2

> <Gold.PLP.Fitness>
54.0758

> <Gold.PLP.PLP>
-42.7994

> <Gold.PLP.part.hbond>
-4.0000

> <Gold.PLP.part.metal>
0.0000

> <Gold.PLP.part.buried>
-2.7277

> <Gold.PLP.part.nonpolar>
-36.0732

> <Gold.PLP.part.repulsive>
0.4825

> <Gold.PLP.ligand.clash>
0.0000

> <Gold.PLP.ligand.torsion>
2.3883

> <Gold.PLP.Chemscore.Hbond>
2.9760

> <Gold.PLP.Chemscore.CHOScore>
1.0000

> <Gold.PLP.Chemscore.Metal>
0.0000

> <Gold.Chemscore.Hbonds>
donor molecule, donor type, donor heavy atom, donor atom, acceptor molecule, acceptor atom, score
      P1  H  7997  8008       L1    17  0.96
      P1  H 10752 10763       L1     1  1.00
      P1  H 11000 11005       L1    29  0.23
      L1  C     9    36       P1  8028  1.00

> <Gold.PLP.Chemscore.Internal.Correction>
4.1252

> <Gold.Rescore>
     Score         DG    S(hbond)    S(metal)    S(lipo)     H(rot)  DE(clash)    DE(int)     intcor
     13.69     -19.71       2.83        0.00      77.62       1.67       0.18       5.84       ----

> <Gold.Chemscore.Fitness>
13.6950

> <Gold.Chemscore.DG>
-19.7131

> <Gold.Chemscore.ZeroCoef>
-5.4800

> <Gold.Chemscore.Hbond>
2.8257

> <Gold.Chemscore.Metal>
0.0000

> <Gold.Chemscore.Lipo>
77.6229

> <Gold.Chemscore.Internal_Hbond>
0.0000

> <Gold.Chemscore.DEClash>
0.1784

> <Gold.Chemscore.DEInternal>
5.8397

> <Gold.Chemscore.Rot>
1.6744

> <Gold.Chemscore.Internal.Correction>
   9.000000E+99

> <Gold.Chemscore.Hbonds>
donor molecule, donor type, donor heavy atom, donor atom, acceptor molecule, acceptor atom, score
      P1  H  7997  8008       L1    17  0.72
      P1  H 10752 10763       L1     1  1.00
      P1  H 11000 11005       L1    29  0.22

> <Gold.Chemscore.Hbond.Weighted>
-9.4377

> <Gold.Chemscore.Metal.Weighted>
-0.0000

> <Gold.Chemscore.Lipo.Weighted>
-9.0819

> <Gold.Chemscore.Internal_Hbond.Weighted>
0.0000

> <Gold.Chemscore.DEClash.Weighted>
0.1784

> <Gold.Chemscore.DEInternal.Weighted>
5.8397

> <Gold.Chemscore.Rot.Weighted>
4.2865

> <Gold.Chemscore.Internal.Correction.Weighted>
   9.000000E+99

> <Gold.Protein.RotatedTorsions>
[ 6907 6896 6895 6894 ] final -135.42 input  -60.11 | X-H torsion
[ 7974 7965 7964 7962 ] final  113.25 input  175.53 | X-H torsion
[ 8008 7997 7996 7995 ] final  -83.66 input   59.86 | X-H torsion
[ 10167 10162 10161 10158 ] final -148.00 input  -65.29 | X-H torsion
[ 10718 10713 10712 10709 ] final   -8.62 input   66.30 | X-H torsion
[ 10763 10752 10751 10750 ] final   52.00 input  -60.55 | X-H torsion
[ 11005 11000 10999 10996 ] final -104.20 input  -57.11 | X-H torsion

> <Gold.Protein.ActiveResidues>
 VAL166  LYS551  ARG553  GLY616  TRP617  ASP618  TYR619  PRO620  LYS621  CYS622 
 ASP623  PHE694  ASN695  SER759  ASP760  ASP761  ALA762  ILE779  LEU786  VAL792 
 PHE793  MET794  SER795  GLU796  ALA797  LYS798  CYS799  TRP800  GLU811  SER814 

> <Gold.Protein.RotatedAtoms>
  150.9977  133.6087  159.2699 H   0  0  0  0  0  0  0  0  0  0  0  0  # atno 6907 bound_to 6896
  151.3285  135.0835  159.9340 H   0  0  0  0  0  0  0  0  0  0  0  0  # atno 6908 bound_to 6896
  152.5264  133.9611  159.7772 H   0  0  0  0  0  0  0  0  0  0  0  0  # atno 6909 bound_to 6896
  145.2193  139.2869  143.4227 H   0  0  0  0  0  0  0  0  0  0  0  0  # atno 7974 bound_to 7965
  154.6215  140.0616  156.9620 H   0  0  0  0  0  0  0  0  0  0  0  0  # atno 8008 bound_to 7997
  155.1810  140.3299  155.4356 H   0  0  0  0  0  0  0  0  0  0  0  0  # atno 8009 bound_to 7997
  156.2434  140.1897  156.6907 H   0  0  0  0  0  0  0  0  0  0  0  0  # atno 8010 bound_to 7997
  139.7571  143.8431  152.2599 H   0  0  0  0  0  0  0  0  0  0  0  0  # atno 10167 bound_to 10162
  156.6999  130.5090  149.5920 H   0  0  0  0  0  0  0  0  0  0  0  0  # atno 10718 bound_to 10713
  152.9787  135.5827  154.4507 H   0  0  0  0  0  0  0  0  0  0  0  0  # atno 10763 bound_to 10752
  154.4096  135.2770  155.2047 H   0  0  0  0  0  0  0  0  0  0  0  0  # atno 10764 bound_to 10752
  154.3843  135.6139  153.5862 H   0  0  0  0  0  0  0  0  0  0  0  0  # atno 10765 bound_to 10752
  141.1111  133.8703  157.1581 H   0  0  0  0  0  0  0  0  0  0  0  0  # atno 11005 bound_to 11000
  146.3380  140.2493  142.8598 LP  0  0  0  0  0  0  0  0  0  0  0  0  # atno 17320 bound_to 7965
  144.9781  140.8433  143.5414 LP  0  0  0  0  0  0  0  0  0  0  0  0  # atno 17321 bound_to 7965
  139.8427  144.7202  150.9311 LP  0  0  0  0  0  0  0  0  0  0  0  0  # atno 17342 bound_to 10162
  140.7804  143.3969  151.1214 LP  0  0  0  0  0  0  0  0  0  0  0  0  # atno 17343 bound_to 10162
  156.1736  130.6453  151.0868 LP  0  0  0  0  0  0  0  0  0  0  0  0  # atno 17370 bound_to 10713
  157.6977  131.0788  150.6918 LP  0  0  0  0  0  0  0  0  0  0  0  0  # atno 17371 bound_to 10713
  140.0006  135.0029  157.0181 LP  0  0  0  0  0  0  0  0  0  0  0  0  # atno 17394 bound_to 11000
  140.4772  134.1326  155.7211 LP  0  0  0  0  0  0  0  0  0  0  0  0  # atno 17395 bound_to 11000

$$$$
