AV-unprocessed.smi:1620|AV-procd|sdf|6492|dock3
  -GOLD-   22720 7153D 1   1.00000     0.00000
 Structure written by MMmdl.
 40 40  0  0  0  0  0  0  0  0  1 V2000
  152.4700  142.3799  162.2608 C   0  0  0  0  0  0  0  0  0  0  0  0
  152.8020  143.4697  161.2232 C   0  0  0  0  0  0  0  0  0  0  0  0
  152.2457  144.8219  161.7048 C   0  0  0  0  0  0  0  0  0  0  0  0
  152.3096  143.1089  159.7915 C   0  0  1  0  0  0  0  0  0  0  0  0
  152.5070  144.2292  158.7477 C   0  0  0  0  0  0  0  0  0  0  0  0
  152.8921  141.8321  159.3016 N   0  0  0  0  0  0  0  0  0  0  0  0
  154.1287  141.3996  159.9666 C   0  0  0  0  0  0  0  0  0  0  0  0
  152.4406  141.1068  158.2431 C   0  0  0  0  0  0  0  0  0  0  0  0
  152.8667  139.9800  157.9839 O   0  0  0  0  0  0  0  0  0  0  0  0
  151.4394  141.6862  157.5525 N   0  0  0  0  0  0  0  0  0  0  0  0
  150.7561  141.1823  156.4173 C   0  0  0  0  0  0  0  0  0  0  0  0
  151.2391  140.1417  155.5823 C   0  0  0  0  0  0  0  0  0  0  0  0
  150.3911  139.8837  154.5986 N   0  0  0  0  0  0  0  0  0  0  0  0
  149.3618  140.7481  154.7853 N   0  0  0  0  0  0  0  0  0  0  0  0
  148.2398  140.7409  153.8630 C   0  0  0  0  0  0  0  0  0  0  0  0
  147.5993  139.3540  153.7776 C   0  0  0  0  0  0  0  0  0  0  0  0
  147.6794  138.7158  152.6068 N   0  0  0  0  0  0  0  0  0  0  0  0
  147.0431  138.8631  154.7575 O   0  0  0  0  0  0  0  0  0  0  0  0
  149.5524  141.5556  155.8897 C   0  0  0  0  0  0  0  0  0  0  0  0
  151.3959  142.2008  162.3175 H   0  0  0  0  0  0  0  0  0  0  0  0
  152.8098  142.6688  163.2558 H   0  0  0  0  0  0  0  0  0  0  0  0
  152.9554  141.4330  162.0244 H   0  0  0  0  0  0  0  0  0  0  0  0
  153.8877  143.5663  161.2001 H   0  0  0  0  0  0  0  0  0  0  0  0
  151.1552  144.8250  161.7062 H   0  0  0  0  0  0  0  0  0  0  0  0
  152.5834  145.6455  161.0765 H   0  0  0  0  0  0  0  0  0  0  0  0
  152.5773  145.0436  162.7194 H   0  0  0  0  0  0  0  0  0  0  0  0
  151.2258  143.0216  159.8644 H   0  0  0  0  0  0  0  0  0  0  0  0
  151.8888  145.0977  158.9737 H   0  0  0  0  0  0  0  0  0  0  0  0
  152.2196  143.8894  157.7521 H   0  0  0  0  0  0  0  0  0  0  0  0
  153.5410  144.5704  158.6984 H   0  0  0  0  0  0  0  0  0  0  0  0
  154.1184  140.3257  160.1607 H   0  0  0  0  0  0  0  0  0  0  0  0
  154.2805  141.8853  160.9297 H   0  0  0  0  0  0  0  0  0  0  0  0
  154.9935  141.6239  159.3409 H   0  0  0  0  0  0  0  0  0  0  0  0
  151.1446  142.5970  157.8734 H   0  0  0  0  0  0  0  0  0  0  0  0
  152.1568  139.5768  155.6550 H   0  0  0  0  0  0  0  0  0  0  0  0
  147.4984  141.4766  154.1792 H   0  0  0  0  0  0  0  0  0  0  0  0
  148.5960  141.0478  152.8787 H   0  0  0  0  0  0  0  0  0  0  0  0
  147.2796  137.7936  152.5086 H   0  0  0  0  0  0  0  0  0  0  0  0
  148.1488  139.1537  151.8274 H   0  0  0  0  0  0  0  0  0  0  0  0
  148.8300  142.3029  156.1834 H   0  0  0  0  0  0  0  0  0  0  0  0
  1  2  1  0  0  0  0
  1 20  1  0  0  0  0
  1 21  1  0  0  0  0
  1 22  1  0  0  0  0
  2  3  1  0  0  0  0
  2  4  1  0  0  0  0
  2 23  1  0  0  0  0
  3 24  1  0  0  0  0
  3 25  1  0  0  0  0
  3 26  1  0  0  0  0
  4  5  1  0  0  0  0
  4  6  1  0  0  0  0
  4 27  1  0  0  0  0
  5 28  1  0  0  0  0
  5 29  1  0  0  0  0
  5 30  1  0  0  0  0
  6  7  1  0  0  0  0
  6  8  1  0  0  0  0
  7 31  1  0  0  0  0
  7 32  1  0  0  0  0
  7 33  1  0  0  0  0
  8  9  2  0  0  0  0
  8 10  1  0  0  0  0
 10 11  1  0  0  0  0
 10 34  1  0  0  0  0
 11 19  2  0  0  0  0
 11 12  1  0  0  0  0
 12 13  2  0  0  0  0
 12 35  1  0  0  0  0
 13 14  1  0  0  0  0
 14 15  1  0  0  0  0
 14 19  1  0  0  0  0
 15 16  1  0  0  0  0
 15 36  1  0  0  0  0
 15 37  1  0  0  0  0
 16 17  1  0  0  0  0
 16 18  2  0  0  0  0
 17 38  1  0  0  0  0
 17 39  1  0  0  0  0
 19 40  1  0  0  0  0
M  END
> <s_m_source_file>
AV-unprocessed.smi

> <i_m_source_file_index>
1620

> <i_lp_mmshare_version>
43012

> <i_f3d_flags>
0

> <s_epik_input>
W0NIM11bQ0hdKFtDSDNdKVtDQEhdKFtDSDNdKU4oW0NIM10pQyg9TylbTkhdYzFbY0hdbm4oW2NIXTEpW0NIMl1DKD1PKVtOSDJd

> <s_epik_cmdline>
J2VwaWtfcHl0aG9uJywgJy1waCcsICc3LjAnLCAnLXRuJywgJzgnLCAnLW1hJywgJzIwMCcsICctbWV0YWxfYmluZGluZycsICctaW1hZScsICc8aW5maWxlLm1hZT4nLCAnLW9tYWUnLCAnPG91dGZpbGUubWFlPic=

> <r_lp_tautomer_probability>
1

> <r_epik_Ionization_Penalty>
4.85642e-05

> <r_epik_Ionization_Penalty_Charging>
0

> <r_epik_Ionization_Penalty_Neutral>
4.85642e-05

> <r_epik_State_Penalty>
-0

> <r_epik_Charging_Adjusted_Penalty>
0

> <i_epik_Tot_Q>
0

> <i_epik_Tot_abs_Q>
0

> <r_epik_Metal_State_Penalty>
-0

> <b_epik_Metal_Only>
0

> <s_lp_Force_Field>
OPLS_2005

> <r_lp_Energy>
32.9866

> <b_lp_Chiralities_Consistent>
1

> <s_lp_Variant>
AV-unprocessed.smi:1620-2

> <Gold.Version>
5.8.1

> <Gold.Id.Protein>
6NUR|6NUR_protein|mol2

> <Gold.PLP.Fitness>
51.1142

> <Gold.PLP.PLP>
-40.4872

> <Gold.PLP.part.hbond>
-3.8525

> <Gold.PLP.part.metal>
0.0000

> <Gold.PLP.part.buried>
2.1207

> <Gold.PLP.part.nonpolar>
-37.6684

> <Gold.PLP.part.repulsive>
0.3202

> <Gold.PLP.ligand.clash>
0.1345

> <Gold.PLP.ligand.torsion>
0.5269

> <Gold.PLP.Chemscore.Hbond>
2.9032

> <Gold.PLP.Chemscore.CHOScore>
0.9699

> <Gold.PLP.Chemscore.Metal>
0.0000

> <Gold.Chemscore.Hbonds>
donor molecule, donor type, donor heavy atom, donor atom, acceptor molecule, acceptor atom, score
      L1  H    17    38       P1  7948  0.03
      L1  H    17    39       P1  7957  1.00
      P1  H  7989  7998       L1    13  0.25
      P1  H  7997  8009       L1     9  1.00
      L1  C    19    40       P1  8028  0.95

> <Gold.PLP.Chemscore.Internal.Correction>
0.1961

> <Gold.Rescore>
     Score         DG    S(hbond)    S(metal)    S(lipo)     H(rot)  DE(clash)    DE(int)     intcor
     14.24     -19.55       2.34        0.00      99.32       2.10       2.80       2.51       ----

> <Gold.Chemscore.Fitness>
14.2393

> <Gold.Chemscore.DG>
-19.5469

> <Gold.Chemscore.ZeroCoef>
-5.4800

> <Gold.Chemscore.Hbond>
2.3449

> <Gold.Chemscore.Metal>
0.0000

> <Gold.Chemscore.Lipo>
99.3232

> <Gold.Chemscore.Internal_Hbond>
0.0000

> <Gold.Chemscore.DEClash>
2.8010

> <Gold.Chemscore.DEInternal>
2.5066

> <Gold.Chemscore.Rot>
2.1039

> <Gold.Chemscore.Internal.Correction>
   9.000000E+99

> <Gold.Chemscore.Hbonds>
donor molecule, donor type, donor heavy atom, donor atom, acceptor molecule, acceptor atom, score
      L1  H    17    38       P1  7948  0.04
      L1  H    17    39       P1  7957  0.94
      P1  H  7997  8009       L1     9  0.77

> <Gold.Chemscore.Hbond.Weighted>
-7.8320

> <Gold.Chemscore.Metal.Weighted>
-0.0000

> <Gold.Chemscore.Lipo.Weighted>
-11.6208

> <Gold.Chemscore.Internal_Hbond.Weighted>
0.0000

> <Gold.Chemscore.DEClash.Weighted>
2.8010

> <Gold.Chemscore.DEInternal.Weighted>
2.5066

> <Gold.Chemscore.Rot.Weighted>
5.3860

> <Gold.Chemscore.Internal.Correction.Weighted>
   9.000000E+99

> <Gold.Protein.RotatedTorsions>
[ 6907 6896 6895 6894 ] final  156.87 input  -60.11 | X-H torsion
[ 7974 7965 7964 7962 ] final -137.08 input  175.53 | X-H torsion
[ 8008 7997 7996 7995 ] final  152.54 input   59.86 | X-H torsion
[ 10167 10162 10161 10158 ] final  -24.28 input  -65.29 | X-H torsion
[ 10718 10713 10712 10709 ] final  -48.67 input   66.30 | X-H torsion
[ 10763 10752 10751 10750 ] final  -34.78 input  -60.55 | X-H torsion
[ 11005 11000 10999 10996 ] final  -13.15 input  -57.11 | X-H torsion

> <Gold.Protein.ActiveResidues>
 VAL166  LYS551  ARG553  GLY616  TRP617  ASP618  TYR619  PRO620  LYS621  CYS622 
 ASP623  PHE694  ASN695  SER759  ASP760  ASP761  ALA762  ILE779  LEU786  VAL792 
 PHE793  MET794  SER795  GLU796  ALA797  LYS798  CYS799  TRP800  GLU811  SER814 

> <Gold.Protein.RotatedAtoms>
  152.0234  133.3907  159.4267 H   0  0  0  0  0  0  0  0  0  0  0  0  # atno 6907 bound_to 6896
  150.6888  134.3601  159.4956 H   0  0  0  0  0  0  0  0  0  0  0  0  # atno 6908 bound_to 6896
  152.1378  134.9085  160.0606 H   0  0  0  0  0  0  0  0  0  0  0  0  # atno 6909 bound_to 6896
  144.8872  140.6591  143.5168 H   0  0  0  0  0  0  0  0  0  0  0  0  # atno 7974 bound_to 7965
  156.2624  140.2018  156.6349 H   0  0  0  0  0  0  0  0  0  0  0  0  # atno 8008 bound_to 7997
  154.6654  140.0556  157.0132 H   0  0  0  0  0  0  0  0  0  0  0  0  # atno 8009 bound_to 7997
  155.1214  140.3225  155.4499 H   0  0  0  0  0  0  0  0  0  0  0  0  # atno 8010 bound_to 7997
  140.7288  143.4367  151.0719 H   0  0  0  0  0  0  0  0  0  0  0  0  # atno 10167 bound_to 10162
  156.1965  130.4154  149.9299 H   0  0  0  0  0  0  0  0  0  0  0  0  # atno 10718 bound_to 10713
  153.8523  135.6848  153.4791 H   0  0  0  0  0  0  0  0  0  0  0  0  # atno 10763 bound_to 10752
  153.1390  135.4665  154.9464 H   0  0  0  0  0  0  0  0  0  0  0  0  # atno 10764 bound_to 10752
  154.7796  135.3264  154.7966 H   0  0  0  0  0  0  0  0  0  0  0  0  # atno 10765 bound_to 10752
  140.7731  133.8422  155.9225 H   0  0  0  0  0  0  0  0  0  0  0  0  # atno 11005 bound_to 11000
  145.3848  139.1629  143.4261 LP  0  0  0  0  0  0  0  0  0  0  0  0  # atno 17320 bound_to 7965
  146.3032  140.3932  142.8697 LP  0  0  0  0  0  0  0  0  0  0  0  0  # atno 17321 bound_to 7965
  139.8030  143.8057  152.3164 LP  0  0  0  0  0  0  0  0  0  0  0  0  # atno 17342 bound_to 10162
  139.8080  144.7347  150.9735 LP  0  0  0  0  0  0  0  0  0  0  0  0  # atno 17343 bound_to 10162
  156.7022  130.8937  151.3600 LP  0  0  0  0  0  0  0  0  0  0  0  0  # atno 17370 bound_to 10713
  157.6961  130.9283  150.0648 LP  0  0  0  0  0  0  0  0  0  0  0  0  # atno 17371 bound_to 10713
  140.9554  134.1724  157.4695 LP  0  0  0  0  0  0  0  0  0  0  0  0  # atno 17394 bound_to 11000
  139.8753  134.9925  156.5599 LP  0  0  0  0  0  0  0  0  0  0  0  0  # atno 17395 bound_to 11000

$$$$
