AV-unprocessed.smi:2184|AV-procd|sdf|8872|dock5
  -GOLD-   2272012 73D 1   1.00000     0.00000
 Structure written by MMmdl.
 47 48  0  0  0  0  0  0  0  0  1 V2000
  149.0721  132.7890  153.2862 C   0  0  0  0  0  0  0  0  0  0  0  0
  150.4796  133.9064  153.0431 S   0  0  0  0  0  0  0  0  0  0  0  0
  150.4371  134.8589  154.5909 C   0  0  1  0  0  0  0  0  0  0  0  0
  150.7294  133.9406  155.7882 C   0  0  0  0  0  0  0  0  0  0  0  0
  151.4051  136.0479  154.5588 C   0  0  0  0  0  0  0  0  0  0  0  0
  152.3384  136.1130  155.3597 O   0  0  0  0  0  0  0  0  0  0  0  0
  151.1741  136.9829  153.6238 N   0  0  0  0  0  0  0  0  0  0  0  0
  151.9745  138.1882  153.4321 C   0  0  0  0  0  0  0  0  0  0  0  0
  151.9244  139.1681  154.5961 C   0  0  0  0  0  0  0  0  0  0  0  0
  150.7950  139.9744  154.8502 C   0  0  0  0  0  0  0  0  0  0  0  0
  150.8203  140.8620  155.9425 C   0  0  0  0  0  0  0  0  0  0  0  0
  151.9785  140.9275  156.7528 C   0  0  0  0  0  0  0  0  0  0  0  0
  152.0237  141.8092  157.8541 N   0  0  0  0  0  0  0  0  0  0  0  0
  150.9100  142.7369  158.0382 C   0  0  0  0  0  0  0  0  0  0  0  0
  151.2594  143.8220  159.0755 C   0  0  2  0  0  0  0  0  0  0  0  0
  152.2212  144.8970  158.5380 C   0  0  0  0  0  0  0  0  0  0  0  0
  151.7417  143.2175  160.2778 O   0  0  0  0  0  0  0  0  0  0  0  0
  152.8641  142.3534  160.1032 C   0  0  1  0  0  0  0  0  0  0  0  0
  153.2478  141.7918  161.4762 C   0  0  0  0  0  0  0  0  0  0  0  0
  152.5077  141.2365  159.1058 C   0  0  0  0  0  0  0  0  0  0  0  0
  153.0627  140.1522  156.5039 N   0  0  0  0  0  0  0  0  0  0  0  0
  153.0331  139.3029  155.4556 C   0  0  0  0  0  0  0  0  0  0  0  0
  148.9908  132.1030  152.4433 H   0  0  0  0  0  0  0  0  0  0  0  0
  148.1409  133.3502  153.3606 H   0  0  0  0  0  0  0  0  0  0  0  0
  149.2014  132.2037  154.1963 H   0  0  0  0  0  0  0  0  0  0  0  0
  149.4207  135.2378  154.7093 H   0  0  0  0  0  0  0  0  0  0  0  0
  150.7200  134.4963  156.7269 H   0  0  0  0  0  0  0  0  0  0  0  0
  151.7026  133.4569  155.6961 H   0  0  0  0  0  0  0  0  0  0  0  0
  149.9778  133.1547  155.8668 H   0  0  0  0  0  0  0  0  0  0  0  0
  150.3890  136.8511  153.0027 H   0  0  0  0  0  0  0  0  0  0  0  0
  153.0096  137.9106  153.2257 H   0  0  0  0  0  0  0  0  0  0  0  0
  151.6094  138.6994  152.5411 H   0  0  0  0  0  0  0  0  0  0  0  0
  149.9168  139.9180  154.2241 H   0  0  0  0  0  0  0  0  0  0  0  0
  149.9514  141.4673  156.1536 H   0  0  0  0  0  0  0  0  0  0  0  0
  150.6410  143.2081  157.0917 H   0  0  0  0  0  0  0  0  0  0  0  0
  150.0389  142.1739  158.3762 H   0  0  0  0  0  0  0  0  0  0  0  0
  150.3346  144.3339  159.3429 H   0  0  0  0  0  0  0  0  0  0  0  0
  151.7692  145.4355  157.7050 H   0  0  0  0  0  0  0  0  0  0  0  0
  153.1575  144.4722  158.1767 H   0  0  0  0  0  0  0  0  0  0  0  0
  152.4604  145.6272  159.3114 H   0  0  0  0  0  0  0  0  0  0  0  0
  153.7123  142.9240  159.7250 H   0  0  0  0  0  0  0  0  0  0  0  0
  154.1126  141.1323  161.4025 H   0  0  0  0  0  0  0  0  0  0  0  0
  152.4274  141.2216  161.9129 H   0  0  0  0  0  0  0  0  0  0  0  0
  153.5008  142.5951  162.1685 H   0  0  0  0  0  0  0  0  0  0  0  0
  151.7274  140.5971  159.5206 H   0  0  0  0  0  0  0  0  0  0  0  0
  153.3816  140.6058  158.9502 H   0  0  0  0  0  0  0  0  0  0  0  0
  153.9236  138.7115  155.3008 H   0  0  0  0  0  0  0  0  0  0  0  0
  1  2  1  0  0  0  0
  1 23  1  0  0  0  0
  1 24  1  0  0  0  0
  1 25  1  0  0  0  0
  2  3  1  0  0  0  0
  3  4  1  0  0  0  0
  3  5  1  0  0  0  0
  3 26  1  0  0  0  0
  4 27  1  0  0  0  0
  4 28  1  0  0  0  0
  4 29  1  0  0  0  0
  5  6  2  0  0  0  0
  5  7  1  0  0  0  0
  7  8  1  0  0  0  0
  7 30  1  0  0  0  0
  8  9  1  0  0  0  0
  8 31  1  0  0  0  0
  8 32  1  0  0  0  0
  9 22  1  0  0  0  0
  9 10  2  0  0  0  0
 10 11  1  0  0  0  0
 10 33  1  0  0  0  0
 11 12  2  0  0  0  0
 11 34  1  0  0  0  0
 12 13  1  0  0  0  0
 12 21  1  0  0  0  0
 13 20  1  0  0  0  0
 13 14  1  0  0  0  0
 14 15  1  0  0  0  0
 14 35  1  0  0  0  0
 14 36  1  0  0  0  0
 15 16  1  0  0  0  0
 15 17  1  0  0  0  0
 15 37  1  0  0  0  0
 16 38  1  0  0  0  0
 16 39  1  0  0  0  0
 16 40  1  0  0  0  0
 17 18  1  0  0  0  0
 18 19  1  0  0  0  0
 18 20  1  0  0  0  0
 18 41  1  0  0  0  0
 19 42  1  0  0  0  0
 19 43  1  0  0  0  0
 19 44  1  0  0  0  0
 20 45  1  0  0  0  0
 20 46  1  0  0  0  0
 21 22  2  0  0  0  0
 22 47  1  0  0  0  0
M  END
> <s_m_source_file>
AV-unprocessed.smi

> <i_m_source_file_index>
2184

> <i_lp_mmshare_version>
43012

> <i_f3d_flags>
0

> <s_epik_input>
W0NIM11TW0NASF0oW0NIM10pQyg9TylbTkhdW0NIMl1jMVtjSF1bY0hdYyhuW2NIXTEpTjJbQ0gyXVtDQEBIXShbQ0gzXSlPW0NAQEhdKFtDSDNdKVtDSDJdMg==

> <s_epik_cmdline>
J2VwaWtfcHl0aG9uJywgJy1waCcsICc3LjAnLCAnLXRuJywgJzgnLCAnLW1hJywgJzIwMCcsICctbWV0YWxfYmluZGluZycsICctaW1hZScsICc8aW5maWxlLm1hZT4nLCAnLW9tYWUnLCAnPG91dGZpbGUubWFlPic=

> <r_lp_tautomer_probability>
1

> <r_epik_Ionization_Penalty>
0.00551702

> <r_epik_Ionization_Penalty_Charging>
0

> <r_epik_Ionization_Penalty_Neutral>
0.00551702

> <r_epik_State_Penalty>
0.00403758

> <r_epik_Charging_Adjusted_Penalty>
0.00403758

> <i_epik_Tot_Q>
0

> <i_epik_Tot_abs_Q>
0

> <r_epik_Metal_State_Penalty>
-0

> <b_epik_Metal_Only>
0

> <s_lp_Force_Field>
OPLS_2005

> <r_lp_Energy>
17.5653

> <b_lp_Chiralities_Consistent>
1

> <s_lp_Variant>
AV-unprocessed.smi:2184-4

> <Gold.Version>
5.8.1

> <Gold.Id.Protein>
6NUR|6NUR_protein|mol2

> <Gold.PLP.Fitness>
54.5691

> <Gold.PLP.PLP>
-46.1004

> <Gold.PLP.part.hbond>
-4.0000

> <Gold.PLP.part.metal>
0.0000

> <Gold.PLP.part.buried>
-2.9516

> <Gold.PLP.part.nonpolar>
-39.6938

> <Gold.PLP.part.repulsive>
0.1448

> <Gold.PLP.ligand.clash>
0.0000

> <Gold.PLP.ligand.torsion>
0.4205

> <Gold.PLP.Chemscore.Hbond>
2.9680

> <Gold.PLP.Chemscore.CHOScore>
0.0000

> <Gold.PLP.Chemscore.Metal>
0.0000

> <Gold.Chemscore.Hbonds>
donor molecule, donor type, donor heavy atom, donor atom, acceptor molecule, acceptor atom, score
      L1  H     7    30       P1  7948  0.15
      P1  H  7997  8009       L1    21  0.45

> <Gold.PLP.Chemscore.Internal.Correction>
0.4057

> <Gold.Rescore>
     Score         DG    S(hbond)    S(metal)    S(lipo)     H(rot)  DE(clash)    DE(int)     intcor
     18.80     -19.90       1.53        0.00     114.50       1.59       0.23       0.88       ----

> <Gold.Chemscore.Fitness>
18.7975

> <Gold.Chemscore.DG>
-19.9033

> <Gold.Chemscore.ZeroCoef>
-5.4800

> <Gold.Chemscore.Hbond>
1.5298

> <Gold.Chemscore.Metal>
0.0000

> <Gold.Chemscore.Lipo>
114.4975

> <Gold.Chemscore.Internal_Hbond>
0.0000

> <Gold.Chemscore.DEClash>
0.2279

> <Gold.Chemscore.DEInternal>
0.8779

> <Gold.Chemscore.Rot>
1.5947

> <Gold.Chemscore.Internal.Correction>
   9.000000E+99

> <Gold.Chemscore.Hbonds>
donor molecule, donor type, donor heavy atom, donor atom, acceptor molecule, acceptor atom, score
      P1  H  7997  8009       L1    21  0.10
      P1  H 10752 10764       L1     6  0.02

> <Gold.Chemscore.Hbond.Weighted>
-5.1095

> <Gold.Chemscore.Metal.Weighted>
-0.0000

> <Gold.Chemscore.Lipo.Weighted>
-13.3962

> <Gold.Chemscore.Internal_Hbond.Weighted>
0.0000

> <Gold.Chemscore.DEClash.Weighted>
0.2279

> <Gold.Chemscore.DEInternal.Weighted>
0.8779

> <Gold.Chemscore.Rot.Weighted>
4.0824

> <Gold.Chemscore.Internal.Correction.Weighted>
   9.000000E+99

> <Gold.Protein.RotatedTorsions>
[ 6907 6896 6895 6894 ] final   56.76 input  -60.11 | X-H torsion
[ 7974 7965 7964 7962 ] final  131.64 input  175.53 | X-H torsion
[ 8008 7997 7996 7995 ] final  166.00 input   59.86 | X-H torsion
[ 10167 10162 10161 10158 ] final   67.49 input  -65.29 | X-H torsion
[ 10718 10713 10712 10709 ] final  -78.53 input   66.30 | X-H torsion
[ 10763 10752 10751 10750 ] final  -26.13 input  -60.55 | X-H torsion
[ 11005 11000 10999 10996 ] final   54.57 input  -57.11 | X-H torsion

> <Gold.Protein.ActiveResidues>
 VAL166  LYS551  ARG553  GLY616  TRP617  ASP618  TYR619  PRO620  LYS621  CYS622 
 ASP623  PHE694  ASN695  SER759  ASP760  ASP761  ALA762  ILE779  LEU786  VAL792 
 PHE793  MET794  SER795  GLU796  ALA797  LYS798  CYS799  TRP800  GLU811  SER814 

> <Gold.Protein.RotatedAtoms>
  152.3667  134.6794  160.0189 H   0  0  0  0  0  0  0  0  0  0  0  0  # atno 6907 bound_to 6896
  151.7099  133.3306  159.3296 H   0  0  0  0  0  0  0  0  0  0  0  0  # atno 6908 bound_to 6896
  150.7643  134.6476  159.6315 H   0  0  0  0  0  0  0  0  0  0  0  0  # atno 6909 bound_to 6896
  145.0052  139.4274  143.5272 H   0  0  0  0  0  0  0  0  0  0  0  0  # atno 7974 bound_to 7965
  156.1754  140.1655  156.8371 H   0  0  0  0  0  0  0  0  0  0  0  0  # atno 8008 bound_to 7997
  154.5302  140.0758  156.8364 H   0  0  0  0  0  0  0  0  0  0  0  0  # atno 8009 bound_to 7997
  155.3424  140.3385  155.4241 H   0  0  0  0  0  0  0  0  0  0  0  0  # atno 8010 bound_to 7997
  140.0889  144.5005  150.7112 H   0  0  0  0  0  0  0  0  0  0  0  0  # atno 10167 bound_to 10162
  156.0115  130.4520  150.3510 H   0  0  0  0  0  0  0  0  0  0  0  0  # atno 10718 bound_to 10713
  153.7110  135.6950  153.5037 H   0  0  0  0  0  0  0  0  0  0  0  0  # atno 10763 bound_to 10752
  153.2273  135.4349  155.0555 H   0  0  0  0  0  0  0  0  0  0  0  0  # atno 10764 bound_to 10752
  154.8315  135.3475  154.6647 H   0  0  0  0  0  0  0  0  0  0  0  0  # atno 10765 bound_to 10752
  140.0676  134.5515  155.9082 H   0  0  0  0  0  0  0  0  0  0  0  0  # atno 11005 bound_to 11000
  146.3459  139.9463  142.8734 LP  0  0  0  0  0  0  0  0  0  0  0  0  # atno 17320 bound_to 7965
  145.2099  140.9891  143.4107 LP  0  0  0  0  0  0  0  0  0  0  0  0  # atno 17321 bound_to 7965
  140.7039  143.2454  151.4784 LP  0  0  0  0  0  0  0  0  0  0  0  0  # atno 17342 bound_to 10162
  139.5736  144.1871  152.1871 LP  0  0  0  0  0  0  0  0  0  0  0  0  # atno 17343 bound_to 10162
  157.1603  131.0343  151.2844 LP  0  0  0  0  0  0  0  0  0  0  0  0  # atno 17370 bound_to 10713
  157.4317  130.7494  149.6995 LP  0  0  0  0  0  0  0  0  0  0  0  0  # atno 17371 bound_to 10713
  141.1999  133.6609  156.5867 LP  0  0  0  0  0  0  0  0  0  0  0  0  # atno 17394 bound_to 11000
  140.3676  134.7634  157.4576 LP  0  0  0  0  0  0  0  0  0  0  0  0  # atno 17395 bound_to 11000

$$$$
