AV-unprocessed.smi:203|AV-procd|sdf|1589|dock8
  -GOLD-   2262019483D 1   1.00000     0.00000
 Structure written by MMmdl.
 57 61  0  0  0  0  0  0  0  0  1 V2000
  149.1431  131.0130  155.0759 O   0  0  0  0  0  0  0  0  0  0  0  0
  149.2892  132.0620  155.6986 C   0  0  0  0  0  0  0  0  0  0  0  0
  149.9065  132.1356  157.0844 C   0  0  0  0  0  0  0  0  0  0  0  0
  149.6527  133.5938  157.5189 C   0  0  2  0  0  0  0  0  0  0  0  0
  148.6205  133.7523  158.6804 C   0  0  1  0  0  0  0  0  0  0  0  0
  148.5589  132.5057  159.6029 C   0  0  0  0  0  0  0  0  0  0  0  0
  147.5414  132.6861  160.7369 C   0  0  0  0  0  0  0  0  0  0  0  0
  147.8669  133.9559  161.5299 C   0  0  0  0  0  0  0  0  0  0  0  0
  147.9104  135.1714  160.5952 C   0  0  0  0  0  0  0  0  0  0  0  0
  148.8479  134.9621  159.4918 N   0  0  0  0  0  0  0  0  0  0  0  0
  149.0316  136.1134  158.8075 C   0  0  0  0  0  0  0  0  0  0  0  0
  147.9985  136.5550  158.0488 N   0  0  0  0  0  0  0  0  0  0  0  0
  148.1164  137.6947  157.3608 C   0  0  0  0  0  0  0  0  0  0  0  0
  149.1592  138.5257  157.2924 N   0  0  0  0  0  0  0  0  0  0  0  0
  150.2024  138.0768  158.0483 C   0  0  0  0  0  0  0  0  0  0  0  0
  150.2251  136.8889  158.8310 C   0  0  0  0  0  0  0  0  0  0  0  0
  151.4568  136.7588  159.4619 N   0  0  0  0  0  0  0  0  0  0  0  0
  152.1260  137.8089  159.0709 C   0  0  0  0  0  0  0  0  0  0  0  0
  151.4482  138.6535  158.2218 N   0  0  0  0  0  0  0  0  0  0  0  0
  151.9530  139.8836  157.6384 C   0  0  0  0  0  0  0  0  0  0  0  0
  152.3767  140.9110  158.7103 C   0  0  1  0  0  0  0  0  0  0  0  0
  153.7187  140.6993  159.1009 O   0  0  0  0  0  0  0  0  0  0  0  0
  152.2168  142.3841  158.2798 C   0  0  2  0  0  0  0  0  0  0  0  0
  152.5267  143.4021  159.3818 C   0  0  0  0  0  0  0  0  0  0  0  0
  151.6382  144.5935  159.0502 C   0  0  0  0  0  0  0  0  0  0  0  0
  150.7729  144.1072  157.8869 C   0  0  0  0  0  0  0  0  0  0  0  0
  150.8740  142.6932  157.9373 O   0  0  0  0  0  0  0  0  0  0  0  0
  149.2372  134.3270  156.2253 C   0  0  0  0  0  0  0  0  0  0  0  0
  148.9419  133.2746  155.2726 N   0  0  0  0  0  0  0  0  0  0  0  0
  149.4645  131.3999  157.7568 H   0  0  0  0  0  0  0  0  0  0  0  0
  150.9746  131.9280  157.0132 H   0  0  0  0  0  0  0  0  0  0  0  0
  150.6022  134.0320  157.8276 H   0  0  0  0  0  0  0  0  0  0  0  0
  147.6351  133.8576  158.2253 H   0  0  0  0  0  0  0  0  0  0  0  0
  148.2972  131.6138  159.0349 H   0  0  0  0  0  0  0  0  0  0  0  0
  149.5374  132.3103  160.0415 H   0  0  0  0  0  0  0  0  0  0  0  0
  146.5343  132.7541  160.3236 H   0  0  0  0  0  0  0  0  0  0  0  0
  147.5530  131.8174  161.3954 H   0  0  0  0  0  0  0  0  0  0  0  0
  147.1240  134.1121  162.3125 H   0  0  0  0  0  0  0  0  0  0  0  0
  148.8297  133.8421  162.0297 H   0  0  0  0  0  0  0  0  0  0  0  0
  146.9136  135.3615  160.1948 H   0  0  0  0  0  0  0  0  0  0  0  0
  148.1978  136.0565  161.1650 H   0  0  0  0  0  0  0  0  0  0  0  0
  147.2507  137.9826  156.7827 H   0  0  0  0  0  0  0  0  0  0  0  0
  153.1404  137.9973  159.3917 H   0  0  0  0  0  0  0  0  0  0  0  0
  152.7910  139.6371  156.9855 H   0  0  0  0  0  0  0  0  0  0  0  0
  151.1741  140.2972  156.9976 H   0  0  0  0  0  0  0  0  0  0  0  0
  151.7768  140.7531  159.6074 H   0  0  0  0  0  0  0  0  0  0  0  0
  153.7817  140.8345  160.0344 H   0  0  0  0  0  0  0  0  0  0  0  0
  152.8583  142.5998  157.4225 H   0  0  0  0  0  0  0  0  0  0  0  0
  152.2593  143.0128  160.3643 H   0  0  0  0  0  0  0  0  0  0  0  0
  153.5849  143.6635  159.4085 H   0  0  0  0  0  0  0  0  0  0  0  0
  151.0226  144.8559  159.9112 H   0  0  0  0  0  0  0  0  0  0  0  0
  152.2168  145.4745  158.7706 H   0  0  0  0  0  0  0  0  0  0  0  0
  149.7367  144.4364  157.9669 H   0  0  0  0  0  0  0  0  0  0  0  0
  151.1719  144.4617  156.9351 H   0  0  0  0  0  0  0  0  0  0  0  0
  148.3849  134.9928  156.3604 H   0  0  0  0  0  0  0  0  0  0  0  0
  150.0625  134.9257  155.8379 H   0  0  0  0  0  0  0  0  0  0  0  0
  148.5148  133.4573  154.3758 H   0  0  0  0  0  0  0  0  0  0  0  0
  1  2  2  0  0  0  0
  2 29  1  0  0  0  0
  2  3  1  0  0  0  0
  3  4  1  0  0  0  0
  3 30  1  0  0  0  0
  3 31  1  0  0  0  0
  4  5  1  0  0  0  0
  4 28  1  0  0  0  0
  4 32  1  0  0  0  0
  5 10  1  0  0  0  0
  5  6  1  0  0  0  0
  5 33  1  0  0  0  0
  6  7  1  0  0  0  0
  6 34  1  0  0  0  0
  6 35  1  0  0  0  0
  7  8  1  0  0  0  0
  7 36  1  0  0  0  0
  7 37  1  0  0  0  0
  8  9  1  0  0  0  0
  8 38  1  0  0  0  0
  8 39  1  0  0  0  0
  9 10  1  0  0  0  0
  9 40  1  0  0  0  0
  9 41  1  0  0  0  0
 10 11  1  0  0  0  0
 11 16  1  0  0  0  0
 11 12  2  0  0  0  0
 12 13  1  0  0  0  0
 13 14  2  0  0  0  0
 13 42  1  0  0  0  0
 14 15  1  0  0  0  0
 15 19  1  0  0  0  0
 15 16  2  0  0  0  0
 16 17  1  0  0  0  0
 17 18  2  0  0  0  0
 18 19  1  0  0  0  0
 18 43  1  0  0  0  0
 19 20  1  0  0  0  0
 20 21  1  0  0  0  0
 20 44  1  0  0  0  0
 20 45  1  0  0  0  0
 21 22  1  0  0  0  0
 21 23  1  0  0  0  0
 21 46  1  0  0  0  0
 22 47  1  0  0  0  0
 23 27  1  0  0  0  0
 23 24  1  0  0  0  0
 23 48  1  0  0  0  0
 24 25  1  0  0  0  0
 24 49  1  0  0  0  0
 24 50  1  0  0  0  0
 25 26  1  0  0  0  0
 25 51  1  0  0  0  0
 25 52  1  0  0  0  0
 26 27  1  0  0  0  0
 26 53  1  0  0  0  0
 26 54  1  0  0  0  0
 28 29  1  0  0  0  0
 28 55  1  0  0  0  0
 28 56  1  0  0  0  0
 29 57  1  0  0  0  0
M  END
> <s_m_source_file>
AV-unprocessed.smi

> <i_m_source_file_index>
203

> <i_lp_mmshare_version>
43012

> <i_f3d_flags>
0

> <s_epik_input>
Tz1DMVtDSDJdW0NASF0oW0NIMl1bTkhdMSlbQ0BASF0yW0NIMl1bQ0gyXVtDSDJdW0NIMl1OMmMobltjSF1uMyljKGMzNCluW2NIXW40W0NIMl1bQ0BIXShbT0hdKVtDQEBIXTVbQ0gyXVtDSDJdW0NIMl1PNQ==

> <s_epik_cmdline>
J2VwaWtfcHl0aG9uJywgJy1waCcsICc3LjAnLCAnLXRuJywgJzgnLCAnLW1hJywgJzIwMCcsICctbWV0YWxfYmluZGluZycsICctaW1hZScsICc8aW5maWxlLm1hZT4nLCAnLW9tYWUnLCAnPG91dGZpbGUubWFlPic=

> <r_lp_tautomer_probability>
1

> <r_epik_Ionization_Penalty>
0.00175146

> <r_epik_Ionization_Penalty_Charging>
0

> <r_epik_Ionization_Penalty_Neutral>
0.00175146

> <r_epik_State_Penalty>
0.00109045

> <r_epik_Charging_Adjusted_Penalty>
0.00109045

> <i_epik_Tot_Q>
0

> <i_epik_Tot_abs_Q>
0

> <r_epik_Metal_State_Penalty>
-0

> <b_epik_Metal_Only>
0

> <s_lp_Force_Field>
OPLS_2005

> <r_lp_Energy>
57.3309

> <b_lp_Chiralities_Consistent>
1

> <s_lp_Variant>
AV-unprocessed.smi:203-8

> <Gold.Version>
5.8.1

> <Gold.Id.Protein>
6NUR|6NUR_protein|mol2

> <Gold.PLP.Fitness>
43.2706

> <Gold.PLP.PLP>
-39.9652

> <Gold.PLP.part.hbond>
-2.1465

> <Gold.PLP.part.metal>
0.0000

> <Gold.PLP.part.buried>
-3.3928

> <Gold.PLP.part.nonpolar>
-34.0478

> <Gold.PLP.part.repulsive>
0.1487

> <Gold.PLP.ligand.clash>
0.0000

> <Gold.PLP.ligand.torsion>
1.2225

> <Gold.PLP.Chemscore.Hbond>
1.8320

> <Gold.PLP.Chemscore.CHOScore>
0.0000

> <Gold.PLP.Chemscore.Metal>
0.0000

> <Gold.Chemscore.Hbonds>
donor molecule, donor type, donor heavy atom, donor atom, acceptor molecule, acceptor atom, score
      P1  H  6896  6909       L1    17  0.48
      P1  H  7997  8010       L1    22  0.27

> <Gold.PLP.Chemscore.Internal.Correction>
0.2545

> <Gold.Rescore>
     Score         DG    S(hbond)    S(metal)    S(lipo)     H(rot)  DE(clash)    DE(int)     intcor
     15.68     -16.83       1.91        0.00     101.98       2.72       0.07       1.08       ----

> <Gold.Chemscore.Fitness>
15.6811

> <Gold.Chemscore.DG>
-16.8265

> <Gold.Chemscore.ZeroCoef>
-5.4800

> <Gold.Chemscore.Hbond>
1.9072

> <Gold.Chemscore.Metal>
0.0000

> <Gold.Chemscore.Lipo>
101.9847

> <Gold.Chemscore.Internal_Hbond>
0.0000

> <Gold.Chemscore.DEClash>
0.0694

> <Gold.Chemscore.DEInternal>
1.0759

> <Gold.Chemscore.Rot>
2.7171

> <Gold.Chemscore.Internal.Correction>
   9.000000E+99

> <Gold.Chemscore.Hbonds>
donor molecule, donor type, donor heavy atom, donor atom, acceptor molecule, acceptor atom, score
      P1  H  6896  6909       L1    17  0.03
      P1  H  7997  8010       L1    22  0.14

> <Gold.Chemscore.Hbond.Weighted>
-6.3700

> <Gold.Chemscore.Metal.Weighted>
-0.0000

> <Gold.Chemscore.Lipo.Weighted>
-11.9322

> <Gold.Chemscore.Internal_Hbond.Weighted>
0.0000

> <Gold.Chemscore.DEClash.Weighted>
0.0694

> <Gold.Chemscore.DEInternal.Weighted>
1.0759

> <Gold.Chemscore.Rot.Weighted>
6.9557

> <Gold.Chemscore.Internal.Correction.Weighted>
   9.000000E+99

> <Gold.Protein.RotatedTorsions>
[ 6907 6896 6895 6894 ] final   89.73 input  -60.11 | X-H torsion
[ 7974 7965 7964 7962 ] final   18.56 input  175.53 | X-H torsion
[ 8008 7997 7996 7995 ] final   21.24 input   59.86 | X-H torsion
[ 10167 10162 10161 10158 ] final    0.40 input  -65.29 | X-H torsion
[ 10718 10713 10712 10709 ] final -141.03 input   66.30 | X-H torsion
[ 10763 10752 10751 10750 ] final    3.67 input  -60.55 | X-H torsion
[ 11005 11000 10999 10996 ] final  -53.05 input  -57.11 | X-H torsion

> <Gold.Protein.ActiveResidues>
 VAL166  LYS551  ARG553  GLY616  TRP617  ASP618  TYR619  PRO620  LYS621  CYS622 
 ASP623  PHE694  ASN695  SER759  ASP760  ASP761  ALA762  ILE779  LEU786  VAL792 
 PHE793  MET794  SER795  GLU796  ALA797  LYS798  CYS799  TRP800  GLU811  SER814 

> <Gold.Protein.RotatedAtoms>
  152.5439  134.1921  159.8677 H   0  0  0  0  0  0  0  0  0  0  0  0  # atno 6907 bound_to 6896
  151.1916  133.4657  159.2602 H   0  0  0  0  0  0  0  0  0  0  0  0  # atno 6908 bound_to 6896
  151.1078  135.0021  159.8535 H   0  0  0  0  0  0  0  0  0  0  0  0  # atno 6909 bound_to 6896
  146.2180  139.8439  142.8635 H   0  0  0  0  0  0  0  0  0  0  0  0  # atno 7974 bound_to 7965
  154.9476  140.3061  155.5090 H   0  0  0  0  0  0  0  0  0  0  0  0  # atno 8008 bound_to 7997
  156.2990  140.2325  156.4488 H   0  0  0  0  0  0  0  0  0  0  0  0  # atno 8009 bound_to 7997
  154.8086  140.0430  157.1314 H   0  0  0  0  0  0  0  0  0  0  0  0  # atno 8010 bound_to 7997
  140.6730  143.6995  150.7963 H   0  0  0  0  0  0  0  0  0  0  0  0  # atno 10167 bound_to 10162
  156.3292  130.7577  151.1691 H   0  0  0  0  0  0  0  0  0  0  0  0  # atno 10718 bound_to 10713
  153.2805  135.6940  153.7390 H   0  0  0  0  0  0  0  0  0  0  0  0  # atno 10763 bound_to 10752
  153.6379  135.3398  155.3063 H   0  0  0  0  0  0  0  0  0  0  0  0  # atno 10764 bound_to 10752
  154.8493  135.4424  154.1857 H   0  0  0  0  0  0  0  0  0  0  0  0  # atno 10765 bound_to 10752
  141.0956  133.6625  156.4114 H   0  0  0  0  0  0  0  0  0  0  0  0  # atno 11005 bound_to 11000
  145.2871  141.0156  143.3684 LP  0  0  0  0  0  0  0  0  0  0  0  0  # atno 17320 bound_to 7965
  144.9106  139.4534  143.6589 LP  0  0  0  0  0  0  0  0  0  0  0  0  # atno 17321 bound_to 7965
  140.0683  143.5086  152.2593 LP  0  0  0  0  0  0  0  0  0  0  0  0  # atno 17342 bound_to 10162
  139.6008  144.7582  151.3177 LP  0  0  0  0  0  0  0  0  0  0  0  0  # atno 17343 bound_to 10162
  157.7427  131.0486  150.5003 LP  0  0  0  0  0  0  0  0  0  0  0  0  # atno 17370 bound_to 10713
  156.5167  130.4152  149.6272 LP  0  0  0  0  0  0  0  0  0  0  0  0  # atno 17371 bound_to 10713
  140.5148  134.6360  157.5297 LP  0  0  0  0  0  0  0  0  0  0  0  0  # atno 17394 bound_to 11000
  139.9792  134.7165  155.9892 LP  0  0  0  0  0  0  0  0  0  0  0  0  # atno 17395 bound_to 11000

$$$$
