AV-unprocessed.smi:1350|AV-procd|sdf|5521|dock5
  -GOLD-   22720 5113D 1   1.00000     0.00000
 Structure written by MMmdl.
 43 45  0  0  0  0  0  0  0  0  1 V2000
  154.5722  140.6223  161.8513 C   0  0  0  0  0  0  0  0  0  0  0  0
  153.7896  140.8437  160.6876 O   0  0  0  0  0  0  0  0  0  0  0  0
  153.0803  142.0236  160.5893 C   0  0  0  0  0  0  0  0  0  0  0  0
  153.0526  143.0096  161.6089 C   0  0  0  0  0  0  0  0  0  0  0  0
  152.3108  144.1942  161.4398 C   0  0  0  0  0  0  0  0  0  0  0  0
  151.5883  144.4110  160.2532 C   0  0  0  0  0  0  0  0  0  0  0  0
  151.6072  143.4404  159.2354 C   0  0  0  0  0  0  0  0  0  0  0  0
  152.3459  142.2497  159.4002 C   0  0  0  0  0  0  0  0  0  0  0  0
  152.3571  141.2158  158.2884 C   0  0  0  0  0  0  0  0  0  0  0  0
  151.2799  141.4130  157.3876 O   0  0  0  0  0  0  0  0  0  0  0  0
  151.3309  140.5477  156.2656 C   0  0  0  0  0  0  0  0  0  0  0  0
  150.2314  140.9586  155.2739 C   0  0  1  0  0  0  0  0  0  0  0  0
  150.3989  140.2122  154.0846 O   0  0  0  0  0  0  0  0  0  0  0  0
  148.8210  140.6977  155.8369 C   0  0  0  0  0  0  0  0  0  0  0  0
  147.7862  141.3858  155.0852 N   0  0  0  0  0  0  0  0  0  0  0  0
  147.5519  141.2923  153.7622 C   0  0  0  0  0  0  0  0  0  0  0  0
  146.5498  142.0132  153.2674 N   0  0  0  0  0  0  0  0  0  0  0  0
  146.0767  142.6486  154.4027 C   0  0  0  0  0  0  0  0  0  0  0  0
  145.0116  143.5635  154.5641 C   0  0  0  0  0  0  0  0  0  0  0  0
  144.7068  144.0875  155.8376 C   0  0  0  0  0  0  0  0  0  0  0  0
  145.4599  143.7057  156.9671 C   0  0  0  0  0  0  0  0  0  0  0  0
  146.5260  142.7958  156.8310 C   0  0  0  0  0  0  0  0  0  0  0  0
  146.8282  142.2764  155.5583 C   0  0  0  0  0  0  0  0  0  0  0  0
  155.0559  139.6483  161.7782 H   0  0  0  0  0  0  0  0  0  0  0  0
  153.9559  140.6172  162.7514 H   0  0  0  0  0  0  0  0  0  0  0  0
  155.3570  141.3730  161.9532 H   0  0  0  0  0  0  0  0  0  0  0  0
  153.5950  142.8825  162.5332 H   0  0  0  0  0  0  0  0  0  0  0  0
  152.2976  144.9384  162.2225 H   0  0  0  0  0  0  0  0  0  0  0  0
  151.0204  145.3206  160.1235 H   0  0  0  0  0  0  0  0  0  0  0  0
  151.0496  143.6144  158.3268 H   0  0  0  0  0  0  0  0  0  0  0  0
  153.3021  141.2602  157.7446 H   0  0  0  0  0  0  0  0  0  0  0  0
  152.2941  140.2244  158.7400 H   0  0  0  0  0  0  0  0  0  0  0  0
  152.3161  140.5582  155.7957 H   0  0  0  0  0  0  0  0  0  0  0  0
  151.1487  139.5289  156.6117 H   0  0  0  0  0  0  0  0  0  0  0  0
  150.3286  142.0202  155.0420 H   0  0  0  0  0  0  0  0  0  0  0  0
  150.5500  139.3091  154.3191 H   0  0  0  0  0  0  0  0  0  0  0  0
  148.6011  139.6293  155.8435 H   0  0  0  0  0  0  0  0  0  0  0  0
  148.7623  141.0326  156.8734 H   0  0  0  0  0  0  0  0  0  0  0  0
  148.1519  140.6580  153.1264 H   0  0  0  0  0  0  0  0  0  0  0  0
  144.4275  143.8620  153.7063 H   0  0  0  0  0  0  0  0  0  0  0  0
  143.8898  144.7854  155.9487 H   0  0  0  0  0  0  0  0  0  0  0  0
  145.2182  144.1114  157.9386 H   0  0  0  0  0  0  0  0  0  0  0  0
  147.1032  142.4982  157.6937 H   0  0  0  0  0  0  0  0  0  0  0  0
  1  2  1  0  0  0  0
  1 24  1  0  0  0  0
  1 25  1  0  0  0  0
  1 26  1  0  0  0  0
  2  3  1  0  0  0  0
  3  8  1  0  0  0  0
  3  4  2  0  0  0  0
  4  5  1  0  0  0  0
  4 27  1  0  0  0  0
  5  6  2  0  0  0  0
  5 28  1  0  0  0  0
  6  7  1  0  0  0  0
  6 29  1  0  0  0  0
  7  8  2  0  0  0  0
  7 30  1  0  0  0  0
  8  9  1  0  0  0  0
  9 10  1  0  0  0  0
  9 31  1  0  0  0  0
  9 32  1  0  0  0  0
 10 11  1  0  0  0  0
 11 12  1  0  0  0  0
 11 33  1  0  0  0  0
 11 34  1  0  0  0  0
 12 13  1  0  0  0  0
 12 14  1  0  0  0  0
 12 35  1  0  0  0  0
 13 36  1  0  0  0  0
 14 15  1  0  0  0  0
 14 37  1  0  0  0  0
 14 38  1  0  0  0  0
 15 23  1  0  0  0  0
 15 16  1  0  0  0  0
 16 17  2  0  0  0  0
 16 39  1  0  0  0  0
 17 18  1  0  0  0  0
 18 23  2  0  0  0  0
 18 19  1  0  0  0  0
 19 20  2  0  0  0  0
 19 40  1  0  0  0  0
 20 21  1  0  0  0  0
 20 41  1  0  0  0  0
 21 22  2  0  0  0  0
 21 42  1  0  0  0  0
 22 23  1  0  0  0  0
 22 43  1  0  0  0  0
M  END
> <s_m_source_file>
AV-unprocessed.smi

> <i_m_source_file_index>
1350

> <i_lp_mmshare_version>
43012

> <i_f3d_flags>
0

> <s_epik_input>
W0NIM11PYzFbY0hdW2NIXVtjSF1bY0hdYzFbQ0gyXU9bQ0gyXVtDQEhdKFtPSF0pW0NIMl1uKFtjSF1uMiljKGMyMylbY0hdW2NIXVtjSF1bY0hdMw==

> <s_epik_cmdline>
J2VwaWtfcHl0aG9uJywgJy1waCcsICc3LjAnLCAnLXRuJywgJzgnLCAnLW1hJywgJzIwMCcsICctbWV0YWxfYmluZGluZycsICctaW1hZScsICc8aW5maWxlLm1hZT4nLCAnLW9tYWUnLCAnPG91dGZpbGUubWFlPic=

> <r_lp_tautomer_probability>
1

> <r_epik_Ionization_Penalty>
0.0713119

> <r_epik_Ionization_Penalty_Charging>
0

> <r_epik_Ionization_Penalty_Neutral>
0.0713119

> <r_epik_State_Penalty>
0.06259

> <r_epik_Charging_Adjusted_Penalty>
0.06259

> <i_epik_Tot_Q>
0

> <i_epik_Tot_abs_Q>
0

> <r_epik_Metal_State_Penalty>
6.60119e-05

> <b_epik_Metal_Only>
0

> <s_lp_Force_Field>
OPLS_2005

> <r_lp_Energy>
19.121

> <b_lp_Chiralities_Consistent>
1

> <s_lp_Variant>
AV-unprocessed.smi:1350-2

> <Gold.Version>
5.8.1

> <Gold.Id.Protein>
6NUR|6NUR_protein|mol2

> <Gold.PLP.Fitness>
53.6703

> <Gold.PLP.PLP>
-48.3515

> <Gold.PLP.part.hbond>
-1.7417

> <Gold.PLP.part.metal>
0.0000

> <Gold.PLP.part.buried>
-4.9349

> <Gold.PLP.part.nonpolar>
-40.9915

> <Gold.PLP.part.repulsive>
0.2446

> <Gold.PLP.ligand.clash>
0.0000

> <Gold.PLP.ligand.torsion>
0.4313

> <Gold.PLP.Chemscore.Hbond>
1.0000

> <Gold.PLP.Chemscore.CHOScore>
0.9975

> <Gold.PLP.Chemscore.Metal>
0.0000

> <Gold.Chemscore.Hbonds>
donor molecule, donor type, donor heavy atom, donor atom, acceptor molecule, acceptor atom, score
      P1  H  7989  7998       L1    13  0.94
      L1  C    16    39       P1  7957  1.00

> <Gold.PLP.Chemscore.Internal.Correction>
0.1888

> <Gold.Rescore>
     Score         DG    S(hbond)    S(metal)    S(lipo)     H(rot)  DE(clash)    DE(int)     intcor
     14.85     -15.44       0.86        0.00     118.11       2.63       0.06       0.53       ----

> <Gold.Chemscore.Fitness>
14.8504

> <Gold.Chemscore.DG>
-15.4434

> <Gold.Chemscore.ZeroCoef>
-5.4800

> <Gold.Chemscore.Hbond>
0.8621

> <Gold.Chemscore.Metal>
0.0000

> <Gold.Chemscore.Lipo>
118.1083

> <Gold.Chemscore.Internal_Hbond>
0.0000

> <Gold.Chemscore.DEClash>
0.0605

> <Gold.Chemscore.DEInternal>
0.5325

> <Gold.Chemscore.Rot>
2.6308

> <Gold.Chemscore.Internal.Correction>
   9.000000E+99

> <Gold.Chemscore.Hbonds>
donor molecule, donor type, donor heavy atom, donor atom, acceptor molecule, acceptor atom, score
      P1  H  7989  7998       L1    13  0.25

> <Gold.Chemscore.Hbond.Weighted>
-2.8795

> <Gold.Chemscore.Metal.Weighted>
-0.0000

> <Gold.Chemscore.Lipo.Weighted>
-13.8187

> <Gold.Chemscore.Internal_Hbond.Weighted>
0.0000

> <Gold.Chemscore.DEClash.Weighted>
0.0605

> <Gold.Chemscore.DEInternal.Weighted>
0.5325

> <Gold.Chemscore.Rot.Weighted>
6.7347

> <Gold.Chemscore.Internal.Correction.Weighted>
   9.000000E+99

> <Gold.Protein.RotatedTorsions>
[ 6907 6896 6895 6894 ] final -178.87 input  -60.11 | X-H torsion
[ 7974 7965 7964 7962 ] final   14.69 input  175.53 | X-H torsion
[ 8008 7997 7996 7995 ] final  129.18 input   59.86 | X-H torsion
[ 10167 10162 10161 10158 ] final  -84.08 input  -65.29 | X-H torsion
[ 10718 10713 10712 10709 ] final -139.49 input   66.30 | X-H torsion
[ 10763 10752 10751 10750 ] final    1.43 input  -60.55 | X-H torsion
[ 11005 11000 10999 10996 ] final   -5.22 input  -57.11 | X-H torsion

> <Gold.Protein.ActiveResidues>
 VAL166  LYS551  ARG553  GLY616  TRP617  ASP618  TYR619  PRO620  LYS621  CYS622 
 ASP623  PHE694  ASN695  SER759  ASP760  ASP761  ALA762  ILE779  LEU786  VAL792 
 PHE793  MET794  SER795  GLU796  ALA797  LYS798  CYS799  TRP800  GLU811  SER814 

> <Gold.Protein.RotatedAtoms>
  151.6442  133.3324  159.3136 H   0  0  0  0  0  0  0  0  0  0  0  0  # atno 6907 bound_to 6896
  150.7993  134.7079  159.6596 H   0  0  0  0  0  0  0  0  0  0  0  0  # atno 6908 bound_to 6896
  152.4083  134.6172  160.0093 H   0  0  0  0  0  0  0  0  0  0  0  0  # atno 6909 bound_to 6896
  146.2298  139.9004  142.8540 H   0  0  0  0  0  0  0  0  0  0  0  0  # atno 7974 bound_to 7965
  156.2931  140.2627  156.2556 H   0  0  0  0  0  0  0  0  0  0  0  0  # atno 8008 bound_to 7997
  154.9839  140.0389  157.2308 H   0  0  0  0  0  0  0  0  0  0  0  0  # atno 8009 bound_to 7997
  154.7747  140.2784  155.6115 H   0  0  0  0  0  0  0  0  0  0  0  0  # atno 8010 bound_to 7997
  140.4166  143.2601  151.8946 H   0  0  0  0  0  0  0  0  0  0  0  0  # atno 10167 bound_to 10162
  156.3114  130.7484  151.1560 H   0  0  0  0  0  0  0  0  0  0  0  0  # atno 10718 bound_to 10713
  153.3081  135.6961  153.7141 H   0  0  0  0  0  0  0  0  0  0  0  0  # atno 10763 bound_to 10752
  153.6029  135.3458  155.2952 H   0  0  0  0  0  0  0  0  0  0  0  0  # atno 10764 bound_to 10752
  154.8568  135.4345  154.2211 H   0  0  0  0  0  0  0  0  0  0  0  0  # atno 10765 bound_to 10752
  140.6888  133.9089  155.8604 H   0  0  0  0  0  0  0  0  0  0  0  0  # atno 11005 bound_to 11000
  145.2329  140.9980  143.3980 LP  0  0  0  0  0  0  0  0  0  0  0  0  # atno 17320 bound_to 7965
  144.9515  139.4077  143.6400 LP  0  0  0  0  0  0  0  0  0  0  0  0  # atno 17321 bound_to 7965
  139.4782  144.5481  151.8427 LP  0  0  0  0  0  0  0  0  0  0  0  0  # atno 17342 bound_to 10162
  140.4579  144.1763  150.5903 LP  0  0  0  0  0  0  0  0  0  0  0  0  # atno 17343 bound_to 10162
  157.7392  131.0532  150.5248 LP  0  0  0  0  0  0  0  0  0  0  0  0  # atno 17370 bound_to 10713
  156.5389  130.4203  149.6164 LP  0  0  0  0  0  0  0  0  0  0  0  0  # atno 17371 bound_to 10713
  141.0258  134.0825  157.4070 LP  0  0  0  0  0  0  0  0  0  0  0  0  # atno 17394 bound_to 11000
  139.8929  135.0127  156.6873 LP  0  0  0  0  0  0  0  0  0  0  0  0  # atno 17395 bound_to 11000

$$$$
