AV-unprocessed.smi:2801|AV-procd|sdf|10798|dock2
  -GOLD-   2272015233D 1   1.00000     0.00000
 Structure written by MMmdl.
 32 32  0  0  0  0  0  0  0  0  3 V2000
  151.5136  145.5746  160.0816 C   0  0  0  0  0  0  0  0  0  0  0  0
  152.1341  144.8552  158.8822 C   0  0  0  0  0  0  0  0  0  0  0  0
  151.3471  143.7080  158.5859 O   0  0  0  0  0  0  0  0  0  0  0  0
  152.0764  142.4981  158.3929 C   0  0  1  0  0  0  0  0  0  0  0  0
  152.4861  141.9667  159.7795 C   0  0  0  0  0  0  0  0  0  0  0  0
  153.4551  140.7805  159.6991 C   0  0  0  0  0  0  0  0  0  0  0  0
  151.2109  141.4748  157.6393 C   0  0  0  0  0  0  0  0  0  0  0  0
  150.0914  141.1944  158.0673 O   0  0  0  0  0  0  0  0  0  0  0  0
  151.7538  140.9717  156.5157 N   0  0  0  0  0  0  0  0  0  0  0  0
  151.2250  140.0228  155.5952 C   0  0  0  0  0  0  0  0  0  0  0  0
  149.8683  139.9997  155.1805 C   0  0  0  0  0  0  0  0  0  0  0  0
  149.4360  139.0087  154.2765 C   0  0  0  0  0  0  0  0  0  0  0  0
  150.3075  138.0856  153.8191 N   0  3  0  0  0  0  0  0  0  0  0  0
  151.6032  138.0581  154.1934 C   0  0  0  0  0  0  0  0  0  0  0  0
  152.0973  139.0234  155.0941 C   0  0  0  0  0  0  0  0  0  0  0  0
  153.4124  138.9744  155.4639 O   0  5  0  0  0  0  0  0  0  0  0  0
  152.0886  146.4627  160.3439 H   0  0  0  0  0  0  0  0  0  0  0  0
  151.4844  144.9237  160.9558 H   0  0  0  0  0  0  0  0  0  0  0  0
  150.4926  145.8889  159.8630 H   0  0  0  0  0  0  0  0  0  0  0  0
  152.1763  145.5359  158.0313 H   0  0  0  0  0  0  0  0  0  0  0  0
  153.1568  144.5575  159.1182 H   0  0  0  0  0  0  0  0  0  0  0  0
  152.9822  142.7044  157.8187 H   0  0  0  0  0  0  0  0  0  0  0  0
  152.9434  142.7651  160.3658 H   0  0  0  0  0  0  0  0  0  0  0  0
  151.5984  141.6522  160.3302 H   0  0  0  0  0  0  0  0  0  0  0  0
  153.7114  140.4207  160.6956 H   0  0  0  0  0  0  0  0  0  0  0  0
  154.3824  141.0603  159.1987 H   0  0  0  0  0  0  0  0  0  0  0  0
  153.0143  139.9490  159.1485 H   0  0  0  0  0  0  0  0  0  0  0  0
  152.6486  141.3581  156.2493 H   0  0  0  0  0  0  0  0  0  0  0  0
  149.1447  140.7114  155.5443 H   0  0  0  0  0  0  0  0  0  0  0  0
  148.4226  138.9242  153.9131 H   0  0  0  0  0  0  0  0  0  0  0  0
  152.2026  137.2676  153.7656 H   0  0  0  0  0  0  0  0  0  0  0  0
  149.9730  137.3762  153.1672 H   0  0  0  0  0  0  0  0  0  0  0  0
  1  2  1  0  0  0  0
  1 17  1  0  0  0  0
  1 18  1  0  0  0  0
  1 19  1  0  0  0  0
  2  3  1  0  0  0  0
  2 20  1  0  0  0  0
  2 21  1  0  0  0  0
  3  4  1  0  0  0  0
  4  5  1  0  0  0  0
  4  7  1  0  0  0  0
  4 22  1  0  0  0  0
  5  6  1  0  0  0  0
  5 23  1  0  0  0  0
  5 24  1  0  0  0  0
  6 25  1  0  0  0  0
  6 26  1  0  0  0  0
  6 27  1  0  0  0  0
  7  8  2  0  0  0  0
  7  9  1  0  0  0  0
  9 28  1  0  0  0  0
  9 10  1  0  0  0  0
 10 11  2  0  0  0  0
 10 15  1  0  0  0  0
 11 12  1  0  0  0  0
 11 29  1  0  0  0  0
 12 13  2  0  0  0  0
 12 30  1  0  0  0  0
 13 14  1  0  0  0  0
 13 32  1  0  0  0  0
 14 15  2  0  0  0  0
 14 31  1  0  0  0  0
 15 16  1  0  0  0  0
M  CHG  1  13   1
M  CHG  1  16  -1
M  END
> <s_m_source_file>
AV-unprocessed.smi

> <i_m_source_file_index>
2801

> <i_lp_mmshare_version>
43012

> <i_f3d_flags>
0

> <s_epik_input>
W0NIM11bQ0gyXU9bQ0BIXShbQ0gyXVtDSDNdKUMoPU8pW05IXWMxW2NIXVtjSF1uW2NIXWMxW09IXQ==

> <s_epik_cmdline>
J2VwaWtfcHl0aG9uJywgJy1waCcsICc3LjAnLCAnLXRuJywgJzgnLCAnLW1hJywgJzIwMCcsICctbWV0YWxfYmluZGluZycsICctaW1hZScsICc8aW5maWxlLm1hZT4nLCAnLW9tYWUnLCAnPG91dGZpbGUubWFlPic=

> <r_lp_tautomer_probability>
0.56342

> <r_epik_Ionization_Penalty>
0.0170685

> <r_epik_Ionization_Penalty_Charging>
0.0170685

> <r_epik_Ionization_Penalty_Neutral>
1.5328e-09

> <r_epik_State_Penalty>
0.331557

> <r_epik_Charging_Adjusted_Penalty>
0.348625

> <i_epik_Tot_Q>
0

> <i_epik_Tot_abs_Q>
2

> <r_epik_Metal_State_Penalty>
0.590147

> <b_epik_Metal_Only>
0

> <s_lp_Force_Field>
OPLS_2005

> <r_lp_Energy>
9.87866

> <b_lp_Chiralities_Consistent>
1

> <s_lp_Variant>
AV-unprocessed.smi:2801-2

> <Gold.Version>
5.8.1

> <Gold.Id.Protein>
6NUR|6NUR_protein|mol2

> <Gold.PLP.Fitness>
46.9243

> <Gold.PLP.PLP>
-36.6331

> <Gold.PLP.part.hbond>
-2.2751

> <Gold.PLP.part.metal>
0.0000

> <Gold.PLP.part.buried>
-4.3365

> <Gold.PLP.part.nonpolar>
-30.5167

> <Gold.PLP.part.repulsive>
0.3347

> <Gold.PLP.ligand.clash>
0.0000

> <Gold.PLP.ligand.torsion>
0.9113

> <Gold.PLP.Chemscore.Hbond>
4.0000

> <Gold.PLP.Chemscore.CHOScore>
0.0000

> <Gold.PLP.Chemscore.Metal>
0.0000

> <Gold.Chemscore.Hbonds>
donor molecule, donor type, donor heavy atom, donor atom, acceptor molecule, acceptor atom, score
      L1  H    13    32       P1  7948  2.00
      P1  H  7997  8008       L1    16  2.00

> <Gold.PLP.Chemscore.Internal.Correction>
0.1138

> <Gold.Rescore>
     Score         DG    S(hbond)    S(metal)    S(lipo)     H(rot)  DE(clash)    DE(int)     intcor
     17.52     -18.30       1.93        0.00      89.28       1.59       0.13       0.65       ----

> <Gold.Chemscore.Fitness>
17.5213

> <Gold.Chemscore.DG>
-18.3009

> <Gold.Chemscore.ZeroCoef>
-5.4800

> <Gold.Chemscore.Hbond>
1.9323

> <Gold.Chemscore.Metal>
0.0000

> <Gold.Chemscore.Lipo>
89.2802

> <Gold.Chemscore.Internal_Hbond>
0.0000

> <Gold.Chemscore.DEClash>
0.1314

> <Gold.Chemscore.DEInternal>
0.6482

> <Gold.Chemscore.Rot>
1.5933

> <Gold.Chemscore.Internal.Correction>
   9.000000E+99

> <Gold.Chemscore.Hbonds>
donor molecule, donor type, donor heavy atom, donor atom, acceptor molecule, acceptor atom, score
      L1  H    13    32       P1  7948  0.25
      P1  H  7997  8008       L1    16  0.96

> <Gold.Chemscore.Hbond.Weighted>
-6.4540

> <Gold.Chemscore.Metal.Weighted>
-0.0000

> <Gold.Chemscore.Lipo.Weighted>
-10.4458

> <Gold.Chemscore.Internal_Hbond.Weighted>
0.0000

> <Gold.Chemscore.DEClash.Weighted>
0.1314

> <Gold.Chemscore.DEInternal.Weighted>
0.6482

> <Gold.Chemscore.Rot.Weighted>
4.0789

> <Gold.Chemscore.Internal.Correction.Weighted>
   9.000000E+99

> <Gold.Protein.RotatedTorsions>
[ 6907 6896 6895 6894 ] final  -16.61 input  -60.11 | X-H torsion
[ 7974 7965 7964 7962 ] final  -35.60 input  175.53 | X-H torsion
[ 8008 7997 7996 7995 ] final  -27.22 input   59.86 | X-H torsion
[ 10167 10162 10161 10158 ] final -158.77 input  -65.29 | X-H torsion
[ 10718 10713 10712 10709 ] final -101.53 input   66.30 | X-H torsion
[ 10763 10752 10751 10750 ] final  -38.15 input  -60.55 | X-H torsion
[ 11005 11000 10999 10996 ] final   36.98 input  -57.11 | X-H torsion

> <Gold.Protein.ActiveResidues>
 VAL166  LYS551  ARG553  GLY616  TRP617  ASP618  TYR619  PRO620  LYS621  CYS622 
 ASP623  PHE694  ASN695  SER759  ASP760  ASP761  ALA762  ILE779  LEU786  VAL792 
 PHE793  MET794  SER795  GLU796  ALA797  LYS798  CYS799  TRP800  GLU811  SER814 

> <Gold.Protein.RotatedAtoms>
  151.3059  135.0781  159.9254 H   0  0  0  0  0  0  0  0  0  0  0  0  # atno 6907 bound_to 6896
  152.5288  133.9785  159.7806 H   0  0  0  0  0  0  0  0  0  0  0  0  # atno 6908 bound_to 6896
  151.0080  133.5940  159.2716 H   0  0  0  0  0  0  0  0  0  0  0  0  # atno 6909 bound_to 6896
  146.0732  140.6179  142.8942 H   0  0  0  0  0  0  0  0  0  0  0  0  # atno 7974 bound_to 7965
  154.4387  140.1878  156.0898 H   0  0  0  0  0  0  0  0  0  0  0  0  # atno 8008 bound_to 7997
  156.0374  140.3323  155.7180 H   0  0  0  0  0  0  0  0  0  0  0  0  # atno 8009 bound_to 7997
  155.5750  140.0616  157.2788 H   0  0  0  0  0  0  0  0  0  0  0  0  # atno 8010 bound_to 7997
  139.6666  143.9818  152.2258 H   0  0  0  0  0  0  0  0  0  0  0  0  # atno 10167 bound_to 10162
  156.0198  130.5378  150.6976 H   0  0  0  0  0  0  0  0  0  0  0  0  # atno 10718 bound_to 10713
  153.9082  135.6795  153.4752 H   0  0  0  0  0  0  0  0  0  0  0  0  # atno 10763 bound_to 10752
  153.1093  135.4791  154.9004 H   0  0  0  0  0  0  0  0  0  0  0  0  # atno 10764 bound_to 10752
  154.7541  135.3192  154.8458 H   0  0  0  0  0  0  0  0  0  0  0  0  # atno 10765 bound_to 10752
  140.2271  134.3572  155.7979 H   0  0  0  0  0  0  0  0  0  0  0  0  # atno 11005 bound_to 11000
  144.7245  140.4480  143.6983 LP  0  0  0  0  0  0  0  0  0  0  0  0  # atno 17320 bound_to 7965
  145.6353  139.1542  143.2946 LP  0  0  0  0  0  0  0  0  0  0  0  0  # atno 17321 bound_to 7965
  139.9571  144.6582  150.8115 LP  0  0  0  0  0  0  0  0  0  0  0  0  # atno 17342 bound_to 10162
  140.7602  143.3145  151.2766 LP  0  0  0  0  0  0  0  0  0  0  0  0  # atno 17343 bound_to 10162
  157.4644  131.0886  151.0711 LP  0  0  0  0  0  0  0  0  0  0  0  0  # atno 17370 bound_to 10713
  157.1189  130.6053  149.5500 LP  0  0  0  0  0  0  0  0  0  0  0  0  # atno 17371 bound_to 10713
  141.2220  133.7225  156.8671 LP  0  0  0  0  0  0  0  0  0  0  0  0  # atno 17394 bound_to 11000
  140.1789  134.9047  157.2924 LP  0  0  0  0  0  0  0  0  0  0  0  0  # atno 17395 bound_to 11000

$$$$
