AV-unprocessed.smi:1041|AV-procd|sdf|4533|dock2
  -GOLD-   22720 2553D 1   1.00000     0.00000
 Structure written by MMmdl.
 52 53  0  0  0  0  0  0  0  0  3 V2000
  143.6136  132.5099  151.0759 C   0  0  0  0  0  0  0  0  0  0  0  0
  145.0101  132.3343  151.2400 O   0  0  0  0  0  0  0  0  0  0  0  0
  145.6240  133.4321  151.8947 C   0  0  0  0  0  0  0  0  0  0  0  0
  145.4669  134.6846  151.0191 C   0  0  0  0  0  0  0  0  0  0  0  0
  146.0930  135.8854  151.6289 N   0  3  2  0  0  0  0  0  0  0  0  0
  145.6653  136.0873  153.0364 C   0  0  0  0  0  0  0  0  0  0  0  0
  146.4343  137.2461  153.6884 C   0  0  0  0  0  0  0  0  0  0  0  0
  146.2645  138.5550  152.8890 C   0  0  1  0  0  0  0  0  0  0  0  0
  147.0337  139.7446  153.5003 C   0  0  0  0  0  0  0  0  0  0  0  0
  148.4675  139.4857  153.4865 N   0  0  0  0  0  0  0  0  0  0  0  0
  149.1481  138.7943  154.4125 C   0  0  0  0  0  0  0  0  0  0  0  0
  148.6181  138.0942  155.2747 O   0  0  0  0  0  0  0  0  0  0  0  0
  150.6636  138.9881  154.3967 C   0  0  0  0  0  0  0  0  0  0  0  0
  151.2296  139.4959  155.7233 C   0  0  0  0  0  0  0  0  0  0  0  0
  150.8256  140.6565  156.3149 C   0  0  0  0  0  0  0  0  0  0  0  0
  149.7435  141.5489  155.7330 C   0  0  0  0  0  0  0  0  0  0  0  0
  151.4145  141.1073  157.5084 N   0  0  0  0  0  0  0  0  0  0  0  0
  152.3568  140.4282  158.0417 C   0  0  0  0  0  0  0  0  0  0  0  0
  152.9882  140.9209  159.3262 C   0  0  0  0  0  0  0  0  0  0  0  0
  152.8466  139.2521  157.5198 N   0  5  0  0  0  0  0  0  0  0  0  0
  152.3143  138.7386  156.3749 C   0  0  0  0  0  0  0  0  0  0  0  0
  152.7243  137.6903  155.8777 O   0  0  0  0  0  0  0  0  0  0  0  0
  146.6827  138.3032  151.4309 C   0  0  0  0  0  0  0  0  0  0  0  0
  145.9093  137.1214  150.8223 C   0  0  0  0  0  0  0  0  0  0  0  0
  143.1918  131.6397  150.5734 H   0  0  0  0  0  0  0  0  0  0  0  0
  143.3956  133.3885  150.4670 H   0  0  0  0  0  0  0  0  0  0  0  0
  143.1126  132.6177  152.0388 H   0  0  0  0  0  0  0  0  0  0  0  0
  145.1964  133.5790  152.8865 H   0  0  0  0  0  0  0  0  0  0  0  0
  146.6854  133.2216  152.0346 H   0  0  0  0  0  0  0  0  0  0  0  0
  145.8911  134.5142  150.0284 H   0  0  0  0  0  0  0  0  0  0  0  0
  144.4003  134.8587  150.8695 H   0  0  0  0  0  0  0  0  0  0  0  0
  144.5918  136.2802  153.0707 H   0  0  0  0  0  0  0  0  0  0  0  0
  145.8421  135.1773  153.6115 H   0  0  0  0  0  0  0  0  0  0  0  0
  146.0741  137.3673  154.7096 H   0  0  0  0  0  0  0  0  0  0  0  0
  147.4923  136.9913  153.7639 H   0  0  0  0  0  0  0  0  0  0  0  0
  145.2037  138.8123  152.8923 H   0  0  0  0  0  0  0  0  0  0  0  0
  146.7872  140.6668  152.9720 H   0  0  0  0  0  0  0  0  0  0  0  0
  146.7295  139.8917  154.5368 H   0  0  0  0  0  0  0  0  0  0  0  0
  149.0102  140.0085  152.8132 H   0  0  0  0  0  0  0  0  0  0  0  0
  151.1338  138.0384  154.1414 H   0  0  0  0  0  0  0  0  0  0  0  0
  150.9319  139.6596  153.5800 H   0  0  0  0  0  0  0  0  0  0  0  0
  148.7959  141.0132  155.6740 H   0  0  0  0  0  0  0  0  0  0  0  0
  150.0188  141.8827  154.7327 H   0  0  0  0  0  0  0  0  0  0  0  0
  149.5884  142.4352  156.3495 H   0  0  0  0  0  0  0  0  0  0  0  0
  152.6509  140.3142  160.1670 H   0  0  0  0  0  0  0  0  0  0  0  0
  152.7192  141.9599  159.5220 H   0  0  0  0  0  0  0  0  0  0  0  0
  154.0752  140.8575  159.2673 H   0  0  0  0  0  0  0  0  0  0  0  0
  146.5097  139.1991  150.8336 H   0  0  0  0  0  0  0  0  0  0  0  0
  147.7539  138.1020  151.3819 H   0  0  0  0  0  0  0  0  0  0  0  0
  146.2558  136.9650  149.8016 H   0  0  0  0  0  0  0  0  0  0  0  0
  144.8467  137.3622  150.7606 H   0  0  0  0  0  0  0  0  0  0  0  0
  147.0854  135.6989  151.6647 H   0  0  0  0  0  0  0  0  0  0  0  0
  1  2  1  0  0  0  0
  1 25  1  0  0  0  0
  1 26  1  0  0  0  0
  1 27  1  0  0  0  0
  2  3  1  0  0  0  0
  3  4  1  0  0  0  0
  3 28  1  0  0  0  0
  3 29  1  0  0  0  0
  4  5  1  0  0  0  0
  4 30  1  0  0  0  0
  4 31  1  0  0  0  0
  5 24  1  0  0  0  0
  5  6  1  0  0  0  0
  5 52  1  0  0  0  0
  6  7  1  0  0  0  0
  6 32  1  0  0  0  0
  6 33  1  0  0  0  0
  7  8  1  0  0  0  0
  7 34  1  0  0  0  0
  7 35  1  0  0  0  0
  8  9  1  0  0  0  0
  8 23  1  0  0  0  0
  8 36  1  0  0  0  0
  9 10  1  0  0  0  0
  9 37  1  0  0  0  0
  9 38  1  0  0  0  0
 10 11  1  0  0  0  0
 10 39  1  0  0  0  0
 11 12  2  0  0  0  0
 11 13  1  0  0  0  0
 13 14  1  0  0  0  0
 13 40  1  0  0  0  0
 13 41  1  0  0  0  0
 14 21  1  0  0  0  0
 14 15  2  0  0  0  0
 15 16  1  0  0  0  0
 15 17  1  0  0  0  0
 16 42  1  0  0  0  0
 16 43  1  0  0  0  0
 16 44  1  0  0  0  0
 17 18  2  0  0  0  0
 18 19  1  0  0  0  0
 18 20  1  0  0  0  0
 19 45  1  0  0  0  0
 19 46  1  0  0  0  0
 19 47  1  0  0  0  0
 20 21  1  0  0  0  0
 21 22  2  0  0  0  0
 23 24  1  0  0  0  0
 23 48  1  0  0  0  0
 23 49  1  0  0  0  0
 24 50  1  0  0  0  0
 24 51  1  0  0  0  0
M  CHG  1   5   1
M  CHG  1  20  -1
M  END
> <s_m_source_file>
AV-unprocessed.smi

> <i_m_source_file_index>
1041

> <i_lp_mmshare_version>
43012

> <i_f3d_flags>
0

> <s_epik_input>
W0NIM11PW0NIMl1bQ0gyXU4xW0NIMl1bQ0gyXVtDSF0oW0NIMl1bQ0gyXTEpW0NIMl1bTkhdQyg9TylbQ0gyXWMyYyhbQ0gzXSluYyhbQ0gzXSlbbkhdYzI9Tw==

> <s_epik_cmdline>
J2VwaWtfcHl0aG9uJywgJy1waCcsICc3LjAnLCAnLXRuJywgJzgnLCAnLW1hJywgJzIwMCcsICctbWV0YWxfYmluZGluZycsICctaW1hZScsICc8aW5maWxlLm1hZT4nLCAnLW9tYWUnLCAnPG91dGZpbGUubWFlPic=

> <r_lp_tautomer_probability>
0.839158

> <r_epik_Ionization_Penalty>
6.54961

> <r_epik_Ionization_Penalty_Charging>
0.00968647

> <r_epik_Ionization_Penalty_Neutral>
6.53992

> <r_epik_State_Penalty>
4.43892

> <r_epik_Charging_Adjusted_Penalty>
4.44861

> <i_epik_Tot_Q>
0

> <i_epik_Tot_abs_Q>
2

> <r_epik_Metal_State_Penalty>
0.818645

> <b_epik_Metal_Only>
1

> <s_lp_Force_Field>
OPLS_2005

> <r_lp_Energy>
18.5529

> <b_lp_Chiralities_Consistent>
1

> <s_lp_Variant>
AV-unprocessed.smi:1041-6

> <Gold.Version>
5.8.1

> <Gold.Id.Protein>
6NUR|6NUR_protein|mol2

> <Gold.PLP.Fitness>
51.8069

> <Gold.PLP.PLP>
-37.5301

> <Gold.PLP.part.hbond>
-3.5032

> <Gold.PLP.part.metal>
0.0000

> <Gold.PLP.part.buried>
0.9898

> <Gold.PLP.part.nonpolar>
-37.0973

> <Gold.PLP.part.repulsive>
0.3507

> <Gold.PLP.ligand.clash>
0.0000

> <Gold.PLP.ligand.torsion>
0.2382

> <Gold.PLP.Chemscore.Hbond>
4.8480

> <Gold.PLP.Chemscore.CHOScore>
0.0000

> <Gold.PLP.Chemscore.Metal>
0.0000

> <Gold.Chemscore.Hbonds>
donor molecule, donor type, donor heavy atom, donor atom, acceptor molecule, acceptor atom, score
      L1  H     5    52       P1  7948  2.00
      L1  H    10    39       P1  7957  0.90
      P1  H  7997  8009       L1    20  1.40
      P1  H 10752 10763       L1    22  0.06

> <Gold.PLP.Chemscore.Internal.Correction>
0.2091

> <Gold.Rescore>
     Score         DG    S(hbond)    S(metal)    S(lipo)     H(rot)  DE(clash)    DE(int)     intcor
     14.48     -17.84       2.25        0.00      92.85       2.35       1.74       1.61       ----

> <Gold.Chemscore.Fitness>
14.4850

> <Gold.Chemscore.DG>
-17.8373

> <Gold.Chemscore.ZeroCoef>
-5.4800

> <Gold.Chemscore.Hbond>
2.2501

> <Gold.Chemscore.Metal>
0.0000

> <Gold.Chemscore.Lipo>
92.8461

> <Gold.Chemscore.Internal_Hbond>
0.0000

> <Gold.Chemscore.DEClash>
1.7386

> <Gold.Chemscore.DEInternal>
1.6137

> <Gold.Chemscore.Rot>
2.3520

> <Gold.Chemscore.Internal.Correction>
   9.000000E+99

> <Gold.Chemscore.Hbonds>
donor molecule, donor type, donor heavy atom, donor atom, acceptor molecule, acceptor atom, score
      L1  H     5    52       P1  7948  0.97
      L1  H    10    39       P1  7957  0.88
      P1  H  7997  8009       L1    20  0.04
      P1  H 10752 10763       L1    22  0.08

> <Gold.Chemscore.Hbond.Weighted>
-7.5154

> <Gold.Chemscore.Metal.Weighted>
-0.0000

> <Gold.Chemscore.Lipo.Weighted>
-10.8630

> <Gold.Chemscore.Internal_Hbond.Weighted>
0.0000

> <Gold.Chemscore.DEClash.Weighted>
1.7386

> <Gold.Chemscore.DEInternal.Weighted>
1.6137

> <Gold.Chemscore.Rot.Weighted>
6.0211

> <Gold.Chemscore.Internal.Correction.Weighted>
   9.000000E+99

> <Gold.Protein.RotatedTorsions>
[ 6907 6896 6895 6894 ] final  -34.45 input  -60.11 | X-H torsion
[ 7974 7965 7964 7962 ] final   86.57 input  175.53 | X-H torsion
[ 8008 7997 7996 7995 ] final  157.93 input   59.86 | X-H torsion
[ 10167 10162 10161 10158 ] final -159.21 input  -65.29 | X-H torsion
[ 10718 10713 10712 10709 ] final   -5.57 input   66.30 | X-H torsion
[ 10763 10752 10751 10750 ] final   77.78 input  -60.55 | X-H torsion
[ 11005 11000 10999 10996 ] final -157.65 input  -57.11 | X-H torsion

> <Gold.Protein.ActiveResidues>
 VAL166  LYS551  ARG553  GLY616  TRP617  ASP618  TYR619  PRO620  LYS621  CYS622 
 ASP623  PHE694  ASN695  SER759  ASP760  ASP761  ALA762  ILE779  LEU786  VAL792 
 PHE793  MET794  SER795  GLU796  ALA797  LYS798  CYS799  TRP800  GLU811  SER814 

> <Gold.Protein.RotatedAtoms>
  151.0525  134.9682  159.8218 H   0  0  0  0  0  0  0  0  0  0  0  0  # atno 6907 bound_to 6896
  152.5383  134.2519  159.8912 H   0  0  0  0  0  0  0  0  0  0  0  0  # atno 6908 bound_to 6896
  151.2535  133.4295  159.2646 H   0  0  0  0  0  0  0  0  0  0  0  0  # atno 6909 bound_to 6896
  145.5705  139.2313  143.2408 H   0  0  0  0  0  0  0  0  0  0  0  0  # atno 7974 bound_to 7965
  156.2334  140.1872  156.7184 H   0  0  0  0  0  0  0  0  0  0  0  0  # atno 8008 bound_to 7997
  154.6062  140.0628  156.9462 H   0  0  0  0  0  0  0  0  0  0  0  0  # atno 8009 bound_to 7997
  155.2091  140.3298  155.4334 H   0  0  0  0  0  0  0  0  0  0  0  0  # atno 8010 bound_to 7997
  139.6633  143.9875  152.2239 H   0  0  0  0  0  0  0  0  0  0  0  0  # atno 10167 bound_to 10162
  156.7446  130.5220  149.5817 H   0  0  0  0  0  0  0  0  0  0  0  0  # atno 10718 bound_to 10713
  153.0825  135.4901  154.8530 H   0  0  0  0  0  0  0  0  0  0  0  0  # atno 10763 bound_to 10752
  154.7168  135.3031  154.9113 H   0  0  0  0  0  0  0  0  0  0  0  0  # atno 10764 bound_to 10752
  153.9789  135.6792  153.4802 H   0  0  0  0  0  0  0  0  0  0  0  0  # atno 10765 bound_to 10752
  140.6623  134.4336  157.5234 H   0  0  0  0  0  0  0  0  0  0  0  0  # atno 11005 bound_to 11000
  146.1787  140.6531  142.9199 LP  0  0  0  0  0  0  0  0  0  0  0  0  # atno 17320 bound_to 7965
  144.7440  140.5018  143.6849 LP  0  0  0  0  0  0  0  0  0  0  0  0  # atno 17321 bound_to 7965
  139.9619  144.6552  150.8071 LP  0  0  0  0  0  0  0  0  0  0  0  0  # atno 17342 bound_to 10162
  140.7589  143.3117  151.2830 LP  0  0  0  0  0  0  0  0  0  0  0  0  # atno 17343 bound_to 10162
  156.1442  130.6265  151.0508 LP  0  0  0  0  0  0  0  0  0  0  0  0  # atno 17370 bound_to 10713
  157.6803  131.0839  150.7386 LP  0  0  0  0  0  0  0  0  0  0  0  0  # atno 17371 bound_to 10713
  139.9009  134.8559  156.1901 LP  0  0  0  0  0  0  0  0  0  0  0  0  # atno 17394 bound_to 11000
  141.0456  133.6915  156.1677 LP  0  0  0  0  0  0  0  0  0  0  0  0  # atno 17395 bound_to 11000

$$$$
