AV-unprocessed.smi:1099|AV-procd|sdf|4757|dock2
  -GOLD-   22720 3293D 1   1.00000     0.00000
 Structure written by MMmdl.
 41 43  0  0  0  0  0  0  0  0  1 V2000
  152.3789  142.4154  162.7490 C   0  0  0  0  0  0  0  0  0  0  0  0
  153.2047  142.0425  161.5133 C   0  0  0  0  0  0  0  0  0  0  0  0
  152.6099  142.5633  160.2478 C   0  0  0  0  0  0  0  0  0  0  0  0
  152.2061  141.7790  159.2447 N   0  0  0  0  0  0  0  0  0  0  0  0
  151.7150  142.5068  158.1563 C   0  0  0  0  0  0  0  0  0  0  0  0
  151.2032  141.7902  156.9436 C   0  0  0  0  0  0  0  0  0  0  0  0
  149.8778  141.0643  157.2124 C   0  0  0  0  0  0  0  0  0  0  0  0
  148.7540  141.9818  157.0822 N   0  0  0  0  0  0  0  0  0  0  0  0
  147.4960  141.6978  157.4491 C   0  0  0  0  0  0  0  0  0  0  0  0
  147.1698  140.6133  157.9331 O   0  0  0  0  0  0  0  0  0  0  0  0
  146.4666  142.8272  157.2633 C   0  0  2  0  0  0  0  0  0  0  0  0
  145.0227  142.4636  157.6901 C   0  0  0  0  0  0  0  0  0  0  0  0
  144.1918  142.8274  156.4451 C   0  0  2  0  0  0  0  0  0  0  0  0
  144.4450  141.7891  155.3363 C   0  0  0  0  0  0  0  0  0  0  0  0
  145.8590  142.1536  154.8480 C   0  0  0  0  0  0  0  0  0  0  0  0
  146.2630  143.3013  155.7997 C   0  0  1  0  0  0  0  0  0  0  0  0
  144.9372  144.0476  155.9161 C   0  0  0  0  0  0  0  0  0  0  0  0
  151.7639  143.8652  158.3475 C   0  0  0  0  0  0  0  0  0  0  0  0
  152.4332  144.2795  159.9013 S   0  0  0  0  0  0  0  0  0  0  0  0
  152.8356  142.0176  163.6553 H   0  0  0  0  0  0  0  0  0  0  0  0
  151.3671  142.0141  162.6818 H   0  0  0  0  0  0  0  0  0  0  0  0
  152.3043  143.4975  162.8601 H   0  0  0  0  0  0  0  0  0  0  0  0
  154.2195  142.4298  161.6125 H   0  0  0  0  0  0  0  0  0  0  0  0
  153.2904  140.9581  161.4378 H   0  0  0  0  0  0  0  0  0  0  0  0
  151.0687  142.4997  156.1260 H   0  0  0  0  0  0  0  0  0  0  0  0
  151.9474  141.0721  156.5963 H   0  0  0  0  0  0  0  0  0  0  0  0
  149.7532  140.2355  156.5136 H   0  0  0  0  0  0  0  0  0  0  0  0
  149.8823  140.6414  158.2183 H   0  0  0  0  0  0  0  0  0  0  0  0
  148.9457  142.8950  156.6965 H   0  0  0  0  0  0  0  0  0  0  0  0
  146.7904  143.6817  157.8611 H   0  0  0  0  0  0  0  0  0  0  0  0
  144.8862  141.4208  157.9788 H   0  0  0  0  0  0  0  0  0  0  0  0
  144.7190  143.0744  158.5411 H   0  0  0  0  0  0  0  0  0  0  0  0
  143.1346  142.9881  156.6581 H   0  0  0  0  0  0  0  0  0  0  0  0
  144.3860  140.7659  155.7096 H   0  0  0  0  0  0  0  0  0  0  0  0
  143.7207  141.8935  154.5276 H   0  0  0  0  0  0  0  0  0  0  0  0
  146.5439  141.3067  154.8573 H   0  0  0  0  0  0  0  0  0  0  0  0
  145.8173  142.5158  153.8198 H   0  0  0  0  0  0  0  0  0  0  0  0
  147.0856  143.9102  155.4232 H   0  0  0  0  0  0  0  0  0  0  0  0
  144.5545  144.4076  154.9592 H   0  0  0  0  0  0  0  0  0  0  0  0
  144.9656  144.8784  156.6235 H   0  0  0  0  0  0  0  0  0  0  0  0
  151.4497  144.6448  157.6696 H   0  0  0  0  0  0  0  0  0  0  0  0
  1  2  1  0  0  0  0
  1 20  1  0  0  0  0
  1 21  1  0  0  0  0
  1 22  1  0  0  0  0
  2  3  1  0  0  0  0
  2 23  1  0  0  0  0
  2 24  1  0  0  0  0
  3 19  1  0  0  0  0
  3  4  2  0  0  0  0
  4  5  1  0  0  0  0
  5  6  1  0  0  0  0
  5 18  2  0  0  0  0
  6  7  1  0  0  0  0
  6 25  1  0  0  0  0
  6 26  1  0  0  0  0
  7  8  1  0  0  0  0
  7 27  1  0  0  0  0
  7 28  1  0  0  0  0
  8  9  1  0  0  0  0
  8 29  1  0  0  0  0
  9 10  2  0  0  0  0
  9 11  1  0  0  0  0
 11 16  1  0  0  0  0
 11 12  1  0  0  0  0
 11 30  1  0  0  0  0
 12 13  1  0  0  0  0
 12 31  1  0  0  0  0
 12 32  1  0  0  0  0
 13 17  1  0  0  0  0
 13 14  1  0  0  0  0
 13 33  1  0  0  0  0
 14 15  1  0  0  0  0
 14 34  1  0  0  0  0
 14 35  1  0  0  0  0
 15 16  1  0  0  0  0
 15 36  1  0  0  0  0
 15 37  1  0  0  0  0
 16 17  1  0  0  0  0
 16 38  1  0  0  0  0
 17 39  1  0  0  0  0
 17 40  1  0  0  0  0
 18 19  1  0  0  0  0
 18 41  1  0  0  0  0
M  END
> <s_m_source_file>
AV-unprocessed.smi

> <i_m_source_file_index>
1099

> <i_lp_mmshare_version>
43012

> <i_f3d_flags>
0

> <s_epik_input>
W0NIM11bQ0gyXWMxbmMoW2NIXXMxKVtDSDJdW0NIMl1bTkhdQyg9TylbQ0BIXShbQ0gyXVtDQEBIXTIzKVtDQEBIXShbQ0gyXTMpW0NIMl1bQ0gyXTI=

> <s_epik_cmdline>
J2VwaWtfcHl0aG9uJywgJy1waCcsICc3LjAnLCAnLXRuJywgJzgnLCAnLW1hJywgJzIwMCcsICctbWV0YWxfYmluZGluZycsICctaW1hZScsICc8aW5maWxlLm1hZT4nLCAnLW9tYWUnLCAnPG91dGZpbGUubWFlPic=

> <r_epik_Ionization_Penalty>
0.00110131

> <r_epik_Ionization_Penalty_Charging>
0

> <r_epik_Ionization_Penalty_Neutral>
0.00110131

> <r_epik_State_Penalty>
0.00072257

> <r_epik_Charging_Adjusted_Penalty>
0.00072257

> <i_epik_Tot_Q>
0

> <i_epik_Tot_abs_Q>
0

> <r_epik_Metal_State_Penalty>
-0

> <b_epik_Metal_Only>
0

> <s_lp_Force_Field>
OPLS_2005

> <r_lp_Energy>
38.6178

> <b_lp_Chiralities_Consistent>
1

> <s_lp_Variant>
AV-unprocessed.smi:1099-3

> <Gold.Version>
5.8.1

> <Gold.Id.Protein>
6NUR|6NUR_protein|mol2

> <Gold.PLP.Fitness>
42.6240

> <Gold.PLP.PLP>
-37.1500

> <Gold.PLP.part.hbond>
-1.7657

> <Gold.PLP.part.metal>
0.0000

> <Gold.PLP.part.buried>
-5.6120

> <Gold.PLP.part.nonpolar>
-30.2652

> <Gold.PLP.part.repulsive>
0.0147

> <Gold.PLP.ligand.clash>
0.0000

> <Gold.PLP.ligand.torsion>
0.2885

> <Gold.PLP.Chemscore.Hbond>
1.0000

> <Gold.PLP.Chemscore.CHOScore>
0.9977

> <Gold.PLP.Chemscore.Metal>
0.0000

> <Gold.Chemscore.Hbonds>
donor molecule, donor type, donor heavy atom, donor atom, acceptor molecule, acceptor atom, score
      L1  H     8    29       P1  8028  0.84

> <Gold.PLP.Chemscore.Internal.Correction>
0.0581

> <Gold.Rescore>
     Score         DG    S(hbond)    S(metal)    S(lipo)     H(rot)  DE(clash)    DE(int)     intcor
     17.14     -17.38       0.92        0.00     106.32       1.42       0.06       0.18       ----

> <Gold.Chemscore.Fitness>
17.1403

> <Gold.Chemscore.DG>
-17.3808

> <Gold.Chemscore.ZeroCoef>
-5.4800

> <Gold.Chemscore.Hbond>
0.9245

> <Gold.Chemscore.Metal>
0.0000

> <Gold.Chemscore.Lipo>
106.3176

> <Gold.Chemscore.Internal_Hbond>
0.0000

> <Gold.Chemscore.DEClash>
0.0609

> <Gold.Chemscore.DEInternal>
0.1796

> <Gold.Chemscore.Rot>
1.4165

> <Gold.Chemscore.Internal.Correction>
   9.000000E+99

> <Gold.Chemscore.Hbonds>
donor molecule, donor type, donor heavy atom, donor atom, acceptor molecule, acceptor atom, score
      L1  H     8    29       P1  8028  0.80

> <Gold.Chemscore.Hbond.Weighted>
-3.0879

> <Gold.Chemscore.Metal.Weighted>
-0.0000

> <Gold.Chemscore.Lipo.Weighted>
-12.4392

> <Gold.Chemscore.Internal_Hbond.Weighted>
0.0000

> <Gold.Chemscore.DEClash.Weighted>
0.0609

> <Gold.Chemscore.DEInternal.Weighted>
0.1796

> <Gold.Chemscore.Rot.Weighted>
3.6262

> <Gold.Chemscore.Internal.Correction.Weighted>
   9.000000E+99

> <Gold.Protein.RotatedTorsions>
[ 6907 6896 6895 6894 ] final  -91.19 input  -60.11 | X-H torsion
[ 7974 7965 7964 7962 ] final -153.64 input  175.53 | X-H torsion
[ 8008 7997 7996 7995 ] final  -88.82 input   59.86 | X-H torsion
[ 10167 10162 10161 10158 ] final  -39.00 input  -65.29 | X-H torsion
[ 10718 10713 10712 10709 ] final  155.25 input   66.30 | X-H torsion
[ 10763 10752 10751 10750 ] final   19.58 input  -60.55 | X-H torsion
[ 11005 11000 10999 10996 ] final  140.63 input  -57.11 | X-H torsion

> <Gold.Protein.ActiveResidues>
 VAL166  LYS551  ARG553  GLY616  TRP617  ASP618  TYR619  PRO620  LYS621  CYS622 
 ASP623  PHE694  ASN695  SER759  ASP760  ASP761  ALA762  ILE779  LEU786  VAL792 
 PHE793  MET794  SER795  GLU796  ALA797  LYS798  CYS799  TRP800  GLU811  SER814 

> <Gold.Protein.RotatedAtoms>
  150.6890  134.2315  159.4436 H   0  0  0  0  0  0  0  0  0  0  0  0  # atno 6907 bound_to 6896
  152.0265  134.9790  160.0581 H   0  0  0  0  0  0  0  0  0  0  0  0  # atno 6908 bound_to 6896
  152.1346  133.4393  159.4774 H   0  0  0  0  0  0  0  0  0  0  0  0  # atno 6909 bound_to 6896
  144.7730  140.4498  143.5893 H   0  0  0  0  0  0  0  0  0  0  0  0  # atno 7974 bound_to 7965
  154.6793  140.0549  157.0249 H   0  0  0  0  0  0  0  0  0  0  0  0  # atno 8008 bound_to 7997
  155.0974  140.3225  155.4538 H   0  0  0  0  0  0  0  0  0  0  0  0  # atno 8009 bound_to 7997
  156.2688  140.2037  156.6100 H   0  0  0  0  0  0  0  0  0  0  0  0  # atno 8010 bound_to 7997
  140.7076  143.3241  151.2721 H   0  0  0  0  0  0  0  0  0  0  0  0  # atno 10167 bound_to 10162
  157.2208  131.0718  151.1913 H   0  0  0  0  0  0  0  0  0  0  0  0  # atno 10718 bound_to 10713
  153.1150  135.6706  153.9434 H   0  0  0  0  0  0  0  0  0  0  0  0  # atno 10763 bound_to 10752
  153.8966  135.3041  155.3449 H   0  0  0  0  0  0  0  0  0  0  0  0  # atno 10764 bound_to 10752
  154.7567  135.5008  153.9466 H   0  0  0  0  0  0  0  0  0  0  0  0  # atno 10765 bound_to 10752
  140.0342  134.9337  157.0720 H   0  0  0  0  0  0  0  0  0  0  0  0  # atno 11005 bound_to 11000
  145.6268  139.1531  143.2992 LP  0  0  0  0  0  0  0  0  0  0  0  0  # atno 17320 bound_to 7965
  146.1890  140.6374  142.9154 LP  0  0  0  0  0  0  0  0  0  0  0  0  # atno 17321 bound_to 7965
  139.6704  144.0030  152.2749 LP  0  0  0  0  0  0  0  0  0  0  0  0  # atno 17342 bound_to 10162
  139.9627  144.6547  150.8064 LP  0  0  0  0  0  0  0  0  0  0  0  0  # atno 17343 bound_to 10162
  157.3578  130.7115  149.6482 LP  0  0  0  0  0  0  0  0  0  0  0  0  # atno 17370 bound_to 10713
  155.9682  130.4234  150.4561 LP  0  0  0  0  0  0  0  0  0  0  0  0  # atno 17371 bound_to 10713
  140.4176  134.1915  155.7164 LP  0  0  0  0  0  0  0  0  0  0  0  0  # atno 17394 bound_to 11000
  141.1848  133.8337  157.1128 LP  0  0  0  0  0  0  0  0  0  0  0  0  # atno 17395 bound_to 11000

$$$$
