AV-unprocessed.smi:560|AV-procd|sdf|2933|dock6
  -GOLD-   2262023433D 1   1.00000     0.00000
 Structure written by MMmdl.
 41 42  0  0  0  0  0  0  0  0  3 V2000
  152.4313  140.5270  159.1886 C   0  0  0  0  0  0  0  0  0  0  0  0
  151.8345  141.6699  158.3428 C   0  0  1  0  0  0  0  0  0  0  0  0
  150.4216  141.3521  157.8282 C   0  0  0  0  0  0  0  0  0  0  0  0
  149.5083  141.0948  158.6137 O   0  0  0  0  0  0  0  0  0  0  0  0
  150.2565  141.3725  156.4958 N   0  0  0  0  0  0  0  0  0  0  0  0
  149.0015  141.1093  155.7987 C   0  0  2  0  0  0  0  0  0  0  0  0
  148.9216  139.6383  155.3489 C   0  0  0  0  0  0  0  0  0  0  0  0
  147.6554  139.3787  154.5170 C   0  0  0  0  0  0  0  0  0  0  0  0
  147.5929  140.2896  153.3434 N   0  3  1  0  0  0  0  0  0  0  0  0
  146.4700  139.9850  152.4198 C   0  0  0  0  0  0  0  0  0  0  0  0
  146.5369  138.5308  151.9390 C   0  0  0  0  0  0  0  0  0  0  0  0
  146.6890  138.4371  150.6023 N   0  5  0  0  0  0  0  0  0  0  0  0
  146.4519  137.6163  152.7550 O   0  0  0  0  0  0  0  0  0  0  0  0
  147.6209  141.7154  153.7548 C   0  0  0  0  0  0  0  0  0  0  0  0
  148.8839  142.0308  154.5737 C   0  0  0  0  0  0  0  0  0  0  0  0
  151.8415  142.9426  159.0545 N   0  0  0  0  0  0  0  0  0  0  0  0
  152.2795  144.1684  158.5955 C   0  0  0  0  0  0  0  0  0  0  0  0
  152.0647  145.0802  159.5888 C   0  0  0  0  0  0  0  0  0  0  0  0
  151.4712  144.3129  160.6291 C   0  0  0  0  0  0  0  0  0  0  0  0
  151.3321  143.0381  160.3050 N   0  0  0  0  0  0  0  0  0  0  0  0
  152.4690  139.5967  158.6208 H   0  0  0  0  0  0  0  0  0  0  0  0
  151.8522  140.3380  160.0934 H   0  0  0  0  0  0  0  0  0  0  0  0
  153.4508  140.7641  159.4943 H   0  0  0  0  0  0  0  0  0  0  0  0
  152.4782  141.7885  157.4694 H   0  0  0  0  0  0  0  0  0  0  0  0
  151.0589  141.5919  155.9234 H   0  0  0  0  0  0  0  0  0  0  0  0
  148.1685  141.3240  156.4711 H   0  0  0  0  0  0  0  0  0  0  0  0
  149.8012  139.3821  154.7563 H   0  0  0  0  0  0  0  0  0  0  0  0
  148.9299  138.9761  156.2155 H   0  0  0  0  0  0  0  0  0  0  0  0
  147.6527  138.3389  154.1892 H   0  0  0  0  0  0  0  0  0  0  0  0
  146.7665  139.5166  155.1342 H   0  0  0  0  0  0  0  0  0  0  0  0
  145.5130  140.1888  152.9031 H   0  0  0  0  0  0  0  0  0  0  0  0
  146.5171  140.6275  151.5389 H   0  0  0  0  0  0  0  0  0  0  0  0
  145.8529  138.4859  150.0074 H   0  0  0  0  0  0  0  0  0  0  0  0
  147.6012  142.3531  152.8704 H   0  0  0  0  0  0  0  0  0  0  0  0
  146.7253  141.9461  154.3340 H   0  0  0  0  0  0  0  0  0  0  0  0
  148.8661  143.0743  154.8902 H   0  0  0  0  0  0  0  0  0  0  0  0
  149.7624  141.9161  153.9365 H   0  0  0  0  0  0  0  0  0  0  0  0
  152.7048  144.2891  157.6100 H   0  0  0  0  0  0  0  0  0  0  0  0
  152.2930  146.1353  159.5735 H   0  0  0  0  0  0  0  0  0  0  0  0
  151.1360  144.6428  161.6014 H   0  0  0  0  0  0  0  0  0  0  0  0
  148.4307  140.1311  152.8005 H   0  0  0  0  0  0  0  0  0  0  0  0
  1  2  1  0  0  0  0
  1 21  1  0  0  0  0
  1 22  1  0  0  0  0
  1 23  1  0  0  0  0
  2  3  1  0  0  0  0
  2 16  1  0  0  0  0
  2 24  1  0  0  0  0
  3  4  2  0  0  0  0
  3  5  1  0  0  0  0
  5  6  1  0  0  0  0
  5 25  1  0  0  0  0
  6 15  1  0  0  0  0
  6  7  1  0  0  0  0
  6 26  1  0  0  0  0
  7  8  1  0  0  0  0
  7 27  1  0  0  0  0
  7 28  1  0  0  0  0
  8  9  1  0  0  0  0
  8 29  1  0  0  0  0
  8 30  1  0  0  0  0
  9 10  1  0  0  0  0
  9 14  1  0  0  0  0
  9 41  1  0  0  0  0
 10 11  1  0  0  0  0
 10 31  1  0  0  0  0
 10 32  1  0  0  0  0
 11 12  1  0  0  0  0
 11 13  2  0  0  0  0
 12 33  1  0  0  0  0
 14 15  1  0  0  0  0
 14 34  1  0  0  0  0
 14 35  1  0  0  0  0
 15 36  1  0  0  0  0
 15 37  1  0  0  0  0
 16 20  1  0  0  0  0
 16 17  1  0  0  0  0
 17 18  2  0  0  0  0
 17 38  1  0  0  0  0
 18 19  1  0  0  0  0
 18 39  1  0  0  0  0
 19 20  2  0  0  0  0
 19 40  1  0  0  0  0
M  CHG  1   9   1
M  CHG  1  12  -1
M  END
> <s_m_source_file>
AV-unprocessed.smi

> <i_m_source_file_index>
560

> <i_lp_mmshare_version>
43012

> <i_f3d_flags>
0

> <s_epik_input>
bjFbY0hdW2NIXVtjSF1uMVtDQEhdKFtDSDNdKUMoPU8pW05IXVtDSF0yW0NIMl1bQ0gyXU4oW0NIMl1bQ0gyXTIpW0NIMl1DKD1PKVtOSDJd

> <s_epik_cmdline>
J2VwaWtfcHl0aG9uJywgJy1waCcsICc3LjAnLCAnLXRuJywgJzgnLCAnLW1hJywgJzIwMCcsICctbWV0YWxfYmluZGluZycsICctaW1hZScsICc8aW5maWxlLm1hZT4nLCAnLW9tYWUnLCAnPG91dGZpbGUubWFlPic=

> <r_lp_tautomer_probability>
1

> <r_epik_Ionization_Penalty>
5.71084

> <r_epik_Ionization_Penalty_Charging>
5.71081

> <r_epik_Ionization_Penalty_Neutral>
3.04611e-05

> <r_epik_State_Penalty>
6.71277

> <r_epik_Charging_Adjusted_Penalty>
12.4236

> <i_epik_Tot_Q>
0

> <i_epik_Tot_abs_Q>
2

> <r_epik_Metal_State_Penalty>
2.67562

> <b_epik_Metal_Only>
1

> <s_lp_Force_Field>
OPLS_2005

> <r_lp_Energy>
10.2497

> <b_lp_Chiralities_Consistent>
1

> <s_lp_Variant>
AV-unprocessed.smi:560-8

> <Gold.Version>
5.8.1

> <Gold.Id.Protein>
6NUR|6NUR_protein|mol2

> <Gold.PLP.Fitness>
45.6832

> <Gold.PLP.PLP>
-38.1893

> <Gold.PLP.part.hbond>
-4.3831

> <Gold.PLP.part.metal>
0.0000

> <Gold.PLP.part.buried>
-0.5259

> <Gold.PLP.part.nonpolar>
-33.6244

> <Gold.PLP.part.repulsive>
0.4253

> <Gold.PLP.ligand.clash>
0.0000

> <Gold.PLP.ligand.torsion>
0.7343

> <Gold.PLP.Chemscore.Hbond>
2.9433

> <Gold.PLP.Chemscore.CHOScore>
0.0000

> <Gold.PLP.Chemscore.Metal>
0.0000

> <Gold.Chemscore.Hbonds>
donor molecule, donor type, donor heavy atom, donor atom, acceptor molecule, acceptor atom, score
      L1  H     9    41       P1  7957  1.00
      L1  H    12    33       P1 10171  1.00
      P1  H  7954  7966       L1    12  0.88

> <Gold.PLP.Chemscore.Internal.Correction>
0.1325

> <Gold.Rescore>
     Score         DG    S(hbond)    S(metal)    S(lipo)     H(rot)  DE(clash)    DE(int)     intcor
     15.38     -18.63       2.67        0.00      90.16       2.47       1.22       2.03       ----

> <Gold.Chemscore.Fitness>
15.3842

> <Gold.Chemscore.DG>
-18.6281

> <Gold.Chemscore.ZeroCoef>
-5.4800

> <Gold.Chemscore.Hbond>
2.6739

> <Gold.Chemscore.Metal>
0.0000

> <Gold.Chemscore.Lipo>
90.1640

> <Gold.Chemscore.Internal_Hbond>
0.0000

> <Gold.Chemscore.DEClash>
1.2161

> <Gold.Chemscore.DEInternal>
2.0278

> <Gold.Chemscore.Rot>
2.4734

> <Gold.Chemscore.Internal.Correction>
   9.000000E+99

> <Gold.Chemscore.Hbonds>
donor molecule, donor type, donor heavy atom, donor atom, acceptor molecule, acceptor atom, score
      L1  H     9    41       P1  7957  0.93
      L1  H    12    33       P1 10171  0.95
      P1  H  7954  7966       L1    12  0.81

> <Gold.Chemscore.Hbond.Weighted>
-8.9307

> <Gold.Chemscore.Metal.Weighted>
-0.0000

> <Gold.Chemscore.Lipo.Weighted>
-10.5492

> <Gold.Chemscore.Internal_Hbond.Weighted>
0.0000

> <Gold.Chemscore.DEClash.Weighted>
1.2161

> <Gold.Chemscore.DEInternal.Weighted>
2.0278

> <Gold.Chemscore.Rot.Weighted>
6.3318

> <Gold.Chemscore.Internal.Correction.Weighted>
   9.000000E+99

> <Gold.Protein.RotatedTorsions>
[ 6907 6896 6895 6894 ] final -162.65 input  -60.11 | X-H torsion
[ 7974 7965 7964 7962 ] final  143.15 input  175.53 | X-H torsion
[ 8008 7997 7996 7995 ] final -123.30 input   59.86 | X-H torsion
[ 10167 10162 10161 10158 ] final  -10.31 input  -65.29 | X-H torsion
[ 10718 10713 10712 10709 ] final  -27.25 input   66.30 | X-H torsion
[ 10763 10752 10751 10750 ] final   -9.91 input  -60.55 | X-H torsion
[ 11005 11000 10999 10996 ] final   17.16 input  -57.11 | X-H torsion

> <Gold.Protein.ActiveResidues>
 VAL166  LYS551  ARG553  GLY616  TRP617  ASP618  TYR619  PRO620  LYS621  CYS622 
 ASP623  PHE694  ASN695  SER759  ASP760  ASP761  ALA762  ILE779  LEU786  VAL792 
 PHE793  MET794  SER795  GLU796  ALA797  LYS798  CYS799  TRP800  GLU811  SER814 

> <Gold.Protein.RotatedAtoms>
  151.3837  133.3812  159.2712 H   0  0  0  0  0  0  0  0  0  0  0  0  # atno 6907 bound_to 6896
  150.9558  134.8953  159.7711 H   0  0  0  0  0  0  0  0  0  0  0  0  # atno 6908 bound_to 6896
  152.5130  134.3794  159.9398 H   0  0  0  0  0  0  0  0  0  0  0  0  # atno 6909 bound_to 6896
  144.8945  139.5510  143.5782 H   0  0  0  0  0  0  0  0  0  0  0  0  # atno 7974 bound_to 7965
  155.1783  140.0410  157.2877 H   0  0  0  0  0  0  0  0  0  0  0  0  # atno 8008 bound_to 7997
  154.6221  140.2503  155.7509 H   0  0  0  0  0  0  0  0  0  0  0  0  # atno 8009 bound_to 7997
  156.2439  140.2893  156.0534 H   0  0  0  0  0  0  0  0  0  0  0  0  # atno 8010 bound_to 7997
  140.7110  143.5762  150.9040 H   0  0  0  0  0  0  0  0  0  0  0  0  # atno 10167 bound_to 10162
  156.4406  130.4463  149.7055 H   0  0  0  0  0  0  0  0  0  0  0  0  # atno 10718 bound_to 10713
  153.4616  135.7016  153.6047 H   0  0  0  0  0  0  0  0  0  0  0  0  # atno 10763 bound_to 10752
  153.4339  135.3796  155.2187 H   0  0  0  0  0  0  0  0  0  0  0  0  # atno 10764 bound_to 10752
  154.8727  135.3957  154.4042 H   0  0  0  0  0  0  0  0  0  0  0  0  # atno 10765 bound_to 10752
  140.4390  134.1341  155.7688 H   0  0  0  0  0  0  0  0  0  0  0  0  # atno 11005 bound_to 11000
  146.3073  139.7625  142.9046 LP  0  0  0  0  0  0  0  0  0  0  0  0  # atno 17320 bound_to 7965
  145.3724  141.0345  143.3224 LP  0  0  0  0  0  0  0  0  0  0  0  0  # atno 17321 bound_to 7965
  139.9488  143.6296  152.3034 LP  0  0  0  0  0  0  0  0  0  0  0  0  # atno 17342 bound_to 10162
  139.6807  144.7655  151.1613 LP  0  0  0  0  0  0  0  0  0  0  0  0  # atno 17343 bound_to 10162
  156.3922  130.7633  151.2634 LP  0  0  0  0  0  0  0  0  0  0  0  0  # atno 17370 bound_to 10713
  157.7506  131.0264  150.3962 LP  0  0  0  0  0  0  0  0  0  0  0  0  # atno 17371 bound_to 10713
  141.1713  133.8602  157.1560 LP  0  0  0  0  0  0  0  0  0  0  0  0  # atno 17394 bound_to 11000
  140.0082  134.9999  157.0339 LP  0  0  0  0  0  0  0  0  0  0  0  0  # atno 17395 bound_to 11000

$$$$
