AV-unprocessed.smi:2278|AV-procd|sdf|9181|dock5
  -GOLD-   2272012393D 1   1.00000     0.00000
 Structure written by MMmdl.
 46 47  0  0  0  0  0  0  0  0  2 V2000
  150.7985  143.2035  159.0238 C   0  0  0  0  0  0  0  0  0  0  0  0
  151.0633  142.1063  158.0083 C   0  0  0  0  0  0  0  0  0  0  0  0
  150.2713  142.1446  156.8572 N   0  0  0  0  0  0  0  0  0  0  0  0
  150.4303  141.2524  155.9355 C   0  0  0  0  0  0  0  0  0  0  0  0
  151.3890  140.2316  156.0517 N   0  0  0  0  0  0  0  0  0  0  0  0
  151.4704  139.2876  154.9226 C   0  0  0  0  0  0  0  0  0  0  0  0
  150.1861  138.4439  154.7539 C   0  0  2  0  0  0  0  0  0  0  0  0
  150.5398  137.2580  154.0709 O   0  0  0  0  0  0  0  0  0  0  0  0
  149.0767  139.1578  153.9501 C   0  0  0  0  0  0  0  0  0  0  0  0
  147.9786  138.2413  153.5496 N   0  3  2  0  0  0  0  0  0  0  0  0
  146.8904  138.9499  152.8287 C   0  0  0  0  0  0  0  0  0  0  0  0
  145.8343  137.9616  152.3015 C   0  0  0  0  0  0  0  0  0  0  0  0
  145.2552  137.0744  153.4187 C   0  0  2  0  0  0  0  0  0  0  0  0
  144.2817  137.8321  154.3387 C   0  0  0  0  0  0  0  0  0  0  0  0
  146.4084  136.4090  154.1916 C   0  0  0  0  0  0  0  0  0  0  0  0
  147.4491  137.4322  154.6796 C   0  0  0  0  0  0  0  0  0  0  0  0
  152.1960  140.1166  157.1463 C   0  0  0  0  0  0  0  0  0  0  0  0
  153.0341  139.2180  157.2408 O   0  0  0  0  0  0  0  0  0  0  0  0
  152.0057  141.1408  158.1859 C   0  0  0  0  0  0  0  0  0  0  0  0
  152.9014  141.0520  159.4152 C   0  0  0  0  0  0  0  0  0  0  0  0
  150.5084  142.7742  159.9831 H   0  0  0  0  0  0  0  0  0  0  0  0
  149.9929  143.8625  158.6968 H   0  0  0  0  0  0  0  0  0  0  0  0
  151.6908  143.8129  159.1694 H   0  0  0  0  0  0  0  0  0  0  0  0
  149.8397  141.2382  155.0176 H   0  0  0  0  0  0  0  0  0  0  0  0
  151.6999  139.8040  153.9886 H   0  0  0  0  0  0  0  0  0  0  0  0
  152.3237  138.6236  155.0772 H   0  0  0  0  0  0  0  0  0  0  0  0
  149.8235  138.1557  155.7399 H   0  0  0  0  0  0  0  0  0  0  0  0
  150.0112  137.1890  153.2899 H   0  0  0  0  0  0  0  0  0  0  0  0
  148.6451  139.9813  154.5189 H   0  0  0  0  0  0  0  0  0  0  0  0
  149.5295  139.6059  153.0641 H   0  0  0  0  0  0  0  0  0  0  0  0
  146.4317  139.6877  153.4884 H   0  0  0  0  0  0  0  0  0  0  0  0
  147.3085  139.5013  151.9856 H   0  0  0  0  0  0  0  0  0  0  0  0
  145.0344  138.5025  151.7947 H   0  0  0  0  0  0  0  0  0  0  0  0
  146.2949  137.3255  151.5441 H   0  0  0  0  0  0  0  0  0  0  0  0
  144.6760  136.2817  152.9433 H   0  0  0  0  0  0  0  0  0  0  0  0
  144.7653  138.6570  154.8614 H   0  0  0  0  0  0  0  0  0  0  0  0
  143.8609  137.1669  155.0932 H   0  0  0  0  0  0  0  0  0  0  0  0
  143.4493  138.2461  153.7694 H   0  0  0  0  0  0  0  0  0  0  0  0
  146.0188  135.8395  155.0362 H   0  0  0  0  0  0  0  0  0  0  0  0
  146.9027  135.6850  153.5423 H   0  0  0  0  0  0  0  0  0  0  0  0
  148.2579  136.8968  155.1750 H   0  0  0  0  0  0  0  0  0  0  0  0
  147.0109  138.0920  155.4297 H   0  0  0  0  0  0  0  0  0  0  0  0
  153.9492  141.1217  159.1218 H   0  0  0  0  0  0  0  0  0  0  0  0
  152.7542  140.0963  159.9194 H   0  0  0  0  0  0  0  0  0  0  0  0
  152.7124  141.8394  160.1431 H   0  0  0  0  0  0  0  0  0  0  0  0
  148.3814  137.5966  152.8841 H   0  0  0  0  0  0  0  0  0  0  0  0
  1  2  1  0  0  0  0
  1 21  1  0  0  0  0
  1 22  1  0  0  0  0
  1 23  1  0  0  0  0
  2 19  2  0  0  0  0
  2  3  1  0  0  0  0
  3  4  2  0  0  0  0
  4  5  1  0  0  0  0
  4 24  1  0  0  0  0
  5  6  1  0  0  0  0
  5 17  1  0  0  0  0
  6  7  1  0  0  0  0
  6 25  1  0  0  0  0
  6 26  1  0  0  0  0
  7  8  1  0  0  0  0
  7  9  1  0  0  0  0
  7 27  1  0  0  0  0
  8 28  1  0  0  0  0
  9 10  1  0  0  0  0
  9 29  1  0  0  0  0
  9 30  1  0  0  0  0
 10 16  1  0  0  0  0
 10 11  1  0  0  0  0
 10 46  1  0  0  0  0
 11 12  1  0  0  0  0
 11 31  1  0  0  0  0
 11 32  1  0  0  0  0
 12 13  1  0  0  0  0
 12 33  1  0  0  0  0
 12 34  1  0  0  0  0
 13 14  1  0  0  0  0
 13 15  1  0  0  0  0
 13 35  1  0  0  0  0
 14 36  1  0  0  0  0
 14 37  1  0  0  0  0
 14 38  1  0  0  0  0
 15 16  1  0  0  0  0
 15 39  1  0  0  0  0
 15 40  1  0  0  0  0
 16 41  1  0  0  0  0
 16 42  1  0  0  0  0
 17 18  2  0  0  0  0
 17 19  1  0  0  0  0
 19 20  1  0  0  0  0
 20 43  1  0  0  0  0
 20 44  1  0  0  0  0
 20 45  1  0  0  0  0
M  CHG  1  10   1
M  END
> <s_m_source_file>
AV-unprocessed.smi

> <i_m_source_file_index>
2278

> <i_lp_mmshare_version>
43012

> <i_f3d_flags>
0

> <s_epik_input>
W0NIM11jMW5bY0hdbihjKD1PKWMxW0NIM10pW0NIMl1bQ0BIXShbT0hdKVtDSDJdTjJbQ0gyXVtDSDJdW0NIXShbQ0gzXSlbQ0gyXVtDSDJdMg==

> <s_epik_cmdline>
J2VwaWtfcHl0aG9uJywgJy1waCcsICc3LjAnLCAnLXRuJywgJzgnLCAnLW1hJywgJzIwMCcsICctbWV0YWxfYmluZGluZycsICctaW1hZScsICc8aW5maWxlLm1hZT4nLCAnLW9tYWUnLCAnPG91dGZpbGUubWFlPic=

> <r_lp_tautomer_probability>
1

> <r_epik_Ionization_Penalty>
0.00139489

> <r_epik_Ionization_Penalty_Charging>
0.00136819

> <r_epik_Ionization_Penalty_Neutral>
2.66975e-05

> <r_epik_State_Penalty>
0.000910892

> <r_epik_Charging_Adjusted_Penalty>
0.00227908

> <i_epik_Tot_Q>
1

> <i_epik_Tot_abs_Q>
1

> <r_epik_Metal_State_Penalty>
-0

> <b_epik_Metal_Only>
0

> <s_lp_Force_Field>
OPLS_2005

> <r_lp_Energy>
30.3115

> <b_lp_Chiralities_Consistent>
1

> <s_lp_Variant>
AV-unprocessed.smi:2278-3

> <Gold.Version>
5.8.1

> <Gold.Id.Protein>
6NUR|6NUR_protein|mol2

> <Gold.PLP.Fitness>
43.8796

> <Gold.PLP.PLP>
-32.7453

> <Gold.PLP.part.hbond>
-4.0000

> <Gold.PLP.part.metal>
0.0000

> <Gold.PLP.part.buried>
-2.1138

> <Gold.PLP.part.nonpolar>
-27.8114

> <Gold.PLP.part.repulsive>
0.5002

> <Gold.PLP.ligand.clash>
0.0000

> <Gold.PLP.ligand.torsion>
0.3807

> <Gold.PLP.Chemscore.Hbond>
3.9500

> <Gold.PLP.Chemscore.CHOScore>
0.0000

> <Gold.PLP.Chemscore.Metal>
0.0000

> <Gold.Chemscore.Hbonds>
donor molecule, donor type, donor heavy atom, donor atom, acceptor molecule, acceptor atom, score
      L1  H     8    28       P1  7948  0.95
      L1  H    10    46       P1  7948  2.00
      P1  H  7997  8010       L1    18  0.95

> <Gold.PLP.Chemscore.Internal.Correction>
0.0458

> <Gold.Rescore>
     Score         DG    S(hbond)    S(metal)    S(lipo)     H(rot)  DE(clash)    DE(int)     intcor
     14.22     -14.86       2.05        0.00      69.86       2.20       0.29       0.35       ----

> <Gold.Chemscore.Fitness>
14.2215

> <Gold.Chemscore.DG>
-14.8608

> <Gold.Chemscore.ZeroCoef>
-5.4800

> <Gold.Chemscore.Hbond>
2.0466

> <Gold.Chemscore.Metal>
0.0000

> <Gold.Chemscore.Lipo>
69.8602

> <Gold.Chemscore.Internal_Hbond>
0.0000

> <Gold.Chemscore.DEClash>
0.2862

> <Gold.Chemscore.DEInternal>
0.3531

> <Gold.Chemscore.Rot>
2.1986

> <Gold.Chemscore.Internal.Correction>
   9.000000E+99

> <Gold.Chemscore.Hbonds>
donor molecule, donor type, donor heavy atom, donor atom, acceptor molecule, acceptor atom, score
      L1  H     8    28       P1  7948  0.21
      L1  H    10    46       P1  7948  1.00
      P1  H  7997  8010       L1    18  0.22

> <Gold.Chemscore.Hbond.Weighted>
-6.8357

> <Gold.Chemscore.Metal.Weighted>
-0.0000

> <Gold.Chemscore.Lipo.Weighted>
-8.1736

> <Gold.Chemscore.Internal_Hbond.Weighted>
0.0000

> <Gold.Chemscore.DEClash.Weighted>
0.2862

> <Gold.Chemscore.DEInternal.Weighted>
0.3531

> <Gold.Chemscore.Rot.Weighted>
5.6285

> <Gold.Chemscore.Internal.Correction.Weighted>
   9.000000E+99

> <Gold.Protein.RotatedTorsions>
[ 6907 6896 6895 6894 ] final -100.38 input  -60.11 | X-H torsion
[ 7974 7965 7964 7962 ] final -149.37 input  175.53 | X-H torsion
[ 8008 7997 7996 7995 ] final   58.40 input   59.86 | X-H torsion
[ 10167 10162 10161 10158 ] final -157.15 input  -65.29 | X-H torsion
[ 10718 10713 10712 10709 ] final -116.33 input   66.30 | X-H torsion
[ 10763 10752 10751 10750 ] final  -36.37 input  -60.55 | X-H torsion
[ 11005 11000 10999 10996 ] final  167.04 input  -57.11 | X-H torsion

> <Gold.Protein.ActiveResidues>
 VAL166  LYS551  ARG553  GLY616  TRP617  ASP618  TYR619  PRO620  LYS621  CYS622 
 ASP623  PHE694  ASN695  SER759  ASP760  ASP761  ALA762  ILE779  LEU786  VAL792 
 PHE793  MET794  SER795  GLU796  ALA797  LYS798  CYS799  TRP800  GLU811  SER814 

> <Gold.Protein.RotatedAtoms>
  150.7114  134.0896  159.3926 H   0  0  0  0  0  0  0  0  0  0  0  0  # atno 6907 bound_to 6896
  151.8881  135.0425  160.0504 H   0  0  0  0  0  0  0  0  0  0  0  0  # atno 6908 bound_to 6896
  152.2514  133.5183  159.5364 H   0  0  0  0  0  0  0  0  0  0  0  0  # atno 6909 bound_to 6896
  144.7971  140.5073  143.5732 H   0  0  0  0  0  0  0  0  0  0  0  0  # atno 7974 bound_to 7965
  155.5493  140.3486  155.4465 H   0  0  0  0  0  0  0  0  0  0  0  0  # atno 8008 bound_to 7997
  156.0594  140.1336  156.9984 H   0  0  0  0  0  0  0  0  0  0  0  0  # atno 8009 bound_to 7997
  154.4472  140.0988  156.6480 H   0  0  0  0  0  0  0  0  0  0  0  0  # atno 8010 bound_to 7997
  139.6793  143.9609  152.2328 H   0  0  0  0  0  0  0  0  0  0  0  0  # atno 10167 bound_to 10162
  156.0956  130.6130  150.9022 H   0  0  0  0  0  0  0  0  0  0  0  0  # atno 10718 bound_to 10713
  153.8787  135.6824  153.4768 H   0  0  0  0  0  0  0  0  0  0  0  0  # atno 10763 bound_to 10752
  153.1246  135.4724  154.9249 H   0  0  0  0  0  0  0  0  0  0  0  0  # atno 10764 bound_to 10752
  154.7679  135.3230  154.8200 H   0  0  0  0  0  0  0  0  0  0  0  0  # atno 10765 bound_to 10752
  140.2726  134.7814  157.3689 H   0  0  0  0  0  0  0  0  0  0  0  0  # atno 11005 bound_to 11000
  145.5645  139.1480  143.3323 LP  0  0  0  0  0  0  0  0  0  0  0  0  # atno 17320 bound_to 7965
  146.2243  140.5780  142.9003 LP  0  0  0  0  0  0  0  0  0  0  0  0  # atno 17321 bound_to 7965
  139.9395  144.6691  150.8281 LP  0  0  0  0  0  0  0  0  0  0  0  0  # atno 17342 bound_to 10162
  140.7646  143.3254  151.2527 LP  0  0  0  0  0  0  0  0  0  0  0  0  # atno 17343 bound_to 10162
  157.6116  131.0936  150.8784 LP  0  0  0  0  0  0  0  0  0  0  0  0  # atno 17370 bound_to 10713
  156.8923  130.5217  149.5286 LP  0  0  0  0  0  0  0  0  0  0  0  0  # atno 17371 bound_to 10713
  140.1358  134.5035  155.8069 LP  0  0  0  0  0  0  0  0  0  0  0  0  # atno 17394 bound_to 11000
  141.2175  133.6807  156.7122 LP  0  0  0  0  0  0  0  0  0  0  0  0  # atno 17395 bound_to 11000

$$$$
