AV-unprocessed.smi:16|AV-procd|sdf|92|dock9
  -GOLD-   2262015233D 1   1.00000     0.00000
 Structure written by MMmdl.
 60 64  0  0  0  0  0  0  0  0  2 V2000
  151.8806  144.9487  158.2317 C   0  0  0  0  0  0  0  0  0  0  0  0
  150.8673  144.2394  159.1423 C   0  0  0  0  0  0  0  0  0  0  0  0
  151.4685  143.1092  159.8950 N   0  3  2  0  0  0  0  0  0  0  0  0
  152.3752  143.5785  160.9758 C   0  0  0  0  0  0  0  0  0  0  0  0
  152.9009  142.4041  161.8175 C   0  0  0  0  0  0  0  0  0  0  0  0
  153.5997  141.3752  160.9225 C   0  0  1  0  0  0  0  0  0  0  0  0
  154.0313  140.2688  161.7057 O   0  0  0  0  0  0  0  0  0  0  0  0
  154.7516  139.3224  160.9226 C   0  0  0  0  0  0  0  0  0  0  0  0
  153.8421  138.7766  159.8094 C   0  0  0  0  0  0  0  0  0  0  0  0
  153.2860  139.8680  159.0151 N   0  0  0  0  0  0  0  0  0  0  0  0
  152.5847  139.3842  157.9644 C   0  0  0  0  0  0  0  0  0  0  0  0
  152.9706  139.6705  156.6926 N   0  0  0  0  0  0  0  0  0  0  0  0
  152.2709  139.1897  155.6600 C   0  0  0  0  0  0  0  0  0  0  0  0
  151.1788  138.4219  155.6766 N   0  0  0  0  0  0  0  0  0  0  0  0
  150.7873  138.1423  156.9532 C   0  0  0  0  0  0  0  0  0  0  0  0
  151.4305  138.5791  158.1441 C   0  0  0  0  0  0  0  0  0  0  0  0
  150.7639  138.0864  159.2577 N   0  0  0  0  0  0  0  0  0  0  0  0
  149.7817  137.3900  158.7528 C   0  0  0  0  0  0  0  0  0  0  0  0
  149.7059  137.3908  157.3772 N   0  0  0  0  0  0  0  0  0  0  0  0
  148.7609  136.6831  156.5649 C   0  0  0  0  0  0  0  0  0  0  0  0
  148.4936  135.1928  156.7855 C   0  0  0  0  0  0  0  0  0  0  0  0
  148.2265  135.0251  155.2722 C   0  0  0  0  0  0  0  0  0  0  0  0
  148.8218  133.7620  154.6289 C   0  0  0  0  0  0  0  0  0  0  0  0
  149.0473  133.9506  153.2467 O   0  0  0  0  0  0  0  0  0  0  0  0
  146.7511  135.1644  154.8459 C   0  0  0  0  0  0  0  0  0  0  0  0
  146.6202  135.2017  153.4392 O   0  0  0  0  0  0  0  0  0  0  0  0
  149.0792  136.3036  155.1168 C   0  0  0  0  0  0  0  0  0  0  0  0
  152.6223  140.8865  159.8342 C   0  0  2  0  0  0  0  0  0  0  0  0
  152.1279  142.1045  159.0168 C   0  0  0  0  0  0  0  0  0  0  0  0
  154.4705  141.8462  160.4612 H   0  0  0  0  0  0  0  0  0  0  0  0
  151.7645  140.4226  160.3246 H   0  0  0  0  0  0  0  0  0  0  0  0
  151.3834  145.7046  157.6234 H   0  0  0  0  0  0  0  0  0  0  0  0
  152.3609  144.2437  157.5525 H   0  0  0  0  0  0  0  0  0  0  0  0
  152.6607  145.4557  158.7987 H   0  0  0  0  0  0  0  0  0  0  0  0
  150.4064  144.9476  159.8323 H   0  0  0  0  0  0  0  0  0  0  0  0
  150.0646  143.8606  158.5083 H   0  0  0  0  0  0  0  0  0  0  0  0
  153.2090  144.1290  160.5369 H   0  0  0  0  0  0  0  0  0  0  0  0
  151.8439  144.2736  161.6273 H   0  0  0  0  0  0  0  0  0  0  0  0
  153.5933  142.7702  162.5763 H   0  0  0  0  0  0  0  0  0  0  0  0
  152.0747  141.9323  162.3513 H   0  0  0  0  0  0  0  0  0  0  0  0
  155.6466  139.7842  160.5025 H   0  0  0  0  0  0  0  0  0  0  0  0
  155.0856  138.5091  161.5670 H   0  0  0  0  0  0  0  0  0  0  0  0
  154.4102  138.0995  159.1695 H   0  0  0  0  0  0  0  0  0  0  0  0
  153.0299  138.1959  160.2496 H   0  0  0  0  0  0  0  0  0  0  0  0
  152.6371  139.4591  154.6801 H   0  0  0  0  0  0  0  0  0  0  0  0
  149.0791  136.8565  159.3767 H   0  0  0  0  0  0  0  0  0  0  0  0
  147.8319  137.2531  156.6194 H   0  0  0  0  0  0  0  0  0  0  0  0
  149.3824  134.6579  157.1254 H   0  0  0  0  0  0  0  0  0  0  0  0
  147.6423  134.9814  157.4333 H   0  0  0  0  0  0  0  0  0  0  0  0
  149.7768  133.5069  155.0891 H   0  0  0  0  0  0  0  0  0  0  0  0
  148.1753  132.8954  154.7689 H   0  0  0  0  0  0  0  0  0  0  0  0
  148.6484  134.7666  152.9858 H   0  0  0  0  0  0  0  0  0  0  0  0
  146.1543  134.3292  155.2127 H   0  0  0  0  0  0  0  0  0  0  0  0
  146.2978  136.0636  155.2638 H   0  0  0  0  0  0  0  0  0  0  0  0
  147.3666  135.6567  153.0803 H   0  0  0  0  0  0  0  0  0  0  0  0
  148.7124  137.0116  154.3731 H   0  0  0  0  0  0  0  0  0  0  0  0
  150.1384  136.0887  154.9626 H   0  0  0  0  0  0  0  0  0  0  0  0
  151.4208  141.7779  158.2561 H   0  0  0  0  0  0  0  0  0  0  0  0
  152.9629  142.5696  158.4900 H   0  0  0  0  0  0  0  0  0  0  0  0
  150.7045  142.6369  160.3572 H   0  0  0  0  0  0  0  0  0  0  0  0
  1  2  1  0  0  0  0
  1 32  1  0  0  0  0
  1 33  1  0  0  0  0
  1 34  1  0  0  0  0
  2  3  1  0  0  0  0
  2 35  1  0  0  0  0
  2 36  1  0  0  0  0
  3 29  1  0  0  0  0
  3  4  1  0  0  0  0
  3 60  1  0  0  0  0
  4  5  1  0  0  0  0
  4 37  1  0  0  0  0
  4 38  1  0  0  0  0
  5  6  1  0  0  0  0
  5 39  1  0  0  0  0
  5 40  1  0  0  0  0
  6 30  1  0  0  0  0
  6 28  1  0  0  0  0
  6  7  1  0  0  0  0
  7  8  1  0  0  0  0
  8  9  1  0  0  0  0
  8 41  1  0  0  0  0
  8 42  1  0  0  0  0
  9 10  1  0  0  0  0
  9 43  1  0  0  0  0
  9 44  1  0  0  0  0
 10 11  1  0  0  0  0
 10 28  1  0  0  0  0
 11 16  1  0  0  0  0
 11 12  2  0  0  0  0
 12 13  1  0  0  0  0
 13 14  2  0  0  0  0
 13 45  1  0  0  0  0
 14 15  1  0  0  0  0
 15 19  1  0  0  0  0
 15 16  2  0  0  0  0
 16 17  1  0  0  0  0
 17 18  2  0  0  0  0
 18 19  1  0  0  0  0
 18 46  1  0  0  0  0
 19 20  1  0  0  0  0
 20 27  1  0  0  0  0
 20 21  1  0  0  0  0
 20 47  1  0  0  0  0
 21 22  1  0  0  0  0
 21 48  1  0  0  0  0
 21 49  1  0  0  0  0
 22 23  1  0  0  0  0
 22 25  1  0  0  0  0
 22 27  1  0  0  0  0
 23 24  1  0  0  0  0
 23 50  1  0  0  0  0
 23 51  1  0  0  0  0
 24 52  1  0  0  0  0
 25 26  1  0  0  0  0
 25 53  1  0  0  0  0
 25 54  1  0  0  0  0
 26 55  1  0  0  0  0
 27 56  1  0  0  0  0
 27 57  1  0  0  0  0
 28 31  1  0  0  0  0
 28 29  1  0  0  0  0
 29 58  1  0  0  0  0
 29 59  1  0  0  0  0
M  CHG  1   3   1
M  END
> <s_m_source_file>
AV-unprocessed.smi

> <i_m_source_file_index>
16

> <i_lp_mmshare_version>
43012

> <i_f3d_flags>
0

> <s_epik_input>
W0NIM11bQ0gyXU4oW0NIMl1bQ0gyXTEpW0NIMl1bQ0BASF0oW0NAQEhdMTIpTihbQ0gyXVtDSDJdTzIpYyhuW2NIXW4zKWMoYzM0KW5bY0hdbjRbQ0hdKFtDSDJdNSlbQ0gyXUM1KFtDSDJdW09IXSlbQ0gyXVtPSF0=

> <s_epik_cmdline>
J2VwaWtfcHl0aG9uJywgJy1waCcsICc3LjAnLCAnLXRuJywgJzgnLCAnLW1hJywgJzIwMCcsICctbWV0YWxfYmluZGluZycsICctaW1hZScsICc8aW5maWxlLm1hZT4nLCAnLW9tYWUnLCAnPG91dGZpbGUubWFlPic=

> <r_lp_tautomer_probability>
1

> <r_epik_Ionization_Penalty>
0.0135603

> <r_epik_Ionization_Penalty_Charging>
0.0131385

> <r_epik_Ionization_Penalty_Neutral>
0.000421734

> <r_epik_State_Penalty>
0.0102091

> <r_epik_Charging_Adjusted_Penalty>
0.0233476

> <i_epik_Tot_Q>
1

> <i_epik_Tot_abs_Q>
1

> <r_epik_Metal_State_Penalty>
0.0103746

> <b_epik_Metal_Only>
0

> <s_lp_Force_Field>
OPLS_2005

> <r_lp_Energy>
53.4104

> <b_lp_Chiralities_Consistent>
1

> <s_lp_Variant>
AV-unprocessed.smi:16-6

> <Gold.Version>
5.8.1

> <Gold.Id.Protein>
6NUR|6NUR_protein|mol2

> <Gold.PLP.Fitness>
47.5158

> <Gold.PLP.PLP>
-40.3911

> <Gold.PLP.part.hbond>
-3.2976

> <Gold.PLP.part.metal>
0.0000

> <Gold.PLP.part.buried>
-5.0606

> <Gold.PLP.part.nonpolar>
-31.6943

> <Gold.PLP.part.repulsive>
0.0788

> <Gold.PLP.ligand.clash>
0.0000

> <Gold.PLP.ligand.torsion>
0.7581

> <Gold.PLP.Chemscore.Hbond>
2.6728

> <Gold.PLP.Chemscore.CHOScore>
0.0000

> <Gold.PLP.Chemscore.Metal>
0.0000

> <Gold.Chemscore.Hbonds>
donor molecule, donor type, donor heavy atom, donor atom, acceptor molecule, acceptor atom, score
      L1  H    24    52       P1  7948  0.78
      L1  H    26    55       P1  7948  0.89
      P1  H  7997  8009       L1    12  0.93

> <Gold.PLP.Chemscore.Internal.Correction>
0.6226

> <Gold.Rescore>
     Score         DG    S(hbond)    S(metal)    S(lipo)     H(rot)  DE(clash)    DE(int)     intcor
     14.90     -16.56       2.24        0.00     103.57       3.33       0.11       1.56       ----

> <Gold.Chemscore.Fitness>
14.8964

> <Gold.Chemscore.DG>
-16.5648

> <Gold.Chemscore.ZeroCoef>
-5.4800

> <Gold.Chemscore.Hbond>
2.2392

> <Gold.Chemscore.Metal>
0.0000

> <Gold.Chemscore.Lipo>
103.5744

> <Gold.Chemscore.Internal_Hbond>
0.0000

> <Gold.Chemscore.DEClash>
0.1053

> <Gold.Chemscore.DEInternal>
1.5631

> <Gold.Chemscore.Rot>
3.3251

> <Gold.Chemscore.Internal.Correction>
   9.000000E+99

> <Gold.Chemscore.Hbonds>
donor molecule, donor type, donor heavy atom, donor atom, acceptor molecule, acceptor atom, score
      L1  H    24    52       P1  7948  0.23
      L1  H    26    55       P1  7948  0.87
      P1  H  7997  8009       L1    12  0.60

> <Gold.Chemscore.Hbond.Weighted>
-7.4788

> <Gold.Chemscore.Metal.Weighted>
-0.0000

> <Gold.Chemscore.Lipo.Weighted>
-12.1182

> <Gold.Chemscore.Internal_Hbond.Weighted>
0.0000

> <Gold.Chemscore.DEClash.Weighted>
0.1053

> <Gold.Chemscore.DEInternal.Weighted>
1.5631

> <Gold.Chemscore.Rot.Weighted>
8.5122

> <Gold.Chemscore.Internal.Correction.Weighted>
   9.000000E+99

> <Gold.Protein.RotatedTorsions>
[ 6907 6896 6895 6894 ] final  132.50 input  -60.11 | X-H torsion
[ 7974 7965 7964 7962 ] final  -42.27 input  175.53 | X-H torsion
[ 8008 7997 7996 7995 ] final -151.53 input   59.86 | X-H torsion
[ 10167 10162 10161 10158 ] final    1.16 input  -65.29 | X-H torsion
[ 10718 10713 10712 10709 ] final   73.41 input   66.30 | X-H torsion
[ 10763 10752 10751 10750 ] final  116.01 input  -60.55 | X-H torsion
[ 11005 11000 10999 10996 ] final  153.67 input  -57.11 | X-H torsion

> <Gold.Protein.ActiveResidues>
 VAL166  LYS551  ARG553  GLY616  TRP617  ASP618  TYR619  PRO620  LYS621  CYS622 
 ASP623  PHE694  ASN695  SER759  ASP760  ASP761  ALA762  ILE779  LEU786  VAL792 
 PHE793  MET794  SER795  GLU796  ALA797  LYS798  CYS799  TRP800  GLU811  SER814 

> <Gold.Protein.RotatedAtoms>
  152.3317  133.5966  159.5813 H   0  0  0  0  0  0  0  0  0  0  0  0  # atno 6907 bound_to 6896
  150.7427  133.9858  159.3600 H   0  0  0  0  0  0  0  0  0  0  0  0  # atno 6908 bound_to 6896
  151.7732  135.0781  160.0414 H   0  0  0  0  0  0  0  0  0  0  0  0  # atno 6909 bound_to 6896
  146.0131  140.6940  142.9214 H   0  0  0  0  0  0  0  0  0  0  0  0  # atno 7974 bound_to 7965
  155.6409  140.0701  157.2619 H   0  0  0  0  0  0  0  0  0  0  0  0  # atno 8008 bound_to 7997
  154.4184  140.1750  156.1621 H   0  0  0  0  0  0  0  0  0  0  0  0  # atno 8009 bound_to 7997
  155.9856  140.3350  155.6708 H   0  0  0  0  0  0  0  0  0  0  0  0  # atno 8010 bound_to 7997
  140.6696  143.7086  150.7895 H   0  0  0  0  0  0  0  0  0  0  0  0  # atno 10167 bound_to 10162
  157.6546  130.9627  150.1066 H   0  0  0  0  0  0  0  0  0  0  0  0  # atno 10718 bound_to 10713
  153.5308  135.3578  155.2675 H   0  0  0  0  0  0  0  0  0  0  0  0  # atno 10763 bound_to 10752
  154.8727  135.4068  154.3154 H   0  0  0  0  0  0  0  0  0  0  0  0  # atno 10764 bound_to 10752
  153.3842  135.7069  153.6610 H   0  0  0  0  0  0  0  0  0  0  0  0  # atno 10765 bound_to 10752
  140.1419  134.8733  157.2342 H   0  0  0  0  0  0  0  0  0  0  0  0  # atno 11005 bound_to 11000
  144.6961  140.3434  143.7195 LP  0  0  0  0  0  0  0  0  0  0  0  0  # atno 17320 bound_to 7965
  145.7310  139.1736  143.2430 LP  0  0  0  0  0  0  0  0  0  0  0  0  # atno 17321 bound_to 7965
  140.0769  143.5006  152.2551 LP  0  0  0  0  0  0  0  0  0  0  0  0  # atno 17342 bound_to 10162
  139.5958  144.7566  151.3289 LP  0  0  0  0  0  0  0  0  0  0  0  0  # atno 17343 bound_to 10162
  156.1974  130.3658  149.8832 LP  0  0  0  0  0  0  0  0  0  0  0  0  # atno 17370 bound_to 10713
  156.6745  130.8833  151.3567 LP  0  0  0  0  0  0  0  0  0  0  0  0  # atno 17371 bound_to 10713
  140.2711  134.3459  155.7373 LP  0  0  0  0  0  0  0  0  0  0  0  0  # atno 17394 bound_to 11000
  141.2187  133.7424  156.9224 LP  0  0  0  0  0  0  0  0  0  0  0  0  # atno 17395 bound_to 11000

$$$$
