AV-unprocessed.smi:1567|AV-procd|sdf|6307|dock1
  -GOLD-   22720 6503D 1   1.00000     0.00000
 Structure written by MMmdl.
 42 44  0  0  0  0  0  0  0  0  1 V2000
  153.7110  135.9036  157.0348 O   0  0  0  0  0  0  0  0  0  0  0  0
  153.2585  137.0887  157.6522 C   0  0  0  0  0  0  0  0  0  0  0  0
  151.9630  137.5634  156.9771 C   0  0  0  0  0  0  0  0  0  0  0  0
  152.1848  138.2913  155.6384 C   0  0  0  0  0  0  0  0  0  0  0  0
  150.9478  138.9539  155.0963 C   0  0  0  0  0  0  0  0  0  0  0  0
  150.0763  138.2784  154.3453 N   0  0  0  0  0  0  0  0  0  0  0  0
  149.1051  139.2211  154.0749 C   0  0  0  0  0  0  0  0  0  0  0  0
  147.9207  139.1254  153.3099 C   0  0  0  0  0  0  0  0  0  0  0  0
  147.0663  140.2393  153.1751 C   0  0  0  0  0  0  0  0  0  0  0  0
  147.3830  141.4611  153.8030 C   0  0  0  0  0  0  0  0  0  0  0  0
  148.5577  141.5767  154.5707 C   0  0  0  0  0  0  0  0  0  0  0  0
  149.4084  140.4621  154.7012 C   0  0  0  0  0  0  0  0  0  0  0  0
  150.6096  140.2420  155.3701 N   0  0  0  0  0  0  0  0  0  0  0  0
  151.3158  141.2173  156.1915 C   0  0  0  0  0  0  0  0  0  0  0  0
  150.4054  141.9039  157.2279 C   0  0  1  0  0  0  0  0  0  0  0  0
  149.4383  140.9870  157.7046 O   0  0  0  0  0  0  0  0  0  0  0  0
  151.2220  142.5237  158.3530 C   0  0  0  0  0  0  0  0  0  0  0  0
  151.1642  143.9150  158.5926 C   0  0  0  0  0  0  0  0  0  0  0  0
  151.9122  144.4893  159.6382 C   0  0  0  0  0  0  0  0  0  0  0  0
  151.8515  145.8236  159.8595 F   0  0  0  0  0  0  0  0  0  0  0  0
  152.7219  143.6765  160.4540 C   0  0  0  0  0  0  0  0  0  0  0  0
  152.7794  142.2886  160.2253 C   0  0  0  0  0  0  0  0  0  0  0  0
  152.0303  141.7115  159.1809 C   0  0  0  0  0  0  0  0  0  0  0  0
  152.0903  140.3727  158.9816 F   0  0  0  0  0  0  0  0  0  0  0  0
  154.5583  135.6830  157.3909 H   0  0  0  0  0  0  0  0  0  0  0  0
  153.0881  136.8859  158.7092 H   0  0  0  0  0  0  0  0  0  0  0  0
  154.0406  137.8452  157.5800 H   0  0  0  0  0  0  0  0  0  0  0  0
  151.2993  136.7119  156.8199 H   0  0  0  0  0  0  0  0  0  0  0  0
  151.4350  138.2337  157.6564 H   0  0  0  0  0  0  0  0  0  0  0  0
  152.9458  139.0612  155.7690 H   0  0  0  0  0  0  0  0  0  0  0  0
  152.5949  137.5843  154.9195 H   0  0  0  0  0  0  0  0  0  0  0  0
  147.6698  138.1934  152.8255 H   0  0  0  0  0  0  0  0  0  0  0  0
  146.1640  140.1558  152.5874 H   0  0  0  0  0  0  0  0  0  0  0  0
  146.7239  142.3101  153.6947 H   0  0  0  0  0  0  0  0  0  0  0  0
  148.8032  142.5125  155.0502 H   0  0  0  0  0  0  0  0  0  0  0  0
  152.1391  140.7116  156.6973 H   0  0  0  0  0  0  0  0  0  0  0  0
  151.7845  141.9544  155.5394 H   0  0  0  0  0  0  0  0  0  0  0  0
  149.8476  142.6967  156.7345 H   0  0  0  0  0  0  0  0  0  0  0  0
  148.9998  140.5995  156.9626 H   0  0  0  0  0  0  0  0  0  0  0  0
  150.5422  144.5478  157.9763 H   0  0  0  0  0  0  0  0  0  0  0  0
  153.2958  144.1166  161.2562 H   0  0  0  0  0  0  0  0  0  0  0  0
  153.3975  141.6647  160.8539 H   0  0  0  0  0  0  0  0  0  0  0  0
  1  2  1  0  0  0  0
  1 25  1  0  0  0  0
  2  3  1  0  0  0  0
  2 26  1  0  0  0  0
  2 27  1  0  0  0  0
  3  4  1  0  0  0  0
  3 28  1  0  0  0  0
  3 29  1  0  0  0  0
  4  5  1  0  0  0  0
  4 30  1  0  0  0  0
  4 31  1  0  0  0  0
  5 13  1  0  0  0  0
  5  6  2  0  0  0  0
  6  7  1  0  0  0  0
  7 12  2  0  0  0  0
  7  8  1  0  0  0  0
  8  9  2  0  0  0  0
  8 32  1  0  0  0  0
  9 10  1  0  0  0  0
  9 33  1  0  0  0  0
 10 11  2  0  0  0  0
 10 34  1  0  0  0  0
 11 12  1  0  0  0  0
 11 35  1  0  0  0  0
 12 13  1  0  0  0  0
 13 14  1  0  0  0  0
 14 15  1  0  0  0  0
 14 36  1  0  0  0  0
 14 37  1  0  0  0  0
 15 16  1  0  0  0  0
 15 17  1  0  0  0  0
 15 38  1  0  0  0  0
 16 39  1  0  0  0  0
 17 23  1  0  0  0  0
 17 18  2  0  0  0  0
 18 19  1  0  0  0  0
 18 40  1  0  0  0  0
 19 20  1  0  0  0  0
 19 21  2  0  0  0  0
 21 22  1  0  0  0  0
 21 41  1  0  0  0  0
 22 23  2  0  0  0  0
 22 42  1  0  0  0  0
 23 24  1  0  0  0  0
M  END
> <s_m_source_file>
AV-unprocessed.smi

> <i_m_source_file_index>
1567

> <i_lp_mmshare_version>
43012

> <i_f3d_flags>
0

> <s_epik_input>
W09IXVtDSDJdW0NIMl1bQ0gyXWMobjEpbihjKGMxMilbY0hdW2NIXVtjSF1bY0hdMilbQ0gyXVtDQEhdKFtPSF0pYzNbY0hdYyhGKVtjSF1bY0hdYzNG

> <s_epik_cmdline>
J2VwaWtfcHl0aG9uJywgJy1waCcsICc3LjAnLCAnLXRuJywgJzgnLCAnLW1hJywgJzIwMCcsICctbWV0YWxfYmluZGluZycsICctaW1hZScsICc8aW5maWxlLm1hZT4nLCAnLW9tYWUnLCAnPG91dGZpbGUubWFlPic=

> <r_epik_Ionization_Penalty>
0.182562

> <r_epik_Ionization_Penalty_Charging>
0

> <r_epik_Ionization_Penalty_Neutral>
0.182562

> <r_epik_State_Penalty>
0.172086

> <r_epik_Charging_Adjusted_Penalty>
0.172086

> <i_epik_Tot_Q>
0

> <i_epik_Tot_abs_Q>
0

> <r_epik_Metal_State_Penalty>
0.000199649

> <b_epik_Metal_Only>
0

> <s_lp_Force_Field>
OPLS_2005

> <r_lp_Energy>
10.1612

> <b_lp_Chiralities_Consistent>
1

> <s_lp_Variant>
AV-unprocessed.smi:1567-2

> <Gold.Version>
5.8.1

> <Gold.Id.Protein>
6NUR|6NUR_protein|mol2

> <Gold.PLP.Fitness>
53.9309

> <Gold.PLP.PLP>
-52.3854

> <Gold.PLP.part.hbond>
-0.9105

> <Gold.PLP.part.metal>
0.0000

> <Gold.PLP.part.buried>
-2.9207

> <Gold.PLP.part.nonpolar>
-48.4905

> <Gold.PLP.part.repulsive>
0.2295

> <Gold.PLP.ligand.clash>
0.0000

> <Gold.PLP.ligand.torsion>
0.8107

> <Gold.PLP.Chemscore.Hbond>
1.0000

> <Gold.PLP.Chemscore.CHOScore>
0.0000

> <Gold.PLP.Chemscore.Metal>
0.0000

> <Gold.Chemscore.Hbonds>
donor molecule, donor type, donor heavy atom, donor atom, acceptor molecule, acceptor atom, score
      P1  H 10752 10763       L1     1  1.00

> <Gold.PLP.Chemscore.Internal.Correction>
0.1669

> <Gold.Rescore>
     Score         DG    S(hbond)    S(metal)    S(lipo)     H(rot)  DE(clash)    DE(int)     intcor
     13.34     -15.68       0.85        0.00     133.50       3.23       0.24       2.10       ----

> <Gold.Chemscore.Fitness>
13.3420

> <Gold.Chemscore.DG>
-15.6777

> <Gold.Chemscore.ZeroCoef>
-5.4800

> <Gold.Chemscore.Hbond>
0.8509

> <Gold.Chemscore.Metal>
0.0000

> <Gold.Chemscore.Lipo>
133.5020

> <Gold.Chemscore.Internal_Hbond>
0.0000

> <Gold.Chemscore.DEClash>
0.2374

> <Gold.Chemscore.DEInternal>
2.0983

> <Gold.Chemscore.Rot>
3.2281

> <Gold.Chemscore.Internal.Correction>
   9.000000E+99

> <Gold.Chemscore.Hbonds>
donor molecule, donor type, donor heavy atom, donor atom, acceptor molecule, acceptor atom, score
      P1  H 10752 10763       L1     1  0.77

> <Gold.Chemscore.Hbond.Weighted>
-2.8418

> <Gold.Chemscore.Metal.Weighted>
-0.0000

> <Gold.Chemscore.Lipo.Weighted>
-15.6197

> <Gold.Chemscore.Internal_Hbond.Weighted>
0.0000

> <Gold.Chemscore.DEClash.Weighted>
0.2374

> <Gold.Chemscore.DEInternal.Weighted>
2.0983

> <Gold.Chemscore.Rot.Weighted>
8.2639

> <Gold.Chemscore.Internal.Correction.Weighted>
   9.000000E+99

> <Gold.Protein.RotatedTorsions>
[ 6907 6896 6895 6894 ] final  -50.14 input  -60.11 | X-H torsion
[ 7974 7965 7964 7962 ] final -160.89 input  175.53 | X-H torsion
[ 8008 7997 7996 7995 ] final  -32.44 input   59.86 | X-H torsion
[ 10167 10162 10161 10158 ] final  -87.75 input  -65.29 | X-H torsion
[ 10718 10713 10712 10709 ] final   12.19 input   66.30 | X-H torsion
[ 10763 10752 10751 10750 ] final  117.51 input  -60.55 | X-H torsion
[ 11005 11000 10999 10996 ] final   60.19 input  -57.11 | X-H torsion

> <Gold.Protein.ActiveResidues>
 VAL166  LYS551  ARG553  GLY616  TRP617  ASP618  TYR619  PRO620  LYS621  CYS622 
 ASP623  PHE694  ASN695  SER759  ASP760  ASP761  ALA762  ILE779  LEU786  VAL792 
 PHE793  MET794  SER795  GLU796  ALA797  LYS798  CYS799  TRP800  GLU811  SER814 

> <Gold.Protein.RotatedAtoms>
  150.8736  134.8114  159.7172 H   0  0  0  0  0  0  0  0  0  0  0  0  # atno 6907 bound_to 6896
  152.4731  134.4908  159.9704 H   0  0  0  0  0  0  0  0  0  0  0  0  # atno 6908 bound_to 6896
  151.4992  133.3469  159.2901 H   0  0  0  0  0  0  0  0  0  0  0  0  # atno 6909 bound_to 6896
  144.7411  140.3477  143.6122 H   0  0  0  0  0  0  0  0  0  0  0  0  # atno 7974 bound_to 7965
  154.4180  140.1737  156.1727 H   0  0  0  0  0  0  0  0  0  0  0  0  # atno 8008 bound_to 7997
  155.9747  140.3382  155.6583 H   0  0  0  0  0  0  0  0  0  0  0  0  # atno 8009 bound_to 7997
  155.6579  140.0697  157.2555 H   0  0  0  0  0  0  0  0  0  0  0  0  # atno 8010 bound_to 7997
  140.3814  143.2747  151.9379 H   0  0  0  0  0  0  0  0  0  0  0  0  # atno 10167 bound_to 10162
  157.0065  130.6100  149.5703 H   0  0  0  0  0  0  0  0  0  0  0  0  # atno 10718 bound_to 10713
  153.5535  135.3535  155.2769 H   0  0  0  0  0  0  0  0  0  0  0  0  # atno 10763 bound_to 10752
  154.8704  135.4119  154.2910 H   0  0  0  0  0  0  0  0  0  0  0  0  # atno 10764 bound_to 10752
  153.3641  135.7061  153.6757 H   0  0  0  0  0  0  0  0  0  0  0  0  # atno 10765 bound_to 10752
  140.0250  134.6097  155.9586 H   0  0  0  0  0  0  0  0  0  0  0  0  # atno 11005 bound_to 11000
  145.7309  139.1736  143.2431 LP  0  0  0  0  0  0  0  0  0  0  0  0  # atno 17320 bound_to 7965
  146.1207  140.7312  142.9459 LP  0  0  0  0  0  0  0  0  0  0  0  0  # atno 17321 bound_to 7965
  139.4795  144.5815  151.7925 LP  0  0  0  0  0  0  0  0  0  0  0  0  # atno 17342 bound_to 10162
  140.4933  144.1277  150.5955 LP  0  0  0  0  0  0  0  0  0  0  0  0  # atno 17343 bound_to 10162
  156.0151  130.5245  150.8111 LP  0  0  0  0  0  0  0  0  0  0  0  0  # atno 17370 bound_to 10713
  157.5351  131.0938  150.9902 LP  0  0  0  0  0  0  0  0  0  0  0  0  # atno 17371 bound_to 10713
  141.1797  133.6544  156.4970 LP  0  0  0  0  0  0  0  0  0  0  0  0  # atno 17394 bound_to 11000
  140.4322  134.7091  157.4948 LP  0  0  0  0  0  0  0  0  0  0  0  0  # atno 17395 bound_to 11000

$$$$
