AV-unprocessed.smi:1626|AV-procd|sdf|6515|dock2
  -GOLD-   22720 7183D 1   1.00000     0.00000
 Structure written by MMmdl.
 47 49  0  0  0  0  0  0  0  0  1 V2000
  152.8514  143.1381  161.8973 C   0  0  0  0  0  0  0  0  0  0  0  0
  152.3668  142.7846  160.5021 C   0  0  0  0  0  0  0  0  0  0  0  0
  152.3725  141.4311  160.0951 C   0  0  0  0  0  0  0  0  0  0  0  0
  151.9303  141.0606  158.8062 C   0  0  0  0  0  0  0  0  0  0  0  0
  151.8505  139.8158  158.2055 N   0  0  0  0  0  0  0  0  0  0  0  0
  151.3600  140.1260  157.0087 C   0  0  0  0  0  0  0  0  0  0  0  0
  151.1167  141.4277  156.7616 N   0  0  0  0  0  0  0  0  0  0  0  0
  150.5835  142.0084  155.5411 C   0  0  0  0  0  0  0  0  0  0  0  0
  149.1909  141.4516  155.1744 C   0  0  1  0  0  0  0  0  0  0  0  0
  148.6245  142.2719  154.1704 O   0  0  0  0  0  0  0  0  0  0  0  0
  149.1698  140.0062  154.6278 C   0  0  0  0  0  0  0  0  0  0  0  0
  147.8897  139.5447  154.0814 N   0  0  0  0  0  0  0  0  0  0  0  0
  147.6513  138.1211  154.3490 C   0  0  0  0  0  0  0  0  0  0  0  0
  146.2770  137.6476  153.8461 C   0  0  0  0  0  0  0  0  0  0  0  0
  146.1439  137.9097  152.3379 C   0  0  0  0  0  0  0  0  0  0  0  0
  144.8358  137.5989  151.9059 O   0  0  0  0  0  0  0  0  0  0  0  0
  146.4624  139.3820  152.0340 C   0  0  0  0  0  0  0  0  0  0  0  0
  147.8252  139.7696  152.6343 C   0  0  0  0  0  0  0  0  0  0  0  0
  151.4783  142.0896  157.9292 C   0  0  0  0  0  0  0  0  0  0  0  0
  151.4687  143.4395  158.3219 C   0  0  0  0  0  0  0  0  0  0  0  0
  151.9157  143.7925  159.6122 C   0  0  0  0  0  0  0  0  0  0  0  0
  151.9062  145.2537  160.0246 C   0  0  0  0  0  0  0  0  0  0  0  0
  153.0857  142.2441  162.4759 H   0  0  0  0  0  0  0  0  0  0  0  0
  152.0873  143.6948  162.4404 H   0  0  0  0  0  0  0  0  0  0  0  0
  153.7527  143.7490  161.8429 H   0  0  0  0  0  0  0  0  0  0  0  0
  152.7181  140.6634  160.7718 H   0  0  0  0  0  0  0  0  0  0  0  0
  151.1706  139.3639  156.2668 H   0  0  0  0  0  0  0  0  0  0  0  0
  150.5466  143.0928  155.6558 H   0  0  0  0  0  0  0  0  0  0  0  0
  151.3005  141.7913  154.7512 H   0  0  0  0  0  0  0  0  0  0  0  0
  148.5365  141.5123  156.0451 H   0  0  0  0  0  0  0  0  0  0  0  0
  148.7315  143.1749  154.4280 H   0  0  0  0  0  0  0  0  0  0  0  0
  149.9119  139.9789  153.8282 H   0  0  0  0  0  0  0  0  0  0  0  0
  149.5387  139.3051  155.3782 H   0  0  0  0  0  0  0  0  0  0  0  0
  148.4323  137.5225  153.8776 H   0  0  0  0  0  0  0  0  0  0  0  0
  147.7152  137.9077  155.4115 H   0  0  0  0  0  0  0  0  0  0  0  0
  146.1464  136.5860  154.0582 H   0  0  0  0  0  0  0  0  0  0  0  0
  145.4922  138.1754  154.3906 H   0  0  0  0  0  0  0  0  0  0  0  0
  146.8420  137.2699  151.7962 H   0  0  0  0  0  0  0  0  0  0  0  0
  144.6703  138.0561  151.0955 H   0  0  0  0  0  0  0  0  0  0  0  0
  146.4646  139.5538  150.9571 H   0  0  0  0  0  0  0  0  0  0  0  0
  145.6871  140.0262  152.4518 H   0  0  0  0  0  0  0  0  0  0  0  0
  148.0080  140.8228  152.4173 H   0  0  0  0  0  0  0  0  0  0  0  0
  148.6183  139.2100  152.1356 H   0  0  0  0  0  0  0  0  0  0  0  0
  151.1215  144.1964  157.6337 H   0  0  0  0  0  0  0  0  0  0  0  0
  151.5747  145.8952  159.2077 H   0  0  0  0  0  0  0  0  0  0  0  0
  152.9059  145.5754  160.3168 H   0  0  0  0  0  0  0  0  0  0  0  0
  151.2316  145.4081  160.8670 H   0  0  0  0  0  0  0  0  0  0  0  0
  1  2  1  0  0  0  0
  1 23  1  0  0  0  0
  1 24  1  0  0  0  0
  1 25  1  0  0  0  0
  2 21  1  0  0  0  0
  2  3  2  0  0  0  0
  3  4  1  0  0  0  0
  3 26  1  0  0  0  0
  4 19  2  0  0  0  0
  4  5  1  0  0  0  0
  5  6  2  0  0  0  0
  6  7  1  0  0  0  0
  6 27  1  0  0  0  0
  7  8  1  0  0  0  0
  7 19  1  0  0  0  0
  8  9  1  0  0  0  0
  8 28  1  0  0  0  0
  8 29  1  0  0  0  0
  9 10  1  0  0  0  0
  9 11  1  0  0  0  0
  9 30  1  0  0  0  0
 10 31  1  0  0  0  0
 11 12  1  0  0  0  0
 11 32  1  0  0  0  0
 11 33  1  0  0  0  0
 12 18  1  0  0  0  0
 12 13  1  0  0  0  0
 13 14  1  0  0  0  0
 13 34  1  0  0  0  0
 13 35  1  0  0  0  0
 14 15  1  0  0  0  0
 14 36  1  0  0  0  0
 14 37  1  0  0  0  0
 15 16  1  0  0  0  0
 15 17  1  0  0  0  0
 15 38  1  0  0  0  0
 16 39  1  0  0  0  0
 17 18  1  0  0  0  0
 17 40  1  0  0  0  0
 17 41  1  0  0  0  0
 18 42  1  0  0  0  0
 18 43  1  0  0  0  0
 19 20  1  0  0  0  0
 20 21  2  0  0  0  0
 20 44  1  0  0  0  0
 21 22  1  0  0  0  0
 22 45  1  0  0  0  0
 22 46  1  0  0  0  0
 22 47  1  0  0  0  0
M  END
> <s_m_source_file>
AV-unprocessed.smi

> <i_m_source_file_index>
1626

> <i_lp_mmshare_version>
43012

> <i_f3d_flags>
0

> <s_epik_input>
W0NIM11jKFtjSF0xKWMoW0NIM10pW2NIXWMoYzEyKW4oW2NIXW4yKVtDSDJdW0NASF0oW09IXSlbQ0gyXU4zW0NIMl1bQ0gyXVtDSF0oW09IXSlbQ0gyXVtDSDJdMw==

> <s_epik_cmdline>
J2VwaWtfcHl0aG9uJywgJy1waCcsICc3LjAnLCAnLXRuJywgJzgnLCAnLW1hJywgJzIwMCcsICctbWV0YWxfYmluZGluZycsICctaW1hZScsICc8aW5maWxlLm1hZT4nLCAnLW9tYWUnLCAnPG91dGZpbGUubWFlPic=

> <r_epik_Ionization_Penalty>
2.14395

> <r_epik_Ionization_Penalty_Charging>
0

> <r_epik_Ionization_Penalty_Neutral>
2.14395

> <r_epik_State_Penalty>
2.24477

> <r_epik_Charging_Adjusted_Penalty>
2.24477

> <i_epik_Tot_Q>
0

> <i_epik_Tot_abs_Q>
0

> <r_epik_Metal_State_Penalty>
2.17429

> <b_epik_Metal_Only>
0

> <s_lp_Force_Field>
OPLS_2005

> <r_lp_Energy>
31.4526

> <b_lp_Chiralities_Consistent>
1

> <s_lp_Variant>
AV-unprocessed.smi:1626-10

> <Gold.Version>
5.8.1

> <Gold.Id.Protein>
6NUR|6NUR_protein|mol2

> <Gold.PLP.Fitness>
48.6719

> <Gold.PLP.PLP>
-43.3670

> <Gold.PLP.part.hbond>
-3.5125

> <Gold.PLP.part.metal>
0.0000

> <Gold.PLP.part.buried>
2.3593

> <Gold.PLP.part.nonpolar>
-42.2156

> <Gold.PLP.part.repulsive>
0.1500

> <Gold.PLP.ligand.clash>
0.0000

> <Gold.PLP.ligand.torsion>
0.5911

> <Gold.PLP.Chemscore.Hbond>
2.1591

> <Gold.PLP.Chemscore.CHOScore>
0.0000

> <Gold.PLP.Chemscore.Metal>
0.0000

> <Gold.Chemscore.Hbonds>
donor molecule, donor type, donor heavy atom, donor atom, acceptor molecule, acceptor atom, score
      L1  H    10    31       P1  8028  1.00
      L1  H    16    39       P1 10171  1.00
      P1  H  8011  8017       L1    10  0.12

> <Gold.PLP.Chemscore.Internal.Correction>
0.0097

> <Gold.Rescore>
     Score         DG    S(hbond)    S(metal)    S(lipo)     H(rot)  DE(clash)    DE(int)     intcor
     18.59     -21.24       2.00        0.00     134.41       2.59       1.91       0.74       ----

> <Gold.Chemscore.Fitness>
18.5891

> <Gold.Chemscore.DG>
-21.2415

> <Gold.Chemscore.ZeroCoef>
-5.4800

> <Gold.Chemscore.Hbond>
1.9992

> <Gold.Chemscore.Metal>
0.0000

> <Gold.Chemscore.Lipo>
134.4145

> <Gold.Chemscore.Internal_Hbond>
0.0000

> <Gold.Chemscore.DEClash>
1.9140

> <Gold.Chemscore.DEInternal>
0.7384

> <Gold.Chemscore.Rot>
2.5947

> <Gold.Chemscore.Internal.Correction>
   9.000000E+99

> <Gold.Chemscore.Hbonds>
donor molecule, donor type, donor heavy atom, donor atom, acceptor molecule, acceptor atom, score
      L1  H    10    31       P1  8028  0.98
      L1  H    16    39       P1 10171  0.98
      P1  H  8011  8017       L1    10  0.01

> <Gold.Chemscore.Hbond.Weighted>
-6.6773

> <Gold.Chemscore.Metal.Weighted>
-0.0000

> <Gold.Chemscore.Lipo.Weighted>
-15.7265

> <Gold.Chemscore.Internal_Hbond.Weighted>
0.0000

> <Gold.Chemscore.DEClash.Weighted>
1.9140

> <Gold.Chemscore.DEInternal.Weighted>
0.7384

> <Gold.Chemscore.Rot.Weighted>
6.6424

> <Gold.Chemscore.Internal.Correction.Weighted>
   9.000000E+99

> <Gold.Protein.RotatedTorsions>
[ 6907 6896 6895 6894 ] final  125.63 input  -60.11 | X-H torsion
[ 7974 7965 7964 7962 ] final  174.92 input  175.53 | X-H torsion
[ 8008 7997 7996 7995 ] final -168.72 input   59.86 | X-H torsion
[ 10167 10162 10161 10158 ] final  -44.37 input  -65.29 | X-H torsion
[ 10718 10713 10712 10709 ] final  113.41 input   66.30 | X-H torsion
[ 10763 10752 10751 10750 ] final   75.72 input  -60.55 | X-H torsion
[ 11005 11000 10999 10996 ] final   34.33 input  -57.11 | X-H torsion

> <Gold.Protein.ActiveResidues>
 VAL166  LYS551  ARG553  GLY616  TRP617  ASP618  TYR619  PRO620  LYS621  CYS622 
 ASP623  PHE694  ASN695  SER759  ASP760  ASP761  ALA762  ILE779  LEU786  VAL792 
 PHE793  MET794  SER795  GLU796  ALA797  LYS798  CYS799  TRP800  GLU811  SER814 

> <Gold.Protein.RotatedAtoms>
  152.3975  133.6768  159.6288 H   0  0  0  0  0  0  0  0  0  0  0  0  # atno 6907 bound_to 6896
  150.7871  133.8849  159.3305 H   0  0  0  0  0  0  0  0  0  0  0  0  # atno 6908 bound_to 6896
  151.6622  135.0989  160.0233 H   0  0  0  0  0  0  0  0  0  0  0  0  # atno 6909 bound_to 6896
  144.7212  139.9869  143.6439 H   0  0  0  0  0  0  0  0  0  0  0  0  # atno 7974 bound_to 7965
  155.8953  140.1032  157.1389 H   0  0  0  0  0  0  0  0  0  0  0  0  # atno 8008 bound_to 7997
  154.4019  140.1303  156.4431 H   0  0  0  0  0  0  0  0  0  0  0  0  # atno 8009 bound_to 7997
  155.7486  140.3465  155.5141 H   0  0  0  0  0  0  0  0  0  0  0  0  # atno 8010 bound_to 7997
  140.6899  143.2934  151.3485 H   0  0  0  0  0  0  0  0  0  0  0  0  # atno 10167 bound_to 10162
  157.6340  131.0983  150.7036 H   0  0  0  0  0  0  0  0  0  0  0  0  # atno 10718 bound_to 10713
  153.0674  135.4978  154.8230 H   0  0  0  0  0  0  0  0  0  0  0  0  # atno 10763 bound_to 10752
  154.6974  135.2995  154.9394 H   0  0  0  0  0  0  0  0  0  0  0  0  # atno 10764 bound_to 10752
  154.0129  135.6752  153.4819 H   0  0  0  0  0  0  0  0  0  0  0  0  # atno 10765 bound_to 10752
  140.2540  134.3270  155.7880 H   0  0  0  0  0  0  0  0  0  0  0  0  # atno 11005 bound_to 11000
  146.0443  139.3450  143.0678 LP  0  0  0  0  0  0  0  0  0  0  0  0  # atno 17320 bound_to 7965
  145.8296  140.9638  143.0856 LP  0  0  0  0  0  0  0  0  0  0  0  0  # atno 17321 bound_to 7965
  139.6292  144.0754  152.2461 LP  0  0  0  0  0  0  0  0  0  0  0  0  # atno 17342 bound_to 10162
  140.0223  144.6144  150.7556 LP  0  0  0  0  0  0  0  0  0  0  0  0  # atno 17343 bound_to 10162
  156.7371  130.4727  149.5486 LP  0  0  0  0  0  0  0  0  0  0  0  0  # atno 17370 bound_to 10713
  156.1564  130.6344  151.0662 LP  0  0  0  0  0  0  0  0  0  0  0  0  # atno 17371 bound_to 10713
  141.2198  133.7370  156.9081 LP  0  0  0  0  0  0  0  0  0  0  0  0  # atno 17394 bound_to 11000
  140.1530  134.9217  157.2617 LP  0  0  0  0  0  0  0  0  0  0  0  0  # atno 17395 bound_to 11000

$$$$
