AV-unprocessed.smi:1553|AV-procd|sdf|6239|dock6
  -GOLD-   22720 6423D 1   1.00000     0.00000
 Structure written by MMmdl.
 37 38  0  0  0  0  0  0  0  0  1 V2000
  153.9999  141.2887  161.3226 C   0  0  0  0  0  0  0  0  0  0  0  0
  153.1445  142.3388  160.7008 C   0  0  0  0  0  0  0  0  0  0  0  0
  152.7692  142.3224  159.4193 N   0  0  0  0  0  0  0  0  0  0  0  0
  151.9688  143.4171  159.0781 C   0  0  0  0  0  0  0  0  0  0  0  0
  151.4598  143.5628  157.6763 C   0  0  0  0  0  0  0  0  0  0  0  0
  150.5511  142.3927  157.2646 C   0  0  0  0  0  0  0  0  0  0  0  0
  151.3248  141.2629  156.7635 N   0  0  0  0  0  0  0  0  0  0  0  0
  151.2641  140.0084  157.2420 C   0  0  0  0  0  0  0  0  0  0  0  0
  150.5627  139.7064  158.2074 O   0  0  0  0  0  0  0  0  0  0  0  0
  152.1333  139.1595  156.6385 N   0  0  0  0  0  0  0  0  0  0  0  0
  152.4728  139.3013  155.2143 C   0  0  0  0  0  0  0  0  0  0  0  0
  151.5615  138.3604  154.4018 C   0  0  0  0  0  0  0  0  0  0  0  0
  151.7306  137.0167  154.8477 O   0  0  0  0  0  0  0  0  0  0  0  0
  151.4638  136.8436  156.2380 C   0  0  0  0  0  0  0  0  0  0  0  0
  152.3921  137.7661  157.0534 C   0  0  2  0  0  0  0  0  0  0  0  0
  152.3166  137.4942  158.5707 C   0  0  0  0  0  0  0  0  0  0  0  0
  151.7455  144.2720  160.1285 C   0  0  0  0  0  0  0  0  0  0  0  0
  152.5307  143.7296  161.5862 S   0  0  0  0  0  0  0  0  0  0  0  0
  154.0735  140.4178  160.6704 H   0  0  0  0  0  0  0  0  0  0  0  0
  153.5733  140.9753  162.2755 H   0  0  0  0  0  0  0  0  0  0  0  0
  155.0017  141.6806  161.4980 H   0  0  0  0  0  0  0  0  0  0  0  0
  150.9154  144.5032  157.5798 H   0  0  0  0  0  0  0  0  0  0  0  0
  152.2988  143.6322  156.9826 H   0  0  0  0  0  0  0  0  0  0  0  0
  149.9754  142.0509  158.1252 H   0  0  0  0  0  0  0  0  0  0  0  0
  149.8261  142.7137  156.5143 H   0  0  0  0  0  0  0  0  0  0  0  0
  151.9568  141.4462  155.9977 H   0  0  0  0  0  0  0  0  0  0  0  0
  152.3633  140.3204  154.8421 H   0  0  0  0  0  0  0  0  0  0  0  0
  153.5206  139.0418  155.0566 H   0  0  0  0  0  0  0  0  0  0  0  0
  150.5149  138.6537  154.4981 H   0  0  0  0  0  0  0  0  0  0  0  0
  151.8119  138.4142  153.3422 H   0  0  0  0  0  0  0  0  0  0  0  0
  150.4137  137.0526  156.4488 H   0  0  0  0  0  0  0  0  0  0  0  0
  151.6411  135.7994  156.4963 H   0  0  0  0  0  0  0  0  0  0  0  0
  153.4210  137.5357  156.7720 H   0  0  0  0  0  0  0  0  0  0  0  0
  152.7222  136.5086  158.8003 H   0  0  0  0  0  0  0  0  0  0  0  0
  151.2941  137.5057  158.9469 H   0  0  0  0  0  0  0  0  0  0  0  0
  152.8983  138.2240  159.1348 H   0  0  0  0  0  0  0  0  0  0  0  0
  151.1700  145.1858  160.1330 H   0  0  0  0  0  0  0  0  0  0  0  0
  1  2  1  0  0  0  0
  1 19  1  0  0  0  0
  1 20  1  0  0  0  0
  1 21  1  0  0  0  0
  2 18  1  0  0  0  0
  2  3  2  0  0  0  0
  3  4  1  0  0  0  0
  4  5  1  0  0  0  0
  4 17  2  0  0  0  0
  5  6  1  0  0  0  0
  5 22  1  0  0  0  0
  5 23  1  0  0  0  0
  6  7  1  0  0  0  0
  6 24  1  0  0  0  0
  6 25  1  0  0  0  0
  7  8  1  0  0  0  0
  7 26  1  0  0  0  0
  8  9  2  0  0  0  0
  8 10  1  0  0  0  0
 10 15  1  0  0  0  0
 10 11  1  0  0  0  0
 11 12  1  0  0  0  0
 11 27  1  0  0  0  0
 11 28  1  0  0  0  0
 12 13  1  0  0  0  0
 12 29  1  0  0  0  0
 12 30  1  0  0  0  0
 13 14  1  0  0  0  0
 14 15  1  0  0  0  0
 14 31  1  0  0  0  0
 14 32  1  0  0  0  0
 15 16  1  0  0  0  0
 15 33  1  0  0  0  0
 16 34  1  0  0  0  0
 16 35  1  0  0  0  0
 16 36  1  0  0  0  0
 17 18  1  0  0  0  0
 17 37  1  0  0  0  0
M  END
> <s_m_source_file>
AV-unprocessed.smi

> <i_m_source_file_index>
1553

> <i_lp_mmshare_version>
43012

> <i_f3d_flags>
0

> <s_epik_input>
W0NIM11jMW5jKFtjSF1zMSlbQ0gyXVtDSDJdW05IXUMoPU8pTjJbQ0gyXVtDSDJdT1tDSDJdW0NASF0yW0NIM10=

> <s_epik_cmdline>
J2VwaWtfcHl0aG9uJywgJy1waCcsICc3LjAnLCAnLXRuJywgJzgnLCAnLW1hJywgJzIwMCcsICctbWV0YWxfYmluZGluZycsICctaW1hZScsICc8aW5maWxlLm1hZT4nLCAnLW9tYWUnLCAnPG91dGZpbGUubWFlPic=

> <r_epik_Ionization_Penalty>
0.0020768

> <r_epik_Ionization_Penalty_Charging>
0

> <r_epik_Ionization_Penalty_Neutral>
0.0020768

> <r_epik_State_Penalty>
0.00139904

> <r_epik_Charging_Adjusted_Penalty>
0.00139904

> <i_epik_Tot_Q>
0

> <i_epik_Tot_abs_Q>
0

> <r_epik_Metal_State_Penalty>
-0

> <b_epik_Metal_Only>
0

> <s_lp_Force_Field>
OPLS_2005

> <r_lp_Energy>
26.8806

> <b_lp_Chiralities_Consistent>
1

> <s_lp_Variant>
AV-unprocessed.smi:1553-2

> <Gold.Version>
5.8.1

> <Gold.Id.Protein>
6NUR|6NUR_protein|mol2

> <Gold.PLP.Fitness>
41.0808

> <Gold.PLP.PLP>
-38.3778

> <Gold.PLP.part.hbond>
-1.0000

> <Gold.PLP.part.metal>
0.0000

> <Gold.PLP.part.buried>
-5.1278

> <Gold.PLP.part.nonpolar>
-32.0508

> <Gold.PLP.part.repulsive>
0.2212

> <Gold.PLP.ligand.clash>
0.0000

> <Gold.PLP.ligand.torsion>
0.3596

> <Gold.PLP.Chemscore.Hbond>
1.0000

> <Gold.PLP.Chemscore.CHOScore>
0.0000

> <Gold.PLP.Chemscore.Metal>
0.0000

> <Gold.Chemscore.Hbonds>
donor molecule, donor type, donor heavy atom, donor atom, acceptor molecule, acceptor atom, score
      P1  H 10752 10764       L1    13  1.00

> <Gold.PLP.Chemscore.Internal.Correction>
0.4221

> <Gold.Rescore>
     Score         DG    S(hbond)    S(metal)    S(lipo)     H(rot)  DE(clash)    DE(int)     intcor
     15.94     -17.65       0.88        0.00     108.11       1.33       0.03       1.68       ----

> <Gold.Chemscore.Fitness>
15.9419

> <Gold.Chemscore.DG>
-17.6535

> <Gold.Chemscore.ZeroCoef>
-5.4800

> <Gold.Chemscore.Hbond>
0.8790

> <Gold.Chemscore.Metal>
0.0000

> <Gold.Chemscore.Lipo>
108.1102

> <Gold.Chemscore.Internal_Hbond>
0.0000

> <Gold.Chemscore.DEClash>
0.0303

> <Gold.Chemscore.DEInternal>
1.6813

> <Gold.Chemscore.Rot>
1.3325

> <Gold.Chemscore.Internal.Correction>
   9.000000E+99

> <Gold.Chemscore.Hbonds>
donor molecule, donor type, donor heavy atom, donor atom, acceptor molecule, acceptor atom, score
      P1  H 10752 10764       L1    13  0.58

> <Gold.Chemscore.Hbond.Weighted>
-2.9357

> <Gold.Chemscore.Metal.Weighted>
-0.0000

> <Gold.Chemscore.Lipo.Weighted>
-12.6489

> <Gold.Chemscore.Internal_Hbond.Weighted>
0.0000

> <Gold.Chemscore.DEClash.Weighted>
0.0303

> <Gold.Chemscore.DEInternal.Weighted>
1.6813

> <Gold.Chemscore.Rot.Weighted>
3.4111

> <Gold.Chemscore.Internal.Correction.Weighted>
   9.000000E+99

> <Gold.Protein.RotatedTorsions>
[ 6907 6896 6895 6894 ] final -157.64 input  -60.11 | X-H torsion
[ 7974 7965 7964 7962 ] final   12.14 input  175.53 | X-H torsion
[ 8008 7997 7996 7995 ] final -143.35 input   59.86 | X-H torsion
[ 10167 10162 10161 10158 ] final -147.73 input  -65.29 | X-H torsion
[ 10718 10713 10712 10709 ] final  163.04 input   66.30 | X-H torsion
[ 10763 10752 10751 10750 ] final  -74.09 input  -60.55 | X-H torsion
[ 11005 11000 10999 10996 ] final -108.23 input  -57.11 | X-H torsion

> <Gold.Protein.ActiveResidues>
 VAL166  LYS551  ARG553  GLY616  TRP617  ASP618  TYR619  PRO620  LYS621  CYS622 
 ASP623  PHE694  ASN695  SER759  ASP760  ASP761  ALA762  ILE779  LEU786  VAL792 
 PHE793  MET794  SER795  GLU796  ALA797  LYS798  CYS799  TRP800  GLU811  SER814 

> <Gold.Protein.RotatedAtoms>
  151.3059  133.4102  159.2642 H   0  0  0  0  0  0  0  0  0  0  0  0  # atno 6907 bound_to 6896
  151.0155  134.9430  159.8041 H   0  0  0  0  0  0  0  0  0  0  0  0  # atno 6908 bound_to 6896
  152.5311  134.3023  159.9135 H   0  0  0  0  0  0  0  0  0  0  0  0  # atno 6909 bound_to 6896
  146.2357  139.9381  142.8487 H   0  0  0  0  0  0  0  0  0  0  0  0  # atno 7974 bound_to 7965
  155.5092  140.0582  157.2926 H   0  0  0  0  0  0  0  0  0  0  0  0  # atno 8008 bound_to 7997
  154.4558  140.1972  156.0332 H   0  0  0  0  0  0  0  0  0  0  0  0  # atno 8009 bound_to 7997
  156.0796  140.3249  155.7681 H   0  0  0  0  0  0  0  0  0  0  0  0  # atno 8010 bound_to 7997
  139.7595  143.8397  152.2604 H   0  0  0  0  0  0  0  0  0  0  0  0  # atno 10167 bound_to 10162
  157.1140  131.0475  151.2444 H   0  0  0  0  0  0  0  0  0  0  0  0  # atno 10718 bound_to 10713
  154.4684  135.5876  153.6304 H   0  0  0  0  0  0  0  0  0  0  0  0  # atno 10763 bound_to 10752
  152.9831  135.6061  154.3398 H   0  0  0  0  0  0  0  0  0  0  0  0  # atno 10764 bound_to 10752
  154.3278  135.2843  155.2466 H   0  0  0  0  0  0  0  0  0  0  0  0  # atno 10765 bound_to 10752
  141.0912  133.9051  157.2070 H   0  0  0  0  0  0  0  0  0  0  0  0  # atno 11005 bound_to 11000
  145.1979  140.9841  143.4173 LP  0  0  0  0  0  0  0  0  0  0  0  0  # atno 17320 bound_to 7965
  144.9799  139.3794  143.6267 LP  0  0  0  0  0  0  0  0  0  0  0  0  # atno 17321 bound_to 7965
  139.8400  144.7214  150.9343 LP  0  0  0  0  0  0  0  0  0  0  0  0  # atno 17342 bound_to 10162
  140.7806  143.3992  151.1177 LP  0  0  0  0  0  0  0  0  0  0  0  0  # atno 17343 bound_to 10162
  157.4534  130.7611  149.7171 LP  0  0  0  0  0  0  0  0  0  0  0  0  # atno 17370 bound_to 10713
  155.9844  130.3992  150.3316 LP  0  0  0  0  0  0  0  0  0  0  0  0  # atno 17371 bound_to 10713
  139.9739  135.0120  156.9582 LP  0  0  0  0  0  0  0  0  0  0  0  0  # atno 17394 bound_to 11000
  140.5246  134.0873  155.7300 LP  0  0  0  0  0  0  0  0  0  0  0  0  # atno 17395 bound_to 11000

$$$$
