AV-unprocessed.smi:1554|AV-procd|sdf|6248|dock3
  -GOLD-   22720 6433D 1   1.00000     0.00000
 Structure written by MMmdl.
 48 50  0  0  0  0  0  0  0  0  2 V2000
  152.8117  141.0154  159.4975 C   0  0  0  0  0  0  0  0  0  0  0  0
  151.9434  141.0196  158.2517 C   0  0  0  0  0  0  0  0  0  0  0  0
  152.0626  139.9573  157.3276 C   0  0  0  0  0  0  0  0  0  0  0  0
  151.2723  139.9221  156.1582 C   0  0  0  0  0  0  0  0  0  0  0  0
  151.2256  138.9942  155.1323 N   0  0  0  0  0  0  0  0  0  0  0  0
  150.2987  139.5197  154.3367 C   0  0  0  0  0  0  0  0  0  0  0  0
  149.7434  140.6851  154.7223 N   0  0  0  0  0  0  0  0  0  0  0  0
  148.7287  141.4490  154.0139 C   0  0  0  0  0  0  0  0  0  0  0  0
  147.2882  141.1487  154.4848 C   0  0  2  0  0  0  0  0  0  0  0  0
  146.8757  139.9152  153.9273 O   0  0  0  0  0  0  0  0  0  0  0  0
  146.2762  142.2441  154.0807 C   0  0  0  0  0  0  0  0  0  0  0  0
  144.9068  141.9891  154.6017 N   0  3  1  0  0  0  0  0  0  0  0  0
  144.8631  141.2871  155.9101 C   0  0  0  0  0  0  0  0  0  0  0  0
  145.1648  142.2461  157.0791 C   0  0  0  0  0  0  0  0  0  0  0  0
  144.2842  143.3622  157.0310 O   0  0  0  0  0  0  0  0  0  0  0  0
  144.4176  144.1108  155.8276 C   0  0  2  0  0  0  0  0  0  0  0  0
  143.4998  145.3343  155.9212 C   0  0  0  0  0  0  0  0  0  0  0  0
  144.0522  143.2015  154.6362 C   0  0  0  0  0  0  0  0  0  0  0  0
  150.3530  140.9885  155.9355 C   0  0  0  0  0  0  0  0  0  0  0  0
  150.2235  142.0497  156.8493 C   0  0  0  0  0  0  0  0  0  0  0  0
  151.0214  142.0697  158.0120 C   0  0  0  0  0  0  0  0  0  0  0  0
  150.8753  143.2213  158.9911 C   0  0  0  0  0  0  0  0  0  0  0  0
  153.4362  140.1228  159.5442 H   0  0  0  0  0  0  0  0  0  0  0  0
  152.1929  141.0364  160.3947 H   0  0  0  0  0  0  0  0  0  0  0  0
  153.4691  141.8851  159.5086 H   0  0  0  0  0  0  0  0  0  0  0  0
  152.7642  139.1567  157.5104 H   0  0  0  0  0  0  0  0  0  0  0  0
  150.0117  139.0344  153.4152 H   0  0  0  0  0  0  0  0  0  0  0  0
  148.9520  142.5107  154.1275 H   0  0  0  0  0  0  0  0  0  0  0  0
  148.8215  141.2322  152.9492 H   0  0  0  0  0  0  0  0  0  0  0  0
  147.3126  141.0300  155.5675 H   0  0  0  0  0  0  0  0  0  0  0  0
  146.0590  139.6554  154.3247 H   0  0  0  0  0  0  0  0  0  0  0  0
  146.6225  143.2177  154.4259 H   0  0  0  0  0  0  0  0  0  0  0  0
  146.2446  142.3066  152.9919 H   0  0  0  0  0  0  0  0  0  0  0  0
  143.8616  140.8745  156.0380 H   0  0  0  0  0  0  0  0  0  0  0  0
  145.5456  140.4383  155.9271 H   0  0  0  0  0  0  0  0  0  0  0  0
  145.0224  141.7300  158.0287 H   0  0  0  0  0  0  0  0  0  0  0  0
  146.2010  142.5857  157.0625 H   0  0  0  0  0  0  0  0  0  0  0  0
  145.4470  144.4606  155.7325 H   0  0  0  0  0  0  0  0  0  0  0  0
  143.5705  145.9470  155.0221 H   0  0  0  0  0  0  0  0  0  0  0  0
  143.7707  145.9609  156.7713 H   0  0  0  0  0  0  0  0  0  0  0  0
  142.4572  145.0388  156.0437 H   0  0  0  0  0  0  0  0  0  0  0  0
  144.1225  143.7458  153.6936 H   0  0  0  0  0  0  0  0  0  0  0  0
  143.0125  142.8835  154.7262 H   0  0  0  0  0  0  0  0  0  0  0  0
  149.5154  142.8419  156.6581 H   0  0  0  0  0  0  0  0  0  0  0  0
  150.1534  143.9572  158.6358 H   0  0  0  0  0  0  0  0  0  0  0  0
  151.8296  143.7298  159.1296 H   0  0  0  0  0  0  0  0  0  0  0  0
  150.5325  142.8568  159.9596 H   0  0  0  0  0  0  0  0  0  0  0  0
  144.4792  141.3730  153.9253 H   0  0  0  0  0  0  0  0  0  0  0  0
  1  2  1  0  0  0  0
  1 23  1  0  0  0  0
  1 24  1  0  0  0  0
  1 25  1  0  0  0  0
  2 21  1  0  0  0  0
  2  3  2  0  0  0  0
  3  4  1  0  0  0  0
  3 26  1  0  0  0  0
  4 19  2  0  0  0  0
  4  5  1  0  0  0  0
  5  6  2  0  0  0  0
  6  7  1  0  0  0  0
  6 27  1  0  0  0  0
  7  8  1  0  0  0  0
  7 19  1  0  0  0  0
  8  9  1  0  0  0  0
  8 28  1  0  0  0  0
  8 29  1  0  0  0  0
  9 10  1  0  0  0  0
  9 11  1  0  0  0  0
  9 30  1  0  0  0  0
 10 31  1  0  0  0  0
 11 12  1  0  0  0  0
 11 32  1  0  0  0  0
 11 33  1  0  0  0  0
 12 18  1  0  0  0  0
 12 13  1  0  0  0  0
 12 48  1  0  0  0  0
 13 14  1  0  0  0  0
 13 34  1  0  0  0  0
 13 35  1  0  0  0  0
 14 15  1  0  0  0  0
 14 36  1  0  0  0  0
 14 37  1  0  0  0  0
 15 16  1  0  0  0  0
 16 17  1  0  0  0  0
 16 18  1  0  0  0  0
 16 38  1  0  0  0  0
 17 39  1  0  0  0  0
 17 40  1  0  0  0  0
 17 41  1  0  0  0  0
 18 42  1  0  0  0  0
 18 43  1  0  0  0  0
 19 20  1  0  0  0  0
 20 21  2  0  0  0  0
 20 44  1  0  0  0  0
 21 22  1  0  0  0  0
 22 45  1  0  0  0  0
 22 46  1  0  0  0  0
 22 47  1  0  0  0  0
M  CHG  1  12   1
M  END
> <s_m_source_file>
AV-unprocessed.smi

> <i_m_source_file_index>
1554

> <i_lp_mmshare_version>
43012

> <i_f3d_flags>
0

> <s_epik_input>
W0NIM11jKFtjSF0xKWMoW0NIM10pW2NIXWMoYzEyKW4oW2NIXW4yKVtDSDJdW0NASF0oW09IXSlbQ0gyXU4zW0NIMl1bQ0gyXU9bQ0BASF0oW0NIM10pW0NIMl0z

> <s_epik_cmdline>
J2VwaWtfcHl0aG9uJywgJy1waCcsICc3LjAnLCAnLXRuJywgJzgnLCAnLW1hJywgJzIwMCcsICctbWV0YWxfYmluZGluZycsICctaW1hZScsICc8aW5maWxlLm1hZT4nLCAnLW9tYWUnLCAnPG91dGZpbGUubWFlPic=

> <r_epik_Ionization_Penalty>
0.695251

> <r_epik_Ionization_Penalty_Charging>
0.608065

> <r_epik_Ionization_Penalty_Neutral>
0.0871863

> <r_epik_State_Penalty>
0.731955

> <r_epik_Charging_Adjusted_Penalty>
1.34002

> <i_epik_Tot_Q>
1

> <i_epik_Tot_abs_Q>
1

> <r_epik_Metal_State_Penalty>
0.652186

> <b_epik_Metal_Only>
0

> <s_lp_Force_Field>
OPLS_2005

> <r_lp_Energy>
22.8588

> <b_lp_Chiralities_Consistent>
1

> <s_lp_Variant>
AV-unprocessed.smi:1554-9

> <Gold.Version>
5.8.1

> <Gold.Id.Protein>
6NUR|6NUR_protein|mol2

> <Gold.PLP.Fitness>
43.2013

> <Gold.PLP.PLP>
-35.9213

> <Gold.PLP.part.hbond>
-0.9934

> <Gold.PLP.part.metal>
0.0000

> <Gold.PLP.part.buried>
0.1269

> <Gold.PLP.part.nonpolar>
-35.1930

> <Gold.PLP.part.repulsive>
0.1129

> <Gold.PLP.ligand.clash>
0.0000

> <Gold.PLP.ligand.torsion>
0.7628

> <Gold.PLP.Chemscore.Hbond>
1.9825

> <Gold.PLP.Chemscore.CHOScore>
0.9272

> <Gold.PLP.Chemscore.Metal>
0.0000

> <Gold.Chemscore.Hbonds>
donor molecule, donor type, donor heavy atom, donor atom, acceptor molecule, acceptor atom, score
      L1  H    12    48       P1 10175  2.00
      L1  C     6    27       P1  7957  0.99

> <Gold.PLP.Chemscore.Internal.Correction>
0.0765

> <Gold.Rescore>
     Score         DG    S(hbond)    S(metal)    S(lipo)     H(rot)  DE(clash)    DE(int)     intcor
     12.65     -13.66       0.70        0.00      94.80       2.05       0.29       0.72       ----

> <Gold.Chemscore.Fitness>
12.6481

> <Gold.Chemscore.DG>
-13.6584

> <Gold.Chemscore.ZeroCoef>
-5.4800

> <Gold.Chemscore.Hbond>
0.7026

> <Gold.Chemscore.Metal>
0.0000

> <Gold.Chemscore.Lipo>
94.7995

> <Gold.Chemscore.Internal_Hbond>
0.0000

> <Gold.Chemscore.DEClash>
0.2877

> <Gold.Chemscore.DEInternal>
0.7227

> <Gold.Chemscore.Rot>
2.0546

> <Gold.Chemscore.Internal.Correction>
   9.000000E+99

> <Gold.Chemscore.Hbonds>
donor molecule, donor type, donor heavy atom, donor atom, acceptor molecule, acceptor atom, score
      L1  H    12    48       P1 10175  0.35

> <Gold.Chemscore.Hbond.Weighted>
-2.3466

> <Gold.Chemscore.Metal.Weighted>
-0.0000

> <Gold.Chemscore.Lipo.Weighted>
-11.0915

> <Gold.Chemscore.Internal_Hbond.Weighted>
0.0000

> <Gold.Chemscore.DEClash.Weighted>
0.2877

> <Gold.Chemscore.DEInternal.Weighted>
0.7227

> <Gold.Chemscore.Rot.Weighted>
5.2597

> <Gold.Chemscore.Internal.Correction.Weighted>
   9.000000E+99

> <Gold.Protein.RotatedTorsions>
[ 6907 6896 6895 6894 ] final  124.32 input  -60.11 | X-H torsion
[ 7974 7965 7964 7962 ] final   32.95 input  175.53 | X-H torsion
[ 8008 7997 7996 7995 ] final   54.50 input   59.86 | X-H torsion
[ 10167 10162 10161 10158 ] final -141.48 input  -65.29 | X-H torsion
[ 10718 10713 10712 10709 ] final -131.80 input   66.30 | X-H torsion
[ 10763 10752 10751 10750 ] final    2.01 input  -60.55 | X-H torsion
[ 11005 11000 10999 10996 ] final  148.67 input  -57.11 | X-H torsion

> <Gold.Protein.ActiveResidues>
 VAL166  LYS551  ARG553  GLY616  TRP617  ASP618  TYR619  PRO620  LYS621  CYS622 
 ASP623  PHE694  ASN695  SER759  ASP760  ASP761  ALA762  ILE779  LEU786  VAL792 
 PHE793  MET794  SER795  GLU796  ALA797  LYS798  CYS799  TRP800  GLU811  SER814 

> <Gold.Protein.RotatedAtoms>
  152.4088  133.6930  159.6379 H   0  0  0  0  0  0  0  0  0  0  0  0  # atno 6907 bound_to 6896
  150.7970  133.8662  159.3254 H   0  0  0  0  0  0  0  0  0  0  0  0  # atno 6908 bound_to 6896
  151.6410  135.1014  160.0193 H   0  0  0  0  0  0  0  0  0  0  0  0  # atno 6909 bound_to 6896
  146.1453  139.6459  142.9136 H   0  0  0  0  0  0  0  0  0  0  0  0  # atno 7974 bound_to 7965
  155.4857  140.3470  155.4347 H   0  0  0  0  0  0  0  0  0  0  0  0  # atno 8008 bound_to 7997
  156.1010  140.1435  156.9496 H   0  0  0  0  0  0  0  0  0  0  0  0  # atno 8009 bound_to 7997
  154.4693  140.0906  156.7082 H   0  0  0  0  0  0  0  0  0  0  0  0  # atno 8010 bound_to 7997
  139.8180  143.7612  152.2665 H   0  0  0  0  0  0  0  0  0  0  0  0  # atno 10167 bound_to 10162
  156.2281  130.7020  151.0829 H   0  0  0  0  0  0  0  0  0  0  0  0  # atno 10718 bound_to 10713
  153.3009  135.6956  153.7204 H   0  0  0  0  0  0  0  0  0  0  0  0  # atno 10763 bound_to 10752
  153.6118  135.3443  155.2982 H   0  0  0  0  0  0  0  0  0  0  0  0  # atno 10764 bound_to 10752
  154.8550  135.4365  154.2120 H   0  0  0  0  0  0  0  0  0  0  0  0  # atno 10765 bound_to 10752
  140.0979  134.9001  157.1751 H   0  0  0  0  0  0  0  0  0  0  0  0  # atno 11005 bound_to 11000
  145.4952  141.0438  143.2571 LP  0  0  0  0  0  0  0  0  0  0  0  0  # atno 17320 bound_to 7965
  144.7839  139.6468  143.7142 LP  0  0  0  0  0  0  0  0  0  0  0  0  # atno 17321 bound_to 7965
  139.7781  144.7454  151.0127 LP  0  0  0  0  0  0  0  0  0  0  0  0  # atno 17342 bound_to 10162
  140.7815  143.4571  151.0330 LP  0  0  0  0  0  0  0  0  0  0  0  0  # atno 17343 bound_to 10162
  157.7120  131.0729  150.6466 LP  0  0  0  0  0  0  0  0  0  0  0  0  # atno 17370 bound_to 10713
  156.6532  130.4491  149.5712 LP  0  0  0  0  0  0  0  0  0  0  0  0  # atno 17371 bound_to 10713
  140.3261  134.2862  155.7237 LP  0  0  0  0  0  0  0  0  0  0  0  0  # atno 17394 bound_to 11000
  141.2097  133.7740  156.9978 LP  0  0  0  0  0  0  0  0  0  0  0  0  # atno 17395 bound_to 11000

$$$$
