AV-unprocessed.smi:2909|AV-procd|sdf|11171|dock6
  -GOLD-   2272016 63D 1   1.00000     0.00000
 Structure written by MMmdl.
 44 45  0  0  0  0  0  0  0  0  1 V2000
  145.6454  143.7862  153.4177 C   0  0  0  0  0  0  0  0  0  0  0  0
  146.5083  142.7124  153.9878 C   0  0  0  0  0  0  0  0  0  0  0  0
  147.4161  141.8758  153.4022 C   0  0  0  0  0  0  0  0  0  0  0  0
  147.9126  141.0823  154.4792 C   0  0  0  0  0  0  0  0  0  0  0  0
  148.9449  139.9879  154.4262 C   0  0  0  0  0  0  0  0  0  0  0  0
  150.1844  140.3980  155.2217 C   0  0  0  0  0  0  0  0  0  0  0  0
  151.2903  139.9563  154.9098 O   0  0  0  0  0  0  0  0  0  0  0  0
  149.9854  141.2380  156.2500 N   0  0  0  0  0  0  0  0  0  0  0  0
  151.0225  141.7267  157.1526 C   0  0  2  0  0  0  0  0  0  0  0  0
  151.4702  140.6131  158.1147 C   0  0  0  0  0  0  0  0  0  0  0  0
  152.5110  141.1231  159.1236 C   0  0  0  0  0  0  0  0  0  0  0  0
  152.0095  142.3435  159.9350 C   0  0  1  0  0  0  0  0  0  0  0  0
  153.0798  142.8644  160.9396 C   0  0  0  0  0  0  0  0  0  0  0  0
  153.7935  141.7242  161.6921 C   0  0  0  0  0  0  0  0  0  0  0  0
  152.5005  143.8507  161.9723 C   0  0  0  0  0  0  0  0  0  0  0  0
  151.5360  143.4435  158.9526 C   0  0  0  0  0  0  0  0  0  0  0  0
  150.4926  142.9282  157.9485 C   0  0  0  0  0  0  0  0  0  0  0  0
  147.3512  141.3990  155.6378 N   0  0  0  0  0  0  0  0  0  0  0  0
  146.5011  142.3943  155.3262 N   0  0  0  0  0  0  0  0  0  0  0  0
  145.9288  142.8414  156.0284 H   0  0  0  0  0  0  0  0  0  0  0  0
  145.4760  143.6245  152.3530 H   0  0  0  0  0  0  0  0  0  0  0  0
  146.1134  144.7629  153.5406 H   0  0  0  0  0  0  0  0  0  0  0  0
  144.6739  143.8112  153.9121 H   0  0  0  0  0  0  0  0  0  0  0  0
  147.6902  141.8373  152.3583 H   0  0  0  0  0  0  0  0  0  0  0  0
  148.5485  139.0564  154.8330 H   0  0  0  0  0  0  0  0  0  0  0  0
  149.2246  139.7783  153.3931 H   0  0  0  0  0  0  0  0  0  0  0  0
  149.0416  141.5471  156.4327 H   0  0  0  0  0  0  0  0  0  0  0  0
  151.8817  142.0580  156.5661 H   0  0  0  0  0  0  0  0  0  0  0  0
  150.6066  140.2203  158.6534 H   0  0  0  0  0  0  0  0  0  0  0  0
  151.8885  139.7769  157.5530 H   0  0  0  0  0  0  0  0  0  0  0  0
  152.7612  140.2954  159.7859 H   0  0  0  0  0  0  0  0  0  0  0  0
  153.4285  141.3851  158.5951 H   0  0  0  0  0  0  0  0  0  0  0  0
  151.1411  142.0222  160.5123 H   0  0  0  0  0  0  0  0  0  0  0  0
  153.8413  143.4027  160.3737 H   0  0  0  0  0  0  0  0  0  0  0  0
  153.0794  141.0793  162.2050 H   0  0  0  0  0  0  0  0  0  0  0  0
  154.4801  142.1175  162.4425 H   0  0  0  0  0  0  0  0  0  0  0  0
  154.3916  141.1040  161.0254 H   0  0  0  0  0  0  0  0  0  0  0  0
  151.6585  143.4135  162.5099 H   0  0  0  0  0  0  0  0  0  0  0  0
  152.1632  144.7771  161.5091 H   0  0  0  0  0  0  0  0  0  0  0  0
  153.2516  144.1332  162.7106 H   0  0  0  0  0  0  0  0  0  0  0  0
  151.0901  144.2776  159.4927 H   0  0  0  0  0  0  0  0  0  0  0  0
  152.3928  143.8469  158.4112 H   0  0  0  0  0  0  0  0  0  0  0  0
  150.2137  143.7326  157.2667 H   0  0  0  0  0  0  0  0  0  0  0  0
  149.5842  142.6481  158.4840 H   0  0  0  0  0  0  0  0  0  0  0  0
  1  2  1  0  0  0  0
  1 21  1  0  0  0  0
  1 22  1  0  0  0  0
  1 23  1  0  0  0  0
  2 19  1  0  0  0  0
  2  3  2  0  0  0  0
  3  4  1  0  0  0  0
  3 24  1  0  0  0  0
  4  5  1  0  0  0  0
  4 18  2  0  0  0  0
  5  6  1  0  0  0  0
  5 25  1  0  0  0  0
  5 26  1  0  0  0  0
  6  7  2  0  0  0  0
  6  8  1  0  0  0  0
  8  9  1  0  0  0  0
  8 27  1  0  0  0  0
  9 17  1  0  0  0  0
  9 10  1  0  0  0  0
  9 28  1  0  0  0  0
 10 11  1  0  0  0  0
 10 29  1  0  0  0  0
 10 30  1  0  0  0  0
 11 12  1  0  0  0  0
 11 31  1  0  0  0  0
 11 32  1  0  0  0  0
 12 13  1  0  0  0  0
 12 16  1  0  0  0  0
 12 33  1  0  0  0  0
 13 14  1  0  0  0  0
 13 15  1  0  0  0  0
 13 34  1  0  0  0  0
 14 35  1  0  0  0  0
 14 36  1  0  0  0  0
 14 37  1  0  0  0  0
 15 38  1  0  0  0  0
 15 39  1  0  0  0  0
 15 40  1  0  0  0  0
 16 17  1  0  0  0  0
 16 41  1  0  0  0  0
 16 42  1  0  0  0  0
 17 43  1  0  0  0  0
 17 44  1  0  0  0  0
 18 19  1  0  0  0  0
 19 20  1  0  0  0  0
M  END
> <s_m_source_file>
AV-unprocessed.smi

> <i_m_source_file_index>
2909

> <i_lp_mmshare_version>
43012

> <i_f3d_flags>
0

> <s_epik_input>
W0NIM11jMVtjSF1jKG5bbkhdMSlbQ0gyXUMoPU8pW05IXVtDQEBIXTJbQ0gyXVtDSDJdW0NAQEhdKFtDSF0oW0NIM10pW0NIM10pW0NIMl1bQ0gyXTI=

> <s_epik_cmdline>
J2VwaWtfcHl0aG9uJywgJy1waCcsICc3LjAnLCAnLXRuJywgJzgnLCAnLW1hJywgJzIwMCcsICctbWV0YWxfYmluZGluZycsICctaW1hZScsICc8aW5maWxlLm1hZT4nLCAnLW9tYWUnLCAnPG91dGZpbGUubWFlPic=

> <r_lp_tautomer_probability>
0.5

> <r_epik_Ionization_Penalty>
9.34828e-05

> <r_epik_Ionization_Penalty_Charging>
0

> <r_epik_Ionization_Penalty_Neutral>
9.34828e-05

> <r_epik_State_Penalty>
0.41068

> <r_epik_Charging_Adjusted_Penalty>
0.41068

> <i_epik_Tot_Q>
0

> <i_epik_Tot_abs_Q>
0

> <r_epik_Metal_State_Penalty>
0.4107

> <b_epik_Metal_Only>
0

> <s_lp_Force_Field>
OPLS_2005

> <r_lp_Energy>
11.82

> <b_lp_Chiralities_Consistent>
1

> <s_lp_Variant>
AV-unprocessed.smi:2909-1

> <Gold.Version>
5.8.1

> <Gold.Id.Protein>
6NUR|6NUR_protein|mol2

> <Gold.PLP.Fitness>
43.9625

> <Gold.PLP.PLP>
-43.1335

> <Gold.PLP.part.hbond>
-1.0105

> <Gold.PLP.part.metal>
0.0000

> <Gold.PLP.part.buried>
-6.0055

> <Gold.PLP.part.nonpolar>
-35.6533

> <Gold.PLP.part.repulsive>
0.2411

> <Gold.PLP.ligand.clash>
0.7032

> <Gold.PLP.ligand.torsion>
0.7448

> <Gold.PLP.Chemscore.Hbond>
1.0000

> <Gold.PLP.Chemscore.CHOScore>
0.0000

> <Gold.PLP.Chemscore.Metal>
0.0000

> <Gold.Chemscore.Hbonds>
donor molecule, donor type, donor heavy atom, donor atom, acceptor molecule, acceptor atom, score
      P1  H  7989  7998       L1     7  1.00

> <Gold.PLP.Chemscore.Internal.Correction>
0.0218

> <Gold.Rescore>
     Score         DG    S(hbond)    S(metal)    S(lipo)     H(rot)  DE(clash)    DE(int)     intcor
     14.86     -17.06       0.65        0.00     113.11       1.50       0.34       1.86       ----

> <Gold.Chemscore.Fitness>
14.8615

> <Gold.Chemscore.DG>
-17.0560

> <Gold.Chemscore.ZeroCoef>
-5.4800

> <Gold.Chemscore.Hbond>
0.6543

> <Gold.Chemscore.Metal>
0.0000

> <Gold.Chemscore.Lipo>
113.1073

> <Gold.Chemscore.Internal_Hbond>
0.0000

> <Gold.Chemscore.DEClash>
0.3366

> <Gold.Chemscore.DEInternal>
1.8579

> <Gold.Chemscore.Rot>
1.5011

> <Gold.Chemscore.Internal.Correction>
   9.000000E+99

> <Gold.Chemscore.Hbonds>
donor molecule, donor type, donor heavy atom, donor atom, acceptor molecule, acceptor atom, score
      P1  H  7989  7998       L1     7  0.35

> <Gold.Chemscore.Hbond.Weighted>
-2.1853

> <Gold.Chemscore.Metal.Weighted>
-0.0000

> <Gold.Chemscore.Lipo.Weighted>
-13.2336

> <Gold.Chemscore.Internal_Hbond.Weighted>
0.0000

> <Gold.Chemscore.DEClash.Weighted>
0.3366

> <Gold.Chemscore.DEInternal.Weighted>
1.8579

> <Gold.Chemscore.Rot.Weighted>
3.8429

> <Gold.Chemscore.Internal.Correction.Weighted>
   9.000000E+99

> <Gold.Protein.RotatedTorsions>
[ 6907 6896 6895 6894 ] final  146.13 input  -60.11 | X-H torsion
[ 7974 7965 7964 7962 ] final  143.44 input  175.53 | X-H torsion
[ 8008 7997 7996 7995 ] final  -36.76 input   59.86 | X-H torsion
[ 10167 10162 10161 10158 ] final -148.17 input  -65.29 | X-H torsion
[ 10718 10713 10712 10709 ] final   98.66 input   66.30 | X-H torsion
[ 10763 10752 10751 10750 ] final  -32.90 input  -60.55 | X-H torsion
[ 11005 11000 10999 10996 ] final -123.00 input  -57.11 | X-H torsion

> <Gold.Protein.ActiveResidues>
 VAL166  LYS551  ARG553  GLY616  TRP617  ASP618  TYR619  PRO620  LYS621  CYS622 
 ASP623  PHE694  ASN695  SER759  ASP760  ASP761  ALA762  ILE779  LEU786  VAL792 
 PHE793  MET794  SER795  GLU796  ALA797  LYS798  CYS799  TRP800  GLU811  SER814 

> <Gold.Protein.RotatedAtoms>
  152.1719  133.4649  159.4913 H   0  0  0  0  0  0  0  0  0  0  0  0  # atno 6907 bound_to 6896
  150.6921  134.1943  159.4306 H   0  0  0  0  0  0  0  0  0  0  0  0  # atno 6908 bound_to 6896
  151.9850  135.0008  160.0610 H   0  0  0  0  0  0  0  0  0  0  0  0  # atno 6909 bound_to 6896
  144.8921  139.5543  143.5793 H   0  0  0  0  0  0  0  0  0  0  0  0  # atno 7974 bound_to 7965
  154.4066  140.1622  156.2427 H   0  0  0  0  0  0  0  0  0  0  0  0  # atno 8008 bound_to 7997
  155.9187  140.3422  155.6133 H   0  0  0  0  0  0  0  0  0  0  0  0  # atno 8009 bound_to 7997
  155.7248  140.0773  157.2305 H   0  0  0  0  0  0  0  0  0  0  0  0  # atno 8010 bound_to 7997
  139.7555  143.8454  152.2596 H   0  0  0  0  0  0  0  0  0  0  0  0  # atno 10167 bound_to 10162
  157.6891  131.0647  150.4830 H   0  0  0  0  0  0  0  0  0  0  0  0  # atno 10718 bound_to 10713
  153.8213  135.6874  153.4827 H   0  0  0  0  0  0  0  0  0  0  0  0  # atno 10763 bound_to 10752
  153.1567  135.4596  154.9713 H   0  0  0  0  0  0  0  0  0  0  0  0  # atno 10764 bound_to 10752
  154.7926  135.3307  154.7685 H   0  0  0  0  0  0  0  0  0  0  0  0  # atno 10765 bound_to 10752
  140.9952  134.0482  157.3606 H   0  0  0  0  0  0  0  0  0  0  0  0  # atno 11005 bound_to 11000
  146.3060  139.7581  142.9056 LP  0  0  0  0  0  0  0  0  0  0  0  0  # atno 17320 bound_to 7965
  145.3765  141.0351  143.3202 LP  0  0  0  0  0  0  0  0  0  0  0  0  # atno 17321 bound_to 7965
  139.8445  144.7194  150.9290 LP  0  0  0  0  0  0  0  0  0  0  0  0  # atno 17342 bound_to 10162
  140.7802  143.3954  151.1239 LP  0  0  0  0  0  0  0  0  0  0  0  0  # atno 17343 bound_to 10162
  156.5161  130.4151  149.6275 LP  0  0  0  0  0  0  0  0  0  0  0  0  # atno 17370 bound_to 10713
  156.3196  130.7273  151.2183 LP  0  0  0  0  0  0  0  0  0  0  0  0  # atno 17371 bound_to 10713
  139.9011  135.0165  156.7273 LP  0  0  0  0  0  0  0  0  0  0  0  0  # atno 17394 bound_to 11000
  140.6977  133.9334  155.8005 LP  0  0  0  0  0  0  0  0  0  0  0  0  # atno 17395 bound_to 11000

$$$$
