AV-unprocessed.smi:711|AV-procd|sdf|3467|dock5
  -GOLD-   22720 0453D 1   1.00000     0.00000
 Structure written by MMmdl.
 28 29  0  0  0  0  0  0  0  0  2 V2000
  151.1343  134.5859  156.6799 O   0  0  0  0  0  0  0  0  0  0  0  0
  151.2919  135.7971  156.8265 C   0  0  0  0  0  0  0  0  0  0  0  0
  152.3391  136.4759  156.2732 N   0  5  0  0  0  0  0  0  0  0  0  0
  152.5300  137.8233  156.4216 C   0  0  0  0  0  0  0  0  0  0  0  0
  153.4844  138.4108  155.9121 O   0  0  0  0  0  0  0  0  0  0  0  0
  151.6285  138.5373  157.1587 N   0  0  0  0  0  0  0  0  0  0  0  0
  151.7514  139.9861  157.3746 C   0  0  0  0  0  0  0  0  0  0  0  0
  152.3904  140.3178  158.7396 C   0  0  1  0  0  0  0  0  0  0  0  0
  153.7519  139.9354  158.7162 O   0  0  0  0  0  0  0  0  0  0  0  0
  152.2323  141.7989  159.0610 C   0  0  0  0  0  0  0  0  0  0  0  0
  151.5546  142.6566  158.1651 C   0  0  0  0  0  0  0  0  0  0  0  0
  151.3946  144.0224  158.4688 C   0  0  0  0  0  0  0  0  0  0  0  0
  151.9071  144.5401  159.6731 C   0  0  0  0  0  0  0  0  0  0  0  0
  151.7522  145.8528  159.9669 F   0  0  0  0  0  0  0  0  0  0  0  0
  152.5773  143.6908  160.5736 C   0  0  0  0  0  0  0  0  0  0  0  0
  152.7380  142.3242  160.2722 C   0  0  0  0  0  0  0  0  0  0  0  0
  153.3758  141.5203  161.1570 F   0  0  0  0  0  0  0  0  0  0  0  0
  150.5352  137.8856  157.7546 C   0  0  0  0  0  0  0  0  0  0  0  0
  150.3321  136.5607  157.6211 C   0  0  0  0  0  0  0  0  0  0  0  0
  148.9802  135.7862  158.3678 Cl  0  0  0  0  0  0  0  0  0  0  0  0
  152.2765  140.4919  156.5621 H   0  0  0  0  0  0  0  0  0  0  0  0
  150.7418  140.3994  157.3459 H   0  0  0  0  0  0  0  0  0  0  0  0
  151.9084  139.7365  159.5262 H   0  0  0  0  0  0  0  0  0  0  0  0
  153.9833  139.5961  159.5670 H   0  0  0  0  0  0  0  0  0  0  0  0
  151.1498  142.2691  157.2415 H   0  0  0  0  0  0  0  0  0  0  0  0
  150.8762  144.6714  157.7786 H   0  0  0  0  0  0  0  0  0  0  0  0
  152.9666  144.0878  161.4994 H   0  0  0  0  0  0  0  0  0  0  0  0
  149.8799  138.5267  158.3265 H   0  0  0  0  0  0  0  0  0  0  0  0
  1  2  2  0  0  0  0
  2 19  1  0  0  0  0
  2  3  1  0  0  0  0
  3  4  1  0  0  0  0
  4  5  2  0  0  0  0
  4  6  1  0  0  0  0
  6  7  1  0  0  0  0
  6 18  1  0  0  0  0
  7  8  1  0  0  0  0
  7 21  1  0  0  0  0
  7 22  1  0  0  0  0
  8  9  1  0  0  0  0
  8 10  1  0  0  0  0
  8 23  1  0  0  0  0
  9 24  1  0  0  0  0
 10 16  1  0  0  0  0
 10 11  2  0  0  0  0
 11 12  1  0  0  0  0
 11 25  1  0  0  0  0
 12 13  2  0  0  0  0
 12 26  1  0  0  0  0
 13 14  1  0  0  0  0
 13 15  1  0  0  0  0
 15 16  2  0  0  0  0
 15 27  1  0  0  0  0
 16 17  1  0  0  0  0
 18 19  2  0  0  0  0
 18 28  1  0  0  0  0
 19 20  1  0  0  0  0
M  CHG  1   3  -1
M  END
> <s_m_source_file>
AV-unprocessed.smi

> <i_m_source_file_index>
711

> <i_lp_mmshare_version>
43012

> <i_f3d_flags>
0

> <s_epik_input>
Tz1jMVtuSF1jKD1PKW4oW2NIXWMxQ2wpW0NIMl1bQ0BIXShbT0hdKWMyW2NIXVtjSF1jKEYpW2NIXWMyRg==

> <s_epik_cmdline>
J2VwaWtfcHl0aG9uJywgJy1waCcsICc3LjAnLCAnLXRuJywgJzgnLCAnLW1hJywgJzIwMCcsICctbWV0YWxfYmluZGluZycsICctaW1hZScsICc8aW5maWxlLm1hZT4nLCAnLW9tYWUnLCAnPG91dGZpbGUubWFlPic=

> <r_epik_Ionization_Penalty>
1.7979

> <r_epik_Ionization_Penalty_Charging>
3.23819e-08

> <r_epik_Ionization_Penalty_Neutral>
1.7979

> <r_epik_State_Penalty>
1.91135

> <r_epik_Charging_Adjusted_Penalty>
1.91135

> <i_epik_Tot_Q>
-1

> <i_epik_Tot_abs_Q>
1

> <r_epik_Metal_State_Penalty>
0.014155

> <b_epik_Metal_Only>
0

> <s_lp_Force_Field>
OPLS_2005

> <r_lp_Energy>
21.7913

> <b_lp_Chiralities_Consistent>
1

> <s_lp_Variant>
AV-unprocessed.smi:711-4

> <Gold.Version>
5.8.1

> <Gold.Id.Protein>
6NUR|6NUR_protein|mol2

> <Gold.PLP.Fitness>
48.1429

> <Gold.PLP.PLP>
-39.3405

> <Gold.PLP.part.hbond>
-3.0738

> <Gold.PLP.part.metal>
0.0000

> <Gold.PLP.part.buried>
-3.9366

> <Gold.PLP.part.nonpolar>
-31.6001

> <Gold.PLP.part.repulsive>
0.0000

> <Gold.PLP.ligand.clash>
0.0000

> <Gold.PLP.ligand.torsion>
0.3660

> <Gold.PLP.Chemscore.Hbond>
3.1748

> <Gold.PLP.Chemscore.CHOScore>
0.0000

> <Gold.PLP.Chemscore.Metal>
0.0000

> <Gold.Chemscore.Hbonds>
donor molecule, donor type, donor heavy atom, donor atom, acceptor molecule, acceptor atom, score
      P1  H  7997  8008       L1     9  0.96
      P1  H  7997  8009       L1     5  0.19
      P1  H 10752 10763       L1     3  2.00

> <Gold.PLP.Chemscore.Internal.Correction>
0.0100

> <Gold.Rescore>
     Score         DG    S(hbond)    S(metal)    S(lipo)     H(rot)  DE(clash)    DE(int)     intcor
     14.91     -16.58       2.03        0.00      87.69       2.32       0.03       1.64       ----

> <Gold.Chemscore.Fitness>
14.9125

> <Gold.Chemscore.DG>
-16.5846

> <Gold.Chemscore.ZeroCoef>
-5.4800

> <Gold.Chemscore.Hbond>
2.0286

> <Gold.Chemscore.Metal>
0.0000

> <Gold.Chemscore.Lipo>
87.6854

> <Gold.Chemscore.Internal_Hbond>
0.0000

> <Gold.Chemscore.DEClash>
0.0291

> <Gold.Chemscore.DEInternal>
1.6429

> <Gold.Chemscore.Rot>
2.3164

> <Gold.Chemscore.Internal.Correction>
   9.000000E+99

> <Gold.Chemscore.Hbonds>
donor molecule, donor type, donor heavy atom, donor atom, acceptor molecule, acceptor atom, score
      P1  H  7997  8008       L1     9  0.91
      P1  H  7997  8009       L1     5  0.19
      P1  H 10752 10763       L1     3  0.81

> <Gold.Chemscore.Hbond.Weighted>
-6.7755

> <Gold.Chemscore.Metal.Weighted>
-0.0000

> <Gold.Chemscore.Lipo.Weighted>
-10.2592

> <Gold.Chemscore.Internal_Hbond.Weighted>
0.0000

> <Gold.Chemscore.DEClash.Weighted>
0.0291

> <Gold.Chemscore.DEInternal.Weighted>
1.6429

> <Gold.Chemscore.Rot.Weighted>
5.9301

> <Gold.Chemscore.Internal.Correction.Weighted>
   9.000000E+99

> <Gold.Protein.RotatedTorsions>
[ 6907 6896 6895 6894 ] final -109.07 input  -60.11 | X-H torsion
[ 7974 7965 7964 7962 ] final -142.69 input  175.53 | X-H torsion
[ 8008 7997 7996 7995 ] final -113.06 input   59.86 | X-H torsion
[ 10167 10162 10161 10158 ] final -148.53 input  -65.29 | X-H torsion
[ 10718 10713 10712 10709 ] final -102.37 input   66.30 | X-H torsion
[ 10763 10752 10751 10750 ] final  101.91 input  -60.55 | X-H torsion
[ 11005 11000 10999 10996 ] final  111.15 input  -57.11 | X-H torsion

> <Gold.Protein.ActiveResidues>
 VAL166  LYS551  ARG553  GLY616  TRP617  ASP618  TYR619  PRO620  LYS621  CYS622 
 ASP623  PHE694  ASN695  SER759  ASP760  ASP761  ALA762  ILE779  LEU786  VAL792 
 PHE793  MET794  SER795  GLU796  ALA797  LYS798  CYS799  TRP800  GLU811  SER814 

> <Gold.Protein.RotatedAtoms>
  150.7540  133.9583  159.3507 H   0  0  0  0  0  0  0  0  0  0  0  0  # atno 6907 bound_to 6896
  151.7506  135.0831  160.0339 H   0  0  0  0  0  0  0  0  0  0  0  0  # atno 6908 bound_to 6896
  152.3468  133.6095  159.5952 H   0  0  0  0  0  0  0  0  0  0  0  0  # atno 6909 bound_to 6896
  144.8425  140.5927  143.5443 H   0  0  0  0  0  0  0  0  0  0  0  0  # atno 7974 bound_to 7965
  155.0148  140.0393  157.2414 H   0  0  0  0  0  0  0  0  0  0  0  0  # atno 8008 bound_to 7997
  154.7429  140.2752  155.6335 H   0  0  0  0  0  0  0  0  0  0  0  0  # atno 8009 bound_to 7997
  156.2868  140.2662  156.2161 H   0  0  0  0  0  0  0  0  0  0  0  0  # atno 8010 bound_to 7997
  139.7523  143.8499  152.2589 H   0  0  0  0  0  0  0  0  0  0  0  0  # atno 10167 bound_to 10162
  156.0226  130.5417  150.7099 H   0  0  0  0  0  0  0  0  0  0  0  0  # atno 10718 bound_to 10713
  153.3328  135.4028  155.1509 H   0  0  0  0  0  0  0  0  0  0  0  0  # atno 10763 bound_to 10752
  154.8627  135.3614  154.5448 H   0  0  0  0  0  0  0  0  0  0  0  0  # atno 10764 bound_to 10752
  153.5888  135.7074  153.5491 H   0  0  0  0  0  0  0  0  0  0  0  0  # atno 10765 bound_to 10752
  139.8897  134.9501  156.6389 H   0  0  0  0  0  0  0  0  0  0  0  0  # atno 11005 bound_to 11000
  145.4665  139.1507  143.3837 LP  0  0  0  0  0  0  0  0  0  0  0  0  # atno 17320 bound_to 7965
  146.2715  140.4797  142.8812 LP  0  0  0  0  0  0  0  0  0  0  0  0  # atno 17321 bound_to 7965
  139.8481  144.7178  150.9248 LP  0  0  0  0  0  0  0  0  0  0  0  0  # atno 17342 bound_to 10162
  140.7799  143.3923  151.1288 LP  0  0  0  0  0  0  0  0  0  0  0  0  # atno 17343 bound_to 10162
  157.4739  131.0896  151.0611 LP  0  0  0  0  0  0  0  0  0  0  0  0  # atno 17370 bound_to 10713
  157.1064  130.6003  149.5472 LP  0  0  0  0  0  0  0  0  0  0  0  0  # atno 17371 bound_to 10713
  140.7609  133.8818  155.8417 LP  0  0  0  0  0  0  0  0  0  0  0  0  # atno 17394 bound_to 11000
  140.9923  134.1262  157.4397 LP  0  0  0  0  0  0  0  0  0  0  0  0  # atno 17395 bound_to 11000

$$$$
