AV-unprocessed.smi:3029|AV-procd|sdf|11528|dock5
  -GOLD-   2272016473D 1   1.00000     0.00000
 Structure written by MMmdl.
 42 43  0  0  0  0  0  0  0  0  4 V2000
  146.8558  140.6701  154.7266 O   0  0  0  0  0  0  0  0  0  0  0  0
  148.0101  140.2500  154.6457 C   0  0  0  0  0  0  0  0  0  0  0  0
  149.1703  141.0904  154.9593 C   0  0  0  0  0  0  0  0  0  0  0  0
  150.4310  140.6271  154.8484 C   0  0  0  0  0  0  0  0  0  0  0  0
  150.6791  139.2678  154.4077 C   0  0  0  0  0  0  0  0  0  0  0  0
  152.0279  138.7650  154.2674 N   0  3  0  0  0  0  0  0  0  0  0  0
  152.9586  139.5638  154.2207 O   0  0  0  0  0  0  0  0  0  0  0  0
  152.1996  137.5523  154.2013 O   0  5  0  0  0  0  0  0  0  0  0  0
  149.6109  138.4950  154.1286 C   0  0  0  0  0  0  0  0  0  0  0  0
  148.2912  138.9707  154.2530 N   0  0  0  0  0  0  0  0  0  0  0  0
  147.2097  138.0350  153.9175 C   0  0  0  0  0  0  0  0  0  0  0  0
  147.1720  136.8468  154.8920 C   0  0  0  0  0  0  0  0  0  0  0  0
  147.9105  135.6921  154.3401 N   0  3  0  0  0  0  0  0  0  0  0  0
  147.0764  134.5308  153.9518 C   0  0  1  0  0  0  0  0  0  0  0  0
  145.9876  134.9819  152.9509 C   0  0  0  0  0  0  0  0  0  0  0  0
  145.1243  133.8104  152.4676 C   0  0  0  0  0  0  0  0  0  0  0  0
  145.9961  132.7155  151.8457 C   0  0  0  0  0  0  0  0  0  0  0  0
  147.0595  132.2371  152.8426 C   0  0  0  0  0  0  0  0  0  0  0  0
  147.9536  133.3915  153.3545 C   0  0  2  0  0  0  0  0  0  0  0  0
  149.0085  132.8424  154.3493 C   0  0  0  0  0  0  0  0  0  0  0  0
  149.9179  133.7753  154.6317 F   0  0  0  0  0  0  0  0  0  0  0  0
  148.4140  132.4677  155.4821 F   0  0  0  0  0  0  0  0  0  0  0  0
  149.6321  131.7742  153.8531 F   0  0  0  0  0  0  0  0  0  0  0  0
  149.0084  142.1067  155.2883 H   0  0  0  0  0  0  0  0  0  0  0  0
  151.2536  141.2835  155.0918 H   0  0  0  0  0  0  0  0  0  0  0  0
  149.6894  137.4720  153.7889 H   0  0  0  0  0  0  0  0  0  0  0  0
  146.2490  138.5524  153.9325 H   0  0  0  0  0  0  0  0  0  0  0  0
  147.3209  137.6763  152.8922 H   0  0  0  0  0  0  0  0  0  0  0  0
  147.6177  137.1303  155.8464 H   0  0  0  0  0  0  0  0  0  0  0  0
  146.1371  136.5675  155.0894 H   0  0  0  0  0  0  0  0  0  0  0  0
  148.4521  135.9898  153.5413 H   0  0  0  0  0  0  0  0  0  0  0  0
  146.5887  134.1430  154.8476 H   0  0  0  0  0  0  0  0  0  0  0  0
  145.3364  135.7302  153.4021 H   0  0  0  0  0  0  0  0  0  0  0  0
  146.4553  135.4622  152.0901 H   0  0  0  0  0  0  0  0  0  0  0  0
  144.5569  133.4006  153.3043 H   0  0  0  0  0  0  0  0  0  0  0  0
  144.3928  134.1623  151.7395 H   0  0  0  0  0  0  0  0  0  0  0  0
  145.3733  131.8761  151.5346 H   0  0  0  0  0  0  0  0  0  0  0  0
  146.4790  133.0940  150.9438 H   0  0  0  0  0  0  0  0  0  0  0  0
  146.5671  131.7506  153.6856 H   0  0  0  0  0  0  0  0  0  0  0  0
  147.6707  131.4713  152.3641 H   0  0  0  0  0  0  0  0  0  0  0  0
  148.4898  133.7950  152.4938 H   0  0  0  0  0  0  0  0  0  0  0  0
  148.5483  135.3799  155.0589 H   0  0  0  0  0  0  0  0  0  0  0  0
  1  2  2  0  0  0  0
  2 10  1  0  0  0  0
  2  3  1  0  0  0  0
  3  4  2  0  0  0  0
  3 24  1  0  0  0  0
  4  5  1  0  0  0  0
  4 25  1  0  0  0  0
  5  6  1  0  0  0  0
  5  9  2  0  0  0  0
  6  7  2  0  0  0  0
  6  8  1  0  0  0  0
  9 10  1  0  0  0  0
  9 26  1  0  0  0  0
 10 11  1  0  0  0  0
 11 12  1  0  0  0  0
 11 27  1  0  0  0  0
 11 28  1  0  0  0  0
 12 13  1  0  0  0  0
 12 29  1  0  0  0  0
 12 30  1  0  0  0  0
 13 14  1  0  0  0  0
 13 31  1  0  0  0  0
 13 42  1  0  0  0  0
 14 19  1  0  0  0  0
 14 15  1  0  0  0  0
 14 32  1  0  0  0  0
 15 16  1  0  0  0  0
 15 33  1  0  0  0  0
 15 34  1  0  0  0  0
 16 17  1  0  0  0  0
 16 35  1  0  0  0  0
 16 36  1  0  0  0  0
 17 18  1  0  0  0  0
 17 37  1  0  0  0  0
 17 38  1  0  0  0  0
 18 19  1  0  0  0  0
 18 39  1  0  0  0  0
 18 40  1  0  0  0  0
 19 20  1  0  0  0  0
 19 41  1  0  0  0  0
 20 21  1  0  0  0  0
 20 22  1  0  0  0  0
 20 23  1  0  0  0  0
M  CHG  1   6   1
M  CHG  1   8  -1
M  CHG  1  13   1
M  END
> <s_m_source_file>
AV-unprocessed.smi

> <i_m_source_file_index>
3029

> <i_lp_mmshare_version>
43012

> <i_f3d_flags>
0

> <s_epik_input>
Tz1jMVtjSF1bY0hdYyhbTitdKD1PKVtPLV0pW2NIXW4xW0NIMl1bQ0gyXVtOSF1bQ0BASF0yW0NIMl1bQ0gyXVtDSDJdW0NIMl1bQ0BIXTJDKEYpKEYpRg==

> <s_epik_cmdline>
J2VwaWtfcHl0aG9uJywgJy1waCcsICc3LjAnLCAnLXRuJywgJzgnLCAnLW1hJywgJzIwMCcsICctbWV0YWxfYmluZGluZycsICctaW1hZScsICc8aW5maWxlLm1hZT4nLCAnLW9tYWUnLCAnPG91dGZpbGUubWFlPic=

> <r_lp_tautomer_probability>
1

> <r_epik_Ionization_Penalty>
0.037386

> <r_epik_Ionization_Penalty_Charging>
0.037386

> <r_epik_Ionization_Penalty_Neutral>
0

> <r_epik_State_Penalty>
0.0312892

> <r_epik_Charging_Adjusted_Penalty>
0.0686752

> <i_epik_Tot_Q>
1

> <i_epik_Tot_abs_Q>
3

> <r_epik_Metal_State_Penalty>
0.0312892

> <b_epik_Metal_Only>
0

> <s_lp_Force_Field>
OPLS_2005

> <r_lp_Energy>
31.4453

> <b_lp_Chiralities_Consistent>
1

> <s_lp_Variant>
AV-unprocessed.smi:3029-4

> <Gold.Version>
5.8.1

> <Gold.Id.Protein>
6NUR|6NUR_protein|mol2

> <Gold.PLP.Fitness>
49.9150

> <Gold.PLP.PLP>
-37.0151

> <Gold.PLP.part.hbond>
-4.0000

> <Gold.PLP.part.metal>
0.0000

> <Gold.PLP.part.buried>
-1.5656

> <Gold.PLP.part.nonpolar>
-31.5969

> <Gold.PLP.part.repulsive>
0.2328

> <Gold.PLP.ligand.clash>
0.0000

> <Gold.PLP.ligand.torsion>
0.8656

> <Gold.PLP.Chemscore.Hbond>
3.8408

> <Gold.PLP.Chemscore.CHOScore>
1.0000

> <Gold.PLP.Chemscore.Metal>
0.0000

> <Gold.Chemscore.Hbonds>
donor molecule, donor type, donor heavy atom, donor atom, acceptor molecule, acceptor atom, score
      L1  H    13    31       P1  7948  2.00
      P1  H  7989  7998       L1     7  0.12
      P1  H  7997  8008       L1     7  0.32
      P1  H 10752 10765       L1     8  0.71
      L1  C     9    26       P1  7948  1.00

> <Gold.PLP.Chemscore.Internal.Correction>
0.1087

> <Gold.Rescore>
     Score         DG    S(hbond)    S(metal)    S(lipo)     H(rot)  DE(clash)    DE(int)     intcor
     15.28     -17.61       2.82        0.00      64.75       1.90       0.11       2.22       ----

> <Gold.Chemscore.Fitness>
15.2767

> <Gold.Chemscore.DG>
-17.6051

> <Gold.Chemscore.ZeroCoef>
-5.4800

> <Gold.Chemscore.Hbond>
2.8212

> <Gold.Chemscore.Metal>
0.0000

> <Gold.Chemscore.Lipo>
64.7518

> <Gold.Chemscore.Internal_Hbond>
0.0000

> <Gold.Chemscore.DEClash>
0.1084

> <Gold.Chemscore.DEInternal>
2.2200

> <Gold.Chemscore.Rot>
1.9037

> <Gold.Chemscore.Internal.Correction>
   9.000000E+99

> <Gold.Chemscore.Hbonds>
donor molecule, donor type, donor heavy atom, donor atom, acceptor molecule, acceptor atom, score
      L1  H    13    31       P1  7948  1.00
      P1  H  7997  8008       L1     7  0.33
      P1  H 10752 10765       L1     8  0.66

> <Gold.Chemscore.Hbond.Weighted>
-9.4227

> <Gold.Chemscore.Metal.Weighted>
-0.0000

> <Gold.Chemscore.Lipo.Weighted>
-7.5760

> <Gold.Chemscore.Internal_Hbond.Weighted>
0.0000

> <Gold.Chemscore.DEClash.Weighted>
0.1084

> <Gold.Chemscore.DEInternal.Weighted>
2.2200

> <Gold.Chemscore.Rot.Weighted>
4.8736

> <Gold.Chemscore.Internal.Correction.Weighted>
   9.000000E+99

> <Gold.Protein.RotatedTorsions>
[ 6907 6896 6895 6894 ] final  -78.36 input  -60.11 | X-H torsion
[ 7974 7965 7964 7962 ] final   49.33 input  175.53 | X-H torsion
[ 8008 7997 7996 7995 ] final    0.90 input   59.86 | X-H torsion
[ 10167 10162 10161 10158 ] final   28.03 input  -65.29 | X-H torsion
[ 10718 10713 10712 10709 ] final   14.17 input   66.30 | X-H torsion
[ 10763 10752 10751 10750 ] final  169.50 input  -60.55 | X-H torsion
[ 11005 11000 10999 10996 ] final  142.51 input  -57.11 | X-H torsion

> <Gold.Protein.ActiveResidues>
 VAL166  LYS551  ARG553  GLY616  TRP617  ASP618  TYR619  PRO620  LYS621  CYS622 
 ASP623  PHE694  ASN695  SER759  ASP760  ASP761  ALA762  ILE779  LEU786  VAL792 
 PHE793  MET794  SER795  GLU796  ALA797  LYS798  CYS799  TRP800  GLU811  SER814 

> <Gold.Protein.RotatedAtoms>
  150.6975  134.4283  159.5236 H   0  0  0  0  0  0  0  0  0  0  0  0  # atno 6907 bound_to 6896
  152.2014  134.8581  160.0516 H   0  0  0  0  0  0  0  0  0  0  0  0  # atno 6908 bound_to 6896
  151.9500  133.3628  159.4033 H   0  0  0  0  0  0  0  0  0  0  0  0  # atno 6909 bound_to 6896
  146.0119  139.4553  142.9951 H   0  0  0  0  0  0  0  0  0  0  0  0  # atno 7974 bound_to 7965
  154.6734  140.2617  155.6983 H   0  0  0  0  0  0  0  0  0  0  0  0  # atno 8008 bound_to 7997
  156.2668  140.2825  156.1174 H   0  0  0  0  0  0  0  0  0  0  0  0  # atno 8009 bound_to 7997
  155.1135  140.0376  157.2721 H   0  0  0  0  0  0  0  0  0  0  0  0  # atno 8010 bound_to 7997
  140.4887  144.0501  150.6289 H   0  0  0  0  0  0  0  0  0  0  0  0  # atno 10167 bound_to 10162
  157.0353  130.6209  149.5742 H   0  0  0  0  0  0  0  0  0  0  0  0  # atno 10718 bound_to 10713
  154.3841  135.2753  155.2194 H   0  0  0  0  0  0  0  0  0  0  0  0  # atno 10763 bound_to 10752
  154.4288  135.5982  153.6059 H   0  0  0  0  0  0  0  0  0  0  0  0  # atno 10764 bound_to 10752
  152.9833  135.5990  154.4087 H   0  0  0  0  0  0  0  0  0  0  0  0  # atno 10765 bound_to 10752
  140.0482  134.9269  157.0969 H   0  0  0  0  0  0  0  0  0  0  0  0  # atno 11005 bound_to 11000
  145.7328  141.0036  143.1342 LP  0  0  0  0  0  0  0  0  0  0  0  0  # atno 17320 bound_to 7965
  144.6956  139.9005  143.7458 LP  0  0  0  0  0  0  0  0  0  0  0  0  # atno 17321 bound_to 7965
  140.3764  143.2826  152.0220 LP  0  0  0  0  0  0  0  0  0  0  0  0  # atno 17342 bound_to 10162
  139.4847  144.6190  151.7292 LP  0  0  0  0  0  0  0  0  0  0  0  0  # atno 17343 bound_to 10162
  156.0056  130.5142  150.7817 LP  0  0  0  0  0  0  0  0  0  0  0  0  # atno 17370 bound_to 10713
  157.5146  131.0928  151.0155 LP  0  0  0  0  0  0  0  0  0  0  0  0  # atno 17371 bound_to 10713
  140.3959  134.2134  155.7164 LP  0  0  0  0  0  0  0  0  0  0  0  0  # atno 17394 bound_to 11000
  141.1917  133.8188  157.0867 LP  0  0  0  0  0  0  0  0  0  0  0  0  # atno 17395 bound_to 11000

$$$$
