AV-unprocessed.smi:618|AV-procd|sdf|3076|dock6
  -GOLD-   22720 0 03D 1   1.00000     0.00000
 Structure written by MMmdl.
 41 43  0  0  0  0  0  0  0  0  2 V2000
  146.4905  139.0355  154.4032 O   0  0  0  0  0  0  0  0  0  0  0  0
  147.2117  138.4198  153.6187 C   0  0  0  0  0  0  0  0  0  0  0  0
  146.7453  137.5202  152.7417 N   0  0  0  0  0  0  0  0  0  0  0  0
  145.3412  137.1565  152.5829 C   0  0  0  0  0  0  0  0  0  0  0  0
  145.1750  135.6932  152.1361 C   0  0  2  0  0  0  0  0  0  0  0  0
  145.7770  135.4456  150.7399 C   0  0  0  0  0  0  0  0  0  0  0  0
  145.5030  134.0718  150.2571 N   0  3  1  0  0  0  0  0  0  0  0  0
  146.3798  133.0014  150.7817 C   0  0  0  0  0  0  0  0  0  0  0  0
  145.5258  131.7244  150.8206 C   0  0  0  0  0  0  0  0  0  0  0  0
  144.1708  132.1202  150.2243 C   0  0  0  0  0  0  0  0  0  0  0  0
  144.1017  133.6348  150.4245 C   0  0  1  0  0  0  0  0  0  0  0  0
  143.5543  134.0157  151.8190 C   0  0  0  0  0  0  0  0  0  0  0  0
  143.7850  135.3928  152.0798 O   0  0  0  0  0  0  0  0  0  0  0  0
  148.5470  138.5391  153.5282 N   0  0  0  0  0  0  0  0  0  0  0  0
  149.4119  139.3958  154.2613 C   0  0  0  0  0  0  0  0  0  0  0  0
  148.8757  140.5970  154.7693 C   0  0  0  0  0  0  0  0  0  0  0  0
  149.7032  141.4577  155.5149 C   0  0  0  0  0  0  0  0  0  0  0  0
  151.0412  141.0768  155.7330 C   0  0  0  0  0  0  0  0  0  0  0  0
  151.5675  139.9244  155.2676 N   0  0  0  0  0  0  0  0  0  0  0  0
  150.7684  139.1045  154.5511 C   0  0  0  0  0  0  0  0  0  0  0  0
  147.4070  137.0569  152.1358 H   0  0  0  0  0  0  0  0  0  0  0  0
  144.8345  137.3190  153.5346 H   0  0  0  0  0  0  0  0  0  0  0  0
  144.8710  137.8287  151.8631 H   0  0  0  0  0  0  0  0  0  0  0  0
  145.6620  135.0423  152.8642 H   0  0  0  0  0  0  0  0  0  0  0  0
  145.3348  136.1429  150.0271 H   0  0  0  0  0  0  0  0  0  0  0  0
  146.8513  135.6333  150.7358 H   0  0  0  0  0  0  0  0  0  0  0  0
  147.2508  132.8890  150.1356 H   0  0  0  0  0  0  0  0  0  0  0  0
  146.7398  133.2398  151.7834 H   0  0  0  0  0  0  0  0  0  0  0  0
  145.9857  130.9032  150.2700 H   0  0  0  0  0  0  0  0  0  0  0  0
  145.3996  131.3956  151.8529 H   0  0  0  0  0  0  0  0  0  0  0  0
  144.1652  131.8944  149.1569 H   0  0  0  0  0  0  0  0  0  0  0  0
  143.3342  131.5869  150.6776 H   0  0  0  0  0  0  0  0  0  0  0  0
  143.4836  134.1038  149.6579 H   0  0  0  0  0  0  0  0  0  0  0  0
  142.4823  133.8231  151.8632 H   0  0  0  0  0  0  0  0  0  0  0  0
  144.0099  133.4142  152.6076 H   0  0  0  0  0  0  0  0  0  0  0  0
  149.0066  137.9055  152.8907 H   0  0  0  0  0  0  0  0  0  0  0  0
  147.8436  140.8606  154.5881 H   0  0  0  0  0  0  0  0  0  0  0  0
  149.3217  142.3871  155.9110 H   0  0  0  0  0  0  0  0  0  0  0  0
  151.7049  141.7116  156.3011 H   0  0  0  0  0  0  0  0  0  0  0  0
  151.2391  138.1886  154.2300 H   0  0  0  0  0  0  0  0  0  0  0  0
  145.6710  134.0771  149.2610 H   0  0  0  0  0  0  0  0  0  0  0  0
  1  2  2  0  0  0  0
  2  3  1  0  0  0  0
  2 14  1  0  0  0  0
  3  4  1  0  0  0  0
  3 21  1  0  0  0  0
  4  5  1  0  0  0  0
  4 22  1  0  0  0  0
  4 23  1  0  0  0  0
  5 13  1  0  0  0  0
  5  6  1  0  0  0  0
  5 24  1  0  0  0  0
  6  7  1  0  0  0  0
  6 25  1  0  0  0  0
  6 26  1  0  0  0  0
  7 11  1  0  0  0  0
  7  8  1  0  0  0  0
  7 41  1  0  0  0  0
  8  9  1  0  0  0  0
  8 27  1  0  0  0  0
  8 28  1  0  0  0  0
  9 10  1  0  0  0  0
  9 29  1  0  0  0  0
  9 30  1  0  0  0  0
 10 11  1  0  0  0  0
 10 31  1  0  0  0  0
 10 32  1  0  0  0  0
 11 12  1  0  0  0  0
 11 33  1  0  0  0  0
 12 13  1  0  0  0  0
 12 34  1  0  0  0  0
 12 35  1  0  0  0  0
 14 15  1  0  0  0  0
 14 36  1  0  0  0  0
 15 20  1  0  0  0  0
 15 16  2  0  0  0  0
 16 17  1  0  0  0  0
 16 37  1  0  0  0  0
 17 18  2  0  0  0  0
 17 38  1  0  0  0  0
 18 19  1  0  0  0  0
 18 39  1  0  0  0  0
 19 20  2  0  0  0  0
 20 40  1  0  0  0  0
M  CHG  1   7   1
M  END
> <s_m_source_file>
AV-unprocessed.smi

> <i_m_source_file_index>
618

> <i_lp_mmshare_version>
43012

> <i_f3d_flags>
0

> <s_epik_input>
W2NIXTFuW2NIXVtjSF1bY0hdYzFbTkhdQyg9TylbTkhdW0NIMl1bQ0BIXShbQ0gyXTIpT1tDSDJdW0NAQEhdKE4yMylbQ0gyXVtDSDJdW0NIMl0z

> <s_epik_cmdline>
J2VwaWtfcHl0aG9uJywgJy1waCcsICc3LjAnLCAnLXRuJywgJzgnLCAnLW1hJywgJzIwMCcsICctbWV0YWxfYmluZGluZycsICctaW1hZScsICc8aW5maWxlLm1hZT4nLCAnLW9tYWUnLCAnPG91dGZpbGUubWFlPic=

> <r_epik_Ionization_Penalty>
0.111044

> <r_epik_Ionization_Penalty_Charging>
0.10673

> <r_epik_Ionization_Penalty_Neutral>
0.00431361

> <r_epik_State_Penalty>
0.0978747

> <r_epik_Charging_Adjusted_Penalty>
0.204605

> <i_epik_Tot_Q>
1

> <i_epik_Tot_abs_Q>
1

> <r_epik_Metal_State_Penalty>
0.0947591

> <b_epik_Metal_Only>
0

> <s_lp_Force_Field>
OPLS_2005

> <r_lp_Energy>
38.5016

> <b_lp_Chiralities_Consistent>
1

> <s_lp_Variant>
AV-unprocessed.smi:618-3

> <Gold.Version>
5.8.1

> <Gold.Id.Protein>
6NUR|6NUR_protein|mol2

> <Gold.PLP.Fitness>
46.3669

> <Gold.PLP.PLP>
-38.0382

> <Gold.PLP.part.hbond>
-5.0000

> <Gold.PLP.part.metal>
0.0000

> <Gold.PLP.part.buried>
-4.8699

> <Gold.PLP.part.nonpolar>
-29.1879

> <Gold.PLP.part.repulsive>
0.4380

> <Gold.PLP.ligand.clash>
0.0000

> <Gold.PLP.ligand.torsion>
0.3546

> <Gold.PLP.Chemscore.Hbond>
3.0124

> <Gold.PLP.Chemscore.CHOScore>
0.0000

> <Gold.PLP.Chemscore.Metal>
0.0000

> <Gold.Chemscore.Hbonds>
donor molecule, donor type, donor heavy atom, donor atom, acceptor molecule, acceptor atom, score
      L1  H     3    21       P1  7948  1.00
      L1  H     7    41       P1  7921  1.00
      L1  H    14    36       P1  7948  1.00
      P1  H  7989  7998       L1    19  0.01

> <Gold.PLP.Chemscore.Internal.Correction>
0.0007

> <Gold.Rescore>
     Score         DG    S(hbond)    S(metal)    S(lipo)     H(rot)  DE(clash)    DE(int)     intcor
     21.00     -22.71       2.86        0.00      93.36       1.27       0.07       1.64       ----

> <Gold.Chemscore.Fitness>
21.0038

> <Gold.Chemscore.DG>
-22.7133

> <Gold.Chemscore.ZeroCoef>
-5.4800

> <Gold.Chemscore.Hbond>
2.8592

> <Gold.Chemscore.Metal>
0.0000

> <Gold.Chemscore.Lipo>
93.3626

> <Gold.Chemscore.Internal_Hbond>
0.0000

> <Gold.Chemscore.DEClash>
0.0718

> <Gold.Chemscore.DEInternal>
1.6377

> <Gold.Chemscore.Rot>
1.2656

> <Gold.Chemscore.Internal.Correction>
   9.000000E+99

> <Gold.Chemscore.Hbonds>
donor molecule, donor type, donor heavy atom, donor atom, acceptor molecule, acceptor atom, score
      L1  H     3    21       P1  7948  0.97
      L1  H     7    41       P1  7921  0.59
      L1  H    14    36       P1  7948  0.94

> <Gold.Chemscore.Hbond.Weighted>
-9.5497

> <Gold.Chemscore.Metal.Weighted>
-0.0000

> <Gold.Chemscore.Lipo.Weighted>
-10.9234

> <Gold.Chemscore.Internal_Hbond.Weighted>
0.0000

> <Gold.Chemscore.DEClash.Weighted>
0.0718

> <Gold.Chemscore.DEInternal.Weighted>
1.6377

> <Gold.Chemscore.Rot.Weighted>
3.2399

> <Gold.Chemscore.Internal.Correction.Weighted>
   9.000000E+99

> <Gold.Protein.RotatedTorsions>
[ 6907 6896 6895 6894 ] final   -8.04 input  -60.11 | X-H torsion
[ 7974 7965 7964 7962 ] final   16.95 input  175.53 | X-H torsion
[ 8008 7997 7996 7995 ] final   71.03 input   59.86 | X-H torsion
[ 10167 10162 10161 10158 ] final  -98.26 input  -65.29 | X-H torsion
[ 10718 10713 10712 10709 ] final  -59.77 input   66.30 | X-H torsion
[ 10763 10752 10751 10750 ] final   94.36 input  -60.55 | X-H torsion
[ 11005 11000 10999 10996 ] final  170.10 input  -57.11 | X-H torsion

> <Gold.Protein.ActiveResidues>
 VAL166  LYS551  ARG553  GLY616  TRP617  ASP618  TYR619  PRO620  LYS621  CYS622 
 ASP623  PHE694  ASN695  SER759  ASP760  ASP761  ALA762  ILE779  LEU786  VAL792 
 PHE793  MET794  SER795  GLU796  ALA797  LYS798  CYS799  TRP800  GLU811  SER814 

> <Gold.Protein.RotatedAtoms>
  151.4400  135.1019  159.9667 H   0  0  0  0  0  0  0  0  0  0  0  0  # atno 6907 bound_to 6896
  152.4926  133.8537  159.7225 H   0  0  0  0  0  0  0  0  0  0  0  0  # atno 6908 bound_to 6896
  150.9095  133.6957  159.2886 H   0  0  0  0  0  0  0  0  0  0  0  0  # atno 6909 bound_to 6896
  146.2234  139.8674  142.8593 H   0  0  0  0  0  0  0  0  0  0  0  0  # atno 7974 bound_to 7965
  155.7477  140.3489  155.5135 H   0  0  0  0  0  0  0  0  0  0  0  0  # atno 8008 bound_to 7997
  155.9034  140.1038  157.1354 H   0  0  0  0  0  0  0  0  0  0  0  0  # atno 8009 bound_to 7997
  154.4046  140.1281  156.4452 H   0  0  0  0  0  0  0  0  0  0  0  0  # atno 8010 bound_to 7997
  140.2748  143.3320  152.0499 H   0  0  0  0  0  0  0  0  0  0  0  0  # atno 10167 bound_to 10162
  156.1038  130.4183  150.0761 H   0  0  0  0  0  0  0  0  0  0  0  0  # atno 10718 bound_to 10713
  153.2408  135.4292  155.0695 H   0  0  0  0  0  0  0  0  0  0  0  0  # atno 10763 bound_to 10752
  154.8339  135.3402  154.6652 H   0  0  0  0  0  0  0  0  0  0  0  0  # atno 10764 bound_to 10752
  153.7076  135.7024  153.5102 H   0  0  0  0  0  0  0  0  0  0  0  0  # atno 10765 bound_to 10752
  140.3048  134.7566  157.3944 H   0  0  0  0  0  0  0  0  0  0  0  0  # atno 11005 bound_to 11000
  145.2643  141.0087  143.3808 LP  0  0  0  0  0  0  0  0  0  0  0  0  # atno 17320 bound_to 7965
  144.9274  139.4339  143.6512 LP  0  0  0  0  0  0  0  0  0  0  0  0  # atno 17321 bound_to 7965
  139.4979  144.6632  151.6417 LP  0  0  0  0  0  0  0  0  0  0  0  0  # atno 17342 bound_to 10162
  140.5860  143.9863  150.6296 LP  0  0  0  0  0  0  0  0  0  0  0  0  # atno 17343 bound_to 10162
  156.8741  130.9534  151.3606 LP  0  0  0  0  0  0  0  0  0  0  0  0  # atno 17370 bound_to 10713
  157.6212  130.8657  149.9112 LP  0  0  0  0  0  0  0  0  0  0  0  0  # atno 17371 bound_to 10713
  140.1077  134.5387  155.8294 LP  0  0  0  0  0  0  0  0  0  0  0  0  # atno 17394 bound_to 11000
  141.2121  133.6714  156.6630 LP  0  0  0  0  0  0  0  0  0  0  0  0  # atno 17395 bound_to 11000

$$$$
