AV-unprocessed.smi:2083|AV-procd|sdf|8495|dock10
  -GOLD-   2272011203D 1   1.00000     0.00000
 Structure written by MMmdl.
 45 46  0  0  0  0  0  0  0  0  2 V2000
  150.2197  141.6772  156.4175 C   0  0  0  0  0  0  0  0  0  0  0  0
  149.9258  140.4559  155.6162 C   0  0  0  0  0  0  0  0  0  0  0  0
  148.9231  139.5286  155.6664 C   0  0  0  0  0  0  0  0  0  0  0  0
  149.2615  138.6348  154.6158 C   0  0  0  0  0  0  0  0  0  0  0  0
  148.4537  137.5034  154.3333 N   0  0  0  0  0  0  0  0  0  0  0  0
  147.2478  137.2109  154.8493 C   0  0  0  0  0  0  0  0  0  0  0  0
  146.6506  137.8889  155.6859 O   0  0  0  0  0  0  0  0  0  0  0  0
  146.7618  136.0682  154.3413 N   0  0  0  0  0  0  0  0  0  0  0  0
  145.4617  135.4860  154.6647 C   0  0  0  0  0  0  0  0  0  0  0  0
  145.5342  133.9540  154.8939 C   0  0  1  0  0  0  0  0  0  0  0  0
  144.5486  133.4461  155.9643 C   0  0  0  0  0  0  0  0  0  0  0  0
  145.3817  133.1677  153.6342 N   0  3  1  0  0  0  0  0  0  0  0  0
  143.9808  132.8456  153.2478 C   0  0  0  0  0  0  0  0  0  0  0  0
  143.9547  131.8259  152.0989 C   0  0  0  0  0  0  0  0  0  0  0  0
  144.7555  132.3379  150.8924 C   0  0  0  0  0  0  0  0  0  0  0  0
  146.1861  132.7403  151.2977 C   0  0  2  0  0  0  0  0  0  0  0  0
  147.0924  131.5255  151.5633 C   0  0  0  0  0  0  0  0  0  0  0  0
  146.1575  133.7195  152.4903 C   0  0  0  0  0  0  0  0  0  0  0  0
  150.3693  138.9854  153.9806 N   0  0  0  0  0  0  0  0  0  0  0  0
  150.8009  140.1541  154.6190 O   0  0  0  0  0  0  0  0  0  0  0  0
  149.4495  141.8441  157.1708 H   0  0  0  0  0  0  0  0  0  0  0  0
  150.2633  142.5581  155.7771 H   0  0  0  0  0  0  0  0  0  0  0  0
  151.1775  141.5822  156.9291 H   0  0  0  0  0  0  0  0  0  0  0  0
  148.0852  139.4975  156.3469 H   0  0  0  0  0  0  0  0  0  0  0  0
  148.8312  136.8544  153.6589 H   0  0  0  0  0  0  0  0  0  0  0  0
  147.3222  135.5774  153.6597 H   0  0  0  0  0  0  0  0  0  0  0  0
  145.0366  135.9918  155.5325 H   0  0  0  0  0  0  0  0  0  0  0  0
  144.7981  135.7109  153.8303 H   0  0  0  0  0  0  0  0  0  0  0  0
  146.5281  133.7285  155.2837 H   0  0  0  0  0  0  0  0  0  0  0  0
  144.7961  133.8397  156.9501 H   0  0  0  0  0  0  0  0  0  0  0  0
  144.5761  132.3587  156.0406 H   0  0  0  0  0  0  0  0  0  0  0  0
  143.5220  133.7405  155.7461 H   0  0  0  0  0  0  0  0  0  0  0  0
  143.4335  132.4373  154.0968 H   0  0  0  0  0  0  0  0  0  0  0  0
  143.4593  133.7518  152.9375 H   0  0  0  0  0  0  0  0  0  0  0  0
  144.3604  130.8734  152.4409 H   0  0  0  0  0  0  0  0  0  0  0  0
  142.9242  131.6290  151.8014 H   0  0  0  0  0  0  0  0  0  0  0  0
  144.7775  131.5846  150.1041 H   0  0  0  0  0  0  0  0  0  0  0  0
  144.2454  133.2046  150.4701 H   0  0  0  0  0  0  0  0  0  0  0  0
  146.6255  133.2700  150.4515 H   0  0  0  0  0  0  0  0  0  0  0  0
  146.7502  130.9394  152.4163 H   0  0  0  0  0  0  0  0  0  0  0  0
  148.1159  131.8393  151.7697 H   0  0  0  0  0  0  0  0  0  0  0  0
  147.1229  130.8637  150.6972 H   0  0  0  0  0  0  0  0  0  0  0  0
  145.7140  134.6642  152.1738 H   0  0  0  0  0  0  0  0  0  0  0  0
  147.1789  133.9440  152.7997 H   0  0  0  0  0  0  0  0  0  0  0  0
  145.8167  132.2786  153.8354 H   0  0  0  0  0  0  0  0  0  0  0  0
  1  2  1  0  0  0  0
  1 21  1  0  0  0  0
  1 22  1  0  0  0  0
  1 23  1  0  0  0  0
  2 20  1  0  0  0  0
  2  3  2  0  0  0  0
  3  4  1  0  0  0  0
  3 24  1  0  0  0  0
  4  5  1  0  0  0  0
  4 19  2  0  0  0  0
  5  6  1  0  0  0  0
  5 25  1  0  0  0  0
  6  7  2  0  0  0  0
  6  8  1  0  0  0  0
  8  9  1  0  0  0  0
  8 26  1  0  0  0  0
  9 10  1  0  0  0  0
  9 27  1  0  0  0  0
  9 28  1  0  0  0  0
 10 11  1  0  0  0  0
 10 12  1  0  0  0  0
 10 29  1  0  0  0  0
 11 30  1  0  0  0  0
 11 31  1  0  0  0  0
 11 32  1  0  0  0  0
 12 18  1  0  0  0  0
 12 13  1  0  0  0  0
 12 45  1  0  0  0  0
 13 14  1  0  0  0  0
 13 33  1  0  0  0  0
 13 34  1  0  0  0  0
 14 15  1  0  0  0  0
 14 35  1  0  0  0  0
 14 36  1  0  0  0  0
 15 16  1  0  0  0  0
 15 37  1  0  0  0  0
 15 38  1  0  0  0  0
 16 17  1  0  0  0  0
 16 18  1  0  0  0  0
 16 39  1  0  0  0  0
 17 40  1  0  0  0  0
 17 41  1  0  0  0  0
 17 42  1  0  0  0  0
 18 43  1  0  0  0  0
 18 44  1  0  0  0  0
 19 20  1  0  0  0  0
M  CHG  1  12   1
M  END
> <s_m_source_file>
AV-unprocessed.smi

> <i_m_source_file_index>
2083

> <i_lp_mmshare_version>
43012

> <i_f3d_flags>
0

> <s_epik_input>
W0NIM11jMVtjSF1jKG5vMSlbTkhdQyg9TylbTkhdW0NIMl1bQ0BIXShbQ0gzXSlOMltDSDJdW0NIMl1bQ0gyXVtDQEBIXShbQ0gzXSlbQ0gyXTI=

> <s_epik_cmdline>
J2VwaWtfcHl0aG9uJywgJy1waCcsICc3LjAnLCAnLXRuJywgJzgnLCAnLW1hJywgJzIwMCcsICctbWV0YWxfYmluZGluZycsICctaW1hZScsICc8aW5maWxlLm1hZT4nLCAnLW9tYWUnLCAnPG91dGZpbGUubWFlPic=

> <r_epik_Ionization_Penalty>
0.00216453

> <r_epik_Ionization_Penalty_Charging>
0.00212879

> <r_epik_Ionization_Penalty_Neutral>
3.57418e-05

> <r_epik_State_Penalty>
0.00146033

> <r_epik_Charging_Adjusted_Penalty>
0.00358912

> <i_epik_Tot_Q>
1

> <i_epik_Tot_abs_Q>
1

> <r_epik_Metal_State_Penalty>
0.0215827

> <b_epik_Metal_Only>
0

> <s_lp_Force_Field>
OPLS_2005

> <r_lp_Energy>
20.2755

> <b_lp_Chiralities_Consistent>
1

> <s_lp_Variant>
AV-unprocessed.smi:2083-6

> <Gold.Version>
5.8.1

> <Gold.Id.Protein>
6NUR|6NUR_protein|mol2

> <Gold.PLP.Fitness>
40.6159

> <Gold.PLP.PLP>
-31.0317

> <Gold.PLP.part.hbond>
-4.4038

> <Gold.PLP.part.metal>
0.0000

> <Gold.PLP.part.buried>
-0.5074

> <Gold.PLP.part.nonpolar>
-25.3882

> <Gold.PLP.part.repulsive>
0.9795

> <Gold.PLP.ligand.clash>
0.0000

> <Gold.PLP.ligand.torsion>
0.8501

> <Gold.PLP.Chemscore.Hbond>
3.7245

> <Gold.PLP.Chemscore.CHOScore>
0.0000

> <Gold.PLP.Chemscore.Metal>
0.0000

> <Gold.Chemscore.Hbonds>
donor molecule, donor type, donor heavy atom, donor atom, acceptor molecule, acceptor atom, score
      L1  H     5    25       P1  7948  1.00
      P1  H  7989  7998       L1    20  1.00

> <Gold.PLP.Chemscore.Internal.Correction>
0.1109

> <Gold.Rescore>
     Score         DG    S(hbond)    S(metal)    S(lipo)     H(rot)  DE(clash)    DE(int)     intcor
     13.78     -20.44       2.77        0.00      82.81       1.55       3.77       2.89       ----

> <Gold.Chemscore.Fitness>
13.7812

> <Gold.Chemscore.DG>
-20.4439

> <Gold.Chemscore.ZeroCoef>
-5.4800

> <Gold.Chemscore.Hbond>
2.7654

> <Gold.Chemscore.Metal>
0.0000

> <Gold.Chemscore.Lipo>
82.8095

> <Gold.Chemscore.Internal_Hbond>
0.0000

> <Gold.Chemscore.DEClash>
3.7743

> <Gold.Chemscore.DEInternal>
2.8885

> <Gold.Chemscore.Rot>
1.5474

> <Gold.Chemscore.Internal.Correction>
   9.000000E+99

> <Gold.Chemscore.Hbonds>
donor molecule, donor type, donor heavy atom, donor atom, acceptor molecule, acceptor atom, score
      L1  H     5    25       P1  7948  0.94
      L1  H     8    26       P1  7948  0.01
      P1  H  7989  7998       L1    20  0.38

> <Gold.Chemscore.Hbond.Weighted>
-9.2364

> <Gold.Chemscore.Metal.Weighted>
-0.0000

> <Gold.Chemscore.Lipo.Weighted>
-9.6887

> <Gold.Chemscore.Internal_Hbond.Weighted>
0.0000

> <Gold.Chemscore.DEClash.Weighted>
3.7743

> <Gold.Chemscore.DEInternal.Weighted>
2.8885

> <Gold.Chemscore.Rot.Weighted>
3.9612

> <Gold.Chemscore.Internal.Correction.Weighted>
   9.000000E+99

> <Gold.Protein.RotatedTorsions>
[ 6907 6896 6895 6894 ] final  -10.85 input  -60.11 | X-H torsion
[ 7974 7965 7964 7962 ] final  106.17 input  175.53 | X-H torsion
[ 8008 7997 7996 7995 ] final  143.51 input   59.86 | X-H torsion
[ 10167 10162 10161 10158 ] final   15.97 input  -65.29 | X-H torsion
[ 10718 10713 10712 10709 ] final  -67.55 input   66.30 | X-H torsion
[ 10763 10752 10751 10750 ] final  -56.45 input  -60.55 | X-H torsion
[ 11005 11000 10999 10996 ] final  173.87 input  -57.11 | X-H torsion

> <Gold.Protein.ActiveResidues>
 VAL166  LYS551  ARG553  GLY616  TRP617  ASP618  TYR619  PRO620  LYS621  CYS622 
 ASP623  PHE694  ASN695  SER759  ASP760  ASP761  ALA762  ILE779  LEU786  VAL792 
 PHE793  MET794  SER795  GLU796  ALA797  LYS798  CYS799  TRP800  GLU811  SER814 

> <Gold.Protein.RotatedAtoms>
  151.3955  135.0963  159.9539 H   0  0  0  0  0  0  0  0  0  0  0  0  # atno 6907 bound_to 6896
  152.5066  133.8938  159.7418 H   0  0  0  0  0  0  0  0  0  0  0  0  # atno 6908 bound_to 6896
  150.9401  133.6610  159.2821 H   0  0  0  0  0  0  0  0  0  0  0  0  # atno 6909 bound_to 6896
  145.3101  139.2543  143.3767 H   0  0  0  0  0  0  0  0  0  0  0  0  # atno 7974 bound_to 7965
  156.2928  140.2260  156.4903 H   0  0  0  0  0  0  0  0  0  0  0  0  # atno 8008 bound_to 7997
  154.7777  140.0462  157.1123 H   0  0  0  0  0  0  0  0  0  0  0  0  # atno 8009 bound_to 7997
  154.9797  140.3077  155.4955 H   0  0  0  0  0  0  0  0  0  0  0  0  # atno 8010 bound_to 7997
  140.5830  143.8944  150.6806 H   0  0  0  0  0  0  0  0  0  0  0  0  # atno 10167 bound_to 10162
  156.0552  130.4280  150.1870 H   0  0  0  0  0  0  0  0  0  0  0  0  # atno 10718 bound_to 10713
  154.2069  135.6401  153.5103 H   0  0  0  0  0  0  0  0  0  0  0  0  # atno 10763 bound_to 10752
  152.9999  135.5464  154.6257 H   0  0  0  0  0  0  0  0  0  0  0  0  # atno 10764 bound_to 10752
  154.5683  135.2914  155.0825 H   0  0  0  0  0  0  0  0  0  0  0  0  # atno 10765 bound_to 10752
  140.3451  134.7243  157.4229 H   0  0  0  0  0  0  0  0  0  0  0  0  # atno 11005 bound_to 11000
  146.3121  140.3635  142.8667 LP  0  0  0  0  0  0  0  0  0  0  0  0  # atno 17320 bound_to 7965
  144.9023  140.7657  143.5859 LP  0  0  0  0  0  0  0  0  0  0  0  0  # atno 17321 bound_to 7965
  140.2448  143.3636  152.1456 LP  0  0  0  0  0  0  0  0  0  0  0  0  # atno 17342 bound_to 10162
  139.5181  144.7001  151.5519 LP  0  0  0  0  0  0  0  0  0  0  0  0  # atno 17343 bound_to 10162
  156.9948  130.9904  151.3406 LP  0  0  0  0  0  0  0  0  0  0  0  0  # atno 17370 bound_to 10713
  157.5515  130.8185  149.8151 LP  0  0  0  0  0  0  0  0  0  0  0  0  # atno 17371 bound_to 10713
  140.0749  134.5811  155.8602 LP  0  0  0  0  0  0  0  0  0  0  0  0  # atno 17394 bound_to 11000
  141.2028  133.6627  156.6025 LP  0  0  0  0  0  0  0  0  0  0  0  0  # atno 17395 bound_to 11000

$$$$
