AV-unprocessed.smi:2215|AV-procd|sdf|8961|dock1
  -GOLD-   2272012183D 1   1.00000     0.00000
 Structure written by MMmdl.
 40 41  0  0  0  0  0  0  0  0  1 V2000
  150.9157  142.1805  156.2093 C   0  0  0  0  0  0  0  0  0  0  0  0
  150.1350  141.1307  155.4463 C   0  0  0  0  0  0  0  0  0  0  0  0
  150.6386  139.8263  155.2845 C   0  0  0  0  0  0  0  0  0  0  0  0
  149.8698  138.8855  154.5724 C   0  0  0  0  0  0  0  0  0  0  0  0
  148.6180  139.2688  154.0404 C   0  0  0  0  0  0  0  0  0  0  0  0
  147.9192  138.2424  153.3502 N   0  0  0  0  0  0  0  0  0  0  0  0
  146.5902  138.0642  153.2473 C   0  0  0  0  0  0  0  0  0  0  0  0
  145.7313  138.8176  153.7069 O   0  0  0  0  0  0  0  0  0  0  0  0
  146.3032  136.9449  152.5669 N   0  0  0  0  0  0  0  0  0  0  0  0
  144.9578  136.4512  152.2901 C   0  0  0  0  0  0  0  0  0  0  0  0
  144.9576  135.1707  151.4240 C   0  0  1  0  0  0  0  0  0  0  0  0
  146.2972  134.4008  151.4829 C   0  0  0  0  0  0  0  0  0  0  0  0
  146.2752  133.1543  150.5832 C   0  0  0  0  0  0  0  0  0  0  0  0
  145.1025  132.2277  150.9365 C   0  0  0  0  0  0  0  0  0  0  0  0
  143.7612  132.9787  150.8790 C   0  0  0  0  0  0  0  0  0  0  0  0
  143.7656  134.2412  151.7624 C   0  0  1  0  0  0  0  0  0  0  0  0
  143.7874  133.8536  153.1239 O   0  0  0  0  0  0  0  0  0  0  0  0
  148.1416  140.5288  154.2009 N   0  0  0  0  0  0  0  0  0  0  0  0
  148.8792  141.4300  154.8833 C   0  0  0  0  0  0  0  0  0  0  0  0
  151.9811  141.9480  156.2147 H   0  0  0  0  0  0  0  0  0  0  0  0
  150.5694  142.2295  157.2418 H   0  0  0  0  0  0  0  0  0  0  0  0
  150.7858  143.1634  155.7553 H   0  0  0  0  0  0  0  0  0  0  0  0
  151.5962  139.5476  155.6988 H   0  0  0  0  0  0  0  0  0  0  0  0
  150.2411  137.8795  154.4403 H   0  0  0  0  0  0  0  0  0  0  0  0
  148.5000  137.5496  152.9015 H   0  0  0  0  0  0  0  0  0  0  0  0
  147.0705  136.3868  152.2217 H   0  0  0  0  0  0  0  0  0  0  0  0
  144.4758  136.2576  153.2485 H   0  0  0  0  0  0  0  0  0  0  0  0
  144.3718  137.2349  151.8070 H   0  0  0  0  0  0  0  0  0  0  0  0
  144.8181  135.4862  150.3886 H   0  0  0  0  0  0  0  0  0  0  0  0
  147.1194  135.0451  151.1710 H   0  0  0  0  0  0  0  0  0  0  0  0
  146.5115  134.1067  152.5111 H   0  0  0  0  0  0  0  0  0  0  0  0
  146.1970  133.4599  149.5391 H   0  0  0  0  0  0  0  0  0  0  0  0
  147.2169  132.6126  150.6762 H   0  0  0  0  0  0  0  0  0  0  0  0
  145.0812  131.3788  150.2527 H   0  0  0  0  0  0  0  0  0  0  0  0
  145.2522  131.8141  151.9347 H   0  0  0  0  0  0  0  0  0  0  0  0
  143.5603  133.2673  149.8466 H   0  0  0  0  0  0  0  0  0  0  0  0
  142.9472  132.3143  151.1716 H   0  0  0  0  0  0  0  0  0  0  0  0
  142.8328  134.7827  151.6003 H   0  0  0  0  0  0  0  0  0  0  0  0
  143.2305  133.0978  153.2298 H   0  0  0  0  0  0  0  0  0  0  0  0
  148.4518  142.4169  154.9847 H   0  0  0  0  0  0  0  0  0  0  0  0
  1  2  1  0  0  0  0
  1 20  1  0  0  0  0
  1 21  1  0  0  0  0
  1 22  1  0  0  0  0
  2 19  1  0  0  0  0
  2  3  2  0  0  0  0
  3  4  1  0  0  0  0
  3 23  1  0  0  0  0
  4  5  2  0  0  0  0
  4 24  1  0  0  0  0
  5  6  1  0  0  0  0
  5 18  1  0  0  0  0
  6  7  1  0  0  0  0
  6 25  1  0  0  0  0
  7  8  2  0  0  0  0
  7  9  1  0  0  0  0
  9 10  1  0  0  0  0
  9 26  1  0  0  0  0
 10 11  1  0  0  0  0
 10 27  1  0  0  0  0
 10 28  1  0  0  0  0
 11 16  1  0  0  0  0
 11 12  1  0  0  0  0
 11 29  1  0  0  0  0
 12 13  1  0  0  0  0
 12 30  1  0  0  0  0
 12 31  1  0  0  0  0
 13 14  1  0  0  0  0
 13 32  1  0  0  0  0
 13 33  1  0  0  0  0
 14 15  1  0  0  0  0
 14 34  1  0  0  0  0
 14 35  1  0  0  0  0
 15 16  1  0  0  0  0
 15 36  1  0  0  0  0
 15 37  1  0  0  0  0
 16 17  1  0  0  0  0
 16 38  1  0  0  0  0
 17 39  1  0  0  0  0
 18 19  2  0  0  0  0
 19 40  1  0  0  0  0
M  END
> <s_m_source_file>
AV-unprocessed.smi

> <i_m_source_file_index>
2215

> <i_lp_mmshare_version>
43012

> <i_f3d_flags>
0

> <s_epik_input>
W0NIM11jMVtjSF1bY0hdYyhuW2NIXTEpW05IXUMoPU8pW05IXVtDSDJdW0NAQEhdMltDSDJdW0NIMl1bQ0gyXVtDSDJdW0NASF0yW09IXQ==

> <s_epik_cmdline>
J2VwaWtfcHl0aG9uJywgJy1waCcsICc3LjAnLCAnLXRuJywgJzgnLCAnLW1hJywgJzIwMCcsICctbWV0YWxfYmluZGluZycsICctaW1hZScsICc8aW5maWxlLm1hZT4nLCAnLW9tYWUnLCAnPG91dGZpbGUubWFlPic=

> <r_lp_tautomer_probability>
1

> <r_epik_Ionization_Penalty>
6.08491e-05

> <r_epik_Ionization_Penalty_Charging>
0

> <r_epik_Ionization_Penalty_Neutral>
6.08491e-05

> <r_epik_State_Penalty>
-0

> <r_epik_Charging_Adjusted_Penalty>
0

> <i_epik_Tot_Q>
0

> <i_epik_Tot_abs_Q>
0

> <r_epik_Metal_State_Penalty>
-0

> <b_epik_Metal_Only>
0

> <s_lp_Force_Field>
OPLS_2005

> <r_lp_Energy>
16.7167

> <b_lp_Chiralities_Consistent>
1

> <s_lp_Variant>
AV-unprocessed.smi:2215-2

> <Gold.Version>
5.8.1

> <Gold.Id.Protein>
6NUR|6NUR_protein|mol2

> <Gold.PLP.Fitness>
45.0597

> <Gold.PLP.PLP>
-35.0033

> <Gold.PLP.part.hbond>
-3.0437

> <Gold.PLP.part.metal>
0.0000

> <Gold.PLP.part.buried>
-4.3354

> <Gold.PLP.part.nonpolar>
-27.7756

> <Gold.PLP.part.repulsive>
0.7765

> <Gold.PLP.ligand.clash>
0.0000

> <Gold.PLP.ligand.torsion>
0.6793

> <Gold.PLP.Chemscore.Hbond>
2.8000

> <Gold.PLP.Chemscore.CHOScore>
1.0000

> <Gold.PLP.Chemscore.Metal>
0.0000

> <Gold.Chemscore.Hbonds>
donor molecule, donor type, donor heavy atom, donor atom, acceptor molecule, acceptor atom, score
      L1  H     6    25       P1  7948  1.00
      L1  H     9    26       P1  7948  0.99
      L1  H    17    39       P1 10957  0.61
      L1  C    19    40       P1  8028  1.00

> <Gold.PLP.Chemscore.Internal.Correction>
0.0150

> <Gold.Rescore>
     Score         DG    S(hbond)    S(metal)    S(lipo)     H(rot)  DE(clash)    DE(int)     intcor
     16.67     -18.47       2.42        0.00      79.95       1.73       0.23       1.57       ----

> <Gold.Chemscore.Fitness>
16.6724

> <Gold.Chemscore.DG>
-18.4741

> <Gold.Chemscore.ZeroCoef>
-5.4800

> <Gold.Chemscore.Hbond>
2.4188

> <Gold.Chemscore.Metal>
0.0000

> <Gold.Chemscore.Lipo>
79.9489

> <Gold.Chemscore.Internal_Hbond>
0.0000

> <Gold.Chemscore.DEClash>
0.2285

> <Gold.Chemscore.DEInternal>
1.5732

> <Gold.Chemscore.Rot>
1.7339

> <Gold.Chemscore.Internal.Correction>
   9.000000E+99

> <Gold.Chemscore.Hbonds>
donor molecule, donor type, donor heavy atom, donor atom, acceptor molecule, acceptor atom, score
      L1  H     6    25       P1  7948  1.00
      L1  H     9    26       P1  7948  0.93
      L1  H    17    39       P1 10957  0.48

> <Gold.Chemscore.Hbond.Weighted>
-8.0787

> <Gold.Chemscore.Metal.Weighted>
-0.0000

> <Gold.Chemscore.Lipo.Weighted>
-9.3540

> <Gold.Chemscore.Internal_Hbond.Weighted>
0.0000

> <Gold.Chemscore.DEClash.Weighted>
0.2285

> <Gold.Chemscore.DEInternal.Weighted>
1.5732

> <Gold.Chemscore.Rot.Weighted>
4.4387

> <Gold.Chemscore.Internal.Correction.Weighted>
   9.000000E+99

> <Gold.Protein.RotatedTorsions>
[ 6907 6896 6895 6894 ] final -113.79 input  -60.11 | X-H torsion
[ 7974 7965 7964 7962 ] final    2.06 input  175.53 | X-H torsion
[ 8008 7997 7996 7995 ] final   19.54 input   59.86 | X-H torsion
[ 10167 10162 10161 10158 ] final   21.18 input  -65.29 | X-H torsion
[ 10718 10713 10712 10709 ] final  -73.77 input   66.30 | X-H torsion
[ 10763 10752 10751 10750 ] final  138.81 input  -60.55 | X-H torsion
[ 11005 11000 10999 10996 ] final   73.24 input  -57.11 | X-H torsion

> <Gold.Protein.ActiveResidues>
 VAL166  LYS551  ARG553  GLY616  TRP617  ASP618  TYR619  PRO620  LYS621  CYS622 
 ASP623  PHE694  ASN695  SER759  ASP760  ASP761  ALA762  ILE779  LEU786  VAL792 
 PHE793  MET794  SER795  GLU796  ALA797  LYS798  CYS799  TRP800  GLU811  SER814 

> <Gold.Protein.RotatedAtoms>
  150.7854  133.8894  159.3308 H   0  0  0  0  0  0  0  0  0  0  0  0  # atno 6907 bound_to 6896
  151.6746  135.0969  160.0214 H   0  0  0  0  0  0  0  0  0  0  0  0  # atno 6908 bound_to 6896
  152.3917  133.6650  159.6278 H   0  0  0  0  0  0  0  0  0  0  0  0  # atno 6909 bound_to 6896
  146.2442  140.0893  142.8353 H   0  0  0  0  0  0  0  0  0  0  0  0  # atno 7974 bound_to 7965
  154.9223  140.3029  155.5210 H   0  0  0  0  0  0  0  0  0  0  0  0  # atno 8008 bound_to 7997
  156.3009  140.2369  156.4210 H   0  0  0  0  0  0  0  0  0  0  0  0  # atno 8009 bound_to 7997
  154.8319  140.0418  157.1471 H   0  0  0  0  0  0  0  0  0  0  0  0  # atno 8010 bound_to 7997
  140.5447  143.9616  150.6540 H   0  0  0  0  0  0  0  0  0  0  0  0  # atno 10167 bound_to 10162
  156.0268  130.4401  150.2791 H   0  0  0  0  0  0  0  0  0  0  0  0  # atno 10718 bound_to 10713
  153.8958  135.3027  155.3448 H   0  0  0  0  0  0  0  0  0  0  0  0  # atno 10763 bound_to 10752
  154.7694  135.4893  153.9622 H   0  0  0  0  0  0  0  0  0  0  0  0  # atno 10764 bound_to 10752
  153.1272  135.6796  153.9337 H   0  0  0  0  0  0  0  0  0  0  0  0  # atno 10765 bound_to 10752
  139.9450  134.7330  156.1003 H   0  0  0  0  0  0  0  0  0  0  0  0  # atno 11005 bound_to 11000
  145.0664  140.9125  143.4908 LP  0  0  0  0  0  0  0  0  0  0  0  0  # atno 17320 bound_to 7965
  145.1018  139.2817  143.5682 LP  0  0  0  0  0  0  0  0  0  0  0  0  # atno 17321 bound_to 7965
  140.3026  143.3251  152.0957 LP  0  0  0  0  0  0  0  0  0  0  0  0  # atno 17342 bound_to 10162
  139.5002  144.6687  151.6294 LP  0  0  0  0  0  0  0  0  0  0  0  0  # atno 17343 bound_to 10162
  157.0895  131.0165  151.3127 LP  0  0  0  0  0  0  0  0  0  0  0  0  # atno 17370 bound_to 10713
  157.4865  130.7796  149.7465 LP  0  0  0  0  0  0  0  0  0  0  0  0  # atno 17371 bound_to 10713
  141.1097  133.6647  156.2949 LP  0  0  0  0  0  0  0  0  0  0  0  0  # atno 17394 bound_to 11000
  140.5858  134.5700  157.5489 LP  0  0  0  0  0  0  0  0  0  0  0  0  # atno 17395 bound_to 11000

$$$$
