AV-unprocessed.smi:224|AV-procd|sdf|1711|dock10
  -GOLD-   2262020183D 1   1.00000     0.00000
 Structure written by MMmdl.
 56 59  0  0  0  0  0  0  0  0  2 V2000
  145.5170  133.2968  156.9616 C   0  0  0  0  0  0  0  0  0  0  0  0
  145.4261  134.4266  155.9250 C   0  0  2  0  0  0  0  0  0  0  0  0
  144.2600  134.2258  155.1544 O   0  0  0  0  0  0  0  0  0  0  0  0
  146.6389  134.4669  154.9735 C   0  0  0  0  0  0  0  0  0  0  0  0
  147.9336  134.5699  155.7060 N   0  3  2  0  0  0  0  0  0  0  0  0
  147.9297  135.7372  156.6344 C   0  0  0  0  0  0  0  0  0  0  0  0
  149.2462  135.8730  157.4184 C   0  0  0  0  0  0  0  0  0  0  0  0
  150.3959  135.8660  156.5211 N   0  0  0  0  0  0  0  0  0  0  0  0
  150.8252  137.0334  155.9692 C   0  0  0  0  0  0  0  0  0  0  0  0
  151.5912  137.0093  154.8457 N   0  0  0  0  0  0  0  0  0  0  0  0
  152.0411  138.1451  154.3053 C   0  0  0  0  0  0  0  0  0  0  0  0
  151.8462  139.3980  154.7178 N   0  0  0  0  0  0  0  0  0  0  0  0
  151.0661  139.4347  155.8352 C   0  0  0  0  0  0  0  0  0  0  0  0
  150.5132  138.3122  156.5150 C   0  0  0  0  0  0  0  0  0  0  0  0
  149.7551  138.7458  157.5970 N   0  0  0  0  0  0  0  0  0  0  0  0
  149.8678  140.0455  157.5682 C   0  0  0  0  0  0  0  0  0  0  0  0
  150.6492  140.5433  156.5506 N   0  0  0  0  0  0  0  0  0  0  0  0
  150.9571  141.9406  156.2897 C   0  0  0  0  0  0  0  0  0  0  0  0
  151.0058  142.8048  157.5714 C   0  0  2  0  0  0  0  0  0  0  0  0
  149.6835  143.0333  158.0278 O   0  0  0  0  0  0  0  0  0  0  0  0
  151.6930  144.1556  157.3864 C   0  0  0  0  0  0  0  0  0  0  0  0
  152.3396  144.3979  158.7430 C   0  0  0  0  0  0  0  0  0  0  0  0
  152.8011  143.1057  159.0965 O   0  0  0  0  0  0  0  0  0  0  0  0
  151.8123  142.1553  158.7139 C   0  0  0  0  0  0  0  0  0  0  0  0
  150.4397  134.6888  155.6635 C   0  0  0  0  0  0  0  0  0  0  0  0
  149.1481  134.5354  154.8281 C   0  0  1  0  0  0  0  0  0  0  0  0
  149.2634  133.2305  154.0125 C   0  0  0  0  0  0  0  0  0  0  0  0
  146.3821  133.4263  157.6125 H   0  0  0  0  0  0  0  0  0  0  0  0
  145.6062  132.3212  156.4821 H   0  0  0  0  0  0  0  0  0  0  0  0
  144.6315  133.2753  157.5978 H   0  0  0  0  0  0  0  0  0  0  0  0
  145.3043  135.3796  156.4383 H   0  0  0  0  0  0  0  0  0  0  0  0
  144.1799  133.3055  154.9542 H   0  0  0  0  0  0  0  0  0  0  0  0
  146.5918  133.5770  154.3514 H   0  0  0  0  0  0  0  0  0  0  0  0
  146.5527  135.3048  154.2796 H   0  0  0  0  0  0  0  0  0  0  0  0
  147.7470  136.6467  156.0611 H   0  0  0  0  0  0  0  0  0  0  0  0
  147.1100  135.6540  157.3466 H   0  0  0  0  0  0  0  0  0  0  0  0
  149.2385  136.7714  158.0373 H   0  0  0  0  0  0  0  0  0  0  0  0
  149.3494  135.0340  158.1075 H   0  0  0  0  0  0  0  0  0  0  0  0
  152.6460  138.0344  153.4173 H   0  0  0  0  0  0  0  0  0  0  0  0
  149.3855  140.6800  158.2975 H   0  0  0  0  0  0  0  0  0  0  0  0
  151.9105  141.9927  155.7620 H   0  0  0  0  0  0  0  0  0  0  0  0
  150.2058  142.3304  155.6015 H   0  0  0  0  0  0  0  0  0  0  0  0
  149.3313  143.7790  157.5662 H   0  0  0  0  0  0  0  0  0  0  0  0
  152.4798  144.0793  156.6351 H   0  0  0  0  0  0  0  0  0  0  0  0
  151.0185  144.9567  157.0807 H   0  0  0  0  0  0  0  0  0  0  0  0
  153.1548  145.1202  158.7004 H   0  0  0  0  0  0  0  0  0  0  0  0
  151.6064  144.7423  159.4740 H   0  0  0  0  0  0  0  0  0  0  0  0
  151.1855  141.9171  159.5749 H   0  0  0  0  0  0  0  0  0  0  0  0
  152.3039  141.2325  158.4044 H   0  0  0  0  0  0  0  0  0  0  0  0
  151.3038  134.7055  155.0015 H   0  0  0  0  0  0  0  0  0  0  0  0
  150.5713  133.8146  156.3026 H   0  0  0  0  0  0  0  0  0  0  0  0
  149.0866  135.3758  154.1344 H   0  0  0  0  0  0  0  0  0  0  0  0
  150.2357  133.1663  153.5227 H   0  0  0  0  0  0  0  0  0  0  0  0
  148.5248  133.1583  153.2161 H   0  0  0  0  0  0  0  0  0  0  0  0
  149.1624  132.3525  154.6516 H   0  0  0  0  0  0  0  0  0  0  0  0
  148.0000  133.7439  156.2834 H   0  0  0  0  0  0  0  0  0  0  0  0
  1  2  1  0  0  0  0
  1 28  1  0  0  0  0
  1 29  1  0  0  0  0
  1 30  1  0  0  0  0
  2  3  1  0  0  0  0
  2  4  1  0  0  0  0
  2 31  1  0  0  0  0
  3 32  1  0  0  0  0
  4  5  1  0  0  0  0
  4 33  1  0  0  0  0
  4 34  1  0  0  0  0
  5 26  1  0  0  0  0
  5  6  1  0  0  0  0
  5 56  1  0  0  0  0
  6  7  1  0  0  0  0
  6 35  1  0  0  0  0
  6 36  1  0  0  0  0
  7  8  1  0  0  0  0
  7 37  1  0  0  0  0
  7 38  1  0  0  0  0
  8  9  1  0  0  0  0
  8 25  1  0  0  0  0
  9 14  1  0  0  0  0
  9 10  2  0  0  0  0
 10 11  1  0  0  0  0
 11 12  2  0  0  0  0
 11 39  1  0  0  0  0
 12 13  1  0  0  0  0
 13 17  1  0  0  0  0
 13 14  2  0  0  0  0
 14 15  1  0  0  0  0
 15 16  2  0  0  0  0
 16 17  1  0  0  0  0
 16 40  1  0  0  0  0
 17 18  1  0  0  0  0
 18 19  1  0  0  0  0
 18 41  1  0  0  0  0
 18 42  1  0  0  0  0
 19 24  1  0  0  0  0
 19 20  1  0  0  0  0
 19 21  1  0  0  0  0
 20 43  1  0  0  0  0
 21 22  1  0  0  0  0
 21 44  1  0  0  0  0
 21 45  1  0  0  0  0
 22 23  1  0  0  0  0
 22 46  1  0  0  0  0
 22 47  1  0  0  0  0
 23 24  1  0  0  0  0
 24 48  1  0  0  0  0
 24 49  1  0  0  0  0
 25 26  1  0  0  0  0
 25 50  1  0  0  0  0
 25 51  1  0  0  0  0
 26 27  1  0  0  0  0
 26 52  1  0  0  0  0
 27 53  1  0  0  0  0
 27 54  1  0  0  0  0
 27 55  1  0  0  0  0
M  CHG  1   5   1
M  END
> <s_m_source_file>
AV-unprocessed.smi

> <i_m_source_file_index>
224

> <i_lp_mmshare_version>
43012

> <i_f3d_flags>
0

> <s_epik_input>
W0NIM11bQ0BIXShbT0hdKVtDSDJdTjFbQ0gyXVtDSDJdTihbQ0gyXVtDQEhdMVtDSDNdKWMobltjSF1uMiljKGMyMyluW2NIXW4zW0NIMl1bQ0BAXTQoW09IXSlbQ0gyXVtDSDJdT1tDSDJdNA==

> <s_epik_cmdline>
J2VwaWtfcHl0aG9uJywgJy1waCcsICc3LjAnLCAnLXRuJywgJzgnLCAnLW1hJywgJzIwMCcsICctbWV0YWxfYmluZGluZycsICctaW1hZScsICc8aW5maWxlLm1hZT4nLCAnLW9tYWUnLCAnPG91dGZpbGUubWFlPic=

> <r_lp_tautomer_probability>
1

> <r_epik_Ionization_Penalty>
0.00516958

> <r_epik_Ionization_Penalty_Charging>
0.00509693

> <r_epik_Ionization_Penalty_Neutral>
7.26542e-05

> <r_epik_State_Penalty>
-0

> <r_epik_Charging_Adjusted_Penalty>
0.00509693

> <i_epik_Tot_Q>
1

> <i_epik_Tot_abs_Q>
1

> <r_epik_Metal_State_Penalty>
-0

> <b_epik_Metal_Only>
0

> <s_lp_Force_Field>
OPLS_2005

> <r_lp_Energy>
47.9311

> <b_lp_Chiralities_Consistent>
1

> <s_lp_Variant>
AV-unprocessed.smi:224-5

> <Gold.Version>
5.8.1

> <Gold.Id.Protein>
6NUR|6NUR_protein|mol2

> <Gold.PLP.Fitness>
48.2777

> <Gold.PLP.PLP>
-39.4037

> <Gold.PLP.part.hbond>
-4.0000

> <Gold.PLP.part.metal>
0.0000

> <Gold.PLP.part.buried>
-7.4065

> <Gold.PLP.part.nonpolar>
-28.8830

> <Gold.PLP.part.repulsive>
0.2013

> <Gold.PLP.ligand.clash>
0.0000

> <Gold.PLP.ligand.torsion>
1.0912

> <Gold.PLP.Chemscore.Hbond>
3.5087

> <Gold.PLP.Chemscore.CHOScore>
0.0000

> <Gold.PLP.Chemscore.Metal>
0.0000

> <Gold.Chemscore.Hbonds>
donor molecule, donor type, donor heavy atom, donor atom, acceptor molecule, acceptor atom, score
      L1  H     3    32       P1 10957  0.54
      L1  H    20    43       P1  8028  0.69
      P1  H  7989  7998       L1    12  1.00
      P1  H 10752 10765       L1    10  1.00

> <Gold.PLP.Chemscore.Internal.Correction>
0.5304

> <Gold.Rescore>
     Score         DG    S(hbond)    S(metal)    S(lipo)     H(rot)  DE(clash)    DE(int)     intcor
     10.35     -13.69       2.26        0.00      79.02       3.36       0.08       3.26       ----

> <Gold.Chemscore.Fitness>
10.3473

> <Gold.Chemscore.DG>
-13.6859

> <Gold.Chemscore.ZeroCoef>
-5.4800

> <Gold.Chemscore.Hbond>
2.2650

> <Gold.Chemscore.Metal>
0.0000

> <Gold.Chemscore.Lipo>
79.0196

> <Gold.Chemscore.Internal_Hbond>
0.0000

> <Gold.Chemscore.DEClash>
0.0828

> <Gold.Chemscore.DEInternal>
3.2558

> <Gold.Chemscore.Rot>
3.3611

> <Gold.Chemscore.Internal.Correction>
   9.000000E+99

> <Gold.Chemscore.Hbonds>
donor molecule, donor type, donor heavy atom, donor atom, acceptor molecule, acceptor atom, score
      L1  H     3    32       P1 10957  0.54
      L1  H    20    43       P1  8028  0.19
      P1  H  7989  7998       L1    12  0.88
      P1  H 10752 10765       L1    10  0.59

> <Gold.Chemscore.Hbond.Weighted>
-7.5651

> <Gold.Chemscore.Metal.Weighted>
-0.0000

> <Gold.Chemscore.Lipo.Weighted>
-9.2453

> <Gold.Chemscore.Internal_Hbond.Weighted>
0.0000

> <Gold.Chemscore.DEClash.Weighted>
0.0828

> <Gold.Chemscore.DEInternal.Weighted>
3.2558

> <Gold.Chemscore.Rot.Weighted>
8.6045

> <Gold.Chemscore.Internal.Correction.Weighted>
   9.000000E+99

> <Gold.Protein.RotatedTorsions>
[ 6907 6896 6895 6894 ] final   75.81 input  -60.11 | X-H torsion
[ 7974 7965 7964 7962 ] final  -65.54 input  175.53 | X-H torsion
[ 8008 7997 7996 7995 ] final -139.66 input   59.86 | X-H torsion
[ 10167 10162 10161 10158 ] final  -80.32 input  -65.29 | X-H torsion
[ 10718 10713 10712 10709 ] final -104.91 input   66.30 | X-H torsion
[ 10763 10752 10751 10750 ] final  174.82 input  -60.55 | X-H torsion
[ 11005 11000 10999 10996 ] final   -3.82 input  -57.11 | X-H torsion

> <Gold.Protein.ActiveResidues>
 VAL166  LYS551  ARG553  GLY616  TRP617  ASP618  TYR619  PRO620  LYS621  CYS622 
 ASP623  PHE694  ASN695  SER759  ASP760  ASP761  ALA762  ILE779  LEU786  VAL792 
 PHE793  MET794  SER795  GLU796  ALA797  LYS798  CYS799  TRP800  GLU811  SER814 

> <Gold.Protein.RotatedAtoms>
  152.5044  134.4063  159.9433 H   0  0  0  0  0  0  0  0  0  0  0  0  # atno 6907 bound_to 6896
  151.4029  133.3745  159.2742 H   0  0  0  0  0  0  0  0  0  0  0  0  # atno 6908 bound_to 6896
  150.9348  134.8782  159.7633 H   0  0  0  0  0  0  0  0  0  0  0  0  # atno 6909 bound_to 6896
  145.7529  140.8899  143.0470 H   0  0  0  0  0  0  0  0  0  0  0  0  # atno 7974 bound_to 7965
  155.4485  140.0537  157.3003 H   0  0  0  0  0  0  0  0  0  0  0  0  # atno 8008 bound_to 7997
  154.4787  140.2072  155.9771 H   0  0  0  0  0  0  0  0  0  0  0  0  # atno 8009 bound_to 7997
  156.1173  140.3194  155.8162 H   0  0  0  0  0  0  0  0  0  0  0  0  # atno 8010 bound_to 7997
  140.4513  143.2482  151.8484 H   0  0  0  0  0  0  0  0  0  0  0  0  # atno 10167 bound_to 10162
  156.0324  130.5538  150.7464 H   0  0  0  0  0  0  0  0  0  0  0  0  # atno 10718 bound_to 10713
  154.4592  135.2767  155.1725 H   0  0  0  0  0  0  0  0  0  0  0  0  # atno 10763 bound_to 10752
  154.3520  135.6148  153.5651 H   0  0  0  0  0  0  0  0  0  0  0  0  # atno 10764 bound_to 10752
  152.9853  135.5814  154.4951 H   0  0  0  0  0  0  0  0  0  0  0  0  # atno 10765 bound_to 10752
  140.6735  133.9216  155.8509 H   0  0  0  0  0  0  0  0  0  0  0  0  # atno 11005 bound_to 11000
  144.6846  139.9617  143.7480 LP  0  0  0  0  0  0  0  0  0  0  0  0  # atno 17320 bound_to 7965
  146.0339  139.3359  143.0738 LP  0  0  0  0  0  0  0  0  0  0  0  0  # atno 17321 bound_to 7965
  139.4797  144.5116  151.8925 LP  0  0  0  0  0  0  0  0  0  0  0  0  # atno 17342 bound_to 10162
  140.4203  144.2252  150.5887 LP  0  0  0  0  0  0  0  0  0  0  0  0  # atno 17343 bound_to 10162
  157.5019  131.0919  151.0303 LP  0  0  0  0  0  0  0  0  0  0  0  0  # atno 17370 bound_to 10713
  157.0682  130.5853  149.5397 LP  0  0  0  0  0  0  0  0  0  0  0  0  # atno 17371 bound_to 10713
  141.0374  134.0671  157.3943 LP  0  0  0  0  0  0  0  0  0  0  0  0  # atno 17394 bound_to 11000
  139.8974  135.0150  156.7098 LP  0  0  0  0  0  0  0  0  0  0  0  0  # atno 17395 bound_to 11000

$$$$
