AV-unprocessed.smi:2657|AV-procd|sdf|10307|dock2
  -GOLD-   2272014323D 1   1.00000     0.00000
 Structure written by MMmdl.
 46 48  0  0  0  0  0  0  0  0  1 V2000
  146.7398  139.5543  153.9177 O   0  0  0  0  0  0  0  0  0  0  0  0
  147.4987  138.7099  153.4429 C   0  0  0  0  0  0  0  0  0  0  0  0
  147.1160  137.8095  152.5266 N   0  0  0  0  0  0  0  0  0  0  0  0
  145.7818  137.7298  151.9440 C   0  0  0  0  0  0  0  0  0  0  0  0
  144.9507  136.5955  152.5786 C   0  0  0  0  0  0  0  0  0  0  0  0
  145.4338  135.2661  152.1875 N   0  0  0  0  0  0  0  0  0  0  0  0
  144.9788  134.5843  151.1265 C   0  0  0  0  0  0  0  0  0  0  0  0
  144.1217  134.9629  150.3287 O   0  0  0  0  0  0  0  0  0  0  0  0
  145.6611  133.2279  151.0143 C   0  0  0  0  0  0  0  0  0  0  0  0
  146.6232  133.2248  152.2061 C   0  0  0  0  0  0  0  0  0  0  0  0
  146.3656  134.5755  152.8596 C   0  0  0  0  0  0  0  0  0  0  0  0
  146.9537  134.9450  153.8754 O   0  0  0  0  0  0  0  0  0  0  0  0
  148.7999  138.5651  153.7470 N   0  0  0  0  0  0  0  0  0  0  0  0
  149.6167  139.3361  154.6202 C   0  0  0  0  0  0  0  0  0  0  0  0
  151.0253  139.2399  154.7147 C   0  0  0  0  0  0  0  0  0  0  0  0
  151.7065  140.0697  155.6256 C   0  0  0  0  0  0  0  0  0  0  0  0
  150.9716  140.9816  156.4193 C   0  0  0  0  0  0  0  0  0  0  0  0
  151.6363  141.8229  157.3383 N   0  0  0  0  0  0  0  0  0  0  0  0
  151.9932  141.2684  158.6431 C   0  0  0  0  0  0  0  0  0  0  0  0
  152.9550  142.2132  159.3832 C   0  0  0  0  0  0  0  0  0  0  0  0
  152.3756  143.5100  159.4770 O   0  0  0  0  0  0  0  0  0  0  0  0
  152.1397  144.0775  158.1928 C   0  0  0  0  0  0  0  0  0  0  0  0
  151.1507  143.1991  157.4072 C   0  0  0  0  0  0  0  0  0  0  0  0
  149.6224  141.0700  156.3269 N   0  0  0  0  0  0  0  0  0  0  0  0
  148.9732  140.2733  155.4528 C   0  0  0  0  0  0  0  0  0  0  0  0
  147.8016  137.1497  152.1892 H   0  0  0  0  0  0  0  0  0  0  0  0
  145.2965  138.6815  152.1618 H   0  0  0  0  0  0  0  0  0  0  0  0
  145.8172  137.6581  150.8554 H   0  0  0  0  0  0  0  0  0  0  0  0
  144.9048  136.7043  153.6639 H   0  0  0  0  0  0  0  0  0  0  0  0
  143.9165  136.6887  152.2428 H   0  0  0  0  0  0  0  0  0  0  0  0
  144.9257  132.4257  151.0845 H   0  0  0  0  0  0  0  0  0  0  0  0
  146.1885  133.1415  150.0639 H   0  0  0  0  0  0  0  0  0  0  0  0
  146.4054  132.4153  152.9032 H   0  0  0  0  0  0  0  0  0  0  0  0
  147.6635  133.1465  151.8885 H   0  0  0  0  0  0  0  0  0  0  0  0
  149.2827  137.8275  153.2549 H   0  0  0  0  0  0  0  0  0  0  0  0
  151.6046  138.5567  154.1156 H   0  0  0  0  0  0  0  0  0  0  0  0
  152.7793  139.9860  155.7127 H   0  0  0  0  0  0  0  0  0  0  0  0
  151.0873  141.1210  159.2330 H   0  0  0  0  0  0  0  0  0  0  0  0
  152.4674  140.2935  158.5230 H   0  0  0  0  0  0  0  0  0  0  0  0
  153.1506  141.8377  160.3877 H   0  0  0  0  0  0  0  0  0  0  0  0
  153.9170  142.2682  158.8710 H   0  0  0  0  0  0  0  0  0  0  0  0
  151.7318  145.0806  158.3180 H   0  0  0  0  0  0  0  0  0  0  0  0
  153.0813  144.1821  157.6515 H   0  0  0  0  0  0  0  0  0  0  0  0
  151.0069  143.6287  156.4169 H   0  0  0  0  0  0  0  0  0  0  0  0
  150.1770  143.2035  157.8988 H   0  0  0  0  0  0  0  0  0  0  0  0
  147.8997  140.3886  155.4205 H   0  0  0  0  0  0  0  0  0  0  0  0
  1  2  2  0  0  0  0
  2  3  1  0  0  0  0
  2 13  1  0  0  0  0
  3  4  1  0  0  0  0
  3 26  1  0  0  0  0
  4  5  1  0  0  0  0
  4 27  1  0  0  0  0
  4 28  1  0  0  0  0
  5  6  1  0  0  0  0
  5 29  1  0  0  0  0
  5 30  1  0  0  0  0
  6 11  1  0  0  0  0
  6  7  1  0  0  0  0
  7  8  2  0  0  0  0
  7  9  1  0  0  0  0
  9 10  1  0  0  0  0
  9 31  1  0  0  0  0
  9 32  1  0  0  0  0
 10 11  1  0  0  0  0
 10 33  1  0  0  0  0
 10 34  1  0  0  0  0
 11 12  2  0  0  0  0
 13 14  1  0  0  0  0
 13 35  1  0  0  0  0
 14 25  1  0  0  0  0
 14 15  2  0  0  0  0
 15 16  1  0  0  0  0
 15 36  1  0  0  0  0
 16 17  2  0  0  0  0
 16 37  1  0  0  0  0
 17 18  1  0  0  0  0
 17 24  1  0  0  0  0
 18 23  1  0  0  0  0
 18 19  1  0  0  0  0
 19 20  1  0  0  0  0
 19 38  1  0  0  0  0
 19 39  1  0  0  0  0
 20 21  1  0  0  0  0
 20 40  1  0  0  0  0
 20 41  1  0  0  0  0
 21 22  1  0  0  0  0
 22 23  1  0  0  0  0
 22 42  1  0  0  0  0
 22 43  1  0  0  0  0
 23 44  1  0  0  0  0
 23 45  1  0  0  0  0
 24 25  2  0  0  0  0
 25 46  1  0  0  0  0
M  END
> <s_m_source_file>
AV-unprocessed.smi

> <i_m_source_file_index>
2657

> <i_lp_mmshare_version>
43012

> <i_f3d_flags>
0

> <s_epik_input>
Tz1DMVtDSDJdW0NIMl1DKD1PKU4xW0NIMl1bQ0gyXVtOSF1DKD1PKVtOSF1jMltjSF1bY0hdYyhuW2NIXTIpTjNbQ0gyXVtDSDJdT1tDSDJdW0NIMl0z

> <s_epik_cmdline>
J2VwaWtfcHl0aG9uJywgJy1waCcsICc3LjAnLCAnLXRuJywgJzgnLCAnLW1hJywgJzIwMCcsICctbWV0YWxfYmluZGluZycsICctaW1hZScsICc8aW5maWxlLm1hZT4nLCAnLW9tYWUnLCAnPG91dGZpbGUubWFlPic=

> <r_lp_tautomer_probability>
1

> <r_epik_Ionization_Penalty>
0.00195667

> <r_epik_Ionization_Penalty_Charging>
0

> <r_epik_Ionization_Penalty_Neutral>
0.00195667

> <r_epik_State_Penalty>
0.0013118

> <r_epik_Charging_Adjusted_Penalty>
0.0013118

> <i_epik_Tot_Q>
0

> <i_epik_Tot_abs_Q>
0

> <r_epik_Metal_State_Penalty>
-0

> <b_epik_Metal_Only>
0

> <s_lp_Force_Field>
OPLS_2005

> <r_lp_Energy>
27.686

> <b_lp_Chiralities_Consistent>
1

> <s_lp_Variant>
AV-unprocessed.smi:2657-1

> <Gold.Version>
5.8.1

> <Gold.Id.Protein>
6NUR|6NUR_protein|mol2

> <Gold.PLP.Fitness>
45.7304

> <Gold.PLP.PLP>
-42.2292

> <Gold.PLP.part.hbond>
-2.9926

> <Gold.PLP.part.metal>
0.0000

> <Gold.PLP.part.buried>
-0.0044

> <Gold.PLP.part.nonpolar>
-40.5090

> <Gold.PLP.part.repulsive>
1.6079

> <Gold.PLP.ligand.clash>
0.0000

> <Gold.PLP.ligand.torsion>
1.1264

> <Gold.PLP.Chemscore.Hbond>
1.8008

> <Gold.PLP.Chemscore.CHOScore>
0.0000

> <Gold.PLP.Chemscore.Metal>
0.0000

> <Gold.Chemscore.Hbonds>
donor molecule, donor type, donor heavy atom, donor atom, acceptor molecule, acceptor atom, score
      L1  H     3    26       P1  7948  0.91
      L1  H    13    35       P1  7948  0.69

> <Gold.PLP.Chemscore.Internal.Correction>
0.3515

> <Gold.Rescore>
     Score         DG    S(hbond)    S(metal)    S(lipo)     H(rot)  DE(clash)    DE(int)     intcor
     13.30     -17.13       1.82        0.00      90.88       1.97       1.40       2.43       ----

> <Gold.Chemscore.Fitness>
13.2961

> <Gold.Chemscore.DG>
-17.1284

> <Gold.Chemscore.ZeroCoef>
-5.4800

> <Gold.Chemscore.Hbond>
1.8172

> <Gold.Chemscore.Metal>
0.0000

> <Gold.Chemscore.Lipo>
90.8809

> <Gold.Chemscore.Internal_Hbond>
0.0000

> <Gold.Chemscore.DEClash>
1.4045

> <Gold.Chemscore.DEInternal>
2.4279

> <Gold.Chemscore.Rot>
1.9742

> <Gold.Chemscore.Internal.Correction>
   9.000000E+99

> <Gold.Chemscore.Hbonds>
donor molecule, donor type, donor heavy atom, donor atom, acceptor molecule, acceptor atom, score
      L1  H     3    26       P1  7948  0.87
      L1  H    13    35       P1  7948  0.66

> <Gold.Chemscore.Hbond.Weighted>
-6.0694

> <Gold.Chemscore.Metal.Weighted>
-0.0000

> <Gold.Chemscore.Lipo.Weighted>
-10.6331

> <Gold.Chemscore.Internal_Hbond.Weighted>
0.0000

> <Gold.Chemscore.DEClash.Weighted>
1.4045

> <Gold.Chemscore.DEInternal.Weighted>
2.4279

> <Gold.Chemscore.Rot.Weighted>
5.0540

> <Gold.Chemscore.Internal.Correction.Weighted>
   9.000000E+99

> <Gold.Protein.RotatedTorsions>
[ 6907 6896 6895 6894 ] final  -89.55 input  -60.11 | X-H torsion
[ 7974 7965 7964 7962 ] final   39.94 input  175.53 | X-H torsion
[ 8008 7997 7996 7995 ] final  148.85 input   59.86 | X-H torsion
[ 10167 10162 10161 10158 ] final  -28.43 input  -65.29 | X-H torsion
[ 10718 10713 10712 10709 ] final  157.91 input   66.30 | X-H torsion
[ 10763 10752 10751 10750 ] final  -22.45 input  -60.55 | X-H torsion
[ 11005 11000 10999 10996 ] final -131.55 input  -57.11 | X-H torsion

> <Gold.Protein.ActiveResidues>
 VAL166  LYS551  ARG553  GLY616  TRP617  ASP618  TYR619  PRO620  LYS621  CYS622 
 ASP623  PHE694  ASN695  SER759  ASP760  ASP761  ALA762  ILE779  LEU786  VAL792 
 PHE793  MET794  SER795  GLU796  ALA797  LYS798  CYS799  TRP800  GLU811  SER814 

> <Gold.Protein.RotatedAtoms>
  150.6874  134.2569  159.4533 H   0  0  0  0  0  0  0  0  0  0  0  0  # atno 6907 bound_to 6896
  152.0502  134.9655  160.0584 H   0  0  0  0  0  0  0  0  0  0  0  0  # atno 6908 bound_to 6896
  152.1123  133.4272  159.4673 H   0  0  0  0  0  0  0  0  0  0  0  0  # atno 6909 bound_to 6896
  146.0944  139.5592  142.9455 H   0  0  0  0  0  0  0  0  0  0  0  0  # atno 7974 bound_to 7965
  156.2776  140.2117  156.5765 H   0  0  0  0  0  0  0  0  0  0  0  0  # atno 8008 bound_to 7997
  154.7093  140.0513  157.0558 H   0  0  0  0  0  0  0  0  0  0  0  0  # atno 8009 bound_to 7997
  155.0627  140.3168  155.4658 H   0  0  0  0  0  0  0  0  0  0  0  0  # atno 8010 bound_to 7997
  140.7270  143.4010  151.1264 H   0  0  0  0  0  0  0  0  0  0  0  0  # atno 10167 bound_to 10162
  157.1851  131.0641  151.2110 H   0  0  0  0  0  0  0  0  0  0  0  0  # atno 10718 bound_to 10713
  153.6521  135.6980  153.5205 H   0  0  0  0  0  0  0  0  0  0  0  0  # atno 10763 bound_to 10752
  153.2698  135.4218  155.0976 H   0  0  0  0  0  0  0  0  0  0  0  0  # atno 10764 bound_to 10752
  154.8474  135.3575  154.6065 H   0  0  0  0  0  0  0  0  0  0  0  0  # atno 10765 bound_to 10752
  140.9248  134.1396  157.4284 H   0  0  0  0  0  0  0  0  0  0  0  0  # atno 11005 bound_to 11000
  145.5976  141.0360  143.2036 LP  0  0  0  0  0  0  0  0  0  0  0  0  # atno 17320 bound_to 7965
  144.7384  139.7518  143.7320 LP  0  0  0  0  0  0  0  0  0  0  0  0  # atno 17321 bound_to 7965
  139.7630  143.8607  152.3104 LP  0  0  0  0  0  0  0  0  0  0  0  0  # atno 17342 bound_to 10162
  139.8499  144.7169  150.9227 LP  0  0  0  0  0  0  0  0  0  0  0  0  # atno 17343 bound_to 10162
  157.3915  130.7284  149.6701 LP  0  0  0  0  0  0  0  0  0  0  0  0  # atno 17370 bound_to 10713
  155.9719  130.4145  150.4136 LP  0  0  0  0  0  0  0  0  0  0  0  0  # atno 17371 bound_to 10713
  139.8783  134.9984  156.5900 LP  0  0  0  0  0  0  0  0  0  0  0  0  # atno 17394 bound_to 11000
  140.7940  133.8559  155.8670 LP  0  0  0  0  0  0  0  0  0  0  0  0  # atno 17395 bound_to 11000

$$$$
