AV-unprocessed.smi:524|AV-procd|sdf|2805|dock1
  -GOLD-   2262023283D 1   1.00000     0.00000
 Structure written by MMmdl.
 43 45  0  0  0  0  0  0  0  0  1 V2000
  149.4191  139.9892  155.3959 C   0  0  0  0  0  0  0  0  0  0  0  0
  150.6022  140.6763  155.0298 O   0  0  0  0  0  0  0  0  0  0  0  0
  151.6343  140.5313  155.9916 C   0  0  0  0  0  0  0  0  0  0  0  0
  151.1964  141.1561  157.3236 C   0  0  0  0  0  0  0  0  0  0  0  0
  152.0647  140.7487  158.4267 N   0  0  0  0  0  0  0  0  0  0  0  0
  152.6638  141.5311  159.3673 C   0  0  0  0  0  0  0  0  0  0  0  0
  152.5387  142.9218  159.3740 N   0  0  0  0  0  0  0  0  0  0  0  0
  152.4509  143.7896  158.1985 C   0  0  0  0  0  0  0  0  0  0  0  0
  151.2675  144.7689  158.3013 C   0  0  0  0  0  0  0  0  0  0  0  0
  151.3883  145.6244  159.5699 C   0  0  0  0  0  0  0  0  0  0  0  0
  151.5935  144.7219  160.7947 C   0  0  0  0  0  0  0  0  0  0  0  0
  152.7594  143.7441  160.5630 C   0  0  0  0  0  0  0  0  0  0  0  0
  153.3339  140.8578  160.3068 N   0  0  0  0  0  0  0  0  0  0  0  0
  153.1690  139.5370  159.9230 C   0  0  0  0  0  0  0  0  0  0  0  0
  152.4046  139.4471  158.8054 C   0  0  0  0  0  0  0  0  0  0  0  0
  152.0337  138.1531  158.2136 C   0  0  0  0  0  0  0  0  0  0  0  0
  151.3334  138.0370  157.2108 O   0  0  0  0  0  0  0  0  0  0  0  0
  152.5364  137.0939  158.8933 N   0  0  0  0  0  0  0  0  0  0  0  0
  153.3131  137.1183  160.0190 C   0  0  0  0  0  0  0  0  0  0  0  0
  153.6834  136.0606  160.5277 O   0  0  0  0  0  0  0  0  0  0  0  0
  153.6436  138.3453  160.5373 N   0  0  0  0  0  0  0  0  0  0  0  0
  154.4673  138.4772  161.7409 C   0  0  0  0  0  0  0  0  0  0  0  0
  152.3061  136.1806  158.5301 H   0  0  0  0  0  0  0  0  0  0  0  0
  148.6581  140.1377  154.6299 H   0  0  0  0  0  0  0  0  0  0  0  0
  149.0230  140.3620  156.3413 H   0  0  0  0  0  0  0  0  0  0  0  0
  149.5990  138.9173  155.4884 H   0  0  0  0  0  0  0  0  0  0  0  0
  151.8649  139.4750  156.1367 H   0  0  0  0  0  0  0  0  0  0  0  0
  152.5442  141.0165  155.6353 H   0  0  0  0  0  0  0  0  0  0  0  0
  151.1850  142.2409  157.2447 H   0  0  0  0  0  0  0  0  0  0  0  0
  150.1667  140.8882  157.5404 H   0  0  0  0  0  0  0  0  0  0  0  0
  153.3825  144.3503  158.1103 H   0  0  0  0  0  0  0  0  0  0  0  0
  152.3839  143.1942  157.2888 H   0  0  0  0  0  0  0  0  0  0  0  0
  151.2344  145.4106  157.4204 H   0  0  0  0  0  0  0  0  0  0  0  0
  150.3272  144.2170  158.3185 H   0  0  0  0  0  0  0  0  0  0  0  0
  152.2362  146.3034  159.4722 H   0  0  0  0  0  0  0  0  0  0  0  0
  150.5013  146.2455  159.6974 H   0  0  0  0  0  0  0  0  0  0  0  0
  151.7848  145.3301  161.6791 H   0  0  0  0  0  0  0  0  0  0  0  0
  150.6801  144.1603  160.9949 H   0  0  0  0  0  0  0  0  0  0  0  0
  152.8706  143.1004  161.4364 H   0  0  0  0  0  0  0  0  0  0  0  0
  153.6986  144.2888  160.4573 H   0  0  0  0  0  0  0  0  0  0  0  0
  154.9707  137.5546  162.0327 H   0  0  0  0  0  0  0  0  0  0  0  0
  153.8496  138.8003  162.5793 H   0  0  0  0  0  0  0  0  0  0  0  0
  155.2438  139.2275  161.5868 H   0  0  0  0  0  0  0  0  0  0  0  0
  1  2  1  0  0  0  0
  1 24  1  0  0  0  0
  1 25  1  0  0  0  0
  1 26  1  0  0  0  0
  2  3  1  0  0  0  0
  3  4  1  0  0  0  0
  3 27  1  0  0  0  0
  3 28  1  0  0  0  0
  4  5  1  0  0  0  0
  4 29  1  0  0  0  0
  4 30  1  0  0  0  0
  5 15  1  0  0  0  0
  5  6  1  0  0  0  0
  6  7  1  0  0  0  0
  6 13  2  0  0  0  0
  7 12  1  0  0  0  0
  7  8  1  0  0  0  0
  8  9  1  0  0  0  0
  8 31  1  0  0  0  0
  8 32  1  0  0  0  0
  9 10  1  0  0  0  0
  9 33  1  0  0  0  0
  9 34  1  0  0  0  0
 10 11  1  0  0  0  0
 10 35  1  0  0  0  0
 10 36  1  0  0  0  0
 11 12  1  0  0  0  0
 11 37  1  0  0  0  0
 11 38  1  0  0  0  0
 12 39  1  0  0  0  0
 12 40  1  0  0  0  0
 13 14  1  0  0  0  0
 14 21  1  0  0  0  0
 14 15  2  0  0  0  0
 15 16  1  0  0  0  0
 16 17  2  0  0  0  0
 16 18  1  0  0  0  0
 18 23  1  0  0  0  0
 18 19  1  0  0  0  0
 19 20  2  0  0  0  0
 19 21  1  0  0  0  0
 21 22  1  0  0  0  0
 22 41  1  0  0  0  0
 22 42  1  0  0  0  0
 22 43  1  0  0  0  0
M  END
> <s_m_source_file>
AV-unprocessed.smi

> <i_m_source_file_index>
524

> <i_lp_mmshare_version>
43012

> <i_f3d_flags>
0

> <s_epik_input>
W0NIM11uMWMoPU8pW25IXWMoPU8pYyhjMTIpbihbQ0gyXVtDSDJdT1tDSDNdKWMobjIpTjNbQ0gyXVtDSDJdW0NIMl1bQ0gyXVtDSDJdMw==

> <s_epik_cmdline>
J2VwaWtfcHl0aG9uJywgJy1waCcsICc3LjAnLCAnLXRuJywgJzgnLCAnLW1hJywgJzIwMCcsICctbWV0YWxfYmluZGluZycsICctaW1hZScsICc8aW5maWxlLm1hZT4nLCAnLW9tYWUnLCAnPG91dGZpbGUubWFlPic=

> <r_lp_tautomer_probability>
1

> <r_epik_Ionization_Penalty>
0.000298119

> <r_epik_Ionization_Penalty_Charging>
0.000125384

> <r_epik_Ionization_Penalty_Neutral>
0.000172735

> <r_epik_State_Penalty>
-0

> <r_epik_Charging_Adjusted_Penalty>
0.000125384

> <i_epik_Tot_Q>
0

> <i_epik_Tot_abs_Q>
0

> <r_epik_Metal_State_Penalty>
0.0954001

> <b_epik_Metal_Only>
0

> <s_lp_Force_Field>
OPLS_2005

> <r_lp_Energy>
37.2528

> <b_lp_Chiralities_Consistent>
1

> <s_lp_Variant>
AV-unprocessed.smi:524-1

> <Gold.Version>
5.8.1

> <Gold.Id.Protein>
6NUR|6NUR_protein|mol2

> <Gold.PLP.Fitness>
47.9069

> <Gold.PLP.PLP>
-42.4687

> <Gold.PLP.part.hbond>
-2.0000

> <Gold.PLP.part.metal>
0.0000

> <Gold.PLP.part.buried>
-4.9136

> <Gold.PLP.part.nonpolar>
-34.4933

> <Gold.PLP.part.repulsive>
0.1701

> <Gold.PLP.ligand.clash>
0.0000

> <Gold.PLP.ligand.torsion>
0.4489

> <Gold.PLP.Chemscore.Hbond>
1.9440

> <Gold.PLP.Chemscore.CHOScore>
0.0000

> <Gold.PLP.Chemscore.Metal>
0.0000

> <Gold.Chemscore.Hbonds>
donor molecule, donor type, donor heavy atom, donor atom, acceptor molecule, acceptor atom, score
      P1  H  6896  6909       L1    20  1.00
      P1  H  7989  7998       L1     2  0.91

> <Gold.PLP.Chemscore.Internal.Correction>
0.5041

> <Gold.Rescore>
     Score         DG    S(hbond)    S(metal)    S(lipo)     H(rot)  DE(clash)    DE(int)     intcor
     14.08     -16.91       1.34        0.00      91.80       1.48       0.93       1.90       ----

> <Gold.Chemscore.Fitness>
14.0840

> <Gold.Chemscore.DG>
-16.9118

> <Gold.Chemscore.ZeroCoef>
-5.4800

> <Gold.Chemscore.Hbond>
1.3436

> <Gold.Chemscore.Metal>
0.0000

> <Gold.Chemscore.Lipo>
91.8047

> <Gold.Chemscore.Internal_Hbond>
0.0000

> <Gold.Chemscore.DEClash>
0.9317

> <Gold.Chemscore.DEInternal>
1.8960

> <Gold.Chemscore.Rot>
1.4832

> <Gold.Chemscore.Internal.Correction>
   9.000000E+99

> <Gold.Chemscore.Hbonds>
donor molecule, donor type, donor heavy atom, donor atom, acceptor molecule, acceptor atom, score
      P1  H  6896  6909       L1    20  0.50
      P1  H  7989  7998       L1     2  0.23

> <Gold.Chemscore.Hbond.Weighted>
-4.4876

> <Gold.Chemscore.Metal.Weighted>
-0.0000

> <Gold.Chemscore.Lipo.Weighted>
-10.7411

> <Gold.Chemscore.Internal_Hbond.Weighted>
0.0000

> <Gold.Chemscore.DEClash.Weighted>
0.9317

> <Gold.Chemscore.DEInternal.Weighted>
1.8960

> <Gold.Chemscore.Rot.Weighted>
3.7970

> <Gold.Chemscore.Internal.Correction.Weighted>
   9.000000E+99

> <Gold.Protein.RotatedTorsions>
[ 6907 6896 6895 6894 ] final  170.76 input  -60.11 | X-H torsion
[ 7974 7965 7964 7962 ] final   67.63 input  175.53 | X-H torsion
[ 8008 7997 7996 7995 ] final   35.68 input   59.86 | X-H torsion
[ 10167 10162 10161 10158 ] final   10.95 input  -65.29 | X-H torsion
[ 10718 10713 10712 10709 ] final -117.31 input   66.30 | X-H torsion
[ 10763 10752 10751 10750 ] final -130.58 input  -60.55 | X-H torsion
[ 11005 11000 10999 10996 ] final -109.89 input  -57.11 | X-H torsion

> <Gold.Protein.ActiveResidues>
 VAL166  LYS551  ARG553  GLY616  TRP617  ASP618  TYR619  PRO620  LYS621  CYS622 
 ASP623  PHE694  ASN695  SER759  ASP760  ASP761  ALA762  ILE779  LEU786  VAL792 
 PHE793  MET794  SER795  GLU796  ALA797  LYS798  CYS799  TRP800  GLU811  SER814 

> <Gold.Protein.RotatedAtoms>
  151.8110  133.3382  159.3555 H   0  0  0  0  0  0  0  0  0  0  0  0  # atno 6907 bound_to 6896
  150.7326  134.5664  159.5877 H   0  0  0  0  0  0  0  0  0  0  0  0  # atno 6908 bound_to 6896
  152.3075  134.7539  160.0395 H   0  0  0  0  0  0  0  0  0  0  0  0  # atno 6909 bound_to 6896
  145.8124  139.3039  143.1091 H   0  0  0  0  0  0  0  0  0  0  0  0  # atno 7974 bound_to 7965
  155.1750  140.3295  155.4385 H   0  0  0  0  0  0  0  0  0  0  0  0  # atno 8008 bound_to 7997
  156.2497  140.1937  156.6802 H   0  0  0  0  0  0  0  0  0  0  0  0  # atno 8009 bound_to 7997
  154.6311  140.0582  156.9719 H   0  0  0  0  0  0  0  0  0  0  0  0  # atno 8010 bound_to 7997
  140.6162  143.8302  150.7121 H   0  0  0  0  0  0  0  0  0  0  0  0  # atno 10167 bound_to 10162
  156.1025  130.6183  150.9148 H   0  0  0  0  0  0  0  0  0  0  0  0  # atno 10718 bound_to 10713
  154.8755  135.3858  154.4107 H   0  0  0  0  0  0  0  0  0  0  0  0  # atno 10763 bound_to 10752
  153.4821  135.7030  153.5937 H   0  0  0  0  0  0  0  0  0  0  0  0  # atno 10764 bound_to 10752
  153.4348  135.3870  155.2160 H   0  0  0  0  0  0  0  0  0  0  0  0  # atno 10765 bound_to 10752
  141.0822  133.9200  157.2263 H   0  0  0  0  0  0  0  0  0  0  0  0  # atno 11005 bound_to 11000
  145.9763  140.8719  143.0137 LP  0  0  0  0  0  0  0  0  0  0  0  0  # atno 17320 bound_to 7965
  144.6756  140.2017  143.7386 LP  0  0  0  0  0  0  0  0  0  0  0  0  # atno 17321 bound_to 7965
  140.1882  143.4058  152.1883 LP  0  0  0  0  0  0  0  0  0  0  0  0  # atno 17342 bound_to 10162
  139.5401  144.7248  151.4763 LP  0  0  0  0  0  0  0  0  0  0  0  0  # atno 17343 bound_to 10162
  157.6197  131.0930  150.8645 LP  0  0  0  0  0  0  0  0  0  0  0  0  # atno 17370 bound_to 10713
  156.8770  130.5166  149.5293 LP  0  0  0  0  0  0  0  0  0  0  0  0  # atno 17371 bound_to 10713
  139.9637  135.0147  156.9330 LP  0  0  0  0  0  0  0  0  0  0  0  0  # atno 17394 bound_to 11000
  140.5442  134.0690  155.7350 LP  0  0  0  0  0  0  0  0  0  0  0  0  # atno 17395 bound_to 11000

$$$$
