AV-unprocessed.smi:3248|AV-procd|sdf|12414|dock1
  -GOLD-   2272018293D 1   1.00000     0.00000
 Structure written by MMmdl.
 38 39  0  0  0  0  0  0  0  0  1 V2000
  145.8894  134.0899  153.6241 C   0  0  0  0  0  0  0  0  0  0  0  0
  146.8492  133.0754  152.9883 C   0  0  1  0  0  0  0  0  0  0  0  0
  147.0478  133.3575  151.4832 C   0  0  0  0  0  0  0  0  0  0  0  0
  145.8983  132.9756  150.6815 N   0  0  0  0  0  0  0  0  0  0  0  0
  145.8534  132.1225  149.5986 C   0  0  0  0  0  0  0  0  0  0  0  0
  144.5538  132.0586  149.1851 C   0  0  0  0  0  0  0  0  0  0  0  0
  143.8704  132.9220  150.0863 C   0  0  0  0  0  0  0  0  0  0  0  0
  144.6785  133.4738  150.9771 N   0  0  0  0  0  0  0  0  0  0  0  0
  148.1267  133.1239  153.6984 N   0  0  0  0  0  0  0  0  0  0  0  0
  148.6639  132.1273  154.4236 C   0  0  0  0  0  0  0  0  0  0  0  0
  148.1195  131.0313  154.5547 O   0  0  0  0  0  0  0  0  0  0  0  0
  149.9159  132.4069  154.8584 N   0  0  0  0  0  0  0  0  0  0  0  0
  150.2718  133.7640  155.2957 C   0  0  0  0  0  0  0  0  0  0  0  0
  150.0947  133.8439  156.8250 C   0  0  0  0  0  0  0  0  0  0  0  0
  150.9039  132.8567  157.4609 O   0  0  0  0  0  0  0  0  0  0  0  0
  150.6243  131.5274  157.0257 C   0  0  0  0  0  0  0  0  0  0  0  0
  150.8268  131.4392  155.4997 C   0  0  1  0  0  0  0  0  0  0  0  0
  150.7387  129.9935  154.9663 C   0  0  0  0  0  0  0  0  0  0  0  0
  144.9131  134.0617  153.1396 H   0  0  0  0  0  0  0  0  0  0  0  0
  146.2731  135.1072  153.5403 H   0  0  0  0  0  0  0  0  0  0  0  0
  145.7364  133.8765  154.6827 H   0  0  0  0  0  0  0  0  0  0  0  0
  146.3968  132.0888  153.1054 H   0  0  0  0  0  0  0  0  0  0  0  0
  147.2322  134.4203  151.3216 H   0  0  0  0  0  0  0  0  0  0  0  0
  147.9263  132.8303  151.1079 H   0  0  0  0  0  0  0  0  0  0  0  0
  146.7382  131.6304  149.2229 H   0  0  0  0  0  0  0  0  0  0  0  0
  144.1520  131.4811  148.3660 H   0  0  0  0  0  0  0  0  0  0  0  0
  142.8183  133.1636  150.1187 H   0  0  0  0  0  0  0  0  0  0  0  0
  148.6629  133.9742  153.6049 H   0  0  0  0  0  0  0  0  0  0  0  0
  151.3054  133.9811  155.0223 H   0  0  0  0  0  0  0  0  0  0  0  0
  149.6694  134.5380  154.8183 H   0  0  0  0  0  0  0  0  0  0  0  0
  150.3893  134.8285  157.1883 H   0  0  0  0  0  0  0  0  0  0  0  0
  149.0494  133.7004  157.1038 H   0  0  0  0  0  0  0  0  0  0  0  0
  151.3011  130.8453  157.5407 H   0  0  0  0  0  0  0  0  0  0  0  0
  149.6087  131.2451  157.3076 H   0  0  0  0  0  0  0  0  0  0  0  0
  151.8444  131.7669  155.2799 H   0  0  0  0  0  0  0  0  0  0  0  0
  151.5686  129.3970  155.3454 H   0  0  0  0  0  0  0  0  0  0  0  0
  150.7928  129.9690  153.8776 H   0  0  0  0  0  0  0  0  0  0  0  0
  149.8238  129.4883  155.2739 H   0  0  0  0  0  0  0  0  0  0  0  0
  1  2  1  0  0  0  0
  1 19  1  0  0  0  0
  1 20  1  0  0  0  0
  1 21  1  0  0  0  0
  2  3  1  0  0  0  0
  2  9  1  0  0  0  0
  2 22  1  0  0  0  0
  3  4  1  0  0  0  0
  3 23  1  0  0  0  0
  3 24  1  0  0  0  0
  4  8  1  0  0  0  0
  4  5  1  0  0  0  0
  5  6  2  0  0  0  0
  5 25  1  0  0  0  0
  6  7  1  0  0  0  0
  6 26  1  0  0  0  0
  7  8  2  0  0  0  0
  7 27  1  0  0  0  0
  9 10  1  0  0  0  0
  9 28  1  0  0  0  0
 10 11  2  0  0  0  0
 10 12  1  0  0  0  0
 12 17  1  0  0  0  0
 12 13  1  0  0  0  0
 13 14  1  0  0  0  0
 13 29  1  0  0  0  0
 13 30  1  0  0  0  0
 14 15  1  0  0  0  0
 14 31  1  0  0  0  0
 14 32  1  0  0  0  0
 15 16  1  0  0  0  0
 16 17  1  0  0  0  0
 16 33  1  0  0  0  0
 16 34  1  0  0  0  0
 17 18  1  0  0  0  0
 17 35  1  0  0  0  0
 18 36  1  0  0  0  0
 18 37  1  0  0  0  0
 18 38  1  0  0  0  0
M  END
> <s_m_source_file>
AV-unprocessed.smi

> <i_m_source_file_index>
3248

> <i_lp_mmshare_version>
43012

> <i_f3d_flags>
0

> <s_epik_input>
bjFbY0hdW2NIXVtjSF1uMVtDSDJdW0NAQEhdKFtDSDNdKVtOSF1DKD1PKU4yW0NIMl1bQ0gyXU9bQ0gyXVtDQEhdMltDSDNd

> <s_epik_cmdline>
J2VwaWtfcHl0aG9uJywgJy1waCcsICc3LjAnLCAnLXRuJywgJzgnLCAnLW1hJywgJzIwMCcsICctbWV0YWxfYmluZGluZycsICctaW1hZScsICc8aW5maWxlLm1hZT4nLCAnLW9tYWUnLCAnPG91dGZpbGUubWFlPic=

> <r_lp_tautomer_probability>
1

> <r_epik_Ionization_Penalty>
4.45233e-05

> <r_epik_Ionization_Penalty_Charging>
0

> <r_epik_Ionization_Penalty_Neutral>
4.45233e-05

> <r_epik_State_Penalty>
-0

> <r_epik_Charging_Adjusted_Penalty>
0

> <i_epik_Tot_Q>
0

> <i_epik_Tot_abs_Q>
0

> <r_epik_Metal_State_Penalty>
-0

> <b_epik_Metal_Only>
0

> <s_lp_Force_Field>
OPLS_2005

> <r_lp_Energy>
31.1231

> <b_lp_Chiralities_Consistent>
1

> <s_lp_Variant>
AV-unprocessed.smi:3248-2

> <Gold.Version>
5.8.1

> <Gold.Id.Protein>
6NUR|6NUR_protein|mol2

> <Gold.PLP.Fitness>
39.7448

> <Gold.PLP.PLP>
-31.0365

> <Gold.PLP.part.hbond>
-1.0000

> <Gold.PLP.part.metal>
0.0000

> <Gold.PLP.part.buried>
-4.3281

> <Gold.PLP.part.nonpolar>
-26.3108

> <Gold.PLP.part.repulsive>
0.1579

> <Gold.PLP.ligand.clash>
0.0002

> <Gold.PLP.ligand.torsion>
0.3935

> <Gold.PLP.Chemscore.Hbond>
1.0000

> <Gold.PLP.Chemscore.CHOScore>
1.9895

> <Gold.PLP.Chemscore.Metal>
0.0000

> <Gold.Chemscore.Hbonds>
donor molecule, donor type, donor heavy atom, donor atom, acceptor molecule, acceptor atom, score
      P1  H  6896  6909       L1    15  1.00
      L1  C     5    25       P1 10747  0.92
      L1  C     7    27       P1 10186  1.00

> <Gold.PLP.Chemscore.Internal.Correction>
0.5271

> <Gold.Rescore>
     Score         DG    S(hbond)    S(metal)    S(lipo)     H(rot)  DE(clash)    DE(int)     intcor
     10.73     -12.55       0.80        0.00      68.57       1.42       0.02       1.80       ----

> <Gold.Chemscore.Fitness>
10.7291

> <Gold.Chemscore.DG>
-12.5522

> <Gold.Chemscore.ZeroCoef>
-5.4800

> <Gold.Chemscore.Hbond>
0.8032

> <Gold.Chemscore.Metal>
0.0000

> <Gold.Chemscore.Lipo>
68.5676

> <Gold.Chemscore.Internal_Hbond>
0.0000

> <Gold.Chemscore.DEClash>
0.0249

> <Gold.Chemscore.DEInternal>
1.7983

> <Gold.Chemscore.Rot>
1.4191

> <Gold.Chemscore.Internal.Correction>
   9.000000E+99

> <Gold.Chemscore.Hbonds>
donor molecule, donor type, donor heavy atom, donor atom, acceptor molecule, acceptor atom, score
      P1  H  6896  6909       L1    15  0.75

> <Gold.Chemscore.Hbond.Weighted>
-2.6828

> <Gold.Chemscore.Metal.Weighted>
-0.0000

> <Gold.Chemscore.Lipo.Weighted>
-8.0224

> <Gold.Chemscore.Internal_Hbond.Weighted>
0.0000

> <Gold.Chemscore.DEClash.Weighted>
0.0249

> <Gold.Chemscore.DEInternal.Weighted>
1.7983

> <Gold.Chemscore.Rot.Weighted>
3.6330

> <Gold.Chemscore.Internal.Correction.Weighted>
   9.000000E+99

> <Gold.Protein.RotatedTorsions>
[ 6907 6896 6895 6894 ] final  -41.27 input  -60.11 | X-H torsion
[ 7974 7965 7964 7962 ] final  -89.74 input  175.53 | X-H torsion
[ 8008 7997 7996 7995 ] final   55.10 input   59.86 | X-H torsion
[ 10167 10162 10161 10158 ] final -143.45 input  -65.29 | X-H torsion
[ 10718 10713 10712 10709 ] final   57.04 input   66.30 | X-H torsion
[ 10763 10752 10751 10750 ] final  171.20 input  -60.55 | X-H torsion
[ 11005 11000 10999 10996 ] final  150.81 input  -57.11 | X-H torsion

> <Gold.Protein.ActiveResidues>
 VAL166  LYS551  ARG553  GLY616  TRP617  ASP618  TYR619  PRO620  LYS621  CYS622 
 ASP623  PHE694  ASN695  SER759  ASP760  ASP761  ALA762  ILE779  LEU786  VAL792 
 PHE793  MET794  SER795  GLU796  ALA797  LYS798  CYS799  TRP800  GLU811  SER814 

> <Gold.Protein.RotatedAtoms>
  150.9687  134.9064  159.7774 H   0  0  0  0  0  0  0  0  0  0  0  0  # atno 6907 bound_to 6896
  152.5182  134.3571  159.9281 H   0  0  0  0  0  0  0  0  0  0  0  0  # atno 6908 bound_to 6896
  151.3580  133.3859  159.2721 H   0  0  0  0  0  0  0  0  0  0  0  0  # atno 6909 bound_to 6896
  145.4357  140.9557  143.2103 H   0  0  0  0  0  0  0  0  0  0  0  0  # atno 7974 bound_to 7965
  155.4956  140.3473  155.4362 H   0  0  0  0  0  0  0  0  0  0  0  0  # atno 8008 bound_to 7997
  156.0948  140.1420  156.9573 H   0  0  0  0  0  0  0  0  0  0  0  0  # atno 8009 bound_to 7997
  154.4657  140.0918  156.6990 H   0  0  0  0  0  0  0  0  0  0  0  0  # atno 8010 bound_to 7997
  139.7992  143.7858  152.2657 H   0  0  0  0  0  0  0  0  0  0  0  0  # atno 10167 bound_to 10162
  157.5481  130.8746  149.8922 H   0  0  0  0  0  0  0  0  0  0  0  0  # atno 10718 bound_to 10713
  154.4085  135.2756  155.2052 H   0  0  0  0  0  0  0  0  0  0  0  0  # atno 10763 bound_to 10752
  154.4047  135.6036  153.5921 H   0  0  0  0  0  0  0  0  0  0  0  0  # atno 10764 bound_to 10752
  152.9831  135.5935  154.4363 H   0  0  0  0  0  0  0  0  0  0  0  0  # atno 10765 bound_to 10752
  140.1164  134.8891  157.2010 H   0  0  0  0  0  0  0  0  0  0  0  0  # atno 11005 bound_to 11000
  144.8154  139.5887  143.7011 LP  0  0  0  0  0  0  0  0  0  0  0  0  # atno 17320 bound_to 7965
  146.2583  139.6352  142.9379 LP  0  0  0  0  0  0  0  0  0  0  0  0  # atno 17321 bound_to 7965
  139.7972  144.7388  150.9873 LP  0  0  0  0  0  0  0  0  0  0  0  0  # atno 17342 bound_to 10162
  140.7820  143.4381  151.0592 LP  0  0  0  0  0  0  0  0  0  0  0  0  # atno 17343 bound_to 10162
  156.0553  130.3709  150.1106 LP  0  0  0  0  0  0  0  0  0  0  0  0  # atno 17370 bound_to 10713
  156.9281  130.9705  151.3537 LP  0  0  0  0  0  0  0  0  0  0  0  0  # atno 17371 bound_to 10713
  140.3023  134.3118  155.7287 LP  0  0  0  0  0  0  0  0  0  0  0  0  # atno 17394 bound_to 11000
  141.2142  133.7599  156.9658 LP  0  0  0  0  0  0  0  0  0  0  0  0  # atno 17395 bound_to 11000

$$$$
