AV-unprocessed.smi:1464|AV-procd|sdf|5939|dock2
  -GOLD-   22720 6 23D 1   1.00000     0.00000
 Structure written by MMmdl.
 40 41  0  0  0  0  0  0  0  0  2 V2000
  152.1460  144.4179  157.7216 C   0  0  0  0  0  0  0  0  0  0  0  0
  151.1888  143.9061  158.8178 C   0  0  2  0  0  0  0  0  0  0  0  0
  151.6915  144.2751  160.2285 C   0  0  0  0  0  0  0  0  0  0  0  0
  152.9046  143.4323  160.6524 C   0  0  0  0  0  0  0  0  0  0  0  0
  152.5935  141.9316  160.5659 C   0  0  0  0  0  0  0  0  0  0  0  0
  152.0925  141.5258  159.1662 C   0  0  1  0  0  0  0  0  0  0  0  0
  151.7369  140.1074  159.1882 N   0  0  0  0  0  0  0  0  0  0  0  0
  152.4093  139.1134  158.5868 C   0  0  0  0  0  0  0  0  0  0  0  0
  153.4339  139.2926  157.9261 O   0  0  0  0  0  0  0  0  0  0  0  0
  151.8109  137.7094  158.7693 C   0  0  0  0  0  0  0  0  0  0  0  0
  150.3412  137.6776  158.7982 N   0  0  0  0  0  0  0  0  0  0  0  0
  149.7896  136.9293  159.9247 N   0  5  0  0  0  0  0  0  0  0  0  0
  148.4403  136.8571  160.0750 C   0  0  0  0  0  0  0  0  0  0  0  0
  147.9046  136.2651  161.0089 O   0  0  0  0  0  0  0  0  0  0  0  0
  147.6052  137.5080  159.0792 C   0  0  0  0  0  0  0  0  0  0  0  0
  148.1415  138.1673  158.0334 C   0  0  0  0  0  0  0  0  0  0  0  0
  149.5820  138.2771  157.8369 C   0  0  0  0  0  0  0  0  0  0  0  0
  150.0783  138.8709  156.8793 O   0  0  0  0  0  0  0  0  0  0  0  0
  150.8778  142.3875  158.7328 C   0  0  2  0  0  0  0  0  0  0  0  0
  150.3090  141.9798  157.3589 C   0  0  0  0  0  0  0  0  0  0  0  0
  153.1101  143.9108  157.7452 H   0  0  0  0  0  0  0  0  0  0  0  0
  152.3356  145.4850  157.8393 H   0  0  0  0  0  0  0  0  0  0  0  0
  151.7253  144.2805  156.7257 H   0  0  0  0  0  0  0  0  0  0  0  0
  150.2479  144.4385  158.6713 H   0  0  0  0  0  0  0  0  0  0  0  0
  151.9396  145.3359  160.2765 H   0  0  0  0  0  0  0  0  0  0  0  0
  150.8857  144.1217  160.9476 H   0  0  0  0  0  0  0  0  0  0  0  0
  153.7630  143.6677  160.0228 H   0  0  0  0  0  0  0  0  0  0  0  0
  153.1950  143.6899  161.6712 H   0  0  0  0  0  0  0  0  0  0  0  0
  153.4847  141.3578  160.8240 H   0  0  0  0  0  0  0  0  0  0  0  0
  151.8394  141.6807  161.3135 H   0  0  0  0  0  0  0  0  0  0  0  0
  152.9030  141.6944  158.4559 H   0  0  0  0  0  0  0  0  0  0  0  0
  150.9040  139.8600  159.7025 H   0  0  0  0  0  0  0  0  0  0  0  0
  152.1761  137.0658  157.9672 H   0  0  0  0  0  0  0  0  0  0  0  0
  152.2151  137.2847  159.6900 H   0  0  0  0  0  0  0  0  0  0  0  0
  146.5308  137.4595  159.1789 H   0  0  0  0  0  0  0  0  0  0  0  0
  147.4830  138.6345  157.3167 H   0  0  0  0  0  0  0  0  0  0  0  0
  150.0819  142.1987  159.4555 H   0  0  0  0  0  0  0  0  0  0  0  0
  151.0743  142.0084  156.5831 H   0  0  0  0  0  0  0  0  0  0  0  0
  149.4986  142.6430  157.0557 H   0  0  0  0  0  0  0  0  0  0  0  0
  149.9046  140.9676  157.3785 H   0  0  0  0  0  0  0  0  0  0  0  0
  1  2  1  0  0  0  0
  1 21  1  0  0  0  0
  1 22  1  0  0  0  0
  1 23  1  0  0  0  0
  2 19  1  0  0  0  0
  2  3  1  0  0  0  0
  2 24  1  0  0  0  0
  3  4  1  0  0  0  0
  3 25  1  0  0  0  0
  3 26  1  0  0  0  0
  4  5  1  0  0  0  0
  4 27  1  0  0  0  0
  4 28  1  0  0  0  0
  5  6  1  0  0  0  0
  5 29  1  0  0  0  0
  5 30  1  0  0  0  0
  6  7  1  0  0  0  0
  6 19  1  0  0  0  0
  6 31  1  0  0  0  0
  7  8  1  0  0  0  0
  7 32  1  0  0  0  0
  8  9  2  0  0  0  0
  8 10  1  0  0  0  0
 10 33  1  0  0  0  0
 10 34  1  0  0  0  0
 10 11  1  0  0  0  0
 11 12  1  0  0  0  0
 11 17  1  0  0  0  0
 12 13  1  0  0  0  0
 13 14  2  0  0  0  0
 13 15  1  0  0  0  0
 15 35  1  0  0  0  0
 15 16  2  0  0  0  0
 16 36  1  0  0  0  0
 16 17  1  0  0  0  0
 17 18  2  0  0  0  0
 19 20  1  0  0  0  0
 19 37  1  0  0  0  0
 20 38  1  0  0  0  0
 20 39  1  0  0  0  0
 20 40  1  0  0  0  0
M  CHG  1  12  -1
M  END
> <s_m_source_file>
AV-unprocessed.smi

> <i_m_source_file_index>
1464

> <i_lp_mmshare_version>
43012

> <i_f3d_flags>
0

> <s_epik_input>
W0NIM11bQ0BASF0xW0NIMl1bQ0gyXVtDSDJdW0NASF0oW0NASF0xW0NIM10pW05IXUMoPU8pW0NIMl1uMltuSF1jKD1PKVtjSF1bY0hdYzI9Tw==

> <s_epik_cmdline>
J2VwaWtfcHl0aG9uJywgJy1waCcsICc3LjAnLCAnLXRuJywgJzgnLCAnLW1hJywgJzIwMCcsICctbWV0YWxfYmluZGluZycsICctaW1hZScsICc8aW5maWxlLm1hZT4nLCAnLW9tYWUnLCAnPG91dGZpbGUubWFlPic=

> <r_lp_tautomer_probability>
1

> <r_epik_Ionization_Penalty>
0.101366

> <r_epik_Ionization_Penalty_Charging>
0.101366

> <r_epik_Ionization_Penalty_Neutral>
1.90469e-08

> <r_epik_State_Penalty>
0.035861

> <r_epik_Charging_Adjusted_Penalty>
0.137227

> <i_epik_Tot_Q>
-1

> <i_epik_Tot_abs_Q>
1

> <r_epik_Metal_State_Penalty>
0.035861

> <b_epik_Metal_Only>
0

> <s_lp_Force_Field>
OPLS_2005

> <r_lp_Energy>
29.8831

> <b_lp_Chiralities_Consistent>
1

> <s_lp_Variant>
AV-unprocessed.smi:1464-5

> <Gold.Version>
5.8.1

> <Gold.Id.Protein>
6NUR|6NUR_protein|mol2

> <Gold.PLP.Fitness>
43.5174

> <Gold.PLP.PLP>
-35.5607

> <Gold.PLP.part.hbond>
-2.1297

> <Gold.PLP.part.metal>
0.0000

> <Gold.PLP.part.buried>
-6.2309

> <Gold.PLP.part.nonpolar>
-27.3243

> <Gold.PLP.part.repulsive>
0.1566

> <Gold.PLP.ligand.clash>
0.0000

> <Gold.PLP.ligand.torsion>
0.5260

> <Gold.PLP.Chemscore.Hbond>
3.0000

> <Gold.PLP.Chemscore.CHOScore>
0.0000

> <Gold.PLP.Chemscore.Metal>
0.0000

> <Gold.Chemscore.Hbonds>
donor molecule, donor type, donor heavy atom, donor atom, acceptor molecule, acceptor atom, score
      P1  H  6896  6907       L1    12  0.81
      P1  H  7997  8009       L1     9  0.98

> <Gold.PLP.Chemscore.Internal.Correction>
0.0088

> <Gold.Rescore>
     Score         DG    S(hbond)    S(metal)    S(lipo)     H(rot)  DE(clash)    DE(int)     intcor
     15.78     -17.45       1.75        0.00      88.28       1.64       0.00       1.67       ----

> <Gold.Chemscore.Fitness>
15.7845

> <Gold.Chemscore.DG>
-17.4504

> <Gold.Chemscore.ZeroCoef>
-5.4800

> <Gold.Chemscore.Hbond>
1.7516

> <Gold.Chemscore.Metal>
0.0000

> <Gold.Chemscore.Lipo>
88.2751

> <Gold.Chemscore.Internal_Hbond>
0.0000

> <Gold.Chemscore.DEClash>
0.0000

> <Gold.Chemscore.DEInternal>
1.6659

> <Gold.Chemscore.Rot>
1.6438

> <Gold.Chemscore.Internal.Correction>
   9.000000E+99

> <Gold.Chemscore.Hbonds>
donor molecule, donor type, donor heavy atom, donor atom, acceptor molecule, acceptor atom, score
      P1  H  6896  6907       L1    12  0.12
      P1  H  7997  8009       L1     9  0.93

> <Gold.Chemscore.Hbond.Weighted>
-5.8502

> <Gold.Chemscore.Metal.Weighted>
-0.0000

> <Gold.Chemscore.Lipo.Weighted>
-10.3282

> <Gold.Chemscore.Internal_Hbond.Weighted>
0.0000

> <Gold.Chemscore.DEClash.Weighted>
0.0000

> <Gold.Chemscore.DEInternal.Weighted>
1.6659

> <Gold.Chemscore.Rot.Weighted>
4.2080

> <Gold.Chemscore.Internal.Correction.Weighted>
   9.000000E+99

> <Gold.Protein.RotatedTorsions>
[ 6907 6896 6895 6894 ] final  -33.76 input  -60.11 | X-H torsion
[ 7974 7965 7964 7962 ] final  -14.01 input  175.53 | X-H torsion
[ 8008 7997 7996 7995 ] final  134.57 input   59.86 | X-H torsion
[ 10167 10162 10161 10158 ] final  148.38 input  -65.29 | X-H torsion
[ 10718 10713 10712 10709 ] final  -18.51 input   66.30 | X-H torsion
[ 10763 10752 10751 10750 ] final  -35.52 input  -60.55 | X-H torsion
[ 11005 11000 10999 10996 ] final -159.86 input  -57.11 | X-H torsion

> <Gold.Protein.ActiveResidues>
 VAL166  LYS551  ARG553  GLY616  TRP617  ASP618  TYR619  PRO620  LYS621  CYS622 
 ASP623  PHE694  ASN695  SER759  ASP760  ASP761  ALA762  ILE779  LEU786  VAL792 
 PHE793  MET794  SER795  GLU796  ALA797  LYS798  CYS799  TRP800  GLU811  SER814 

> <Gold.Protein.RotatedAtoms>
  151.0614  134.9739  159.8261 H   0  0  0  0  0  0  0  0  0  0  0  0  # atno 6907 bound_to 6896
  152.5396  134.2413  159.8873 H   0  0  0  0  0  0  0  0  0  0  0  0  # atno 6908 bound_to 6896
  151.2433  133.4345  159.2642 H   0  0  0  0  0  0  0  0  0  0  0  0  # atno 6909 bound_to 6896
  146.2091  140.3287  142.8397 H   0  0  0  0  0  0  0  0  0  0  0  0  # atno 7974 bound_to 7965
  156.2999  140.2493  156.3438 H   0  0  0  0  0  0  0  0  0  0  0  0  # atno 8008 bound_to 7997
  154.9030  140.0405  157.1923 H   0  0  0  0  0  0  0  0  0  0  0  0  # atno 8009 bound_to 7997
  154.8482  140.2901  155.5620 H   0  0  0  0  0  0  0  0  0  0  0  0  # atno 8010 bound_to 7997
  139.4876  144.5683  151.7102 H   0  0  0  0  0  0  0  0  0  0  0  0  # atno 10167 bound_to 10162
  156.5586  130.4719  149.6417 H   0  0  0  0  0  0  0  0  0  0  0  0  # atno 10718 bound_to 10713
  153.8646  135.6837  153.4780 H   0  0  0  0  0  0  0  0  0  0  0  0  # atno 10763 bound_to 10752
  153.1322  135.4693  154.9365 H   0  0  0  0  0  0  0  0  0  0  0  0  # atno 10764 bound_to 10752
  154.7743  135.3248  154.8075 H   0  0  0  0  0  0  0  0  0  0  0  0  # atno 10765 bound_to 10752
  140.6379  134.4582  157.5232 H   0  0  0  0  0  0  0  0  0  0  0  0  # atno 11005 bound_to 11000
  144.8868  140.7472  143.5952 LP  0  0  0  0  0  0  0  0  0  0  0  0  # atno 17320 bound_to 7965
  145.3208  139.1789  143.4589 LP  0  0  0  0  0  0  0  0  0  0  0  0  # atno 17321 bound_to 7965
  140.5266  144.0796  150.6039 LP  0  0  0  0  0  0  0  0  0  0  0  0  # atno 17342 bound_to 10162
  140.3772  143.2822  152.0211 LP  0  0  0  0  0  0  0  0  0  0  0  0  # atno 17343 bound_to 10162
  156.2819  130.7076  151.1902 LP  0  0  0  0  0  0  0  0  0  0  0  0  # atno 17370 bound_to 10713
  157.7373  131.0553  150.5363 LP  0  0  0  0  0  0  0  0  0  0  0  0  # atno 17371 bound_to 10713
  139.9091  134.8384  156.1594 LP  0  0  0  0  0  0  0  0  0  0  0  0  # atno 17394 bound_to 11000
  141.0628  133.6833  156.1985 LP  0  0  0  0  0  0  0  0  0  0  0  0  # atno 17395 bound_to 11000

$$$$
