AV-unprocessed.smi:413|AV-procd|sdf|2513|dock6
  -GOLD-   2262022463D 1   1.00000     0.00000
 Structure written by MMmdl.
 40 42  0  0  0  0  0  0  0  0  1 V2000
  154.2433  141.4880  161.0803 C   0  0  0  0  0  0  0  0  0  0  0  0
  153.2022  141.4484  160.0606 N   0  0  0  0  0  0  0  0  0  0  0  0
  152.7888  140.3670  159.3588 C   0  0  0  0  0  0  0  0  0  0  0  0
  153.2303  139.2229  159.4642 O   0  0  0  0  0  0  0  0  0  0  0  0
  151.8074  140.7656  158.5155 N   0  0  0  0  0  0  0  0  0  0  0  0
  151.0924  139.9275  157.5556 C   0  0  0  0  0  0  0  0  0  0  0  0
  151.6608  140.0819  156.1304 C   0  0  1  0  0  0  0  0  0  0  0  0
  152.9979  139.6279  156.0779 O   0  0  0  0  0  0  0  0  0  0  0  0
  150.8575  139.3051  155.0742 C   0  0  0  0  0  0  0  0  0  0  0  0
  149.9706  140.1875  154.3970 O   0  0  0  0  0  0  0  0  0  0  0  0
  148.7582  140.4763  154.9848 C   0  0  0  0  0  0  0  0  0  0  0  0
  147.9031  141.3542  154.2868 C   0  0  0  0  0  0  0  0  0  0  0  0
  146.6438  141.7032  154.8114 C   0  0  0  0  0  0  0  0  0  0  0  0
  146.2256  141.1746  156.0463 C   0  0  0  0  0  0  0  0  0  0  0  0
  145.0151  141.5083  156.5524 F   0  0  0  0  0  0  0  0  0  0  0  0
  147.0687  140.2980  156.7541 C   0  0  0  0  0  0  0  0  0  0  0  0
  148.3286  139.9492  156.2294 C   0  0  0  0  0  0  0  0  0  0  0  0
  151.5977  142.1431  158.6725 C   0  0  0  0  0  0  0  0  0  0  0  0
  150.7116  143.0247  158.0292 C   0  0  0  0  0  0  0  0  0  0  0  0
  150.7528  144.3832  158.4221 C   0  0  0  0  0  0  0  0  0  0  0  0
  151.6570  144.8235  159.4239 C   0  0  0  0  0  0  0  0  0  0  0  0
  152.5393  143.9147  160.0541 C   0  0  0  0  0  0  0  0  0  0  0  0
  152.4759  142.5716  159.6451 C   0  0  0  0  0  0  0  0  0  0  0  0
  154.5889  140.4895  161.3510 H   0  0  0  0  0  0  0  0  0  0  0  0
  153.8692  141.9685  161.9847 H   0  0  0  0  0  0  0  0  0  0  0  0
  155.1004  142.0573  160.7201 H   0  0  0  0  0  0  0  0  0  0  0  0
  151.0985  138.8820  157.8687 H   0  0  0  0  0  0  0  0  0  0  0  0
  150.0454  140.2325  157.5683 H   0  0  0  0  0  0  0  0  0  0  0  0
  151.6621  141.1339  155.8419 H   0  0  0  0  0  0  0  0  0  0  0  0
  153.0639  138.8328  156.5851 H   0  0  0  0  0  0  0  0  0  0  0  0
  151.5551  138.8787  154.3515 H   0  0  0  0  0  0  0  0  0  0  0  0
  150.3148  138.4793  155.5378 H   0  0  0  0  0  0  0  0  0  0  0  0
  148.2166  141.7642  153.3378 H   0  0  0  0  0  0  0  0  0  0  0  0
  145.9992  142.3758  154.2652 H   0  0  0  0  0  0  0  0  0  0  0  0
  146.7489  139.8914  157.7021 H   0  0  0  0  0  0  0  0  0  0  0  0
  148.9467  139.2748  156.8020 H   0  0  0  0  0  0  0  0  0  0  0  0
  150.0280  142.6838  157.2658 H   0  0  0  0  0  0  0  0  0  0  0  0
  150.0887  145.0941  157.9531 H   0  0  0  0  0  0  0  0  0  0  0  0
  151.6727  145.8655  159.7081 H   0  0  0  0  0  0  0  0  0  0  0  0
  153.2316  144.2419  160.8157 H   0  0  0  0  0  0  0  0  0  0  0  0
  1  2  1  0  0  0  0
  1 24  1  0  0  0  0
  1 25  1  0  0  0  0
  1 26  1  0  0  0  0
  2 23  1  0  0  0  0
  2  3  1  0  0  0  0
  3  4  2  0  0  0  0
  3  5  1  0  0  0  0
  5  6  1  0  0  0  0
  5 18  1  0  0  0  0
  6  7  1  0  0  0  0
  6 27  1  0  0  0  0
  6 28  1  0  0  0  0
  7  8  1  0  0  0  0
  7  9  1  0  0  0  0
  7 29  1  0  0  0  0
  8 30  1  0  0  0  0
  9 10  1  0  0  0  0
  9 31  1  0  0  0  0
  9 32  1  0  0  0  0
 10 11  1  0  0  0  0
 11 17  1  0  0  0  0
 11 12  2  0  0  0  0
 12 13  1  0  0  0  0
 12 33  1  0  0  0  0
 13 14  2  0  0  0  0
 13 34  1  0  0  0  0
 14 15  1  0  0  0  0
 14 16  1  0  0  0  0
 16 17  2  0  0  0  0
 16 35  1  0  0  0  0
 17 36  1  0  0  0  0
 18 23  2  0  0  0  0
 18 19  1  0  0  0  0
 19 20  2  0  0  0  0
 19 37  1  0  0  0  0
 20 21  1  0  0  0  0
 20 38  1  0  0  0  0
 21 22  2  0  0  0  0
 21 39  1  0  0  0  0
 22 23  1  0  0  0  0
 22 40  1  0  0  0  0
M  END
> <s_m_source_file>
AV-unprocessed.smi

> <i_m_source_file_index>
413

> <i_lp_mmshare_version>
43012

> <i_f3d_flags>
0

> <s_epik_input>
W2NIXTFbY0hdW2NIXVtjSF1jKGMxMiluKFtDSDNdKWMoPU8pbjJbQ0gyXVtDQEhdKFtPSF0pW0NIMl1PYzNbY0hdW2NIXWMoRilbY0hdW2NIXTM=

> <s_epik_cmdline>
J2VwaWtfcHl0aG9uJywgJy1waCcsICc3LjAnLCAnLXRuJywgJzgnLCAnLW1hJywgJzIwMCcsICctbWV0YWxfYmluZGluZycsICctaW1hZScsICc8aW5maWxlLm1hZT4nLCAnLW9tYWUnLCAnPG91dGZpbGUubWFlPic=

> <r_lp_tautomer_probability>
1

> <r_epik_Ionization_Penalty>
2.40172e-06

> <r_epik_Ionization_Penalty_Charging>
2.42369e-09

> <r_epik_Ionization_Penalty_Neutral>
2.3993e-06

> <r_epik_State_Penalty>
-0

> <r_epik_Charging_Adjusted_Penalty>
2.42369e-09

> <i_epik_Tot_Q>
0

> <i_epik_Tot_abs_Q>
0

> <r_epik_Metal_State_Penalty>
-0

> <b_epik_Metal_Only>
0

> <s_lp_Force_Field>
OPLS_2005

> <r_lp_Energy>
47.225

> <b_lp_Chiralities_Consistent>
1

> <s_lp_Variant>
AV-unprocessed.smi:413-2

> <Gold.Version>
5.8.1

> <Gold.Id.Protein>
6NUR|6NUR_protein|mol2

> <Gold.PLP.Fitness>
56.9295

> <Gold.PLP.PLP>
-52.8470

> <Gold.PLP.part.hbond>
-2.0000

> <Gold.PLP.part.metal>
0.0000

> <Gold.PLP.part.buried>
-5.6787

> <Gold.PLP.part.nonpolar>
-46.3979

> <Gold.PLP.part.repulsive>
0.1266

> <Gold.PLP.ligand.clash>
0.0000

> <Gold.PLP.ligand.torsion>
0.9809

> <Gold.PLP.Chemscore.Hbond>
2.0000

> <Gold.PLP.Chemscore.CHOScore>
0.0000

> <Gold.PLP.Chemscore.Metal>
0.0000

> <Gold.Chemscore.Hbonds>
donor molecule, donor type, donor heavy atom, donor atom, acceptor molecule, acceptor atom, score
      P1  H  7989  7998       L1    10  0.29
      P1  H  7997  8010       L1     8  0.74

> <Gold.PLP.Chemscore.Internal.Correction>
0.0442

> <Gold.Rescore>
     Score         DG    S(hbond)    S(metal)    S(lipo)     H(rot)  DE(clash)    DE(int)     intcor
     18.74     -20.05       1.78        0.00     123.45       2.27       0.13       1.19       ----

> <Gold.Chemscore.Fitness>
18.7363

> <Gold.Chemscore.DG>
-20.0513

> <Gold.Chemscore.ZeroCoef>
-5.4800

> <Gold.Chemscore.Hbond>
1.7786

> <Gold.Chemscore.Metal>
0.0000

> <Gold.Chemscore.Lipo>
123.4485

> <Gold.Chemscore.Internal_Hbond>
0.0000

> <Gold.Chemscore.DEClash>
0.1288

> <Gold.Chemscore.DEInternal>
1.1863

> <Gold.Chemscore.Rot>
2.2706

> <Gold.Chemscore.Internal.Correction>
   9.000000E+99

> <Gold.Chemscore.Hbonds>
donor molecule, donor type, donor heavy atom, donor atom, acceptor molecule, acceptor atom, score
      P1  H  7997  8010       L1     8  0.17

> <Gold.Chemscore.Hbond.Weighted>
-5.9407

> <Gold.Chemscore.Metal.Weighted>
-0.0000

> <Gold.Chemscore.Lipo.Weighted>
-14.4435

> <Gold.Chemscore.Internal_Hbond.Weighted>
0.0000

> <Gold.Chemscore.DEClash.Weighted>
0.1288

> <Gold.Chemscore.DEInternal.Weighted>
1.1863

> <Gold.Chemscore.Rot.Weighted>
5.8128

> <Gold.Chemscore.Internal.Correction.Weighted>
   9.000000E+99

> <Gold.Protein.RotatedTorsions>
[ 6907 6896 6895 6894 ] final  -23.39 input  -60.11 | X-H torsion
[ 7974 7965 7964 7962 ] final  165.71 input  175.53 | X-H torsion
[ 8008 7997 7996 7995 ] final   81.73 input   59.86 | X-H torsion
[ 10167 10162 10161 10158 ] final -145.60 input  -65.29 | X-H torsion
[ 10718 10713 10712 10709 ] final -172.12 input   66.30 | X-H torsion
[ 10763 10752 10751 10750 ] final  -75.41 input  -60.55 | X-H torsion
[ 11005 11000 10999 10996 ] final  109.34 input  -57.11 | X-H torsion

> <Gold.Protein.ActiveResidues>
 VAL166  LYS551  ARG553  GLY616  TRP617  ASP618  TYR619  PRO620  LYS621  CYS622 
 ASP623  PHE694  ASN695  SER759  ASP760  ASP761  ALA762  ILE779  LEU786  VAL792 
 PHE793  MET794  SER795  GLU796  ALA797  LYS798  CYS799  TRP800  GLU811  SER814 

> <Gold.Protein.RotatedAtoms>
  151.2047  135.0457  159.8886 H   0  0  0  0  0  0  0  0  0  0  0  0  # atno 6907 bound_to 6896
  152.5430  134.0811  159.8246 H   0  0  0  0  0  0  0  0  0  0  0  0  # atno 6908 bound_to 6896
  151.0956  133.5234  159.2644 H   0  0  0  0  0  0  0  0  0  0  0  0  # atno 6909 bound_to 6896
  144.7491  139.8510  143.6372 H   0  0  0  0  0  0  0  0  0  0  0  0  # atno 7974 bound_to 7965
  155.9010  140.3433  155.6027 H   0  0  0  0  0  0  0  0  0  0  0  0  # atno 8008 bound_to 7997
  155.7499  140.0818  157.2225 H   0  0  0  0  0  0  0  0  0  0  0  0  # atno 8009 bound_to 7997
  154.4044  140.1555  156.2700 H   0  0  0  0  0  0  0  0  0  0  0  0  # atno 8010 bound_to 7997
  139.7790  143.8128  152.2636 H   0  0  0  0  0  0  0  0  0  0  0  0  # atno 10167 bound_to 10162
  156.7508  130.9377  151.3114 H   0  0  0  0  0  0  0  0  0  0  0  0  # atno 10718 bound_to 10713
  154.4862  135.5832  153.6425 H   0  0  0  0  0  0  0  0  0  0  0  0  # atno 10763 bound_to 10752
  152.9855  135.6101  154.3184 H   0  0  0  0  0  0  0  0  0  0  0  0  # atno 10764 bound_to 10752
  154.3079  135.2845  155.2559 H   0  0  0  0  0  0  0  0  0  0  0  0  # atno 10765 bound_to 10752
  139.8860  134.9455  156.6110 H   0  0  0  0  0  0  0  0  0  0  0  0  # atno 11005 bound_to 11000
  146.1416  139.4474  143.0105 LP  0  0  0  0  0  0  0  0  0  0  0  0  # atno 17320 bound_to 7965
  145.7010  141.0136  143.1504 LP  0  0  0  0  0  0  0  0  0  0  0  0  # atno 17321 bound_to 7965
  139.8185  144.7306  150.9604 LP  0  0  0  0  0  0  0  0  0  0  0  0  # atno 17342 bound_to 10162
  140.7817  143.4182  151.0883 LP  0  0  0  0  0  0  0  0  0  0  0  0  # atno 17343 bound_to 10162
  157.6778  130.9110  150.0192 LP  0  0  0  0  0  0  0  0  0  0  0  0  # atno 17370 bound_to 10713
  156.1402  130.3642  149.9594 LP  0  0  0  0  0  0  0  0  0  0  0  0  # atno 17371 bound_to 10713
  140.7811  133.8659  155.8569 LP  0  0  0  0  0  0  0  0  0  0  0  0  # atno 17394 bound_to 11000
  140.9759  134.1470  157.4536 LP  0  0  0  0  0  0  0  0  0  0  0  0  # atno 17395 bound_to 11000

$$$$
