AV-unprocessed.smi:189|AV-procd|sdf|1488|dock4
  -GOLD-   2262019303D 1   1.00000     0.00000
 Structure written by MMmdl.
 53 57  0  0  0  0  0  0  0  0  1 V2000
  150.2359  140.8972  156.7310 C   0  0  0  0  0  0  0  0  0  0  0  0
  151.5330  141.6072  157.1725 C   0  0  1  0  0  0  0  0  0  0  0  0
  151.2842  143.1192  157.3964 C   0  0  0  0  0  0  0  0  0  0  0  0
  152.0075  143.4133  158.7071 C   0  0  1  0  0  0  0  0  0  0  0  0
  151.5369  144.5979  159.5592 C   0  0  0  0  0  0  0  0  0  0  0  0
  152.3656  144.6411  160.8604 C   0  0  0  0  0  0  0  0  0  0  0  0
  152.3537  143.2902  161.6120 C   0  0  0  0  0  0  0  0  0  0  0  0
  152.7416  142.1038  160.7042 C   0  0  0  0  0  0  0  0  0  0  0  0
  151.8301  142.1048  159.4626 C   0  0  2  0  0  0  0  0  0  0  0  0
  152.0953  141.1084  158.4362 N   0  0  0  0  0  0  0  0  0  0  0  0
  152.0733  139.7758  158.6927 C   0  0  0  0  0  0  0  0  0  0  0  0
  150.8853  139.1280  158.8171 N   0  0  0  0  0  0  0  0  0  0  0  0
  150.8561  137.8138  159.0557 C   0  0  0  0  0  0  0  0  0  0  0  0
  151.8789  136.9684  159.1969 N   0  0  0  0  0  0  0  0  0  0  0  0
  153.0742  137.6121  159.0664 C   0  0  0  0  0  0  0  0  0  0  0  0
  153.2599  139.0013  158.8184 C   0  0  0  0  0  0  0  0  0  0  0  0
  154.6166  139.2945  158.7559 N   0  0  0  0  0  0  0  0  0  0  0  0
  155.1998  138.1431  158.9476 C   0  0  0  0  0  0  0  0  0  0  0  0
  154.3489  137.0775  159.1359 N   0  0  0  0  0  0  0  0  0  0  0  0
  154.7291  135.6921  159.3650 C   0  0  0  0  0  0  0  0  0  0  0  0
  154.6305  134.8125  158.0970 C   0  0  2  0  0  0  0  0  0  0  0  0
  153.4425  135.1444  157.3987 O   0  0  0  0  0  0  0  0  0  0  0  0
  154.6265  133.3117  158.3746 C   0  0  0  0  0  0  0  0  0  0  0  0
  155.3119  132.7375  157.1425 C   0  0  0  0  0  0  0  0  0  0  0  0
  156.3394  133.6815  156.8935 O   0  0  0  0  0  0  0  0  0  0  0  0
  155.8244  134.9868  157.1370 C   0  0  0  0  0  0  0  0  0  0  0  0
  149.8277  141.3624  155.8334 H   0  0  0  0  0  0  0  0  0  0  0  0
  149.4718  140.9472  157.5076 H   0  0  0  0  0  0  0  0  0  0  0  0
  150.4050  139.8465  156.4960 H   0  0  0  0  0  0  0  0  0  0  0  0
  152.2945  141.4868  156.4012 H   0  0  0  0  0  0  0  0  0  0  0  0
  151.6520  143.7299  156.5715 H   0  0  0  0  0  0  0  0  0  0  0  0
  150.2191  143.3250  157.5120 H   0  0  0  0  0  0  0  0  0  0  0  0
  153.0660  143.5502  158.4755 H   0  0  0  0  0  0  0  0  0  0  0  0
  151.6504  145.5315  159.0076 H   0  0  0  0  0  0  0  0  0  0  0  0
  150.4769  144.4954  159.7950 H   0  0  0  0  0  0  0  0  0  0  0  0
  153.3962  144.9040  160.6187 H   0  0  0  0  0  0  0  0  0  0  0  0
  151.9941  145.4323  161.5121 H   0  0  0  0  0  0  0  0  0  0  0  0
  153.0267  143.3367  162.4685 H   0  0  0  0  0  0  0  0  0  0  0  0
  151.3560  143.1167  162.0171 H   0  0  0  0  0  0  0  0  0  0  0  0
  153.7871  142.1882  160.4049 H   0  0  0  0  0  0  0  0  0  0  0  0
  152.6523  141.1741  161.2646 H   0  0  0  0  0  0  0  0  0  0  0  0
  150.7901  141.9974  159.7776 H   0  0  0  0  0  0  0  0  0  0  0  0
  149.8721  137.3771  159.1437 H   0  0  0  0  0  0  0  0  0  0  0  0
  156.2748  138.0365  158.9518 H   0  0  0  0  0  0  0  0  0  0  0  0
  155.7465  135.6764  159.7582 H   0  0  0  0  0  0  0  0  0  0  0  0
  154.0921  135.2891  160.1535 H   0  0  0  0  0  0  0  0  0  0  0  0
  152.7357  134.6210  157.7450 H   0  0  0  0  0  0  0  0  0  0  0  0
  155.2399  133.0875  159.2478 H   0  0  0  0  0  0  0  0  0  0  0  0
  153.6332  132.8967  158.5510 H   0  0  0  0  0  0  0  0  0  0  0  0
  155.7141  131.7381  157.3092 H   0  0  0  0  0  0  0  0  0  0  0  0
  154.6289  132.7001  156.2924 H   0  0  0  0  0  0  0  0  0  0  0  0
  155.5286  135.4456  156.1920 H   0  0  0  0  0  0  0  0  0  0  0  0
  156.6142  135.6051  157.5654 H   0  0  0  0  0  0  0  0  0  0  0  0
  1  2  1  0  0  0  0
  1 27  1  0  0  0  0
  1 28  1  0  0  0  0
  1 29  1  0  0  0  0
  2 10  1  0  0  0  0
  2  3  1  0  0  0  0
  2 30  1  0  0  0  0
  3  4  1  0  0  0  0
  3 31  1  0  0  0  0
  3 32  1  0  0  0  0
  4  9  1  0  0  0  0
  4  5  1  0  0  0  0
  4 33  1  0  0  0  0
  5  6  1  0  0  0  0
  5 34  1  0  0  0  0
  5 35  1  0  0  0  0
  6  7  1  0  0  0  0
  6 36  1  0  0  0  0
  6 37  1  0  0  0  0
  7  8  1  0  0  0  0
  7 38  1  0  0  0  0
  7 39  1  0  0  0  0
  8  9  1  0  0  0  0
  8 40  1  0  0  0  0
  8 41  1  0  0  0  0
  9 10  1  0  0  0  0
  9 42  1  0  0  0  0
 10 11  1  0  0  0  0
 11 16  1  0  0  0  0
 11 12  2  0  0  0  0
 12 13  1  0  0  0  0
 13 14  2  0  0  0  0
 13 43  1  0  0  0  0
 14 15  1  0  0  0  0
 15 19  1  0  0  0  0
 15 16  2  0  0  0  0
 16 17  1  0  0  0  0
 17 18  2  0  0  0  0
 18 19  1  0  0  0  0
 18 44  1  0  0  0  0
 19 20  1  0  0  0  0
 20 21  1  0  0  0  0
 20 45  1  0  0  0  0
 20 46  1  0  0  0  0
 21 26  1  0  0  0  0
 21 22  1  0  0  0  0
 21 23  1  0  0  0  0
 22 47  1  0  0  0  0
 23 24  1  0  0  0  0
 23 48  1  0  0  0  0
 23 49  1  0  0  0  0
 24 25  1  0  0  0  0
 24 50  1  0  0  0  0
 24 51  1  0  0  0  0
 25 26  1  0  0  0  0
 26 52  1  0  0  0  0
 26 53  1  0  0  0  0
M  END
> <s_m_source_file>
AV-unprocessed.smi

> <i_m_source_file_index>
189

> <i_lp_mmshare_version>
43012

> <i_f3d_flags>
0

> <s_epik_input>
W0NIMl0xW0NIMl1bQ0gyXVtDSDJdW0NASF0oW0NASF0xMilOKFtDQEhdKFtDSDNdKVtDSDJdMiljKG5bY0hdbjMpYyhjMzQpbltjSF1uNFtDSDJdW0NAQF01KFtPSF0pW0NIMl1bQ0gyXU9bQ0gyXTU=

> <s_epik_cmdline>
J2VwaWtfcHl0aG9uJywgJy1waCcsICc3LjAnLCAnLXRuJywgJzgnLCAnLW1hJywgJzIwMCcsICctbWV0YWxfYmluZGluZycsICctaW1hZScsICc8aW5maWxlLm1hZT4nLCAnLW9tYWUnLCAnPG91dGZpbGUubWFlPic=

> <r_lp_tautomer_probability>
1

> <r_epik_Ionization_Penalty>
0.00594261

> <r_epik_Ionization_Penalty_Charging>
0

> <r_epik_Ionization_Penalty_Neutral>
0.00594261

> <r_epik_State_Penalty>
0.00429776

> <r_epik_Charging_Adjusted_Penalty>
0.00429776

> <i_epik_Tot_Q>
0

> <i_epik_Tot_abs_Q>
0

> <r_epik_Metal_State_Penalty>
-0

> <b_epik_Metal_Only>
0

> <s_lp_Force_Field>
OPLS_2005

> <r_lp_Energy>
58.0948

> <b_lp_Chiralities_Consistent>
1

> <s_lp_Variant>
AV-unprocessed.smi:189-14

> <Gold.Version>
5.8.1

> <Gold.Id.Protein>
6NUR|6NUR_protein|mol2

> <Gold.PLP.Fitness>
48.7922

> <Gold.PLP.PLP>
-40.8808

> <Gold.PLP.part.hbond>
-3.1333

> <Gold.PLP.part.metal>
0.0000

> <Gold.PLP.part.buried>
-7.1064

> <Gold.PLP.part.nonpolar>
-30.1627

> <Gold.PLP.part.repulsive>
0.0000

> <Gold.PLP.ligand.clash>
0.0000

> <Gold.PLP.ligand.torsion>
0.7420

> <Gold.PLP.Chemscore.Hbond>
3.0000

> <Gold.PLP.Chemscore.CHOScore>
0.0000

> <Gold.PLP.Chemscore.Metal>
0.0000

> <Gold.Chemscore.Hbonds>
donor molecule, donor type, donor heavy atom, donor atom, acceptor molecule, acceptor atom, score
      P1  H  6896  6909       L1    14  1.00
      P1  H  7997  8008       L1    17  1.00
      P1  H 10752 10764       L1    22  0.99

> <Gold.PLP.Chemscore.Internal.Correction>
0.3955

> <Gold.Rescore>
     Score         DG    S(hbond)    S(metal)    S(lipo)     H(rot)  DE(clash)    DE(int)     intcor
     19.11     -21.85       2.69        0.00     107.36       2.03       0.25       2.48       ----

> <Gold.Chemscore.Fitness>
19.1124

> <Gold.Chemscore.DG>
-21.8455

> <Gold.Chemscore.ZeroCoef>
-5.4800

> <Gold.Chemscore.Hbond>
2.6947

> <Gold.Chemscore.Metal>
0.0000

> <Gold.Chemscore.Lipo>
107.3590

> <Gold.Chemscore.Internal_Hbond>
0.0000

> <Gold.Chemscore.DEClash>
0.2540

> <Gold.Chemscore.DEInternal>
2.4791

> <Gold.Chemscore.Rot>
2.0297

> <Gold.Chemscore.Internal.Correction>
   9.000000E+99

> <Gold.Chemscore.Hbonds>
donor molecule, donor type, donor heavy atom, donor atom, acceptor molecule, acceptor atom, score
      P1  H  6896  6909       L1    14  0.93
      P1  H  7997  8008       L1    17  0.68
      P1  H 10752 10764       L1    22  0.68

> <Gold.Chemscore.Hbond.Weighted>
-9.0004

> <Gold.Chemscore.Metal.Weighted>
-0.0000

> <Gold.Chemscore.Lipo.Weighted>
-12.5610

> <Gold.Chemscore.Internal_Hbond.Weighted>
0.0000

> <Gold.Chemscore.DEClash.Weighted>
0.2540

> <Gold.Chemscore.DEInternal.Weighted>
2.4791

> <Gold.Chemscore.Rot.Weighted>
5.1960

> <Gold.Chemscore.Internal.Correction.Weighted>
   9.000000E+99

> <Gold.Protein.RotatedTorsions>
[ 6907 6896 6895 6894 ] final  123.05 input  -60.11 | X-H torsion
[ 7974 7965 7964 7962 ] final   44.33 input  175.53 | X-H torsion
[ 8008 7997 7996 7995 ] final -128.86 input   59.86 | X-H torsion
[ 10167 10162 10161 10158 ] final -105.19 input  -65.29 | X-H torsion
[ 10718 10713 10712 10709 ] final   58.97 input   66.30 | X-H torsion
[ 10763 10752 10751 10750 ] final   16.65 input  -60.55 | X-H torsion
[ 11005 11000 10999 10996 ] final  -82.10 input  -57.11 | X-H torsion

> <Gold.Protein.ActiveResidues>
 VAL166  LYS551  ARG553  GLY616  TRP617  ASP618  TYR619  PRO620  LYS621  CYS622 
 ASP623  PHE694  ASN695  SER759  ASP760  ASP761  ALA762  ILE779  LEU786  VAL792 
 PHE793  MET794  SER795  GLU796  ALA797  LYS798  CYS799  TRP800  GLU811  SER814 

> <Gold.Protein.RotatedAtoms>
  152.4193  133.7090  159.6467 H   0  0  0  0  0  0  0  0  0  0  0  0  # atno 6907 bound_to 6896
  150.8069  133.8482  159.3207 H   0  0  0  0  0  0  0  0  0  0  0  0  # atno 6908 bound_to 6896
  151.6203  135.1034  160.0152 H   0  0  0  0  0  0  0  0  0  0  0  0  # atno 6909 bound_to 6896
  146.0577  139.5086  142.9678 H   0  0  0  0  0  0  0  0  0  0  0  0  # atno 7974 bound_to 7965
  155.2697  140.0439  157.3005 H   0  0  0  0  0  0  0  0  0  0  0  0  # atno 8008 bound_to 7997
  154.5661  140.2360  155.8230 H   0  0  0  0  0  0  0  0  0  0  0  0  # atno 8009 bound_to 7997
  156.2086  140.3005  155.9689 H   0  0  0  0  0  0  0  0  0  0  0  0  # atno 8010 bound_to 7997
  140.2012  143.3817  152.1127 H   0  0  0  0  0  0  0  0  0  0  0  0  # atno 10167 bound_to 10162
  157.5639  130.8856  149.9155 H   0  0  0  0  0  0  0  0  0  0  0  0  # atno 10718 bound_to 10713
  153.1411  135.6760  153.9026 H   0  0  0  0  0  0  0  0  0  0  0  0  # atno 10763 bound_to 10752
  153.8482  135.3096  155.3432 H   0  0  0  0  0  0  0  0  0  0  0  0  # atno 10764 bound_to 10752
  154.7788  135.4900  153.9884 H   0  0  0  0  0  0  0  0  0  0  0  0  # atno 10765 bound_to 10752
  141.1664  133.7228  156.8521 H   0  0  0  0  0  0  0  0  0  0  0  0  # atno 11005 bound_to 11000
  145.6614  141.0239  143.1707 LP  0  0  0  0  0  0  0  0  0  0  0  0  # atno 17320 bound_to 7965
  144.7157  139.8205  143.7399 LP  0  0  0  0  0  0  0  0  0  0  0  0  # atno 17321 bound_to 7965
  139.5216  144.7048  151.5386 LP  0  0  0  0  0  0  0  0  0  0  0  0  # atno 17342 bound_to 10162
  140.6389  143.8929  150.6673 LP  0  0  0  0  0  0  0  0  0  0  0  0  # atno 17343 bound_to 10162
  156.0689  130.3688  150.0819 LP  0  0  0  0  0  0  0  0  0  0  0  0  # atno 17370 bound_to 10713
  156.8979  130.9610  151.3580 LP  0  0  0  0  0  0  0  0  0  0  0  0  # atno 17371 bound_to 10713
  140.1908  134.8967  157.3058 LP  0  0  0  0  0  0  0  0  0  0  0  0  # atno 17394 bound_to 11000
  140.2292  134.3929  155.7529 LP  0  0  0  0  0  0  0  0  0  0  0  0  # atno 17395 bound_to 11000

$$$$
