AV-unprocessed.smi:72|AV-procd|sdf|741|dock2
  -GOLD-   2262017 73D 1   1.00000     0.00000
 Structure written by MMmdl.
 28 29  0  0  0  0  0  0  0  0  2 V2000
  154.3983  138.1651  154.6237 N   0  0  0  0  0  0  0  0  0  0  0  0
  153.1601  138.3907  154.7041 C   0  0  0  0  0  0  0  0  0  0  0  0
  152.2150  137.4381  154.1634 N   0  0  0  0  0  0  0  0  0  0  0  0
  150.9508  137.7113  154.2715 C   0  0  0  0  0  0  0  0  0  0  0  0
  150.4803  138.9320  154.9145 N   0  0  0  0  0  0  0  0  0  0  0  0
  149.0026  139.2632  155.0419 C   0  0  2  0  0  0  0  0  0  0  0  0
  148.2277  138.2050  154.5508 O   0  0  0  0  0  0  0  0  0  0  0  0
  147.6014  138.5786  153.3262 C   0  0  1  0  0  0  0  0  0  0  0  0
  146.3344  137.7365  153.1113 C   0  0  0  0  0  0  0  0  0  0  0  0
  145.5685  138.2717  152.0530 O   0  0  0  0  0  0  0  0  0  0  0  0
  147.3199  140.0617  153.5636 C   0  0  2  0  0  0  0  0  0  0  0  0
  147.0279  140.7715  152.3741 O   0  0  0  0  0  0  0  0  0  0  0  0
  148.5920  140.5339  154.2599 C   0  0  2  0  0  0  0  0  0  0  0  0
  149.5734  140.9747  153.3331 O   0  0  0  0  0  0  0  0  0  0  0  0
  151.4321  139.8515  155.4298 C   0  0  0  0  0  0  0  0  0  0  0  0
  151.0137  140.8848  155.9526 O   0  0  0  0  0  0  0  0  0  0  0  0
  152.7571  139.5578  155.3145 N   0  5  0  0  0  0  0  0  0  0  0  0
  148.8085  139.3339  156.1134 H   0  0  0  0  0  0  0  0  0  0  0  0
  148.3005  138.4650  152.4952 H   0  0  0  0  0  0  0  0  0  0  0  0
  146.4796  140.1671  154.2517 H   0  0  0  0  0  0  0  0  0  0  0  0
  148.3904  141.3450  154.9603 H   0  0  0  0  0  0  0  0  0  0  0  0
  154.9559  138.8996  155.0342 H   0  0  0  0  0  0  0  0  0  0  0  0
  150.1743  137.0495  153.8888 H   0  0  0  0  0  0  0  0  0  0  0  0
  146.5803  136.6928  152.9134 H   0  0  0  0  0  0  0  0  0  0  0  0
  145.7126  137.7587  154.0068 H   0  0  0  0  0  0  0  0  0  0  0  0
  145.0024  138.9431  152.4017 H   0  0  0  0  0  0  0  0  0  0  0  0
  147.7421  140.6448  151.7688 H   0  0  0  0  0  0  0  0  0  0  0  0
  149.6749  140.3095  152.6685 H   0  0  0  0  0  0  0  0  0  0  0  0
  1  2  2  0  0  0  0
  1 22  1  0  0  0  0
  2 17  1  0  0  0  0
  2  3  1  0  0  0  0
  3  4  2  0  0  0  0
  4  5  1  0  0  0  0
  4 23  1  0  0  0  0
  5  6  1  0  0  0  0
  5 15  1  0  0  0  0
  6 18  1  0  0  0  0
  6 13  1  0  0  0  0
  6  7  1  0  0  0  0
  7  8  1  0  0  0  0
  8 19  1  0  0  0  0
  8  9  1  0  0  0  0
  8 11  1  0  0  0  0
  9 10  1  0  0  0  0
  9 24  1  0  0  0  0
  9 25  1  0  0  0  0
 10 26  1  0  0  0  0
 11 20  1  0  0  0  0
 11 12  1  0  0  0  0
 11 13  1  0  0  0  0
 12 27  1  0  0  0  0
 13 21  1  0  0  0  0
 13 14  1  0  0  0  0
 14 28  1  0  0  0  0
 15 16  2  0  0  0  0
 15 17  1  0  0  0  0
M  CHG  1  17  -1
M  END
> <s_m_source_file>
AV-unprocessed.smi

> <i_m_source_file_index>
72

> <i_lp_mmshare_version>
43012

> <i_f3d_flags>
0

> <s_epik_input>
W05IMl1jMW5bY0hdbihjKD1PKW4xKVtDQEBIXTJPW0NASF0oW0NIMl1bT0hdKVtDQEBIXShbT0hdKVtDQEhdMltPSF0=

> <s_epik_cmdline>
J2VwaWtfcHl0aG9uJywgJy1waCcsICc3LjAnLCAnLXRuJywgJzgnLCAnLW1hJywgJzIwMCcsICctbWV0YWxfYmluZGluZycsICctaW1hZScsICc8aW5maWxlLm1hZT4nLCAnLW9tYWUnLCAnPG91dGZpbGUubWFlPic=

> <r_lp_tautomer_probability>
7.17554e-07

> <r_epik_Ionization_Penalty>
12.8705

> <r_epik_Ionization_Penalty_Charging>
5.64144

> <r_epik_Ionization_Penalty_Neutral>
7.22905

> <r_epik_State_Penalty>
3.30104

> <r_epik_Charging_Adjusted_Penalty>
8.94249

> <i_epik_Tot_Q>
-1

> <i_epik_Tot_abs_Q>
1

> <r_epik_Metal_State_Penalty>
0.529074

> <b_epik_Metal_Only>
1

> <s_epik_Chemistry_Notes>
This compound contains an acetal/aminal-like group ( X-CH(R)-Y where X, Y are N, S, or O) that may be acid/base labile, releasing an aldehyde.

> <s_lp_Force_Field>
OPLS_2005

> <r_lp_Energy>
42.5031

> <b_lp_Chiralities_Consistent>
1

> <s_lp_Variant>
AV-unprocessed.smi:72-79

> <Gold.Version>
5.8.1

> <Gold.Id.Protein>
6NUR|6NUR_protein|mol2

> <Gold.PLP.Fitness>
52.0702

> <Gold.PLP.PLP>
-28.7895

> <Gold.PLP.part.hbond>
-9.9150

> <Gold.PLP.part.metal>
0.0000

> <Gold.PLP.part.buried>
-0.3714

> <Gold.PLP.part.nonpolar>
-19.8827

> <Gold.PLP.part.repulsive>
0.3264

> <Gold.PLP.ligand.clash>
0.0000

> <Gold.PLP.ligand.torsion>
0.0701

> <Gold.PLP.Chemscore.Hbond>
6.7437

> <Gold.PLP.Chemscore.CHOScore>
1.0447

> <Gold.PLP.Chemscore.Metal>
0.0000

> <Gold.Chemscore.Hbonds>
donor molecule, donor type, donor heavy atom, donor atom, acceptor molecule, acceptor atom, score
      L1  H    10    26       P1 10175  1.00
      L1  H    12    27       P1  7957  1.00
      L1  H    14    28       P1  7957  0.88
      P1  H  7989  7998       L1    14  0.05
      P1  H  7997  8008       L1    17  1.90
      P1  H  8011  8017       L1    14  0.95
      P1  H 10752 10765       L1     3  0.83
      L1  C     4    23       P1  7948  1.00
      L1  C     4    23       P1  7949  0.04

> <Gold.PLP.Chemscore.Internal.Correction>
0.0557

> <Gold.Rescore>
     Score         DG    S(hbond)    S(metal)    S(lipo)     H(rot)  DE(clash)    DE(int)     intcor
     10.54     -11.41       4.02        0.00      24.36       4.04       0.59       0.28       ----

> <Gold.Chemscore.Fitness>
10.5396

> <Gold.Chemscore.DG>
-11.4118

> <Gold.Chemscore.ZeroCoef>
-5.4800

> <Gold.Chemscore.Hbond>
4.0192

> <Gold.Chemscore.Metal>
0.0000

> <Gold.Chemscore.Lipo>
24.3638

> <Gold.Chemscore.Internal_Hbond>
0.0000

> <Gold.Chemscore.DEClash>
0.5920

> <Gold.Chemscore.DEInternal>
0.2801

> <Gold.Chemscore.Rot>
4.0403

> <Gold.Chemscore.Internal.Correction>
   9.000000E+99

> <Gold.Chemscore.Hbonds>
donor molecule, donor type, donor heavy atom, donor atom, acceptor molecule, acceptor atom, score
      L1  H    10    26       P1 10175  0.95
      L1  H    12    27       P1  7957  0.94
      L1  H    14    28       P1  7957  0.81
      P1  H  7997  8008       L1    17  0.22
      P1  H  8011  8017       L1    14  0.21
      P1  H 10752 10765       L1     3  0.58

> <Gold.Chemscore.Hbond.Weighted>
-13.4243

> <Gold.Chemscore.Metal.Weighted>
-0.0000

> <Gold.Chemscore.Lipo.Weighted>
-2.8506

> <Gold.Chemscore.Internal_Hbond.Weighted>
0.0000

> <Gold.Chemscore.DEClash.Weighted>
0.5920

> <Gold.Chemscore.DEInternal.Weighted>
0.2801

> <Gold.Chemscore.Rot.Weighted>
10.3431

> <Gold.Chemscore.Internal.Correction.Weighted>
   9.000000E+99

> <Gold.Protein.RotatedTorsions>
[ 6907 6896 6895 6894 ] final   91.13 input  -60.11 | X-H torsion
[ 7974 7965 7964 7962 ] final  140.71 input  175.53 | X-H torsion
[ 8008 7997 7996 7995 ] final  -14.47 input   59.86 | X-H torsion
[ 10167 10162 10161 10158 ] final  -83.33 input  -65.29 | X-H torsion
[ 10718 10713 10712 10709 ] final  -45.26 input   66.30 | X-H torsion
[ 10763 10752 10751 10750 ] final  150.43 input  -60.55 | X-H torsion
[ 11005 11000 10999 10996 ] final   17.08 input  -57.11 | X-H torsion

> <Gold.Protein.ActiveResidues>
 VAL166  LYS551  ARG553  GLY616  TRP617  ASP618  TYR619  PRO620  LYS621  CYS622 
 ASP623  PHE694  ASN695  SER759  ASP760  ASP761  ALA762  ILE779  LEU786  VAL792 
 PHE793  MET794  SER795  GLU796  ALA797  LYS798  CYS799  TRP800  GLU811  SER814 

> <Gold.Protein.RotatedAtoms>
  152.5448  134.1705  159.8594 H   0  0  0  0  0  0  0  0  0  0  0  0  # atno 6907 bound_to 6896
  151.1715  133.4774  159.2601 H   0  0  0  0  0  0  0  0  0  0  0  0  # atno 6908 bound_to 6896
  151.1270  135.0121  159.8620 H   0  0  0  0  0  0  0  0  0  0  0  0  # atno 6909 bound_to 6896
  144.9162  139.5228  143.5685 H   0  0  0  0  0  0  0  0  0  0  0  0  # atno 7974 bound_to 7965
  154.5208  140.2222  155.8980 H   0  0  0  0  0  0  0  0  0  0  0  0  # atno 8008 bound_to 7997
  156.1659  140.3132  155.8853 H   0  0  0  0  0  0  0  0  0  0  0  0  # atno 8009 bound_to 7997
  155.3657  140.0463  157.3036 H   0  0  0  0  0  0  0  0  0  0  0  0  # atno 8010 bound_to 7997
  140.4236  143.2575  151.8856 H   0  0  0  0  0  0  0  0  0  0  0  0  # atno 10167 bound_to 10162
  156.2302  130.4172  149.8884 H   0  0  0  0  0  0  0  0  0  0  0  0  # atno 10718 bound_to 10713
  154.0873  135.2855  155.3278 H   0  0  0  0  0  0  0  0  0  0  0  0  # atno 10763 bound_to 10752
  154.6643  135.5323  153.8061 H   0  0  0  0  0  0  0  0  0  0  0  0  # atno 10764 bound_to 10752
  153.0426  135.6542  154.1045 H   0  0  0  0  0  0  0  0  0  0  0  0  # atno 10765 bound_to 10752
  140.4399  134.1333  155.7689 H   0  0  0  0  0  0  0  0  0  0  0  0  # atno 11005 bound_to 11000
  146.3183  139.8006  142.8966 LP  0  0  0  0  0  0  0  0  0  0  0  0  # atno 17320 bound_to 7965
  145.3372  141.0280  143.3413 LP  0  0  0  0  0  0  0  0  0  0  0  0  # atno 17321 bound_to 7965
  139.4783  144.5410  151.8528 LP  0  0  0  0  0  0  0  0  0  0  0  0  # atno 17342 bound_to 10162
  140.4506  144.1861  150.5897 LP  0  0  0  0  0  0  0  0  0  0  0  0  # atno 17343 bound_to 10162
  156.6501  130.8740  151.3530 LP  0  0  0  0  0  0  0  0  0  0  0  0  # atno 17370 bound_to 10713
  157.7129  130.9462  150.1153 LP  0  0  0  0  0  0  0  0  0  0  0  0  # atno 17371 bound_to 10713
  141.1710  133.8609  157.1570 LP  0  0  0  0  0  0  0  0  0  0  0  0  # atno 17394 bound_to 11000
  140.0077  135.0001  157.0328 LP  0  0  0  0  0  0  0  0  0  0  0  0  # atno 17395 bound_to 11000

$$$$
