AV-unprocessed.smi:45|AV-procd|sdf|411|dock9
  -GOLD-   2262016273D 1   1.00000     0.00000
 Structure written by MMmdl.
 61 64  0  0  0  0  0  0  0  0  2 V2000
  142.4498  134.1767  162.8110 C   0  0  0  0  0  0  0  0  0  0  0  0
  142.0799  133.2699  161.7826 O   0  0  0  0  0  0  0  0  0  0  0  0
  142.5707  133.4886  160.5119 C   0  0  0  0  0  0  0  0  0  0  0  0
  143.4103  134.5786  160.1677 C   0  0  0  0  0  0  0  0  0  0  0  0
  143.8715  134.7386  158.8469 C   0  0  0  0  0  0  0  0  0  0  0  0
  143.5026  133.8148  157.8498 C   0  0  0  0  0  0  0  0  0  0  0  0
  143.9882  133.9923  156.4263 C   0  0  0  0  0  0  0  0  0  0  0  0
  143.7129  135.3204  155.8992 N   0  0  0  0  0  0  0  0  0  0  0  0
  143.8012  135.5954  154.5252 C   0  0  0  0  0  0  0  0  0  0  0  0
  144.1737  134.5872  153.6926 N   0  3  0  0  0  0  0  0  0  0  0  0
  144.2931  134.7912  152.3707 C   0  0  0  0  0  0  0  0  0  0  0  0
  144.6738  133.7292  151.5553 N   0  0  0  0  0  0  0  0  0  0  0  0
  144.4670  133.6967  150.1128 C   0  0  0  0  0  0  0  0  0  0  0  0
  145.0488  132.3656  149.6333 C   0  0  0  0  0  0  0  0  0  0  0  0
  145.0068  131.4874  150.8820 C   0  0  0  0  0  0  0  0  0  0  0  0
  145.2510  132.4759  152.0319 C   0  0  1  0  0  0  0  0  0  0  0  0
  146.7470  132.6374  152.3731 C   0  0  0  0  0  0  0  0  0  0  0  0
  147.3229  131.3762  152.6377 O   0  0  0  0  0  0  0  0  0  0  0  0
  144.0523  135.9832  151.8107 N   0  0  0  0  0  0  0  0  0  0  0  0
  143.6778  137.0141  152.5912 C   0  0  0  0  0  0  0  0  0  0  0  0
  143.5378  136.8816  153.9866 C   0  0  0  0  0  0  0  0  0  0  0  0
  143.0814  138.0474  154.8219 C   0  0  0  0  0  0  0  0  0  0  0  0
  143.6466  138.3363  155.8766 O   0  0  0  0  0  0  0  0  0  0  0  0
  142.0451  138.7399  154.3228 N   0  0  0  0  0  0  0  0  0  0  0  0
  141.3937  139.8582  154.9943 C   0  0  0  0  0  0  0  0  0  0  0  0
  140.0472  140.1936  154.3772 C   0  0  0  0  0  0  0  0  0  0  0  0
  139.8651  141.4535  153.9695 N   0  0  0  0  0  0  0  0  0  0  0  0
  138.6608  141.7552  153.4373 C   0  0  0  0  0  0  0  0  0  0  0  0
  137.6412  140.7895  153.3154 C   0  0  0  0  0  0  0  0  0  0  0  0
  137.9491  139.4952  153.7805 C   0  0  0  0  0  0  0  0  0  0  0  0
  139.1547  139.1993  154.3132 N   0  0  0  0  0  0  0  0  0  0  0  0
  142.6689  132.7293  158.1831 C   0  0  0  0  0  0  0  0  0  0  0  0
  142.2075  132.5671  159.5041 C   0  0  0  0  0  0  0  0  0  0  0  0
  141.1869  131.2249  159.8793 Cl  0  0  0  0  0  0  0  0  0  0  0  0
  144.7122  132.1399  152.9192 H   0  0  0  0  0  0  0  0  0  0  0  0
  141.9751  133.8747  163.7444 H   0  0  0  0  0  0  0  0  0  0  0  0
  142.1179  135.1913  162.5865 H   0  0  0  0  0  0  0  0  0  0  0  0
  143.5283  134.1760  162.9745 H   0  0  0  0  0  0  0  0  0  0  0  0
  143.7154  135.3100  160.9005 H   0  0  0  0  0  0  0  0  0  0  0  0
  144.5072  135.5772  158.6025 H   0  0  0  0  0  0  0  0  0  0  0  0
  145.0608  133.7987  156.3833 H   0  0  0  0  0  0  0  0  0  0  0  0
  143.5021  133.2467  155.7960 H   0  0  0  0  0  0  0  0  0  0  0  0
  143.4142  136.0447  156.5379 H   0  0  0  0  0  0  0  0  0  0  0  0
  143.3964  133.7414  149.9088 H   0  0  0  0  0  0  0  0  0  0  0  0
  144.9442  134.5437  149.6190 H   0  0  0  0  0  0  0  0  0  0  0  0
  144.4966  131.9410  148.7943 H   0  0  0  0  0  0  0  0  0  0  0  0
  146.0830  132.5063  149.3168 H   0  0  0  0  0  0  0  0  0  0  0  0
  144.0117  131.0512  150.9825 H   0  0  0  0  0  0  0  0  0  0  0  0
  145.7230  130.6658  150.8486 H   0  0  0  0  0  0  0  0  0  0  0  0
  147.2893  133.1223  151.5606 H   0  0  0  0  0  0  0  0  0  0  0  0
  146.8800  133.2563  153.2608 H   0  0  0  0  0  0  0  0  0  0  0  0
  147.7739  131.0797  151.8616 H   0  0  0  0  0  0  0  0  0  0  0  0
  143.4799  137.9492  152.0875 H   0  0  0  0  0  0  0  0  0  0  0  0
  141.6481  138.4494  153.4414 H   0  0  0  0  0  0  0  0  0  0  0  0
  141.2864  139.6479  156.0604 H   0  0  0  0  0  0  0  0  0  0  0  0
  142.0423  140.7315  154.9190 H   0  0  0  0  0  0  0  0  0  0  0  0
  138.5099  142.7723  153.1067 H   0  0  0  0  0  0  0  0  0  0  0  0
  136.6779  141.0283  152.8897 H   0  0  0  0  0  0  0  0  0  0  0  0
  137.2258  138.6949  153.7261 H   0  0  0  0  0  0  0  0  0  0  0  0
  142.3796  132.0185  157.4226 H   0  0  0  0  0  0  0  0  0  0  0  0
  144.3618  133.6664  154.0879 H   0  0  0  0  0  0  0  0  0  0  0  0
  1  2  1  0  0  0  0
  1 36  1  0  0  0  0
  1 37  1  0  0  0  0
  1 38  1  0  0  0  0
  2  3  1  0  0  0  0
  3 33  1  0  0  0  0
  3  4  2  0  0  0  0
  4  5  1  0  0  0  0
  4 39  1  0  0  0  0
  5  6  2  0  0  0  0
  5 40  1  0  0  0  0
  6  7  1  0  0  0  0
  6 32  1  0  0  0  0
  7  8  1  0  0  0  0
  7 41  1  0  0  0  0
  7 42  1  0  0  0  0
  8  9  1  0  0  0  0
  8 43  1  0  0  0  0
  9 21  1  0  0  0  0
  9 10  2  0  0  0  0
 10 11  1  0  0  0  0
 10 61  1  0  0  0  0
 11 12  1  0  0  0  0
 11 19  2  0  0  0  0
 12 16  1  0  0  0  0
 12 13  1  0  0  0  0
 13 14  1  0  0  0  0
 13 44  1  0  0  0  0
 13 45  1  0  0  0  0
 14 15  1  0  0  0  0
 14 46  1  0  0  0  0
 14 47  1  0  0  0  0
 15 16  1  0  0  0  0
 15 48  1  0  0  0  0
 15 49  1  0  0  0  0
 16 35  1  0  0  0  0
 16 17  1  0  0  0  0
 17 18  1  0  0  0  0
 17 50  1  0  0  0  0
 17 51  1  0  0  0  0
 18 52  1  0  0  0  0
 19 20  1  0  0  0  0
 20 21  2  0  0  0  0
 20 53  1  0  0  0  0
 21 22  1  0  0  0  0
 22 23  2  0  0  0  0
 22 24  1  0  0  0  0
 24 25  1  0  0  0  0
 24 54  1  0  0  0  0
 25 26  1  0  0  0  0
 25 55  1  0  0  0  0
 25 56  1  0  0  0  0
 26 31  1  0  0  0  0
 26 27  2  0  0  0  0
 27 28  1  0  0  0  0
 28 29  2  0  0  0  0
 28 57  1  0  0  0  0
 29 30  1  0  0  0  0
 29 58  1  0  0  0  0
 30 31  2  0  0  0  0
 30 59  1  0  0  0  0
 32 33  2  0  0  0  0
 32 60  1  0  0  0  0
 33 34  1  0  0  0  0
M  CHG  1  10   1
M  END
> <s_m_source_file>
AV-unprocessed.smi

> <i_m_source_file_index>
45

> <i_lp_mmshare_version>
43012

> <i_f3d_flags>
0

> <s_epik_input>
W0NIM11PYzFbY0hdW2NIXWMoW2NIXWMxQ2wpW0NIMl1bTkhdYzJuYyhOM1tDSDJdW0NIMl1bQ0gyXVtDQEhdM1tDSDJdW09IXSluW2NIXWMyQyg9TylbTkhdW0NIMl1jNG5bY0hdW2NIXVtjSF1uNA==

> <s_epik_cmdline>
J2VwaWtfcHl0aG9uJywgJy1waCcsICc3LjAnLCAnLXRuJywgJzgnLCAnLW1hJywgJzIwMCcsICctbWV0YWxfYmluZGluZycsICctaW1hZScsICc8aW5maWxlLm1hZT4nLCAnLW9tYWUnLCAnPG91dGZpbGUubWFlPic=

> <r_lp_tautomer_probability>
0.424989

> <r_epik_Ionization_Penalty>
2.31209

> <r_epik_Ionization_Penalty_Charging>
2.31199

> <r_epik_Ionization_Penalty_Neutral>
9.65277e-05

> <r_epik_State_Penalty>
2.29675

> <r_epik_Charging_Adjusted_Penalty>
4.60874

> <i_epik_Tot_Q>
1

> <i_epik_Tot_abs_Q>
1

> <r_epik_Metal_State_Penalty>
2.3404

> <b_epik_Metal_Only>
0

> <s_epik_Chemistry_Notes>
This compound contains an electron-poor aromatic ring that is susceptible to covalent hydrolysis at low pH, typically resulting in measured values for nitrogen ring protonation that are around two units higher than predicted values.

> <s_lp_Force_Field>
OPLS_2005

> <r_lp_Energy>
34.7273

> <b_lp_Chiralities_Consistent>
1

> <s_lp_Variant>
AV-unprocessed.smi:45-5

> <Gold.Version>
5.8.1

> <Gold.Id.Protein>
6NUR|6NUR_protein|mol2

> <Gold.PLP.Fitness>
47.7982

> <Gold.PLP.PLP>
-39.8014

> <Gold.PLP.part.hbond>
-1.9809

> <Gold.PLP.part.metal>
0.0000

> <Gold.PLP.part.buried>
-7.7310

> <Gold.PLP.part.nonpolar>
-30.3758

> <Gold.PLP.part.repulsive>
0.5506

> <Gold.PLP.ligand.clash>
0.0000

> <Gold.PLP.ligand.torsion>
1.1936

> <Gold.PLP.Chemscore.Hbond>
1.0000

> <Gold.PLP.Chemscore.CHOScore>
1.9141

> <Gold.PLP.Chemscore.Metal>
0.0000

> <Gold.Chemscore.Hbonds>
donor molecule, donor type, donor heavy atom, donor atom, acceptor molecule, acceptor atom, score
      L1  H    18    52       P1 10747  1.00
      L1  C    20    53       P1 10171  1.00
      L1  C    20    53       P1 10175  1.00

> <Gold.PLP.Chemscore.Internal.Correction>
1.6415

> <Gold.Rescore>
     Score         DG    S(hbond)    S(metal)    S(lipo)     H(rot)  DE(clash)    DE(int)     intcor
     11.48     -12.94       1.00        0.00      99.52       2.94       0.11       1.35       ----

> <Gold.Chemscore.Fitness>
11.4807

> <Gold.Chemscore.DG>
-12.9371

> <Gold.Chemscore.ZeroCoef>
-5.4800

> <Gold.Chemscore.Hbond>
0.9996

> <Gold.Chemscore.Metal>
0.0000

> <Gold.Chemscore.Lipo>
99.5184

> <Gold.Chemscore.Internal_Hbond>
0.0000

> <Gold.Chemscore.DEClash>
0.1107

> <Gold.Chemscore.DEInternal>
1.3457

> <Gold.Chemscore.Rot>
2.9395

> <Gold.Chemscore.Internal.Correction>
   9.000000E+99

> <Gold.Chemscore.Hbonds>
donor molecule, donor type, donor heavy atom, donor atom, acceptor molecule, acceptor atom, score
      L1  H    18    52       P1 10747  0.96

> <Gold.Chemscore.Hbond.Weighted>
-3.3385

> <Gold.Chemscore.Metal.Weighted>
-0.0000

> <Gold.Chemscore.Lipo.Weighted>
-11.6437

> <Gold.Chemscore.Internal_Hbond.Weighted>
0.0000

> <Gold.Chemscore.DEClash.Weighted>
0.1107

> <Gold.Chemscore.DEInternal.Weighted>
1.3457

> <Gold.Chemscore.Rot.Weighted>
7.5251

> <Gold.Chemscore.Internal.Correction.Weighted>
   9.000000E+99

> <Gold.Protein.RotatedTorsions>
[ 6907 6896 6895 6894 ] final  -22.21 input  -60.11 | X-H torsion
[ 7974 7965 7964 7962 ] final    6.64 input  175.53 | X-H torsion
[ 8008 7997 7996 7995 ] final  117.59 input   59.86 | X-H torsion
[ 10167 10162 10161 10158 ] final  177.88 input  -65.29 | X-H torsion
[ 10718 10713 10712 10709 ] final  108.26 input   66.30 | X-H torsion
[ 10763 10752 10751 10750 ] final   58.11 input  -60.55 | X-H torsion
[ 11005 11000 10999 10996 ] final  162.11 input  -57.11 | X-H torsion

> <Gold.Protein.ActiveResidues>
 VAL166  LYS551  ARG553  GLY616  TRP617  ASP618  TYR619  PRO620  LYS621  CYS622 
 ASP623  PHE694  ASN695  SER759  ASP760  ASP761  ALA762  ILE779  LEU786  VAL792 
 PHE793  MET794  SER795  GLU796  ALA797  LYS798  CYS799  TRP800  GLU811  SER814 

> <Gold.Protein.RotatedAtoms>
  151.2219  135.0522  159.8952 H   0  0  0  0  0  0  0  0  0  0  0  0  # atno 6907 bound_to 6896
  152.5414  134.0631  159.8171 H   0  0  0  0  0  0  0  0  0  0  0  0  # atno 6908 bound_to 6896
  151.0798  133.5351  159.2653 H   0  0  0  0  0  0  0  0  0  0  0  0  # atno 6909 bound_to 6896
  146.2433  140.0203  142.8398 H   0  0  0  0  0  0  0  0  0  0  0  0  # atno 7974 bound_to 7965
  156.2502  140.2893  156.0702 H   0  0  0  0  0  0  0  0  0  0  0  0  # atno 8008 bound_to 7997
  155.1679  140.0401  157.2874 H   0  0  0  0  0  0  0  0  0  0  0  0  # atno 8009 bound_to 7997
  154.6346  140.2507  155.7400 H   0  0  0  0  0  0  0  0  0  0  0  0  # atno 8010 bound_to 7997
  139.5271  144.2745  152.0599 H   0  0  0  0  0  0  0  0  0  0  0  0  # atno 10167 bound_to 10162
  157.6594  131.0890  150.6278 H   0  0  0  0  0  0  0  0  0  0  0  0  # atno 10718 bound_to 10713
  152.9864  135.5618  154.5500 H   0  0  0  0  0  0  0  0  0  0  0  0  # atno 10763 bound_to 10752
  154.4938  135.2794  155.1477 H   0  0  0  0  0  0  0  0  0  0  0  0  # atno 10764 bound_to 10752
  154.2935  135.6321  153.5448 H   0  0  0  0  0  0  0  0  0  0  0  0  # atno 10765 bound_to 10752
  140.2225  134.8185  157.3235 H   0  0  0  0  0  0  0  0  0  0  0  0  # atno 11005 bound_to 11000
  145.1247  140.9483  143.4579 LP  0  0  0  0  0  0  0  0  0  0  0  0  # atno 17320 bound_to 7965
  145.0446  139.3231  143.5959 LP  0  0  0  0  0  0  0  0  0  0  0  0  # atno 17321 bound_to 7965
  140.2203  144.4473  150.6345 LP  0  0  0  0  0  0  0  0  0  0  0  0  # atno 17342 bound_to 10162
  140.6422  143.2206  151.6264 LP  0  0  0  0  0  0  0  0  0  0  0  0  # atno 17343 bound_to 10162
  156.6582  130.4504  149.5696 LP  0  0  0  0  0  0  0  0  0  0  0  0  # atno 17370 bound_to 10713
  156.2086  130.6665  151.1246 LP  0  0  0  0  0  0  0  0  0  0  0  0  # atno 17371 bound_to 10713
  140.1835  134.4461  155.7758 LP  0  0  0  0  0  0  0  0  0  0  0  0  # atno 17394 bound_to 11000
  141.2222  133.6994  156.7907 LP  0  0  0  0  0  0  0  0  0  0  0  0  # atno 17395 bound_to 11000

$$$$
