AV-unprocessed.smi:1952|AV-procd|sdf|7886|dock9
  -GOLD-   2272010 43D 1   1.00000     0.00000
 Structure written by MMmdl.
 40 41  0  0  0  0  0  0  0  0  2 V2000
  153.6945  137.7106  157.1375 C   0  0  0  0  0  0  0  0  0  0  0  0
  152.6798  138.1536  156.1398 C   0  0  0  0  0  0  0  0  0  0  0  0
  151.6364  137.5175  155.5277 C   0  0  0  0  0  0  0  0  0  0  0  0
  151.0922  138.5281  154.6913 C   0  0  0  0  0  0  0  0  0  0  0  0
  149.9660  138.2671  153.8693 N   0  0  0  0  0  0  0  0  0  0  0  0
  148.8095  138.9499  153.8283 C   0  0  0  0  0  0  0  0  0  0  0  0
  148.5510  139.9480  154.5015 O   0  0  0  0  0  0  0  0  0  0  0  0
  147.9479  138.4018  152.9578 N   0  0  0  0  0  0  0  0  0  0  0  0
  146.6147  138.9100  152.6303 C   0  0  1  0  0  0  0  0  0  0  0  0
  146.7114  139.7762  151.3669 C   0  0  0  0  0  0  0  0  0  0  0  0
  145.5965  137.7608  152.4422 C   0  0  0  0  0  0  0  0  0  0  0  0
  144.2844  138.0285  153.0841 N   0  3  0  0  0  0  0  0  0  0  0  0
  143.1936  137.1542  152.5886 C   0  0  0  0  0  0  0  0  0  0  0  0
  141.8591  137.5501  153.2415 C   0  0  0  0  0  0  0  0  0  0  0  0
  141.9806  137.4669  154.6565 O   0  0  0  0  0  0  0  0  0  0  0  0
  142.9709  138.3555  155.1594 C   0  0  0  0  0  0  0  0  0  0  0  0
  144.3427  137.9932  154.5641 C   0  0  0  0  0  0  0  0  0  0  0  0
  151.7402  139.6788  154.7885 N   0  0  0  0  0  0  0  0  0  0  0  0
  152.7621  139.4441  155.7161 O   0  0  0  0  0  0  0  0  0  0  0  0
  153.4168  136.7525  157.5771 H   0  0  0  0  0  0  0  0  0  0  0  0
  153.7882  138.4373  157.9448 H   0  0  0  0  0  0  0  0  0  0  0  0
  154.6720  137.5972  156.6685 H   0  0  0  0  0  0  0  0  0  0  0  0
  151.3194  136.4934  155.6579 H   0  0  0  0  0  0  0  0  0  0  0  0
  150.0514  137.4756  153.2487 H   0  0  0  0  0  0  0  0  0  0  0  0
  148.2502  137.5812  152.4528 H   0  0  0  0  0  0  0  0  0  0  0  0
  146.2772  139.5649  153.4349 H   0  0  0  0  0  0  0  0  0  0  0  0
  145.7434  140.2092  151.1129 H   0  0  0  0  0  0  0  0  0  0  0  0
  147.0501  139.1940  150.5090 H   0  0  0  0  0  0  0  0  0  0  0  0
  147.4116  140.6004  151.5073 H   0  0  0  0  0  0  0  0  0  0  0  0
  145.4448  137.5494  151.3826 H   0  0  0  0  0  0  0  0  0  0  0  0
  146.0266  136.8544  152.8715 H   0  0  0  0  0  0  0  0  0  0  0  0
  143.1034  137.2327  151.5057 H   0  0  0  0  0  0  0  0  0  0  0  0
  143.4251  136.1121  152.8150 H   0  0  0  0  0  0  0  0  0  0  0  0
  141.5643  138.5584  152.9464 H   0  0  0  0  0  0  0  0  0  0  0  0
  141.0660  136.8773  152.9143 H   0  0  0  0  0  0  0  0  0  0  0  0
  142.7040  139.3868  154.9229 H   0  0  0  0  0  0  0  0  0  0  0  0
  142.9988  138.2748  156.2462 H   0  0  0  0  0  0  0  0  0  0  0  0
  144.6469  136.9991  154.8956 H   0  0  0  0  0  0  0  0  0  0  0  0
  145.0941  138.6971  154.9239 H   0  0  0  0  0  0  0  0  0  0  0  0
  144.0344  138.9754  152.8350 H   0  0  0  0  0  0  0  0  0  0  0  0
  1  2  1  0  0  0  0
  1 20  1  0  0  0  0
  1 21  1  0  0  0  0
  1 22  1  0  0  0  0
  2 19  1  0  0  0  0
  2  3  2  0  0  0  0
  3  4  1  0  0  0  0
  3 23  1  0  0  0  0
  4  5  1  0  0  0  0
  4 18  2  0  0  0  0
  5  6  1  0  0  0  0
  5 24  1  0  0  0  0
  6  7  2  0  0  0  0
  6  8  1  0  0  0  0
  8  9  1  0  0  0  0
  8 25  1  0  0  0  0
  9 10  1  0  0  0  0
  9 11  1  0  0  0  0
  9 26  1  0  0  0  0
 10 27  1  0  0  0  0
 10 28  1  0  0  0  0
 10 29  1  0  0  0  0
 11 12  1  0  0  0  0
 11 30  1  0  0  0  0
 11 31  1  0  0  0  0
 12 17  1  0  0  0  0
 12 13  1  0  0  0  0
 12 40  1  0  0  0  0
 13 14  1  0  0  0  0
 13 32  1  0  0  0  0
 13 33  1  0  0  0  0
 14 15  1  0  0  0  0
 14 34  1  0  0  0  0
 14 35  1  0  0  0  0
 15 16  1  0  0  0  0
 16 17  1  0  0  0  0
 16 36  1  0  0  0  0
 16 37  1  0  0  0  0
 17 38  1  0  0  0  0
 17 39  1  0  0  0  0
 18 19  1  0  0  0  0
M  CHG  1  12   1
M  END
> <s_m_source_file>
AV-unprocessed.smi

> <i_m_source_file_index>
1952

> <i_lp_mmshare_version>
43012

> <i_f3d_flags>
0

> <s_epik_input>
W0NIM11jMVtjSF1jKG5vMSlbTkhdQyg9TylbTkhdW0NASF0oW0NIM10pW0NIMl1OMltDSDJdW0NIMl1PW0NIMl1bQ0gyXTI=

> <s_epik_cmdline>
J2VwaWtfcHl0aG9uJywgJy1waCcsICc3LjAnLCAnLXRuJywgJzgnLCAnLW1hJywgJzIwMCcsICctbWV0YWxfYmluZGluZycsICctaW1hZScsICc8aW5maWxlLm1hZT4nLCAnLW9tYWUnLCAnPG91dGZpbGUubWFlPic=

> <r_epik_Ionization_Penalty>
0.707079

> <r_epik_Ionization_Penalty_Charging>
0.707039

> <r_epik_Ionization_Penalty_Neutral>
4.01892e-05

> <r_epik_State_Penalty>
0.730276

> <r_epik_Charging_Adjusted_Penalty>
1.43732

> <i_epik_Tot_Q>
1

> <i_epik_Tot_abs_Q>
1

> <r_epik_Metal_State_Penalty>
0.744847

> <b_epik_Metal_Only>
0

> <s_lp_Force_Field>
OPLS_2005

> <r_lp_Energy>
19.2195

> <b_lp_Chiralities_Consistent>
1

> <s_lp_Variant>
AV-unprocessed.smi:1952-4

> <Gold.Version>
5.8.1

> <Gold.Id.Protein>
6NUR|6NUR_protein|mol2

> <Gold.PLP.Fitness>
42.0475

> <Gold.PLP.PLP>
-27.8207

> <Gold.PLP.part.hbond>
-6.3406

> <Gold.PLP.part.metal>
0.0000

> <Gold.PLP.part.buried>
0.6708

> <Gold.PLP.part.nonpolar>
-22.4153

> <Gold.PLP.part.repulsive>
0.3313

> <Gold.PLP.ligand.clash>
0.0000

> <Gold.PLP.ligand.torsion>
1.5103

> <Gold.PLP.Chemscore.Hbond>
5.7426

> <Gold.PLP.Chemscore.CHOScore>
0.0000

> <Gold.PLP.Chemscore.Metal>
0.0000

> <Gold.Chemscore.Hbonds>
donor molecule, donor type, donor heavy atom, donor atom, acceptor molecule, acceptor atom, score
      L1  H     5    24       P1  7948  0.70
      L1  H     8    25       P1  7948  1.00
      L1  H    12    40       P1 10175  2.00
      P1  H  7989  7998       L1    18  1.00
      P1  H  7997  8009       L1    19  1.00

> <Gold.PLP.Chemscore.Internal.Correction>
0.0198

> <Gold.Rescore>
     Score         DG    S(hbond)    S(metal)    S(lipo)     H(rot)  DE(clash)    DE(int)     intcor
     19.61     -21.43       4.26        0.00      49.86       1.61       0.54       1.28       ----

> <Gold.Chemscore.Fitness>
19.6079

> <Gold.Chemscore.DG>
-21.4268

> <Gold.Chemscore.ZeroCoef>
-5.4800

> <Gold.Chemscore.Hbond>
4.2600

> <Gold.Chemscore.Metal>
0.0000

> <Gold.Chemscore.Lipo>
49.8645

> <Gold.Chemscore.Internal_Hbond>
0.0000

> <Gold.Chemscore.DEClash>
0.5362

> <Gold.Chemscore.DEInternal>
1.2827

> <Gold.Chemscore.Rot>
1.6078

> <Gold.Chemscore.Internal.Correction>
   9.000000E+99

> <Gold.Chemscore.Hbonds>
donor molecule, donor type, donor heavy atom, donor atom, acceptor molecule, acceptor atom, score
      L1  H     5    24       P1  7948  0.18
      L1  H     8    25       P1  7948  0.99
      L1  H    12    40       P1 10175  0.96
      P1  H  7989  7998       L1    18  0.95
      P1  H  7997  8009       L1    19  0.74

> <Gold.Chemscore.Hbond.Weighted>
-14.2285

> <Gold.Chemscore.Metal.Weighted>
-0.0000

> <Gold.Chemscore.Lipo.Weighted>
-5.8342

> <Gold.Chemscore.Internal_Hbond.Weighted>
0.0000

> <Gold.Chemscore.DEClash.Weighted>
0.5362

> <Gold.Chemscore.DEInternal.Weighted>
1.2827

> <Gold.Chemscore.Rot.Weighted>
4.1158

> <Gold.Chemscore.Internal.Correction.Weighted>
   9.000000E+99

> <Gold.Protein.RotatedTorsions>
[ 6907 6896 6895 6894 ] final -133.69 input  -60.11 | X-H torsion
[ 7974 7965 7964 7962 ] final  -20.45 input  175.53 | X-H torsion
[ 8008 7997 7996 7995 ] final -152.06 input   59.86 | X-H torsion
[ 10167 10162 10161 10158 ] final   82.68 input  -65.29 | X-H torsion
[ 10718 10713 10712 10709 ] final -135.58 input   66.30 | X-H torsion
[ 10763 10752 10751 10750 ] final -172.52 input  -60.55 | X-H torsion
[ 11005 11000 10999 10996 ] final  175.99 input  -57.11 | X-H torsion

> <Gold.Protein.ActiveResidues>
 VAL166  LYS551  ARG553  GLY616  TRP617  ASP618  TYR619  PRO620  LYS621  CYS622 
 ASP623  PHE694  ASN695  SER759  ASP760  ASP761  ALA762  ILE779  LEU786  VAL792 
 PHE793  MET794  SER795  GLU796  ALA797  LYS798  CYS799  TRP800  GLU811  SER814 

> <Gold.Protein.RotatedAtoms>
  150.9770  133.6284  159.2728 H   0  0  0  0  0  0  0  0  0  0  0  0  # atno 6907 bound_to 6896
  151.3552  135.0892  159.9426 H   0  0  0  0  0  0  0  0  0  0  0  0  # atno 6908 bound_to 6896
  152.5203  133.9355  159.7656 H   0  0  0  0  0  0  0  0  0  0  0  0  # atno 6909 bound_to 6896
  146.1787  140.4204  142.8503 H   0  0  0  0  0  0  0  0  0  0  0  0  # atno 7974 bound_to 7965
  155.6491  140.0710  157.2593 H   0  0  0  0  0  0  0  0  0  0  0  0  # atno 8008 bound_to 7997
  154.4166  140.1736  156.1705 H   0  0  0  0  0  0  0  0  0  0  0  0  # atno 8009 bound_to 7997
  155.9791  140.3355  155.6650 H   0  0  0  0  0  0  0  0  0  0  0  0  # atno 8010 bound_to 7997
  139.9262  144.6181  150.8390 H   0  0  0  0  0  0  0  0  0  0  0  0  # atno 10167 bound_to 10162
  156.2677  130.7247  151.1203 H   0  0  0  0  0  0  0  0  0  0  0  0  # atno 10718 bound_to 10713
  154.6183  135.2872  155.0355 H   0  0  0  0  0  0  0  0  0  0  0  0  # atno 10763 bound_to 10752
  154.1559  135.6496  153.4978 H   0  0  0  0  0  0  0  0  0  0  0  0  # atno 10764 bound_to 10752
  153.0225  135.5366  154.6963 H   0  0  0  0  0  0  0  0  0  0  0  0  # atno 10765 bound_to 10752
  140.3682  134.7053  157.4375 H   0  0  0  0  0  0  0  0  0  0  0  0  # atno 11005 bound_to 11000
  144.8279  140.6659  143.6310 LP  0  0  0  0  0  0  0  0  0  0  0  0  # atno 17320 bound_to 7965
  145.4138  139.1575  143.4111 LP  0  0  0  0  0  0  0  0  0  0  0  0  # atno 17321 bound_to 7965
  140.7649  143.3262  151.2511 LP  0  0  0  0  0  0  0  0  0  0  0  0  # atno 17342 bound_to 10162
  139.6820  143.9838  152.2813 LP  0  0  0  0  0  0  0  0  0  0  0  0  # atno 17343 bound_to 10162
  157.7273  131.0640  150.5871 LP  0  0  0  0  0  0  0  0  0  0  0  0  # atno 17370 bound_to 10713
  156.5965  130.4343  149.5915 LP  0  0  0  0  0  0  0  0  0  0  0  0  # atno 17371 bound_to 10713
  140.0573  134.6046  155.8790 LP  0  0  0  0  0  0  0  0  0  0  0  0  # atno 17394 bound_to 11000
  141.1963  133.6591  156.5685 LP  0  0  0  0  0  0  0  0  0  0  0  0  # atno 17395 bound_to 11000

$$$$
