AV-unprocessed.smi:256|AV-procd|sdf|1962|dock7
  -GOLD-   2262021113D 1   1.00000     0.00000
 Structure written by MMmdl.
 61 64  0  0  0  0  0  0  0  0  1 V2000
  146.6521  142.0458  154.3738 C   0  0  0  0  0  0  0  0  0  0  0  0
  148.1790  142.0284  154.5453 C   0  0  0  0  0  0  0  0  0  0  0  0
  148.7534  140.7410  155.1974 C   0  0  1  0  0  0  0  0  0  0  0  0
  148.1399  139.5003  154.4956 C   0  0  0  0  0  0  0  0  0  0  0  0
  148.6294  138.2546  155.0816 N   0  0  0  0  0  0  0  0  0  0  0  0
  147.9982  137.0997  154.7496 C   0  0  0  0  0  0  0  0  0  0  0  0
  148.5458  135.9015  155.0889 N   0  0  0  0  0  0  0  0  0  0  0  0
  147.9270  134.7608  154.7702 C   0  0  0  0  0  0  0  0  0  0  0  0
  146.7743  134.5903  154.1203 N   0  0  0  0  0  0  0  0  0  0  0  0
  146.2237  135.7876  153.7692 C   0  0  0  0  0  0  0  0  0  0  0  0
  146.7625  137.0765  154.0430 C   0  0  0  0  0  0  0  0  0  0  0  0
  145.9266  138.0575  153.5219 N   0  0  0  0  0  0  0  0  0  0  0  0
  144.9483  137.3876  152.9771 C   0  0  0  0  0  0  0  0  0  0  0  0
  145.0504  136.0182  153.0724 N   0  0  0  0  0  0  0  0  0  0  0  0
  144.1131  135.0367  152.5481 C   0  0  0  0  0  0  0  0  0  0  0  0
  144.6188  134.3039  151.2806 C   0  0  0  0  0  0  0  0  0  0  0  0
  144.6026  135.2349  150.2116 O   0  0  0  0  0  0  0  0  0  0  0  0
  146.0575  133.7641  151.4387 C   0  0  0  0  0  0  0  0  0  0  0  0
  146.4728  132.8689  150.2578 C   0  0  0  0  0  0  0  0  0  0  0  0
  145.5353  131.8123  150.0899 O   0  0  0  0  0  0  0  0  0  0  0  0
  144.2310  132.2800  149.7681 C   0  0  0  0  0  0  0  0  0  0  0  0
  143.6784  133.1363  150.9216 C   0  0  0  0  0  0  0  0  0  0  0  0
  150.0829  138.1737  155.0960 C   0  0  0  0  0  0  0  0  0  0  0  0
  150.6560  139.4034  155.8085 C   0  0  0  0  0  0  0  0  0  0  0  0
  150.2348  140.6690  155.1939 N   0  0  0  0  0  0  0  0  0  0  0  0
  150.8692  141.8076  155.8770 C   0  0  0  0  0  0  0  0  0  0  0  0
  150.8710  141.7542  157.4150 C   0  0  0  0  0  0  0  0  0  0  0  0
  151.5505  142.8890  157.9280 O   0  0  0  0  0  0  0  0  0  0  0  0
  152.0126  142.6927  159.2526 C   0  0  0  0  0  0  0  0  0  0  0  0
  146.3153  143.0316  154.0526 H   0  0  0  0  0  0  0  0  0  0  0  0
  146.1463  141.8140  155.3115 H   0  0  0  0  0  0  0  0  0  0  0  0
  146.3168  141.3347  153.6192 H   0  0  0  0  0  0  0  0  0  0  0  0
  148.6539  142.1985  153.5784 H   0  0  0  0  0  0  0  0  0  0  0  0
  148.4114  142.8972  155.1580 H   0  0  0  0  0  0  0  0  0  0  0  0
  148.4168  140.7271  156.2355 H   0  0  0  0  0  0  0  0  0  0  0  0
  147.0546  139.5130  154.5917 H   0  0  0  0  0  0  0  0  0  0  0  0
  148.3740  139.5178  153.4299 H   0  0  0  0  0  0  0  0  0  0  0  0
  148.4276  133.8552  155.0797 H   0  0  0  0  0  0  0  0  0  0  0  0
  144.1236  137.8765  152.4788 H   0  0  0  0  0  0  0  0  0  0  0  0
  143.9026  134.3147  153.3382 H   0  0  0  0  0  0  0  0  0  0  0  0
  143.1689  135.5431  152.3424 H   0  0  0  0  0  0  0  0  0  0  0  0
  144.9775  134.8222  149.4485 H   0  0  0  0  0  0  0  0  0  0  0  0
  146.7719  134.5811  151.5470 H   0  0  0  0  0  0  0  0  0  0  0  0
  146.1211  133.1778  152.3565 H   0  0  0  0  0  0  0  0  0  0  0  0
  146.5555  133.4468  149.3361 H   0  0  0  0  0  0  0  0  0  0  0  0
  147.4562  132.4378  150.4469 H   0  0  0  0  0  0  0  0  0  0  0  0
  144.2540  132.8439  148.8342 H   0  0  0  0  0  0  0  0  0  0  0  0
  143.5828  131.4198  149.6000 H   0  0  0  0  0  0  0  0  0  0  0  0
  143.5505  132.4947  151.7945 H   0  0  0  0  0  0  0  0  0  0  0  0
  142.6846  133.5086  150.6690 H   0  0  0  0  0  0  0  0  0  0  0  0
  150.4290  137.2710  155.5980 H   0  0  0  0  0  0  0  0  0  0  0  0
  150.4507  138.1269  154.0699 H   0  0  0  0  0  0  0  0  0  0  0  0
  150.3658  139.3857  156.8602 H   0  0  0  0  0  0  0  0  0  0  0  0
  151.7405  139.3110  155.7829 H   0  0  0  0  0  0  0  0  0  0  0  0
  151.9183  141.8665  155.5975 H   0  0  0  0  0  0  0  0  0  0  0  0
  150.4107  142.7407  155.5466 H   0  0  0  0  0  0  0  0  0  0  0  0
  149.8414  141.7519  157.7752 H   0  0  0  0  0  0  0  0  0  0  0  0
  151.3282  140.8336  157.7787 H   0  0  0  0  0  0  0  0  0  0  0  0
  152.5189  143.5927  159.6010 H   0  0  0  0  0  0  0  0  0  0  0  0
  152.7228  141.8664  159.3028 H   0  0  0  0  0  0  0  0  0  0  0  0
  151.1854  142.4864  159.9331 H   0  0  0  0  0  0  0  0  0  0  0  0
  1  2  1  0  0  0  0
  1 30  1  0  0  0  0
  1 31  1  0  0  0  0
  1 32  1  0  0  0  0
  2  3  1  0  0  0  0
  2 33  1  0  0  0  0
  2 34  1  0  0  0  0
  3 25  1  0  0  0  0
  3  4  1  0  0  0  0
  3 35  1  0  0  0  0
  4  5  1  0  0  0  0
  4 36  1  0  0  0  0
  4 37  1  0  0  0  0
  5  6  1  0  0  0  0
  5 23  1  0  0  0  0
  6 11  1  0  0  0  0
  6  7  2  0  0  0  0
  7  8  1  0  0  0  0
  8  9  2  0  0  0  0
  8 38  1  0  0  0  0
  9 10  1  0  0  0  0
 10 14  1  0  0  0  0
 10 11  2  0  0  0  0
 11 12  1  0  0  0  0
 12 13  2  0  0  0  0
 13 14  1  0  0  0  0
 13 39  1  0  0  0  0
 14 15  1  0  0  0  0
 15 16  1  0  0  0  0
 15 40  1  0  0  0  0
 15 41  1  0  0  0  0
 16 22  1  0  0  0  0
 16 17  1  0  0  0  0
 16 18  1  0  0  0  0
 17 42  1  0  0  0  0
 18 19  1  0  0  0  0
 18 43  1  0  0  0  0
 18 44  1  0  0  0  0
 19 20  1  0  0  0  0
 19 45  1  0  0  0  0
 19 46  1  0  0  0  0
 20 21  1  0  0  0  0
 21 22  1  0  0  0  0
 21 47  1  0  0  0  0
 21 48  1  0  0  0  0
 22 49  1  0  0  0  0
 22 50  1  0  0  0  0
 23 24  1  0  0  0  0
 23 51  1  0  0  0  0
 23 52  1  0  0  0  0
 24 25  1  0  0  0  0
 24 53  1  0  0  0  0
 24 54  1  0  0  0  0
 25 26  1  0  0  0  0
 26 27  1  0  0  0  0
 26 55  1  0  0  0  0
 26 56  1  0  0  0  0
 27 28  1  0  0  0  0
 27 57  1  0  0  0  0
 27 58  1  0  0  0  0
 28 29  1  0  0  0  0
 29 59  1  0  0  0  0
 29 60  1  0  0  0  0
 29 61  1  0  0  0  0
M  END
> <s_m_source_file>
AV-unprocessed.smi

> <i_m_source_file_index>
256

> <i_lp_mmshare_version>
43012

> <i_f3d_flags>
0

> <s_epik_input>
W0NIM11PW0NIMl1bQ0gyXU4xW0NIMl1bQ0gyXU4oW0NIMl1bQ0BIXTFbQ0gyXVtDSDNdKWMobltjSF1uMiljKGMyMyluW2NIXW4zW0NIMl1DNChbT0hdKVtDSDJdW0NIMl1PW0NIMl1bQ0gyXTQ=

> <s_epik_cmdline>
J2VwaWtfcHl0aG9uJywgJy1waCcsICc3LjAnLCAnLXRuJywgJzgnLCAnLW1hJywgJzIwMCcsICctbWV0YWxfYmluZGluZycsICctaW1hZScsICc8aW5maWxlLm1hZT4nLCAnLW9tYWUnLCAnPG91dGZpbGUubWFlPic=

> <r_lp_tautomer_probability>
1

> <r_epik_Ionization_Penalty>
0.676279

> <r_epik_Ionization_Penalty_Charging>
0

> <r_epik_Ionization_Penalty_Neutral>
0.676279

> <r_epik_State_Penalty>
0.6855

> <r_epik_Charging_Adjusted_Penalty>
0.6855

> <i_epik_Tot_Q>
0

> <i_epik_Tot_abs_Q>
0

> <r_epik_Metal_State_Penalty>
0.678557

> <b_epik_Metal_Only>
0

> <s_lp_Force_Field>
OPLS_2005

> <r_lp_Energy>
58.0034

> <b_lp_Chiralities_Consistent>
1

> <s_lp_Variant>
AV-unprocessed.smi:256-6

> <Gold.Version>
5.8.1

> <Gold.Id.Protein>
6NUR|6NUR_protein|mol2

> <Gold.PLP.Fitness>
45.7199

> <Gold.PLP.PLP>
-37.5157

> <Gold.PLP.part.hbond>
-1.9826

> <Gold.PLP.part.metal>
0.0000

> <Gold.PLP.part.buried>
-2.0172

> <Gold.PLP.part.nonpolar>
-33.1504

> <Gold.PLP.part.repulsive>
0.7534

> <Gold.PLP.ligand.clash>
0.0000

> <Gold.PLP.ligand.torsion>
1.0220

> <Gold.PLP.Chemscore.Hbond>
1.3586

> <Gold.PLP.Chemscore.CHOScore>
1.9253

> <Gold.PLP.Chemscore.Metal>
0.0000

> <Gold.Chemscore.Hbonds>
donor molecule, donor type, donor heavy atom, donor atom, acceptor molecule, acceptor atom, score
      L1  H    17    42       P1  7921  0.70
      P1  H  7989  7998       L1    25  0.26
      L1  C    13    39       P1 10171  0.42
      L1  C    13    39       P1 10175  0.76

> <Gold.PLP.Chemscore.Internal.Correction>
0.3965

> <Gold.Rescore>
     Score         DG    S(hbond)    S(metal)    S(lipo)     H(rot)  DE(clash)    DE(int)     intcor
      9.16     -13.47       0.99        0.00     102.72       2.87       0.88       3.44       ----

> <Gold.Chemscore.Fitness>
9.1602

> <Gold.Chemscore.DG>
-13.4737

> <Gold.Chemscore.ZeroCoef>
-5.4800

> <Gold.Chemscore.Hbond>
0.9948

> <Gold.Chemscore.Metal>
0.0000

> <Gold.Chemscore.Lipo>
102.7212

> <Gold.Chemscore.Internal_Hbond>
0.0000

> <Gold.Chemscore.DEClash>
0.8782

> <Gold.Chemscore.DEInternal>
3.4352

> <Gold.Chemscore.Rot>
2.8700

> <Gold.Chemscore.Internal.Correction>
   9.000000E+99

> <Gold.Chemscore.Hbonds>
donor molecule, donor type, donor heavy atom, donor atom, acceptor molecule, acceptor atom, score
      L1  H    17    42       P1  7921  0.67

> <Gold.Chemscore.Hbond.Weighted>
-3.3225

> <Gold.Chemscore.Metal.Weighted>
-0.0000

> <Gold.Chemscore.Lipo.Weighted>
-12.0184

> <Gold.Chemscore.Internal_Hbond.Weighted>
0.0000

> <Gold.Chemscore.DEClash.Weighted>
0.8782

> <Gold.Chemscore.DEInternal.Weighted>
3.4352

> <Gold.Chemscore.Rot.Weighted>
7.3472

> <Gold.Chemscore.Internal.Correction.Weighted>
   9.000000E+99

> <Gold.Protein.RotatedTorsions>
[ 6907 6896 6895 6894 ] final  -12.74 input  -60.11 | X-H torsion
[ 7974 7965 7964 7962 ] final  -24.29 input  175.53 | X-H torsion
[ 8008 7997 7996 7995 ] final  168.19 input   59.86 | X-H torsion
[ 10167 10162 10161 10158 ] final  121.76 input  -65.29 | X-H torsion
[ 10718 10713 10712 10709 ] final   51.45 input   66.30 | X-H torsion
[ 10763 10752 10751 10750 ] final   26.04 input  -60.55 | X-H torsion
[ 11005 11000 10999 10996 ] final  129.38 input  -57.11 | X-H torsion

> <Gold.Protein.ActiveResidues>
 VAL166  LYS551  ARG553  GLY616  TRP617  ASP618  TYR619  PRO620  LYS621  CYS622 
 ASP623  PHE694  ASN695  SER759  ASP760  ASP761  ALA762  ILE779  LEU786  VAL792 
 PHE793  MET794  SER795  GLU796  ALA797  LYS798  CYS799  TRP800  GLU811  SER814 

> <Gold.Protein.RotatedAtoms>
  151.3657  135.0913  159.9448 H   0  0  0  0  0  0  0  0  0  0  0  0  # atno 6907 bound_to 6896
  152.5149  133.9214  159.7546 H   0  0  0  0  0  0  0  0  0  0  0  0  # atno 6908 bound_to 6896
  150.9617  133.6383  159.2782 H   0  0  0  0  0  0  0  0  0  0  0  0  # atno 6909 bound_to 6896
  146.1563  140.4732  142.8590 H   0  0  0  0  0  0  0  0  0  0  0  0  # atno 7974 bound_to 7965
  156.1568  140.1597  156.8679 H   0  0  0  0  0  0  0  0  0  0  0  0  # atno 8008 bound_to 7997
  154.5123  140.0798  156.8049 H   0  0  0  0  0  0  0  0  0  0  0  0  # atno 8009 bound_to 7997
  155.3787  140.3404  155.4248 H   0  0  0  0  0  0  0  0  0  0  0  0  # atno 8010 bound_to 7997
  139.5900  144.7021  151.3315 H   0  0  0  0  0  0  0  0  0  0  0  0  # atno 10167 bound_to 10162
  157.4982  130.8420  149.8284 H   0  0  0  0  0  0  0  0  0  0  0  0  # atno 10718 bound_to 10713
  153.0650  135.6569  154.0376 H   0  0  0  0  0  0  0  0  0  0  0  0  # atno 10763 bound_to 10752
  154.0035  135.2935  155.3401 H   0  0  0  0  0  0  0  0  0  0  0  0  # atno 10764 bound_to 10752
  154.7004  135.5247  153.8587 H   0  0  0  0  0  0  0  0  0  0  0  0  # atno 10765 bound_to 10752
  139.9612  134.9602  156.9139 H   0  0  0  0  0  0  0  0  0  0  0  0  # atno 11005 bound_to 11000
  144.7968  140.6138  143.6504 LP  0  0  0  0  0  0  0  0  0  0  0  0  # atno 17320 bound_to 7965
  145.4699  139.1504  143.3820 LP  0  0  0  0  0  0  0  0  0  0  0  0  # atno 17321 bound_to 7965
  140.7164  143.7254  150.7664 LP  0  0  0  0  0  0  0  0  0  0  0  0  # atno 17342 bound_to 10162
  140.0807  143.4971  152.2531 LP  0  0  0  0  0  0  0  0  0  0  0  0  # atno 17343 bound_to 10162
  156.0213  130.3794  150.1953 LP  0  0  0  0  0  0  0  0  0  0  0  0  # atno 17370 bound_to 10713
  157.0143  130.9960  151.3357 LP  0  0  0  0  0  0  0  0  0  0  0  0  # atno 17371 bound_to 10713
  140.5496  134.0640  155.7365 LP  0  0  0  0  0  0  0  0  0  0  0  0  # atno 17394 bound_to 11000
  141.1289  133.9336  157.2577 LP  0  0  0  0  0  0  0  0  0  0  0  0  # atno 17395 bound_to 11000

$$$$
