AV-unprocessed.smi:256|AV-procd|sdf|1962|dock4
  -GOLD-   2262021113D 1   1.00000     0.00000
 Structure written by MMmdl.
 61 64  0  0  0  0  0  0  0  0  1 V2000
  150.3476  139.6026  155.2252 C   0  0  0  0  0  0  0  0  0  0  0  0
  149.7688  140.4863  156.3412 C   0  0  0  0  0  0  0  0  0  0  0  0
  149.8590  139.8847  157.7704 C   0  0  1  0  0  0  0  0  0  0  0  0
  148.9815  138.6067  157.8386 C   0  0  0  0  0  0  0  0  0  0  0  0
  149.0106  138.0052  159.1699 N   0  0  0  0  0  0  0  0  0  0  0  0
  148.1024  137.0377  159.4552 C   0  0  0  0  0  0  0  0  0  0  0  0
  148.0833  135.8856  158.7320 N   0  0  0  0  0  0  0  0  0  0  0  0
  147.1955  134.9267  159.0111 C   0  0  0  0  0  0  0  0  0  0  0  0
  146.2493  134.9138  159.9516 N   0  0  0  0  0  0  0  0  0  0  0  0
  146.2567  136.0698  160.6752 C   0  0  0  0  0  0  0  0  0  0  0  0
  147.1409  137.1710  160.4967 C   0  0  0  0  0  0  0  0  0  0  0  0
  146.8387  138.1720  161.4129 N   0  0  0  0  0  0  0  0  0  0  0  0
  145.8381  137.6881  162.0965 C   0  0  0  0  0  0  0  0  0  0  0  0
  145.4189  136.4337  161.7150 N   0  0  0  0  0  0  0  0  0  0  0  0
  144.3266  135.6670  162.2945 C   0  0  0  0  0  0  0  0  0  0  0  0
  142.9385  136.0060  161.6966 C   0  0  0  0  0  0  0  0  0  0  0  0
  142.7791  135.2349  160.5177 O   0  0  0  0  0  0  0  0  0  0  0  0
  141.7777  135.6739  162.6602 C   0  0  0  0  0  0  0  0  0  0  0  0
  140.4269  136.1983  162.1416 C   0  0  0  0  0  0  0  0  0  0  0  0
  140.5086  137.5952  161.8861 O   0  0  0  0  0  0  0  0  0  0  0  0
  141.4521  137.9146  160.8706 C   0  0  0  0  0  0  0  0  0  0  0  0
  142.8658  137.4977  161.3144 C   0  0  0  0  0  0  0  0  0  0  0  0
  150.3632  137.7282  159.6315 C   0  0  0  0  0  0  0  0  0  0  0  0
  151.1981  139.0115  159.5667 C   0  0  0  0  0  0  0  0  0  0  0  0
  151.2427  139.5980  158.2210 N   0  0  0  0  0  0  0  0  0  0  0  0
  152.1116  140.7856  158.2071 C   0  0  0  0  0  0  0  0  0  0  0  0
  151.6748  141.9502  159.1132 C   0  0  0  0  0  0  0  0  0  0  0  0
  152.2491  143.1587  158.6419 O   0  0  0  0  0  0  0  0  0  0  0  0
  152.0698  144.2343  159.5462 C   0  0  0  0  0  0  0  0  0  0  0  0
  150.1135  140.0216  154.2465 H   0  0  0  0  0  0  0  0  0  0  0  0
  149.9300  138.5960  155.2613 H   0  0  0  0  0  0  0  0  0  0  0  0
  151.4329  139.5252  155.2857 H   0  0  0  0  0  0  0  0  0  0  0  0
  150.2539  141.4628  156.3180 H   0  0  0  0  0  0  0  0  0  0  0  0
  148.7290  140.6539  156.0677 H   0  0  0  0  0  0  0  0  0  0  0  0
  149.4247  140.6145  158.4558 H   0  0  0  0  0  0  0  0  0  0  0  0
  147.9457  138.8494  157.6024 H   0  0  0  0  0  0  0  0  0  0  0  0
  149.3226  137.8773  157.1022 H   0  0  0  0  0  0  0  0  0  0  0  0
  147.2511  134.0436  158.3918 H   0  0  0  0  0  0  0  0  0  0  0  0
  145.3682  138.2400  162.8978 H   0  0  0  0  0  0  0  0  0  0  0  0
  144.5454  134.6077  162.1539 H   0  0  0  0  0  0  0  0  0  0  0  0
  144.3268  135.8349  163.3725 H   0  0  0  0  0  0  0  0  0  0  0  0
  142.2118  134.5043  160.7114 H   0  0  0  0  0  0  0  0  0  0  0  0
  141.7100  134.5994  162.8349 H   0  0  0  0  0  0  0  0  0  0  0  0
  141.9764  136.1303  163.6309 H   0  0  0  0  0  0  0  0  0  0  0  0
  140.1202  135.6691  161.2381 H   0  0  0  0  0  0  0  0  0  0  0  0
  139.6503  136.0232  162.8865 H   0  0  0  0  0  0  0  0  0  0  0  0
  141.1738  137.4298  159.9336 H   0  0  0  0  0  0  0  0  0  0  0  0
  141.4209  138.9892  160.6899 H   0  0  0  0  0  0  0  0  0  0  0  0
  143.1481  138.1049  162.1755 H   0  0  0  0  0  0  0  0  0  0  0  0
  143.5878  137.7277  160.5297 H   0  0  0  0  0  0  0  0  0  0  0  0
  150.3679  137.3449  160.6512 H   0  0  0  0  0  0  0  0  0  0  0  0
  150.8077  136.9569  159.0006 H   0  0  0  0  0  0  0  0  0  0  0  0
  150.8052  139.7403  160.2775 H   0  0  0  0  0  0  0  0  0  0  0  0
  152.2017  138.7573  159.9038 H   0  0  0  0  0  0  0  0  0  0  0  0
  153.1064  140.5179  158.5547 H   0  0  0  0  0  0  0  0  0  0  0  0
  152.2306  141.1460  157.1844 H   0  0  0  0  0  0  0  0  0  0  0  0
  150.5872  142.0314  159.0942 H   0  0  0  0  0  0  0  0  0  0  0  0
  151.9535  141.7698  160.1519 H   0  0  0  0  0  0  0  0  0  0  0  0
  152.5209  145.1373  159.1352 H   0  0  0  0  0  0  0  0  0  0  0  0
  152.5472  144.0260  160.5044 H   0  0  0  0  0  0  0  0  0  0  0  0
  151.0112  144.4342  159.7174 H   0  0  0  0  0  0  0  0  0  0  0  0
  1  2  1  0  0  0  0
  1 30  1  0  0  0  0
  1 31  1  0  0  0  0
  1 32  1  0  0  0  0
  2  3  1  0  0  0  0
  2 33  1  0  0  0  0
  2 34  1  0  0  0  0
  3 25  1  0  0  0  0
  3  4  1  0  0  0  0
  3 35  1  0  0  0  0
  4  5  1  0  0  0  0
  4 36  1  0  0  0  0
  4 37  1  0  0  0  0
  5  6  1  0  0  0  0
  5 23  1  0  0  0  0
  6 11  1  0  0  0  0
  6  7  2  0  0  0  0
  7  8  1  0  0  0  0
  8  9  2  0  0  0  0
  8 38  1  0  0  0  0
  9 10  1  0  0  0  0
 10 14  1  0  0  0  0
 10 11  2  0  0  0  0
 11 12  1  0  0  0  0
 12 13  2  0  0  0  0
 13 14  1  0  0  0  0
 13 39  1  0  0  0  0
 14 15  1  0  0  0  0
 15 16  1  0  0  0  0
 15 40  1  0  0  0  0
 15 41  1  0  0  0  0
 16 22  1  0  0  0  0
 16 17  1  0  0  0  0
 16 18  1  0  0  0  0
 17 42  1  0  0  0  0
 18 19  1  0  0  0  0
 18 43  1  0  0  0  0
 18 44  1  0  0  0  0
 19 20  1  0  0  0  0
 19 45  1  0  0  0  0
 19 46  1  0  0  0  0
 20 21  1  0  0  0  0
 21 22  1  0  0  0  0
 21 47  1  0  0  0  0
 21 48  1  0  0  0  0
 22 49  1  0  0  0  0
 22 50  1  0  0  0  0
 23 24  1  0  0  0  0
 23 51  1  0  0  0  0
 23 52  1  0  0  0  0
 24 25  1  0  0  0  0
 24 53  1  0  0  0  0
 24 54  1  0  0  0  0
 25 26  1  0  0  0  0
 26 27  1  0  0  0  0
 26 55  1  0  0  0  0
 26 56  1  0  0  0  0
 27 28  1  0  0  0  0
 27 57  1  0  0  0  0
 27 58  1  0  0  0  0
 28 29  1  0  0  0  0
 29 59  1  0  0  0  0
 29 60  1  0  0  0  0
 29 61  1  0  0  0  0
M  END
> <s_m_source_file>
AV-unprocessed.smi

> <i_m_source_file_index>
256

> <i_lp_mmshare_version>
43012

> <i_f3d_flags>
0

> <s_epik_input>
W0NIM11PW0NIMl1bQ0gyXU4xW0NIMl1bQ0gyXU4oW0NIMl1bQ0BIXTFbQ0gyXVtDSDNdKWMobltjSF1uMiljKGMyMyluW2NIXW4zW0NIMl1DNChbT0hdKVtDSDJdW0NIMl1PW0NIMl1bQ0gyXTQ=

> <s_epik_cmdline>
J2VwaWtfcHl0aG9uJywgJy1waCcsICc3LjAnLCAnLXRuJywgJzgnLCAnLW1hJywgJzIwMCcsICctbWV0YWxfYmluZGluZycsICctaW1hZScsICc8aW5maWxlLm1hZT4nLCAnLW9tYWUnLCAnPG91dGZpbGUubWFlPic=

> <r_lp_tautomer_probability>
1

> <r_epik_Ionization_Penalty>
0.676279

> <r_epik_Ionization_Penalty_Charging>
0

> <r_epik_Ionization_Penalty_Neutral>
0.676279

> <r_epik_State_Penalty>
0.6855

> <r_epik_Charging_Adjusted_Penalty>
0.6855

> <i_epik_Tot_Q>
0

> <i_epik_Tot_abs_Q>
0

> <r_epik_Metal_State_Penalty>
0.678557

> <b_epik_Metal_Only>
0

> <s_lp_Force_Field>
OPLS_2005

> <r_lp_Energy>
58.0034

> <b_lp_Chiralities_Consistent>
1

> <s_lp_Variant>
AV-unprocessed.smi:256-6

> <Gold.Version>
5.8.1

> <Gold.Id.Protein>
6NUR|6NUR_protein|mol2

> <Gold.PLP.Fitness>
47.2961

> <Gold.PLP.PLP>
-44.2321

> <Gold.PLP.part.hbond>
-1.8616

> <Gold.PLP.part.metal>
0.0000

> <Gold.PLP.part.buried>
-7.3053

> <Gold.PLP.part.nonpolar>
-35.3608

> <Gold.PLP.part.repulsive>
0.1025

> <Gold.PLP.ligand.clash>
0.0000

> <Gold.PLP.ligand.torsion>
1.1177

> <Gold.PLP.Chemscore.Hbond>
1.6313

> <Gold.PLP.Chemscore.CHOScore>
0.0000

> <Gold.PLP.Chemscore.Metal>
0.0000

> <Gold.Chemscore.Hbonds>
donor molecule, donor type, donor heavy atom, donor atom, acceptor molecule, acceptor atom, score
      P1  H  6931  6943       L1    12  0.07

> <Gold.PLP.Chemscore.Internal.Correction>
0.4057

> <Gold.Rescore>
     Score         DG    S(hbond)    S(metal)    S(lipo)     H(rot)  DE(clash)    DE(int)     intcor
     11.88     -13.89       1.56        0.00      90.30       2.87       0.03       1.99       ----

> <Gold.Chemscore.Fitness>
11.8760

> <Gold.Chemscore.DG>
-13.8946

> <Gold.Chemscore.ZeroCoef>
-5.4800

> <Gold.Chemscore.Hbond>
1.5560

> <Gold.Chemscore.Metal>
0.0000

> <Gold.Chemscore.Lipo>
90.2966

> <Gold.Chemscore.Internal_Hbond>
0.0000

> <Gold.Chemscore.DEClash>
0.0310

> <Gold.Chemscore.DEInternal>
1.9876

> <Gold.Chemscore.Rot>
2.8700

> <Gold.Chemscore.Internal.Correction>
   9.000000E+99

> <Gold.Chemscore.Hbond.Weighted>
-5.1971

> <Gold.Chemscore.Metal.Weighted>
-0.0000

> <Gold.Chemscore.Lipo.Weighted>
-10.5647

> <Gold.Chemscore.Internal_Hbond.Weighted>
0.0000

> <Gold.Chemscore.DEClash.Weighted>
0.0310

> <Gold.Chemscore.DEInternal.Weighted>
1.9876

> <Gold.Chemscore.Rot.Weighted>
7.3472

> <Gold.Chemscore.Internal.Correction.Weighted>
   9.000000E+99

> <Gold.Protein.RotatedTorsions>
[ 6907 6896 6895 6894 ] final  156.81 input  -60.11 | X-H torsion
[ 7974 7965 7964 7962 ] final  142.60 input  175.53 | X-H torsion
[ 8008 7997 7996 7995 ] final -122.45 input   59.86 | X-H torsion
[ 10167 10162 10161 10158 ] final -121.16 input  -65.29 | X-H torsion
[ 10718 10713 10712 10709 ] final -162.77 input   66.30 | X-H torsion
[ 10763 10752 10751 10750 ] final  -57.09 input  -60.55 | X-H torsion
[ 11005 11000 10999 10996 ] final   78.71 input  -57.11 | X-H torsion

> <Gold.Protein.ActiveResidues>
 VAL166  LYS551  ARG553  GLY616  TRP617  ASP618  TYR619  PRO620  LYS621  CYS622 
 ASP623  PHE694  ASN695  SER759  ASP760  ASP761  ALA762  ILE779  LEU786  VAL792 
 PHE793  MET794  SER795  GLU796  ALA797  LYS798  CYS799  TRP800  GLU811  SER814 

> <Gold.Protein.RotatedAtoms>
  152.0243  133.3911  159.4270 H   0  0  0  0  0  0  0  0  0  0  0  0  # atno 6907 bound_to 6896
  150.6887  134.3591  159.4952 H   0  0  0  0  0  0  0  0  0  0  0  0  # atno 6908 bound_to 6896
  152.1369  134.9092  160.0606 H   0  0  0  0  0  0  0  0  0  0  0  0  # atno 6909 bound_to 6896
  144.8993  139.5446  143.5761 H   0  0  0  0  0  0  0  0  0  0  0  0  # atno 7974 bound_to 7965
  155.1644  140.0406  157.2849 H   0  0  0  0  0  0  0  0  0  0  0  0  # atno 8008 bound_to 7997
  154.6313  140.2525  155.7403 H   0  0  0  0  0  0  0  0  0  0  0  0  # atno 8009 bound_to 7997
  156.2486  140.2874  156.0666 H   0  0  0  0  0  0  0  0  0  0  0  0  # atno 8010 bound_to 7997
  140.0280  143.5276  152.2189 H   0  0  0  0  0  0  0  0  0  0  0  0  # atno 10167 bound_to 10162
  156.6151  130.8867  151.2945 H   0  0  0  0  0  0  0  0  0  0  0  0  # atno 10718 bound_to 10713
  154.2170  135.6384  153.5133 H   0  0  0  0  0  0  0  0  0  0  0  0  # atno 10763 bound_to 10752
  152.9977  135.5487  154.6154 H   0  0  0  0  0  0  0  0  0  0  0  0  # atno 10764 bound_to 10752
  154.5605  135.2908  155.0897 H   0  0  0  0  0  0  0  0  0  0  0  0  # atno 10765 bound_to 10752
  139.9202  134.7785  156.1684 H   0  0  0  0  0  0  0  0  0  0  0  0  # atno 11005 bound_to 11000
  146.3099  139.7710  142.9027 LP  0  0  0  0  0  0  0  0  0  0  0  0  # atno 17320 bound_to 7965
  145.3644  141.0332  143.3266 LP  0  0  0  0  0  0  0  0  0  0  0  0  # atno 17321 bound_to 7965
  139.6095  144.7605  151.2985 LP  0  0  0  0  0  0  0  0  0  0  0  0  # atno 17342 bound_to 10162
  140.7314  143.6852  150.7967 LP  0  0  0  0  0  0  0  0  0  0  0  0  # atno 17343 bound_to 10162
  157.7243  130.9601  150.1569 LP  0  0  0  0  0  0  0  0  0  0  0  0  # atno 17370 bound_to 10713
  156.2358  130.3686  149.8393 LP  0  0  0  0  0  0  0  0  0  0  0  0  # atno 17371 bound_to 10713
  141.0715  133.6794  156.2150 LP  0  0  0  0  0  0  0  0  0  0  0  0  # atno 17394 bound_to 11000
  140.6498  134.5078  157.5576 LP  0  0  0  0  0  0  0  0  0  0  0  0  # atno 17395 bound_to 11000

$$$$
