AV-unprocessed.smi:703|AV-procd|sdf|3435|dock4
  -GOLD-   22720 0423D 1   1.00000     0.00000
 Structure written by MMmdl.
 37 38  0  0  0  0  0  0  0  0  3 V2000
  146.2022  133.6653  151.9671 C   0  0  0  0  0  0  0  0  0  0  0  0
  147.3541  133.0515  152.7737 C   0  0  0  0  0  0  0  0  0  0  0  0
  148.1110  134.0749  153.5344 N   0  3  2  0  0  0  0  0  0  0  0  0
  149.3227  133.5754  154.2279 C   0  0  0  0  0  0  0  0  0  0  0  0
  149.5009  134.4737  155.4610 C   0  0  1  0  0  0  0  0  0  0  0  0
  150.3479  135.7229  155.1131 C   0  0  0  0  0  0  0  0  0  0  0  0
  148.0352  134.7347  155.8627 C   0  0  1  0  0  0  0  0  0  0  0  0
  147.8718  135.9209  156.6901 N   0  5  0  0  0  0  0  0  0  0  0  0
  148.4755  135.9469  158.1962 S   0  0  0  0  0  0  0  0  0  0  0  0
  149.2554  134.7394  158.5151 O   0  0  0  0  0  0  0  0  0  0  0  0
  149.0863  137.2455  158.5218 O   0  0  0  0  0  0  0  0  0  0  0  0
  146.9240  135.8495  159.1924 C   0  0  0  0  0  0  0  0  0  0  0  0
  147.2231  136.0598  160.6520 C   0  0  0  0  0  0  0  0  0  0  0  0
  147.1000  135.1306  161.7227 C   0  0  0  0  0  0  0  0  0  0  0  0
  147.5040  135.8444  162.8134 C   0  0  0  0  0  0  0  0  0  0  0  0
  147.8399  137.1091  162.4558 O   0  0  0  0  0  0  0  0  0  0  0  0
  147.6537  137.2385  161.0748 N   0  0  0  0  0  0  0  0  0  0  0  0
  147.3001  134.8328  154.5176 C   0  0  0  0  0  0  0  0  0  0  0  0
  145.6313  132.8881  151.4587 H   0  0  0  0  0  0  0  0  0  0  0  0
  146.5663  134.3554  151.2057 H   0  0  0  0  0  0  0  0  0  0  0  0
  145.5153  134.2103  152.6153 H   0  0  0  0  0  0  0  0  0  0  0  0
  146.9388  132.3291  153.4775 H   0  0  0  0  0  0  0  0  0  0  0  0
  148.0292  132.4993  152.1183 H   0  0  0  0  0  0  0  0  0  0  0  0
  149.1815  132.5345  154.5323 H   0  0  0  0  0  0  0  0  0  0  0  0
  150.1889  133.5944  153.5651 H   0  0  0  0  0  0  0  0  0  0  0  0
  150.0159  133.9274  156.2525 H   0  0  0  0  0  0  0  0  0  0  0  0
  149.8968  136.3318  154.3272 H   0  0  0  0  0  0  0  0  0  0  0  0
  151.3365  135.4270  154.7616 H   0  0  0  0  0  0  0  0  0  0  0  0
  150.5070  136.3637  155.9821 H   0  0  0  0  0  0  0  0  0  0  0  0
  147.6764  133.8400  156.3739 H   0  0  0  0  0  0  0  0  0  0  0  0
  146.2460  136.6188  158.8223 H   0  0  0  0  0  0  0  0  0  0  0  0
  146.4511  134.8844  159.0125 H   0  0  0  0  0  0  0  0  0  0  0  0
  146.7742  134.1015  161.6905 H   0  0  0  0  0  0  0  0  0  0  0  0
  147.6026  135.6055  163.8620 H   0  0  0  0  0  0  0  0  0  0  0  0
  147.2389  135.8653  154.1696 H   0  0  0  0  0  0  0  0  0  0  0  0
  146.2800  134.4546  154.6009 H   0  0  0  0  0  0  0  0  0  0  0  0
  148.4274  134.7632  152.8665 H   0  0  0  0  0  0  0  0  0  0  0  0
  1  2  1  0  0  0  0
  1 19  1  0  0  0  0
  1 20  1  0  0  0  0
  1 21  1  0  0  0  0
  2  3  1  0  0  0  0
  2 22  1  0  0  0  0
  2 23  1  0  0  0  0
  3 18  1  0  0  0  0
  3  4  1  0  0  0  0
  3 37  1  0  0  0  0
  4  5  1  0  0  0  0
  4 24  1  0  0  0  0
  4 25  1  0  0  0  0
  5  6  1  0  0  0  0
  5  7  1  0  0  0  0
  5 26  1  0  0  0  0
  6 27  1  0  0  0  0
  6 28  1  0  0  0  0
  6 29  1  0  0  0  0
  7  8  1  0  0  0  0
  7 18  1  0  0  0  0
  7 30  1  0  0  0  0
  8  9  1  0  0  0  0
  9 10  2  0  0  0  0
  9 11  2  0  0  0  0
  9 12  1  0  0  0  0
 12 13  1  0  0  0  0
 12 31  1  0  0  0  0
 12 32  1  0  0  0  0
 13 17  2  0  0  0  0
 13 14  1  0  0  0  0
 14 15  2  0  0  0  0
 14 33  1  0  0  0  0
 15 16  1  0  0  0  0
 15 34  1  0  0  0  0
 16 17  1  0  0  0  0
 18 35  1  0  0  0  0
 18 36  1  0  0  0  0
M  CHG  1   3   1
M  CHG  1   8  -1
M  END
> <s_m_source_file>
AV-unprocessed.smi

> <i_m_source_file_index>
703

> <i_lp_mmshare_version>
43012

> <i_f3d_flags>
0

> <s_epik_input>
W0NIM11bQ0gyXU4xW0NIMl1bQ0BASF0oW0NIM10pW0NASF0oW0NIMl0xKVtOSF1TKD1PKSg9TylbQ0gyXWMyW2NIXVtjSF1vbjI=

> <s_epik_cmdline>
J2VwaWtfcHl0aG9uJywgJy1waCcsICc3LjAnLCAnLXRuJywgJzgnLCAnLW1hJywgJzIwMCcsICctbWV0YWxfYmluZGluZycsICctaW1hZScsICc8aW5maWxlLm1hZT4nLCAnLW9tYWUnLCAnPG91dGZpbGUubWFlPic=

> <r_epik_Ionization_Penalty>
3.62494

> <r_epik_Ionization_Penalty_Charging>
3.62494

> <r_epik_Ionization_Penalty_Neutral>
2.0321e-10

> <r_epik_State_Penalty>
3.62558

> <r_epik_Charging_Adjusted_Penalty>
7.25052

> <i_epik_Tot_Q>
0

> <i_epik_Tot_abs_Q>
2

> <r_epik_Metal_State_Penalty>
0.530836

> <b_epik_Metal_Only>
1

> <s_lp_Force_Field>
OPLS_2005

> <r_lp_Energy>
19.7921

> <b_lp_Chiralities_Consistent>
1

> <s_lp_Variant>
AV-unprocessed.smi:703-10

> <Gold.Version>
5.8.1

> <Gold.Id.Protein>
6NUR|6NUR_protein|mol2

> <Gold.PLP.Fitness>
41.1967

> <Gold.PLP.PLP>
-29.6242

> <Gold.PLP.part.hbond>
-5.5333

> <Gold.PLP.part.metal>
0.0000

> <Gold.PLP.part.buried>
-5.0744

> <Gold.PLP.part.nonpolar>
-19.6421

> <Gold.PLP.part.repulsive>
0.0000

> <Gold.PLP.ligand.clash>
0.0000

> <Gold.PLP.ligand.torsion>
0.6848

> <Gold.PLP.Chemscore.Hbond>
3.9760

> <Gold.PLP.Chemscore.CHOScore>
0.0000

> <Gold.PLP.Chemscore.Metal>
0.0000

> <Gold.Chemscore.Hbonds>
donor molecule, donor type, donor heavy atom, donor atom, acceptor molecule, acceptor atom, score
      L1  H     3    37       P1  7948  2.00
      P1  H  6896  6908       L1    10  1.00
      P1  H  6934  6947       L1    17  0.90

> <Gold.PLP.Chemscore.Internal.Correction>
1.0142

> <Gold.Rescore>
     Score         DG    S(hbond)    S(metal)    S(lipo)     H(rot)  DE(clash)    DE(int)     intcor
     15.43     -17.27       2.85        0.00      55.20       1.63       0.00       1.84       ----

> <Gold.Chemscore.Fitness>
15.4293

> <Gold.Chemscore.DG>
-17.2665

> <Gold.Chemscore.ZeroCoef>
-5.4800

> <Gold.Chemscore.Hbond>
2.8475

> <Gold.Chemscore.Metal>
0.0000

> <Gold.Chemscore.Lipo>
55.1997

> <Gold.Chemscore.Internal_Hbond>
0.0000

> <Gold.Chemscore.DEClash>
0.0000

> <Gold.Chemscore.DEInternal>
1.8372

> <Gold.Chemscore.Rot>
1.6338

> <Gold.Chemscore.Internal.Correction>
   9.000000E+99

> <Gold.Chemscore.Hbonds>
donor molecule, donor type, donor heavy atom, donor atom, acceptor molecule, acceptor atom, score
      L1  H     3    37       P1  7948  0.45
      P1  H  6896  6908       L1    10  1.00
      P1  H  6934  6947       L1    17  0.26

> <Gold.Chemscore.Hbond.Weighted>
-9.5107

> <Gold.Chemscore.Metal.Weighted>
-0.0000

> <Gold.Chemscore.Lipo.Weighted>
-6.4584

> <Gold.Chemscore.Internal_Hbond.Weighted>
0.0000

> <Gold.Chemscore.DEClash.Weighted>
0.0000

> <Gold.Chemscore.DEInternal.Weighted>
1.8372

> <Gold.Chemscore.Rot.Weighted>
4.1825

> <Gold.Chemscore.Internal.Correction.Weighted>
   9.000000E+99

> <Gold.Protein.RotatedTorsions>
[ 6907 6896 6895 6894 ] final  155.62 input  -60.11 | X-H torsion
[ 7974 7965 7964 7962 ] final -157.37 input  175.53 | X-H torsion
[ 8008 7997 7996 7995 ] final   65.90 input   59.86 | X-H torsion
[ 10167 10162 10161 10158 ] final  -82.21 input  -65.29 | X-H torsion
[ 10718 10713 10712 10709 ] final  119.64 input   66.30 | X-H torsion
[ 10763 10752 10751 10750 ] final  -85.93 input  -60.55 | X-H torsion
[ 11005 11000 10999 10996 ] final  -57.45 input  -57.11 | X-H torsion

> <Gold.Protein.ActiveResidues>
 VAL166  LYS551  ARG553  GLY616  TRP617  ASP618  TYR619  PRO620  LYS621  CYS622 
 ASP623  PHE694  ASN695  SER759  ASP760  ASP761  ALA762  ILE779  LEU786  VAL792 
 PHE793  MET794  SER795  GLU796  ALA797  LYS798  CYS799  TRP800  GLU811  SER814 

> <Gold.Protein.RotatedAtoms>
  152.0415  133.3979  159.4338 H   0  0  0  0  0  0  0  0  0  0  0  0  # atno 6907 bound_to 6896
  150.6875  134.3410  159.4877 H   0  0  0  0  0  0  0  0  0  0  0  0  # atno 6908 bound_to 6896
  152.1209  134.9206  160.0613 H   0  0  0  0  0  0  0  0  0  0  0  0  # atno 6909 bound_to 6896
  144.7551  140.3978  143.6018 H   0  0  0  0  0  0  0  0  0  0  0  0  # atno 7974 bound_to 7965
  155.6690  140.3497  155.4811 H   0  0  0  0  0  0  0  0  0  0  0  0  # atno 8008 bound_to 7997
  155.9704  140.1154  157.0840 H   0  0  0  0  0  0  0  0  0  0  0  0  # atno 8009 bound_to 7997
  154.4165  140.1158  156.5285 H   0  0  0  0  0  0  0  0  0  0  0  0  # atno 8010 bound_to 7997
  140.4341  143.2538  151.8718 H   0  0  0  0  0  0  0  0  0  0  0  0  # atno 10167 bound_to 10162
  157.5947  131.1059  150.7924 H   0  0  0  0  0  0  0  0  0  0  0  0  # atno 10718 bound_to 10713
  154.6167  135.5467  153.7531 H   0  0  0  0  0  0  0  0  0  0  0  0  # atno 10763 bound_to 10752
  153.0219  135.6403  154.1500 H   0  0  0  0  0  0  0  0  0  0  0  0  # atno 10764 bound_to 10752
  154.1436  135.2907  155.3134 H   0  0  0  0  0  0  0  0  0  0  0  0  # atno 10765 bound_to 10752
  141.1165  133.6610  156.4771 H   0  0  0  0  0  0  0  0  0  0  0  0  # atno 11005 bound_to 11000
  145.6807  139.1618  143.2702 LP  0  0  0  0  0  0  0  0  0  0  0  0  # atno 17320 bound_to 7965
  146.1551  140.6869  142.9303 LP  0  0  0  0  0  0  0  0  0  0  0  0  # atno 17321 bound_to 7965
  139.4786  144.5302  151.8677 LP  0  0  0  0  0  0  0  0  0  0  0  0  # atno 17342 bound_to 10162
  140.4394  144.2007  150.5890 LP  0  0  0  0  0  0  0  0  0  0  0  0  # atno 17343 bound_to 10162
  156.8338  130.5024  149.5328 LP  0  0  0  0  0  0  0  0  0  0  0  0  # atno 17370 bound_to 10713
  156.1008  130.5967  150.9890 LP  0  0  0  0  0  0  0  0  0  0  0  0  # atno 17371 bound_to 10713
  140.4631  134.6823  157.5094 LP  0  0  0  0  0  0  0  0  0  0  0  0  # atno 17394 bound_to 11000
  140.0091  134.6718  155.9409 LP  0  0  0  0  0  0  0  0  0  0  0  0  # atno 17395 bound_to 11000

$$$$
