AV-unprocessed.smi:3018|AV-procd|sdf|11482|dock10
  -GOLD-   2272016423D 1   1.00000     0.00000
 Structure written by MMmdl.
 44 45  0  0  0  0  0  0  0  0  2 V2000
  148.8618  141.2477  154.8780 C   0  0  0  0  0  0  0  0  0  0  0  0
  150.1408  140.6105  155.4357 C   0  0  0  0  0  0  0  0  0  0  0  0
  150.2767  140.7863  156.9593 C   0  0  1  0  0  0  0  0  0  0  0  0
  150.1787  142.1804  157.2456 O   0  0  0  0  0  0  0  0  0  0  0  0
  151.3174  142.7903  157.8476 C   0  0  0  0  0  0  0  0  0  0  0  0
  151.6788  141.9604  159.0915 C   0  0  0  0  0  0  0  0  0  0  0  0
  152.8483  142.5898  159.8654 C   0  0  0  0  0  0  0  0  0  0  0  0
  152.5385  144.0445  160.2530 C   0  0  0  0  0  0  0  0  0  0  0  0
  152.1660  144.8815  159.0190 C   0  0  0  0  0  0  0  0  0  0  0  0
  150.9996  144.2469  158.2439 C   0  0  0  0  0  0  0  0  0  0  0  0
  149.1707  140.0275  157.7090 C   0  0  0  0  0  0  0  0  0  0  0  0
  148.2718  140.6455  158.2800 O   0  0  0  0  0  0  0  0  0  0  0  0
  149.2599  138.6885  157.7092 N   0  0  0  0  0  0  0  0  0  0  0  0
  148.3217  137.7855  158.3649 C   0  0  0  0  0  0  0  0  0  0  0  0
  149.0476  136.8149  159.3193 C   0  0  0  0  0  0  0  0  0  0  0  0
  148.2555  136.4073  160.5539 C   0  0  0  0  0  0  0  0  0  0  0  0
  147.6551  137.1698  161.3927 N   0  0  0  0  0  0  0  0  0  0  0  0
  147.0723  136.2796  162.3525 N   0  5  0  0  0  0  0  0  0  0  0  0
  147.3987  135.0199  161.9744 C   0  0  0  0  0  0  0  0  0  0  0  0
  147.1070  133.9549  162.5139 O   0  0  0  0  0  0  0  0  0  0  0  0
  148.1279  135.0823  160.8654 N   0  0  0  0  0  0  0  0  0  0  0  0
  148.5195  134.3092  160.3486 H   0  0  0  0  0  0  0  0  0  0  0  0
  148.8017  141.1157  153.7975 H   0  0  0  0  0  0  0  0  0  0  0  0
  148.8324  142.3178  155.0848 H   0  0  0  0  0  0  0  0  0  0  0  0
  147.9714  140.7970  155.3172 H   0  0  0  0  0  0  0  0  0  0  0  0
  150.1561  139.5504  155.1780 H   0  0  0  0  0  0  0  0  0  0  0  0
  151.0000  141.0600  154.9354 H   0  0  0  0  0  0  0  0  0  0  0  0
  151.2505  140.4008  157.2642 H   0  0  0  0  0  0  0  0  0  0  0  0
  152.1733  142.7750  157.1716 H   0  0  0  0  0  0  0  0  0  0  0  0
  150.8100  141.8816  159.7464 H   0  0  0  0  0  0  0  0  0  0  0  0
  151.9359  140.9426  158.7959 H   0  0  0  0  0  0  0  0  0  0  0  0
  153.0605  142.0037  160.7599 H   0  0  0  0  0  0  0  0  0  0  0  0
  153.7509  142.5581  159.2535 H   0  0  0  0  0  0  0  0  0  0  0  0
  151.7157  144.0639  160.9689 H   0  0  0  0  0  0  0  0  0  0  0  0
  153.3979  144.4867  160.7577 H   0  0  0  0  0  0  0  0  0  0  0  0
  151.9023  145.8946  159.3236 H   0  0  0  0  0  0  0  0  0  0  0  0
  153.0331  144.9712  158.3634 H   0  0  0  0  0  0  0  0  0  0  0  0
  150.7850  144.8485  157.3613 H   0  0  0  0  0  0  0  0  0  0  0  0
  150.0987  144.2701  158.8584 H   0  0  0  0  0  0  0  0  0  0  0  0
  150.0338  138.2646  157.2186 H   0  0  0  0  0  0  0  0  0  0  0  0
  147.6092  138.3965  158.9204 H   0  0  0  0  0  0  0  0  0  0  0  0
  147.7483  137.2391  157.6137 H   0  0  0  0  0  0  0  0  0  0  0  0
  149.3259  135.9074  158.7827 H   0  0  0  0  0  0  0  0  0  0  0  0
  149.9803  137.2707  159.6535 H   0  0  0  0  0  0  0  0  0  0  0  0
  1  2  1  0  0  0  0
  1 23  1  0  0  0  0
  1 24  1  0  0  0  0
  1 25  1  0  0  0  0
  2  3  1  0  0  0  0
  2 26  1  0  0  0  0
  2 27  1  0  0  0  0
  3  4  1  0  0  0  0
  3 11  1  0  0  0  0
  3 28  1  0  0  0  0
  4  5  1  0  0  0  0
  5 10  1  0  0  0  0
  5  6  1  0  0  0  0
  5 29  1  0  0  0  0
  6  7  1  0  0  0  0
  6 30  1  0  0  0  0
  6 31  1  0  0  0  0
  7  8  1  0  0  0  0
  7 32  1  0  0  0  0
  7 33  1  0  0  0  0
  8  9  1  0  0  0  0
  8 34  1  0  0  0  0
  8 35  1  0  0  0  0
  9 10  1  0  0  0  0
  9 36  1  0  0  0  0
  9 37  1  0  0  0  0
 10 38  1  0  0  0  0
 10 39  1  0  0  0  0
 11 12  2  0  0  0  0
 11 13  1  0  0  0  0
 13 14  1  0  0  0  0
 13 40  1  0  0  0  0
 14 15  1  0  0  0  0
 14 41  1  0  0  0  0
 14 42  1  0  0  0  0
 15 16  1  0  0  0  0
 15 43  1  0  0  0  0
 15 44  1  0  0  0  0
 16 21  1  0  0  0  0
 16 17  2  0  0  0  0
 17 18  1  0  0  0  0
 18 19  1  0  0  0  0
 19 20  2  0  0  0  0
 19 21  1  0  0  0  0
 21 22  1  0  0  0  0
M  CHG  1  18  -1
M  END
> <s_m_source_file>
AV-unprocessed.smi

> <i_m_source_file_index>
3018

> <i_lp_mmshare_version>
43012

> <i_f3d_flags>
0

> <s_epik_input>
W0NIMl0xW0NIMl1bQ0gyXVtDSDJdW0NIMl1bQ0hdMU9bQ0BASF0oW0NIMl1bQ0gzXSlDKD1PKVtOSF1bQ0gyXVtDSDJdYzJuW25IXWMoPU8pW25IXTI=

> <s_epik_cmdline>
J2VwaWtfcHl0aG9uJywgJy1waCcsICc3LjAnLCAnLXRuJywgJzgnLCAnLW1hJywgJzIwMCcsICctbWV0YWxfYmluZGluZycsICctaW1hZScsICc8aW5maWxlLm1hZT4nLCAnLW9tYWUnLCAnPG91dGZpbGUubWFlPic=

> <r_lp_tautomer_probability>
1

> <r_epik_Ionization_Penalty>
14.1812

> <r_epik_Ionization_Penalty_Charging>
13.7758

> <r_epik_Ionization_Penalty_Neutral>
0.405355

> <r_epik_State_Penalty>
4.92413

> <r_epik_Charging_Adjusted_Penalty>
18.7

> <i_epik_Tot_Q>
-1

> <i_epik_Tot_abs_Q>
1

> <r_epik_Metal_State_Penalty>
1.32654

> <b_epik_Metal_Only>
1

> <s_lp_Force_Field>
OPLS_2005

> <r_lp_Energy>
19.6137

> <b_lp_Chiralities_Consistent>
1

> <s_lp_Variant>
AV-unprocessed.smi:3018-4

> <Gold.Version>
5.8.1

> <Gold.Id.Protein>
6NUR|6NUR_protein|mol2

> <Gold.PLP.Fitness>
43.6306

> <Gold.PLP.PLP>
-40.4716

> <Gold.PLP.part.hbond>
-3.0000

> <Gold.PLP.part.metal>
0.0000

> <Gold.PLP.part.buried>
-6.9615

> <Gold.PLP.part.nonpolar>
-31.3291

> <Gold.PLP.part.repulsive>
0.3127

> <Gold.PLP.ligand.clash>
0.0000

> <Gold.PLP.ligand.torsion>
1.2962

> <Gold.PLP.Chemscore.Hbond>
1.8560

> <Gold.PLP.Chemscore.CHOScore>
0.0000

> <Gold.PLP.Chemscore.Metal>
0.0000

> <Gold.Chemscore.Hbonds>
donor molecule, donor type, donor heavy atom, donor atom, acceptor molecule, acceptor atom, score
      P1  H  6931  6943       L1    17  0.99
      P1  H  6934  6947       L1    17  0.83

> <Gold.PLP.Chemscore.Internal.Correction>
0.1835

> <Gold.Rescore>
     Score         DG    S(hbond)    S(metal)    S(lipo)     H(rot)  DE(clash)    DE(int)     intcor
     13.09     -14.20       1.66        0.00      92.27       2.98       0.01       1.10       ----

> <Gold.Chemscore.Fitness>
13.0885

> <Gold.Chemscore.DG>
-14.2044

> <Gold.Chemscore.ZeroCoef>
-5.4800

> <Gold.Chemscore.Hbond>
1.6617

> <Gold.Chemscore.Metal>
0.0000

> <Gold.Chemscore.Lipo>
92.2746

> <Gold.Chemscore.Internal_Hbond>
0.0000

> <Gold.Chemscore.DEClash>
0.0112

> <Gold.Chemscore.DEInternal>
1.1046

> <Gold.Chemscore.Rot>
2.9772

> <Gold.Chemscore.Internal.Correction>
   9.000000E+99

> <Gold.Chemscore.Hbonds>
donor molecule, donor type, donor heavy atom, donor atom, acceptor molecule, acceptor atom, score
      P1  H  6931  6943       L1    17  0.27
      P1  H  6934  6947       L1    17  0.79

> <Gold.Chemscore.Hbond.Weighted>
-5.5499

> <Gold.Chemscore.Metal.Weighted>
-0.0000

> <Gold.Chemscore.Lipo.Weighted>
-10.7961

> <Gold.Chemscore.Internal_Hbond.Weighted>
0.0000

> <Gold.Chemscore.DEClash.Weighted>
0.0112

> <Gold.Chemscore.DEInternal.Weighted>
1.1046

> <Gold.Chemscore.Rot.Weighted>
7.6216

> <Gold.Chemscore.Internal.Correction.Weighted>
   9.000000E+99

> <Gold.Protein.RotatedTorsions>
[ 6907 6896 6895 6894 ] final  -54.21 input  -60.11 | X-H torsion
[ 7974 7965 7964 7962 ] final   76.21 input  175.53 | X-H torsion
[ 8008 7997 7996 7995 ] final   75.16 input   59.86 | X-H torsion
[ 10167 10162 10161 10158 ] final -110.46 input  -65.29 | X-H torsion
[ 10718 10713 10712 10709 ] final -169.12 input   66.30 | X-H torsion
[ 10763 10752 10751 10750 ] final  177.93 input  -60.55 | X-H torsion
[ 11005 11000 10999 10996 ] final -133.32 input  -57.11 | X-H torsion

> <Gold.Protein.ActiveResidues>
 VAL166  LYS551  ARG553  GLY616  TRP617  ASP618  TYR619  PRO620  LYS621  CYS622 
 ASP623  PHE694  ASN695  SER759  ASP760  ASP761  ALA762  ILE779  LEU786  VAL792 
 PHE793  MET794  SER795  GLU796  ALA797  LYS798  CYS799  TRP800  GLU811  SER814 

> <Gold.Protein.RotatedAtoms>
  150.8358  134.7630  159.6890 H   0  0  0  0  0  0  0  0  0  0  0  0  # atno 6907 bound_to 6896
  152.4455  134.5501  159.9874 H   0  0  0  0  0  0  0  0  0  0  0  0  # atno 6908 bound_to 6896
  151.5652  133.3360  159.3014 H   0  0  0  0  0  0  0  0  0  0  0  0  # atno 6909 bound_to 6896
  145.7057  139.2597  143.1679 H   0  0  0  0  0  0  0  0  0  0  0  0  # atno 7974 bound_to 7965
  155.8089  140.3474  155.5446 H   0  0  0  0  0  0  0  0  0  0  0  0  # atno 8008 bound_to 7997
  155.8461  140.0949  157.1724 H   0  0  0  0  0  0  0  0  0  0  0  0  # atno 8009 bound_to 7997
  154.4006  140.1385  156.3775 H   0  0  0  0  0  0  0  0  0  0  0  0  # atno 8010 bound_to 7997
  140.1442  143.4253  152.1540 H   0  0  0  0  0  0  0  0  0  0  0  0  # atno 10167 bound_to 10162
  156.7069  130.9218  151.3085 H   0  0  0  0  0  0  0  0  0  0  0  0  # atno 10718 bound_to 10713
  154.5009  135.2783  155.1421 H   0  0  0  0  0  0  0  0  0  0  0  0  # atno 10763 bound_to 10752
  154.3055  135.6239  153.5446 H   0  0  0  0  0  0  0  0  0  0  0  0  # atno 10764 bound_to 10752
  152.9902  135.5707  154.5452 H   0  0  0  0  0  0  0  0  0  0  0  0  # atno 10765 bound_to 10752
  140.9091  134.1592  157.4403 H   0  0  0  0  0  0  0  0  0  0  0  0  # atno 11005 bound_to 11000
  146.0757  140.7819  142.9666 LP  0  0  0  0  0  0  0  0  0  0  0  0  # atno 17320 bound_to 7965
  144.6956  140.3411  143.7199 LP  0  0  0  0  0  0  0  0  0  0  0  0  # atno 17321 bound_to 7965
  139.5457  144.7296  151.4592 LP  0  0  0  0  0  0  0  0  0  0  0  0  # atno 17342 bound_to 10162
  140.6742  143.8227  150.7037 LP  0  0  0  0  0  0  0  0  0  0  0  0  # atno 17343 bound_to 10162
  157.6951  130.9274  150.0623 LP  0  0  0  0  0  0  0  0  0  0  0  0  # atno 17370 bound_to 10713
  156.1689  130.3646  149.9193 LP  0  0  0  0  0  0  0  0  0  0  0  0  # atno 17371 bound_to 10713
  139.8754  134.9928  156.5616 LP  0  0  0  0  0  0  0  0  0  0  0  0  # atno 17394 bound_to 11000
  140.8133  133.8411  155.8830 LP  0  0  0  0  0  0  0  0  0  0  0  0  # atno 17395 bound_to 11000

$$$$
