AV-unprocessed.smi:1799|AV-procd|sdf|7261|dock8
  -GOLD-   22720 8513D 1   1.00000     0.00000
 Structure written by MMmdl.
 41 42  0  0  0  0  0  0  0  0  2 V2000
  145.8543  134.8461  152.0363 C   0  0  0  0  0  0  0  0  0  0  0  0
  145.5486  133.5221  152.7707 C   0  0  0  0  0  0  0  0  0  0  0  0
  144.6407  132.7001  151.8351 C   0  0  0  0  0  0  0  0  0  0  0  0
  146.8268  132.6910  153.0452 C   0  0  0  0  0  0  0  0  0  0  0  0
  147.6658  133.1573  154.2512 C   0  0  0  0  0  0  0  0  0  0  0  0
  148.4609  134.3554  153.9891 N   0  0  0  0  0  0  0  0  0  0  0  0
  149.3163  134.9267  154.8498 C   0  0  0  0  0  0  0  0  0  0  0  0
  149.5261  134.4950  155.9831 O   0  0  0  0  0  0  0  0  0  0  0  0
  149.9004  136.0099  154.3083 N   0  0  0  0  0  0  0  0  0  0  0  0
  150.8941  136.8494  154.8778 C   0  0  0  0  0  0  0  0  0  0  0  0
  151.8613  136.4073  155.6969 N   0  0  0  0  0  0  0  0  0  0  0  0
  152.7056  137.4319  156.1042 N   0  0  0  0  0  0  0  0  0  0  0  0
  152.3430  138.6047  155.5768 C   0  0  0  0  0  0  0  0  0  0  0  0
  150.9335  138.5723  154.5311 S   0  0  0  0  0  0  0  0  0  0  0  0
  146.7705  133.3182  155.4906 C   0  0  0  0  0  0  0  0  0  0  0  0
  145.4841  134.1571  155.2726 C   0  0  0  0  0  0  0  0  0  0  0  0
  144.5209  133.8635  156.4396 C   0  0  0  0  0  0  0  0  0  0  0  0
  145.7618  135.6764  155.3026 C   0  0  0  0  0  0  0  0  0  0  0  0
  144.7765  133.7538  154.0241 N   0  3  0  0  0  0  0  0  0  0  0  0
  146.2721  134.6519  151.0478 H   0  0  0  0  0  0  0  0  0  0  0  0
  146.5760  135.4746  152.5469 H   0  0  0  0  0  0  0  0  0  0  0  0
  144.9494  135.4379  151.8929 H   0  0  0  0  0  0  0  0  0  0  0  0
  145.1428  132.4707  150.8942 H   0  0  0  0  0  0  0  0  0  0  0  0
  143.7231  133.2381  151.5930 H   0  0  0  0  0  0  0  0  0  0  0  0
  144.3500  131.7512  152.2878 H   0  0  0  0  0  0  0  0  0  0  0  0
  146.5301  131.6612  153.2505 H   0  0  0  0  0  0  0  0  0  0  0  0
  147.4393  132.6321  152.1446 H   0  0  0  0  0  0  0  0  0  0  0  0
  148.3825  132.3661  154.4796 H   0  0  0  0  0  0  0  0  0  0  0  0
  148.3465  134.7864  153.0834 H   0  0  0  0  0  0  0  0  0  0  0  0
  149.6141  136.2546  153.3720 H   0  0  0  0  0  0  0  0  0  0  0  0
  152.9099  139.4950  155.8051 H   0  0  0  0  0  0  0  0  0  0  0  0
  146.4786  132.3133  155.8002 H   0  0  0  0  0  0  0  0  0  0  0  0
  147.3493  133.7175  156.3250 H   0  0  0  0  0  0  0  0  0  0  0  0
  144.9697  134.1148  157.4017 H   0  0  0  0  0  0  0  0  0  0  0  0
  144.2436  132.8092  156.4760 H   0  0  0  0  0  0  0  0  0  0  0  0
  143.5974  134.4373  156.3499 H   0  0  0  0  0  0  0  0  0  0  0  0
  146.1225  135.9848  156.2846 H   0  0  0  0  0  0  0  0  0  0  0  0
  144.8563  136.2490  155.0985 H   0  0  0  0  0  0  0  0  0  0  0  0
  146.5159  135.9987  154.5925 H   0  0  0  0  0  0  0  0  0  0  0  0
  144.0369  134.4156  153.8371 H   0  0  0  0  0  0  0  0  0  0  0  0
  144.3444  132.8663  154.2381 H   0  0  0  0  0  0  0  0  0  0  0  0
  1  2  1  0  0  0  0
  1 20  1  0  0  0  0
  1 21  1  0  0  0  0
  1 22  1  0  0  0  0
  2 19  1  0  0  0  0
  2  3  1  0  0  0  0
  2  4  1  0  0  0  0
  3 23  1  0  0  0  0
  3 24  1  0  0  0  0
  3 25  1  0  0  0  0
  4  5  1  0  0  0  0
  4 26  1  0  0  0  0
  4 27  1  0  0  0  0
  5  6  1  0  0  0  0
  5 15  1  0  0  0  0
  5 28  1  0  0  0  0
  6  7  1  0  0  0  0
  6 29  1  0  0  0  0
  7  8  2  0  0  0  0
  7  9  1  0  0  0  0
  9 10  1  0  0  0  0
  9 30  1  0  0  0  0
 10 14  1  0  0  0  0
 10 11  2  0  0  0  0
 11 12  1  0  0  0  0
 12 13  2  0  0  0  0
 13 14  1  0  0  0  0
 13 31  1  0  0  0  0
 15 16  1  0  0  0  0
 15 32  1  0  0  0  0
 15 33  1  0  0  0  0
 16 17  1  0  0  0  0
 16 18  1  0  0  0  0
 16 19  1  0  0  0  0
 17 34  1  0  0  0  0
 17 35  1  0  0  0  0
 17 36  1  0  0  0  0
 18 37  1  0  0  0  0
 18 38  1  0  0  0  0
 18 39  1  0  0  0  0
 19 40  1  0  0  0  0
 19 41  1  0  0  0  0
M  CHG  1  19   1
M  END
> <s_m_source_file>
AV-unprocessed.smi

> <i_m_source_file_index>
1799

> <i_lp_mmshare_version>
43012

> <i_f3d_flags>
0

> <s_epik_input>
W0NIM11DMShbQ0gzXSlbQ0gyXVtDSF0oW0NIMl1DKFtDSDNdKShbQ0gzXSlbTkhdMSlbTkhdQyg9TylbTkhdYzJubltjSF1zMg==

> <s_epik_cmdline>
J2VwaWtfcHl0aG9uJywgJy1waCcsICc3LjAnLCAnLXRuJywgJzgnLCAnLW1hJywgJzIwMCcsICctbWV0YWxfYmluZGluZycsICctaW1hZScsICc8aW5maWxlLm1hZT4nLCAnLW9tYWUnLCAnPG91dGZpbGUubWFlPic=

> <r_lp_tautomer_probability>
1

> <r_epik_Ionization_Penalty>
0.000698711

> <r_epik_Ionization_Penalty_Charging>
0.000101406

> <r_epik_Ionization_Penalty_Neutral>
0.000597305

> <r_epik_State_Penalty>
-0

> <r_epik_Charging_Adjusted_Penalty>
0.000101406

> <i_epik_Tot_Q>
1

> <i_epik_Tot_abs_Q>
1

> <r_epik_Metal_State_Penalty>
0.237927

> <b_epik_Metal_Only>
0

> <s_lp_Force_Field>
OPLS_2005

> <r_lp_Energy>
25.55

> <b_lp_Chiralities_Consistent>
1

> <s_lp_Variant>
AV-unprocessed.smi:1799-1

> <Gold.Version>
5.8.1

> <Gold.Id.Protein>
6NUR|6NUR_protein|mol2

> <Gold.PLP.Fitness>
35.9278

> <Gold.PLP.PLP>
-22.6770

> <Gold.PLP.part.hbond>
-5.9847

> <Gold.PLP.part.metal>
0.0000

> <Gold.PLP.part.buried>
-2.3862

> <Gold.PLP.part.nonpolar>
-16.0163

> <Gold.PLP.part.repulsive>
0.1386

> <Gold.PLP.ligand.clash>
0.0000

> <Gold.PLP.ligand.torsion>
0.2422

> <Gold.PLP.Chemscore.Hbond>
4.5725

> <Gold.PLP.Chemscore.CHOScore>
0.0000

> <Gold.PLP.Chemscore.Metal>
0.0000

> <Gold.Chemscore.Hbonds>
donor molecule, donor type, donor heavy atom, donor atom, acceptor molecule, acceptor atom, score
      L1  H     6    29       P1  7948  0.93
      L1  H     9    30       P1  7948  1.00
      L1  H    19    41       P1 10957  1.79
      P1  H 10752 10764       L1    11  0.94

> <Gold.PLP.Chemscore.Internal.Correction>
0.0178

> <Gold.Rescore>
     Score         DG    S(hbond)    S(metal)    S(lipo)     H(rot)  DE(clash)    DE(int)     intcor
     16.72     -17.70       3.10        0.00      37.83       1.00       0.00       0.99       ----

> <Gold.Chemscore.Fitness>
16.7152

> <Gold.Chemscore.DG>
-17.7032

> <Gold.Chemscore.ZeroCoef>
-5.4800

> <Gold.Chemscore.Hbond>
3.1008

> <Gold.Chemscore.Metal>
0.0000

> <Gold.Chemscore.Lipo>
37.8319

> <Gold.Chemscore.Internal_Hbond>
0.0000

> <Gold.Chemscore.DEClash>
0.0000

> <Gold.Chemscore.DEInternal>
0.9879

> <Gold.Chemscore.Rot>
1.0000

> <Gold.Chemscore.Internal.Correction>
   9.000000E+99

> <Gold.Chemscore.Hbonds>
donor molecule, donor type, donor heavy atom, donor atom, acceptor molecule, acceptor atom, score
      L1  H     6    29       P1  7948  0.62
      L1  H     9    30       P1  7948  0.34
      L1  H    19    41       P1 10957  0.80
      P1  H 10752 10764       L1    11  0.07

> <Gold.Chemscore.Hbond.Weighted>
-10.3568

> <Gold.Chemscore.Metal.Weighted>
-0.0000

> <Gold.Chemscore.Lipo.Weighted>
-4.4263

> <Gold.Chemscore.Internal_Hbond.Weighted>
0.0000

> <Gold.Chemscore.DEClash.Weighted>
0.0000

> <Gold.Chemscore.DEInternal.Weighted>
0.9879

> <Gold.Chemscore.Rot.Weighted>
2.5600

> <Gold.Chemscore.Internal.Correction.Weighted>
   9.000000E+99

> <Gold.Protein.RotatedTorsions>
[ 6907 6896 6895 6894 ] final -152.78 input  -60.11 | X-H torsion
[ 7974 7965 7964 7962 ] final  -58.59 input  175.53 | X-H torsion
[ 8008 7997 7996 7995 ] final -130.78 input   59.86 | X-H torsion
[ 10167 10162 10161 10158 ] final -136.45 input  -65.29 | X-H torsion
[ 10718 10713 10712 10709 ] final   30.06 input   66.30 | X-H torsion
[ 10763 10752 10751 10750 ] final  -61.74 input  -60.55 | X-H torsion
[ 11005 11000 10999 10996 ] final  159.48 input  -57.11 | X-H torsion

> <Gold.Protein.ActiveResidues>
 VAL166  LYS551  ARG553  GLY616  TRP617  ASP618  TYR619  PRO620  LYS621  CYS622 
 ASP623  PHE694  ASN695  SER759  ASP760  ASP761  ALA762  ILE779  LEU786  VAL792 
 PHE793  MET794  SER795  GLU796  ALA797  LYS798  CYS799  TRP800  GLU811  SER814 

> <Gold.Protein.RotatedAtoms>
  151.2328  133.4441  159.2604 H   0  0  0  0  0  0  0  0  0  0  0  0  # atno 6907 bound_to 6896
  151.0778  134.9839  159.8351 H   0  0  0  0  0  0  0  0  0  0  0  0  # atno 6908 bound_to 6896
  152.5420  134.2270  159.8863 H   0  0  0  0  0  0  0  0  0  0  0  0  # atno 6909 bound_to 6896
  145.8376  140.8439  143.0051 H   0  0  0  0  0  0  0  0  0  0  0  0  # atno 7974 bound_to 7965
  155.3014  140.0453  157.3029 H   0  0  0  0  0  0  0  0  0  0  0  0  # atno 8008 bound_to 7997
  154.5485  140.2310  155.8491 H   0  0  0  0  0  0  0  0  0  0  0  0  # atno 8009 bound_to 7997
  156.1945  140.3042  155.9406 H   0  0  0  0  0  0  0  0  0  0  0  0  # atno 8010 bound_to 7997
  139.8676  143.6998  152.2643 H   0  0  0  0  0  0  0  0  0  0  0  0  # atno 10167 bound_to 10162
  157.2547  130.7132  149.6423 H   0  0  0  0  0  0  0  0  0  0  0  0  # atno 10718 bound_to 10713
  154.2892  135.6257  153.5378 H   0  0  0  0  0  0  0  0  0  0  0  0  # atno 10763 bound_to 10752
  152.9855  135.5651  154.5409 H   0  0  0  0  0  0  0  0  0  0  0  0  # atno 10764 bound_to 10752
  154.5016  135.2872  155.1392 H   0  0  0  0  0  0  0  0  0  0  0  0  # atno 10765 bound_to 10752
  140.1966  134.8369  157.2971 H   0  0  0  0  0  0  0  0  0  0  0  0  # atno 11005 bound_to 11000
  144.6735  140.0764  143.7471 LP  0  0  0  0  0  0  0  0  0  0  0  0  # atno 17320 bound_to 7965
  145.9502  139.2728  143.1217 LP  0  0  0  0  0  0  0  0  0  0  0  0  # atno 17321 bound_to 7965
  139.7314  144.7581  151.0796 LP  0  0  0  0  0  0  0  0  0  0  0  0  # atno 17342 bound_to 10162
  140.7765  143.5083  150.9684 LP  0  0  0  0  0  0  0  0  0  0  0  0  # atno 17343 bound_to 10162
  155.9665  130.4416  150.5348 LP  0  0  0  0  0  0  0  0  0  0  0  0  # atno 17370 bound_to 10713
  157.3240  131.0687  151.1911 LP  0  0  0  0  0  0  0  0  0  0  0  0  # atno 17371 bound_to 10713
  140.2101  134.4149  155.7617 LP  0  0  0  0  0  0  0  0  0  0  0  0  # atno 17394 bound_to 11000
  141.2227  133.7114  156.8324 LP  0  0  0  0  0  0  0  0  0  0  0  0  # atno 17395 bound_to 11000

$$$$
