AV-unprocessed.smi:1671|AV-procd|sdf|6697|dock7
  -GOLD-   22720 7433D 1   1.00000     0.00000
 Structure written by MMmdl.
 44 45  0  0  0  0  0  0  0  0  1 V2000
  149.9136  132.5136  154.9592 C   0  0  0  0  0  0  0  0  0  0  0  0
  149.5584  134.1603  154.2862 S   0  0  0  0  0  0  0  0  0  0  0  0
  150.6386  135.2009  155.3141 C   0  0  2  0  0  0  0  0  0  0  0  0
  150.1100  135.2546  156.7566 C   0  0  0  0  0  0  0  0  0  0  0  0
  150.8005  136.6078  154.7252 C   0  0  0  0  0  0  0  0  0  0  0  0
  151.9177  137.0376  154.4359 O   0  0  0  0  0  0  0  0  0  0  0  0
  149.6742  137.3227  154.5733 N   0  0  0  0  0  0  0  0  0  0  0  0
  149.5959  138.6984  154.0920 C   0  0  0  0  0  0  0  0  0  0  0  0
  150.1549  139.7135  155.0771 C   0  0  0  0  0  0  0  0  0  0  0  0
  149.3826  140.8212  155.4784 C   0  0  0  0  0  0  0  0  0  0  0  0
  149.9287  141.7418  156.3929 C   0  0  0  0  0  0  0  0  0  0  0  0
  151.2414  141.5360  156.8806 C   0  0  0  0  0  0  0  0  0  0  0  0
  151.8088  142.4438  157.8015 N   0  0  0  0  0  0  0  0  0  0  0  0
  151.5789  143.8713  157.5879 C   0  0  0  0  0  0  0  0  0  0  0  0
  152.4995  144.7034  158.4956 C   0  0  0  0  0  0  0  0  0  0  0  0
  152.3176  144.3102  159.8515 O   0  0  0  0  0  0  0  0  0  0  0  0
  152.6568  142.9426  160.0637 C   0  0  1  0  0  0  0  0  0  0  0  0
  152.5204  142.6399  161.5595 C   0  0  0  0  0  0  0  0  0  0  0  0
  151.7367  142.0513  159.2068 C   0  0  0  0  0  0  0  0  0  0  0  0
  151.9826  140.4697  156.4896 N   0  0  0  0  0  0  0  0  0  0  0  0
  151.4552  139.5916  155.6112 C   0  0  0  0  0  0  0  0  0  0  0  0
  149.2907  131.7669  154.4669 H   0  0  0  0  0  0  0  0  0  0  0  0
  149.7056  132.4853  156.0286 H   0  0  0  0  0  0  0  0  0  0  0  0
  150.9571  132.2450  154.7987 H   0  0  0  0  0  0  0  0  0  0  0  0
  151.6179  134.7207  155.3436 H   0  0  0  0  0  0  0  0  0  0  0  0
  150.7374  135.8859  157.3872 H   0  0  0  0  0  0  0  0  0  0  0  0
  150.0974  134.2592  157.2014 H   0  0  0  0  0  0  0  0  0  0  0  0
  149.0927  135.6460  156.7986 H   0  0  0  0  0  0  0  0  0  0  0  0
  148.8027  136.8865  154.8374 H   0  0  0  0  0  0  0  0  0  0  0  0
  150.1113  138.8137  153.1372 H   0  0  0  0  0  0  0  0  0  0  0  0
  148.5462  138.9206  153.8985 H   0  0  0  0  0  0  0  0  0  0  0  0
  148.3809  140.9633  155.1001 H   0  0  0  0  0  0  0  0  0  0  0  0
  149.3313  142.5796  156.7198 H   0  0  0  0  0  0  0  0  0  0  0  0
  151.7664  144.1338  156.5461 H   0  0  0  0  0  0  0  0  0  0  0  0
  150.5348  144.1046  157.8015 H   0  0  0  0  0  0  0  0  0  0  0  0
  153.5448  144.5823  158.2066 H   0  0  0  0  0  0  0  0  0  0  0  0
  152.2638  145.7632  158.3983 H   0  0  0  0  0  0  0  0  0  0  0  0
  153.6964  142.7831  159.7717 H   0  0  0  0  0  0  0  0  0  0  0  0
  152.7843  141.6044  161.7756 H   0  0  0  0  0  0  0  0  0  0  0  0
  151.4992  142.8048  161.9041 H   0  0  0  0  0  0  0  0  0  0  0  0
  153.1781  143.2799  162.1482 H   0  0  0  0  0  0  0  0  0  0  0  0
  150.7029  142.1454  159.5423 H   0  0  0  0  0  0  0  0  0  0  0  0
  152.0208  141.0096  159.3486 H   0  0  0  0  0  0  0  0  0  0  0  0
  152.0951  138.7679  155.3325 H   0  0  0  0  0  0  0  0  0  0  0  0
  1  2  1  0  0  0  0
  1 22  1  0  0  0  0
  1 23  1  0  0  0  0
  1 24  1  0  0  0  0
  2  3  1  0  0  0  0
  3  4  1  0  0  0  0
  3  5  1  0  0  0  0
  3 25  1  0  0  0  0
  4 26  1  0  0  0  0
  4 27  1  0  0  0  0
  4 28  1  0  0  0  0
  5  6  2  0  0  0  0
  5  7  1  0  0  0  0
  7  8  1  0  0  0  0
  7 29  1  0  0  0  0
  8  9  1  0  0  0  0
  8 30  1  0  0  0  0
  8 31  1  0  0  0  0
  9 21  1  0  0  0  0
  9 10  2  0  0  0  0
 10 11  1  0  0  0  0
 10 32  1  0  0  0  0
 11 12  2  0  0  0  0
 11 33  1  0  0  0  0
 12 13  1  0  0  0  0
 12 20  1  0  0  0  0
 13 19  1  0  0  0  0
 13 14  1  0  0  0  0
 14 15  1  0  0  0  0
 14 34  1  0  0  0  0
 14 35  1  0  0  0  0
 15 16  1  0  0  0  0
 15 36  1  0  0  0  0
 15 37  1  0  0  0  0
 16 17  1  0  0  0  0
 17 18  1  0  0  0  0
 17 19  1  0  0  0  0
 17 38  1  0  0  0  0
 18 39  1  0  0  0  0
 18 40  1  0  0  0  0
 18 41  1  0  0  0  0
 19 42  1  0  0  0  0
 19 43  1  0  0  0  0
 20 21  2  0  0  0  0
 21 44  1  0  0  0  0
M  END
> <s_m_source_file>
AV-unprocessed.smi

> <i_m_source_file_index>
1671

> <i_lp_mmshare_version>
43012

> <i_f3d_flags>
0

> <s_epik_input>
W0NIM11TW0NASF0oW0NIM10pQyg9TylbTkhdW0NIMl1jMVtjSF1bY0hdYyhuW2NIXTEpTjJbQ0gyXVtDSDJdT1tDQEBIXShbQ0gzXSlbQ0gyXTI=

> <s_epik_cmdline>
J2VwaWtfcHl0aG9uJywgJy1waCcsICc3LjAnLCAnLXRuJywgJzgnLCAnLW1hJywgJzIwMCcsICctbWV0YWxfYmluZGluZycsICctaW1hZScsICc8aW5maWxlLm1hZT4nLCAnLW9tYWUnLCAnPG91dGZpbGUubWFlPic=

> <r_lp_tautomer_probability>
1

> <r_epik_Ionization_Penalty>
0.00480033

> <r_epik_Ionization_Penalty_Charging>
0

> <r_epik_Ionization_Penalty_Neutral>
0.00480033

> <r_epik_State_Penalty>
0.00347981

> <r_epik_Charging_Adjusted_Penalty>
0.00347981

> <i_epik_Tot_Q>
0

> <i_epik_Tot_abs_Q>
0

> <r_epik_Metal_State_Penalty>
-0

> <b_epik_Metal_Only>
0

> <s_lp_Force_Field>
OPLS_2005

> <r_lp_Energy>
16.3373

> <b_lp_Chiralities_Consistent>
1

> <s_lp_Variant>
AV-unprocessed.smi:1671-1

> <Gold.Version>
5.8.1

> <Gold.Id.Protein>
6NUR|6NUR_protein|mol2

> <Gold.PLP.Fitness>
46.0097

> <Gold.PLP.PLP>
-44.1583

> <Gold.PLP.part.hbond>
-2.1441

> <Gold.PLP.part.metal>
0.0000

> <Gold.PLP.part.buried>
-2.9544

> <Gold.PLP.part.nonpolar>
-39.0903

> <Gold.PLP.part.repulsive>
0.2273

> <Gold.PLP.ligand.clash>
0.0000

> <Gold.PLP.ligand.torsion>
0.7652

> <Gold.PLP.Chemscore.Hbond>
1.0000

> <Gold.PLP.Chemscore.CHOScore>
0.0000

> <Gold.PLP.Chemscore.Metal>
0.0000

> <Gold.Chemscore.Hbonds>
donor molecule, donor type, donor heavy atom, donor atom, acceptor molecule, acceptor atom, score
      P1  H 10752 10763       L1     6  1.00

> <Gold.PLP.Chemscore.Internal.Correction>
0.3819

> <Gold.Rescore>
     Score         DG    S(hbond)    S(metal)    S(lipo)     H(rot)  DE(clash)    DE(int)     intcor
     15.59     -17.76       0.97        0.00     112.79       1.63       0.21       1.96       ----

> <Gold.Chemscore.Fitness>
15.5887

> <Gold.Chemscore.DG>
-17.7587

> <Gold.Chemscore.ZeroCoef>
-5.4800

> <Gold.Chemscore.Hbond>
0.9726

> <Gold.Chemscore.Metal>
0.0000

> <Gold.Chemscore.Lipo>
112.7860

> <Gold.Chemscore.Internal_Hbond>
0.0000

> <Gold.Chemscore.DEClash>
0.2082

> <Gold.Chemscore.DEInternal>
1.9619

> <Gold.Chemscore.Rot>
1.6272

> <Gold.Chemscore.Internal.Correction>
   9.000000E+99

> <Gold.Chemscore.Hbonds>
donor molecule, donor type, donor heavy atom, donor atom, acceptor molecule, acceptor atom, score
      P1  H  7997  8010       L1    20  0.01
      P1  H 10752 10763       L1     6  0.58

> <Gold.Chemscore.Hbond.Weighted>
-3.2484

> <Gold.Chemscore.Metal.Weighted>
-0.0000

> <Gold.Chemscore.Lipo.Weighted>
-13.1960

> <Gold.Chemscore.Internal_Hbond.Weighted>
0.0000

> <Gold.Chemscore.DEClash.Weighted>
0.2082

> <Gold.Chemscore.DEInternal.Weighted>
1.9619

> <Gold.Chemscore.Rot.Weighted>
4.1657

> <Gold.Chemscore.Internal.Correction.Weighted>
   9.000000E+99

> <Gold.Protein.RotatedTorsions>
[ 6907 6896 6895 6894 ] final  121.33 input  -60.11 | X-H torsion
[ 7974 7965 7964 7962 ] final   59.95 input  175.53 | X-H torsion
[ 8008 7997 7996 7995 ] final   47.85 input   59.86 | X-H torsion
[ 10167 10162 10161 10158 ] final  -50.27 input  -65.29 | X-H torsion
[ 10718 10713 10712 10709 ] final  148.22 input   66.30 | X-H torsion
[ 10763 10752 10751 10750 ] final   39.20 input  -60.55 | X-H torsion
[ 11005 11000 10999 10996 ] final   78.37 input  -57.11 | X-H torsion

> <Gold.Protein.ActiveResidues>
 VAL166  LYS551  ARG553  GLY616  TRP617  ASP618  TYR619  PRO620  LYS621  CYS622 
 ASP623  PHE694  ASN695  SER759  ASP760  ASP761  ALA762  ILE779  LEU786  VAL792 
 PHE793  MET794  SER795  GLU796  ALA797  LYS798  CYS799  TRP800  GLU811  SER814 

> <Gold.Protein.RotatedAtoms>
  152.4330  133.7311  159.6587 H   0  0  0  0  0  0  0  0  0  0  0  0  # atno 6907 bound_to 6896
  150.8211  133.8241  159.3144 H   0  0  0  0  0  0  0  0  0  0  0  0  # atno 6908 bound_to 6896
  151.5923  135.1055  160.0093 H   0  0  0  0  0  0  0  0  0  0  0  0  # atno 6909 bound_to 6896
  145.9015  139.3585  143.0590 H   0  0  0  0  0  0  0  0  0  0  0  0  # atno 7974 bound_to 7965
  155.3759  140.3426  155.4245 H   0  0  0  0  0  0  0  0  0  0  0  0  # atno 8008 bound_to 7997
  156.1637  140.1609  156.8602 H   0  0  0  0  0  0  0  0  0  0  0  0  # atno 8009 bound_to 7997
  154.5164  140.0777  156.8072 H   0  0  0  0  0  0  0  0  0  0  0  0  # atno 8010 bound_to 7997
  140.6645  143.2664  151.4335 H   0  0  0  0  0  0  0  0  0  0  0  0  # atno 10167 bound_to 10162
  157.3114  131.0888  151.1313 H   0  0  0  0  0  0  0  0  0  0  0  0  # atno 10718 bound_to 10713
  152.9975  135.6227  154.2427 H   0  0  0  0  0  0  0  0  0  0  0  0  # atno 10763 bound_to 10752
  154.2167  135.2797  155.2941 H   0  0  0  0  0  0  0  0  0  0  0  0  # atno 10764 bound_to 10752
  154.5562  135.5719  153.7024 H   0  0  0  0  0  0  0  0  0  0  0  0  # atno 10765 bound_to 10752
  139.9215  134.7758  156.1641 H   0  0  0  0  0  0  0  0  0  0  0  0  # atno 11005 bound_to 11000
  145.8785  140.9377  143.0613 LP  0  0  0  0  0  0  0  0  0  0  0  0  # atno 17320 bound_to 7965
  144.6736  140.0748  143.7471 LP  0  0  0  0  0  0  0  0  0  0  0  0  # atno 17321 bound_to 7965
  139.5890  144.1541  152.2064 LP  0  0  0  0  0  0  0  0  0  0  0  0  # atno 17342 bound_to 10162
  140.0890  144.5637  150.7068 LP  0  0  0  0  0  0  0  0  0  0  0  0  # atno 17343 bound_to 10162
  157.2634  130.6670  149.5985 LP  0  0  0  0  0  0  0  0  0  0  0  0  # atno 17370 bound_to 10713
  155.9678  130.4501  150.5686 LP  0  0  0  0  0  0  0  0  0  0  0  0  # atno 17371 bound_to 10713
  141.0740  133.6784  156.2199 LP  0  0  0  0  0  0  0  0  0  0  0  0  # atno 17394 bound_to 11000
  140.6459  134.5117  157.5573 LP  0  0  0  0  0  0  0  0  0  0  0  0  # atno 17395 bound_to 11000

$$$$
