AV-unprocessed.smi:849|AV-procd|sdf|3943|dock9
  -GOLD-   22720 1413D 1   1.00000     0.00000
 Structure written by MMmdl.
 36 38  0  0  0  0  0  0  0  0  1 V2000
  151.2991  136.3171  154.4367 O   0  0  0  0  0  0  0  0  0  0  0  0
  151.5837  137.5865  154.9851 C   0  0  0  0  0  0  0  0  0  0  0  0
  150.4954  138.5905  154.7293 C   0  0  0  0  0  0  0  0  0  0  0  0
  149.3917  138.2478  154.0625 N   0  0  0  0  0  0  0  0  0  0  0  0
  148.6556  139.4144  154.0629 C   0  0  0  0  0  0  0  0  0  0  0  0
  147.3846  139.6969  153.5130 C   0  0  0  0  0  0  0  0  0  0  0  0
  146.8181  140.9813  153.6472 C   0  0  0  0  0  0  0  0  0  0  0  0
  147.5124  141.9983  154.3334 C   0  0  0  0  0  0  0  0  0  0  0  0
  148.7800  141.7367  154.8882 C   0  0  0  0  0  0  0  0  0  0  0  0
  149.3442  140.4540  154.7481 C   0  0  0  0  0  0  0  0  0  0  0  0
  150.5448  139.8801  155.1612 N   0  0  0  0  0  0  0  0  0  0  0  0
  151.5961  140.5598  155.9149 C   0  0  0  0  0  0  0  0  0  0  0  0
  151.3069  140.6804  157.4303 C   0  0  2  0  0  0  0  0  0  0  0  0
  149.9508  140.3693  157.6878 O   0  0  0  0  0  0  0  0  0  0  0  0
  151.7332  142.0262  158.0179 C   0  0  0  0  0  0  0  0  0  0  0  0
  151.2474  143.2298  157.4543 C   0  0  0  0  0  0  0  0  0  0  0  0
  151.6353  144.4770  157.9786 C   0  0  0  0  0  0  0  0  0  0  0  0
  152.5169  144.5362  159.0724 C   0  0  0  0  0  0  0  0  0  0  0  0
  153.0126  143.3469  159.6371 C   0  0  0  0  0  0  0  0  0  0  0  0
  152.6277  142.0951  159.1162 C   0  0  0  0  0  0  0  0  0  0  0  0
  153.2860  140.6680  159.8371 Cl  0  0  0  0  0  0  0  0  0  0  0  0
  150.4762  136.3667  153.9757 H   0  0  0  0  0  0  0  0  0  0  0  0
  151.7125  137.4808  156.0622 H   0  0  0  0  0  0  0  0  0  0  0  0
  152.5395  137.9139  154.5853 H   0  0  0  0  0  0  0  0  0  0  0  0
  146.8442  138.9230  152.9884 H   0  0  0  0  0  0  0  0  0  0  0  0
  145.8459  141.1865  153.2238 H   0  0  0  0  0  0  0  0  0  0  0  0
  147.0720  142.9796  154.4333 H   0  0  0  0  0  0  0  0  0  0  0  0
  149.3145  142.5151  155.4123 H   0  0  0  0  0  0  0  0  0  0  0  0
  152.5213  140.0002  155.7714 H   0  0  0  0  0  0  0  0  0  0  0  0
  151.7911  141.5368  155.4763 H   0  0  0  0  0  0  0  0  0  0  0  0
  151.8669  139.8977  157.9414 H   0  0  0  0  0  0  0  0  0  0  0  0
  149.8790  140.0553  158.5763 H   0  0  0  0  0  0  0  0  0  0  0  0
  150.5797  143.2074  156.6054 H   0  0  0  0  0  0  0  0  0  0  0  0
  151.2597  145.3883  157.5372 H   0  0  0  0  0  0  0  0  0  0  0  0
  152.8171  145.4927  159.4743 H   0  0  0  0  0  0  0  0  0  0  0  0
  153.6952  143.3964  160.4727 H   0  0  0  0  0  0  0  0  0  0  0  0
  1  2  1  0  0  0  0
  1 22  1  0  0  0  0
  2  3  1  0  0  0  0
  2 23  1  0  0  0  0
  2 24  1  0  0  0  0
  3 11  1  0  0  0  0
  3  4  2  0  0  0  0
  4  5  1  0  0  0  0
  5 10  2  0  0  0  0
  5  6  1  0  0  0  0
  6  7  2  0  0  0  0
  6 25  1  0  0  0  0
  7  8  1  0  0  0  0
  7 26  1  0  0  0  0
  8  9  2  0  0  0  0
  8 27  1  0  0  0  0
  9 10  1  0  0  0  0
  9 28  1  0  0  0  0
 10 11  1  0  0  0  0
 11 12  1  0  0  0  0
 12 13  1  0  0  0  0
 12 29  1  0  0  0  0
 12 30  1  0  0  0  0
 13 14  1  0  0  0  0
 13 15  1  0  0  0  0
 13 31  1  0  0  0  0
 14 32  1  0  0  0  0
 15 20  1  0  0  0  0
 15 16  2  0  0  0  0
 16 17  1  0  0  0  0
 16 33  1  0  0  0  0
 17 18  2  0  0  0  0
 17 34  1  0  0  0  0
 18 19  1  0  0  0  0
 18 35  1  0  0  0  0
 19 20  2  0  0  0  0
 19 36  1  0  0  0  0
 20 21  1  0  0  0  0
M  END
> <s_m_source_file>
AV-unprocessed.smi

> <i_m_source_file_index>
849

> <i_lp_mmshare_version>
43012

> <i_f3d_flags>
0

> <s_epik_input>
W2NIXTFbY0hdW2NIXVtjSF1jKGMxMiluKGMobjIpW0NIMl1bT0hdKVtDSDJdW0NASF0oW09IXSljM1tjSF1bY0hdW2NIXVtjSF1jM0Ns

> <s_epik_cmdline>
J2VwaWtfcHl0aG9uJywgJy1waCcsICc3LjAnLCAnLXRuJywgJzgnLCAnLW1hJywgJzIwMCcsICctbWV0YWxfYmluZGluZycsICctaW1hZScsICc8aW5maWxlLm1hZT4nLCAnLW9tYWUnLCAnPG91dGZpbGUubWFlPic=

> <r_epik_Ionization_Penalty>
0.0634742

> <r_epik_Ionization_Penalty_Charging>
0

> <r_epik_Ionization_Penalty_Neutral>
0.0634742

> <r_epik_State_Penalty>
0.0551572

> <r_epik_Charging_Adjusted_Penalty>
0.0551572

> <i_epik_Tot_Q>
0

> <i_epik_Tot_abs_Q>
0

> <r_epik_Metal_State_Penalty>
5.78034e-05

> <b_epik_Metal_Only>
0

> <s_lp_Force_Field>
OPLS_2005

> <r_lp_Energy>
13.6996

> <b_lp_Chiralities_Consistent>
1

> <s_lp_Variant>
AV-unprocessed.smi:849-1

> <Gold.Version>
5.8.1

> <Gold.Id.Protein>
6NUR|6NUR_protein|mol2

> <Gold.PLP.Fitness>
51.2588

> <Gold.PLP.PLP>
-50.1919

> <Gold.PLP.part.hbond>
-2.0000

> <Gold.PLP.part.metal>
0.0000

> <Gold.PLP.part.buried>
-2.3812

> <Gold.PLP.part.nonpolar>
-47.1356

> <Gold.PLP.part.repulsive>
1.1647

> <Gold.PLP.ligand.clash>
0.0000

> <Gold.PLP.ligand.torsion>
1.0038

> <Gold.PLP.Chemscore.Hbond>
1.0000

> <Gold.PLP.Chemscore.CHOScore>
0.0000

> <Gold.PLP.Chemscore.Metal>
0.0000

> <Gold.Chemscore.Hbonds>
donor molecule, donor type, donor heavy atom, donor atom, acceptor molecule, acceptor atom, score
      P1  H 10752 10765       L1     1  1.00

> <Gold.PLP.Chemscore.Internal.Correction>
0.0745

> <Gold.Rescore>
     Score         DG    S(hbond)    S(metal)    S(lipo)     H(rot)  DE(clash)    DE(int)     intcor
     16.43     -17.53       0.94        0.00     133.45       2.62       0.10       1.00       ----

> <Gold.Chemscore.Fitness>
16.4254

> <Gold.Chemscore.DG>
-17.5278

> <Gold.Chemscore.ZeroCoef>
-5.4800

> <Gold.Chemscore.Hbond>
0.9429

> <Gold.Chemscore.Metal>
0.0000

> <Gold.Chemscore.Lipo>
133.4511

> <Gold.Chemscore.Internal_Hbond>
0.0000

> <Gold.Chemscore.DEClash>
0.1019

> <Gold.Chemscore.DEInternal>
1.0006

> <Gold.Chemscore.Rot>
2.6232

> <Gold.Chemscore.Internal.Correction>
   9.000000E+99

> <Gold.Chemscore.Hbonds>
donor molecule, donor type, donor heavy atom, donor atom, acceptor molecule, acceptor atom, score
      P1  H 10752 10765       L1     1  0.26

> <Gold.Chemscore.Hbond.Weighted>
-3.1494

> <Gold.Chemscore.Metal.Weighted>
-0.0000

> <Gold.Chemscore.Lipo.Weighted>
-15.6138

> <Gold.Chemscore.Internal_Hbond.Weighted>
0.0000

> <Gold.Chemscore.DEClash.Weighted>
0.1019

> <Gold.Chemscore.DEInternal.Weighted>
1.0006

> <Gold.Chemscore.Rot.Weighted>
6.7154

> <Gold.Chemscore.Internal.Correction.Weighted>
   9.000000E+99

> <Gold.Protein.RotatedTorsions>
[ 6907 6896 6895 6894 ] final  -55.10 input  -60.11 | X-H torsion
[ 7974 7965 7964 7962 ] final   19.28 input  175.53 | X-H torsion
[ 8008 7997 7996 7995 ] final -104.82 input   59.86 | X-H torsion
[ 10167 10162 10161 10158 ] final   -4.78 input  -65.29 | X-H torsion
[ 10718 10713 10712 10709 ] final  -59.71 input   66.30 | X-H torsion
[ 10763 10752 10751 10750 ] final  166.24 input  -60.55 | X-H torsion
[ 11005 11000 10999 10996 ] final -141.37 input  -57.11 | X-H torsion

> <Gold.Protein.ActiveResidues>
 VAL166  LYS551  ARG553  GLY616  TRP617  ASP618  TYR619  PRO620  LYS621  CYS622 
 ASP623  PHE694  ASN695  SER759  ASP760  ASP761  ALA762  ILE779  LEU786  VAL792 
 PHE793  MET794  SER795  GLU796  ALA797  LYS798  CYS799  TRP800  GLU811  SER814 

> <Gold.Protein.RotatedAtoms>
  150.8280  134.7520  159.6829 H   0  0  0  0  0  0  0  0  0  0  0  0  # atno 6907 bound_to 6896
  152.4388  134.5628  159.9909 H   0  0  0  0  0  0  0  0  0  0  0  0  # atno 6908 bound_to 6896
  151.5796  133.3342  159.3041 H   0  0  0  0  0  0  0  0  0  0  0  0  # atno 6909 bound_to 6896
  146.2155  139.8335  142.8655 H   0  0  0  0  0  0  0  0  0  0  0  0  # atno 7974 bound_to 7965
  154.8909  140.0416  157.1838 H   0  0  0  0  0  0  0  0  0  0  0  0  # atno 8008 bound_to 7997
  154.8542  140.2934  155.5558 H   0  0  0  0  0  0  0  0  0  0  0  0  # atno 8009 bound_to 7997
  156.2997  140.2459  156.3505 H   0  0  0  0  0  0  0  0  0  0  0  0  # atno 8010 bound_to 7997
  140.6940  143.6384  150.8458 H   0  0  0  0  0  0  0  0  0  0  0  0  # atno 10167 bound_to 10162
  156.1042  130.4182  150.0753 H   0  0  0  0  0  0  0  0  0  0  0  0  # atno 10718 bound_to 10713
  154.3360  135.2754  155.2447 H   0  0  0  0  0  0  0  0  0  0  0  0  # atno 10763 bound_to 10752
  154.4738  135.5876  153.6344 H   0  0  0  0  0  0  0  0  0  0  0  0  # atno 10764 bound_to 10752
  152.9862  135.6095  154.3557 H   0  0  0  0  0  0  0  0  0  0  0  0  # atno 10765 bound_to 10752
  140.8331  134.2492  157.4847 H   0  0  0  0  0  0  0  0  0  0  0  0  # atno 11005 bound_to 11000
  145.2973  141.0184  143.3629 LP  0  0  0  0  0  0  0  0  0  0  0  0  # atno 17320 bound_to 7965
  144.9033  139.4622  143.6622 LP  0  0  0  0  0  0  0  0  0  0  0  0  # atno 17321 bound_to 7965
  140.0100  143.5652  152.2842 LP  0  0  0  0  0  0  0  0  0  0  0  0  # atno 17342 bound_to 10162
  139.6373  144.7651  151.2412 LP  0  0  0  0  0  0  0  0  0  0  0  0  # atno 17343 bound_to 10162
  156.8732  130.9531  151.3607 LP  0  0  0  0  0  0  0  0  0  0  0  0  # atno 17370 bound_to 10713
  157.6217  130.8660  149.9119 LP  0  0  0  0  0  0  0  0  0  0  0  0  # atno 17371 bound_to 10713
  139.8704  134.9596  156.4339 LP  0  0  0  0  0  0  0  0  0  0  0  0  # atno 17394 bound_to 11000
  140.8976  133.7802  155.9643 LP  0  0  0  0  0  0  0  0  0  0  0  0  # atno 17395 bound_to 11000

$$$$
