AV-unprocessed.smi:1149|AV-procd|sdf|4892|dock3
  -GOLD-   22720 3463D 1   1.00000     0.00000
 Structure written by MMmdl.
 50 51  0  0  0  0  0  0  0  0  1 V2000
  147.5704  129.6128  153.3148 C   0  0  0  0  0  0  0  0  0  0  0  0
  148.5934  130.0195  154.2174 O   0  0  0  0  0  0  0  0  0  0  0  0
  148.9255  131.3579  154.2709 C   0  0  0  0  0  0  0  0  0  0  0  0
  149.9543  131.7631  155.1441 C   0  0  0  0  0  0  0  0  0  0  0  0
  150.2955  133.1274  155.2029 C   0  0  0  0  0  0  0  0  0  0  0  0
  149.5943  134.0473  154.3976 C   0  0  0  0  0  0  0  0  0  0  0  0
  149.9720  135.4155  154.4599 N   0  0  0  0  0  0  0  0  0  0  0  0
  150.8204  136.0073  155.3180 C   0  0  0  0  0  0  0  0  0  0  0  0
  151.4749  135.4255  156.1828 O   0  0  0  0  0  0  0  0  0  0  0  0
  150.8886  137.3269  155.0946 N   0  0  0  0  0  0  0  0  0  0  0  0
  151.7418  138.2761  155.8095 C   0  0  0  0  0  0  0  0  0  0  0  0
  150.9366  139.4704  156.3993 C   0  0  0  0  0  0  0  0  0  0  0  0
  150.4374  140.3204  155.2058 C   0  0  0  0  0  0  0  0  0  0  0  0
  149.6863  138.8587  157.0811 C   0  0  0  0  0  0  0  0  0  0  0  0
  151.7484  140.2530  157.3733 N   0  0  0  0  0  0  0  0  0  0  0  0
  151.1070  141.4842  157.8639 C   0  0  0  0  0  0  0  0  0  0  0  0
  152.0583  142.3111  158.7481 C   0  0  0  0  0  0  0  0  0  0  0  0
  152.5200  141.5428  159.8999 N   0  0  0  0  0  0  0  0  0  0  0  0
  153.4096  142.3267  160.7428 C   0  0  0  0  0  0  0  0  0  0  0  0
  153.1678  140.3252  159.4217 C   0  0  0  0  0  0  0  0  0  0  0  0
  152.2201  139.4905  158.5408 C   0  0  0  0  0  0  0  0  0  0  0  0
  148.5850  133.5399  153.5436 C   0  0  0  0  0  0  0  0  0  0  0  0
  148.2550  132.2323  153.4807 N   0  0  0  0  0  0  0  0  0  0  0  0
  147.4230  128.5361  153.3971 H   0  0  0  0  0  0  0  0  0  0  0  0
  147.8415  129.8308  152.2808 H   0  0  0  0  0  0  0  0  0  0  0  0
  146.6192  130.0948  153.5450 H   0  0  0  0  0  0  0  0  0  0  0  0
  150.4729  131.0405  155.7567 H   0  0  0  0  0  0  0  0  0  0  0  0
  151.0833  133.4607  155.8628 H   0  0  0  0  0  0  0  0  0  0  0  0
  149.5852  136.0061  153.7381 H   0  0  0  0  0  0  0  0  0  0  0  0
  150.3242  137.7091  154.3500 H   0  0  0  0  0  0  0  0  0  0  0  0
  152.2675  137.7303  156.5925 H   0  0  0  0  0  0  0  0  0  0  0  0
  152.5364  138.6481  155.1602 H   0  0  0  0  0  0  0  0  0  0  0  0
  149.8389  139.7185  154.5210 H   0  0  0  0  0  0  0  0  0  0  0  0
  151.2600  140.7337  154.6223 H   0  0  0  0  0  0  0  0  0  0  0  0
  149.8076  141.1503  155.5254 H   0  0  0  0  0  0  0  0  0  0  0  0
  149.1862  138.1408  156.4299 H   0  0  0  0  0  0  0  0  0  0  0  0
  148.9401  139.6133  157.3298 H   0  0  0  0  0  0  0  0  0  0  0  0
  149.9454  138.3348  158.0020 H   0  0  0  0  0  0  0  0  0  0  0  0
  150.7971  142.1175  157.0351 H   0  0  0  0  0  0  0  0  0  0  0  0
  150.2083  141.2454  158.4329 H   0  0  0  0  0  0  0  0  0  0  0  0
  152.9106  142.6461  158.1546 H   0  0  0  0  0  0  0  0  0  0  0  0
  151.5426  143.2096  159.0887 H   0  0  0  0  0  0  0  0  0  0  0  0
  153.7275  141.7486  161.6111 H   0  0  0  0  0  0  0  0  0  0  0  0
  152.9061  143.2229  161.1066 H   0  0  0  0  0  0  0  0  0  0  0  0
  154.3009  142.6360  160.1952 H   0  0  0  0  0  0  0  0  0  0  0  0
  154.0659  140.5766  158.8552 H   0  0  0  0  0  0  0  0  0  0  0  0
  153.4927  139.7236  160.2713 H   0  0  0  0  0  0  0  0  0  0  0  0
  151.3761  139.1525  159.1427 H   0  0  0  0  0  0  0  0  0  0  0  0
  152.7624  138.6001  158.2288 H   0  0  0  0  0  0  0  0  0  0  0  0
  148.0326  134.1767  152.8703 H   0  0  0  0  0  0  0  0  0  0  0  0
  1  2  1  0  0  0  0
  1 24  1  0  0  0  0
  1 25  1  0  0  0  0
  1 26  1  0  0  0  0
  2  3  1  0  0  0  0
  3 23  1  0  0  0  0
  3  4  2  0  0  0  0
  4  5  1  0  0  0  0
  4 27  1  0  0  0  0
  5  6  2  0  0  0  0
  5 28  1  0  0  0  0
  6  7  1  0  0  0  0
  6 22  1  0  0  0  0
  7  8  1  0  0  0  0
  7 29  1  0  0  0  0
  8  9  2  0  0  0  0
  8 10  1  0  0  0  0
 10 11  1  0  0  0  0
 10 30  1  0  0  0  0
 11 12  1  0  0  0  0
 11 31  1  0  0  0  0
 11 32  1  0  0  0  0
 12 13  1  0  0  0  0
 12 14  1  0  0  0  0
 12 15  1  0  0  0  0
 13 33  1  0  0  0  0
 13 34  1  0  0  0  0
 13 35  1  0  0  0  0
 14 36  1  0  0  0  0
 14 37  1  0  0  0  0
 14 38  1  0  0  0  0
 15 21  1  0  0  0  0
 15 16  1  0  0  0  0
 16 17  1  0  0  0  0
 16 39  1  0  0  0  0
 16 40  1  0  0  0  0
 17 18  1  0  0  0  0
 17 41  1  0  0  0  0
 17 42  1  0  0  0  0
 18 19  1  0  0  0  0
 18 20  1  0  0  0  0
 19 43  1  0  0  0  0
 19 44  1  0  0  0  0
 19 45  1  0  0  0  0
 20 21  1  0  0  0  0
 20 46  1  0  0  0  0
 20 47  1  0  0  0  0
 21 48  1  0  0  0  0
 21 49  1  0  0  0  0
 22 23  2  0  0  0  0
 22 50  1  0  0  0  0
M  END
> <s_m_source_file>
AV-unprocessed.smi

> <i_m_source_file_index>
1149

> <i_lp_mmshare_version>
43012

> <i_f3d_flags>
0

> <s_epik_input>
W0NIM11PYzFbY0hdW2NIXWMoW2NIXW4xKVtOSF1DKD1PKVtOSF1bQ0gyXUMoW0NIM10pKFtDSDNdKU4yW0NIMl1bQ0gyXU4oW0NIM10pW0NIMl1bQ0gyXTI=

> <s_epik_cmdline>
J2VwaWtfcHl0aG9uJywgJy1waCcsICc3LjAnLCAnLXRuJywgJzgnLCAnLW1hJywgJzIwMCcsICctbWV0YWxfYmluZGluZycsICctaW1hZScsICc8aW5maWxlLm1hZT4nLCAnLW9tYWUnLCAnPG91dGZpbGUubWFlPic=

> <r_lp_tautomer_probability>
1

> <r_epik_Ionization_Penalty>
3.08543

> <r_epik_Ionization_Penalty_Charging>
0

> <r_epik_Ionization_Penalty_Neutral>
3.08543

> <r_epik_State_Penalty>
2.1584

> <r_epik_Charging_Adjusted_Penalty>
2.1584

> <i_epik_Tot_Q>
0

> <i_epik_Tot_abs_Q>
0

> <r_epik_Metal_State_Penalty>
2.1584

> <b_epik_Metal_Only>
0

> <s_lp_Force_Field>
OPLS_2005

> <r_lp_Energy>
53.6816

> <b_lp_Chiralities_Consistent>
1

> <s_lp_Variant>
AV-unprocessed.smi:1149-3

> <Gold.Version>
5.8.1

> <Gold.Id.Protein>
6NUR|6NUR_protein|mol2

> <Gold.PLP.Fitness>
43.0497

> <Gold.PLP.PLP>
-34.9568

> <Gold.PLP.part.hbond>
-2.3670

> <Gold.PLP.part.metal>
0.0000

> <Gold.PLP.part.buried>
-4.0464

> <Gold.PLP.part.nonpolar>
-28.3186

> <Gold.PLP.part.repulsive>
0.3253

> <Gold.PLP.ligand.clash>
0.0000

> <Gold.PLP.ligand.torsion>
0.1865

> <Gold.PLP.Chemscore.Hbond>
1.9200

> <Gold.PLP.Chemscore.CHOScore>
0.8863

> <Gold.PLP.Chemscore.Metal>
0.0000

> <Gold.Chemscore.Hbonds>
donor molecule, donor type, donor heavy atom, donor atom, acceptor molecule, acceptor atom, score
      L1  H     7    29       P1  7948  0.98
      P1  H 10752 10764       L1     9  0.73
      L1  C    22    50       P1  7948  0.87

> <Gold.PLP.Chemscore.Internal.Correction>
0.0471

> <Gold.Rescore>
     Score         DG    S(hbond)    S(metal)    S(lipo)     H(rot)  DE(clash)    DE(int)     intcor
     15.00     -16.82       1.56        0.00      88.92       1.67       0.21       1.61       ----

> <Gold.Chemscore.Fitness>
14.9997

> <Gold.Chemscore.DG>
-16.8187

> <Gold.Chemscore.ZeroCoef>
-5.4800

> <Gold.Chemscore.Hbond>
1.5628

> <Gold.Chemscore.Metal>
0.0000

> <Gold.Chemscore.Lipo>
88.9194

> <Gold.Chemscore.Internal_Hbond>
0.0000

> <Gold.Chemscore.DEClash>
0.2106

> <Gold.Chemscore.DEInternal>
1.6083

> <Gold.Chemscore.Rot>
1.6737

> <Gold.Chemscore.Internal.Correction>
   9.000000E+99

> <Gold.Chemscore.Hbonds>
donor molecule, donor type, donor heavy atom, donor atom, acceptor molecule, acceptor atom, score
      L1  H     7    29       P1  7948  0.36
      P1  H 10752 10764       L1     9  0.16

> <Gold.Chemscore.Hbond.Weighted>
-5.2199

> <Gold.Chemscore.Metal.Weighted>
-0.0000

> <Gold.Chemscore.Lipo.Weighted>
-10.4036

> <Gold.Chemscore.Internal_Hbond.Weighted>
0.0000

> <Gold.Chemscore.DEClash.Weighted>
0.2106

> <Gold.Chemscore.DEInternal.Weighted>
1.6083

> <Gold.Chemscore.Rot.Weighted>
4.2848

> <Gold.Chemscore.Internal.Correction.Weighted>
   9.000000E+99

> <Gold.Protein.RotatedTorsions>
[ 6907 6896 6895 6894 ] final  -58.50 input  -60.11 | X-H torsion
[ 7974 7965 7964 7962 ] final  -71.66 input  175.53 | X-H torsion
[ 8008 7997 7996 7995 ] final   95.22 input   59.86 | X-H torsion
[ 10167 10162 10161 10158 ] final -165.14 input  -65.29 | X-H torsion
[ 10718 10713 10712 10709 ] final  -85.66 input   66.30 | X-H torsion
[ 10763 10752 10751 10750 ] final  -12.51 input  -60.55 | X-H torsion
[ 11005 11000 10999 10996 ] final   43.79 input  -57.11 | X-H torsion

> <Gold.Protein.ActiveResidues>
 VAL166  LYS551  ARG553  GLY616  TRP617  ASP618  TYR619  PRO620  LYS621  CYS622 
 ASP623  PHE694  ASN695  SER759  ASP760  ASP761  ALA762  ILE779  LEU786  VAL792 
 PHE793  MET794  SER795  GLU796  ALA797  LYS798  CYS799  TRP800  GLU811  SER814 

> <Gold.Protein.RotatedAtoms>
  150.8002  134.7090  159.6592 H   0  0  0  0  0  0  0  0  0  0  0  0  # atno 6907 bound_to 6896
  152.4118  134.6108  160.0035 H   0  0  0  0  0  0  0  0  0  0  0  0  # atno 6908 bound_to 6896
  151.6349  133.3292  159.3153 H   0  0  0  0  0  0  0  0  0  0  0  0  # atno 6909 bound_to 6896
  145.6752  140.9207  143.0861 H   0  0  0  0  0  0  0  0  0  0  0  0  # atno 7974 bound_to 7965
  156.0665  140.3289  155.7524 H   0  0  0  0  0  0  0  0  0  0  0  0  # atno 8008 bound_to 7997
  155.5372  140.0598  157.2894 H   0  0  0  0  0  0  0  0  0  0  0  0  # atno 8009 bound_to 7997
  154.4508  140.1917  156.0543 H   0  0  0  0  0  0  0  0  0  0  0  0  # atno 8010 bound_to 7997
  139.6202  144.0639  152.1925 H   0  0  0  0  0  0  0  0  0  0  0  0  # atno 10167 bound_to 10162
  155.9995  130.4738  150.4596 H   0  0  0  0  0  0  0  0  0  0  0  0  # atno 10718 bound_to 10713
  153.4995  135.7017  153.5839 H   0  0  0  0  0  0  0  0  0  0  0  0  # atno 10763 bound_to 10752
  153.3977  135.3880  155.1966 H   0  0  0  0  0  0  0  0  0  0  0  0  # atno 10764 bound_to 10752
  154.8711  135.3874  154.4464 H   0  0  0  0  0  0  0  0  0  0  0  0  # atno 10765 bound_to 10752
  140.1612  134.4339  155.8317 H   0  0  0  0  0  0  0  0  0  0  0  0  # atno 11005 bound_to 11000
  144.7044  139.8625  143.7434 LP  0  0  0  0  0  0  0  0  0  0  0  0  # atno 17320 bound_to 7965
  146.1011  139.4007  143.0346 LP  0  0  0  0  0  0  0  0  0  0  0  0  # atno 17321 bound_to 7965
  140.0279  144.6103  150.7512 LP  0  0  0  0  0  0  0  0  0  0  0  0  # atno 17342 bound_to 10162
  140.7377  143.2769  151.3715 LP  0  0  0  0  0  0  0  0  0  0  0  0  # atno 17343 bound_to 10162
  157.2622  131.0569  151.2313 LP  0  0  0  0  0  0  0  0  0  0  0  0  # atno 17370 bound_to 10713
  157.3424  130.7040  149.6390 LP  0  0  0  0  0  0  0  0  0  0  0  0  # atno 17371 bound_to 10713
  141.2209  133.6914  156.7597 LP  0  0  0  0  0  0  0  0  0  0  0  0  # atno 17394 bound_to 11000
  140.2488  134.8557  157.3647 LP  0  0  0  0  0  0  0  0  0  0  0  0  # atno 17395 bound_to 11000

$$$$
