AV-unprocessed.smi:3141|AV-procd|sdf|11969|dock1
  -GOLD-   2272017363D 1   1.00000     0.00000
 Structure written by MMmdl.
 35 37  0  0  0  0  0  0  0  0  1 V2000
  151.1583  141.0856  157.8693 O   0  0  0  0  0  0  0  0  0  0  0  0
  150.7955  142.1745  157.4239 C   0  0  0  0  0  0  0  0  0  0  0  0
  151.3596  143.3468  157.7427 N   0  0  0  0  0  0  0  0  0  0  0  0
  152.4592  143.5203  158.6354 C   0  0  0  0  0  0  0  0  0  0  0  0
  152.3560  142.8851  160.0051 C   0  0  0  0  0  0  0  0  0  0  0  0
  152.2394  144.3775  159.8632 C   0  0  0  0  0  0  0  0  0  0  0  0
  149.7864  142.3324  156.5567 N   0  0  0  0  0  0  0  0  0  0  0  0
  148.9880  141.2482  155.9916 C   0  0  1  0  0  0  0  0  0  0  0  0
  147.5185  141.6715  155.7864 C   0  0  0  0  0  0  0  0  0  0  0  0
  147.2736  141.6695  154.2749 C   0  0  0  0  0  0  0  0  0  0  0  0
  148.2659  140.6479  153.7277 C   0  0  0  0  0  0  0  0  0  0  0  0
  149.5129  140.8602  154.5932 C   0  0  2  0  0  0  0  0  0  0  0  0
  150.4148  139.7191  154.6146 N   0  0  0  0  0  0  0  0  0  0  0  0
  150.3454  138.5933  153.8035 C   0  0  0  0  0  0  0  0  0  0  0  0
  151.4043  137.7868  154.1536 C   0  0  0  0  0  0  0  0  0  0  0  0
  152.1411  138.3947  155.1666 N   0  0  0  0  0  0  0  0  0  0  0  0
  151.4988  139.5350  155.3836 C   0  0  0  0  0  0  0  0  0  0  0  0
  150.9837  144.1830  157.3207 H   0  0  0  0  0  0  0  0  0  0  0  0
  153.4567  143.5568  158.1995 H   0  0  0  0  0  0  0  0  0  0  0  0
  151.4499  142.3316  160.2438 H   0  0  0  0  0  0  0  0  0  0  0  0
  153.2702  142.4922  160.4451 H   0  0  0  0  0  0  0  0  0  0  0  0
  153.0757  144.9815  160.2087 H   0  0  0  0  0  0  0  0  0  0  0  0
  151.2555  144.8206  160.0056 H   0  0  0  0  0  0  0  0  0  0  0  0
  149.5626  143.2683  156.2521 H   0  0  0  0  0  0  0  0  0  0  0  0
  149.0131  140.3845  156.6594 H   0  0  0  0  0  0  0  0  0  0  0  0
  146.8655  140.9372  156.2600 H   0  0  0  0  0  0  0  0  0  0  0  0
  147.2809  142.6396  156.2298 H   0  0  0  0  0  0  0  0  0  0  0  0
  146.2410  141.4320  154.0177 H   0  0  0  0  0  0  0  0  0  0  0  0
  147.5004  142.6549  153.8654 H   0  0  0  0  0  0  0  0  0  0  0  0
  147.8597  139.6448  153.8627 H   0  0  0  0  0  0  0  0  0  0  0  0
  148.4655  140.7860  152.6647 H   0  0  0  0  0  0  0  0  0  0  0  0
  150.0557  141.7064  154.1667 H   0  0  0  0  0  0  0  0  0  0  0  0
  149.5700  138.4622  153.0634 H   0  0  0  0  0  0  0  0  0  0  0  0
  151.6928  136.8257  153.7540 H   0  0  0  0  0  0  0  0  0  0  0  0
  151.8282  140.2553  156.1183 H   0  0  0  0  0  0  0  0  0  0  0  0
  1  2  2  0  0  0  0
  2  3  1  0  0  0  0
  2  7  1  0  0  0  0
  3  4  1  0  0  0  0
  3 18  1  0  0  0  0
  4  6  1  0  0  0  0
  4  5  1  0  0  0  0
  4 19  1  0  0  0  0
  5  6  1  0  0  0  0
  5 20  1  0  0  0  0
  5 21  1  0  0  0  0
  6 22  1  0  0  0  0
  6 23  1  0  0  0  0
  7  8  1  0  0  0  0
  7 24  1  0  0  0  0
  8 12  1  0  0  0  0
  8  9  1  0  0  0  0
  8 25  1  0  0  0  0
  9 10  1  0  0  0  0
  9 26  1  0  0  0  0
  9 27  1  0  0  0  0
 10 11  1  0  0  0  0
 10 28  1  0  0  0  0
 10 29  1  0  0  0  0
 11 12  1  0  0  0  0
 11 30  1  0  0  0  0
 11 31  1  0  0  0  0
 12 13  1  0  0  0  0
 12 32  1  0  0  0  0
 13 17  1  0  0  0  0
 13 14  1  0  0  0  0
 14 15  2  0  0  0  0
 14 33  1  0  0  0  0
 15 16  1  0  0  0  0
 15 34  1  0  0  0  0
 16 17  2  0  0  0  0
 17 35  1  0  0  0  0
M  END
> <s_m_source_file>
AV-unprocessed.smi

> <i_m_source_file_index>
3141

> <i_lp_mmshare_version>
43012

> <i_f3d_flags>
0

> <s_epik_input>
W0NIMl0xW0NIMl1bQ0hdMVtOSF1DKD1PKVtOSF1bQ0BASF0yW0NIMl1bQ0gyXVtDSDJdW0NASF0ybjNbY0hdW2NIXW5bY0hdMw==

> <s_epik_cmdline>
J2VwaWtfcHl0aG9uJywgJy1waCcsICc3LjAnLCAnLXRuJywgJzgnLCAnLW1hJywgJzIwMCcsICctbWV0YWxfYmluZGluZycsICctaW1hZScsICc8aW5maWxlLm1hZT4nLCAnLW9tYWUnLCAnPG91dGZpbGUubWFlPic=

> <r_lp_tautomer_probability>
1

> <r_epik_Ionization_Penalty>
0.728419

> <r_epik_Ionization_Penalty_Charging>
0.728357

> <r_epik_Ionization_Penalty_Neutral>
6.27871e-05

> <r_epik_State_Penalty>
0.753408

> <r_epik_Charging_Adjusted_Penalty>
1.48176

> <i_epik_Tot_Q>
0

> <i_epik_Tot_abs_Q>
0

> <r_epik_Metal_State_Penalty>
0.332413

> <b_epik_Metal_Only>
0

> <s_lp_Force_Field>
OPLS_2005

> <r_lp_Energy>
34.7591

> <b_lp_Chiralities_Consistent>
1

> <s_lp_Variant>
AV-unprocessed.smi:3141-8

> <Gold.Version>
5.8.1

> <Gold.Id.Protein>
6NUR|6NUR_protein|mol2

> <Gold.PLP.Fitness>
46.7451

> <Gold.PLP.PLP>
-37.4220

> <Gold.PLP.part.hbond>
-1.0000

> <Gold.PLP.part.metal>
0.0000

> <Gold.PLP.part.buried>
-0.3753

> <Gold.PLP.part.nonpolar>
-36.3568

> <Gold.PLP.part.repulsive>
0.0818

> <Gold.PLP.ligand.clash>
0.0000

> <Gold.PLP.ligand.torsion>
0.5382

> <Gold.PLP.Chemscore.Hbond>
1.0000

> <Gold.PLP.Chemscore.CHOScore>
2.4522

> <Gold.PLP.Chemscore.Metal>
0.0000

> <Gold.Chemscore.Hbonds>
donor molecule, donor type, donor heavy atom, donor atom, acceptor molecule, acceptor atom, score
      L1  H     7    24       P1  8028  1.00
      L1  C    14    33       P1  7948  0.83
      L1  C    14    33       P1  7957  0.73
      L1  C    15    34       P1  7949  0.92

> <Gold.PLP.Chemscore.Internal.Correction>
0.0429

> <Gold.Rescore>
     Score         DG    S(hbond)    S(metal)    S(lipo)     H(rot)  DE(clash)    DE(int)     intcor
     16.43     -16.73       1.86        0.00      77.34       1.57       0.06       0.25       ----

> <Gold.Chemscore.Fitness>
16.4286

> <Gold.Chemscore.DG>
-16.7318

> <Gold.Chemscore.ZeroCoef>
-5.4800

> <Gold.Chemscore.Hbond>
1.8633

> <Gold.Chemscore.Metal>
0.0000

> <Gold.Chemscore.Lipo>
77.3425

> <Gold.Chemscore.Internal_Hbond>
0.0000

> <Gold.Chemscore.DEClash>
0.0557

> <Gold.Chemscore.DEInternal>
0.2475

> <Gold.Chemscore.Rot>
1.5705

> <Gold.Chemscore.Internal.Correction>
   9.000000E+99

> <Gold.Chemscore.Hbonds>
donor molecule, donor type, donor heavy atom, donor atom, acceptor molecule, acceptor atom, score
      L1  H     7    24       P1  8028  1.00

> <Gold.Chemscore.Hbond.Weighted>
-6.2233

> <Gold.Chemscore.Metal.Weighted>
-0.0000

> <Gold.Chemscore.Lipo.Weighted>
-9.0491

> <Gold.Chemscore.Internal_Hbond.Weighted>
0.0000

> <Gold.Chemscore.DEClash.Weighted>
0.0557

> <Gold.Chemscore.DEInternal.Weighted>
0.2475

> <Gold.Chemscore.Rot.Weighted>
4.0206

> <Gold.Chemscore.Internal.Correction.Weighted>
   9.000000E+99

> <Gold.Protein.RotatedTorsions>
[ 6907 6896 6895 6894 ] final  175.06 input  -60.11 | X-H torsion
[ 7974 7965 7964 7962 ] final  -49.56 input  175.53 | X-H torsion
[ 8008 7997 7996 7995 ] final  104.22 input   59.86 | X-H torsion
[ 10167 10162 10161 10158 ] final -170.40 input  -65.29 | X-H torsion
[ 10718 10713 10712 10709 ] final  108.56 input   66.30 | X-H torsion
[ 10763 10752 10751 10750 ] final  141.66 input  -60.55 | X-H torsion
[ 11005 11000 10999 10996 ] final   28.50 input  -57.11 | X-H torsion

> <Gold.Protein.ActiveResidues>
 VAL166  LYS551  ARG553  GLY616  TRP617  ASP618  TYR619  PRO620  LYS621  CYS622 
 ASP623  PHE694  ASN695  SER759  ASP760  ASP761  ALA762  ILE779  LEU786  VAL792 
 PHE793  MET794  SER795  GLU796  ALA797  LYS798  CYS799  TRP800  GLU811  SER814 

> <Gold.Protein.RotatedAtoms>
  151.7422  133.3322  159.3368 H   0  0  0  0  0  0  0  0  0  0  0  0  # atno 6907 bound_to 6896
  150.7568  134.6267  159.6174 H   0  0  0  0  0  0  0  0  0  0  0  0  # atno 6908 bound_to 6896
  152.3523  134.6991  160.0284 H   0  0  0  0  0  0  0  0  0  0  0  0  # atno 6909 bound_to 6896
  145.9392  140.7678  142.9560 H   0  0  0  0  0  0  0  0  0  0  0  0  # atno 7974 bound_to 7965
  156.1554  140.3151  155.8717 H   0  0  0  0  0  0  0  0  0  0  0  0  # atno 8008 bound_to 7997
  155.3889  140.0492  157.3058 H   0  0  0  0  0  0  0  0  0  0  0  0  # atno 8009 bound_to 7997
  154.5096  140.2160  155.9193 H   0  0  0  0  0  0  0  0  0  0  0  0  # atno 8010 bound_to 7997
  139.5864  144.1309  152.1580 H   0  0  0  0  0  0  0  0  0  0  0  0  # atno 10167 bound_to 10162
  157.6580  131.0896  150.6324 H   0  0  0  0  0  0  0  0  0  0  0  0  # atno 10718 bound_to 10713
  153.9430  135.2978  155.3442 H   0  0  0  0  0  0  0  0  0  0  0  0  # atno 10763 bound_to 10752
  154.7467  135.4999  153.9219 H   0  0  0  0  0  0  0  0  0  0  0  0  # atno 10764 bound_to 10752
  153.1033  135.6740  153.9740 H   0  0  0  0  0  0  0  0  0  0  0  0  # atno 10765 bound_to 10752
  140.3149  134.2608  155.7727 H   0  0  0  0  0  0  0  0  0  0  0  0  # atno 11005 bound_to 11000
  144.6776  140.2253  143.7361 LP  0  0  0  0  0  0  0  0  0  0  0  0  # atno 17320 bound_to 7965
  145.8322  139.2091  143.1876 LP  0  0  0  0  0  0  0  0  0  0  0  0  # atno 17321 bound_to 7965
  140.0874  144.5650  150.7079 LP  0  0  0  0  0  0  0  0  0  0  0  0  # atno 17342 bound_to 10162
  140.7135  143.2524  151.4508 LP  0  0  0  0  0  0  0  0  0  0  0  0  # atno 17343 bound_to 10162
  156.6629  130.4517  149.5682 LP  0  0  0  0  0  0  0  0  0  0  0  0  # atno 17370 bound_to 10713
  156.2054  130.6646  151.1212 LP  0  0  0  0  0  0  0  0  0  0  0  0  # atno 17371 bound_to 10713
  141.2100  133.7733  156.9961 LP  0  0  0  0  0  0  0  0  0  0  0  0  # atno 17394 bound_to 11000
  140.0992  134.9545  157.1897 LP  0  0  0  0  0  0  0  0  0  0  0  0  # atno 17395 bound_to 11000

$$$$
