AV-unprocessed.smi:203|AV-procd|sdf|1584|dock10
  -GOLD-   2262019473D 1   1.00000     0.00000
 Structure written by MMmdl.
 57 61  0  0  0  0  0  0  0  0  1 V2000
  149.0807  131.0629  153.9534 O   0  0  0  0  0  0  0  0  0  0  0  0
  148.3182  132.0106  154.1273 C   0  0  0  0  0  0  0  0  0  0  0  0
  148.5480  133.3898  153.5348 C   0  0  0  0  0  0  0  0  0  0  0  0
  147.2391  134.1423  153.8438 C   0  0  1  0  0  0  0  0  0  0  0  0
  146.3975  134.4985  152.5771 C   0  0  1  0  0  0  0  0  0  0  0  0
  146.0266  133.2528  151.7302 C   0  0  0  0  0  0  0  0  0  0  0  0
  145.2116  133.6352  150.4873 C   0  0  0  0  0  0  0  0  0  0  0  0
  143.9657  134.4257  150.9017 C   0  0  0  0  0  0  0  0  0  0  0  0
  144.3624  135.6512  151.7354 C   0  0  0  0  0  0  0  0  0  0  0  0
  145.1790  135.2690  152.8867 N   0  0  0  0  0  0  0  0  0  0  0  0
  145.3261  136.3156  153.7290 C   0  0  0  0  0  0  0  0  0  0  0  0
  144.8636  136.1616  154.9936 N   0  0  0  0  0  0  0  0  0  0  0  0
  145.0147  137.1477  155.8828 C   0  0  0  0  0  0  0  0  0  0  0  0
  145.5930  138.3398  155.7179 N   0  0  0  0  0  0  0  0  0  0  0  0
  146.0504  138.4979  154.4427 C   0  0  0  0  0  0  0  0  0  0  0  0
  145.9462  137.5499  153.3874 C   0  0  0  0  0  0  0  0  0  0  0  0
  146.5102  138.0655  152.2269 N   0  0  0  0  0  0  0  0  0  0  0  0
  146.9440  139.2435  152.5821 C   0  0  0  0  0  0  0  0  0  0  0  0
  146.7363  139.5715  153.9029 N   0  0  0  0  0  0  0  0  0  0  0  0
  147.1478  140.7938  154.5694 C   0  0  0  0  0  0  0  0  0  0  0  0
  148.6831  140.9770  154.6258 C   0  0  2  0  0  0  0  0  0  0  0  0
  149.1383  141.3471  153.3408 O   0  0  0  0  0  0  0  0  0  0  0  0
  149.5223  139.7751  155.1242 C   0  0  2  0  0  0  0  0  0  0  0  0
  150.9775  140.0596  155.5028 C   0  0  0  0  0  0  0  0  0  0  0  0
  151.5825  138.6767  155.4092 C   0  0  0  0  0  0  0  0  0  0  0  0
  150.8553  138.0910  154.2014 C   0  0  0  0  0  0  0  0  0  0  0  0
  149.5767  138.7203  154.1665 O   0  0  0  0  0  0  0  0  0  0  0  0
  146.4953  133.2539  154.8659 C   0  0  0  0  0  0  0  0  0  0  0  0
  147.1995  131.9869  154.8483 N   0  0  0  0  0  0  0  0  0  0  0  0
  149.3962  133.8544  154.0384 H   0  0  0  0  0  0  0  0  0  0  0  0
  148.7787  133.3381  152.4708 H   0  0  0  0  0  0  0  0  0  0  0  0
  147.5308  135.0636  154.3476 H   0  0  0  0  0  0  0  0  0  0  0  0
  147.0201  135.1324  151.9450 H   0  0  0  0  0  0  0  0  0  0  0  0
  146.9209  132.7182  151.4118 H   0  0  0  0  0  0  0  0  0  0  0  0
  145.4470  132.5474  152.3257 H   0  0  0  0  0  0  0  0  0  0  0  0
  145.8242  134.2355  149.8136 H   0  0  0  0  0  0  0  0  0  0  0  0
  144.9231  132.7398  149.9362 H   0  0  0  0  0  0  0  0  0  0  0  0
  143.4077  134.7386  150.0190 H   0  0  0  0  0  0  0  0  0  0  0  0
  143.2996  133.7863  151.4823 H   0  0  0  0  0  0  0  0  0  0  0  0
  144.9202  136.3540  151.1146 H   0  0  0  0  0  0  0  0  0  0  0  0
  143.4623  136.1688  152.0710 H   0  0  0  0  0  0  0  0  0  0  0  0
  144.6241  136.9502  156.8699 H   0  0  0  0  0  0  0  0  0  0  0  0
  147.4501  139.9000  151.8895 H   0  0  0  0  0  0  0  0  0  0  0  0
  146.6838  141.6370  154.0557 H   0  0  0  0  0  0  0  0  0  0  0  0
  146.7341  140.7855  155.5783 H   0  0  0  0  0  0  0  0  0  0  0  0
  148.9030  141.8221  155.2784 H   0  0  0  0  0  0  0  0  0  0  0  0
  149.0986  140.5887  152.7786 H   0  0  0  0  0  0  0  0  0  0  0  0
  149.0257  139.3446  155.9959 H   0  0  0  0  0  0  0  0  0  0  0  0
  151.4606  140.7180  154.7823 H   0  0  0  0  0  0  0  0  0  0  0  0
  151.0796  140.5043  156.4929 H   0  0  0  0  0  0  0  0  0  0  0  0
  152.6659  138.6874  155.2894 H   0  0  0  0  0  0  0  0  0  0  0  0
  151.3429  138.1031  156.3056 H   0  0  0  0  0  0  0  0  0  0  0  0
  151.3877  138.3354  153.2820 H   0  0  0  0  0  0  0  0  0  0  0  0
  150.7632  137.0063  154.2574 H   0  0  0  0  0  0  0  0  0  0  0  0
  146.5566  133.6814  155.8675 H   0  0  0  0  0  0  0  0  0  0  0  0
  145.4396  133.1166  154.6319 H   0  0  0  0  0  0  0  0  0  0  0  0
  146.8582  131.1698  155.3334 H   0  0  0  0  0  0  0  0  0  0  0  0
  1  2  2  0  0  0  0
  2 29  1  0  0  0  0
  2  3  1  0  0  0  0
  3  4  1  0  0  0  0
  3 30  1  0  0  0  0
  3 31  1  0  0  0  0
  4  5  1  0  0  0  0
  4 28  1  0  0  0  0
  4 32  1  0  0  0  0
  5 10  1  0  0  0  0
  5  6  1  0  0  0  0
  5 33  1  0  0  0  0
  6  7  1  0  0  0  0
  6 34  1  0  0  0  0
  6 35  1  0  0  0  0
  7  8  1  0  0  0  0
  7 36  1  0  0  0  0
  7 37  1  0  0  0  0
  8  9  1  0  0  0  0
  8 38  1  0  0  0  0
  8 39  1  0  0  0  0
  9 10  1  0  0  0  0
  9 40  1  0  0  0  0
  9 41  1  0  0  0  0
 10 11  1  0  0  0  0
 11 16  1  0  0  0  0
 11 12  2  0  0  0  0
 12 13  1  0  0  0  0
 13 14  2  0  0  0  0
 13 42  1  0  0  0  0
 14 15  1  0  0  0  0
 15 19  1  0  0  0  0
 15 16  2  0  0  0  0
 16 17  1  0  0  0  0
 17 18  2  0  0  0  0
 18 19  1  0  0  0  0
 18 43  1  0  0  0  0
 19 20  1  0  0  0  0
 20 21  1  0  0  0  0
 20 44  1  0  0  0  0
 20 45  1  0  0  0  0
 21 22  1  0  0  0  0
 21 23  1  0  0  0  0
 21 46  1  0  0  0  0
 22 47  1  0  0  0  0
 23 27  1  0  0  0  0
 23 24  1  0  0  0  0
 23 48  1  0  0  0  0
 24 25  1  0  0  0  0
 24 49  1  0  0  0  0
 24 50  1  0  0  0  0
 25 26  1  0  0  0  0
 25 51  1  0  0  0  0
 25 52  1  0  0  0  0
 26 27  1  0  0  0  0
 26 53  1  0  0  0  0
 26 54  1  0  0  0  0
 28 29  1  0  0  0  0
 28 55  1  0  0  0  0
 28 56  1  0  0  0  0
 29 57  1  0  0  0  0
M  END
> <s_m_source_file>
AV-unprocessed.smi

> <i_m_source_file_index>
203

> <i_lp_mmshare_version>
43012

> <i_f3d_flags>
0

> <s_epik_input>
Tz1DMVtDSDJdW0NASF0oW0NIMl1bTkhdMSlbQ0BASF0yW0NIMl1bQ0gyXVtDSDJdW0NIMl1OMmMobltjSF1uMyljKGMzNCluW2NIXW40W0NIMl1bQ0BIXShbT0hdKVtDQEBIXTVbQ0gyXVtDSDJdW0NIMl1PNQ==

> <s_epik_cmdline>
J2VwaWtfcHl0aG9uJywgJy1waCcsICc3LjAnLCAnLXRuJywgJzgnLCAnLW1hJywgJzIwMCcsICctbWV0YWxfYmluZGluZycsICctaW1hZScsICc8aW5maWxlLm1hZT4nLCAnLW9tYWUnLCAnPG91dGZpbGUubWFlPic=

> <r_lp_tautomer_probability>
1

> <r_epik_Ionization_Penalty>
0.00175146

> <r_epik_Ionization_Penalty_Charging>
0

> <r_epik_Ionization_Penalty_Neutral>
0.00175146

> <r_epik_State_Penalty>
0.00109045

> <r_epik_Charging_Adjusted_Penalty>
0.00109045

> <i_epik_Tot_Q>
0

> <i_epik_Tot_abs_Q>
0

> <r_epik_Metal_State_Penalty>
-0

> <b_epik_Metal_Only>
0

> <s_lp_Force_Field>
OPLS_2005

> <r_lp_Energy>
54.964

> <b_lp_Chiralities_Consistent>
1

> <s_lp_Variant>
AV-unprocessed.smi:203-3

> <Gold.Version>
5.8.1

> <Gold.Id.Protein>
6NUR|6NUR_protein|mol2

> <Gold.PLP.Fitness>
45.7571

> <Gold.PLP.PLP>
-37.8866

> <Gold.PLP.part.hbond>
-2.6388

> <Gold.PLP.part.metal>
0.0000

> <Gold.PLP.part.buried>
-2.2438

> <Gold.PLP.part.nonpolar>
-33.0217

> <Gold.PLP.part.repulsive>
1.4569

> <Gold.PLP.ligand.clash>
0.0000

> <Gold.PLP.ligand.torsion>
0.4062

> <Gold.PLP.Chemscore.Hbond>
1.8073

> <Gold.PLP.Chemscore.CHOScore>
1.0000

> <Gold.PLP.Chemscore.Metal>
0.0000

> <Gold.Chemscore.Hbonds>
donor molecule, donor type, donor heavy atom, donor atom, acceptor molecule, acceptor atom, score
      L1  H    22    47       P1  7957  0.80
      P1  H  8011  8017       L1    22  0.99
      L1  C    18    43       P1  7957  1.00

> <Gold.PLP.Chemscore.Internal.Correction>
0.2611

> <Gold.Rescore>
     Score         DG    S(hbond)    S(metal)    S(lipo)     H(rot)  DE(clash)    DE(int)     intcor
     10.54     -12.50       1.44        0.00      78.40       2.72       0.35       1.61       ----

> <Gold.Chemscore.Fitness>
10.5404

> <Gold.Chemscore.DG>
-12.4998

> <Gold.Chemscore.ZeroCoef>
-5.4800

> <Gold.Chemscore.Hbond>
1.4380

> <Gold.Chemscore.Metal>
0.0000

> <Gold.Chemscore.Lipo>
78.3991

> <Gold.Chemscore.Internal_Hbond>
0.0000

> <Gold.Chemscore.DEClash>
0.3504

> <Gold.Chemscore.DEInternal>
1.6090

> <Gold.Chemscore.Rot>
2.7171

> <Gold.Chemscore.Internal.Correction>
   9.000000E+99

> <Gold.Chemscore.Hbonds>
donor molecule, donor type, donor heavy atom, donor atom, acceptor molecule, acceptor atom, score
      L1  H    22    47       P1  7957  0.80
      P1  H  8011  8017       L1    22  0.24

> <Gold.Chemscore.Hbond.Weighted>
-4.8028

> <Gold.Chemscore.Metal.Weighted>
-0.0000

> <Gold.Chemscore.Lipo.Weighted>
-9.1727

> <Gold.Chemscore.Internal_Hbond.Weighted>
0.0000

> <Gold.Chemscore.DEClash.Weighted>
0.3504

> <Gold.Chemscore.DEInternal.Weighted>
1.6090

> <Gold.Chemscore.Rot.Weighted>
6.9557

> <Gold.Chemscore.Internal.Correction.Weighted>
   9.000000E+99

> <Gold.Protein.RotatedTorsions>
[ 6907 6896 6895 6894 ] final  176.61 input  -60.11 | X-H torsion
[ 7974 7965 7964 7962 ] final -107.84 input  175.53 | X-H torsion
[ 8008 7997 7996 7995 ] final   90.39 input   59.86 | X-H torsion
[ 10167 10162 10161 10158 ] final -166.67 input  -65.29 | X-H torsion
[ 10718 10713 10712 10709 ] final -163.52 input   66.30 | X-H torsion
[ 10763 10752 10751 10750 ] final  170.38 input  -60.55 | X-H torsion
[ 11005 11000 10999 10996 ] final  -23.66 input  -57.11 | X-H torsion

> <Gold.Protein.ActiveResidues>
 VAL166  LYS551  ARG553  GLY616  TRP617  ASP618  TYR619  PRO620  LYS621  CYS622 
 ASP623  PHE694  ASN695  SER759  ASP760  ASP761  ALA762  ILE779  LEU786  VAL792 
 PHE793  MET794  SER795  GLU796  ALA797  LYS798  CYS799  TRP800  GLU811  SER814 

> <Gold.Protein.RotatedAtoms>
  151.7173  133.3313  159.3305 H   0  0  0  0  0  0  0  0  0  0  0  0  # atno 6907 bound_to 6896
  150.7668  134.6479  159.6281 H   0  0  0  0  0  0  0  0  0  0  0  0  # atno 6908 bound_to 6896
  152.3674  134.6787  160.0239 H   0  0  0  0  0  0  0  0  0  0  0  0  # atno 6909 bound_to 6896
  145.2004  140.9053  143.3373 H   0  0  0  0  0  0  0  0  0  0  0  0  # atno 7974 bound_to 7965
  156.0114  140.3350  155.6945 H   0  0  0  0  0  0  0  0  0  0  0  0  # atno 8008 bound_to 7997
  155.6152  140.0669  157.2712 H   0  0  0  0  0  0  0  0  0  0  0  0  # atno 8009 bound_to 7997
  154.4283  140.1786  156.1301 H   0  0  0  0  0  0  0  0  0  0  0  0  # atno 8010 bound_to 7997
  139.6100  144.0835  152.1832 H   0  0  0  0  0  0  0  0  0  0  0  0  # atno 10167 bound_to 10162
  156.6259  130.8910  151.2967 H   0  0  0  0  0  0  0  0  0  0  0  0  # atno 10718 bound_to 10713
  154.3967  135.2754  155.2121 H   0  0  0  0  0  0  0  0  0  0  0  0  # atno 10763 bound_to 10752
  154.4164  135.6010  153.5987 H   0  0  0  0  0  0  0  0  0  0  0  0  # atno 10764 bound_to 10752
  152.9831  135.5962  154.4230 H   0  0  0  0  0  0  0  0  0  0  0  0  # atno 10765 bound_to 10752
  140.8773  133.7679  156.0258 H   0  0  0  0  0  0  0  0  0  0  0  0  # atno 11005 bound_to 11000
  144.9954  139.3649  143.6194 LP  0  0  0  0  0  0  0  0  0  0  0  0  # atno 17320 bound_to 7965
  146.3419  139.9154  142.8774 LP  0  0  0  0  0  0  0  0  0  0  0  0  # atno 17321 bound_to 7965
  140.0451  144.5977  150.7380 LP  0  0  0  0  0  0  0  0  0  0  0  0  # atno 17342 bound_to 10162
  140.7312  143.2691  151.3945 LP  0  0  0  0  0  0  0  0  0  0  0  0  # atno 17343 bound_to 10162
  157.7214  130.9563  150.1454 LP  0  0  0  0  0  0  0  0  0  0  0  0  # atno 17370 bound_to 10713
  156.2273  130.3679  149.8485 LP  0  0  0  0  0  0  0  0  0  0  0  0  # atno 17371 bound_to 10713
  140.8503  134.2962  157.5278 LP  0  0  0  0  0  0  0  0  0  0  0  0  # atno 17394 bound_to 11000
  139.8716  134.9464  156.3938 LP  0  0  0  0  0  0  0  0  0  0  0  0  # atno 17395 bound_to 11000

$$$$
