AV-unprocessed.smi:2492|AV-procd|sdf|9811|dock7
  -GOLD-   2272013443D 1   1.00000     0.00000
 Structure written by MMmdl.
 33 34  0  0  0  0  0  0  0  0  1 V2000
  151.3222  143.2268  158.1945 C   0  0  0  0  0  0  0  0  0  0  0  0
  152.2220  143.9063  159.6132 S   0  0  0  0  0  0  0  0  0  0  0  0
  152.7261  142.3702  160.4397 C   0  0  2  0  0  0  0  0  0  0  0  0
  153.2446  142.6116  161.8549 C   0  0  0  0  0  0  0  0  0  0  0  0
  154.0565  141.3569  162.1789 C   0  0  0  0  0  0  0  0  0  0  0  0
  154.6094  140.8498  160.8330 C   0  0  1  0  0  0  0  0  0  0  0  0
  154.3516  139.4202  160.6699 N   0  0  0  0  0  0  0  0  0  0  0  0
  154.6682  138.6845  159.5943 C   0  0  0  0  0  0  0  0  0  0  0  0
  155.2226  139.1391  158.5933 O   0  0  0  0  0  0  0  0  0  0  0  0
  154.2998  137.4026  159.7583 N   0  0  0  0  0  0  0  0  0  0  0  0
  154.4967  136.3228  158.8607 C   0  0  0  0  0  0  0  0  0  0  0  0
  154.0167  135.0857  158.9888 N   0  0  0  0  0  0  0  0  0  0  0  0
  154.5055  134.5027  157.8600 C   0  0  0  0  0  0  0  0  0  0  0  0
  154.2451  133.0759  157.5159 C   0  0  0  0  0  0  0  0  0  0  0  0
  155.2351  135.2839  157.0713 N   0  0  0  0  0  0  0  0  0  0  0  0
  155.2326  136.5163  157.7415 O   0  0  0  0  0  0  0  0  0  0  0  0
  153.8903  141.6619  159.7400 C   0  0  0  0  0  0  0  0  0  0  0  0
  150.9190  144.0358  157.5853 H   0  0  0  0  0  0  0  0  0  0  0  0
  150.4943  142.6031  158.5318 H   0  0  0  0  0  0  0  0  0  0  0  0
  151.9834  142.6240  157.5720 H   0  0  0  0  0  0  0  0  0  0  0  0
  151.8692  141.6966  160.4901 H   0  0  0  0  0  0  0  0  0  0  0  0
  153.9015  143.4829  161.8689 H   0  0  0  0  0  0  0  0  0  0  0  0
  152.4422  142.7878  162.5720 H   0  0  0  0  0  0  0  0  0  0  0  0
  154.8504  141.5612  162.8982 H   0  0  0  0  0  0  0  0  0  0  0  0
  153.3969  140.6141  162.6307 H   0  0  0  0  0  0  0  0  0  0  0  0
  155.6787  141.0634  160.7818 H   0  0  0  0  0  0  0  0  0  0  0  0
  153.8960  138.9555  161.4415 H   0  0  0  0  0  0  0  0  0  0  0  0
  153.8393  137.1691  160.6254 H   0  0  0  0  0  0  0  0  0  0  0  0
  154.7383  132.8023  156.5824 H   0  0  0  0  0  0  0  0  0  0  0  0
  153.1742  132.9060  157.4029 H   0  0  0  0  0  0  0  0  0  0  0  0
  154.6177  132.4243  158.3066 H   0  0  0  0  0  0  0  0  0  0  0  0
  153.5545  141.0506  158.9012 H   0  0  0  0  0  0  0  0  0  0  0  0
  154.5825  142.4022  159.3361 H   0  0  0  0  0  0  0  0  0  0  0  0
  1  2  1  0  0  0  0
  1 18  1  0  0  0  0
  1 19  1  0  0  0  0
  1 20  1  0  0  0  0
  2  3  1  0  0  0  0
  3 17  1  0  0  0  0
  3  4  1  0  0  0  0
  3 21  1  0  0  0  0
  4  5  1  0  0  0  0
  4 22  1  0  0  0  0
  4 23  1  0  0  0  0
  5  6  1  0  0  0  0
  5 24  1  0  0  0  0
  5 25  1  0  0  0  0
  6  7  1  0  0  0  0
  6 17  1  0  0  0  0
  6 26  1  0  0  0  0
  7  8  1  0  0  0  0
  7 27  1  0  0  0  0
  8  9  2  0  0  0  0
  8 10  1  0  0  0  0
 10 11  1  0  0  0  0
 10 28  1  0  0  0  0
 11 16  1  0  0  0  0
 11 12  2  0  0  0  0
 12 13  1  0  0  0  0
 13 14  1  0  0  0  0
 13 15  2  0  0  0  0
 14 29  1  0  0  0  0
 14 30  1  0  0  0  0
 14 31  1  0  0  0  0
 15 16  1  0  0  0  0
 17 32  1  0  0  0  0
 17 33  1  0  0  0  0
M  END
> <s_m_source_file>
AV-unprocessed.smi

> <i_m_source_file_index>
2492

> <i_lp_mmshare_version>
43012

> <i_f3d_flags>
0

> <s_epik_input>
W0NIM11TW0NAQEhdMVtDSDJdW0NIMl1bQ0BIXShbQ0gyXTEpW05IXUMoPU8pW05IXWMybmMoW0NIM10pbm8y

> <s_epik_cmdline>
J2VwaWtfcHl0aG9uJywgJy1waCcsICc3LjAnLCAnLXRuJywgJzgnLCAnLW1hJywgJzIwMCcsICctbWV0YWxfYmluZGluZycsICctaW1hZScsICc8aW5maWxlLm1hZT4nLCAnLW9tYWUnLCAnPG91dGZpbGUubWFlPic=

> <r_lp_tautomer_probability>
1

> <r_epik_Ionization_Penalty>
3.56659e-05

> <r_epik_Ionization_Penalty_Charging>
0

> <r_epik_Ionization_Penalty_Neutral>
3.56659e-05

> <r_epik_State_Penalty>
-0

> <r_epik_Charging_Adjusted_Penalty>
0

> <i_epik_Tot_Q>
0

> <i_epik_Tot_abs_Q>
0

> <r_epik_Metal_State_Penalty>
0.0146047

> <b_epik_Metal_Only>
0

> <s_lp_Force_Field>
OPLS_2005

> <r_lp_Energy>
14.5779

> <b_lp_Chiralities_Consistent>
1

> <s_lp_Variant>
AV-unprocessed.smi:2492-1

> <Gold.Version>
5.8.1

> <Gold.Id.Protein>
6NUR|6NUR_protein|mol2

> <Gold.PLP.Fitness>
39.2832

> <Gold.PLP.PLP>
-30.5045

> <Gold.PLP.part.hbond>
-3.0000

> <Gold.PLP.part.metal>
0.0000

> <Gold.PLP.part.buried>
-3.4173

> <Gold.PLP.part.nonpolar>
-23.8392

> <Gold.PLP.part.repulsive>
0.0852

> <Gold.PLP.ligand.clash>
0.0000

> <Gold.PLP.ligand.torsion>
0.1133

> <Gold.PLP.Chemscore.Hbond>
3.0000

> <Gold.PLP.Chemscore.CHOScore>
0.0000

> <Gold.PLP.Chemscore.Metal>
0.0000

> <Gold.Chemscore.Hbonds>
donor molecule, donor type, donor heavy atom, donor atom, acceptor molecule, acceptor atom, score
      P1  H  6896  6907       L1    12  1.00
      P1  H  7997  8008       L1     9  0.96
      P1  H 10752 10765       L1    15  1.00

> <Gold.PLP.Chemscore.Internal.Correction>
0.0053

> <Gold.Rescore>
     Score         DG    S(hbond)    S(metal)    S(lipo)     H(rot)  DE(clash)    DE(int)     intcor
     18.48     -20.67       2.85        0.00      76.52       1.28       0.03       2.16       ----

> <Gold.Chemscore.Fitness>
18.4828

> <Gold.Chemscore.DG>
-20.6657

> <Gold.Chemscore.ZeroCoef>
-5.4800

> <Gold.Chemscore.Hbond>
2.8484

> <Gold.Chemscore.Metal>
0.0000

> <Gold.Chemscore.Lipo>
76.5209

> <Gold.Chemscore.Internal_Hbond>
0.0000

> <Gold.Chemscore.DEClash>
0.0263

> <Gold.Chemscore.DEInternal>
2.1566

> <Gold.Chemscore.Rot>
1.2815

> <Gold.Chemscore.Internal.Correction>
   9.000000E+99

> <Gold.Chemscore.Hbonds>
donor molecule, donor type, donor heavy atom, donor atom, acceptor molecule, acceptor atom, score
      P1  H  6896  6907       L1    12  0.94
      P1  H  7997  8008       L1     9  0.91
      P1  H 10752 10765       L1    15  0.49

> <Gold.Chemscore.Hbond.Weighted>
-9.5135

> <Gold.Chemscore.Metal.Weighted>
-0.0000

> <Gold.Chemscore.Lipo.Weighted>
-8.9529

> <Gold.Chemscore.Internal_Hbond.Weighted>
0.0000

> <Gold.Chemscore.DEClash.Weighted>
0.0263

> <Gold.Chemscore.DEInternal.Weighted>
2.1566

> <Gold.Chemscore.Rot.Weighted>
3.2808

> <Gold.Chemscore.Internal.Correction.Weighted>
   9.000000E+99

> <Gold.Protein.RotatedTorsions>
[ 6907 6896 6895 6894 ] final   79.41 input  -60.11 | X-H torsion
[ 7974 7965 7964 7962 ] final   94.83 input  175.53 | X-H torsion
[ 8008 7997 7996 7995 ] final -135.31 input   59.86 | X-H torsion
[ 10167 10162 10161 10158 ] final -156.80 input  -65.29 | X-H torsion
[ 10718 10713 10712 10709 ] final  -23.20 input   66.30 | X-H torsion
[ 10763 10752 10751 10750 ] final  -75.84 input  -60.55 | X-H torsion
[ 11005 11000 10999 10996 ] final  -83.37 input  -57.11 | X-H torsion

> <Gold.Protein.ActiveResidues>
 VAL166  LYS551  ARG553  GLY616  TRP617  ASP618  TYR619  PRO620  LYS621  CYS622 
 ASP623  PHE694  ASN695  SER759  ASP760  ASP761  ALA762  ILE779  LEU786  VAL792 
 PHE793  MET794  SER795  GLU796  ALA797  LYS798  CYS799  TRP800  GLU811  SER814 

> <Gold.Protein.RotatedAtoms>
  152.5197  134.3515  159.9252 H   0  0  0  0  0  0  0  0  0  0  0  0  # atno 6907 bound_to 6896
  151.3466  133.3935  159.2684 H   0  0  0  0  0  0  0  0  0  0  0  0  # atno 6908 bound_to 6896
  150.9760  134.9143  159.7874 H   0  0  0  0  0  0  0  0  0  0  0  0  # atno 6909 bound_to 6896
  145.4603  139.2287  143.2991 H   0  0  0  0  0  0  0  0  0  0  0  0  # atno 7974 bound_to 7965
  155.3766  140.0491  157.3044 H   0  0  0  0  0  0  0  0  0  0  0  0  # atno 8008 bound_to 7997
  154.5103  140.2189  155.9131 H   0  0  0  0  0  0  0  0  0  0  0  0  # atno 8009 bound_to 7997
  156.1575  140.3123  155.8756 H   0  0  0  0  0  0  0  0  0  0  0  0  # atno 8010 bound_to 7997
  139.6821  143.9564  152.2342 H   0  0  0  0  0  0  0  0  0  0  0  0  # atno 10167 bound_to 10162
  156.4943  130.4573  149.6737 H   0  0  0  0  0  0  0  0  0  0  0  0  # atno 10718 bound_to 10713
  154.4919  135.5818  153.6465 H   0  0  0  0  0  0  0  0  0  0  0  0  # atno 10763 bound_to 10752
  152.9863  135.6114  154.3114 H   0  0  0  0  0  0  0  0  0  0  0  0  # atno 10764 bound_to 10752
  154.3015  135.2846  155.2588 H   0  0  0  0  0  0  0  0  0  0  0  0  # atno 10765 bound_to 10752
  141.1658  133.7291  156.8711 H   0  0  0  0  0  0  0  0  0  0  0  0  # atno 11005 bound_to 11000
  146.2455  140.5371  142.8916 LP  0  0  0  0  0  0  0  0  0  0  0  0  # atno 17320 bound_to 7965
  144.8007  140.6207  143.6480 LP  0  0  0  0  0  0  0  0  0  0  0  0  # atno 17321 bound_to 7965
  139.9356  144.6714  150.8318 LP  0  0  0  0  0  0  0  0  0  0  0  0  # atno 17342 bound_to 10162
  140.7655  143.3279  151.2476 LP  0  0  0  0  0  0  0  0  0  0  0  0  # atno 17343 bound_to 10162
  156.3396  130.7375  151.2318 LP  0  0  0  0  0  0  0  0  0  0  0  0  # atno 17370 bound_to 10713
  157.7470  131.0407  150.4612 LP  0  0  0  0  0  0  0  0  0  0  0  0  # atno 17371 bound_to 10713
  140.1781  134.9053  157.2915 LP  0  0  0  0  0  0  0  0  0  0  0  0  # atno 17394 bound_to 11000
  140.2426  134.3778  155.7474 LP  0  0  0  0  0  0  0  0  0  0  0  0  # atno 17395 bound_to 11000

$$$$
