AV-unprocessed.smi:1867|AV-procd|sdf|7565|dock1
  -GOLD-   22720 9283D 1   1.00000     0.00000
 Structure written by MMmdl.
 52 55  0  0  0  0  0  0  0  0  2 V2000
  149.1739  134.9946  155.9089 O   0  0  0  0  0  0  0  0  0  0  0  0
  149.0989  135.3571  154.7374 C   0  0  0  0  0  0  0  0  0  0  0  0
  149.4749  136.5687  154.2845 N   0  0  0  0  0  0  0  0  0  0  0  0
  150.0370  137.6508  155.0114 C   0  0  0  0  0  0  0  0  0  0  0  0
  150.1447  137.5235  156.4096 C   0  0  0  0  0  0  0  0  0  0  0  0
  150.6772  138.5890  157.1591 C   0  0  0  0  0  0  0  0  0  0  0  0
  151.0826  139.7661  156.4867 C   0  0  0  0  0  0  0  0  0  0  0  0
  151.6119  140.8608  157.1981 N   0  0  0  0  0  0  0  0  0  0  0  0
  152.2659  140.6967  158.4869 C   0  0  0  0  0  0  0  0  0  0  0  0
  152.5650  142.1211  158.9512 C   0  0  0  0  0  0  0  0  0  0  0  0
  151.4055  142.9269  158.3651 C   0  0  0  0  0  0  0  0  0  0  0  0
  151.0750  142.2067  157.0526 C   0  0  0  0  0  0  0  0  0  0  0  0
  150.9612  139.8966  155.1443 N   0  0  0  0  0  0  0  0  0  0  0  0
  150.4540  138.8708  154.4289 C   0  0  0  0  0  0  0  0  0  0  0  0
  148.5916  134.5452  153.7921 N   0  0  0  0  0  0  0  0  0  0  0  0
  148.0905  133.1759  153.9315 C   0  0  1  0  0  0  0  0  0  0  0  0
  147.0713  132.8095  152.8588 C   0  0  0  0  0  0  0  0  0  0  0  0
  147.0965  131.2806  152.8945 C   0  0  0  0  0  0  0  0  0  0  0  0
  148.4900  130.9044  153.2249 N   0  3  2  0  0  0  0  0  0  0  0  0
  148.6163  129.6932  154.0719 C   0  0  0  0  0  0  0  0  0  0  0  0
  150.0970  129.3687  154.3428 C   0  0  0  0  0  0  0  0  0  0  0  0
  150.9044  130.5891  154.8326 C   0  0  0  0  0  0  0  0  0  0  0  0
  150.0307  131.8417  155.0006 C   0  0  0  0  0  0  0  0  0  0  0  0
  149.1913  132.1186  153.7320 C   0  0  2  0  0  0  0  0  0  0  0  0
  149.2789  136.7581  153.3130 H   0  0  0  0  0  0  0  0  0  0  0  0
  149.8253  136.6188  156.9062 H   0  0  0  0  0  0  0  0  0  0  0  0
  150.7577  138.4937  158.2316 H   0  0  0  0  0  0  0  0  0  0  0  0
  151.5860  140.2001  159.1802 H   0  0  0  0  0  0  0  0  0  0  0  0
  153.1749  140.1000  158.4053 H   0  0  0  0  0  0  0  0  0  0  0  0
  152.6418  142.2067  160.0354 H   0  0  0  0  0  0  0  0  0  0  0  0
  153.5061  142.4610  158.5171 H   0  0  0  0  0  0  0  0  0  0  0  0
  150.5486  142.8710  159.0378 H   0  0  0  0  0  0  0  0  0  0  0  0
  151.6489  143.9798  158.2206 H   0  0  0  0  0  0  0  0  0  0  0  0
  151.5682  142.6928  156.2103 H   0  0  0  0  0  0  0  0  0  0  0  0
  150.0003  142.2053  156.8681 H   0  0  0  0  0  0  0  0  0  0  0  0
  150.3662  139.0590  153.3704 H   0  0  0  0  0  0  0  0  0  0  0  0
  148.5410  134.9331  152.8610 H   0  0  0  0  0  0  0  0  0  0  0  0
  147.6052  133.0304  154.8988 H   0  0  0  0  0  0  0  0  0  0  0  0
  146.0804  133.2204  153.0547 H   0  0  0  0  0  0  0  0  0  0  0  0
  147.3992  133.1649  151.8806 H   0  0  0  0  0  0  0  0  0  0  0  0
  146.4205  130.9290  153.6758 H   0  0  0  0  0  0  0  0  0  0  0  0
  146.7763  130.8348  151.9526 H   0  0  0  0  0  0  0  0  0  0  0  0
  148.0878  129.8468  155.0141 H   0  0  0  0  0  0  0  0  0  0  0  0
  148.1336  128.8502  153.5762 H   0  0  0  0  0  0  0  0  0  0  0  0
  150.1626  128.5622  155.0738 H   0  0  0  0  0  0  0  0  0  0  0  0
  150.5541  128.9827  153.4307 H   0  0  0  0  0  0  0  0  0  0  0  0
  151.4041  130.3567  155.7734 H   0  0  0  0  0  0  0  0  0  0  0  0
  151.6975  130.8030  154.1152 H   0  0  0  0  0  0  0  0  0  0  0  0
  149.3760  131.7104  155.8633 H   0  0  0  0  0  0  0  0  0  0  0  0
  150.6622  132.7008  155.2288 H   0  0  0  0  0  0  0  0  0  0  0  0
  149.8575  132.4370  152.9284 H   0  0  0  0  0  0  0  0  0  0  0  0
  148.9413  130.6822  152.3489 H   0  0  0  0  0  0  0  0  0  0  0  0
  1  2  2  0  0  0  0
  2  3  1  0  0  0  0
  2 15  1  0  0  0  0
  3  4  1  0  0  0  0
  3 25  1  0  0  0  0
  4 14  1  0  0  0  0
  4  5  2  0  0  0  0
  5  6  1  0  0  0  0
  5 26  1  0  0  0  0
  6  7  2  0  0  0  0
  6 27  1  0  0  0  0
  7  8  1  0  0  0  0
  7 13  1  0  0  0  0
  8 12  1  0  0  0  0
  8  9  1  0  0  0  0
  9 10  1  0  0  0  0
  9 28  1  0  0  0  0
  9 29  1  0  0  0  0
 10 11  1  0  0  0  0
 10 30  1  0  0  0  0
 10 31  1  0  0  0  0
 11 12  1  0  0  0  0
 11 32  1  0  0  0  0
 11 33  1  0  0  0  0
 12 34  1  0  0  0  0
 12 35  1  0  0  0  0
 13 14  2  0  0  0  0
 14 36  1  0  0  0  0
 15 16  1  0  0  0  0
 15 37  1  0  0  0  0
 16 24  1  0  0  0  0
 16 17  1  0  0  0  0
 16 38  1  0  0  0  0
 17 18  1  0  0  0  0
 17 39  1  0  0  0  0
 17 40  1  0  0  0  0
 18 19  1  0  0  0  0
 18 41  1  0  0  0  0
 18 42  1  0  0  0  0
 19 24  1  0  0  0  0
 19 20  1  0  0  0  0
 19 52  1  0  0  0  0
 20 21  1  0  0  0  0
 20 43  1  0  0  0  0
 20 44  1  0  0  0  0
 21 22  1  0  0  0  0
 21 45  1  0  0  0  0
 21 46  1  0  0  0  0
 22 23  1  0  0  0  0
 22 47  1  0  0  0  0
 22 48  1  0  0  0  0
 23 24  1  0  0  0  0
 23 49  1  0  0  0  0
 23 50  1  0  0  0  0
 24 51  1  0  0  0  0
M  CHG  1  19   1
M  END
> <s_m_source_file>
AV-unprocessed.smi

> <i_m_source_file_index>
1867

> <i_lp_mmshare_version>
43012

> <i_f3d_flags>
0

> <s_epik_input>
W0NIMl0xW0NIMl1bQ0gyXVtDSDJdW0NASF0oTjEyKVtDQEBIXShbQ0gyXVtDSDJdMilbTkhdQyg9TylbTkhdYzNbY0hdW2NIXWMobltjSF0zKU40W0NIMl1bQ0gyXVtDSDJdW0NIMl00

> <s_epik_cmdline>
J2VwaWtfcHl0aG9uJywgJy1waCcsICc3LjAnLCAnLXRuJywgJzgnLCAnLW1hJywgJzIwMCcsICctbWV0YWxfYmluZGluZycsICctaW1hZScsICc8aW5maWxlLm1hZT4nLCAnLW9tYWUnLCAnPG91dGZpbGUubWFlPic=

> <r_lp_tautomer_probability>
1

> <r_epik_Ionization_Penalty>
0.0751123

> <r_epik_Ionization_Penalty_Charging>
0.000974069

> <r_epik_Ionization_Penalty_Neutral>
0.0741382

> <r_epik_State_Penalty>
0.0647261

> <r_epik_Charging_Adjusted_Penalty>
0.0657002

> <i_epik_Tot_Q>
1

> <i_epik_Tot_abs_Q>
1

> <r_epik_Metal_State_Penalty>
0.0580571

> <b_epik_Metal_Only>
0

> <s_lp_Force_Field>
OPLS_2005

> <r_lp_Energy>
75.5013

> <b_lp_Chiralities_Consistent>
1

> <s_lp_Variant>
AV-unprocessed.smi:1867-6

> <Gold.Version>
5.8.1

> <Gold.Id.Protein>
6NUR|6NUR_protein|mol2

> <Gold.PLP.Fitness>
49.5539

> <Gold.PLP.PLP>
-37.5262

> <Gold.PLP.part.hbond>
-3.9125

> <Gold.PLP.part.metal>
0.0000

> <Gold.PLP.part.buried>
-2.6345

> <Gold.PLP.part.nonpolar>
-30.3379

> <Gold.PLP.part.repulsive>
0.1095

> <Gold.PLP.ligand.clash>
0.0000

> <Gold.PLP.ligand.torsion>
0.9705

> <Gold.PLP.Chemscore.Hbond>
3.5948

> <Gold.PLP.Chemscore.CHOScore>
1.0000

> <Gold.PLP.Chemscore.Metal>
0.0000

> <Gold.Chemscore.Hbonds>
donor molecule, donor type, donor heavy atom, donor atom, acceptor molecule, acceptor atom, score
      L1  H     3    25       P1  7948  0.99
      L1  H    15    37       P1  7948  0.94
      L1  H    19    52       P1 10747  0.96
      P1  H  7989  7998       L1    13  0.70
      L1  C    14    36       P1  7957  1.00

> <Gold.PLP.Chemscore.Internal.Correction>
0.1845

> <Gold.Rescore>
     Score         DG    S(hbond)    S(metal)    S(lipo)     H(rot)  DE(clash)    DE(int)     intcor
     20.25     -22.65       2.68        0.00      92.04       1.00       0.01       2.39       ----

> <Gold.Chemscore.Fitness>
20.2534

> <Gold.Chemscore.DG>
-22.6530

> <Gold.Chemscore.ZeroCoef>
-5.4800

> <Gold.Chemscore.Hbond>
2.6838

> <Gold.Chemscore.Metal>
0.0000

> <Gold.Chemscore.Lipo>
92.0445

> <Gold.Chemscore.Internal_Hbond>
0.0000

> <Gold.Chemscore.DEClash>
0.0082

> <Gold.Chemscore.DEInternal>
2.3914

> <Gold.Chemscore.Rot>
1.0000

> <Gold.Chemscore.Internal.Correction>
   9.000000E+99

> <Gold.Chemscore.Hbonds>
donor molecule, donor type, donor heavy atom, donor atom, acceptor molecule, acceptor atom, score
      L1  H     3    25       P1  7948  0.86
      L1  H    15    37       P1  7948  0.41
      L1  H    19    52       P1 10747  0.34
      P1  H  7989  7998       L1    13  0.07

> <Gold.Chemscore.Hbond.Weighted>
-8.9638

> <Gold.Chemscore.Metal.Weighted>
-0.0000

> <Gold.Chemscore.Lipo.Weighted>
-10.7692

> <Gold.Chemscore.Internal_Hbond.Weighted>
0.0000

> <Gold.Chemscore.DEClash.Weighted>
0.0082

> <Gold.Chemscore.DEInternal.Weighted>
2.3914

> <Gold.Chemscore.Rot.Weighted>
2.5600

> <Gold.Chemscore.Internal.Correction.Weighted>
   9.000000E+99

> <Gold.Protein.RotatedTorsions>
[ 6907 6896 6895 6894 ] final   78.28 input  -60.11 | X-H torsion
[ 7974 7965 7964 7962 ] final  139.31 input  175.53 | X-H torsion
[ 8008 7997 7996 7995 ] final   88.82 input   59.86 | X-H torsion
[ 10167 10162 10161 10158 ] final   13.57 input  -65.29 | X-H torsion
[ 10718 10713 10712 10709 ] final   55.14 input   66.30 | X-H torsion
[ 10763 10752 10751 10750 ] final   -0.01 input  -60.55 | X-H torsion
[ 11005 11000 10999 10996 ] final   36.31 input  -57.11 | X-H torsion

> <Gold.Protein.ActiveResidues>
 VAL166  LYS551  ARG553  GLY616  TRP617  ASP618  TYR619  PRO620  LYS621  CYS622 
 ASP623  PHE694  ASN695  SER759  ASP760  ASP761  ALA762  ILE779  LEU786  VAL792 
 PHE793  MET794  SER795  GLU796  ALA797  LYS798  CYS799  TRP800  GLU811  SER814 

> <Gold.Protein.RotatedAtoms>
  152.5153  134.3688  159.9310 H   0  0  0  0  0  0  0  0  0  0  0  0  # atno 6907 bound_to 6896
  151.3642  133.3872  159.2700 H   0  0  0  0  0  0  0  0  0  0  0  0  # atno 6908 bound_to 6896
  150.9628  134.9033  159.7799 H   0  0  0  0  0  0  0  0  0  0  0  0  # atno 6909 bound_to 6896
  144.9290  139.5071  143.5627 H   0  0  0  0  0  0  0  0  0  0  0  0  # atno 7974 bound_to 7965
  155.9924  140.3367  155.6766 H   0  0  0  0  0  0  0  0  0  0  0  0  # atno 8008 bound_to 7997
  155.6402  140.0694  157.2639 H   0  0  0  0  0  0  0  0  0  0  0  0  # atno 8009 bound_to 7997
  154.4223  140.1744  156.1552 H   0  0  0  0  0  0  0  0  0  0  0  0  # atno 8010 bound_to 7997
  140.5993  143.8637  150.6949 H   0  0  0  0  0  0  0  0  0  0  0  0  # atno 10167 bound_to 10162
  157.5318  130.8636  149.8698 H   0  0  0  0  0  0  0  0  0  0  0  0  # atno 10718 bound_to 10713
  153.3264  135.6972  153.6986 H   0  0  0  0  0  0  0  0  0  0  0  0  # atno 10763 bound_to 10752
  153.5806  135.3499  155.2874 H   0  0  0  0  0  0  0  0  0  0  0  0  # atno 10764 bound_to 10752
  154.8609  135.4294  154.2441 H   0  0  0  0  0  0  0  0  0  0  0  0  # atno 10765 bound_to 10752
  140.2338  134.3495  155.7953 H   0  0  0  0  0  0  0  0  0  0  0  0  # atno 11005 bound_to 11000
  146.3239  139.8227  142.8923 LP  0  0  0  0  0  0  0  0  0  0  0  0  # atno 17320 bound_to 7965
  145.3172  141.0235  143.3521 LP  0  0  0  0  0  0  0  0  0  0  0  0  # atno 17321 bound_to 7965
  140.2179  143.3832  152.1666 LP  0  0  0  0  0  0  0  0  0  0  0  0  # atno 17342 bound_to 10162
  139.5280  144.7126  151.5158 LP  0  0  0  0  0  0  0  0  0  0  0  0  # atno 17343 bound_to 10162
  156.0428  130.3735  150.1391 LP  0  0  0  0  0  0  0  0  0  0  0  0  # atno 17370 bound_to 10713
  156.9575  130.9794  151.3486 LP  0  0  0  0  0  0  0  0  0  0  0  0  # atno 17371 bound_to 10713
  141.2216  133.7260  156.8775 LP  0  0  0  0  0  0  0  0  0  0  0  0  # atno 17394 bound_to 11000
  140.1723  134.9091  157.2848 LP  0  0  0  0  0  0  0  0  0  0  0  0  # atno 17395 bound_to 11000

$$$$
