AV-unprocessed.smi:11|AV-procd|sdf|56|dock3
  -GOLD-   2262015173D 1   1.00000     0.00000
 Structure written by MMmdl.
 33 35  0  0  0  0  0  0  0  0  1 V2000
  147.3553  141.4364  155.9951 C   0  0  0  0  0  0  0  0  0  0  0  0
  148.2538  140.2658  155.5601 C   0  0  0  0  0  0  0  0  0  0  0  0
  149.5191  140.6639  154.7597 C   0  0  2  0  0  0  0  0  0  0  0  0
  149.1159  141.2545  153.5395 O   0  0  0  0  0  0  0  0  0  0  0  0
  150.4096  139.4466  154.4742 C   0  0  0  0  0  0  0  0  0  0  0  0
  151.2983  139.3629  155.7135 C   0  0  0  0  0  0  0  0  0  0  0  0
  151.4912  140.7464  156.1230 N   0  0  0  0  0  0  0  0  0  0  0  0
  152.0642  141.0648  157.3711 C   0  0  0  0  0  0  0  0  0  0  0  0
  152.7926  140.1074  158.0018 N   0  0  0  0  0  0  0  0  0  0  0  0
  153.3482  140.3647  159.1890 C   0  0  0  0  0  0  0  0  0  0  0  0
  153.3048  141.4907  159.9046 N   0  0  0  0  0  0  0  0  0  0  0  0
  152.5873  142.4568  159.2656 C   0  0  0  0  0  0  0  0  0  0  0  0
  152.3452  143.7407  159.7071 N   0  0  0  0  0  0  0  0  0  0  0  0
  151.5877  144.4331  158.7792 C   0  0  0  0  0  0  0  0  0  0  0  0
  151.3212  143.6086  157.7160 C   0  0  0  0  0  0  0  0  0  0  0  0
  151.9380  142.3369  158.0025 C   0  0  0  0  0  0  0  0  0  0  0  0
  150.4658  141.5993  155.5372 C   0  0  0  0  0  0  0  0  0  0  0  0
  152.6675  144.1437  160.5752 H   0  0  0  0  0  0  0  0  0  0  0  0
  146.4781  141.0661  156.5258 H   0  0  0  0  0  0  0  0  0  0  0  0
  146.9990  142.0085  155.1385 H   0  0  0  0  0  0  0  0  0  0  0  0
  147.8721  142.1220  156.6654 H   0  0  0  0  0  0  0  0  0  0  0  0
  148.5446  139.7041  156.4485 H   0  0  0  0  0  0  0  0  0  0  0  0
  147.6537  139.5806  154.9598 H   0  0  0  0  0  0  0  0  0  0  0  0
  148.8366  140.5682  152.9529 H   0  0  0  0  0  0  0  0  0  0  0  0
  149.8510  138.5287  154.2882 H   0  0  0  0  0  0  0  0  0  0  0  0
  151.0376  139.6330  153.6013 H   0  0  0  0  0  0  0  0  0  0  0  0
  150.7951  138.8067  156.5055 H   0  0  0  0  0  0  0  0  0  0  0  0
  152.2480  138.8724  155.4980 H   0  0  0  0  0  0  0  0  0  0  0  0
  153.9067  139.5520  159.6293 H   0  0  0  0  0  0  0  0  0  0  0  0
  151.3011  145.4606  158.9501 H   0  0  0  0  0  0  0  0  0  0  0  0
  150.7566  143.8628  156.8318 H   0  0  0  0  0  0  0  0  0  0  0  0
  150.9595  142.3001  154.8627 H   0  0  0  0  0  0  0  0  0  0  0  0
  149.9386  142.1789  156.2937 H   0  0  0  0  0  0  0  0  0  0  0  0
  1  2  1  0  0  0  0
  1 19  1  0  0  0  0
  1 20  1  0  0  0  0
  1 21  1  0  0  0  0
  2  3  1  0  0  0  0
  2 22  1  0  0  0  0
  2 23  1  0  0  0  0
  3 17  1  0  0  0  0
  3  4  1  0  0  0  0
  3  5  1  0  0  0  0
  4 24  1  0  0  0  0
  5  6  1  0  0  0  0
  5 25  1  0  0  0  0
  5 26  1  0  0  0  0
  6  7  1  0  0  0  0
  6 27  1  0  0  0  0
  6 28  1  0  0  0  0
  7  8  1  0  0  0  0
  7 17  1  0  0  0  0
  8 16  1  0  0  0  0
  8  9  2  0  0  0  0
  9 10  1  0  0  0  0
 10 11  2  0  0  0  0
 10 29  1  0  0  0  0
 11 12  1  0  0  0  0
 12 16  2  0  0  0  0
 12 13  1  0  0  0  0
 13 18  1  0  0  0  0
 13 14  1  0  0  0  0
 14 15  2  0  0  0  0
 14 30  1  0  0  0  0
 15 16  1  0  0  0  0
 15 31  1  0  0  0  0
 17 32  1  0  0  0  0
 17 33  1  0  0  0  0
M  END
> <s_m_source_file>
AV-unprocessed.smi

> <i_m_source_file_index>
11

> <i_lp_mmshare_version>
43012

> <i_f3d_flags>
0

> <s_epik_input>
W0NIM11bQ0gyXVtDQEBdMShbT0hdKVtDSDJdW0NIMl1OKFtDSDJdMSljKG5bY0hdbjIpYyhjMjMpW2NIXVtjSF1bbkhdMw==

> <s_epik_cmdline>
J2VwaWtfcHl0aG9uJywgJy1waCcsICc3LjAnLCAnLXRuJywgJzgnLCAnLW1hJywgJzIwMCcsICctbWV0YWxfYmluZGluZycsICctaW1hZScsICc8aW5maWxlLm1hZT4nLCAnLW9tYWUnLCAnPG91dGZpbGUubWFlPic=

> <r_lp_tautomer_probability>
0.999998

> <r_epik_Ionization_Penalty>
0.0511253

> <r_epik_Ionization_Penalty_Charging>
0

> <r_epik_Ionization_Penalty_Neutral>
0.0511253

> <r_epik_State_Penalty>
0.0394181

> <r_epik_Charging_Adjusted_Penalty>
0.0394181

> <i_epik_Tot_Q>
0

> <i_epik_Tot_abs_Q>
0

> <r_epik_Metal_State_Penalty>
0.0367127

> <b_epik_Metal_Only>
0

> <s_lp_Force_Field>
OPLS_2005

> <r_lp_Energy>
27.4112

> <b_lp_Chiralities_Consistent>
1

> <s_lp_Variant>
AV-unprocessed.smi:11-2

> <Gold.Version>
5.8.1

> <Gold.Id.Protein>
6NUR|6NUR_protein|mol2

> <Gold.PLP.Fitness>
41.1282

> <Gold.PLP.PLP>
-33.4678

> <Gold.PLP.part.hbond>
-4.0000

> <Gold.PLP.part.metal>
0.0000

> <Gold.PLP.part.buried>
-3.6422

> <Gold.PLP.part.nonpolar>
-23.5276

> <Gold.PLP.part.repulsive>
0.0323

> <Gold.PLP.ligand.clash>
0.0000

> <Gold.PLP.ligand.torsion>
0.1361

> <Gold.PLP.Chemscore.Hbond>
2.5590

> <Gold.PLP.Chemscore.CHOScore>
0.0000

> <Gold.PLP.Chemscore.Metal>
0.0000

> <Gold.Chemscore.Hbonds>
donor molecule, donor type, donor heavy atom, donor atom, acceptor molecule, acceptor atom, score
      L1  H     4    24       P1  7957  0.58
      P1  H  7997  8009       L1     9  0.74
      P1  H  8011  8017       L1     4  0.91

> <Gold.PLP.Chemscore.Internal.Correction>
0.2557

> <Gold.Rescore>
     Score         DG    S(hbond)    S(metal)    S(lipo)     H(rot)  DE(clash)    DE(int)     intcor
     12.81     -13.61       1.17        0.00      67.39       1.43       0.09       0.72       ----

> <Gold.Chemscore.Fitness>
12.8070

> <Gold.Chemscore.DG>
-13.6104

> <Gold.Chemscore.ZeroCoef>
-5.4800

> <Gold.Chemscore.Hbond>
1.1685

> <Gold.Chemscore.Metal>
0.0000

> <Gold.Chemscore.Lipo>
67.3861

> <Gold.Chemscore.Internal_Hbond>
0.0000

> <Gold.Chemscore.DEClash>
0.0872

> <Gold.Chemscore.DEInternal>
0.7161

> <Gold.Chemscore.Rot>
1.4283

> <Gold.Chemscore.Internal.Correction>
   9.000000E+99

> <Gold.Chemscore.Hbonds>
donor molecule, donor type, donor heavy atom, donor atom, acceptor molecule, acceptor atom, score
      L1  H     4    24       P1  7957  0.55
      P1  H  7997  8009       L1     9  0.04
      P1  H  8011  8017       L1     4  0.20

> <Gold.Chemscore.Hbond.Weighted>
-3.9028

> <Gold.Chemscore.Metal.Weighted>
-0.0000

> <Gold.Chemscore.Lipo.Weighted>
-7.8842

> <Gold.Chemscore.Internal_Hbond.Weighted>
0.0000

> <Gold.Chemscore.DEClash.Weighted>
0.0872

> <Gold.Chemscore.DEInternal.Weighted>
0.7161

> <Gold.Chemscore.Rot.Weighted>
3.6566

> <Gold.Chemscore.Internal.Correction.Weighted>
   9.000000E+99

> <Gold.Protein.RotatedTorsions>
[ 6907 6896 6895 6894 ] final  126.23 input  -60.11 | X-H torsion
[ 7974 7965 7964 7962 ] final  133.03 input  175.53 | X-H torsion
[ 8008 7997 7996 7995 ] final  156.67 input   59.86 | X-H torsion
[ 10167 10162 10161 10158 ] final  138.73 input  -65.29 | X-H torsion
[ 10718 10713 10712 10709 ] final  167.10 input   66.30 | X-H torsion
[ 10763 10752 10751 10750 ] final   77.31 input  -60.55 | X-H torsion
[ 11005 11000 10999 10996 ] final  -40.87 input  -57.11 | X-H torsion

> <Gold.Protein.ActiveResidues>
 VAL166  LYS551  ARG553  GLY616  TRP617  ASP618  TYR619  PRO620  LYS621  CYS622 
 ASP623  PHE694  ASN695  SER759  ASP760  ASP761  ALA762  ILE779  LEU786  VAL792 
 PHE793  MET794  SER795  GLU796  ALA797  LYS798  CYS799  TRP800  GLU811  SER814 

> <Gold.Protein.RotatedAtoms>
  152.3922  133.6695  159.6246 H   0  0  0  0  0  0  0  0  0  0  0  0  # atno 6907 bound_to 6896
  150.7828  133.8935  159.3329 H   0  0  0  0  0  0  0  0  0  0  0  0  # atno 6908 bound_to 6896
  151.6719  135.0976  160.0251 H   0  0  0  0  0  0  0  0  0  0  0  0  # atno 6909 bound_to 6896
  144.9907  139.4409  143.5340 H   0  0  0  0  0  0  0  0  0  0  0  0  # atno 7974 bound_to 7965
  156.2409  140.1906  156.6990 H   0  0  0  0  0  0  0  0  0  0  0  0  # atno 8008 bound_to 7997
  154.6195  140.0610  156.9624 H   0  0  0  0  0  0  0  0  0  0  0  0  # atno 8009 bound_to 7997
  155.1884  140.3282  155.4365 H   0  0  0  0  0  0  0  0  0  0  0  0  # atno 8010 bound_to 7997
  139.5101  144.6336  151.5754 H   0  0  0  0  0  0  0  0  0  0  0  0  # atno 10167 bound_to 10162
  157.0564  131.0328  151.2662 H   0  0  0  0  0  0  0  0  0  0  0  0  # atno 10718 bound_to 10713
  153.0789  135.4919  154.8462 H   0  0  0  0  0  0  0  0  0  0  0  0  # atno 10763 bound_to 10752
  154.7124  135.3022  154.9178 H   0  0  0  0  0  0  0  0  0  0  0  0  # atno 10764 bound_to 10752
  153.9868  135.6783  153.4805 H   0  0  0  0  0  0  0  0  0  0  0  0  # atno 10765 bound_to 10752
  141.0206  133.6865  156.2380 H   0  0  0  0  0  0  0  0  0  0  0  0  # atno 11005 bound_to 11000
  146.3430  139.9237  142.8763 LP  0  0  0  0  0  0  0  0  0  0  0  0  # atno 17320 bound_to 7965
  145.2289  140.9965  143.4002 LP  0  0  0  0  0  0  0  0  0  0  0  0  # atno 17321 bound_to 7965
  140.6077  143.9493  150.6431 LP  0  0  0  0  0  0  0  0  0  0  0  0  # atno 17342 bound_to 10162
  140.2726  143.3445  152.1224 LP  0  0  0  0  0  0  0  0  0  0  0  0  # atno 17343 bound_to 10162
  157.4989  130.7868  149.7584 LP  0  0  0  0  0  0  0  0  0  0  0  0  # atno 17370 bound_to 10713
  155.9992  130.3890  150.2674 LP  0  0  0  0  0  0  0  0  0  0  0  0  # atno 17371 bound_to 10713
  140.6580  134.4997  157.5582 LP  0  0  0  0  0  0  0  0  0  0  0  0  # atno 17394 bound_to 11000
  139.9143  134.8278  156.1418 LP  0  0  0  0  0  0  0  0  0  0  0  0  # atno 17395 bound_to 11000

$$$$
