AV-unprocessed.smi:570|AV-procd|sdf|2961|dock8
  -GOLD-   2262023463D 1   1.00000     0.00000
 Structure written by MMmdl.
 40 41  0  0  0  0  0  0  0  0  1 V2000
  151.7861  143.3962  157.4842 C   0  0  0  0  0  0  0  0  0  0  0  0
  151.4513  144.7478  157.7459 O   0  0  0  0  0  0  0  0  0  0  0  0
  152.4583  145.4248  158.4784 C   0  0  0  0  0  0  0  0  0  0  0  0
  151.8966  145.8102  159.8513 C   0  0  0  0  0  0  0  0  0  0  0  0
  151.3522  144.5998  160.6267 C   0  0  0  0  0  0  0  0  0  0  0  0
  152.4112  143.9201  161.3623 N   0  0  0  0  0  0  0  0  0  0  0  0
  153.1582  142.9120  160.8844 C   0  0  0  0  0  0  0  0  0  0  0  0
  153.0206  142.4369  159.7565 O   0  0  0  0  0  0  0  0  0  0  0  0
  154.1376  142.3146  161.8530 C   0  0  0  0  0  0  0  0  0  0  0  0
  154.1397  142.8375  163.1007 N   0  0  0  0  0  0  0  0  0  0  0  0
  154.9945  142.3417  164.0036 C   0  0  0  0  0  0  0  0  0  0  0  0
  154.9839  142.9078  165.2850 N   0  0  0  0  0  0  0  0  0  0  0  0
  154.7403  144.3367  165.4986 C   0  0  0  0  0  0  0  0  0  0  0  0
  154.0540  144.5804  166.8535 C   0  0  0  0  0  0  0  0  0  0  0  0
  154.8242  143.9971  167.8968 O   0  0  0  0  0  0  0  0  0  0  0  0
  154.9349  142.5883  167.7377 C   0  0  0  0  0  0  0  0  0  0  0  0
  155.6582  142.2688  166.4185 C   0  0  0  0  0  0  0  0  0  0  0  0
  155.8590  141.3470  163.7695 N   0  0  0  0  0  0  0  0  0  0  0  0
  155.8664  140.7976  162.5375 C   0  0  0  0  0  0  0  0  0  0  0  0
  155.0080  141.2457  161.5149 C   0  0  0  0  0  0  0  0  0  0  0  0
  155.0372  140.4721  159.9668 Cl  0  0  0  0  0  0  0  0  0  0  0  0
  150.9823  142.9217  156.9215 H   0  0  0  0  0  0  0  0  0  0  0  0
  151.9233  142.8377  158.4111 H   0  0  0  0  0  0  0  0  0  0  0  0
  152.6994  143.3231  156.8923 H   0  0  0  0  0  0  0  0  0  0  0  0
  153.3307  144.7802  158.5984 H   0  0  0  0  0  0  0  0  0  0  0  0
  152.7775  146.3175  157.9382 H   0  0  0  0  0  0  0  0  0  0  0  0
  152.6780  146.2969  160.4365 H   0  0  0  0  0  0  0  0  0  0  0  0
  151.1059  146.5497  159.7170 H   0  0  0  0  0  0  0  0  0  0  0  0
  150.5570  144.9063  161.3088 H   0  0  0  0  0  0  0  0  0  0  0  0
  150.9082  143.8839  159.9345 H   0  0  0  0  0  0  0  0  0  0  0  0
  152.5834  144.2284  162.3084 H   0  0  0  0  0  0  0  0  0  0  0  0
  155.6950  144.8626  165.4620 H   0  0  0  0  0  0  0  0  0  0  0  0
  154.1125  144.7664  164.7185 H   0  0  0  0  0  0  0  0  0  0  0  0
  153.9608  145.6506  167.0384 H   0  0  0  0  0  0  0  0  0  0  0  0
  153.0434  144.1684  166.8571 H   0  0  0  0  0  0  0  0  0  0  0  0
  155.4940  142.1799  168.5798 H   0  0  0  0  0  0  0  0  0  0  0  0
  153.9454  142.1286  167.7600 H   0  0  0  0  0  0  0  0  0  0  0  0
  155.7070  141.1855  166.3118 H   0  0  0  0  0  0  0  0  0  0  0  0
  156.6868  142.6285  166.4592 H   0  0  0  0  0  0  0  0  0  0  0  0
  156.5595  139.9866  162.3693 H   0  0  0  0  0  0  0  0  0  0  0  0
  1  2  1  0  0  0  0
  1 22  1  0  0  0  0
  1 23  1  0  0  0  0
  1 24  1  0  0  0  0
  2  3  1  0  0  0  0
  3  4  1  0  0  0  0
  3 25  1  0  0  0  0
  3 26  1  0  0  0  0
  4  5  1  0  0  0  0
  4 27  1  0  0  0  0
  4 28  1  0  0  0  0
  5  6  1  0  0  0  0
  5 29  1  0  0  0  0
  5 30  1  0  0  0  0
  6  7  1  0  0  0  0
  6 31  1  0  0  0  0
  7  8  2  0  0  0  0
  7  9  1  0  0  0  0
  9 20  1  0  0  0  0
  9 10  2  0  0  0  0
 10 11  1  0  0  0  0
 11 12  1  0  0  0  0
 11 18  2  0  0  0  0
 12 17  1  0  0  0  0
 12 13  1  0  0  0  0
 13 14  1  0  0  0  0
 13 32  1  0  0  0  0
 13 33  1  0  0  0  0
 14 15  1  0  0  0  0
 14 34  1  0  0  0  0
 14 35  1  0  0  0  0
 15 16  1  0  0  0  0
 16 17  1  0  0  0  0
 16 36  1  0  0  0  0
 16 37  1  0  0  0  0
 17 38  1  0  0  0  0
 17 39  1  0  0  0  0
 18 19  1  0  0  0  0
 19 20  2  0  0  0  0
 19 40  1  0  0  0  0
 20 21  1  0  0  0  0
M  END
> <s_m_source_file>
AV-unprocessed.smi

> <i_m_source_file_index>
570

> <i_lp_mmshare_version>
43012

> <i_f3d_flags>
0

> <s_epik_input>
W0NIM11PW0NIMl1bQ0gyXVtDSDJdW05IXUMoPU8pYzFuYyhuW2NIXWMxQ2wpTjJbQ0gyXVtDSDJdT1tDSDJdW0NIMl0y

> <s_epik_cmdline>
J2VwaWtfcHl0aG9uJywgJy1waCcsICc3LjAnLCAnLXRuJywgJzgnLCAnLW1hJywgJzIwMCcsICctbWV0YWxfYmluZGluZycsICctaW1hZScsICc8aW5maWxlLm1hZT4nLCAnLW9tYWUnLCAnPG91dGZpbGUubWFlPic=

> <r_lp_tautomer_probability>
1

> <r_epik_Ionization_Penalty>
2.32145e-05

> <r_epik_Ionization_Penalty_Charging>
0

> <r_epik_Ionization_Penalty_Neutral>
2.32145e-05

> <r_epik_State_Penalty>
-0

> <r_epik_Charging_Adjusted_Penalty>
0

> <i_epik_Tot_Q>
0

> <i_epik_Tot_abs_Q>
0

> <r_epik_Metal_State_Penalty>
0.0219249

> <b_epik_Metal_Only>
0

> <s_lp_Force_Field>
OPLS_2005

> <r_lp_Energy>
13.2289

> <b_lp_Chiralities_Consistent>
1

> <s_lp_Variant>
AV-unprocessed.smi:570-1

> <Gold.Version>
5.8.1

> <Gold.Id.Protein>
6NUR|6NUR_protein|mol2

> <Gold.PLP.Fitness>
46.7084

> <Gold.PLP.PLP>
-48.5096

> <Gold.PLP.part.hbond>
-1.7125

> <Gold.PLP.part.metal>
0.0000

> <Gold.PLP.part.buried>
-5.2066

> <Gold.PLP.part.nonpolar>
-41.9333

> <Gold.PLP.part.repulsive>
0.3527

> <Gold.PLP.ligand.clash>
0.0000

> <Gold.PLP.ligand.torsion>
1.0009

> <Gold.PLP.Chemscore.Hbond>
0.0000

> <Gold.PLP.Chemscore.CHOScore>
0.0000

> <Gold.PLP.Chemscore.Metal>
0.0000

> <Gold.PLP.Chemscore.Internal.Correction>
0.2006

> <Gold.Rescore>
     Score         DG    S(hbond)    S(metal)    S(lipo)     H(rot)  DE(clash)    DE(int)     intcor
     12.03     -14.94       0.00        0.00     116.54       1.63       0.58       2.33       ----

> <Gold.Chemscore.Fitness>
12.0290

> <Gold.Chemscore.DG>
-14.9407

> <Gold.Chemscore.ZeroCoef>
-5.4800

> <Gold.Chemscore.Hbond>
0.0000

> <Gold.Chemscore.Metal>
0.0000

> <Gold.Chemscore.Lipo>
116.5440

> <Gold.Chemscore.Internal_Hbond>
0.0000

> <Gold.Chemscore.DEClash>
0.5798

> <Gold.Chemscore.DEInternal>
2.3319

> <Gold.Chemscore.Rot>
1.6308

> <Gold.Chemscore.Internal.Correction>
   9.000000E+99

> <Gold.Chemscore.Hbond.Weighted>
-0.0000

> <Gold.Chemscore.Metal.Weighted>
-0.0000

> <Gold.Chemscore.Lipo.Weighted>
-13.6356

> <Gold.Chemscore.Internal_Hbond.Weighted>
0.0000

> <Gold.Chemscore.DEClash.Weighted>
0.5798

> <Gold.Chemscore.DEInternal.Weighted>
2.3319

> <Gold.Chemscore.Rot.Weighted>
4.1749

> <Gold.Chemscore.Internal.Correction.Weighted>
   9.000000E+99

> <Gold.Protein.RotatedTorsions>
[ 6907 6896 6895 6894 ] final -113.00 input  -60.11 | X-H torsion
[ 7974 7965 7964 7962 ] final  158.03 input  175.53 | X-H torsion
[ 8008 7997 7996 7995 ] final -109.11 input   59.86 | X-H torsion
[ 10167 10162 10161 10158 ] final -141.65 input  -65.29 | X-H torsion
[ 10718 10713 10712 10709 ] final  155.00 input   66.30 | X-H torsion
[ 10763 10752 10751 10750 ] final  100.15 input  -60.55 | X-H torsion
[ 11005 11000 10999 10996 ] final  163.63 input  -57.11 | X-H torsion

> <Gold.Protein.ActiveResidues>
 VAL166  LYS551  ARG553  GLY616  TRP617  ASP618  TYR619  PRO620  LYS621  CYS622 
 ASP623  PHE694  ASN695  SER759  ASP760  ASP761  ALA762  ILE779  LEU786  VAL792 
 PHE793  MET794  SER795  GLU796  ALA797  LYS798  CYS799  TRP800  GLU811  SER814 

> <Gold.Protein.RotatedAtoms>
  150.7798  133.9007  159.3340 H   0  0  0  0  0  0  0  0  0  0  0  0  # atno 6907 bound_to 6896
  151.6873  135.0950  160.0236 H   0  0  0  0  0  0  0  0  0  0  0  0  # atno 6908 bound_to 6896
  152.3846  133.6555  159.6224 H   0  0  0  0  0  0  0  0  0  0  0  0  # atno 6909 bound_to 6896
  144.7869  139.7423  143.6237 H   0  0  0  0  0  0  0  0  0  0  0  0  # atno 7974 bound_to 7965
  154.9544  140.0400  157.2160 H   0  0  0  0  0  0  0  0  0  0  0  0  # atno 8008 bound_to 7997
  154.7948  140.2841  155.5943 H   0  0  0  0  0  0  0  0  0  0  0  0  # atno 8009 bound_to 7997
  156.2954  140.2566  156.2803 H   0  0  0  0  0  0  0  0  0  0  0  0  # atno 8010 bound_to 7997
  139.8164  143.7633  152.2665 H   0  0  0  0  0  0  0  0  0  0  0  0  # atno 10167 bound_to 10162
  157.2242  131.0725  151.1893 H   0  0  0  0  0  0  0  0  0  0  0  0  # atno 10718 bound_to 10713
  153.3103  135.4089  155.1330 H   0  0  0  0  0  0  0  0  0  0  0  0  # atno 10763 bound_to 10752
  154.8574  135.3563  154.5733 H   0  0  0  0  0  0  0  0  0  0  0  0  # atno 10764 bound_to 10752
  153.6161  135.7066  153.5387 H   0  0  0  0  0  0  0  0  0  0  0  0  # atno 10765 bound_to 10752
  140.2377  134.8075  157.3380 H   0  0  0  0  0  0  0  0  0  0  0  0  # atno 11005 bound_to 11000
  146.2104  139.5457  142.9685 LP  0  0  0  0  0  0  0  0  0  0  0  0  # atno 17320 bound_to 7965
  145.5898  141.0371  143.2076 LP  0  0  0  0  0  0  0  0  0  0  0  0  # atno 17321 bound_to 7965
  139.7798  144.7448  151.0105 LP  0  0  0  0  0  0  0  0  0  0  0  0  # atno 17342 bound_to 10162
  140.7815  143.4554  151.0352 LP  0  0  0  0  0  0  0  0  0  0  0  0  # atno 17343 bound_to 10162
  157.3544  130.7099  149.6461 LP  0  0  0  0  0  0  0  0  0  0  0  0  # atno 17370 bound_to 10713
  155.9680  130.4243  150.4602 LP  0  0  0  0  0  0  0  0  0  0  0  0  # atno 17371 bound_to 10713
  140.1685  134.4639  155.7847 LP  0  0  0  0  0  0  0  0  0  0  0  0  # atno 17394 bound_to 11000
  141.2213  133.6931  156.7666 LP  0  0  0  0  0  0  0  0  0  0  0  0  # atno 17395 bound_to 11000

$$$$
