AV-unprocessed.smi:2156|AV-procd|sdf|8780|dock9
  -GOLD-   2272011563D 1   1.00000     0.00000
 Structure written by MMmdl.
 34 34  0  0  0  0  0  0  0  0  1 V2000
  152.5994  142.6786  161.4855 C   0  0  0  0  0  0  0  0  0  0  0  0
  153.0338  142.3645  160.0499 C   0  0  0  0  0  0  0  0  0  0  0  0
  152.6950  143.5011  159.0697 C   0  0  0  0  0  0  0  0  0  0  0  0
  151.1834  143.7423  158.8840 C   0  0  1  0  0  0  0  0  0  0  0  0
  150.8418  145.2381  158.9247 C   0  0  0  0  0  0  0  0  0  0  0  0
  150.7187  143.1823  157.6158 N   0  0  0  0  0  0  0  0  0  0  0  0
  150.9199  141.9265  157.1861 C   0  0  0  0  0  0  0  0  0  0  0  0
  151.5573  141.0866  157.8228 O   0  0  0  0  0  0  0  0  0  0  0  0
  150.3304  141.5852  155.8103 C   0  0  0  0  0  0  0  0  0  0  0  0
  150.5315  140.1786  155.4328 N   0  0  0  0  0  0  0  0  0  0  0  0
  151.7921  139.6043  155.5161 C   0  0  0  0  0  0  0  0  0  0  0  0
  152.0454  138.3125  155.1986 C   0  0  0  0  0  0  0  0  0  0  0  0
  150.9695  137.4397  154.7411 C   0  0  0  0  0  0  0  0  0  0  0  0
  151.0989  136.2581  154.4289 O   0  0  0  0  0  0  0  0  0  0  0  0
  149.7159  138.0536  154.6733 N   0  0  0  0  0  0  0  0  0  0  0  0
  149.4476  139.3836  155.0007 C   0  0  0  0  0  0  0  0  0  0  0  0
  148.3021  139.8238  154.9097 O   0  0  0  0  0  0  0  0  0  0  0  0
  148.9390  137.4875  154.3646 H   0  0  0  0  0  0  0  0  0  0  0  0
  152.8536  141.8577  162.1563 H   0  0  0  0  0  0  0  0  0  0  0  0
  151.5221  142.8360  161.5460 H   0  0  0  0  0  0  0  0  0  0  0  0
  153.0918  143.5773  161.8578 H   0  0  0  0  0  0  0  0  0  0  0  0
  154.1065  142.1703  160.0421 H   0  0  0  0  0  0  0  0  0  0  0  0
  152.5510  141.4431  159.7223 H   0  0  0  0  0  0  0  0  0  0  0  0
  153.1548  144.4214  159.4321 H   0  0  0  0  0  0  0  0  0  0  0  0
  153.1549  143.2951  158.1021 H   0  0  0  0  0  0  0  0  0  0  0  0
  150.6592  143.2704  159.7170 H   0  0  0  0  0  0  0  0  0  0  0  0
  151.1447  145.6840  159.8724 H   0  0  0  0  0  0  0  0  0  0  0  0
  149.7688  145.3989  158.8151 H   0  0  0  0  0  0  0  0  0  0  0  0
  151.3440  145.7833  158.1248 H   0  0  0  0  0  0  0  0  0  0  0  0
  150.1916  143.8018  157.0174 H   0  0  0  0  0  0  0  0  0  0  0  0
  149.2667  141.8313  155.7912 H   0  0  0  0  0  0  0  0  0  0  0  0
  150.7907  142.2438  155.0722 H   0  0  0  0  0  0  0  0  0  0  0  0
  152.6187  140.2123  155.8555 H   0  0  0  0  0  0  0  0  0  0  0  0
  153.0493  137.9225  155.2854 H   0  0  0  0  0  0  0  0  0  0  0  0
  1  2  1  0  0  0  0
  1 19  1  0  0  0  0
  1 20  1  0  0  0  0
  1 21  1  0  0  0  0
  2  3  1  0  0  0  0
  2 22  1  0  0  0  0
  2 23  1  0  0  0  0
  3  4  1  0  0  0  0
  3 24  1  0  0  0  0
  3 25  1  0  0  0  0
  4  5  1  0  0  0  0
  4  6  1  0  0  0  0
  4 26  1  0  0  0  0
  5 27  1  0  0  0  0
  5 28  1  0  0  0  0
  5 29  1  0  0  0  0
  6  7  1  0  0  0  0
  6 30  1  0  0  0  0
  7  8  2  0  0  0  0
  7  9  1  0  0  0  0
  9 10  1  0  0  0  0
  9 31  1  0  0  0  0
  9 32  1  0  0  0  0
 10 16  1  0  0  0  0
 10 11  1  0  0  0  0
 11 12  2  0  0  0  0
 11 33  1  0  0  0  0
 12 13  1  0  0  0  0
 12 34  1  0  0  0  0
 13 14  2  0  0  0  0
 13 15  1  0  0  0  0
 15 18  1  0  0  0  0
 15 16  1  0  0  0  0
 16 17  2  0  0  0  0
M  END
> <s_m_source_file>
AV-unprocessed.smi

> <i_m_source_file_index>
2156

> <i_lp_mmshare_version>
43012

> <i_f3d_flags>
0

> <s_epik_input>
W0NIM11bQ0gyXVtDSDJdW0NASF0oW0NIM10pW05IXUMoPU8pW0NIMl1uMVtjSF1bY0hdYyg9TylbbkhdYzE9Tw==

> <s_epik_cmdline>
J2VwaWtfcHl0aG9uJywgJy1waCcsICc3LjAnLCAnLXRuJywgJzgnLCAnLW1hJywgJzIwMCcsICctbWV0YWxfYmluZGluZycsICctaW1hZScsICc8aW5maWxlLm1hZT4nLCAnLW9tYWUnLCAnPG91dGZpbGUubWFlPic=

> <r_lp_tautomer_probability>
0.999537

> <r_epik_Ionization_Penalty>
0.00324917

> <r_epik_Ionization_Penalty_Charging>
0.00324916

> <r_epik_Ionization_Penalty_Neutral>
1.93017e-08

> <r_epik_State_Penalty>
0.00229371

> <r_epik_Charging_Adjusted_Penalty>
0.00554286

> <i_epik_Tot_Q>
0

> <i_epik_Tot_abs_Q>
0

> <r_epik_Metal_State_Penalty>
0.364744

> <b_epik_Metal_Only>
0

> <s_lp_Force_Field>
OPLS_2005

> <r_lp_Energy>
3.29576

> <b_lp_Chiralities_Consistent>
1

> <s_lp_Variant>
AV-unprocessed.smi:2156-2

> <Gold.Version>
5.8.1

> <Gold.Id.Protein>
6NUR|6NUR_protein|mol2

> <Gold.PLP.Fitness>
42.8775

> <Gold.PLP.PLP>
-38.5613

> <Gold.PLP.part.hbond>
-1.9147

> <Gold.PLP.part.metal>
0.0000

> <Gold.PLP.part.buried>
-4.3903

> <Gold.PLP.part.nonpolar>
-33.7767

> <Gold.PLP.part.repulsive>
1.5277

> <Gold.PLP.ligand.clash>
0.0000

> <Gold.PLP.ligand.torsion>
0.7635

> <Gold.PLP.Chemscore.Hbond>
1.9425

> <Gold.PLP.Chemscore.CHOScore>
0.0000

> <Gold.PLP.Chemscore.Metal>
0.0000

> <Gold.Chemscore.Hbonds>
donor molecule, donor type, donor heavy atom, donor atom, acceptor molecule, acceptor atom, score
      L1  H     6    30       P1  8028  0.88
      P1  H 10752 10764       L1    14  1.00

> <Gold.PLP.Chemscore.Internal.Correction>
0.0157

> <Gold.Rescore>
     Score         DG    S(hbond)    S(metal)    S(lipo)     H(rot)  DE(clash)    DE(int)     intcor
     13.67     -15.78       1.96        0.00      80.08       2.19       0.11       1.99       ----

> <Gold.Chemscore.Fitness>
13.6749

> <Gold.Chemscore.DG>
-15.7773

> <Gold.Chemscore.ZeroCoef>
-5.4800

> <Gold.Chemscore.Hbond>
1.9601

> <Gold.Chemscore.Metal>
0.0000

> <Gold.Chemscore.Lipo>
80.0807

> <Gold.Chemscore.Internal_Hbond>
0.0000

> <Gold.Chemscore.DEClash>
0.1104

> <Gold.Chemscore.DEInternal>
1.9919

> <Gold.Chemscore.Rot>
2.1949

> <Gold.Chemscore.Internal.Correction>
   9.000000E+99

> <Gold.Chemscore.Hbonds>
donor molecule, donor type, donor heavy atom, donor atom, acceptor molecule, acceptor atom, score
      L1  H     6    30       P1  8028  0.84
      P1  H 10752 10764       L1    14  0.90

> <Gold.Chemscore.Hbond.Weighted>
-6.5467

> <Gold.Chemscore.Metal.Weighted>
-0.0000

> <Gold.Chemscore.Lipo.Weighted>
-9.3694

> <Gold.Chemscore.Internal_Hbond.Weighted>
0.0000

> <Gold.Chemscore.DEClash.Weighted>
0.1104

> <Gold.Chemscore.DEInternal.Weighted>
1.9919

> <Gold.Chemscore.Rot.Weighted>
5.6188

> <Gold.Chemscore.Internal.Correction.Weighted>
   9.000000E+99

> <Gold.Protein.RotatedTorsions>
[ 6907 6896 6895 6894 ] final  135.43 input  -60.11 | X-H torsion
[ 7974 7965 7964 7962 ] final  -15.08 input  175.53 | X-H torsion
[ 8008 7997 7996 7995 ] final  -23.77 input   59.86 | X-H torsion
[ 10167 10162 10161 10158 ] final -168.27 input  -65.29 | X-H torsion
[ 10718 10713 10712 10709 ] final -160.49 input   66.30 | X-H torsion
[ 10763 10752 10751 10750 ] final  -77.23 input  -60.55 | X-H torsion
[ 11005 11000 10999 10996 ] final  -11.44 input  -57.11 | X-H torsion

> <Gold.Protein.ActiveResidues>
 VAL166  LYS551  ARG553  GLY616  TRP617  ASP618  TYR619  PRO620  LYS621  CYS622 
 ASP623  PHE694  ASN695  SER759  ASP760  ASP761  ALA762  ILE779  LEU786  VAL792 
 PHE793  MET794  SER795  GLU796  ALA797  LYS798  CYS799  TRP800  GLU811  SER814 

> <Gold.Protein.RotatedAtoms>
  152.3005  133.5650  159.5614 H   0  0  0  0  0  0  0  0  0  0  0  0  # atno 6907 bound_to 6896
  150.7275  134.0298  159.3738 H   0  0  0  0  0  0  0  0  0  0  0  0  # atno 6908 bound_to 6896
  151.8199  135.0655  160.0474 H   0  0  0  0  0  0  0  0  0  0  0  0  # atno 6909 bound_to 6896
  146.2047  140.3441  142.8411 H   0  0  0  0  0  0  0  0  0  0  0  0  # atno 7974 bound_to 7965
  154.4566  140.1971  156.0362 H   0  0  0  0  0  0  0  0  0  0  0  0  # atno 8008 bound_to 7997
  156.0758  140.3278  155.7604 H   0  0  0  0  0  0  0  0  0  0  0  0  # atno 8009 bound_to 7997
  155.5190  140.0568  157.2901 H   0  0  0  0  0  0  0  0  0  0  0  0  # atno 8010 bound_to 7997
  139.5996  144.1039  152.1728 H   0  0  0  0  0  0  0  0  0  0  0  0  # atno 10167 bound_to 10162
  156.5829  130.8737  151.2869 H   0  0  0  0  0  0  0  0  0  0  0  0  # atno 10718 bound_to 10713
  154.5103  135.5771  153.6599 H   0  0  0  0  0  0  0  0  0  0  0  0  # atno 10763 bound_to 10752
  152.9895  135.6157  154.2888 H   0  0  0  0  0  0  0  0  0  0  0  0  # atno 10764 bound_to 10752
  154.2802  135.2851  155.2680 H   0  0  0  0  0  0  0  0  0  0  0  0  # atno 10765 bound_to 10752
  140.7553  133.8559  155.9079 H   0  0  0  0  0  0  0  0  0  0  0  0  # atno 11005 bound_to 11000
  144.8764  140.7343  143.6014 LP  0  0  0  0  0  0  0  0  0  0  0  0  # atno 17320 bound_to 7965
  145.3361  139.1745  143.4511 LP  0  0  0  0  0  0  0  0  0  0  0  0  # atno 17321 bound_to 7965
  140.0632  144.5840  150.7247 LP  0  0  0  0  0  0  0  0  0  0  0  0  # atno 17342 bound_to 10162
  140.7239  143.2616  151.4186 LP  0  0  0  0  0  0  0  0  0  0  0  0  # atno 17343 bound_to 10162
  157.7322  130.9712  150.1917 LP  0  0  0  0  0  0  0  0  0  0  0  0  # atno 17370 bound_to 10713
  156.2616  130.3711  149.8125 LP  0  0  0  0  0  0  0  0  0  0  0  0  # atno 17371 bound_to 10713
  140.9713  134.1527  157.4574 LP  0  0  0  0  0  0  0  0  0  0  0  0  # atno 17394 bound_to 11000
  139.8780  134.9979  156.5874 LP  0  0  0  0  0  0  0  0  0  0  0  0  # atno 17395 bound_to 11000

$$$$
