AV-unprocessed.smi:1952|AV-procd|sdf|7889|dock10
  -GOLD-   2272010 43D 1   1.00000     0.00000
 Structure written by MMmdl.
 39 40  0  0  0  0  0  0  0  0  3 V2000
  152.4576  140.6494  159.3809 C   0  0  0  0  0  0  0  0  0  0  0  0
  152.1274  140.4274  157.9449 C   0  0  0  0  0  0  0  0  0  0  0  0
  151.1650  140.9397  157.1218 C   0  0  0  0  0  0  0  0  0  0  0  0
  151.4285  140.3028  155.8790 C   0  0  0  0  0  0  0  0  0  0  0  0
  150.7357  140.4757  154.7428 N   0  5  0  0  0  0  0  0  0  0  0  0
  149.4023  140.6908  154.7879 C   0  0  0  0  0  0  0  0  0  0  0  0
  148.7447  140.9871  155.7879 O   0  0  0  0  0  0  0  0  0  0  0  0
  148.7998  140.5888  153.5933 N   0  0  0  0  0  0  0  0  0  0  0  0
  147.3926  140.8634  153.2959 C   0  0  2  0  0  0  0  0  0  0  0  0
  147.0741  142.3208  153.6548 C   0  0  0  0  0  0  0  0  0  0  0  0
  146.4714  139.8794  154.0526 C   0  0  0  0  0  0  0  0  0  0  0  0
  145.7161  138.9866  153.1384 N   0  3  0  0  0  0  0  0  0  0  0  0
  146.5639  138.3242  152.1213 C   0  0  0  0  0  0  0  0  0  0  0  0
  145.6846  137.5128  151.1544 C   0  0  0  0  0  0  0  0  0  0  0  0
  144.9135  136.5670  151.8868 O   0  0  0  0  0  0  0  0  0  0  0  0
  144.0422  137.1959  152.8202 C   0  0  0  0  0  0  0  0  0  0  0  0
  144.8726  137.9908  153.8409 C   0  0  0  0  0  0  0  0  0  0  0  0
  152.4514  139.4664  155.9450 N   0  0  0  0  0  0  0  0  0  0  0  0
  152.9096  139.5461  157.2656 O   0  0  0  0  0  0  0  0  0  0  0  0
  152.5737  139.6998  159.9033 H   0  0  0  0  0  0  0  0  0  0  0  0
  151.6695  141.2145  159.8785 H   0  0  0  0  0  0  0  0  0  0  0  0
  153.3887  141.2073  159.4808 H   0  0  0  0  0  0  0  0  0  0  0  0
  150.3964  141.6572  157.3676 H   0  0  0  0  0  0  0  0  0  0  0  0
  149.3836  140.3311  152.8108 H   0  0  0  0  0  0  0  0  0  0  0  0
  147.2207  140.7572  152.2239 H   0  0  0  0  0  0  0  0  0  0  0  0
  146.0379  142.5652  153.4191 H   0  0  0  0  0  0  0  0  0  0  0  0
  147.7092  143.0099  153.0970 H   0  0  0  0  0  0  0  0  0  0  0  0
  147.2282  142.5129  154.7173 H   0  0  0  0  0  0  0  0  0  0  0  0
  147.0966  139.2689  154.7060 H   0  0  0  0  0  0  0  0  0  0  0  0
  145.7810  140.4143  154.7065 H   0  0  0  0  0  0  0  0  0  0  0  0
  147.1261  139.0724  151.5611 H   0  0  0  0  0  0  0  0  0  0  0  0
  147.2892  137.6738  152.6125 H   0  0  0  0  0  0  0  0  0  0  0  0
  145.0273  138.1699  150.5822 H   0  0  0  0  0  0  0  0  0  0  0  0
  146.3077  136.9806  150.4354 H   0  0  0  0  0  0  0  0  0  0  0  0
  143.3375  137.8468  152.2998 H   0  0  0  0  0  0  0  0  0  0  0  0
  143.4550  136.4304  153.3275 H   0  0  0  0  0  0  0  0  0  0  0  0
  145.5043  137.3149  154.4193 H   0  0  0  0  0  0  0  0  0  0  0  0
  144.2066  138.4871  154.5461 H   0  0  0  0  0  0  0  0  0  0  0  0
  145.0876  139.5896  152.6247 H   0  0  0  0  0  0  0  0  0  0  0  0
  1  2  1  0  0  0  0
  1 20  1  0  0  0  0
  1 21  1  0  0  0  0
  1 22  1  0  0  0  0
  2 19  1  0  0  0  0
  2  3  2  0  0  0  0
  3  4  1  0  0  0  0
  3 23  1  0  0  0  0
  4  5  1  0  0  0  0
  4 18  2  0  0  0  0
  5  6  1  0  0  0  0
  6  7  2  0  0  0  0
  6  8  1  0  0  0  0
  8  9  1  0  0  0  0
  8 24  1  0  0  0  0
  9 10  1  0  0  0  0
  9 11  1  0  0  0  0
  9 25  1  0  0  0  0
 10 26  1  0  0  0  0
 10 27  1  0  0  0  0
 10 28  1  0  0  0  0
 11 12  1  0  0  0  0
 11 29  1  0  0  0  0
 11 30  1  0  0  0  0
 12 17  1  0  0  0  0
 12 13  1  0  0  0  0
 12 39  1  0  0  0  0
 13 14  1  0  0  0  0
 13 31  1  0  0  0  0
 13 32  1  0  0  0  0
 14 15  1  0  0  0  0
 14 33  1  0  0  0  0
 14 34  1  0  0  0  0
 15 16  1  0  0  0  0
 16 17  1  0  0  0  0
 16 35  1  0  0  0  0
 16 36  1  0  0  0  0
 17 37  1  0  0  0  0
 17 38  1  0  0  0  0
 18 19  1  0  0  0  0
M  CHG  1   5  -1
M  CHG  1  12   1
M  END
> <s_m_source_file>
AV-unprocessed.smi

> <i_m_source_file_index>
1952

> <i_lp_mmshare_version>
43012

> <i_f3d_flags>
0

> <s_epik_input>
W0NIM11jMVtjSF1jKG5vMSlbTkhdQyg9TylbTkhdW0NASF0oW0NIM10pW0NIMl1OMltDSDJdW0NIMl1PW0NIMl1bQ0gyXTI=

> <s_epik_cmdline>
J2VwaWtfcHl0aG9uJywgJy1waCcsICc3LjAnLCAnLXRuJywgJzgnLCAnLW1hJywgJzIwMCcsICctbWV0YWxfYmluZGluZycsICctaW1hZScsICc8aW5maWxlLm1hZT4nLCAnLW9tYWUnLCAnPG91dGZpbGUubWFlPic=

> <r_epik_Ionization_Penalty>
6.62152

> <r_epik_Ionization_Penalty_Charging>
6.62142

> <r_epik_Ionization_Penalty_Neutral>
9.8734e-05

> <r_epik_State_Penalty>
6.82189

> <r_epik_Charging_Adjusted_Penalty>
13.4433

> <i_epik_Tot_Q>
0

> <i_epik_Tot_abs_Q>
2

> <r_epik_Metal_State_Penalty>
2.76365

> <b_epik_Metal_Only>
1

> <s_lp_Force_Field>
OPLS_2005

> <r_lp_Energy>
7.85486

> <b_lp_Chiralities_Consistent>
1

> <s_lp_Variant>
AV-unprocessed.smi:1952-7

> <Gold.Version>
5.8.1

> <Gold.Id.Protein>
6NUR|6NUR_protein|mol2

> <Gold.PLP.Fitness>
44.1040

> <Gold.PLP.PLP>
-31.1566

> <Gold.PLP.part.hbond>
-5.0000

> <Gold.PLP.part.metal>
0.0000

> <Gold.PLP.part.buried>
0.0876

> <Gold.PLP.part.nonpolar>
-27.8952

> <Gold.PLP.part.repulsive>
0.5306

> <Gold.PLP.ligand.clash>
0.0000

> <Gold.PLP.ligand.torsion>
1.0619

> <Gold.PLP.Chemscore.Hbond>
5.0000

> <Gold.PLP.Chemscore.CHOScore>
0.0000

> <Gold.PLP.Chemscore.Metal>
0.0000

> <Gold.Chemscore.Hbonds>
donor molecule, donor type, donor heavy atom, donor atom, acceptor molecule, acceptor atom, score
      L1  H     8    24       P1  7957  1.00
      L1  H    12    39       P1 10175  2.00
      P1  H  7989  7998       L1     5  1.00
      P1  H  7997  8009       L1    19  0.95

> <Gold.PLP.Chemscore.Internal.Correction>
0.0712

> <Gold.Rescore>
     Score         DG    S(hbond)    S(metal)    S(lipo)     H(rot)  DE(clash)    DE(int)     intcor
     12.67     -18.92       2.99        0.00      64.16       1.58       2.68       3.56       ----

> <Gold.Chemscore.Fitness>
12.6719

> <Gold.Chemscore.DG>
-18.9174

> <Gold.Chemscore.ZeroCoef>
-5.4800

> <Gold.Chemscore.Hbond>
2.9865

> <Gold.Chemscore.Metal>
0.0000

> <Gold.Chemscore.Lipo>
64.1595

> <Gold.Chemscore.Internal_Hbond>
0.0000

> <Gold.Chemscore.DEClash>
2.6820

> <Gold.Chemscore.DEInternal>
3.5635

> <Gold.Chemscore.Rot>
1.5798

> <Gold.Chemscore.Internal.Correction>
   9.000000E+99

> <Gold.Chemscore.Hbonds>
donor molecule, donor type, donor heavy atom, donor atom, acceptor molecule, acceptor atom, score
      L1  H     8    24       P1  7957  0.95
      L1  H    12    39       P1 10175  0.97
      P1  H  7989  7998       L1     5  0.84
      P1  H  7997  8009       L1    19  0.19

> <Gold.Chemscore.Hbond.Weighted>
-9.9750

> <Gold.Chemscore.Metal.Weighted>
-0.0000

> <Gold.Chemscore.Lipo.Weighted>
-7.5067

> <Gold.Chemscore.Internal_Hbond.Weighted>
0.0000

> <Gold.Chemscore.DEClash.Weighted>
2.6820

> <Gold.Chemscore.DEInternal.Weighted>
3.5635

> <Gold.Chemscore.Rot.Weighted>
4.0442

> <Gold.Chemscore.Internal.Correction.Weighted>
   9.000000E+99

> <Gold.Protein.RotatedTorsions>
[ 6907 6896 6895 6894 ] final  -41.30 input  -60.11 | X-H torsion
[ 7974 7965 7964 7962 ] final  158.55 input  175.53 | X-H torsion
[ 8008 7997 7996 7995 ] final  156.98 input   59.86 | X-H torsion
[ 10167 10162 10161 10158 ] final -162.04 input  -65.29 | X-H torsion
[ 10718 10713 10712 10709 ] final  114.64 input   66.30 | X-H torsion
[ 10763 10752 10751 10750 ] final -100.28 input  -60.55 | X-H torsion
[ 11005 11000 10999 10996 ] final -153.96 input  -57.11 | X-H torsion

> <Gold.Protein.ActiveResidues>
 VAL166  LYS551  ARG553  GLY616  TRP617  ASP618  TYR619  PRO620  LYS621  CYS622 
 ASP623  PHE694  ASN695  SER759  ASP760  ASP761  ALA762  ILE779  LEU786  VAL792 
 PHE793  MET794  SER795  GLU796  ALA797  LYS798  CYS799  TRP800  GLU811  SER814 

> <Gold.Protein.RotatedAtoms>
  150.9683  134.9060  159.7772 H   0  0  0  0  0  0  0  0  0  0  0  0  # atno 6907 bound_to 6896
  152.5181  134.3576  159.9283 H   0  0  0  0  0  0  0  0  0  0  0  0  # atno 6908 bound_to 6896
  151.3586  133.3857  159.2722 H   0  0  0  0  0  0  0  0  0  0  0  0  # atno 6909 bound_to 6896
  144.7839  139.7495  143.6248 H   0  0  0  0  0  0  0  0  0  0  0  0  # atno 7974 bound_to 7965
  156.2391  140.1898  156.7038 H   0  0  0  0  0  0  0  0  0  0  0  0  # atno 8008 bound_to 7997
  154.6163  140.0615  156.9584 H   0  0  0  0  0  0  0  0  0  0  0  0  # atno 8009 bound_to 7997
  155.1935  140.3286  155.4357 H   0  0  0  0  0  0  0  0  0  0  0  0  # atno 8010 bound_to 7997
  139.6421  144.0240  152.2100 H   0  0  0  0  0  0  0  0  0  0  0  0  # atno 10167 bound_to 10162
  157.6269  131.1001  150.7214 H   0  0  0  0  0  0  0  0  0  0  0  0  # atno 10718 bound_to 10713
  154.7566  135.4941  153.9387 H   0  0  0  0  0  0  0  0  0  0  0  0  # atno 10763 bound_to 10752
  153.1203  135.6730  153.9354 H   0  0  0  0  0  0  0  0  0  0  0  0  # atno 10764 bound_to 10752
  153.9088  135.3101  155.3427 H   0  0  0  0  0  0  0  0  0  0  0  0  # atno 10765 bound_to 10752
  140.7025  134.3921  157.5208 H   0  0  0  0  0  0  0  0  0  0  0  0  # atno 11005 bound_to 11000
  146.2061  139.5387  142.9711 LP  0  0  0  0  0  0  0  0  0  0  0  0  # atno 17320 bound_to 7965
  145.5974  141.0360  143.2037 LP  0  0  0  0  0  0  0  0  0  0  0  0  # atno 17321 bound_to 7965
  139.9932  144.6347  150.7796 LP  0  0  0  0  0  0  0  0  0  0  0  0  # atno 17342 bound_to 10162
  140.7496  143.2942  151.3250 LP  0  0  0  0  0  0  0  0  0  0  0  0  # atno 17343 bound_to 10162
  156.7561  130.4784  149.5446 LP  0  0  0  0  0  0  0  0  0  0  0  0  # atno 17370 bound_to 10713
  156.1447  130.6269  151.0516 LP  0  0  0  0  0  0  0  0  0  0  0  0  # atno 17371 bound_to 10713
  139.8893  134.8834  156.2429 LP  0  0  0  0  0  0  0  0  0  0  0  0  # atno 17394 bound_to 11000
  141.0152  133.7073  156.1176 LP  0  0  0  0  0  0  0  0  0  0  0  0  # atno 17395 bound_to 11000

$$$$
