AV-unprocessed.smi:3196|AV-procd|sdf|12222|dock9
  -GOLD-   2272018 53D 1   1.00000     0.00000
 Structure written by MMmdl.
 33 34  0  0  0  0  0  0  0  0  1 V2000
  147.1006  141.1429  153.6225 C   0  0  0  0  0  0  0  0  0  0  0  0
  148.5558  141.1191  154.1020 C   0  0  0  0  0  0  0  0  0  0  0  0
  149.0399  139.7029  154.4410 C   0  0  0  0  0  0  0  0  0  0  0  0
  150.5504  139.6261  154.5785 C   0  0  1  0  0  0  0  0  0  0  0  0
  151.1867  138.9474  155.7620 C   0  0  0  0  0  0  0  0  0  0  0  0
  151.3173  138.3326  154.3831 C   0  0  1  0  0  0  0  0  0  0  0  0
  150.5933  137.1201  154.1383 N   0  0  0  0  0  0  0  0  0  0  0  0
  150.7109  135.9445  154.7811 C   0  0  0  0  0  0  0  0  0  0  0  0
  151.4873  135.8185  155.7250 O   0  0  0  0  0  0  0  0  0  0  0  0
  149.8879  134.9810  154.3206 N   0  0  0  0  0  0  0  0  0  0  0  0
  149.7247  133.6339  154.7496 C   0  0  0  0  0  0  0  0  0  0  0  0
  150.3659  133.0573  155.8738 C   0  0  0  0  0  0  0  0  0  0  0  0
  150.1110  131.7045  156.1767 C   0  0  0  0  0  0  0  0  0  0  0  0
  149.2887  130.9197  155.4491 N   0  0  0  0  0  0  0  0  0  0  0  0
  148.6840  131.4697  154.3753 C   0  0  0  0  0  0  0  0  0  0  0  0
  148.8684  132.8115  153.9862 C   0  0  0  0  0  0  0  0  0  0  0  0
  148.2298  133.2992  152.8948 F   0  0  0  0  0  0  0  0  0  0  0  0
  146.7850  142.1600  153.3893 H   0  0  0  0  0  0  0  0  0  0  0  0
  146.4281  140.7527  154.3867 H   0  0  0  0  0  0  0  0  0  0  0  0
  146.9726  140.5402  152.7230 H   0  0  0  0  0  0  0  0  0  0  0  0
  149.1949  141.5501  153.3305 H   0  0  0  0  0  0  0  0  0  0  0  0
  148.6558  141.7589  154.9795 H   0  0  0  0  0  0  0  0  0  0  0  0
  148.5709  139.3688  155.3673 H   0  0  0  0  0  0  0  0  0  0  0  0
  148.7294  139.0062  153.6616 H   0  0  0  0  0  0  0  0  0  0  0  0
  151.0570  140.5179  154.2140 H   0  0  0  0  0  0  0  0  0  0  0  0
  152.0710  139.4149  156.1901 H   0  0  0  0  0  0  0  0  0  0  0  0
  150.5288  138.4580  156.4781 H   0  0  0  0  0  0  0  0  0  0  0  0
  152.3096  138.4172  153.9427 H   0  0  0  0  0  0  0  0  0  0  0  0
  149.8692  137.1774  153.4367 H   0  0  0  0  0  0  0  0  0  0  0  0
  149.2809  135.2580  153.5629 H   0  0  0  0  0  0  0  0  0  0  0  0
  151.0443  133.6077  156.5056 H   0  0  0  0  0  0  0  0  0  0  0  0
  150.5848  131.2388  157.0283 H   0  0  0  0  0  0  0  0  0  0  0  0
  148.0340  130.8204  153.8077 H   0  0  0  0  0  0  0  0  0  0  0  0
  1  2  1  0  0  0  0
  1 18  1  0  0  0  0
  1 19  1  0  0  0  0
  1 20  1  0  0  0  0
  2  3  1  0  0  0  0
  2 21  1  0  0  0  0
  2 22  1  0  0  0  0
  3  4  1  0  0  0  0
  3 23  1  0  0  0  0
  3 24  1  0  0  0  0
  4  6  1  0  0  0  0
  4  5  1  0  0  0  0
  4 25  1  0  0  0  0
  5  6  1  0  0  0  0
  5 26  1  0  0  0  0
  5 27  1  0  0  0  0
  6  7  1  0  0  0  0
  6 28  1  0  0  0  0
  7  8  1  0  0  0  0
  7 29  1  0  0  0  0
  8  9  2  0  0  0  0
  8 10  1  0  0  0  0
 10 11  1  0  0  0  0
 10 30  1  0  0  0  0
 11 16  1  0  0  0  0
 11 12  2  0  0  0  0
 12 13  1  0  0  0  0
 12 31  1  0  0  0  0
 13 14  2  0  0  0  0
 13 32  1  0  0  0  0
 14 15  1  0  0  0  0
 15 16  2  0  0  0  0
 15 33  1  0  0  0  0
 16 17  1  0  0  0  0
M  END
> <s_m_source_file>
AV-unprocessed.smi

> <i_m_source_file_index>
3196

> <i_lp_mmshare_version>
43012

> <i_f3d_flags>
0

> <s_epik_input>
W0NIM11bQ0gyXVtDSDJdW0NAQEhdMVtDSDJdW0NASF0xW05IXUMoPU8pW05IXWMyW2NIXVtjSF1uW2NIXWMyRg==

> <s_epik_cmdline>
J2VwaWtfcHl0aG9uJywgJy1waCcsICc3LjAnLCAnLXRuJywgJzgnLCAnLW1hJywgJzIwMCcsICctbWV0YWxfYmluZGluZycsICctaW1hZScsICc8aW5maWxlLm1hZT4nLCAnLW9tYWUnLCAnPG91dGZpbGUubWFlPic=

> <r_epik_Ionization_Penalty>
0.00341997

> <r_epik_Ionization_Penalty_Charging>
0

> <r_epik_Ionization_Penalty_Neutral>
0.00341997

> <r_epik_State_Penalty>
0.00239198

> <r_epik_Charging_Adjusted_Penalty>
0.00239198

> <i_epik_Tot_Q>
0

> <i_epik_Tot_abs_Q>
0

> <r_epik_Metal_State_Penalty>
-0

> <b_epik_Metal_Only>
0

> <s_lp_Force_Field>
OPLS_2005

> <r_lp_Energy>
35.1311

> <b_lp_Chiralities_Consistent>
1

> <s_lp_Variant>
AV-unprocessed.smi:3196-2

> <Gold.Version>
5.8.1

> <Gold.Id.Protein>
6NUR|6NUR_protein|mol2

> <Gold.PLP.Fitness>
42.2472

> <Gold.PLP.PLP>
-34.1237

> <Gold.PLP.part.hbond>
-4.3000

> <Gold.PLP.part.metal>
0.0000

> <Gold.PLP.part.buried>
-0.2279

> <Gold.PLP.part.nonpolar>
-29.5080

> <Gold.PLP.part.repulsive>
0.1836

> <Gold.PLP.ligand.clash>
0.0000

> <Gold.PLP.ligand.torsion>
0.5601

> <Gold.PLP.Chemscore.Hbond>
2.8960

> <Gold.PLP.Chemscore.CHOScore>
0.0000

> <Gold.PLP.Chemscore.Metal>
0.0000

> <Gold.Chemscore.Hbonds>
donor molecule, donor type, donor heavy atom, donor atom, acceptor molecule, acceptor atom, score
      L1  H     7    29       P1  7948  0.90
      L1  H    10    30       P1  7948  1.00
      P1  H 10752 10763       L1     9  1.00

> <Gold.PLP.Chemscore.Internal.Correction>
0.5557

> <Gold.Rescore>
     Score         DG    S(hbond)    S(metal)    S(lipo)     H(rot)  DE(clash)    DE(int)     intcor
     13.93     -15.96       1.86        0.00      66.69       1.39       0.44       1.59       ----

> <Gold.Chemscore.Fitness>
13.9274

> <Gold.Chemscore.DG>
-15.9581

> <Gold.Chemscore.ZeroCoef>
-5.4800

> <Gold.Chemscore.Hbond>
1.8627

> <Gold.Chemscore.Metal>
0.0000

> <Gold.Chemscore.Lipo>
66.6883

> <Gold.Chemscore.Internal_Hbond>
0.0000

> <Gold.Chemscore.DEClash>
0.4377

> <Gold.Chemscore.DEInternal>
1.5930

> <Gold.Chemscore.Rot>
1.3852

> <Gold.Chemscore.Internal.Correction>
   9.000000E+99

> <Gold.Chemscore.Hbonds>
donor molecule, donor type, donor heavy atom, donor atom, acceptor molecule, acceptor atom, score
      L1  H     7    29       P1  7948  0.38
      L1  H    10    30       P1  7948  0.24
      P1  H 10752 10763       L1     9  0.40

> <Gold.Chemscore.Hbond.Weighted>
-6.2216

> <Gold.Chemscore.Metal.Weighted>
-0.0000

> <Gold.Chemscore.Lipo.Weighted>
-7.8025

> <Gold.Chemscore.Internal_Hbond.Weighted>
0.0000

> <Gold.Chemscore.DEClash.Weighted>
0.4377

> <Gold.Chemscore.DEInternal.Weighted>
1.5930

> <Gold.Chemscore.Rot.Weighted>
3.5460

> <Gold.Chemscore.Internal.Correction.Weighted>
   9.000000E+99

> <Gold.Protein.RotatedTorsions>
[ 6907 6896 6895 6894 ] final   86.48 input  -60.11 | X-H torsion
[ 7974 7965 7964 7962 ] final   82.28 input  175.53 | X-H torsion
[ 8008 7997 7996 7995 ] final   71.57 input   59.86 | X-H torsion
[ 10167 10162 10161 10158 ] final -163.77 input  -65.29 | X-H torsion
[ 10718 10713 10712 10709 ] final   16.51 input   66.30 | X-H torsion
[ 10763 10752 10751 10750 ] final   81.02 input  -60.55 | X-H torsion
[ 11005 11000 10999 10996 ] final  157.73 input  -57.11 | X-H torsion

> <Gold.Protein.ActiveResidues>
 VAL166  LYS551  ARG553  GLY616  TRP617  ASP618  TYR619  PRO620  LYS621  CYS622 
 ASP623  PHE694  ASN695  SER759  ASP760  ASP761  ALA762  ILE779  LEU786  VAL792 
 PHE793  MET794  SER795  GLU796  ALA797  LYS798  CYS799  TRP800  GLU811  SER814 

> <Gold.Protein.RotatedAtoms>
  152.5395  134.2425  159.8867 H   0  0  0  0  0  0  0  0  0  0  0  0  # atno 6907 bound_to 6896
  151.2392  133.4402  159.2614 H   0  0  0  0  0  0  0  0  0  0  0  0  # atno 6908 bound_to 6896
  151.0643  134.9770  159.8332 H   0  0  0  0  0  0  0  0  0  0  0  0  # atno 6909 bound_to 6896
  145.6272  139.2397  143.2105 H   0  0  0  0  0  0  0  0  0  0  0  0  # atno 7974 bound_to 7965
  155.7558  140.3487  155.5173 H   0  0  0  0  0  0  0  0  0  0  0  0  # atno 8008 bound_to 7997
  155.8961  140.1026  157.1405 H   0  0  0  0  0  0  0  0  0  0  0  0  # atno 8009 bound_to 7997
  154.4038  140.1295  156.4364 H   0  0  0  0  0  0  0  0  0  0  0  0  # atno 8010 bound_to 7997
  139.6297  144.0463  152.2005 H   0  0  0  0  0  0  0  0  0  0  0  0  # atno 10167 bound_to 10162
  157.0689  130.6340  149.5801 H   0  0  0  0  0  0  0  0  0  0  0  0  # atno 10718 bound_to 10713
  153.1082  135.4781  154.8988 H   0  0  0  0  0  0  0  0  0  0  0  0  # atno 10763 bound_to 10752
  154.7452  135.3092  154.8659 H   0  0  0  0  0  0  0  0  0  0  0  0  # atno 10764 bound_to 10752
  153.9256  135.6850  153.4800 H   0  0  0  0  0  0  0  0  0  0  0  0  # atno 10765 bound_to 10752
  140.1797  134.8484  157.2788 H   0  0  0  0  0  0  0  0  0  0  0  0  # atno 11005 bound_to 11000
  146.1385  140.7090  142.9378 LP  0  0  0  0  0  0  0  0  0  0  0  0  # atno 17320 bound_to 7965
  144.7208  140.4366  143.7010 LP  0  0  0  0  0  0  0  0  0  0  0  0  # atno 17321 bound_to 7965
  140.0126  144.6213  150.7634 LP  0  0  0  0  0  0  0  0  0  0  0  0  # atno 17342 bound_to 10162
  140.7432  143.2842  151.3510 LP  0  0  0  0  0  0  0  0  0  0  0  0  # atno 17343 bound_to 10162
  155.9956  130.5023  150.7465 LP  0  0  0  0  0  0  0  0  0  0  0  0  # atno 17370 bound_to 10713
  157.4894  131.0909  151.0445 LP  0  0  0  0  0  0  0  0  0  0  0  0  # atno 17371 bound_to 10713
  140.2282  134.3941  155.7534 LP  0  0  0  0  0  0  0  0  0  0  0  0  # atno 17394 bound_to 11000
  141.2222  133.7201  156.8598 LP  0  0  0  0  0  0  0  0  0  0  0  0  # atno 17395 bound_to 11000

$$$$
