AV-unprocessed.smi:158|AV-procd|sdf|1329|dock1
  -GOLD-   2262019 23D 1   1.00000     0.00000
 Structure written by MMmdl.
 31 33  0  0  0  0  0  0  0  0  1 V2000
  149.5786  138.4062  153.6476 N   0  0  0  0  0  0  0  0  0  0  0  0
  149.7266  138.7206  154.9424 C   0  0  0  0  0  0  0  0  0  0  0  0
  149.6584  137.7262  155.8580 N   0  0  0  0  0  0  0  0  0  0  0  0
  149.8023  137.9966  157.1613 C   0  0  0  0  0  0  0  0  0  0  0  0
  149.6992  136.6546  158.2390 Cl  0  0  0  0  0  0  0  0  0  0  0  0
  150.0188  139.1906  157.7224 N   0  0  0  0  0  0  0  0  0  0  0  0
  150.0886  140.1966  156.8026 C   0  0  0  0  0  0  0  0  0  0  0  0
  149.9516  140.0430  155.3970 C   0  0  0  0  0  0  0  0  0  0  0  0
  150.0760  141.2760  154.7710 N   0  0  0  0  0  0  0  0  0  0  0  0
  150.2760  142.1095  155.7569 C   0  0  0  0  0  0  0  0  0  0  0  0
  150.2989  141.5451  157.0135 N   0  0  0  0  0  0  0  0  0  0  0  0
  150.5079  142.2398  158.3217 C   0  0  2  0  0  0  0  0  0  0  0  0
  150.8934  143.5630  158.0887 O   0  0  0  0  0  0  0  0  0  0  0  0
  152.0475  143.8854  158.8668 C   0  0  1  0  0  0  0  0  0  0  0  0
  151.9132  145.3184  159.4046 C   0  0  0  0  0  0  0  0  0  0  0  0
  150.9161  145.3843  160.4020 O   0  0  0  0  0  0  0  0  0  0  0  0
  152.0907  142.7935  159.9427 C   0  0  2  0  0  0  0  0  0  0  0  0
  153.3748  142.5827  160.4955 O   0  0  0  0  0  0  0  0  0  0  0  0
  151.6060  141.5852  159.1663 C   0  0  2  0  0  0  0  0  0  0  0  0
  152.5679  141.1036  158.3726 F   0  0  0  0  0  0  0  0  0  0  0  0
  149.5325  142.2294  158.8098 H   0  0  0  0  0  0  0  0  0  0  0  0
  152.9158  143.8043  158.2100 H   0  0  0  0  0  0  0  0  0  0  0  0
  151.3855  143.0234  160.7429 H   0  0  0  0  0  0  0  0  0  0  0  0
  151.2166  140.7738  159.7815 H   0  0  0  0  0  0  0  0  0  0  0  0
  149.6262  139.1309  152.9459 H   0  0  0  0  0  0  0  0  0  0  0  0
  149.4220  137.4465  153.3762 H   0  0  0  0  0  0  0  0  0  0  0  0
  150.4137  143.1682  155.5932 H   0  0  0  0  0  0  0  0  0  0  0  0
  152.8572  145.6400  159.8452 H   0  0  0  0  0  0  0  0  0  0  0  0
  151.6773  146.0184  158.6025 H   0  0  0  0  0  0  0  0  0  0  0  0
  150.9425  146.2427  160.7965 H   0  0  0  0  0  0  0  0  0  0  0  0
  153.5463  141.6529  160.5064 H   0  0  0  0  0  0  0  0  0  0  0  0
  1  2  1  0  0  0  0
  1 25  1  0  0  0  0
  1 26  1  0  0  0  0
  2  8  1  0  0  0  0
  2  3  2  0  0  0  0
  3  4  1  0  0  0  0
  4  5  1  0  0  0  0
  4  6  2  0  0  0  0
  6  7  1  0  0  0  0
  7 11  1  0  0  0  0
  7  8  2  0  0  0  0
  8  9  1  0  0  0  0
  9 10  2  0  0  0  0
 10 11  1  0  0  0  0
 10 27  1  0  0  0  0
 11 12  1  0  0  0  0
 12 21  1  0  0  0  0
 12 19  1  0  0  0  0
 12 13  1  0  0  0  0
 13 14  1  0  0  0  0
 14 22  1  0  0  0  0
 14 15  1  0  0  0  0
 14 17  1  0  0  0  0
 15 16  1  0  0  0  0
 15 28  1  0  0  0  0
 15 29  1  0  0  0  0
 16 30  1  0  0  0  0
 17 23  1  0  0  0  0
 17 18  1  0  0  0  0
 17 19  1  0  0  0  0
 18 31  1  0  0  0  0
 19 24  1  0  0  0  0
 19 20  1  0  0  0  0
M  END
> <s_m_source_file>
AV-unprocessed.smi

> <i_m_source_file_index>
158

> <i_lp_mmshare_version>
43012

> <i_f3d_flags>
0

> <s_epik_input>
Q2xjKG4xKW5jKFtOSDJdKWMoYzEyKW5bY0hdbjJbQ0BASF0zT1tDQEhdKFtDSDJdW09IXSlbQ0BASF0oW09IXSlbQ0BASF0zRg==

> <s_epik_cmdline>
J2VwaWtfcHl0aG9uJywgJy1waCcsICc3LjAnLCAnLXRuJywgJzgnLCAnLW1hJywgJzIwMCcsICctbWV0YWxfYmluZGluZycsICctaW1hZScsICc8aW5maWxlLm1hZT4nLCAnLW9tYWUnLCAnPG91dGZpbGUubWFlPic=

> <r_lp_tautomer_probability>
1

> <r_epik_Ionization_Penalty>
6.51543e-05

> <r_epik_Ionization_Penalty_Charging>
0

> <r_epik_Ionization_Penalty_Neutral>
6.51543e-05

> <r_epik_State_Penalty>
-0

> <r_epik_Charging_Adjusted_Penalty>
0

> <i_epik_Tot_Q>
0

> <i_epik_Tot_abs_Q>
0

> <r_epik_Metal_State_Penalty>
-0

> <b_epik_Metal_Only>
0

> <s_epik_Chemistry_Notes>
This compound contains an acetal/aminal-like group ( X-CH(R)-Y where X, Y are N, S, or O) that may be acid/base labile, releasing an aldehyde.

> <s_lp_Force_Field>
OPLS_2005

> <r_lp_Energy>
35.9636

> <b_lp_Chiralities_Consistent>
1

> <s_lp_Variant>
AV-unprocessed.smi:158-7

> <Gold.Version>
5.8.1

> <Gold.Id.Protein>
6NUR|6NUR_protein|mol2

> <Gold.PLP.Fitness>
40.8169

> <Gold.PLP.PLP>
-31.1156

> <Gold.PLP.part.hbond>
-3.7100

> <Gold.PLP.part.metal>
0.0000

> <Gold.PLP.part.buried>
-4.0206

> <Gold.PLP.part.nonpolar>
-23.3534

> <Gold.PLP.part.repulsive>
0.3855

> <Gold.PLP.ligand.clash>
0.0000

> <Gold.PLP.ligand.torsion>
0.2269

> <Gold.PLP.Chemscore.Hbond>
2.4240

> <Gold.PLP.Chemscore.CHOScore>
0.9595

> <Gold.PLP.Chemscore.Metal>
0.0000

> <Gold.Chemscore.Hbonds>
donor molecule, donor type, donor heavy atom, donor atom, acceptor molecule, acceptor atom, score
      L1  H     1    25       P1  7957  1.00
      L1  H     1    26       P1  7948  0.90
      P1  H  7989  7998       L1     9  0.52
      L1  C    10    27       P1  8028  0.96

> <Gold.PLP.Chemscore.Internal.Correction>
0.0044

> <Gold.Rescore>
     Score         DG    S(hbond)    S(metal)    S(lipo)     H(rot)  DE(clash)    DE(int)     intcor
      9.97     -10.41       2.05        0.00      51.86       3.12       0.34       0.10       ----

> <Gold.Chemscore.Fitness>
9.9685

> <Gold.Chemscore.DG>
-10.4069

> <Gold.Chemscore.ZeroCoef>
-5.4800

> <Gold.Chemscore.Hbond>
2.0520

> <Gold.Chemscore.Metal>
0.0000

> <Gold.Chemscore.Lipo>
51.8636

> <Gold.Chemscore.Internal_Hbond>
0.0000

> <Gold.Chemscore.DEClash>
0.3357

> <Gold.Chemscore.DEInternal>
0.1028

> <Gold.Chemscore.Rot>
3.1230

> <Gold.Chemscore.Internal.Correction>
   9.000000E+99

> <Gold.Chemscore.Hbonds>
donor molecule, donor type, donor heavy atom, donor atom, acceptor molecule, acceptor atom, score
      L1  H     1    25       P1  7957  0.95
      L1  H     1    26       P1  7948  0.80
      P1  H  7989  7998       L1     9  0.14

> <Gold.Chemscore.Hbond.Weighted>
-6.8538

> <Gold.Chemscore.Metal.Weighted>
-0.0000

> <Gold.Chemscore.Lipo.Weighted>
-6.0680

> <Gold.Chemscore.Internal_Hbond.Weighted>
0.0000

> <Gold.Chemscore.DEClash.Weighted>
0.3357

> <Gold.Chemscore.DEInternal.Weighted>
0.1028

> <Gold.Chemscore.Rot.Weighted>
7.9950

> <Gold.Chemscore.Internal.Correction.Weighted>
   9.000000E+99

> <Gold.Protein.RotatedTorsions>
[ 6907 6896 6895 6894 ] final   98.15 input  -60.11 | X-H torsion
[ 7974 7965 7964 7962 ] final  -62.41 input  175.53 | X-H torsion
[ 8008 7997 7996 7995 ] final  -85.13 input   59.86 | X-H torsion
[ 10167 10162 10161 10158 ] final   91.81 input  -65.29 | X-H torsion
[ 10718 10713 10712 10709 ] final   -0.93 input   66.30 | X-H torsion
[ 10763 10752 10751 10750 ] final  -62.40 input  -60.55 | X-H torsion
[ 11005 11000 10999 10996 ] final   58.55 input  -57.11 | X-H torsion

> <Gold.Protein.ActiveResidues>
 VAL166  LYS551  ARG553  GLY616  TRP617  ASP618  TYR619  PRO620  LYS621  CYS622 
 ASP623  PHE694  ASN695  SER759  ASP760  ASP761  ALA762  ILE779  LEU786  VAL792 
 PHE793  MET794  SER795  GLU796  ALA797  LYS798  CYS799  TRP800  GLU811  SER814 

> <Gold.Protein.RotatedAtoms>
  152.5413  134.0625  159.8158 H   0  0  0  0  0  0  0  0  0  0  0  0  # atno 6907 bound_to 6896
  151.0751  133.5427  159.2631 H   0  0  0  0  0  0  0  0  0  0  0  0  # atno 6908 bound_to 6896
  151.2276  135.0550  159.9029 H   0  0  0  0  0  0  0  0  0  0  0  0  # atno 6909 bound_to 6896
  145.7917  140.8706  143.0277 H   0  0  0  0  0  0  0  0  0  0  0  0  # atno 7974 bound_to 7965
  154.6374  140.0595  156.9805 H   0  0  0  0  0  0  0  0  0  0  0  0  # atno 8008 bound_to 7997
  155.1571  140.3279  155.4400 H   0  0  0  0  0  0  0  0  0  0  0  0  # atno 8009 bound_to 7997
  156.2514  140.1937  156.6680 H   0  0  0  0  0  0  0  0  0  0  0  0  # atno 8010 bound_to 7997
  139.8338  144.6674  150.9367 H   0  0  0  0  0  0  0  0  0  0  0  0  # atno 10167 bound_to 10162
  156.8131  130.5431  149.5706 H   0  0  0  0  0  0  0  0  0  0  0  0  # atno 10718 bound_to 10713
  154.2993  135.6238  153.5418 H   0  0  0  0  0  0  0  0  0  0  0  0  # atno 10763 bound_to 10752
  152.9842  135.5674  154.5302 H   0  0  0  0  0  0  0  0  0  0  0  0  # atno 10764 bound_to 10752
  154.4929  135.2868  155.1459 H   0  0  0  0  0  0  0  0  0  0  0  0  # atno 10765 bound_to 10752
  140.0369  134.5930  155.9432 H   0  0  0  0  0  0  0  0  0  0  0  0  # atno 11005 bound_to 11000
  144.6781  140.0133  143.7484 LP  0  0  0  0  0  0  0  0  0  0  0  0  # atno 17320 bound_to 7965
  145.9970  139.3060  143.0950 LP  0  0  0  0  0  0  0  0  0  0  0  0  # atno 17321 bound_to 7965
  140.7804  143.3976  151.1203 LP  0  0  0  0  0  0  0  0  0  0  0  0  # atno 17342 bound_to 10162
  139.7628  143.8610  152.3104 LP  0  0  0  0  0  0  0  0  0  0  0  0  # atno 17343 bound_to 10162
  156.1033  130.5985  150.9929 LP  0  0  0  0  0  0  0  0  0  0  0  0  # atno 17370 bound_to 10713
  157.6495  131.0899  150.8080 LP  0  0  0  0  0  0  0  0  0  0  0  0  # atno 17371 bound_to 10713
  141.1862  133.6557  156.5230 LP  0  0  0  0  0  0  0  0  0  0  0  0  # atno 17394 bound_to 11000
  140.4133  134.7253  157.4848 LP  0  0  0  0  0  0  0  0  0  0  0  0  # atno 17395 bound_to 11000

$$$$
