AV-unprocessed.smi:2774|AV-procd|sdf|10686|dock4
  -GOLD-   2272015133D 1   1.00000     0.00000
 Structure written by MMmdl.
 34 35  0  0  0  0  0  0  0  0  1 V2000
  149.4906  141.1100  153.7260 O   0  0  0  0  0  0  0  0  0  0  0  0
  149.9811  140.7980  155.0133 C   0  0  2  0  0  0  0  0  0  0  0  0
  150.7660  142.0158  155.5333 C   0  0  0  0  0  0  0  0  0  0  0  0
  150.3117  142.4186  156.8657 N   0  0  0  0  0  0  0  0  0  0  0  0
  151.3639  142.8337  157.7977 C   0  0  1  0  0  0  0  0  0  0  0  0
  150.9503  144.1643  158.4566 C   0  0  0  0  0  0  0  0  0  0  0  0
  152.0412  144.7458  159.3689 C   0  0  0  0  0  0  0  0  0  0  0  0
  152.3766  143.8128  160.5395 C   0  0  0  0  0  0  0  0  0  0  0  0
  153.0319  142.2319  159.9438 S   0  0  0  0  0  0  0  0  0  0  0  0
  151.6583  141.7509  158.8598 C   0  0  0  0  0  0  0  0  0  0  0  0
  150.8173  139.5261  155.0094 C   0  0  0  0  0  0  0  0  0  0  0  0
  152.0485  139.4731  155.6963 C   0  0  0  0  0  0  0  0  0  0  0  0
  152.7914  138.2763  155.6565 C   0  0  0  0  0  0  0  0  0  0  0  0
  152.3845  137.1719  154.9948 N   0  0  0  0  0  0  0  0  0  0  0  0
  151.2055  137.2280  154.3393 C   0  0  0  0  0  0  0  0  0  0  0  0
  150.3873  138.3747  154.3147 C   0  0  0  0  0  0  0  0  0  0  0  0
  149.5460  140.3337  153.1899 H   0  0  0  0  0  0  0  0  0  0  0  0
  149.1089  140.6408  155.6496 H   0  0  0  0  0  0  0  0  0  0  0  0
  151.8294  141.7787  155.5420 H   0  0  0  0  0  0  0  0  0  0  0  0
  150.6361  142.8474  154.8393 H   0  0  0  0  0  0  0  0  0  0  0  0
  149.6267  143.1625  156.7778 H   0  0  0  0  0  0  0  0  0  0  0  0
  152.2776  143.0144  157.2295 H   0  0  0  0  0  0  0  0  0  0  0  0
  150.7181  144.8965  157.6821 H   0  0  0  0  0  0  0  0  0  0  0  0
  150.0315  144.0260  159.0287 H   0  0  0  0  0  0  0  0  0  0  0  0
  152.9415  144.9486  158.7875 H   0  0  0  0  0  0  0  0  0  0  0  0
  151.7071  145.7073  159.7602 H   0  0  0  0  0  0  0  0  0  0  0  0
  153.1178  144.2752  161.1915 H   0  0  0  0  0  0  0  0  0  0  0  0
  151.4891  143.6256  161.1447 H   0  0  0  0  0  0  0  0  0  0  0  0
  150.7742  141.5616  159.4697 H   0  0  0  0  0  0  0  0  0  0  0  0
  151.9370  140.8040  158.3996 H   0  0  0  0  0  0  0  0  0  0  0  0
  152.4216  140.3297  156.2381 H   0  0  0  0  0  0  0  0  0  0  0  0
  153.7388  138.2048  156.1700 H   0  0  0  0  0  0  0  0  0  0  0  0
  150.9052  136.3317  153.8171 H   0  0  0  0  0  0  0  0  0  0  0  0
  149.4535  138.3690  153.7719 H   0  0  0  0  0  0  0  0  0  0  0  0
  1  2  1  0  0  0  0
  1 17  1  0  0  0  0
  2  3  1  0  0  0  0
  2 11  1  0  0  0  0
  2 18  1  0  0  0  0
  3  4  1  0  0  0  0
  3 19  1  0  0  0  0
  3 20  1  0  0  0  0
  4  5  1  0  0  0  0
  4 21  1  0  0  0  0
  5 10  1  0  0  0  0
  5  6  1  0  0  0  0
  5 22  1  0  0  0  0
  6  7  1  0  0  0  0
  6 23  1  0  0  0  0
  6 24  1  0  0  0  0
  7  8  1  0  0  0  0
  7 25  1  0  0  0  0
  7 26  1  0  0  0  0
  8  9  1  0  0  0  0
  8 27  1  0  0  0  0
  8 28  1  0  0  0  0
  9 10  1  0  0  0  0
 10 29  1  0  0  0  0
 10 30  1  0  0  0  0
 11 16  1  0  0  0  0
 11 12  2  0  0  0  0
 12 13  1  0  0  0  0
 12 31  1  0  0  0  0
 13 14  2  0  0  0  0
 13 32  1  0  0  0  0
 14 15  1  0  0  0  0
 15 16  2  0  0  0  0
 15 33  1  0  0  0  0
 16 34  1  0  0  0  0
M  END
> <s_m_source_file>
AV-unprocessed.smi

> <i_m_source_file_index>
2774

> <i_lp_mmshare_version>
43012

> <i_f3d_flags>
0

> <s_epik_input>
W2NIXTFbY0hdbltjSF1bY0hdYzFbQ0BIXShbT0hdKVtDSDJdW05IXVtDQEBIXTJbQ0gyXVtDSDJdW0NIMl1TW0NIMl0y

> <s_epik_cmdline>
J2VwaWtfcHl0aG9uJywgJy1waCcsICc3LjAnLCAnLXRuJywgJzgnLCAnLW1hJywgJzIwMCcsICctbWV0YWxfYmluZGluZycsICctaW1hZScsICc8aW5maWxlLm1hZT4nLCAnLW9tYWUnLCAnPG91dGZpbGUubWFlPic=

> <r_epik_Ionization_Penalty>
2.08116

> <r_epik_Ionization_Penalty_Charging>
0

> <r_epik_Ionization_Penalty_Neutral>
2.08116

> <r_epik_State_Penalty>
2.1944

> <r_epik_Charging_Adjusted_Penalty>
2.1944

> <i_epik_Tot_Q>
0

> <i_epik_Tot_abs_Q>
0

> <r_epik_Metal_State_Penalty>
2.1769

> <b_epik_Metal_Only>
0

> <s_lp_Force_Field>
OPLS_2005

> <r_lp_Energy>
10.4748

> <b_lp_Chiralities_Consistent>
1

> <s_lp_Variant>
AV-unprocessed.smi:2774-7

> <Gold.Version>
5.8.1

> <Gold.Id.Protein>
6NUR|6NUR_protein|mol2

> <Gold.PLP.Fitness>
47.9851

> <Gold.PLP.PLP>
-39.8889

> <Gold.PLP.part.hbond>
-5.0000

> <Gold.PLP.part.metal>
0.0000

> <Gold.PLP.part.buried>
-0.7790

> <Gold.PLP.part.nonpolar>
-33.2227

> <Gold.PLP.part.repulsive>
0.0685

> <Gold.PLP.ligand.clash>
0.0000

> <Gold.PLP.ligand.torsion>
1.9772

> <Gold.PLP.Chemscore.Hbond>
3.2246

> <Gold.PLP.Chemscore.CHOScore>
0.7839

> <Gold.PLP.Chemscore.Metal>
0.0000

> <Gold.Chemscore.Hbonds>
donor molecule, donor type, donor heavy atom, donor atom, acceptor molecule, acceptor atom, score
      L1  H     1    17       P1  7957  0.63
      L1  H     4    21       P1  8028  0.90
      P1  H  8011  8017       L1     1  0.85
      P1  H 10752 10765       L1    14  0.72
      L1  C    15    33       P1  7948  0.05
      L1  C    15    33       P1  7949  0.79

> <Gold.PLP.Chemscore.Internal.Correction>
0.0250

> <Gold.Rescore>
     Score         DG    S(hbond)    S(metal)    S(lipo)     H(rot)  DE(clash)    DE(int)     intcor
     18.79     -22.67       2.49        0.00     117.27       1.89       1.84       2.03       ----

> <Gold.Chemscore.Fitness>
18.7899

> <Gold.Chemscore.DG>
-22.6674

> <Gold.Chemscore.ZeroCoef>
-5.4800

> <Gold.Chemscore.Hbond>
2.4887

> <Gold.Chemscore.Metal>
0.0000

> <Gold.Chemscore.Lipo>
117.2714

> <Gold.Chemscore.Internal_Hbond>
0.0000

> <Gold.Chemscore.DEClash>
1.8448

> <Gold.Chemscore.DEInternal>
2.0327

> <Gold.Chemscore.Rot>
1.8928

> <Gold.Chemscore.Internal.Correction>
   9.000000E+99

> <Gold.Chemscore.Hbonds>
donor molecule, donor type, donor heavy atom, donor atom, acceptor molecule, acceptor atom, score
      L1  H     1    17       P1  7957  0.59
      L1  H     4    21       P1  8028  0.83
      P1  H  8011  8017       L1     1  0.16
      P1  H 10752 10765       L1    14  0.32

> <Gold.Chemscore.Hbond.Weighted>
-8.3122

> <Gold.Chemscore.Metal.Weighted>
-0.0000

> <Gold.Chemscore.Lipo.Weighted>
-13.7208

> <Gold.Chemscore.Internal_Hbond.Weighted>
0.0000

> <Gold.Chemscore.DEClash.Weighted>
1.8448

> <Gold.Chemscore.DEInternal.Weighted>
2.0327

> <Gold.Chemscore.Rot.Weighted>
4.8455

> <Gold.Chemscore.Internal.Correction.Weighted>
   9.000000E+99

> <Gold.Protein.RotatedTorsions>
[ 6907 6896 6895 6894 ] final   71.67 input  -60.11 | X-H torsion
[ 7974 7965 7964 7962 ] final   62.81 input  175.53 | X-H torsion
[ 8008 7997 7996 7995 ] final   50.38 input   59.86 | X-H torsion
[ 10167 10162 10161 10158 ] final  -47.24 input  -65.29 | X-H torsion
[ 10718 10713 10712 10709 ] final   38.25 input   66.30 | X-H torsion
[ 10763 10752 10751 10750 ] final -178.08 input  -60.55 | X-H torsion
[ 11005 11000 10999 10996 ] final  -74.30 input  -57.11 | X-H torsion

> <Gold.Protein.ActiveResidues>
 VAL166  LYS551  ARG553  GLY616  TRP617  ASP618  TYR619  PRO620  LYS621  CYS622 
 ASP623  PHE694  ASN695  SER759  ASP760  ASP761  ALA762  ILE779  LEU786  VAL792 
 PHE793  MET794  SER795  GLU796  ALA797  LYS798  CYS799  TRP800  GLU811  SER814 

> <Gold.Protein.RotatedAtoms>
  152.4823  134.4686  159.9627 H   0  0  0  0  0  0  0  0  0  0  0  0  # atno 6907 bound_to 6896
  151.4689  133.3568  159.2828 H   0  0  0  0  0  0  0  0  0  0  0  0  # atno 6908 bound_to 6896
  150.8906  134.8334  159.7351 H   0  0  0  0  0  0  0  0  0  0  0  0  # atno 6909 bound_to 6896
  145.8690  139.3365  143.0774 H   0  0  0  0  0  0  0  0  0  0  0  0  # atno 7974 bound_to 7965
  155.4178  140.3445  155.4269 H   0  0  0  0  0  0  0  0  0  0  0  0  # atno 8008 bound_to 7997
  156.1411  140.1542  156.8951 H   0  0  0  0  0  0  0  0  0  0  0  0  # atno 8009 bound_to 7997
  154.4971  140.0825  156.7701 H   0  0  0  0  0  0  0  0  0  0  0  0  # atno 8010 bound_to 7997
  140.6783  143.2794  151.3898 H   0  0  0  0  0  0  0  0  0  0  0  0  # atno 10167 bound_to 10162
  157.3566  130.7627  149.7017 H   0  0  0  0  0  0  0  0  0  0  0  0  # atno 10718 bound_to 10713
  154.5521  135.2813  155.0999 H   0  0  0  0  0  0  0  0  0  0  0  0  # atno 10763 bound_to 10752
  154.2440  135.6351  153.5221 H   0  0  0  0  0  0  0  0  0  0  0  0  # atno 10764 bound_to 10752
  153.0006  135.5567  154.6090 H   0  0  0  0  0  0  0  0  0  0  0  0  # atno 10765 bound_to 10752
  141.1633  133.6907  156.7343 H   0  0  0  0  0  0  0  0  0  0  0  0  # atno 11005 bound_to 11000
  145.9159  140.9148  143.0430 LP  0  0  0  0  0  0  0  0  0  0  0  0  # atno 17320 bound_to 7965
  144.6726  140.1223  143.7449 LP  0  0  0  0  0  0  0  0  0  0  0  0  # atno 17321 bound_to 7965
  139.6090  144.1138  152.2279 LP  0  0  0  0  0  0  0  0  0  0  0  0  # atno 17342 bound_to 10162
  140.0546  144.5905  150.7310 LP  0  0  0  0  0  0  0  0  0  0  0  0  # atno 17343 bound_to 10162
  155.9730  130.4125  150.4037 LP  0  0  0  0  0  0  0  0  0  0  0  0  # atno 17370 bound_to 10713
  157.2108  131.0460  151.2600 LP  0  0  0  0  0  0  0  0  0  0  0  0  # atno 17371 bound_to 10713
  140.2721  134.8383  157.3857 LP  0  0  0  0  0  0  0  0  0  0  0  0  # atno 17394 bound_to 11000
  140.1511  134.4848  155.7960 LP  0  0  0  0  0  0  0  0  0  0  0  0  # atno 17395 bound_to 11000

$$$$
