AV-unprocessed.smi:1239|AV-procd|sdf|5187|dock6
  -GOLD-   22720 4273D 1   1.00000     0.00000
 Structure written by MMmdl.
 47 48  0  0  0  0  0  0  0  0  1 V2000
  147.1208  131.0951  153.4985 C   0  0  0  0  0  0  0  0  0  0  0  0
  147.6275  132.4999  153.0996 C   0  0  2  0  0  0  0  0  0  0  0  0
  148.3401  133.1191  154.3283 C   0  0  0  0  0  0  0  0  0  0  0  0
  148.7355  134.5045  154.0830 N   0  0  0  0  0  0  0  0  0  0  0  0
  149.1748  135.3657  155.0111 C   0  0  0  0  0  0  0  0  0  0  0  0
  149.3060  135.0769  156.2002 O   0  0  0  0  0  0  0  0  0  0  0  0
  149.4268  136.5714  154.4727 N   0  0  0  0  0  0  0  0  0  0  0  0
  149.9142  137.7434  155.1133 C   0  0  0  0  0  0  0  0  0  0  0  0
  150.1672  137.6852  156.4969 C   0  0  0  0  0  0  0  0  0  0  0  0
  150.6356  138.8335  157.1631 C   0  0  0  0  0  0  0  0  0  0  0  0
  150.8351  140.0276  156.4269 C   0  0  0  0  0  0  0  0  0  0  0  0
  151.3082  141.2070  157.0465 N   0  0  0  0  0  0  0  0  0  0  0  0
  151.0881  142.5011  156.4085 C   0  0  0  0  0  0  0  0  0  0  0  0
  152.0299  141.1336  158.3105 C   0  0  0  0  0  0  0  0  0  0  0  0
  150.5752  140.0845  155.0979 N   0  0  0  0  0  0  0  0  0  0  0  0
  150.1269  138.9814  154.4626 C   0  0  0  0  0  0  0  0  0  0  0  0
  146.5788  133.3608  152.5093 N   0  0  0  0  0  0  0  0  0  0  0  0
  145.9955  132.7839  151.2941 C   0  0  0  0  0  0  0  0  0  0  0  0
  144.8885  133.6667  150.6919 C   0  0  0  0  0  0  0  0  0  0  0  0
  143.8758  133.8937  151.6629 O   0  0  0  0  0  0  0  0  0  0  0  0
  144.3853  134.5171  152.8343 C   0  0  0  0  0  0  0  0  0  0  0  0
  145.4888  133.6392  153.4494 C   0  0  0  0  0  0  0  0  0  0  0  0
  147.8889  130.5351  154.0328 H   0  0  0  0  0  0  0  0  0  0  0  0
  146.8559  130.4925  152.6304 H   0  0  0  0  0  0  0  0  0  0  0  0
  146.2466  131.1540  154.1479 H   0  0  0  0  0  0  0  0  0  0  0  0
  148.3991  132.3477  152.3432 H   0  0  0  0  0  0  0  0  0  0  0  0
  147.6782  133.0505  155.1932 H   0  0  0  0  0  0  0  0  0  0  0  0
  149.2225  132.5467  154.6117 H   0  0  0  0  0  0  0  0  0  0  0  0
  148.6502  134.8330  153.1322 H   0  0  0  0  0  0  0  0  0  0  0  0
  149.1946  136.6777  153.4960 H   0  0  0  0  0  0  0  0  0  0  0  0
  150.0094  136.7689  157.0468 H   0  0  0  0  0  0  0  0  0  0  0  0
  150.8323  138.7741  158.2228 H   0  0  0  0  0  0  0  0  0  0  0  0
  150.0210  142.6992  156.3028 H   0  0  0  0  0  0  0  0  0  0  0  0
  151.5444  142.5226  155.4184 H   0  0  0  0  0  0  0  0  0  0  0  0
  151.5216  143.3128  156.9927 H   0  0  0  0  0  0  0  0  0  0  0  0
  152.9395  140.5431  158.1986 H   0  0  0  0  0  0  0  0  0  0  0  0
  151.4084  140.6764  159.0810 H   0  0  0  0  0  0  0  0  0  0  0  0
  152.3177  142.1245  158.6616 H   0  0  0  0  0  0  0  0  0  0  0  0
  149.9209  139.1214  153.4133 H   0  0  0  0  0  0  0  0  0  0  0  0
  146.7581  132.6515  150.5285 H   0  0  0  0  0  0  0  0  0  0  0  0
  145.5903  131.7944  151.5118 H   0  0  0  0  0  0  0  0  0  0  0  0
  145.2967  134.6192  150.3505 H   0  0  0  0  0  0  0  0  0  0  0  0
  144.4458  133.1787  149.8236 H   0  0  0  0  0  0  0  0  0  0  0  0
  144.7709  135.5083  152.5912 H   0  0  0  0  0  0  0  0  0  0  0  0
  143.5713  134.6559  153.5460 H   0  0  0  0  0  0  0  0  0  0  0  0
  145.0523  132.7020  153.7979 H   0  0  0  0  0  0  0  0  0  0  0  0
  145.8661  134.1576  154.3295 H   0  0  0  0  0  0  0  0  0  0  0  0
  1  2  1  0  0  0  0
  1 23  1  0  0  0  0
  1 24  1  0  0  0  0
  1 25  1  0  0  0  0
  2  3  1  0  0  0  0
  2 17  1  0  0  0  0
  2 26  1  0  0  0  0
  3  4  1  0  0  0  0
  3 27  1  0  0  0  0
  3 28  1  0  0  0  0
  4  5  1  0  0  0  0
  4 29  1  0  0  0  0
  5  6  2  0  0  0  0
  5  7  1  0  0  0  0
  7  8  1  0  0  0  0
  7 30  1  0  0  0  0
  8 16  1  0  0  0  0
  8  9  2  0  0  0  0
  9 10  1  0  0  0  0
  9 31  1  0  0  0  0
 10 11  2  0  0  0  0
 10 32  1  0  0  0  0
 11 12  1  0  0  0  0
 11 15  1  0  0  0  0
 12 13  1  0  0  0  0
 12 14  1  0  0  0  0
 13 33  1  0  0  0  0
 13 34  1  0  0  0  0
 13 35  1  0  0  0  0
 14 36  1  0  0  0  0
 14 37  1  0  0  0  0
 14 38  1  0  0  0  0
 15 16  2  0  0  0  0
 16 39  1  0  0  0  0
 17 22  1  0  0  0  0
 17 18  1  0  0  0  0
 18 19  1  0  0  0  0
 18 40  1  0  0  0  0
 18 41  1  0  0  0  0
 19 20  1  0  0  0  0
 19 42  1  0  0  0  0
 19 43  1  0  0  0  0
 20 21  1  0  0  0  0
 21 22  1  0  0  0  0
 21 44  1  0  0  0  0
 21 45  1  0  0  0  0
 22 46  1  0  0  0  0
 22 47  1  0  0  0  0
M  END
> <s_m_source_file>
AV-unprocessed.smi

> <i_m_source_file_index>
1239

> <i_lp_mmshare_version>
43012

> <i_f3d_flags>
0

> <s_epik_input>
W0NIMl0xW0NIMl1PW0NIMl1bQ0gyXU4xW0NASF0oW0NIM10pW0NIMl1bTkhdQyg9TylbTkhdYzJbY0hdW2NIXWMoTihbQ0gzXSlbQ0gzXSluW2NIXTI=

> <s_epik_cmdline>
J2VwaWtfcHl0aG9uJywgJy1waCcsICc3LjAnLCAnLXRuJywgJzgnLCAnLW1hJywgJzIwMCcsICctbWV0YWxfYmluZGluZycsICctaW1hZScsICc8aW5maWxlLm1hZT4nLCAnLW9tYWUnLCAnPG91dGZpbGUubWFlPic=

> <r_lp_tautomer_probability>
1

> <r_epik_Ionization_Penalty>
0.87526

> <r_epik_Ionization_Penalty_Charging>
0

> <r_epik_Ionization_Penalty_Neutral>
0.87526

> <r_epik_State_Penalty>
0.859346

> <r_epik_Charging_Adjusted_Penalty>
0.859346

> <i_epik_Tot_Q>
0

> <i_epik_Tot_abs_Q>
0

> <r_epik_Metal_State_Penalty>
0.538105

> <b_epik_Metal_Only>
0

> <s_lp_Force_Field>
OPLS_2005

> <r_lp_Energy>
39.6376

> <b_lp_Chiralities_Consistent>
1

> <s_lp_Variant>
AV-unprocessed.smi:1239-3

> <Gold.Version>
5.8.1

> <Gold.Id.Protein>
6NUR|6NUR_protein|mol2

> <Gold.PLP.Fitness>
40.4914

> <Gold.PLP.PLP>
-29.9319

> <Gold.PLP.part.hbond>
-2.9224

> <Gold.PLP.part.metal>
0.0000

> <Gold.PLP.part.buried>
-4.4091

> <Gold.PLP.part.nonpolar>
-22.9159

> <Gold.PLP.part.repulsive>
0.3650

> <Gold.PLP.ligand.clash>
0.0000

> <Gold.PLP.ligand.torsion>
0.3010

> <Gold.PLP.Chemscore.Hbond>
2.7012

> <Gold.PLP.Chemscore.CHOScore>
1.0000

> <Gold.PLP.Chemscore.Metal>
0.0000

> <Gold.Chemscore.Hbonds>
donor molecule, donor type, donor heavy atom, donor atom, acceptor molecule, acceptor atom, score
      L1  H     4    29       P1  7948  0.98
      L1  H     7    30       P1  7948  1.00
      P1  H  7989  7998       L1    15  0.76
      L1  C    16    39       P1  7957  1.00

> <Gold.PLP.Chemscore.Internal.Correction>
0.0580

> <Gold.Rescore>
     Score         DG    S(hbond)    S(metal)    S(lipo)     H(rot)  DE(clash)    DE(int)     intcor
     13.54     -15.41       1.65        0.00      69.10       1.44       0.14       1.73       ----

> <Gold.Chemscore.Fitness>
13.5387

> <Gold.Chemscore.DG>
-15.4113

> <Gold.Chemscore.ZeroCoef>
-5.4800

> <Gold.Chemscore.Hbond>
1.6543

> <Gold.Chemscore.Metal>
0.0000

> <Gold.Chemscore.Lipo>
69.0985

> <Gold.Chemscore.Internal_Hbond>
0.0000

> <Gold.Chemscore.DEClash>
0.1417

> <Gold.Chemscore.DEInternal>
1.7309

> <Gold.Chemscore.Rot>
1.4370

> <Gold.Chemscore.Internal.Correction>
   9.000000E+99

> <Gold.Chemscore.Hbonds>
donor molecule, donor type, donor heavy atom, donor atom, acceptor molecule, acceptor atom, score
      L1  H     4    29       P1  7948  0.37
      L1  H     7    30       P1  7948  0.97
      P1  H  7989  7998       L1    15  0.13

> <Gold.Chemscore.Hbond.Weighted>
-5.5254

> <Gold.Chemscore.Metal.Weighted>
-0.0000

> <Gold.Chemscore.Lipo.Weighted>
-8.0845

> <Gold.Chemscore.Internal_Hbond.Weighted>
0.0000

> <Gold.Chemscore.DEClash.Weighted>
0.1417

> <Gold.Chemscore.DEInternal.Weighted>
1.7309

> <Gold.Chemscore.Rot.Weighted>
3.6786

> <Gold.Chemscore.Internal.Correction.Weighted>
   9.000000E+99

> <Gold.Protein.RotatedTorsions>
[ 6907 6896 6895 6894 ] final  150.41 input  -60.11 | X-H torsion
[ 7974 7965 7964 7962 ] final -173.62 input  175.53 | X-H torsion
[ 8008 7997 7996 7995 ] final   12.30 input   59.86 | X-H torsion
[ 10167 10162 10161 10158 ] final -100.99 input  -65.29 | X-H torsion
[ 10718 10713 10712 10709 ] final -132.20 input   66.30 | X-H torsion
[ 10763 10752 10751 10750 ] final   19.44 input  -60.55 | X-H torsion
[ 11005 11000 10999 10996 ] final   41.13 input  -57.11 | X-H torsion

> <Gold.Protein.ActiveResidues>
 VAL166  LYS551  ARG553  GLY616  TRP617  ASP618  TYR619  PRO620  LYS621  CYS622 
 ASP623  PHE694  ASN695  SER759  ASP760  ASP761  ALA762  ILE779  LEU786  VAL792 
 PHE793  MET794  SER795  GLU796  ALA797  LYS798  CYS799  TRP800  GLU811  SER814 

> <Gold.Protein.RotatedAtoms>
  152.1148  133.4320  159.4647 H   0  0  0  0  0  0  0  0  0  0  0  0  # atno 6907 bound_to 6896
  150.6869  134.2605  159.4556 H   0  0  0  0  0  0  0  0  0  0  0  0  # atno 6908 bound_to 6896
  152.0477  134.9672  160.0625 H   0  0  0  0  0  0  0  0  0  0  0  0  # atno 6909 bound_to 6896
  144.7137  140.1595  143.6377 H   0  0  0  0  0  0  0  0  0  0  0  0  # atno 7974 bound_to 7965
  154.8188  140.2880  155.5801 H   0  0  0  0  0  0  0  0  0  0  0  0  # atno 8008 bound_to 7997
  156.2995  140.2554  156.3021 H   0  0  0  0  0  0  0  0  0  0  0  0  # atno 8009 bound_to 7997
  154.9363  140.0382  157.2063 H   0  0  0  0  0  0  0  0  0  0  0  0  # atno 8010 bound_to 7997
  140.2460  143.3505  152.0758 H   0  0  0  0  0  0  0  0  0  0  0  0  # atno 10167 bound_to 10162
  156.2321  130.7044  151.0869 H   0  0  0  0  0  0  0  0  0  0  0  0  # atno 10718 bound_to 10713
  153.1162  135.6708  153.9415 H   0  0  0  0  0  0  0  0  0  0  0  0  # atno 10763 bound_to 10752
  153.8943  135.3043  155.3449 H   0  0  0  0  0  0  0  0  0  0  0  0  # atno 10764 bound_to 10752
  154.7578  135.5003  153.9485 H   0  0  0  0  0  0  0  0  0  0  0  0  # atno 10765 bound_to 10752
  140.1864  134.4040  155.8171 H   0  0  0  0  0  0  0  0  0  0  0  0  # atno 11005 bound_to 11000
  145.9043  139.2449  143.1475 LP  0  0  0  0  0  0  0  0  0  0  0  0  # atno 17320 bound_to 7965
  145.9779  140.8707  143.0129 LP  0  0  0  0  0  0  0  0  0  0  0  0  # atno 17321 bound_to 7965
  139.5061  144.6808  151.6012 LP  0  0  0  0  0  0  0  0  0  0  0  0  # atno 17342 bound_to 10162
  140.6077  143.9494  150.6430 LP  0  0  0  0  0  0  0  0  0  0  0  0  # atno 17343 bound_to 10162
  157.7138  131.0720  150.6404 LP  0  0  0  0  0  0  0  0  0  0  0  0  # atno 17370 bound_to 10713
  156.6472  130.4475  149.5732 LP  0  0  0  0  0  0  0  0  0  0  0  0  # atno 17371 bound_to 10713
  141.2225  133.7025  156.8020 LP  0  0  0  0  0  0  0  0  0  0  0  0  # atno 17394 bound_to 11000
  140.2209  134.8758  157.3376 LP  0  0  0  0  0  0  0  0  0  0  0  0  # atno 17395 bound_to 11000

$$$$
