AV-unprocessed.smi:1709|AV-procd|sdf|6893|dock9
  -GOLD-   22720 8 93D 1   1.00000     0.00000
 Structure written by MMmdl.
 43 45  0  0  0  0  0  0  0  0  2 V2000
  149.7906  138.7618  154.0784 C   0  0  0  0  0  0  0  0  0  0  0  0
  150.8096  138.1657  155.0372 C   0  0  0  0  0  0  0  0  0  0  0  0
  151.6758  139.0287  155.7415 C   0  0  0  0  0  0  0  0  0  0  0  0
  152.6190  138.4809  156.6271 C   0  0  0  0  0  0  0  0  0  0  0  0
  152.6560  137.0841  156.7715 C   0  0  0  0  0  0  0  0  0  0  0  0
  151.8326  136.2525  156.1012 N   0  0  0  0  0  0  0  0  0  0  0  0
  150.9129  136.7628  155.2416 C   0  0  0  0  0  0  0  0  0  0  0  0
  150.0053  135.9571  154.4856 N   0  0  0  0  0  0  0  0  0  0  0  0
  149.3718  134.8001  154.7742 C   0  0  0  0  0  0  0  0  0  0  0  0
  149.5261  134.2472  155.8619 O   0  0  0  0  0  0  0  0  0  0  0  0
  148.5724  134.3027  153.8167 N   0  0  0  0  0  0  0  0  0  0  0  0
  147.7626  133.0944  153.9274 C   0  0  2  0  0  0  0  0  0  0  0  0
  148.6077  131.8216  154.1108 C   0  0  0  0  0  0  0  0  0  0  0  0
  147.8911  130.7326  153.2879 C   0  0  0  0  0  0  0  0  0  0  0  0
  146.6667  131.3744  152.7719 N   0  3  2  0  0  0  0  0  0  0  0  0
  146.0725  130.8036  151.5435 C   0  0  0  0  0  0  0  0  0  0  0  0
  144.7656  131.5533  151.2154 C   0  0  0  0  0  0  0  0  0  0  0  0
  144.9826  133.0789  151.1448 C   0  0  0  0  0  0  0  0  0  0  0  0
  145.6888  133.5999  152.4115 C   0  0  0  0  0  0  0  0  0  0  0  0
  146.9845  132.8043  152.6422 C   0  0  1  0  0  0  0  0  0  0  0  0
  149.8747  139.8480  154.0337 H   0  0  0  0  0  0  0  0  0  0  0  0
  148.7773  138.5173  154.3980 H   0  0  0  0  0  0  0  0  0  0  0  0
  149.9403  138.3737  153.0704 H   0  0  0  0  0  0  0  0  0  0  0  0
  151.6207  140.0990  155.6063 H   0  0  0  0  0  0  0  0  0  0  0  0
  153.2960  139.1149  157.1804 H   0  0  0  0  0  0  0  0  0  0  0  0
  153.3654  136.6208  157.4414 H   0  0  0  0  0  0  0  0  0  0  0  0
  149.8429  136.2929  153.5474 H   0  0  0  0  0  0  0  0  0  0  0  0
  148.5065  134.8204  152.9512 H   0  0  0  0  0  0  0  0  0  0  0  0
  147.0677  133.1694  154.7666 H   0  0  0  0  0  0  0  0  0  0  0  0
  149.6223  131.9590  153.7337 H   0  0  0  0  0  0  0  0  0  0  0  0
  148.6848  131.5497  155.1641 H   0  0  0  0  0  0  0  0  0  0  0  0
  148.5255  130.4122  152.4600 H   0  0  0  0  0  0  0  0  0  0  0  0
  147.6444  129.8544  153.8854 H   0  0  0  0  0  0  0  0  0  0  0  0
  146.7783  130.8859  150.7155 H   0  0  0  0  0  0  0  0  0  0  0  0
  145.8708  129.7425  151.6928 H   0  0  0  0  0  0  0  0  0  0  0  0
  144.3529  131.1905  150.2734 H   0  0  0  0  0  0  0  0  0  0  0  0
  144.0215  131.3324  151.9818 H   0  0  0  0  0  0  0  0  0  0  0  0
  145.5872  133.3186  150.2690 H   0  0  0  0  0  0  0  0  0  0  0  0
  144.0283  133.5888  151.0099 H   0  0  0  0  0  0  0  0  0  0  0  0
  145.9087  134.6623  152.3037 H   0  0  0  0  0  0  0  0  0  0  0  0
  145.0277  133.5022  153.2739 H   0  0  0  0  0  0  0  0  0  0  0  0
  147.6488  132.9362  151.7846 H   0  0  0  0  0  0  0  0  0  0  0  0
  145.9743  131.3028  153.5036 H   0  0  0  0  0  0  0  0  0  0  0  0
  1  2  1  0  0  0  0
  1 21  1  0  0  0  0
  1 22  1  0  0  0  0
  1 23  1  0  0  0  0
  2  7  1  0  0  0  0
  2  3  2  0  0  0  0
  3  4  1  0  0  0  0
  3 24  1  0  0  0  0
  4  5  2  0  0  0  0
  4 25  1  0  0  0  0
  5  6  1  0  0  0  0
  5 26  1  0  0  0  0
  6  7  2  0  0  0  0
  7  8  1  0  0  0  0
  8  9  1  0  0  0  0
  8 27  1  0  0  0  0
  9 10  2  0  0  0  0
  9 11  1  0  0  0  0
 11 12  1  0  0  0  0
 11 28  1  0  0  0  0
 12 20  1  0  0  0  0
 12 13  1  0  0  0  0
 12 29  1  0  0  0  0
 13 14  1  0  0  0  0
 13 30  1  0  0  0  0
 13 31  1  0  0  0  0
 14 15  1  0  0  0  0
 14 32  1  0  0  0  0
 14 33  1  0  0  0  0
 15 20  1  0  0  0  0
 15 16  1  0  0  0  0
 15 43  1  0  0  0  0
 16 17  1  0  0  0  0
 16 34  1  0  0  0  0
 16 35  1  0  0  0  0
 17 18  1  0  0  0  0
 17 36  1  0  0  0  0
 17 37  1  0  0  0  0
 18 19  1  0  0  0  0
 18 38  1  0  0  0  0
 18 39  1  0  0  0  0
 19 20  1  0  0  0  0
 19 40  1  0  0  0  0
 19 41  1  0  0  0  0
 20 42  1  0  0  0  0
M  CHG  1  15   1
M  END
> <s_m_source_file>
AV-unprocessed.smi

> <i_m_source_file_index>
1709

> <i_lp_mmshare_version>
43012

> <i_f3d_flags>
0

> <s_epik_input>
W0NIM11jMVtjSF1bY0hdW2NIXW5jMVtOSF1DKD1PKVtOSF1bQ0BIXShbQ0gyXVtDSDJdMilbQ0BASF0oTjIzKVtDSDJdW0NIMl1bQ0gyXVtDSDJdMw==

> <s_epik_cmdline>
J2VwaWtfcHl0aG9uJywgJy1waCcsICc3LjAnLCAnLXRuJywgJzgnLCAnLW1hJywgJzIwMCcsICctbWV0YWxfYmluZGluZycsICctaW1hZScsICc8aW5maWxlLm1hZT4nLCAnLW9tYWUnLCAnPG91dGZpbGUubWFlPic=

> <r_epik_Ionization_Penalty>
0.00101524

> <r_epik_Ionization_Penalty_Charging>
0.000974069

> <r_epik_Ionization_Penalty_Neutral>
4.11757e-05

> <r_epik_State_Penalty>
0.000633842

> <r_epik_Charging_Adjusted_Penalty>
0.00160791

> <i_epik_Tot_Q>
1

> <i_epik_Tot_abs_Q>
1

> <r_epik_Metal_State_Penalty>
-0

> <b_epik_Metal_Only>
0

> <s_lp_Force_Field>
OPLS_2005

> <r_lp_Energy>
38.5282

> <b_lp_Chiralities_Consistent>
1

> <s_lp_Variant>
AV-unprocessed.smi:1709-3

> <Gold.Version>
5.8.1

> <Gold.Id.Protein>
6NUR|6NUR_protein|mol2

> <Gold.PLP.Fitness>
39.1024

> <Gold.PLP.PLP>
-30.5936

> <Gold.PLP.part.hbond>
-3.3296

> <Gold.PLP.part.metal>
0.0000

> <Gold.PLP.part.buried>
-2.4615

> <Gold.PLP.part.nonpolar>
-25.1507

> <Gold.PLP.part.repulsive>
0.0945

> <Gold.PLP.ligand.clash>
0.0000

> <Gold.PLP.ligand.torsion>
0.2506

> <Gold.PLP.Chemscore.Hbond>
3.0000

> <Gold.PLP.Chemscore.CHOScore>
0.0000

> <Gold.PLP.Chemscore.Metal>
0.0000

> <Gold.Chemscore.Hbonds>
donor molecule, donor type, donor heavy atom, donor atom, acceptor molecule, acceptor atom, score
      L1  H     8    27       P1  7948  0.90
      L1  H    11    28       P1  7948  1.00
      P1  H 10752 10764       L1     6  0.95

> <Gold.PLP.Chemscore.Internal.Correction>
0.0100

> <Gold.Rescore>
     Score         DG    S(hbond)    S(metal)    S(lipo)     H(rot)  DE(clash)    DE(int)     intcor
     15.89     -17.29       1.67        0.00      75.21       1.00       0.24       1.17       ----

> <Gold.Chemscore.Fitness>
15.8865

> <Gold.Chemscore.DG>
-17.2910

> <Gold.Chemscore.ZeroCoef>
-5.4800

> <Gold.Chemscore.Hbond>
1.6680

> <Gold.Chemscore.Metal>
0.0000

> <Gold.Chemscore.Lipo>
75.2123

> <Gold.Chemscore.Internal_Hbond>
0.0000

> <Gold.Chemscore.DEClash>
0.2386

> <Gold.Chemscore.DEInternal>
1.1659

> <Gold.Chemscore.Rot>
1.0000

> <Gold.Chemscore.Internal.Correction>
   9.000000E+99

> <Gold.Chemscore.Hbonds>
donor molecule, donor type, donor heavy atom, donor atom, acceptor molecule, acceptor atom, score
      L1  H     8    27       P1  7948  0.17
      L1  H    11    28       P1  7948  0.43
      P1  H 10752 10764       L1     6  0.06

> <Gold.Chemscore.Hbond.Weighted>
-5.5711

> <Gold.Chemscore.Metal.Weighted>
-0.0000

> <Gold.Chemscore.Lipo.Weighted>
-8.7998

> <Gold.Chemscore.Internal_Hbond.Weighted>
0.0000

> <Gold.Chemscore.DEClash.Weighted>
0.2386

> <Gold.Chemscore.DEInternal.Weighted>
1.1659

> <Gold.Chemscore.Rot.Weighted>
2.5600

> <Gold.Chemscore.Internal.Correction.Weighted>
   9.000000E+99

> <Gold.Protein.RotatedTorsions>
[ 6907 6896 6895 6894 ] final    6.13 input  -60.11 | X-H torsion
[ 7974 7965 7964 7962 ] final  112.76 input  175.53 | X-H torsion
[ 8008 7997 7996 7995 ] final  -77.21 input   59.86 | X-H torsion
[ 10167 10162 10161 10158 ] final   57.75 input  -65.29 | X-H torsion
[ 10718 10713 10712 10709 ] final   21.31 input   66.30 | X-H torsion
[ 10763 10752 10751 10750 ] final  -40.14 input  -60.55 | X-H torsion
[ 11005 11000 10999 10996 ] final  -85.85 input  -57.11 | X-H torsion

> <Gold.Protein.ActiveResidues>
 VAL166  LYS551  ARG553  GLY616  TRP617  ASP618  TYR619  PRO620  LYS621  CYS622 
 ASP623  PHE694  ASN695  SER759  ASP760  ASP761  ALA762  ILE779  LEU786  VAL792 
 PHE793  MET794  SER795  GLU796  ALA797  LYS798  CYS799  TRP800  GLU811  SER814 

> <Gold.Protein.RotatedAtoms>
  151.6688  135.0979  160.0193 H   0  0  0  0  0  0  0  0  0  0  0  0  # atno 6907 bound_to 6896
  152.3904  133.6666  159.6241 H   0  0  0  0  0  0  0  0  0  0  0  0  # atno 6908 bound_to 6896
  150.7821  133.8881  159.3346 H   0  0  0  0  0  0  0  0  0  0  0  0  # atno 6909 bound_to 6896
  145.2255  139.2843  143.4195 H   0  0  0  0  0  0  0  0  0  0  0  0  # atno 7974 bound_to 7965
  154.5575  140.0714  156.8766 H   0  0  0  0  0  0  0  0  0  0  0  0  # atno 8008 bound_to 7997
  155.2875  140.3376  155.4236 H   0  0  0  0  0  0  0  0  0  0  0  0  # atno 8009 bound_to 7997
  156.2014  140.1723  156.7877 H   0  0  0  0  0  0  0  0  0  0  0  0  # atno 8010 bound_to 7997
  140.1946  144.4050  150.6555 H   0  0  0  0  0  0  0  0  0  0  0  0  # atno 10167 bound_to 10162
  157.1367  130.6614  149.5968 H   0  0  0  0  0  0  0  0  0  0  0  0  # atno 10718 bound_to 10713
  153.9410  135.6761  153.4744 H   0  0  0  0  0  0  0  0  0  0  0  0  # atno 10763 bound_to 10752
  153.0931  135.4864  154.8725 H   0  0  0  0  0  0  0  0  0  0  0  0  # atno 10764 bound_to 10752
  154.7377  135.3153  154.8741 H   0  0  0  0  0  0  0  0  0  0  0  0  # atno 10765 bound_to 10752
  141.1637  133.7422  156.9076 H   0  0  0  0  0  0  0  0  0  0  0  0  # atno 11005 bound_to 11000
  146.3366  140.2574  142.8600 LP  0  0  0  0  0  0  0  0  0  0  0  0  # atno 17320 bound_to 7965
  144.9725  140.8382  143.5446 LP  0  0  0  0  0  0  0  0  0  0  0  0  # atno 17321 bound_to 7965
  140.6432  143.2208  151.6244 LP  0  0  0  0  0  0  0  0  0  0  0  0  # atno 17342 bound_to 10162
  139.5242  144.3112  152.0991 LP  0  0  0  0  0  0  0  0  0  0  0  0  # atno 17343 bound_to 10162
  155.9797  130.4792  150.6729 LP  0  0  0  0  0  0  0  0  0  0  0  0  # atno 17370 bound_to 10713
  157.4344  131.0853  151.1007 LP  0  0  0  0  0  0  0  0  0  0  0  0  # atno 17371 bound_to 10713
  140.1539  134.9211  157.2629 LP  0  0  0  0  0  0  0  0  0  0  0  0  # atno 17394 bound_to 11000
  140.2690  134.3482  155.7380 LP  0  0  0  0  0  0  0  0  0  0  0  0  # atno 17395 bound_to 11000

$$$$
