AV-unprocessed.smi:1484|AV-procd|sdf|5996|dock7
  -GOLD-   22720 6 93D 1   1.00000     0.00000
 Structure written by MMmdl.
 37 38  0  0  0  0  0  0  0  0  2 V2000
  150.3807  143.0894  158.4744 C   0  0  0  0  0  0  0  0  0  0  0  0
  150.3686  141.6534  157.9321 C   0  0  1  0  0  0  0  0  0  0  0  0
  150.8009  141.6058  156.4537 C   0  0  0  0  0  0  0  0  0  0  0  0
  150.8013  140.1689  155.9082 C   0  0  0  0  0  0  0  0  0  0  0  0
  151.6833  139.2444  156.7668 C   0  0  0  0  0  0  0  0  0  0  0  0
  151.2734  139.2728  158.2518 C   0  0  2  0  0  0  0  0  0  0  0  0
  149.9680  138.6421  158.4118 N   0  0  0  0  0  0  0  0  0  0  0  0
  149.7233  137.3963  158.8487 C   0  0  0  0  0  0  0  0  0  0  0  0
  150.6160  136.6028  159.1460 O   0  0  0  0  0  0  0  0  0  0  0  0
  148.2508  136.9673  158.9821 C   0  0  0  0  0  0  0  0  0  0  0  0
  147.9254  136.3021  160.2555 N   0  0  0  0  0  0  0  0  0  0  0  0
  147.9813  137.1883  161.4157 N   0  5  0  0  0  0  0  0  0  0  0  0
  147.5795  136.7199  162.6268 C   0  0  0  0  0  0  0  0  0  0  0  0
  147.5511  137.4199  163.6362 O   0  0  0  0  0  0  0  0  0  0  0  0
  147.1732  135.3275  162.7206 C   0  0  0  0  0  0  0  0  0  0  0  0
  147.1682  134.5216  161.6406 C   0  0  0  0  0  0  0  0  0  0  0  0
  147.5497  134.9925  160.3145 C   0  0  0  0  0  0  0  0  0  0  0  0
  147.5142  134.2706  159.3180 O   0  0  0  0  0  0  0  0  0  0  0  0
  151.2558  140.7214  158.7853 C   0  0  0  0  0  0  0  0  0  0  0  0
  151.3828  143.5178  158.4417 H   0  0  0  0  0  0  0  0  0  0  0  0
  150.0384  143.1199  159.5091 H   0  0  0  0  0  0  0  0  0  0  0  0
  149.7225  143.7344  157.8915 H   0  0  0  0  0  0  0  0  0  0  0  0
  149.3398  141.2946  157.9923 H   0  0  0  0  0  0  0  0  0  0  0  0
  150.1346  142.2238  155.8509 H   0  0  0  0  0  0  0  0  0  0  0  0
  151.7989  142.0332  156.3477 H   0  0  0  0  0  0  0  0  0  0  0  0
  149.7792  139.7877  155.8818 H   0  0  0  0  0  0  0  0  0  0  0  0
  151.1549  140.1647  154.8769 H   0  0  0  0  0  0  0  0  0  0  0  0
  151.6388  138.2243  156.3830 H   0  0  0  0  0  0  0  0  0  0  0  0
  152.7238  139.5580  156.6759 H   0  0  0  0  0  0  0  0  0  0  0  0
  152.0059  138.6954  158.8185 H   0  0  0  0  0  0  0  0  0  0  0  0
  149.1630  139.2181  158.2083 H   0  0  0  0  0  0  0  0  0  0  0  0
  147.6157  137.8424  158.8349 H   0  0  0  0  0  0  0  0  0  0  0  0
  148.0182  136.3007  158.1498 H   0  0  0  0  0  0  0  0  0  0  0  0
  146.8739  134.9289  163.6788 H   0  0  0  0  0  0  0  0  0  0  0  0
  146.8621  133.4927  161.7576 H   0  0  0  0  0  0  0  0  0  0  0  0
  152.2762  141.1066  158.7953 H   0  0  0  0  0  0  0  0  0  0  0  0
  150.9207  140.7335  159.8233 H   0  0  0  0  0  0  0  0  0  0  0  0
  1  2  1  0  0  0  0
  1 20  1  0  0  0  0
  1 21  1  0  0  0  0
  1 22  1  0  0  0  0
  2 19  1  0  0  0  0
  2  3  1  0  0  0  0
  2 23  1  0  0  0  0
  3  4  1  0  0  0  0
  3 24  1  0  0  0  0
  3 25  1  0  0  0  0
  4  5  1  0  0  0  0
  4 26  1  0  0  0  0
  4 27  1  0  0  0  0
  5  6  1  0  0  0  0
  5 28  1  0  0  0  0
  5 29  1  0  0  0  0
  6  7  1  0  0  0  0
  6 19  1  0  0  0  0
  6 30  1  0  0  0  0
  7  8  1  0  0  0  0
  7 31  1  0  0  0  0
  8  9  2  0  0  0  0
  8 10  1  0  0  0  0
 10 32  1  0  0  0  0
 10 33  1  0  0  0  0
 10 11  1  0  0  0  0
 11 12  1  0  0  0  0
 11 17  1  0  0  0  0
 12 13  1  0  0  0  0
 13 14  2  0  0  0  0
 13 15  1  0  0  0  0
 15 34  1  0  0  0  0
 15 16  2  0  0  0  0
 16 35  1  0  0  0  0
 16 17  1  0  0  0  0
 17 18  2  0  0  0  0
 19 36  1  0  0  0  0
 19 37  1  0  0  0  0
M  CHG  1  12  -1
M  END
> <s_m_source_file>
AV-unprocessed.smi

> <i_m_source_file_index>
1484

> <i_lp_mmshare_version>
43012

> <i_f3d_flags>
0

> <s_epik_input>
W0NIM11bQ0BASF0xW0NIMl1bQ0gyXVtDSDJdW0NASF0oW0NIMl0xKVtOSF1DKD1PKVtDSDJdbjJbbkhdYyg9TylbY0hdW2NIXWMyPU8=

> <s_epik_cmdline>
J2VwaWtfcHl0aG9uJywgJy1waCcsICc3LjAnLCAnLXRuJywgJzgnLCAnLW1hJywgJzIwMCcsICctbWV0YWxfYmluZGluZycsICctaW1hZScsICc8aW5maWxlLm1hZT4nLCAnLW9tYWUnLCAnPG91dGZpbGUubWFlPic=

> <r_lp_tautomer_probability>
1

> <r_epik_Ionization_Penalty>
0.101352

> <r_epik_Ionization_Penalty_Charging>
0.101352

> <r_epik_Ionization_Penalty_Neutral>
1.90469e-08

> <r_epik_State_Penalty>
0.0358555

> <r_epik_Charging_Adjusted_Penalty>
0.137208

> <i_epik_Tot_Q>
-1

> <i_epik_Tot_abs_Q>
1

> <r_epik_Metal_State_Penalty>
0.0358555

> <b_epik_Metal_Only>
0

> <s_lp_Force_Field>
OPLS_2005

> <r_lp_Energy>
21.3013

> <b_lp_Chiralities_Consistent>
1

> <s_lp_Variant>
AV-unprocessed.smi:1484-4

> <Gold.Version>
5.8.1

> <Gold.Id.Protein>
6NUR|6NUR_protein|mol2

> <Gold.PLP.Fitness>
45.5537

> <Gold.PLP.PLP>
-33.5261

> <Gold.PLP.part.hbond>
-3.8376

> <Gold.PLP.part.metal>
0.0000

> <Gold.PLP.part.buried>
-3.0663

> <Gold.PLP.part.nonpolar>
-27.5550

> <Gold.PLP.part.repulsive>
0.2064

> <Gold.PLP.ligand.clash>
0.0000

> <Gold.PLP.ligand.torsion>
0.4416

> <Gold.PLP.Chemscore.Hbond>
4.3005

> <Gold.PLP.Chemscore.CHOScore>
0.0000

> <Gold.PLP.Chemscore.Metal>
0.0000

> <Gold.Chemscore.Hbonds>
donor molecule, donor type, donor heavy atom, donor atom, acceptor molecule, acceptor atom, score
      P1  H  6896  6907       L1     9  1.00
      P1  H  6931  6943       L1    12  1.90
      P1  H  6934  6947       L1    12  1.27

> <Gold.PLP.Chemscore.Internal.Correction>
0.0092

> <Gold.Rescore>
     Score         DG    S(hbond)    S(metal)    S(lipo)     H(rot)  DE(clash)    DE(int)     intcor
     14.11     -15.55       2.16        0.00      60.48       1.65       0.90       0.54       ----

> <Gold.Chemscore.Fitness>
14.1087

> <Gold.Chemscore.DG>
-15.5509

> <Gold.Chemscore.ZeroCoef>
-5.4800

> <Gold.Chemscore.Hbond>
2.1650

> <Gold.Chemscore.Metal>
0.0000

> <Gold.Chemscore.Lipo>
60.4819

> <Gold.Chemscore.Internal_Hbond>
0.0000

> <Gold.Chemscore.DEClash>
0.9006

> <Gold.Chemscore.DEInternal>
0.5417

> <Gold.Chemscore.Rot>
1.6549

> <Gold.Chemscore.Internal.Correction>
   9.000000E+99

> <Gold.Chemscore.Hbonds>
donor molecule, donor type, donor heavy atom, donor atom, acceptor molecule, acceptor atom, score
      P1  H  6896  6907       L1     9  0.99
      P1  H  6931  6943       L1    12  0.20
      P1  H  6934  6947       L1    12  0.39

> <Gold.Chemscore.Hbond.Weighted>
-7.2310

> <Gold.Chemscore.Metal.Weighted>
-0.0000

> <Gold.Chemscore.Lipo.Weighted>
-7.0764

> <Gold.Chemscore.Internal_Hbond.Weighted>
0.0000

> <Gold.Chemscore.DEClash.Weighted>
0.9006

> <Gold.Chemscore.DEInternal.Weighted>
0.5417

> <Gold.Chemscore.Rot.Weighted>
4.2364

> <Gold.Chemscore.Internal.Correction.Weighted>
   9.000000E+99

> <Gold.Protein.RotatedTorsions>
[ 6907 6896 6895 6894 ] final  -37.06 input  -60.11 | X-H torsion
[ 7974 7965 7964 7962 ] final  -17.37 input  175.53 | X-H torsion
[ 8008 7997 7996 7995 ] final -138.72 input   59.86 | X-H torsion
[ 10167 10162 10161 10158 ] final -171.57 input  -65.29 | X-H torsion
[ 10718 10713 10712 10709 ] final -156.55 input   66.30 | X-H torsion
[ 10763 10752 10751 10750 ] final -178.57 input  -60.55 | X-H torsion
[ 11005 11000 10999 10996 ] final  -73.46 input  -57.11 | X-H torsion

> <Gold.Protein.ActiveResidues>
 VAL166  LYS551  ARG553  GLY616  TRP617  ASP618  TYR619  PRO620  LYS621  CYS622 
 ASP623  PHE694  ASN695  SER759  ASP760  ASP761  ALA762  ILE779  LEU786  VAL792 
 PHE793  MET794  SER795  GLU796  ALA797  LYS798  CYS799  TRP800  GLU811  SER814 

> <Gold.Protein.RotatedAtoms>
  151.0194  134.9457  159.8050 H   0  0  0  0  0  0  0  0  0  0  0  0  # atno 6907 bound_to 6896
  152.5321  134.2923  159.9058 H   0  0  0  0  0  0  0  0  0  0  0  0  # atno 6908 bound_to 6896
  151.2930  133.4114  159.2668 H   0  0  0  0  0  0  0  0  0  0  0  0  # atno 6909 bound_to 6896
  146.1944  140.3769  142.8446 H   0  0  0  0  0  0  0  0  0  0  0  0  # atno 7974 bound_to 7965
  155.4331  140.0526  157.3017 H   0  0  0  0  0  0  0  0  0  0  0  0  # atno 8008 bound_to 7997
  154.4851  140.2097  155.9631 H   0  0  0  0  0  0  0  0  0  0  0  0  # atno 8009 bound_to 7997
  156.1263  140.3179  155.8287 H   0  0  0  0  0  0  0  0  0  0  0  0  # atno 8010 bound_to 7997
  139.5794  144.1457  152.1495 H   0  0  0  0  0  0  0  0  0  0  0  0  # atno 10167 bound_to 10162
  156.5281  130.8508  151.2706 H   0  0  0  0  0  0  0  0  0  0  0  0  # atno 10718 bound_to 10713
  154.5460  135.2809  155.1052 H   0  0  0  0  0  0  0  0  0  0  0  0  # atno 10763 bound_to 10752
  154.2516  135.6338  153.5246 H   0  0  0  0  0  0  0  0  0  0  0  0  # atno 10764 bound_to 10752
  152.9990  135.5584  154.6013 H   0  0  0  0  0  0  0  0  0  0  0  0  # atno 10765 bound_to 10752
  141.1623  133.6879  156.7215 H   0  0  0  0  0  0  0  0  0  0  0  0  # atno 11005 bound_to 11000
  144.8551  140.7058  143.6143 LP  0  0  0  0  0  0  0  0  0  0  0  0  # atno 17320 bound_to 7965
  145.3690  139.1663  143.4342 LP  0  0  0  0  0  0  0  0  0  0  0  0  # atno 17321 bound_to 7965
  140.1007  144.5542  150.6991 LP  0  0  0  0  0  0  0  0  0  0  0  0  # atno 17342 bound_to 10162
  140.7074  143.2478  151.4685 LP  0  0  0  0  0  0  0  0  0  0  0  0  # atno 17343 bound_to 10162
  157.7426  130.9894  150.2530 LP  0  0  0  0  0  0  0  0  0  0  0  0  # atno 17370 bound_to 10713
  156.3086  130.3768  149.7683 LP  0  0  0  0  0  0  0  0  0  0  0  0  # atno 17371 bound_to 10713
  140.2813  134.8315  157.3935 LP  0  0  0  0  0  0  0  0  0  0  0  0  # atno 17394 bound_to 11000
  140.1431  134.4946  155.8016 LP  0  0  0  0  0  0  0  0  0  0  0  0  # atno 17395 bound_to 11000

$$$$
